0
                    3D
 Structure written by MMmdl.
164172  0  0  1  0            999 V2000
  -30.7496  -14.4309   20.6537 C   0  0  0  0  0  0
  -30.4109  -12.3160   19.4127 C   0  0  0  0  0  0
  -29.4825  -12.5280   18.2007 C   0  0  0  0  0  0
  -28.0095  -12.3749   18.6189 C   0  0  0  0  0  0
  -27.6597  -13.2111   19.8779 C   0  0  2  0  0  0
  -28.6987  -12.9955   21.0003 C   0  0  0  0  0  0
  -25.2549  -13.8160   20.5654 C   0  0  0  0  0  0
  -24.1819  -13.0449   20.9184 C   0  0  0  0  0  0
  -24.6379  -11.6910   20.8737 C   0  0  0  0  0  0
  -23.9038  -10.4297   21.0394 C   0  0  0  0  0  0
  -24.3587   -9.4209   21.9170 C   0  0  0  0  0  0
  -23.6267   -8.2245   22.0739 C   0  0  0  0  0  0
  -22.4258   -8.0277   21.3522 C   0  0  0  0  0  0
  -21.9885   -9.0251   20.4630 C   0  0  0  0  0  0
  -22.7206  -10.2138   20.3042 C   0  0  0  0  0  0
  -21.6861   -6.0725   22.5266 C   0  0  0  0  0  0
  -21.4036   -6.5629   23.8198 C   0  0  0  0  0  0
  -21.3650   -5.6776   24.9156 C   0  0  0  0  0  0
  -21.6045   -4.3040   24.7211 C   0  0  0  0  0  0
  -21.8822   -3.8131   23.4333 C   0  0  0  0  0  0
  -21.9197   -4.6953   22.3390 C   0  0  0  0  0  0
  -22.7843  -13.5253   21.1853 C   0  0  0  0  0  0
  -22.1667   -4.2137   21.0966 F   0  0  0  0  0  0
  -21.5610   -3.4522   25.7720 F   0  0  0  0  0  0
  -30.0370  -13.2868   20.4568 N   0  0  0  0  0  0
  -26.2999  -12.9356   20.3359 N   0  0  0  0  0  0
  -25.9303  -11.6500   20.5739 N   0  0  0  0  0  0
  -22.0500  -12.8244   22.0420 N   0  0  0  0  0  0
  -25.4240  -15.1881   20.3965 N   0  0  0  0  0  0
  -31.7900  -14.6775   20.0330 O   0  0  0  0  0  0
  -21.6639   -6.8866   21.4225 O   0  0  0  0  0  0
  -22.3531  -14.5556   20.6689 O   0  0  0  0  0  0
  -24.6162  -31.8702   23.2084 C   0  0  0  0  0  0
  -25.9050  -32.4815   23.8392 C   0  0  1  0  0  0
  -27.2315  -27.4407   20.0960 C   0  0  0  0  0  0
  -25.5933  -33.8613   24.2338 N   0  0  0  0  0  0
  -23.4040  -30.4923   21.5525 C   0  0  2  0  0  0
  -24.8494  -28.9630   20.1114 C   0  0  0  0  0  0
  -22.7435  -29.4661   22.5016 C   0  0  0  0  0  0
  -18.0300  -28.1338   22.8480 C   0  0  0  0  0  0
  -24.1482  -36.7317   23.2639 C   0  0  0  0  0  0
  -25.9331  -30.8383   21.3587 C   0  0  0  0  0  0
  -26.0121  -29.4739   20.7049 C   0  0  0  0  0  0
  -27.2103  -28.7217   20.6916 C   0  0  0  0  0  0
  -26.0574  -26.9473   19.4913 C   0  0  0  0  0  0
  -24.8680  -27.6980   19.4992 C   0  0  0  0  0  0
  -23.6088  -29.8270   20.1666 C   0  0  0  0  0  0
  -25.4100  -36.3111   24.0341 C   0  0  1  0  0  0
  -20.5893  -28.3653   23.1344 C   0  0  2  0  0  0
  -20.6821  -26.9411   22.5410 C   0  0  0  0  0  0
  -19.5819  -26.6444   21.5175 C   0  0  0  0  0  0
  -18.1971  -26.7914   22.1539 C   0  0  0  0  0  0
  -19.1545  -28.8801   23.2918 C   0  0  0  0  0  0
  -18.9461  -30.1407   23.8920 C   0  0  0  0  0  0
  -17.6457  -30.6540   24.0570 C   0  0  0  0  0  0
  -25.9050  -34.9476   23.5133 C   0  0  0  0  0  0
  -16.5361  -29.9036   23.6299 C   0  0  0  0  0  0
  -16.7288  -28.6462   23.0309 C   0  0  0  0  0  0
  -26.4482  -31.6585   25.0721 C   0  0  0  0  0  0
  -25.3749  -31.3702   26.1481 C   0  0  0  0  0  0
  -27.0316  -30.3023   24.6090 C   0  0  0  0  0  0
  -27.6071  -32.4302   25.7473 C   0  0  0  0  0  0
  -27.5569  -37.1817   24.8469 C   0  0  0  0  0  0
  -21.4157  -29.3054   22.3772 N   0  0  0  0  0  0
  -26.4286  -37.3792   23.9412 N   0  0  0  0  0  0
  -24.6700  -31.0818   22.0971 N   0  0  0  0  0  0
  -23.4218  -28.8187   23.3031 O   0  0  0  0  0  0
  -28.3563  -26.6470   20.1388 O   0  0  0  0  0  0
  -26.5600  -34.8944   22.4683 O   0  0  0  0  0  0
  -23.5362  -32.1436   23.7492 O   0  0  0  0  0  0
  -28.0722  -18.1332   21.5611 C   0  0  0  0  0  0
  -28.5421  -16.8054   21.4809 C   0  0  0  0  0  0
  -28.9894  -19.1935   21.7278 C   0  0  0  0  0  0
  -30.3618  -18.8521   21.7568 C   0  0  0  0  0  0
  -29.9248  -16.5465   21.5642 C   0  0  0  0  0  0
  -31.4520  -19.9023   21.8854 C   0  0  0  0  0  0
  -28.0237  -23.9975   18.8919 C   0  0  0  0  0  0
  -26.3653  -22.8523   21.2225 C   0  0  0  0  0  0
  -28.4701  -20.6142   22.0286 C   0  0  0  0  0  0
  -28.1936  -25.5005   21.0001 C   0  0  0  0  0  0
  -28.4769  -24.1015   20.3619 C   0  0  1  0  0  0
  -27.9134  -22.9326   21.2447 C   0  0  2  0  0  0
  -30.8007  -17.5712   21.6920 N   0  0  0  0  0  0
  -30.3662  -15.2026   21.6848 N   0  0  0  0  0  0
  -28.5094  -21.6011   20.9120 N   0  3  0  0  0  0
  -31.4561  -12.4019   19.1105 H   0  0  0  0  0  0
  -30.3019  -11.3028   19.8020 H   0  0  0  0  0  0
  -29.7235  -11.8171   17.4102 H   0  0  0  0  0  0
  -29.6432  -13.5214   17.7755 H   0  0  0  0  0  0
  -27.8245  -11.3180   18.8155 H   0  0  0  0  0  0
  -27.3513  -12.6482   17.7932 H   0  0  0  0  0  0
  -27.7056  -14.2594   19.5832 H   0  0  0  0  0  0
  -28.6713  -11.9643   21.3542 H   0  0  0  0  0  0
  -28.4455  -13.6088   21.8656 H   0  0  0  0  0  0
  -25.2732   -9.5699   22.4739 H   0  0  0  0  0  0
  -23.9973   -7.4644   22.7472 H   0  0  0  0  0  0
  -21.0801   -8.8775   19.8947 H   0  0  0  0  0  0
  -22.3653  -10.9672   19.6145 H   0  0  0  0  0  0
  -21.2066   -7.6142   23.9704 H   0  0  0  0  0  0
  -21.1456   -6.0503   25.9056 H   0  0  0  0  0  0
  -22.0616   -2.7597   23.2833 H   0  0  0  0  0  0
  -22.4124  -11.9885   22.4767 H   0  0  0  0  0  0
  -21.1113  -13.1262   22.2626 H   0  0  0  0  0  0
  -24.6529  -15.8377   20.4950 H   0  0  0  0  0  0
  -26.2566  -15.6175   20.0152 H   0  0  0  0  0  0
  -26.7116  -32.5549   23.1163 H   0  0  0  0  0  0
  -25.0100  -33.9757   25.0491 H   0  0  0  0  0  0
  -22.6898  -31.3071   21.4160 H   0  0  0  0  0  0
  -23.3736  -35.9657   23.3322 H   0  0  0  0  0  0
  -24.3596  -36.8912   22.2056 H   0  0  0  0  0  0
  -23.7252  -37.6540   23.6628 H   0  0  0  0  0  0
  -26.0488  -31.6057   20.5922 H   0  0  0  0  0  0
  -26.8180  -30.8880   21.9810 H   0  0  0  0  0  0
  -28.1078  -29.1071   21.1553 H   0  0  0  0  0  0
  -26.0537  -25.9763   19.0256 H   0  0  0  0  0  0
  -23.9767  -27.2968   19.0369 H   0  0  0  0  0  0
  -23.7117  -30.6038   19.4078 H   0  0  0  0  0  0
  -22.7319  -29.2461   19.8745 H   0  0  0  0  0  0
  -25.1263  -36.1986   25.0830 H   0  0  0  0  0  0
  -20.9966  -28.3194   24.1475 H   0  0  0  0  0  0
  -20.5739  -26.2269   23.3585 H   0  0  0  0  0  0
  -21.6697  -26.7503   22.1193 H   0  0  0  0  0  0
  -19.7066  -25.6435   21.1056 H   0  0  0  0  0  0
  -19.6799  -27.3371   20.6810 H   0  0  0  0  0  0
  -17.4292  -26.6712   21.3873 H   0  0  0  0  0  0
  -18.0365  -25.9991   22.8862 H   0  0  0  0  0  0
  -19.7931  -30.7230   24.2291 H   0  0  0  0  0  0
  -17.4973  -31.6226   24.5151 H   0  0  0  0  0  0
  -15.5353  -30.2905   23.7602 H   0  0  0  0  0  0
  -15.8699  -28.0786   22.6999 H   0  0  0  0  0  0
  -24.5901  -30.7059   25.7828 H   0  0  0  0  0  0
  -24.8955  -32.2858   26.4950 H   0  0  0  0  0  0
  -25.8123  -30.8862   27.0218 H   0  0  0  0  0  0
  -26.2852  -29.6790   24.1142 H   0  0  0  0  0  0
  -27.4080  -29.7271   25.4562 H   0  0  0  0  0  0
  -27.8691  -30.4347   23.9236 H   0  0  0  0  0  0
  -27.2686  -33.3574   26.2099 H   0  0  0  0  0  0
  -28.3849  -32.6904   25.0279 H   0  0  0  0  0  0
  -28.0752  -31.8387   26.5348 H   0  0  0  0  0  0
  -28.2611  -38.0089   24.7487 H   0  0  0  0  0  0
  -28.1046  -36.2632   24.6308 H   0  0  0  0  0  0
  -27.2306  -37.1483   25.8880 H   0  0  0  0  0  0
  -20.9316  -29.8822   21.7043 H   0  0  0  0  0  0
  -26.0194  -38.2886   24.1372 H   0  0  0  0  0  0
  -27.0092  -18.3269   21.5532 H   0  0  0  0  0  0
  -27.8310  -15.9948   21.4254 H   0  0  0  0  0  0
  -31.3104  -20.5213   22.7722 H   0  0  0  0  0  0
  -31.4676  -20.5444   21.0047 H   0  0  0  0  0  0
  -32.4362  -19.4391   21.9601 H   0  0  0  0  0  0
  -28.4197  -24.8218   18.2963 H   0  0  0  0  0  0
  -26.9419  -24.0043   18.7874 H   0  0  0  0  0  0
  -28.3847  -23.0758   18.4364 H   0  0  0  0  0  0
  -25.8912  -23.8233   21.3577 H   0  0  0  0  0  0
  -25.9810  -22.2175   22.0209 H   0  0  0  0  0  0
  -25.9932  -22.4491   20.2806 H   0  0  0  0  0  0
  -29.0154  -21.0153   22.8843 H   0  0  0  0  0  0
  -27.4422  -20.5128   22.3752 H   0  0  0  0  0  0
  -28.8821  -25.6375   21.8357 H   0  0  0  0  0  0
  -27.2118  -25.5106   21.4745 H   0  0  0  0  0  0
  -29.5644  -24.0130   20.3499 H   0  0  0  0  0  0
  -28.2184  -23.1631   22.2677 H   0  0  0  0  0  0
  -31.0927  -15.1518   22.3822 H   0  0  0  0  0  0
  -28.0292  -21.2200   20.1137 H   0  0  0  0  0  0
  -29.4688  -21.7476   20.6464 H   0  0  0  0  0  0
  1 25  1  0  0  0
  1 30  2  0  0  0
  1 84  1  0  0  0
  2  3  1  0  0  0
  2 25  1  0  0  0
  2 86  1  0  0  0
  2 87  1  0  0  0
  3  4  1  0  0  0
  3 88  1  0  0  0
  3 89  1  0  0  0
  4  5  1  0  0  0
  4 90  1  0  0  0
  4 91  1  0  0  0
  5  6  1  0  0  0
  5 26  1  0  0  0
  5 92  1  0  0  0
  6 25  1  0  0  0
  6 93  1  0  0  0
  6 94  1  0  0  0
  7  8  2  0  0  0
  7 26  1  0  0  0
  7 29  1  0  0  0
  8  9  1  0  0  0
  8 22  1  0  0  0
  9 10  1  0  0  0
  9 27  2  0  0  0
 10 11  2  0  0  0
 10 15  1  0  0  0
 11 12  1  0  0  0
 11 95  1  0  0  0
 12 13  2  0  0  0
 12 96  1  0  0  0
 13 14  1  0  0  0
 13 31  1  0  0  0
 14 15  2  0  0  0
 14 97  1  0  0  0
 15 98  1  0  0  0
 16 17  2  0  0  0
 16 21  1  0  0  0
 16 31  1  0  0  0
 17 18  1  0  0  0
 17 99  1  0  0  0
 18 19  2  0  0  0
 18100  1  0  0  0
 19 20  1  0  0  0
 19 24  1  0  0  0
 20 21  2  0  0  0
 20101  1  0  0  0
 21 23  1  0  0  0
 22 28  1  0  0  0
 22 32  2  0  0  0
 26 27  1  0  0  0
 28102  1  0  0  0
 28103  1  0  0  0
 29104  1  0  0  0
 29105  1  0  0  0
 33 34  1  0  0  0
 33 66  1  0  0  0
 33 70  2  0  0  0
 34 36  1  0  0  0
 34 59  1  0  0  0
 34106  1  0  0  0
 35 44  2  0  0  0
 35 45  1  0  0  0
 35 68  1  0  0  0
 36 56  1  0  0  0
 36107  1  0  0  0
 37 39  1  0  0  0
 37 47  1  0  0  0
 37 66  1  0  0  0
 37108  1  0  0  0
 38 43  2  0  0  0
 38 46  1  0  0  0
 38 47  1  0  0  0
 39 64  1  0  0  0
 39 67  2  0  0  0
 40 52  1  0  0  0
 40 53  2  0  0  0
 40 58  1  0  0  0
 41109  1  0  0  0
 41110  1  0  0  0
 41111  1  0  0  0
 41 48  1  0  0  0
 42 43  1  0  0  0
 42 66  1  0  0  0
 42112  1  0  0  0
 42113  1  0  0  0
 43 44  1  0  0  0
 44114  1  0  0  0
 45 46  2  0  0  0
 45115  1  0  0  0
 46116  1  0  0  0
 47117  1  0  0  0
 47118  1  0  0  0
 48 56  1  0  0  0
 48 65  1  0  0  0
 48119  1  0  0  0
 49 50  1  0  0  0
 49 53  1  0  0  0
 49 64  1  0  0  0
 49120  1  0  0  0
 50 51  1  0  0  0
 50121  1  0  0  0
 50122  1  0  0  0
 51 52  1  0  0  0
 51123  1  0  0  0
 51124  1  0  0  0
 52125  1  0  0  0
 52126  1  0  0  0
 53 54  1  0  0  0
 54 55  2  0  0  0
 54127  1  0  0  0
 55 57  1  0  0  0
 55128  1  0  0  0
 56 69  2  0  0  0
 57 58  2  0  0  0
 57129  1  0  0  0
 58130  1  0  0  0
 59 60  1  0  0  0
 59 61  1  0  0  0
 59 62  1  0  0  0
 60131  1  0  0  0
 60132  1  0  0  0
 60133  1  0  0  0
 61134  1  0  0  0
 61135  1  0  0  0
 61136  1  0  0  0
 62137  1  0  0  0
 62138  1  0  0  0
 62139  1  0  0  0
 63 65  1  0  0  0
 63140  1  0  0  0
 63141  1  0  0  0
 63142  1  0  0  0
 64143  1  0  0  0
 65144  1  0  0  0
 68 80  1  0  0  0
 71 72  2  0  0  0
 71 73  1  0  0  0
 71145  1  0  0  0
 72 75  1  0  0  0
 72146  1  0  0  0
 73 74  2  0  0  0
 73 79  1  0  0  0
 74 76  1  0  0  0
 74 83  1  0  0  0
 75 83  2  0  0  0
 75 84  1  0  0  0
 76147  1  0  0  0
 76148  1  0  0  0
 76149  1  0  0  0
 77150  1  0  0  0
 77151  1  0  0  0
 77152  1  0  0  0
 77 81  1  0  0  0
 78153  1  0  0  0
 78154  1  0  0  0
 78155  1  0  0  0
 78 82  1  0  0  0
 79 85  1  0  0  0
 79156  1  0  0  0
 79157  1  0  0  0
 80 81  1  0  0  0
 80158  1  0  0  0
 80159  1  0  0  0
 81 82  1  0  0  0
 81160  1  0  0  0
 82 85  1  0  0  0
 82161  1  0  0  0
 84162  1  0  0  0
 85163  1  0  0  0
 85164  1  0  0  0
M  CHG  1  85   1
M  ISO  4   1 100  68 101  80 101  84 100
M  END
> <chiral flag>
0

> <version>
0

> <s_m_source_file>
/data/baiqing/PycharmProjects/Reinvent-master-3.2/result/LINK_invent/BTK/process_docking_weight1_custom_sum_contain_oxygen_bond_distance_aromatic_linkinvent_7_9_3/rearranged_h_0123.sdf

> <i_m_source_file_index>
1

> <r_mmod_Potential_Energy-OPLS-2005>
-243.912979125977

> <r_mmod_Stretch_Energy-OPLS-2005>
40.8044891357422

> <r_mmod_Bend_Energy-OPLS-2005>
110.494346618652

> <r_mmod_Torsional_Energy-OPLS-2005>
310.395629882812

> <r_mmod_Improper_Torsional_Energy-OPLS-2005>
10.188910484314

> <r_mmod_Van_der_Waal_Energy-OPLS-2005>
146.876739501953

> <r_mmod_Electrostatic_Energy-OPLS-2005>
-403.281402587891

> <r_mmod_Solvation_Energy-OPLS-2005>
-470.955993652344

> <b_mmod_Minimization_Converged-OPLS-2005>
0

> <r_mmod_RMS_Derivative-OPLS-2005>
2.72219252586365

$$$$
1
                    3D
 Structure written by MMmdl.
177186  0  0  1  0            999 V2000
  -30.5127  -15.0024   20.4061 C   0  0  0  0  0  0
  -30.4424  -12.6145   19.5354 C   0  0  0  0  0  0
  -29.5380  -12.5532   18.2792 C   0  0  0  0  0  0
  -28.0681  -12.3309   18.6828 C   0  0  0  0  0  0
  -27.6297  -13.2598   19.8463 C   0  0  2  0  0  0
  -28.6647  -13.3016   20.9948 C   0  0  0  0  0  0
  -25.2408  -13.8236   20.5722 C   0  0  0  0  0  0
  -24.1735  -13.0431   20.9217 C   0  0  0  0  0  0
  -24.6402  -11.6918   20.8763 C   0  0  0  0  0  0
  -23.9088  -10.4289   21.0412 C   0  0  0  0  0  0
  -24.3613   -9.4201   21.9199 C   0  0  0  0  0  0
  -23.6265   -8.2240   22.0781 C   0  0  0  0  0  0
  -22.4237   -8.0293   21.3573 C   0  0  0  0  0  0
  -21.9889   -9.0268   20.4672 C   0  0  0  0  0  0
  -22.7242  -10.2133   20.3069 C   0  0  0  0  0  0
  -21.6843   -6.0743   22.5276 C   0  0  0  0  0  0
  -21.4028   -6.5642   23.8218 C   0  0  0  0  0  0
  -21.3668   -5.6798   24.9176 C   0  0  0  0  0  0
  -21.6032   -4.3061   24.7212 C   0  0  0  0  0  0
  -21.8812   -3.8147   23.4336 C   0  0  0  0  0  0
  -21.9169   -4.6966   22.3389 C   0  0  0  0  0  0
  -22.7747  -13.5199   21.1859 C   0  0  0  0  0  0
  -22.1639   -4.2171   21.0958 F   0  0  0  0  0  0
  -21.5628   -3.4539   25.7730 F   0  0  0  0  0  0
  -29.9450  -13.7201   20.4121 N   0  0  0  0  0  0
  -26.2872  -12.9497   20.3248 N   0  0  0  0  0  0
  -25.9334  -11.6617   20.5728 N   0  0  0  0  0  0
  -22.0367  -12.8243   22.0443 N   0  0  0  0  0  0
  -25.4035  -15.1971   20.4184 N   0  0  0  0  0  0
  -31.6882  -15.0794   20.0367 O   0  0  0  0  0  0
  -21.6622   -6.8884   21.4239 O   0  0  0  0  0  0
  -22.3447  -14.5497   20.6684 O   0  0  0  0  0  0
  -24.6477  -31.8379   23.1815 C   0  0  0  0  0  0
  -25.9230  -32.4642   23.8249 C   0  0  1  0  0  0
  -27.2193  -27.0922   20.1497 C   0  0  0  0  0  0
  -25.5958  -33.8451   24.2167 N   0  0  0  0  0  0
  -23.4550  -30.4546   21.5265 C   0  0  2  0  0  0
  -24.9050  -28.8665   20.1132 C   0  0  0  0  0  0
  -22.7587  -29.4515   22.4811 C   0  0  0  0  0  0
  -18.0315  -28.1370   22.8464 C   0  0  0  0  0  0
  -24.1498  -36.7235   23.2646 C   0  0  0  0  0  0
  -26.0133  -30.6953   21.3886 C   0  0  0  0  0  0
  -26.0845  -29.3004   20.7324 C   0  0  0  0  0  0
  -27.2463  -28.4329   20.7244 C   0  0  0  0  0  0
  -26.0122  -26.7615   19.5031 C   0  0  0  0  0  0
  -24.8843  -27.6128   19.4814 C   0  0  0  0  0  0
  -23.6852  -29.7770   20.1493 C   0  0  0  0  0  0
  -25.4132  -36.2997   24.0305 C   0  0  1  0  0  0
  -20.5922  -28.3715   23.1197 C   0  0  2  0  0  0
  -20.6780  -26.9401   22.5393 C   0  0  0  0  0  0
  -19.5772  -26.6358   21.5185 C   0  0  0  0  0  0
  -18.1955  -26.7909   22.1599 C   0  0  0  0  0  0
  -19.1570  -28.8865   23.2827 C   0  0  0  0  0  0
  -18.9483  -30.1446   23.8883 C   0  0  0  0  0  0
  -17.6476  -30.6558   24.0554 C   0  0  0  0  0  0
  -25.9085  -34.9364   23.5055 C   0  0  0  0  0  0
  -16.5374  -29.9050   23.6311 C   0  0  0  0  0  0
  -16.7300  -28.6457   23.0363 C   0  0  0  0  0  0
  -26.4545  -31.6532   25.0709 C   0  0  0  0  0  0
  -25.3733  -31.3720   26.1409 C   0  0  0  0  0  0
  -27.0407  -30.2917   24.6316 C   0  0  0  0  0  0
  -27.6081  -32.4306   25.7495 C   0  0  0  0  0  0
  -27.5572  -37.1768   24.8455 C   0  0  0  0  0  0
  -21.4273  -29.3036   22.3558 N   0  0  0  0  0  0
  -26.4283  -37.3715   23.9399 N   0  0  0  0  0  0
  -24.7247  -31.0204   22.0861 N   0  0  0  0  0  0
  -23.4208  -28.8065   23.2985 O   0  0  0  0  0  0
  -28.2797  -26.1041   20.1283 O   0  0  0  0  0  0
  -26.5679  -34.8867   22.4639 O   0  0  0  0  0  0
  -23.5580  -32.1288   23.6998 O   0  0  0  0  0  0
  -29.7930  -21.7841   21.6818 C   0  0  0  0  0  0
  -30.2721  -19.3615   21.7634 C   0  0  0  0  0  0
  -30.4197  -20.6676   22.2968 C   0  0  0  0  0  0
  -29.0796  -21.6865   20.4776 C   0  0  0  0  0  0
  -29.5547  -19.1294   20.5685 C   0  0  0  0  0  0
  -33.6083  -21.9778   23.6357 C   0  0  0  0  0  0
  -31.8980  -22.2257   25.3940 C   0  0  0  0  0  0
  -32.5687  -21.4096   22.6653 C   0  0  0  0  0  0
  -30.8129  -21.6751   24.4489 C   0  0  0  0  0  0
  -32.9653  -23.0059   24.5903 C   0  0  0  0  0  0
  -28.3443  -17.4483   19.0160 C   0  0  0  0  0  0
  -34.7737  -24.7012   24.5956 C   0  0  0  0  0  0
  -33.4662  -24.4043   26.6186 C   0  0  0  0  0  0
  -28.6526  -23.1400   19.7583 C   0  0  0  0  0  0
  -28.1108  -24.5821   20.5170 C   0  0  0  0  0  0
  -29.5929  -17.5985   19.9018 C   0  0  2  0  0  0
  -29.0194  -20.3357   19.9775 N   0  3  0  0  0  0
  -31.3599  -20.8930   23.3262 N   0  0  0  0  0  0
  -29.7237  -16.1771   20.6271 N   0  0  0  0  0  0
  -33.9934  -23.7299   25.4051 N   0  3  0  0  0  0
  -31.4849  -12.7631   19.2457 H   0  0  0  0  0  0
  -30.4210  -11.6645   20.0707 H   0  0  0  0  0  0
  -29.8658  -11.7583   17.6091 H   0  0  0  0  0  0
  -29.6344  -13.4848   17.7180 H   0  0  0  0  0  0
  -27.9610  -11.2884   18.9842 H   0  0  0  0  0  0
  -27.4134  -12.4716   17.8213 H   0  0  0  0  0  0
  -27.5863  -14.2591   19.4136 H   0  0  0  0  0  0
  -28.7503  -12.3306   21.4824 H   0  0  0  0  0  0
  -28.3507  -14.0081   21.7648 H   0  0  0  0  0  0
  -25.2762   -9.5663   22.4789 H   0  0  0  0  0  0
  -23.9985   -7.4616   22.7472 H   0  0  0  0  0  0
  -21.0852   -8.8759   19.8957 H   0  0  0  0  0  0
  -22.3707  -10.9656   19.6172 H   0  0  0  0  0  0
  -21.2047   -7.6158   23.9726 H   0  0  0  0  0  0
  -21.1507   -6.0531   25.9090 H   0  0  0  0  0  0
  -22.0579   -2.7605   23.2806 H   0  0  0  0  0  0
  -22.3941  -11.9948   22.4947 H   0  0  0  0  0  0
  -21.0970  -13.1314   22.2564 H   0  0  0  0  0  0
  -24.6273  -15.8406   20.5256 H   0  0  0  0  0  0
  -26.2372  -15.6407   20.0541 H   0  0  0  0  0  0
  -26.7288  -32.5231   23.0972 H   0  0  0  0  0  0
  -25.0091  -33.9564   25.0305 H   0  0  0  0  0  0
  -22.7624  -31.2812   21.3637 H   0  0  0  0  0  0
  -23.3750  -35.9572   23.3274 H   0  0  0  0  0  0
  -24.3597  -36.8910   22.2071 H   0  0  0  0  0  0
  -23.7256  -37.6413   23.6726 H   0  0  0  0  0  0
  -26.1835  -31.4443   20.6150 H   0  0  0  0  0  0
  -26.8772  -30.7460   22.0387 H   0  0  0  0  0  0
  -28.1540  -28.7672   21.2075 H   0  0  0  0  0  0
  -25.9301  -25.8046   19.0071 H   0  0  0  0  0  0
  -23.9866  -27.2806   18.9802 H   0  0  0  0  0  0
  -23.8305  -30.5452   19.3886 H   0  0  0  0  0  0
  -22.7991  -29.2205   19.8383 H   0  0  0  0  0  0
  -25.1316  -36.1826   25.0788 H   0  0  0  0  0  0
  -21.0043  -28.3313   24.1311 H   0  0  0  0  0  0
  -20.5633  -26.2332   23.3625 H   0  0  0  0  0  0
  -21.6652  -26.7363   22.1232 H   0  0  0  0  0  0
  -19.6928  -25.6263   21.1233 H   0  0  0  0  0  0
  -19.6698  -27.3147   20.6701 H   0  0  0  0  0  0
  -17.4215  -26.6655   21.4004 H   0  0  0  0  0  0
  -18.0354  -26.0049   22.9001 H   0  0  0  0  0  0
  -19.7966  -30.7254   24.2262 H   0  0  0  0  0  0
  -17.5033  -31.6244   24.5147 H   0  0  0  0  0  0
  -15.5379  -30.2957   23.7621 H   0  0  0  0  0  0
  -15.8699  -28.0750   22.7123 H   0  0  0  0  0  0
  -24.5919  -30.7053   25.7734 H   0  0  0  0  0  0
  -24.8927  -32.2891   26.4824 H   0  0  0  0  0  0
  -25.8031  -30.8908   27.0204 H   0  0  0  0  0  0
  -26.3003  -29.6623   24.1352 H   0  0  0  0  0  0
  -27.4026  -29.7249   25.4908 H   0  0  0  0  0  0
  -27.8934  -30.4131   23.9629 H   0  0  0  0  0  0
  -27.2671  -33.3630   26.2016 H   0  0  0  0  0  0
  -28.3923  -32.6814   25.0337 H   0  0  0  0  0  0
  -28.0715  -31.8469   26.5465 H   0  0  0  0  0  0
  -28.2555  -38.0093   24.7500 H   0  0  0  0  0  0
  -28.1098  -36.2617   24.6274 H   0  0  0  0  0  0
  -27.2286  -37.1389   25.8854 H   0  0  0  0  0  0
  -20.9492  -29.8792   21.6762 H   0  0  0  0  0  0
  -26.0137  -38.2768   24.1419 H   0  0  0  0  0  0
  -29.9724  -22.7771   22.0625 H   0  0  0  0  0  0
  -30.7958  -18.5369   22.2243 H   0  0  0  0  0  0
  -34.3938  -22.4276   23.0306 H   0  0  0  0  0  0
  -34.0781  -21.1702   24.2009 H   0  0  0  0  0  0
  -32.3586  -21.4155   25.9607 H   0  0  0  0  0  0
  -31.3961  -22.8649   26.1199 H   0  0  0  0  0  0
  -33.0279  -20.6063   22.0840 H   0  0  0  0  0  0
  -32.3214  -22.1928   21.9454 H   0  0  0  0  0  0
  -30.2140  -22.5197   24.1121 H   0  0  0  0  0  0
  -30.1292  -21.0421   25.0171 H   0  0  0  0  0  0
  -32.4365  -23.7601   24.0013 H   0  0  0  0  0  0
  -28.3138  -18.2023   18.2323 H   0  0  0  0  0  0
  -27.4301  -17.5418   19.6036 H   0  0  0  0  0  0
  -28.3222  -16.4827   18.5085 H   0  0  0  0  0  0
  -35.3318  -24.2264   23.7911 H   0  0  0  0  0  0
  -35.5088  -25.2246   25.2066 H   0  0  0  0  0  0
  -34.1220  -25.4553   24.1511 H   0  0  0  0  0  0
  -33.1110  -23.6891   27.3595 H   0  0  0  0  0  0
  -32.6546  -25.0904   26.3727 H   0  0  0  0  0  0
  -34.2490  -24.9860   27.1062 H   0  0  0  0  0  0
  -27.9469  -22.9095   18.9613 H   0  0  0  0  0  0
  -29.5610  -23.4283   19.2284 H   0  0  0  0  0  0
  -28.5994  -24.5642   21.4905 H   0  0  0  0  0  0
  -27.0614  -24.4259   20.7675 H   0  0  0  0  0  0
  -30.4487  -17.6269   19.2265 H   0  0  0  0  0  0
  -28.5590  -20.2166   19.0743 H   0  0  0  0  0  0
  -28.8705  -15.9447   21.1093 H   0  0  0  0  0  0
  -34.6472  -23.0370   25.7392 H   0  0  0  0  0  0
  1 25  1  0  0  0
  1 30  2  0  0  0
  1 89  1  0  0  0
  2  3  1  0  0  0
  2 25  1  0  0  0
  2 91  1  0  0  0
  2 92  1  0  0  0
  3  4  1  0  0  0
  3 93  1  0  0  0
  3 94  1  0  0  0
  4  5  1  0  0  0
  4 95  1  0  0  0
  4 96  1  0  0  0
  5  6  1  0  0  0
  5 26  1  0  0  0
  5 97  1  0  0  0
  6 25  1  0  0  0
  6 98  1  0  0  0
  6 99  1  0  0  0
  7  8  2  0  0  0
  7 26  1  0  0  0
  7 29  1  0  0  0
  8  9  1  0  0  0
  8 22  1  0  0  0
  9 10  1  0  0  0
  9 27  2  0  0  0
 10 11  2  0  0  0
 10 15  1  0  0  0
 11 12  1  0  0  0
 11100  1  0  0  0
 12 13  2  0  0  0
 12101  1  0  0  0
 13 14  1  0  0  0
 13 31  1  0  0  0
 14 15  2  0  0  0
 14102  1  0  0  0
 15103  1  0  0  0
 16 17  2  0  0  0
 16 21  1  0  0  0
 16 31  1  0  0  0
 17 18  1  0  0  0
 17104  1  0  0  0
 18 19  2  0  0  0
 18105  1  0  0  0
 19 20  1  0  0  0
 19 24  1  0  0  0
 20 21  2  0  0  0
 20106  1  0  0  0
 21 23  1  0  0  0
 22 28  1  0  0  0
 22 32  2  0  0  0
 26 27  1  0  0  0
 28107  1  0  0  0
 28108  1  0  0  0
 29109  1  0  0  0
 29110  1  0  0  0
 33 34  1  0  0  0
 33 66  1  0  0  0
 33 70  2  0  0  0
 34 36  1  0  0  0
 34 59  1  0  0  0
 34111  1  0  0  0
 35 44  2  0  0  0
 35 45  1  0  0  0
 35 68  1  0  0  0
 36 56  1  0  0  0
 36112  1  0  0  0
 37 39  1  0  0  0
 37 47  1  0  0  0
 37 66  1  0  0  0
 37113  1  0  0  0
 38 43  2  0  0  0
 38 46  1  0  0  0
 38 47  1  0  0  0
 39 64  1  0  0  0
 39 67  2  0  0  0
 40 52  1  0  0  0
 40 53  2  0  0  0
 40 58  1  0  0  0
 41114  1  0  0  0
 41115  1  0  0  0
 41116  1  0  0  0
 41 48  1  0  0  0
 42 43  1  0  0  0
 42 66  1  0  0  0
 42117  1  0  0  0
 42118  1  0  0  0
 43 44  1  0  0  0
 44119  1  0  0  0
 45 46  2  0  0  0
 45120  1  0  0  0
 46121  1  0  0  0
 47122  1  0  0  0
 47123  1  0  0  0
 48 56  1  0  0  0
 48 65  1  0  0  0
 48124  1  0  0  0
 49 50  1  0  0  0
 49 53  1  0  0  0
 49 64  1  0  0  0
 49125  1  0  0  0
 50 51  1  0  0  0
 50126  1  0  0  0
 50127  1  0  0  0
 51 52  1  0  0  0
 51128  1  0  0  0
 51129  1  0  0  0
 52130  1  0  0  0
 52131  1  0  0  0
 53 54  1  0  0  0
 54 55  2  0  0  0
 54132  1  0  0  0
 55 57  1  0  0  0
 55133  1  0  0  0
 56 69  2  0  0  0
 57 58  2  0  0  0
 57134  1  0  0  0
 58135  1  0  0  0
 59 60  1  0  0  0
 59 61  1  0  0  0
 59 62  1  0  0  0
 60136  1  0  0  0
 60137  1  0  0  0
 60138  1  0  0  0
 61139  1  0  0  0
 61140  1  0  0  0
 61141  1  0  0  0
 62142  1  0  0  0
 62143  1  0  0  0
 62144  1  0  0  0
 63 65  1  0  0  0
 63145  1  0  0  0
 63146  1  0  0  0
 63147  1  0  0  0
 64148  1  0  0  0
 65149  1  0  0  0
 68 85  1  0  0  0
 71 73  2  0  0  0
 71 74  1  0  0  0
 71150  1  0  0  0
 72 73  1  0  0  0
 72 75  2  0  0  0
 72151  1  0  0  0
 73 88  1  0  0  0
 74 84  1  0  0  0
 74 87  2  0  0  0
 75 86  1  0  0  0
 75 87  1  0  0  0
 76 78  1  0  0  0
 76152  1  0  0  0
 76153  1  0  0  0
 76 80  1  0  0  0
 77 79  1  0  0  0
 77 80  1  0  0  0
 77154  1  0  0  0
 77155  1  0  0  0
 78 88  1  0  0  0
 78156  1  0  0  0
 78157  1  0  0  0
 79 88  1  0  0  0
 79158  1  0  0  0
 79159  1  0  0  0
 80 90  1  0  0  0
 80160  1  0  0  0
 81161  1  0  0  0
 81162  1  0  0  0
 81163  1  0  0  0
 81 86  1  0  0  0
 82164  1  0  0  0
 82165  1  0  0  0
 82166  1  0  0  0
 82 90  1  0  0  0
 83 90  1  0  0  0
 83167  1  0  0  0
 83168  1  0  0  0
 83169  1  0  0  0
 84 85  1  0  0  0
 84170  1  0  0  0
 84171  1  0  0  0
 85172  1  0  0  0
 85173  1  0  0  0
 86 89  1  0  0  0
 86174  1  0  0  0
 87175  1  0  0  0
 89176  1  0  0  0
 90177  1  0  0  0
M  CHG  2  87   1  90   1
M  ISO  4   1 100  68 101  85 101  89 100
M  END
> <chiral flag>
0

> <version>
0

> <s_m_source_file>
/data/baiqing/PycharmProjects/Reinvent-master-3.2/result/LINK_invent/BTK/process_docking_weight1_custom_sum_contain_oxygen_bond_distance_aromatic_linkinvent_7_9_3/rearranged_h_0123.sdf

> <i_m_source_file_index>
2

> <r_mmod_Potential_Energy-OPLS-2005>
405.352661132812

> <r_mmod_Stretch_Energy-OPLS-2005>
320.561920166016

> <r_mmod_Bend_Energy-OPLS-2005>
312.957092285156

> <r_mmod_Torsional_Energy-OPLS-2005>
305.874237060547

> <r_mmod_Improper_Torsional_Energy-OPLS-2005>
13.8001394271851

> <r_mmod_Van_der_Waal_Energy-OPLS-2005>
143.780563354492

> <r_mmod_Electrostatic_Energy-OPLS-2005>
-57.030517578125

> <r_mmod_Solvation_Energy-OPLS-2005>
-862.825378417969

> <b_mmod_Minimization_Converged-OPLS-2005>
0

> <r_mmod_RMS_Derivative-OPLS-2005>
3.87725734710693

$$$$
2
                    3D
 Structure written by MMmdl.
165174  0  0  1  0            999 V2000
  -30.6971  -14.4818   20.6114 C   0  0  0  0  0  0
  -30.4313  -12.3270   19.4217 C   0  0  0  0  0  0
  -29.4965  -12.5154   18.2081 C   0  0  0  0  0  0
  -28.0197  -12.3581   18.6221 C   0  0  0  0  0  0
  -27.6614  -13.1989   19.8750 C   0  0  2  0  0  0
  -28.7032  -12.9791   20.9967 C   0  0  0  0  0  0
  -25.2552  -13.8104   20.5642 C   0  0  0  0  0  0
  -24.1816  -13.0393   20.9180 C   0  0  0  0  0  0
  -24.6374  -11.6870   20.8735 C   0  0  0  0  0  0
  -23.9042  -10.4267   21.0407 C   0  0  0  0  0  0
  -24.3601   -9.4188   21.9184 C   0  0  0  0  0  0
  -23.6280   -8.2225   22.0753 C   0  0  0  0  0  0
  -22.4265   -8.0263   21.3542 C   0  0  0  0  0  0
  -21.9895   -9.0235   20.4646 C   0  0  0  0  0  0
  -22.7218  -10.2114   20.3055 C   0  0  0  0  0  0
  -21.6853   -6.0722   22.5275 C   0  0  0  0  0  0
  -21.4011   -6.5629   23.8206 C   0  0  0  0  0  0
  -21.3658   -5.6784   24.9170 C   0  0  0  0  0  0
  -21.6050   -4.3049   24.7225 C   0  0  0  0  0  0
  -21.8818   -3.8138   23.4347 C   0  0  0  0  0  0
  -21.9190   -4.6950   22.3401 C   0  0  0  0  0  0
  -22.7844  -13.5207   21.1851 C   0  0  0  0  0  0
  -22.1661   -4.2135   21.0981 F   0  0  0  0  0  0
  -21.5630   -3.4532   25.7740 F   0  0  0  0  0  0
  -30.0381  -13.2992   20.4543 N   0  0  0  0  0  0
  -26.3010  -12.9285   20.3350 N   0  0  0  0  0  0
  -25.9301  -11.6453   20.5766 N   0  0  0  0  0  0
  -22.0489  -12.8209   22.0416 N   0  0  0  0  0  0
  -25.4172  -15.1814   20.3982 N   0  0  0  0  0  0
  -31.7884  -14.7244   20.0897 O   0  0  0  0  0  0
  -21.6633   -6.8861   21.4239 O   0  0  0  0  0  0
  -22.3537  -14.5520   20.6706 O   0  0  0  0  0  0
  -24.6134  -31.8687   23.2094 C   0  0  0  0  0  0
  -25.9020  -32.4834   23.8399 C   0  0  1  0  0  0
  -27.2424  -27.4381   20.0984 C   0  0  0  0  0  0
  -25.5876  -33.8629   24.2332 N   0  0  0  0  0  0
  -23.4045  -30.4893   21.5491 C   0  0  2  0  0  0
  -24.8556  -28.9534   20.1168 C   0  0  0  0  0  0
  -22.7416  -29.4653   22.4984 C   0  0  0  0  0  0
  -18.0283  -28.1388   22.8498 C   0  0  0  0  0  0
  -24.1484  -36.7312   23.2633 C   0  0  0  0  0  0
  -25.9321  -30.8342   21.3633 C   0  0  0  0  0  0
  -26.0147  -29.4672   20.7136 C   0  0  0  0  0  0
  -27.2145  -28.7163   20.7040 C   0  0  0  0  0  0
  -26.0695  -26.9375   19.4981 C   0  0  0  0  0  0
  -24.8772  -27.6865   19.5071 C   0  0  0  0  0  0
  -23.6151  -29.8189   20.1649 C   0  0  0  0  0  0
  -25.4104  -36.3122   24.0344 C   0  0  1  0  0  0
  -20.5871  -28.3664   23.1325 C   0  0  2  0  0  0
  -20.6771  -26.9395   22.5434 C   0  0  0  0  0  0
  -19.5754  -26.6391   21.5223 C   0  0  0  0  0  0
  -18.1930  -26.7938   22.1631 C   0  0  0  0  0  0
  -19.1531  -28.8847   23.2911 C   0  0  0  0  0  0
  -18.9452  -30.1454   23.8917 C   0  0  0  0  0  0
  -17.6455  -30.6596   24.0575 C   0  0  0  0  0  0
  -25.9037  -34.9483   23.5141 C   0  0  0  0  0  0
  -16.5345  -29.9105   23.6328 C   0  0  0  0  0  0
  -16.7274  -28.6523   23.0352 C   0  0  0  0  0  0
  -26.4450  -31.6610   25.0719 C   0  0  0  0  0  0
  -25.3711  -31.3737   26.1464 C   0  0  0  0  0  0
  -27.0259  -30.3049   24.6083 C   0  0  0  0  0  0
  -27.6039  -32.4316   25.7472 C   0  0  0  0  0  0
  -27.5591  -37.1805   24.8460 C   0  0  0  0  0  0
  -21.4145  -29.3026   22.3724 N   0  0  0  0  0  0
  -26.4295  -37.3802   23.9413 N   0  0  0  0  0  0
  -24.6677  -31.0782   22.0993 N   0  0  0  0  0  0
  -23.4187  -28.8194   23.3027 O   0  0  0  0  0  0
  -28.3823  -26.6642   20.0755 O   0  0  0  0  0  0
  -26.5596  -34.8927   22.4704 O   0  0  0  0  0  0
  -23.5323  -32.1436   23.7482 O   0  0  0  0  0  0
  -28.9583  -23.8313   19.4466 C   0  0  0  0  0  0
  -29.3805  -22.5064   19.2027 C   0  0  0  0  0  0
  -29.4495  -23.4464   21.7728 C   0  0  0  0  0  0
  -28.9859  -24.3201   20.7668 C   0  0  0  0  0  0
  -29.8220  -21.7002   20.2739 C   0  0  0  0  0  0
  -27.2960  -18.2705   21.1734 C   0  0  0  0  0  0
  -28.0829  -17.3837   20.2252 C   0  0  0  0  0  0
  -28.0557  -19.5860   21.0705 C   0  0  0  0  0  0
  -29.5498  -17.7977   20.4508 C   0  0  2  0  0  0
  -31.7668  -20.0786   20.2273 C   0  0  0  0  0  0
  -28.4566  -25.7096   21.1478 C   0  0  0  0  0  0
  -30.2927  -16.8644   21.4691 C   0  0  0  0  0  0
  -30.2459  -20.2294   20.0447 C   0  0  1  0  0  0
  -29.8559  -22.1719   21.5421 N   0  0  0  0  0  0
  -30.0156  -15.4215   21.2919 N   0  0  0  0  0  0
  -29.4933  -19.2408   20.8876 N   0  3  1  0  0  0
  -31.4734  -12.4425   19.1200 H   0  0  0  0  0  0
  -30.3469  -11.3126   19.8155 H   0  0  0  0  0  0
  -29.7432  -11.7941   17.4280 H   0  0  0  0  0  0
  -29.6526  -13.5032   17.7716 H   0  0  0  0  0  0
  -27.8428  -11.3011   18.8253 H   0  0  0  0  0  0
  -27.3639  -12.6207   17.7908 H   0  0  0  0  0  0
  -27.7039  -14.2425   19.5692 H   0  0  0  0  0  0
  -28.6864  -11.9396   21.3269 H   0  0  0  0  0  0
  -28.4466  -13.5614   21.8828 H   0  0  0  0  0  0
  -25.2747   -9.5665   22.4752 H   0  0  0  0  0  0
  -23.9988   -7.4616   22.7470 H   0  0  0  0  0  0
  -21.0824   -8.8748   19.8956 H   0  0  0  0  0  0
  -22.3674  -10.9649   19.6159 H   0  0  0  0  0  0
  -21.2005   -7.6138   23.9703 H   0  0  0  0  0  0
  -21.1485   -6.0518   25.9071 H   0  0  0  0  0  0
  -22.0601   -2.7600   23.2850 H   0  0  0  0  0  0
  -22.4100  -11.9859   22.4786 H   0  0  0  0  0  0
  -21.1115  -13.1241   22.2641 H   0  0  0  0  0  0
  -24.6371  -15.8227   20.4879 H   0  0  0  0  0  0
  -26.2498  -15.6185   20.0297 H   0  0  0  0  0  0
  -26.7091  -32.5550   23.1167 H   0  0  0  0  0  0
  -25.0012  -33.9801   25.0469 H   0  0  0  0  0  0
  -22.6926  -31.3051   21.4074 H   0  0  0  0  0  0
  -23.3756  -35.9639   23.3314 H   0  0  0  0  0  0
  -24.3575  -36.8914   22.2043 H   0  0  0  0  0  0
  -23.7229  -37.6517   23.6635 H   0  0  0  0  0  0
  -26.0425  -31.5996   20.5930 H   0  0  0  0  0  0
  -26.8198  -30.8908   21.9816 H   0  0  0  0  0  0
  -28.1100  -29.1100   21.1639 H   0  0  0  0  0  0
  -26.0813  -25.9634   19.0293 H   0  0  0  0  0  0
  -23.9843  -27.2863   19.0458 H   0  0  0  0  0  0
  -23.7224  -30.5921   19.4027 H   0  0  0  0  0  0
  -22.7406  -29.2357   19.8718 H   0  0  0  0  0  0
  -25.1290  -36.1990   25.0840 H   0  0  0  0  0  0
  -20.9980  -28.3228   24.1442 H   0  0  0  0  0  0
  -20.5674  -26.2266   23.3622 H   0  0  0  0  0  0
  -21.6638  -26.7450   22.1215 H   0  0  0  0  0  0
  -19.6911  -25.6313   21.1238 H   0  0  0  0  0  0
  -19.6702  -27.3214   20.6761 H   0  0  0  0  0  0
  -17.4207  -26.6704   21.4018 H   0  0  0  0  0  0
  -18.0313  -26.0080   22.9024 H   0  0  0  0  0  0
  -19.7924  -30.7270   24.2285 H   0  0  0  0  0  0
  -17.5013  -31.6274   24.5186 H   0  0  0  0  0  0
  -15.5351  -30.3018   23.7635 H   0  0  0  0  0  0
  -15.8675  -28.0855   22.7046 H   0  0  0  0  0  0
  -24.5875  -30.7093   25.7800 H   0  0  0  0  0  0
  -24.8899  -32.2903   26.4890 H   0  0  0  0  0  0
  -25.8048  -30.8915   27.0234 H   0  0  0  0  0  0
  -26.2802  -29.6838   24.1096 H   0  0  0  0  0  0
  -27.3991  -29.7250   25.4536 H   0  0  0  0  0  0
  -27.8661  -30.4372   23.9256 H   0  0  0  0  0  0
  -27.2683  -33.3613   26.2075 H   0  0  0  0  0  0
  -28.3825  -32.6882   25.0277 H   0  0  0  0  0  0
  -28.0724  -31.8414   26.5359 H   0  0  0  0  0  0
  -28.2611  -38.0100   24.7524 H   0  0  0  0  0  0
  -28.1090  -36.2639   24.6275 H   0  0  0  0  0  0
  -27.2313  -37.1442   25.8862 H   0  0  0  0  0  0
  -20.9301  -29.8745   21.6944 H   0  0  0  0  0  0
  -26.0199  -38.2886   24.1423 H   0  0  0  0  0  0
  -28.6023  -24.4493   18.6348 H   0  0  0  0  0  0
  -29.3535  -22.1157   18.1950 H   0  0  0  0  0  0
  -29.4732  -23.7694   22.8031 H   0  0  0  0  0  0
  -27.3413  -17.8776   22.1900 H   0  0  0  0  0  0
  -26.2457  -18.3683   20.8967 H   0  0  0  0  0  0
  -27.7947  -17.6041   19.1958 H   0  0  0  0  0  0
  -27.8775  -16.3319   20.3910 H   0  0  0  0  0  0
  -27.8947  -20.2205   21.9428 H   0  0  0  0  0  0
  -27.6774  -20.1220   20.1980 H   0  0  0  0  0  0
  -30.0702  -17.7136   19.4953 H   0  0  0  0  0  0
  -32.3008  -20.7735   19.5787 H   0  0  0  0  0  0
  -32.1097  -19.0758   19.9769 H   0  0  0  0  0  0
  -32.0679  -20.2928   21.2529 H   0  0  0  0  0  0
  -29.1026  -26.1280   21.9201 H   0  0  0  0  0  0
  -27.4826  -25.5635   21.6187 H   0  0  0  0  0  0
  -29.9865  -17.1154   22.4856 H   0  0  0  0  0  0
  -31.3683  -17.0446   21.4262 H   0  0  0  0  0  0
  -30.0106  -20.0044   19.0033 H   0  0  0  0  0  0
  -29.1519  -15.0916   21.6973 H   0  0  0  0  0  0
  -29.9033  -19.3128   21.8064 H   0  0  0  0  0  0
  1 25  1  0  0  0
  1 30  2  0  0  0
  1 85  1  0  0  0
  2  3  1  0  0  0
  2 25  1  0  0  0
  2 87  1  0  0  0
  2 88  1  0  0  0
  3  4  1  0  0  0
  3 89  1  0  0  0
  3 90  1  0  0  0
  4  5  1  0  0  0
  4 91  1  0  0  0
  4 92  1  0  0  0
  5  6  1  0  0  0
  5 26  1  0  0  0
  5 93  1  0  0  0
  6 25  1  0  0  0
  6 94  1  0  0  0
  6 95  1  0  0  0
  7  8  2  0  0  0
  7 26  1  0  0  0
  7 29  1  0  0  0
  8  9  1  0  0  0
  8 22  1  0  0  0
  9 10  1  0  0  0
  9 27  2  0  0  0
 10 11  2  0  0  0
 10 15  1  0  0  0
 11 12  1  0  0  0
 11 96  1  0  0  0
 12 13  2  0  0  0
 12 97  1  0  0  0
 13 14  1  0  0  0
 13 31  1  0  0  0
 14 15  2  0  0  0
 14 98  1  0  0  0
 15 99  1  0  0  0
 16 17  2  0  0  0
 16 21  1  0  0  0
 16 31  1  0  0  0
 17 18  1  0  0  0
 17100  1  0  0  0
 18 19  2  0  0  0
 18101  1  0  0  0
 19 20  1  0  0  0
 19 24  1  0  0  0
 20 21  2  0  0  0
 20102  1  0  0  0
 21 23  1  0  0  0
 22 28  1  0  0  0
 22 32  2  0  0  0
 26 27  1  0  0  0
 28103  1  0  0  0
 28104  1  0  0  0
 29105  1  0  0  0
 29106  1  0  0  0
 33 34  1  0  0  0
 33 66  1  0  0  0
 33 70  2  0  0  0
 34 36  1  0  0  0
 34 59  1  0  0  0
 34107  1  0  0  0
 35 44  2  0  0  0
 35 45  1  0  0  0
 35 68  1  0  0  0
 36 56  1  0  0  0
 36108  1  0  0  0
 37 39  1  0  0  0
 37 47  1  0  0  0
 37 66  1  0  0  0
 37109  1  0  0  0
 38 43  2  0  0  0
 38 46  1  0  0  0
 38 47  1  0  0  0
 39 64  1  0  0  0
 39 67  2  0  0  0
 40 52  1  0  0  0
 40 53  2  0  0  0
 40 58  1  0  0  0
 41110  1  0  0  0
 41111  1  0  0  0
 41112  1  0  0  0
 41 48  1  0  0  0
 42 43  1  0  0  0
 42 66  1  0  0  0
 42113  1  0  0  0
 42114  1  0  0  0
 43 44  1  0  0  0
 44115  1  0  0  0
 45 46  2  0  0  0
 45116  1  0  0  0
 46117  1  0  0  0
 47118  1  0  0  0
 47119  1  0  0  0
 48 56  1  0  0  0
 48 65  1  0  0  0
 48120  1  0  0  0
 49 50  1  0  0  0
 49 53  1  0  0  0
 49 64  1  0  0  0
 49121  1  0  0  0
 50 51  1  0  0  0
 50122  1  0  0  0
 50123  1  0  0  0
 51 52  1  0  0  0
 51124  1  0  0  0
 51125  1  0  0  0
 52126  1  0  0  0
 52127  1  0  0  0
 53 54  1  0  0  0
 54 55  2  0  0  0
 54128  1  0  0  0
 55 57  1  0  0  0
 55129  1  0  0  0
 56 69  2  0  0  0
 57 58  2  0  0  0
 57130  1  0  0  0
 58131  1  0  0  0
 59 60  1  0  0  0
 59 61  1  0  0  0
 59 62  1  0  0  0
 60132  1  0  0  0
 60133  1  0  0  0
 60134  1  0  0  0
 61135  1  0  0  0
 61136  1  0  0  0
 61137  1  0  0  0
 62138  1  0  0  0
 62139  1  0  0  0
 62140  1  0  0  0
 63 65  1  0  0  0
 63141  1  0  0  0
 63142  1  0  0  0
 63143  1  0  0  0
 64144  1  0  0  0
 65145  1  0  0  0
 68 81  1  0  0  0
 71 72  2  0  0  0
 71 74  1  0  0  0
 71146  1  0  0  0
 72 75  1  0  0  0
 72147  1  0  0  0
 73 74  2  0  0  0
 73 84  1  0  0  0
 73148  1  0  0  0
 74 81  1  0  0  0
 75 83  1  0  0  0
 75 84  2  0  0  0
 76 77  1  0  0  0
 76 78  1  0  0  0
 76149  1  0  0  0
 76150  1  0  0  0
 77 79  1  0  0  0
 77151  1  0  0  0
 77152  1  0  0  0
 78153  1  0  0  0
 78154  1  0  0  0
 78 86  1  0  0  0
 79 82  1  0  0  0
 79 86  1  0  0  0
 79155  1  0  0  0
 80156  1  0  0  0
 80157  1  0  0  0
 80158  1  0  0  0
 80 83  1  0  0  0
 81159  1  0  0  0
 81160  1  0  0  0
 82 85  1  0  0  0
 82161  1  0  0  0
 82162  1  0  0  0
 83 86  1  0  0  0
 83163  1  0  0  0
 85164  1  0  0  0
 86165  1  0  0  0
M  CHG  1  86   1
M  ISO  4   1 100  68 101  81 101  85 100
M  END
> <chiral flag>
0

> <version>
0

> <s_m_source_file>
/data/baiqing/PycharmProjects/Reinvent-master-3.2/result/LINK_invent/BTK/process_docking_weight1_custom_sum_contain_oxygen_bond_distance_aromatic_linkinvent_7_9_3/rearranged_h_0123.sdf

> <i_m_source_file_index>
3

> <r_mmod_Potential_Energy-OPLS-2005>
-322.569305419922

> <r_mmod_Stretch_Energy-OPLS-2005>
43.5309104919434

> <r_mmod_Bend_Energy-OPLS-2005>
121.946807861328

> <r_mmod_Torsional_Energy-OPLS-2005>
295.066650390625

> <r_mmod_Improper_Torsional_Energy-OPLS-2005>
3.09642124176025

> <r_mmod_Van_der_Waal_Energy-OPLS-2005>
145.723785400391

> <r_mmod_Electrostatic_Energy-OPLS-2005>
-508.058898925781

> <r_mmod_Solvation_Energy-OPLS-2005>
-436.245483398438

> <b_mmod_Minimization_Converged-OPLS-2005>
0

> <r_mmod_RMS_Derivative-OPLS-2005>
1.49733877182007

$$$$
3
                    3D
 Structure written by MMmdl.
179190  0  0  1  0            999 V2000
  -30.5164  -14.8605   20.4703 C   0  0  0  0  0  0
  -30.4045  -12.5294   19.5415 C   0  0  0  0  0  0
  -29.5438  -12.5171   18.2571 C   0  0  0  0  0  0
  -28.0386  -12.7654   18.5196 C   0  0  0  0  0  0
  -27.6929  -12.7496   20.0118 C   0  0  2  0  0  0
  -28.6495  -13.3083   21.0629 C   0  0  0  0  0  0
  -25.2970  -13.7496   20.5444 C   0  0  0  0  0  0
  -24.1738  -13.0390   20.9151 C   0  0  0  0  0  0
  -24.5574  -11.6698   20.8927 C   0  0  0  0  0  0
  -23.8300  -10.4235   21.0698 C   0  0  0  0  0  0
  -24.3084   -9.4204   21.9419 C   0  0  0  0  0  0
  -23.5971   -8.2142   22.0838 C   0  0  0  0  0  0
  -22.4006   -8.0100   21.3517 C   0  0  0  0  0  0
  -21.9503   -9.0076   20.4661 C   0  0  0  0  0  0
  -22.6655  -10.2050   20.3182 C   0  0  0  0  0  0
  -21.6809   -6.0517   22.5222 C   0  0  0  0  0  0
  -21.4015   -6.5495   23.8123 C   0  0  0  0  0  0
  -21.3658   -5.6697   24.9115 C   0  0  0  0  0  0
  -21.6053   -4.2948   24.7245 C   0  0  0  0  0  0
  -21.8860   -3.7985   23.4397 C   0  0  0  0  0  0
  -21.9217   -4.6755   22.3404 C   0  0  0  0  0  0
  -22.7956  -13.5578   21.1802 C   0  0  0  0  0  0
  -22.1658   -4.1890   21.1004 F   0  0  0  0  0  0
  -21.5671   -3.4514   25.7795 F   0  0  0  0  0  0
  -29.9311  -13.6221   20.4307 N   0  0  0  0  0  0
  -26.2837  -12.7789   20.3626 N   0  0  0  0  0  0
  -25.8168  -11.5470   20.5956 N   0  0  0  0  0  0
  -22.0571  -12.8760   22.0527 N   0  0  0  0  0  0
  -25.5334  -15.1043   20.3338 N   0  0  0  0  0  0
  -31.6991  -14.9859   20.1389 O   0  0  0  0  0  0
  -21.6576   -6.8598   21.4122 O   0  0  0  0  0  0
  -22.3780  -14.5897   20.6599 O   0  0  0  0  0  0
  -24.6298  -31.8522   23.1917 C   0  0  0  0  0  0
  -25.9119  -32.4734   23.8275 C   0  0  1  0  0  0
  -27.2457  -27.2608   20.1462 C   0  0  0  0  0  0
  -25.5909  -33.8539   24.2206 N   0  0  0  0  0  0
  -23.4278  -30.4670   21.5368 C   0  0  2  0  0  0
  -24.8814  -28.9005   20.1108 C   0  0  0  0  0  0
  -22.7491  -29.4593   22.4931 C   0  0  0  0  0  0
  -18.0285  -28.1390   22.8476 C   0  0  0  0  0  0
  -24.1493  -36.7262   23.2640 C   0  0  0  0  0  0
  -25.9677  -30.7701   21.3661 C   0  0  0  0  0  0
  -26.0471  -29.3896   20.7121 C   0  0  0  0  0  0
  -27.2258  -28.5799   20.7166 C   0  0  0  0  0  0
  -26.0676  -26.8455   19.4885 C   0  0  0  0  0  0
  -24.8947  -27.6361   19.4916 C   0  0  0  0  0  0
  -23.6439  -29.7776   20.1614 C   0  0  0  0  0  0
  -25.4125  -36.3054   24.0318 C   0  0  1  0  0  0
  -20.5889  -28.3702   23.1269 C   0  0  2  0  0  0
  -20.6771  -26.9414   22.5403 C   0  0  0  0  0  0
  -19.5757  -26.6381   21.5204 C   0  0  0  0  0  0
  -18.1945  -26.7926   22.1618 C   0  0  0  0  0  0
  -19.1536  -28.8864   23.2865 C   0  0  0  0  0  0
  -18.9463  -30.1467   23.8878 C   0  0  0  0  0  0
  -17.6468  -30.6595   24.0557 C   0  0  0  0  0  0
  -25.9068  -34.9435   23.5074 C   0  0  0  0  0  0
  -16.5361  -29.9091   23.6340 C   0  0  0  0  0  0
  -16.7272  -28.6509   23.0357 C   0  0  0  0  0  0
  -26.4486  -31.6570   25.0670 C   0  0  0  0  0  0
  -25.3705  -31.3732   26.1386 C   0  0  0  0  0  0
  -27.0335  -30.2977   24.6182 C   0  0  0  0  0  0
  -27.6036  -32.4319   25.7445 C   0  0  0  0  0  0
  -27.5581  -37.1783   24.8469 C   0  0  0  0  0  0
  -21.4202  -29.3043   22.3650 N   0  0  0  0  0  0
  -26.4295  -37.3751   23.9410 N   0  0  0  0  0  0
  -24.6930  -31.0497   22.0872 N   0  0  0  0  0  0
  -23.4172  -28.8163   23.3068 O   0  0  0  0  0  0
  -28.3725  -26.4183   20.2981 O   0  0  0  0  0  0
  -26.5666  -34.8922   22.4660 O   0  0  0  0  0  0
  -23.5466  -32.1333   23.7250 O   0  0  0  0  0  0
  -26.6587  -23.9356   21.1507 C   0  0  0  0  0  0
  -25.9083  -22.8668   21.6302 C   0  0  0  0  0  0
  -28.4748  -22.3522   20.6932 C   0  0  0  0  0  0
  -27.7420  -21.2071   21.2513 C   0  0  0  0  0  0
  -27.9307  -23.7250   20.6094 C   0  0  0  0  0  0
  -26.4184  -21.5593   21.6646 C   0  0  0  0  0  0
  -27.3729  -15.8951   24.3420 C   0  0  0  0  0  0
  -28.1181  -16.4807   23.1451 C   0  0  0  0  0  0
  -26.6337  -17.2145   24.4642 C   0  0  0  0  0  0
  -26.2200  -19.8334   23.1807 C   0  0  0  0  0  0
  -27.7108  -18.4169   19.2647 C   0  0  0  0  0  0
  -29.7480  -17.3446   18.6691 C   0  0  0  0  0  0
  -28.2596  -19.6661   21.5671 C   0  0  1  0  0  0
  -27.6863  -17.8885   23.5408 C   0  0  0  0  0  0
  -27.1933  -18.8877   22.4759 C   0  0  1  0  0  0
  -28.7754  -18.7111   20.3336 C   0  0  1  0  0  0
  -29.8513  -17.4397   20.2052 C   0  0  2  0  0  0
  -27.8249  -17.2427   17.0464 C   0  0  0  0  0  0
  -28.5539  -24.9850   19.8570 C   0  0  0  0  0  0
  -25.5400  -20.6448   22.2192 N   0  0  0  0  0  0
  -29.6669  -15.9637   20.6324 N   0  0  0  0  0  0
  -28.2861  -17.3330   18.4477 N   0  3  2  0  0  0
  -31.4606  -12.6322   19.3029 H   0  0  0  0  0  0
  -30.3104  -11.5815   20.0691 H   0  0  0  0  0  0
  -29.6860  -11.5592   17.7506 H   0  0  0  0  0  0
  -29.9114  -13.2744   17.5619 H   0  0  0  0  0  0
  -27.4416  -12.0307   17.9786 H   0  0  0  0  0  0
  -27.7584  -13.7375   18.1160 H   0  0  0  0  0  0
  -27.9756  -11.7015   20.1569 H   0  0  0  0  0  0
  -28.8133  -12.5758   21.8589 H   0  0  0  0  0  0
  -28.1772  -14.1557   21.5561 H   0  0  0  0  0  0
  -25.2235   -9.5796   22.4981 H   0  0  0  0  0  0
  -23.9793   -7.4557   22.7488 H   0  0  0  0  0  0
  -21.0542   -8.8509   19.8804 H   0  0  0  0  0  0
  -22.3253  -10.9564   19.6208 H   0  0  0  0  0  0
  -21.1993   -7.6027   23.9521 H   0  0  0  0  0  0
  -21.1441   -6.0484   25.8997 H   0  0  0  0  0  0
  -22.0671   -2.7440   23.3049 H   0  0  0  0  0  0
  -22.4086  -12.0395   22.4932 H   0  0  0  0  0  0
  -21.1292  -13.2023   22.2785 H   0  0  0  0  0  0
  -24.6833  -15.6597   20.3738 H   0  0  0  0  0  0
  -26.0158  -15.2734   19.4645 H   0  0  0  0  0  0
  -26.7183  -32.5405   23.1020 H   0  0  0  0  0  0
  -24.9978  -33.9652   25.0304 H   0  0  0  0  0  0
  -22.7257  -31.2866   21.3792 H   0  0  0  0  0  0
  -23.3766  -35.9582   23.3301 H   0  0  0  0  0  0
  -24.3565  -36.8890   22.2051 H   0  0  0  0  0  0
  -23.7249  -37.6457   23.6677 H   0  0  0  0  0  0
  -26.1101  -31.5346   20.6002 H   0  0  0  0  0  0
  -26.8443  -30.8224   21.9993 H   0  0  0  0  0  0
  -28.1161  -28.9523   21.2036 H   0  0  0  0  0  0
  -26.0304  -25.8748   19.0177 H   0  0  0  0  0  0
  -23.9964  -27.2511   19.0278 H   0  0  0  0  0  0
  -23.7528  -30.5397   19.3896 H   0  0  0  0  0  0
  -22.7685  -29.1914   19.8727 H   0  0  0  0  0  0
  -25.1321  -36.1871   25.0809 H   0  0  0  0  0  0
  -20.9974  -28.3305   24.1398 H   0  0  0  0  0  0
  -20.5677  -26.2319   23.3616 H   0  0  0  0  0  0
  -21.6651  -26.7442   22.1215 H   0  0  0  0  0  0
  -19.6931  -25.6295   21.1251 H   0  0  0  0  0  0
  -19.6709  -27.3180   20.6735 H   0  0  0  0  0  0
  -17.4206  -26.6654   21.4031 H   0  0  0  0  0  0
  -18.0359  -26.0072   22.9023 H   0  0  0  0  0  0
  -19.7950  -30.7273   24.2244 H   0  0  0  0  0  0
  -17.5036  -31.6273   24.5157 H   0  0  0  0  0  0
  -15.5369  -30.2990   23.7678 H   0  0  0  0  0  0
  -15.8666  -28.0820   22.7093 H   0  0  0  0  0  0
  -24.5876  -30.7081   25.7704 H   0  0  0  0  0  0
  -24.8893  -32.2907   26.4791 H   0  0  0  0  0  0
  -25.8002  -30.8911   27.0176 H   0  0  0  0  0  0
  -26.2920  -29.6709   24.1193 H   0  0  0  0  0  0
  -27.3984  -29.7251   25.4724 H   0  0  0  0  0  0
  -27.8816  -30.4221   23.9438 H   0  0  0  0  0  0
  -27.2631  -33.3627   26.1995 H   0  0  0  0  0  0
  -28.3851  -32.6865   25.0271 H   0  0  0  0  0  0
  -28.0694  -31.8458   26.5378 H   0  0  0  0  0  0
  -28.2608  -38.0069   24.7522 H   0  0  0  0  0  0
  -28.1072  -36.2611   24.6305 H   0  0  0  0  0  0
  -27.2295  -37.1434   25.8866 H   0  0  0  0  0  0
  -20.9411  -29.8670   21.6754 H   0  0  0  0  0  0
  -26.0174  -38.2824   24.1397 H   0  0  0  0  0  0
  -26.2032  -24.9133   21.1481 H   0  0  0  0  0  0
  -24.9064  -23.0692   21.9833 H   0  0  0  0  0  0
  -29.4691  -22.1623   20.3200 H   0  0  0  0  0  0
  -28.0153  -15.6858   25.1976 H   0  0  0  0  0  0
  -26.7273  -15.0509   24.0882 H   0  0  0  0  0  0
  -27.6649  -16.1903   22.2005 H   0  0  0  0  0  0
  -29.1980  -16.3125   23.1791 H   0  0  0  0  0  0
  -26.5837  -17.6081   25.4810 H   0  0  0  0  0  0
  -25.6361  -17.1428   24.0270 H   0  0  0  0  0  0
  -26.7291  -20.4584   23.9130 H   0  0  0  0  0  0
  -25.4463  -19.2905   23.7197 H   0  0  0  0  0  0
  -27.4979  -19.3069   18.6706 H   0  0  0  0  0  0
  -26.7685  -18.0846   19.6951 H   0  0  0  0  0  0
  -30.2273  -16.4719   18.2308 H   0  0  0  0  0  0
  -30.1957  -18.2135   18.1890 H   0  0  0  0  0  0
  -29.1216  -19.8210   22.2131 H   0  0  0  0  0  0
  -28.4426  -18.3276   24.1920 H   0  0  0  0  0  0
  -26.5542  -18.3146   21.8073 H   0  0  0  0  0  0
  -29.3836  -19.4761   19.8498 H   0  0  0  0  0  0
  -30.8460  -17.7685   20.5086 H   0  0  0  0  0  0
  -26.7324  -17.2155   17.0071 H   0  0  0  0  0  0
  -28.1813  -16.3150   16.5955 H   0  0  0  0  0  0
  -28.1831  -18.0747   16.4361 H   0  0  0  0  0  0
  -28.3039  -24.9144   18.8000 H   0  0  0  0  0  0
  -29.6309  -24.8311   19.9000 H   0  0  0  0  0  0
  -24.6851  -21.0621   22.5786 H   0  0  0  0  0  0
  -28.7352  -15.6920   20.9173 H   0  0  0  0  0  0
  -28.0013  -16.4829   18.9003 H   0  0  0  0  0  0
  1 25  1  0  0  0
  1 30  2  0  0  0
  1 91  1  0  0  0
  2  3  1  0  0  0
  2 25  1  0  0  0
  2 93  1  0  0  0
  2 94  1  0  0  0
  3  4  1  0  0  0
  3 95  1  0  0  0
  3 96  1  0  0  0
  4  5  1  0  0  0
  4 97  1  0  0  0
  4 98  1  0  0  0
  5  6  1  0  0  0
  5 26  1  0  0  0
  5 99  1  0  0  0
  6 25  1  0  0  0
  6100  1  0  0  0
  6101  1  0  0  0
  7  8  2  0  0  0
  7 26  1  0  0  0
  7 29  1  0  0  0
  8  9  1  0  0  0
  8 22  1  0  0  0
  9 10  1  0  0  0
  9 27  2  0  0  0
 10 11  2  0  0  0
 10 15  1  0  0  0
 11 12  1  0  0  0
 11102  1  0  0  0
 12 13  2  0  0  0
 12103  1  0  0  0
 13 14  1  0  0  0
 13 31  1  0  0  0
 14 15  2  0  0  0
 14104  1  0  0  0
 15105  1  0  0  0
 16 17  2  0  0  0
 16 21  1  0  0  0
 16 31  1  0  0  0
 17 18  1  0  0  0
 17106  1  0  0  0
 18 19  2  0  0  0
 18107  1  0  0  0
 19 20  1  0  0  0
 19 24  1  0  0  0
 20 21  2  0  0  0
 20108  1  0  0  0
 21 23  1  0  0  0
 22 28  1  0  0  0
 22 32  2  0  0  0
 26 27  1  0  0  0
 28109  1  0  0  0
 28110  1  0  0  0
 29111  1  0  0  0
 29112  1  0  0  0
 33 34  1  0  0  0
 33 66  1  0  0  0
 33 70  2  0  0  0
 34 36  1  0  0  0
 34 59  1  0  0  0
 34113  1  0  0  0
 35 44  2  0  0  0
 35 45  1  0  0  0
 35 68  1  0  0  0
 36 56  1  0  0  0
 36114  1  0  0  0
 37 39  1  0  0  0
 37 47  1  0  0  0
 37 66  1  0  0  0
 37115  1  0  0  0
 38 43  2  0  0  0
 38 46  1  0  0  0
 38 47  1  0  0  0
 39 64  1  0  0  0
 39 67  2  0  0  0
 40 52  1  0  0  0
 40 53  2  0  0  0
 40 58  1  0  0  0
 41116  1  0  0  0
 41117  1  0  0  0
 41118  1  0  0  0
 41 48  1  0  0  0
 42 43  1  0  0  0
 42 66  1  0  0  0
 42119  1  0  0  0
 42120  1  0  0  0
 43 44  1  0  0  0
 44121  1  0  0  0
 45 46  2  0  0  0
 45122  1  0  0  0
 46123  1  0  0  0
 47124  1  0  0  0
 47125  1  0  0  0
 48 56  1  0  0  0
 48 65  1  0  0  0
 48126  1  0  0  0
 49 50  1  0  0  0
 49 53  1  0  0  0
 49 64  1  0  0  0
 49127  1  0  0  0
 50 51  1  0  0  0
 50128  1  0  0  0
 50129  1  0  0  0
 51 52  1  0  0  0
 51130  1  0  0  0
 51131  1  0  0  0
 52132  1  0  0  0
 52133  1  0  0  0
 53 54  1  0  0  0
 54 55  2  0  0  0
 54134  1  0  0  0
 55 57  1  0  0  0
 55135  1  0  0  0
 56 69  2  0  0  0
 57 58  2  0  0  0
 57136  1  0  0  0
 58137  1  0  0  0
 59 60  1  0  0  0
 59 61  1  0  0  0
 59 62  1  0  0  0
 60138  1  0  0  0
 60139  1  0  0  0
 60140  1  0  0  0
 61141  1  0  0  0
 61142  1  0  0  0
 61143  1  0  0  0
 62144  1  0  0  0
 62145  1  0  0  0
 62146  1  0  0  0
 63 65  1  0  0  0
 63147  1  0  0  0
 63148  1  0  0  0
 63149  1  0  0  0
 64150  1  0  0  0
 65151  1  0  0  0
 68 89  1  0  0  0
 71 72  2  0  0  0
 71 75  1  0  0  0
 71152  1  0  0  0
 72 76  1  0  0  0
 72153  1  0  0  0
 73 74  1  0  0  0
 73 75  2  0  0  0
 73154  1  0  0  0
 74 76  2  0  0  0
 74 83  1  0  0  0
 75 89  1  0  0  0
 76 90  1  0  0  0
 77 78  1  0  0  0
 77 79  1  0  0  0
 77155  1  0  0  0
 77156  1  0  0  0
 78157  1  0  0  0
 78158  1  0  0  0
 78 84  1  0  0  0
 79 84  1  0  0  0
 79159  1  0  0  0
 79160  1  0  0  0
 80 90  1  0  0  0
 80161  1  0  0  0
 80162  1  0  0  0
 80 85  1  0  0  0
 81 92  1  0  0  0
 81163  1  0  0  0
 81164  1  0  0  0
 81 86  1  0  0  0
 82 87  1  0  0  0
 82 92  1  0  0  0
 82165  1  0  0  0
 82166  1  0  0  0
 83 85  1  0  0  0
 83 86  1  0  0  0
 83167  1  0  0  0
 84 85  1  0  0  0
 84168  1  0  0  0
 85169  1  0  0  0
 86 87  1  0  0  0
 86170  1  0  0  0
 87 91  1  0  0  0
 87171  1  0  0  0
 88172  1  0  0  0
 88173  1  0  0  0
 88174  1  0  0  0
 88 92  1  0  0  0
 89175  1  0  0  0
 89176  1  0  0  0
 90177  1  0  0  0
 91178  1  0  0  0
 92179  1  0  0  0
M  CHG  1  92   1
M  ISO  4   1 100  68 101  89 101  91 100
M  END
> <chiral flag>
0

> <version>
0

> <s_m_source_file>
/data/baiqing/PycharmProjects/Reinvent-master-3.2/result/LINK_invent/BTK/process_docking_weight1_custom_sum_contain_oxygen_bond_distance_aromatic_linkinvent_7_9_3/rearranged_h_0123.sdf

> <i_m_source_file_index>
4

> <r_mmod_Potential_Energy-OPLS-2005>
563.294067382812

> <r_mmod_Stretch_Energy-OPLS-2005>
185.74609375

> <r_mmod_Bend_Energy-OPLS-2005>
397.217254638672

> <r_mmod_Torsional_Energy-OPLS-2005>
389.5849609375

> <r_mmod_Improper_Torsional_Energy-OPLS-2005>
17.9743480682373

> <r_mmod_Van_der_Waal_Energy-OPLS-2005>
142.390686035156

> <r_mmod_Electrostatic_Energy-OPLS-2005>
-303.5908203125

> <r_mmod_Solvation_Energy-OPLS-2005>
-445.87841796875

> <b_mmod_Minimization_Converged-OPLS-2005>
0

> <r_mmod_RMS_Derivative-OPLS-2005>
8.93798446655273

$$$$
4
                    3D
 Structure written by MMmdl.
168176  0  0  1  0            999 V2000
  -30.7184  -14.5437   20.5369 C   0  0  0  0  0  0
  -30.4158  -12.3481   19.4447 C   0  0  0  0  0  0
  -29.4942  -12.4915   18.2170 C   0  0  0  0  0  0
  -28.0187  -12.3440   18.6307 C   0  0  0  0  0  0
  -27.6519  -13.2177   19.8596 C   0  0  2  0  0  0
  -28.6967  -13.0811   20.9914 C   0  0  0  0  0  0
  -25.2535  -13.8190   20.5639 C   0  0  0  0  0  0
  -24.1830  -13.0471   20.9199 C   0  0  0  0  0  0
  -24.6386  -11.6943   20.8740 C   0  0  0  0  0  0
  -23.9045  -10.4327   21.0416 C   0  0  0  0  0  0
  -24.3614   -9.4234   21.9178 C   0  0  0  0  0  0
  -23.6318   -8.2256   22.0733 C   0  0  0  0  0  0
  -22.4286   -8.0294   21.3541 C   0  0  0  0  0  0
  -21.9919   -9.0258   20.4624 C   0  0  0  0  0  0
  -22.7228  -10.2151   20.3050 C   0  0  0  0  0  0
  -21.6858   -6.0749   22.5288 C   0  0  0  0  0  0
  -21.4015   -6.5651   23.8219 C   0  0  0  0  0  0
  -21.3654   -5.6794   24.9180 C   0  0  0  0  0  0
  -21.6037   -4.3053   24.7216 C   0  0  0  0  0  0
  -21.8828   -3.8151   23.4332 C   0  0  0  0  0  0
  -21.9196   -4.6981   22.3402 C   0  0  0  0  0  0
  -22.7840  -13.5259   21.1869 C   0  0  0  0  0  0
  -22.1665   -4.2178   21.0972 F   0  0  0  0  0  0
  -21.5628   -3.4525   25.7714 F   0  0  0  0  0  0
  -30.0177  -13.3773   20.4216 N   0  0  0  0  0  0
  -26.2978  -12.9377   20.3300 N   0  0  0  0  0  0
  -25.9312  -11.6529   20.5759 N   0  0  0  0  0  0
  -22.0465  -12.8266   22.0407 N   0  0  0  0  0  0
  -25.4228  -15.1907   20.4004 N   0  0  0  0  0  0
  -31.8684  -14.6455   20.1090 O   0  0  0  0  0  0
  -21.6644   -6.8891   21.4250 O   0  0  0  0  0  0
  -22.3527  -14.5554   20.6687 O   0  0  0  0  0  0
  -24.6235  -31.8651   23.2115 C   0  0  0  0  0  0
  -25.9105  -32.4824   23.8400 C   0  0  1  0  0  0
  -27.1943  -27.3672   20.1120 C   0  0  0  0  0  0
  -25.5985  -33.8640   24.2322 N   0  0  0  0  0  0
  -23.4077  -30.4965   21.5540 C   0  0  2  0  0  0
  -24.8454  -28.9738   20.0974 C   0  0  0  0  0  0
  -22.7447  -29.4637   22.4961 C   0  0  0  0  0  0
  -18.0282  -28.1349   22.8450 C   0  0  0  0  0  0
  -24.1478  -36.7308   23.2604 C   0  0  0  0  0  0
  -25.9488  -30.8085   21.3811 C   0  0  0  0  0  0
  -26.0135  -29.4472   20.7121 C   0  0  0  0  0  0
  -27.1929  -28.6553   20.7098 C   0  0  0  0  0  0
  -26.0125  -26.9452   19.4519 C   0  0  0  0  0  0
  -24.8488  -27.7307   19.4488 C   0  0  0  0  0  0
  -23.6127  -29.8488   20.1592 C   0  0  0  0  0  0
  -25.4107  -36.3128   24.0323 C   0  0  1  0  0  0
  -20.5869  -28.3640   23.1302 C   0  0  2  0  0  0
  -20.6783  -26.9377   22.5401 C   0  0  0  0  0  0
  -19.5766  -26.6353   21.5196 C   0  0  0  0  0  0
  -18.1926  -26.7900   22.1589 C   0  0  0  0  0  0
  -19.1521  -28.8827   23.2864 C   0  0  0  0  0  0
  -18.9428  -30.1446   23.8841 C   0  0  0  0  0  0
  -17.6434  -30.6550   24.0531 C   0  0  0  0  0  0
  -25.9045  -34.9488   23.5096 C   0  0  0  0  0  0
  -16.5323  -29.9035   23.6342 C   0  0  0  0  0  0
  -16.7251  -28.6459   23.0326 C   0  0  0  0  0  0
  -26.4517  -31.6616   25.0739 C   0  0  0  0  0  0
  -25.3760  -31.3738   26.1460 C   0  0  0  0  0  0
  -27.0262  -30.3000   24.6183 C   0  0  0  0  0  0
  -27.6124  -32.4306   25.7469 C   0  0  0  0  0  0
  -27.5585  -37.1785   24.8445 C   0  0  0  0  0  0
  -21.4163  -29.3012   22.3717 N   0  0  0  0  0  0
  -26.4292  -37.3822   23.9409 N   0  0  0  0  0  0
  -24.6785  -31.0719   22.1056 N   0  0  0  0  0  0
  -23.4213  -28.8158   23.3002 O   0  0  0  0  0  0
  -28.3022  -26.5236   20.2113 O   0  0  0  0  0  0
  -26.5555  -34.8941   22.4623 O   0  0  0  0  0  0
  -23.5432  -32.1414   23.7507 O   0  0  0  0  0  0
  -29.0077  -18.8635   21.7878 C   0  0  0  0  0  0
  -28.3975  -20.2300   21.3891 C   0  0  0  0  0  0
  -30.9101  -19.3981   20.2692 C   0  0  0  0  0  0
  -29.9138  -18.2712   20.6877 C   0  0  1  0  0  0
  -29.4173  -21.3226   20.9355 C   0  0  2  0  0  0
  -31.4992  -21.2061   17.7329 C   0  0  0  0  0  0
  -32.5465  -21.9141   19.9610 C   0  0  0  0  0  0
  -30.6973  -16.9874   21.1681 C   0  0  0  0  0  0
  -28.5962  -22.5958   20.4620 C   0  0  0  0  0  0
  -29.0501  -24.0723   20.7647 C   0  0  0  0  0  0
  -27.9895  -25.0992   20.2269 C   0  0  0  0  0  0
  -31.2361  -21.6463   19.1844 C   0  0  0  0  0  0
  -30.0660  -15.6451   20.9965 N   0  0  0  0  0  0
  -30.2806  -20.7084   19.8664 N   0  3  1  0  0  0
  -31.4576  -12.4389   19.1355 H   0  0  0  0  0  0
  -30.3260  -11.3525   19.8841 H   0  0  0  0  0  0
  -29.7527  -11.7443   17.4644 H   0  0  0  0  0  0
  -29.6463  -13.4627   17.7453 H   0  0  0  0  0  0
  -27.8481  -11.2920   18.8588 H   0  0  0  0  0  0
  -27.3648  -12.5799   17.7907 H   0  0  0  0  0  0
  -27.6758  -14.2521   19.5166 H   0  0  0  0  0  0
  -28.6888  -12.0718   21.4041 H   0  0  0  0  0  0
  -28.4537  -13.7494   21.8189 H   0  0  0  0  0  0
  -25.2770   -9.5729   22.4735 H   0  0  0  0  0  0
  -24.0042   -7.4645   22.7459 H   0  0  0  0  0  0
  -21.0836   -8.8769   19.8934 H   0  0  0  0  0  0
  -22.3681  -10.9686   19.6146 H   0  0  0  0  0  0
  -21.2006   -7.6158   23.9750 H   0  0  0  0  0  0
  -21.1462   -6.0497   25.9085 H   0  0  0  0  0  0
  -22.0607   -2.7620   23.2806 H   0  0  0  0  0  0
  -22.4072  -11.9945   22.4829 H   0  0  0  0  0  0
  -21.1059  -13.1284   22.2575 H   0  0  0  0  0  0
  -24.6489  -15.8384   20.4936 H   0  0  0  0  0  0
  -26.2636  -15.6273   20.0469 H   0  0  0  0  0  0
  -26.7180  -32.5418   23.1140 H   0  0  0  0  0  0
  -25.0369  -33.9848   25.0641 H   0  0  0  0  0  0
  -22.6978  -31.3148   21.4291 H   0  0  0  0  0  0
  -23.3794  -35.9582   23.3247 H   0  0  0  0  0  0
  -24.3578  -36.8938   22.2019 H   0  0  0  0  0  0
  -23.7160  -37.6479   23.6629 H   0  0  0  0  0  0
  -26.0922  -31.5821   20.6279 H   0  0  0  0  0  0
  -26.8307  -30.8304   22.0100 H   0  0  0  0  0  0
  -28.0811  -29.0086   21.2154 H   0  0  0  0  0  0
  -25.9468  -25.9955   18.9405 H   0  0  0  0  0  0
  -23.9611  -27.3838   18.9334 H   0  0  0  0  0  0
  -23.7151  -30.6355   19.4121 H   0  0  0  0  0  0
  -22.7323  -29.2758   19.8561 H   0  0  0  0  0  0
  -25.1286  -36.1989   25.0826 H   0  0  0  0  0  0
  -20.9928  -28.3195   24.1437 H   0  0  0  0  0  0
  -20.5701  -26.2231   23.3581 H   0  0  0  0  0  0
  -21.6665  -26.7420   22.1194 H   0  0  0  0  0  0
  -19.6932  -25.6256   21.1235 H   0  0  0  0  0  0
  -19.6757  -27.3174   20.6739 H   0  0  0  0  0  0
  -17.4230  -26.6660   21.3953 H   0  0  0  0  0  0
  -18.0308  -26.0026   22.8970 H   0  0  0  0  0  0
  -19.7918  -30.7296   24.2153 H   0  0  0  0  0  0
  -17.4967  -31.6224   24.5147 H   0  0  0  0  0  0
  -15.5319  -30.2898   23.7691 H   0  0  0  0  0  0
  -15.8660  -28.0780   22.7032 H   0  0  0  0  0  0
  -24.6071  -30.6924   25.7813 H   0  0  0  0  0  0
  -24.8813  -32.2877   26.4726 H   0  0  0  0  0  0
  -25.8134  -30.9077   27.0292 H   0  0  0  0  0  0
  -26.2754  -29.6817   24.1253 H   0  0  0  0  0  0
  -27.3934  -29.7226   25.4667 H   0  0  0  0  0  0
  -27.8687  -30.4226   23.9384 H   0  0  0  0  0  0
  -27.2822  -33.3690   26.1930 H   0  0  0  0  0  0
  -28.3976  -32.6689   25.0280 H   0  0  0  0  0  0
  -28.0711  -31.8452   26.5445 H   0  0  0  0  0  0
  -28.2599  -38.0092   24.7580 H   0  0  0  0  0  0
  -28.1091  -36.2643   24.6184 H   0  0  0  0  0  0
  -27.2296  -37.1304   25.8837 H   0  0  0  0  0  0
  -20.9298  -29.8706   21.6933 H   0  0  0  0  0  0
  -26.0189  -38.2893   24.1462 H   0  0  0  0  0  0
  -28.2084  -18.1574   22.0330 H   0  0  0  0  0  0
  -29.5873  -18.9978   22.7017 H   0  0  0  0  0  0
  -27.8179  -20.6071   22.2351 H   0  0  0  0  0  0
  -27.6731  -20.0621   20.5880 H   0  0  0  0  0  0
  -31.4983  -19.0145   19.4377 H   0  0  0  0  0  0
  -31.6144  -19.5690   21.0839 H   0  0  0  0  0  0
  -29.3109  -18.0117   19.8160 H   0  0  0  0  0  0
  -30.0512  -21.5889   21.7860 H   0  0  0  0  0  0
  -32.2231  -21.8637   17.2513 H   0  0  0  0  0  0
  -30.5807  -21.2569   17.1493 H   0  0  0  0  0  0
  -31.8857  -20.1907   17.6511 H   0  0  0  0  0  0
  -33.2006  -22.5692   19.3841 H   0  0  0  0  0  0
  -33.1263  -21.0139   20.1571 H   0  0  0  0  0  0
  -32.3661  -22.4194   20.9121 H   0  0  0  0  0  0
  -30.9517  -17.0996   22.2224 H   0  0  0  0  0  0
  -31.6616  -16.9917   20.6610 H   0  0  0  0  0  0
  -27.6068  -22.5216   20.9154 H   0  0  0  0  0  0
  -28.4053  -22.5142   19.3917 H   0  0  0  0  0  0
  -30.0265  -24.2865   20.3305 H   0  0  0  0  0  0
  -29.1692  -24.2030   21.8441 H   0  0  0  0  0  0
  -27.0833  -24.9456   20.8260 H   0  0  0  0  0  0
  -27.7359  -24.8045   19.2044 H   0  0  0  0  0  0
  -30.7552  -22.6151   19.0724 H   0  0  0  0  0  0
  -29.1154  -15.5239   21.3114 H   0  0  0  0  0  0
  -29.6227  -20.4652   19.1436 H   0  0  0  0  0  0
  1 25  1  0  0  0
  1 30  2  0  0  0
  1 83  1  0  0  0
  2  3  1  0  0  0
  2 25  1  0  0  0
  2 85  1  0  0  0
  2 86  1  0  0  0
  3  4  1  0  0  0
  3 87  1  0  0  0
  3 88  1  0  0  0
  4  5  1  0  0  0
  4 89  1  0  0  0
  4 90  1  0  0  0
  5  6  1  0  0  0
  5 26  1  0  0  0
  5 91  1  0  0  0
  6 25  1  0  0  0
  6 92  1  0  0  0
  6 93  1  0  0  0
  7  8  2  0  0  0
  7 26  1  0  0  0
  7 29  1  0  0  0
  8  9  1  0  0  0
  8 22  1  0  0  0
  9 10  1  0  0  0
  9 27  2  0  0  0
 10 11  2  0  0  0
 10 15  1  0  0  0
 11 12  1  0  0  0
 11 94  1  0  0  0
 12 13  2  0  0  0
 12 95  1  0  0  0
 13 14  1  0  0  0
 13 31  1  0  0  0
 14 15  2  0  0  0
 14 96  1  0  0  0
 15 97  1  0  0  0
 16 17  2  0  0  0
 16 21  1  0  0  0
 16 31  1  0  0  0
 17 18  1  0  0  0
 17 98  1  0  0  0
 18 19  2  0  0  0
 18 99  1  0  0  0
 19 20  1  0  0  0
 19 24  1  0  0  0
 20 21  2  0  0  0
 20100  1  0  0  0
 21 23  1  0  0  0
 22 28  1  0  0  0
 22 32  2  0  0  0
 26 27  1  0  0  0
 28101  1  0  0  0
 28102  1  0  0  0
 29103  1  0  0  0
 29104  1  0  0  0
 33 34  1  0  0  0
 33 66  1  0  0  0
 33 70  2  0  0  0
 34 36  1  0  0  0
 34 59  1  0  0  0
 34105  1  0  0  0
 35 44  2  0  0  0
 35 45  1  0  0  0
 35 68  1  0  0  0
 36 56  1  0  0  0
 36106  1  0  0  0
 37 39  1  0  0  0
 37 47  1  0  0  0
 37 66  1  0  0  0
 37107  1  0  0  0
 38 43  2  0  0  0
 38 46  1  0  0  0
 38 47  1  0  0  0
 39 64  1  0  0  0
 39 67  2  0  0  0
 40 52  1  0  0  0
 40 53  2  0  0  0
 40 58  1  0  0  0
 41108  1  0  0  0
 41109  1  0  0  0
 41110  1  0  0  0
 41 48  1  0  0  0
 42 43  1  0  0  0
 42 66  1  0  0  0
 42111  1  0  0  0
 42112  1  0  0  0
 43 44  1  0  0  0
 44113  1  0  0  0
 45 46  2  0  0  0
 45114  1  0  0  0
 46115  1  0  0  0
 47116  1  0  0  0
 47117  1  0  0  0
 48 56  1  0  0  0
 48 65  1  0  0  0
 48118  1  0  0  0
 49 50  1  0  0  0
 49 53  1  0  0  0
 49 64  1  0  0  0
 49119  1  0  0  0
 50 51  1  0  0  0
 50120  1  0  0  0
 50121  1  0  0  0
 51 52  1  0  0  0
 51122  1  0  0  0
 51123  1  0  0  0
 52124  1  0  0  0
 52125  1  0  0  0
 53 54  1  0  0  0
 54 55  2  0  0  0
 54126  1  0  0  0
 55 57  1  0  0  0
 55127  1  0  0  0
 56 69  2  0  0  0
 57 58  2  0  0  0
 57128  1  0  0  0
 58129  1  0  0  0
 59 60  1  0  0  0
 59 61  1  0  0  0
 59 62  1  0  0  0
 60130  1  0  0  0
 60131  1  0  0  0
 60132  1  0  0  0
 61133  1  0  0  0
 61134  1  0  0  0
 61135  1  0  0  0
 62136  1  0  0  0
 62137  1  0  0  0
 62138  1  0  0  0
 63 65  1  0  0  0
 63139  1  0  0  0
 63140  1  0  0  0
 63141  1  0  0  0
 64142  1  0  0  0
 65143  1  0  0  0
 68 81  1  0  0  0
 71 72  1  0  0  0
 71 74  1  0  0  0
 71144  1  0  0  0
 71145  1  0  0  0
 72 75  1  0  0  0
 72146  1  0  0  0
 72147  1  0  0  0
 73 74  1  0  0  0
 73148  1  0  0  0
 73149  1  0  0  0
 73 84  1  0  0  0
 74 78  1  0  0  0
 74150  1  0  0  0
 75 79  1  0  0  0
 75 84  1  0  0  0
 75151  1  0  0  0
 76152  1  0  0  0
 76153  1  0  0  0
 76154  1  0  0  0
 76 82  1  0  0  0
 77 82  1  0  0  0
 77155  1  0  0  0
 77156  1  0  0  0
 77157  1  0  0  0
 78 83  1  0  0  0
 78158  1  0  0  0
 78159  1  0  0  0
 79 80  1  0  0  0
 79160  1  0  0  0
 79161  1  0  0  0
 80 81  1  0  0  0
 80162  1  0  0  0
 80163  1  0  0  0
 81164  1  0  0  0
 81165  1  0  0  0
 82 84  1  0  0  0
 82166  1  0  0  0
 83167  1  0  0  0
 84168  1  0  0  0
M  CHG  1  84   1
M  ISO  4   1 100  68 101  81 101  83 100
M  END
> <chiral flag>
0

> <version>
0

> <s_m_source_file>
/data/baiqing/PycharmProjects/Reinvent-master-3.2/result/LINK_invent/BTK/process_docking_weight1_custom_sum_contain_oxygen_bond_distance_aromatic_linkinvent_7_9_3/rearranged_h_0123.sdf

> <i_m_source_file_index>
5

> <r_mmod_Potential_Energy-OPLS-2005>
-3.62110066413879

> <r_mmod_Stretch_Energy-OPLS-2005>
60.5061721801758

> <r_mmod_Bend_Energy-OPLS-2005>
136.950210571289

> <r_mmod_Torsional_Energy-OPLS-2005>
268.960357666016

> <r_mmod_Improper_Torsional_Energy-OPLS-2005>
3.33202052116394

> <r_mmod_Van_der_Waal_Energy-OPLS-2005>
146.655899047852

> <r_mmod_Electrostatic_Energy-OPLS-2005>
-228.558822631836

> <r_mmod_Solvation_Energy-OPLS-2005>
-426.542022705078

> <b_mmod_Minimization_Converged-OPLS-2005>
0

> <r_mmod_RMS_Derivative-OPLS-2005>
5.59692001342773

$$$$
5
                    3D
 Structure written by MMmdl.
185194  0  0  1  0            999 V2000
  -30.5166  -14.5743   20.0707 C   0  0  0  0  0  0
  -30.5046  -12.2581   19.3997 C   0  0  0  0  0  0
  -29.5232  -12.2228   18.2165 C   0  0  0  0  0  0
  -28.0645  -12.0825   18.6938 C   0  0  0  0  0  0
  -27.7353  -12.9642   19.9878 C   0  0  2  0  0  0
  -28.8193  -12.8506   21.0528 C   0  0  0  0  0  0
  -25.2757  -13.7351   20.6594 C   0  0  0  0  0  0
  -24.1688  -12.9159   21.0187 C   0  0  0  0  0  0
  -24.6978  -11.6099   20.8410 C   0  0  0  0  0  0
  -24.1120  -10.2019   20.9765 C   0  0  0  0  0  0
  -24.4303   -9.1850   21.9377 C   0  0  0  0  0  0
  -23.6039   -8.0063   22.1604 C   0  0  0  0  0  0
  -22.4404   -7.8661   21.3776 C   0  0  0  0  0  0
  -22.0991   -8.8635   20.4180 C   0  0  0  0  0  0
  -22.9821   -9.8822   20.1209 C   0  0  0  0  0  0
  -21.5947   -6.0119   22.5536 C   0  0  0  0  0  0
  -21.3558   -6.5381   23.8391 C   0  0  0  0  0  0
  -21.3570   -5.6654   24.9410 C   0  0  0  0  0  0
  -21.6014   -4.3042   24.7298 C   0  0  0  0  0  0
  -21.8743   -3.7851   23.4474 C   0  0  0  0  0  0
  -21.8803   -4.6491   22.3467 C   0  0  0  0  0  0
  -22.5927  -12.6840   21.2542 C   0  0  0  0  0  0
  -22.1713   -4.1958   21.1104 F   0  0  0  0  0  0
  -21.5668   -3.4466   25.7931 F   0  0  0  0  0  0
  -30.0321  -13.3072   20.2976 N   0  0  0  0  0  0
  -26.3271  -12.9432   20.3810 N   0  0  0  0  0  0
  -25.9383  -11.7195   20.4399 N   0  0  0  0  0  0
  -21.8876  -11.7066   21.9360 N   0  0  0  0  0  0
  -25.3693  -14.8875   20.3829 N   0  0  0  0  0  0
  -31.7221  -14.8487   20.1283 O   0  0  0  0  0  0
  -21.5299   -6.8112   21.4697 O   0  0  0  0  0  0
  -21.7141  -13.4934   20.8755 O   0  0  0  0  0  0
  -24.6486  -31.8398   23.1772 C   0  0  0  0  0  0
  -25.9335  -32.4530   23.8129 C   0  0  1  0  0  0
  -26.8748  -26.8130   20.4324 C   0  0  0  0  0  0
  -25.6095  -33.8362   24.2062 N   0  0  0  0  0  0
  -23.4488  -30.4815   21.5102 C   0  0  2  0  0  0
  -24.8643  -28.8722   20.1100 C   0  0  0  0  0  0
  -22.7523  -29.4728   22.4688 C   0  0  0  0  0  0
  -18.0432  -28.1348   22.8559 C   0  0  0  0  0  0
  -24.1579  -36.7253   23.2617 C   0  0  0  0  0  0
  -26.0122  -30.6127   21.4406 C   0  0  0  0  0  0
  -26.0276  -29.1924   20.8074 C   0  0  0  0  0  0
  -27.0650  -28.1563   20.9583 C   0  0  0  0  0  0
  -25.8077  -26.6880   19.5311 C   0  0  0  0  0  0
  -24.8168  -27.6545   19.3886 C   0  0  0  0  0  0
  -23.6727  -29.8167   20.1211 C   0  0  0  0  0  0
  -25.4198  -36.2913   24.0237 C   0  0  1  0  0  0
  -20.6010  -28.3808   23.1181 C   0  0  2  0  0  0
  -20.6798  -26.9519   22.5337 C   0  0  0  0  0  0
  -19.5720  -26.6392   21.5177 C   0  0  0  0  0  0
  -18.1982  -26.7900   22.1663 C   0  0  0  0  0  0
  -19.1671  -28.8891   23.2883 C   0  0  0  0  0  0
  -18.9534  -30.1480   23.8909 C   0  0  0  0  0  0
  -17.6499  -30.6526   24.0599 C   0  0  0  0  0  0
  -25.9174  -34.9276   23.4967 C   0  0  0  0  0  0
  -16.5426  -29.9033   23.6263 C   0  0  0  0  0  0
  -16.7407  -28.6426   23.0386 C   0  0  0  0  0  0
  -26.4580  -31.6449   25.0616 C   0  0  0  0  0  0
  -25.3747  -31.3800   26.1284 C   0  0  0  0  0  0
  -27.0466  -30.2744   24.6442 C   0  0  0  0  0  0
  -27.6126  -32.4262   25.7433 C   0  0  0  0  0  0
  -27.5558  -37.1798   24.8422 C   0  0  0  0  0  0
  -21.4236  -29.3264   22.3475 N   0  0  0  0  0  0
  -26.4313  -37.3607   23.9325 N   0  0  0  0  0  0
  -24.7192  -31.0184   22.0871 N   0  0  0  0  0  0
  -23.4135  -28.8389   23.2891 O   0  0  0  0  0  0
  -27.5116  -25.5153   20.7508 O   0  0  0  0  0  0
  -26.5745  -34.8804   22.4502 O   0  0  0  0  0  0
  -23.5609  -32.1453   23.7052 O   0  0  0  0  0  0
  -22.9200  -13.8936   23.7772 C   0  0  0  0  0  0
  -19.6016  -11.5508   25.4963 C   0  0  0  0  0  0
  -21.0421  -11.6906   24.7634 C   0  0  0  0  0  0
  -25.1953  -14.9268   18.0782 C   0  0  0  0  0  0
  -23.4011  -15.1290   19.2839 C   0  0  0  0  0  0
  -27.2490  -16.3483   20.9784 C   0  0  0  0  0  0
  -18.5565  -12.6342   25.0501 C   0  0  0  0  0  0
  -20.3567  -13.9673   24.1766 C   0  0  0  0  0  0
  -21.6012  -13.2658   24.6544 C   0  0  2  0  0  0
  -27.2019  -15.7428   18.8746 C   0  0  2  0  0  0
  -25.4484  -16.5517   22.0455 C   0  0  2  0  0  0
  -23.5257  -15.7526   21.4784 C   0  0  2  0  0  0
  -25.1092  -18.1416   22.0843 C   0  0  0  0  0  0
  -28.6376  -15.4988   18.3821 C   0  0  0  0  0  0
  -26.1473  -19.3663   21.7565 C   0  0  0  0  0  0
  -25.8071  -20.9920   21.7402 C   0  0  0  0  0  0
  -26.8531  -22.3868   21.4038 C   0  0  0  0  0  0
  -26.6398  -24.1283   21.0607 C   0  0  0  0  0  0
  -22.7210  -15.0311   22.8434 N   0  0  0  0  0  0
  -29.6857  -15.5063   19.4835 N   0  0  0  0  0  0
  -19.1831  -13.9332   25.0401 N   0  3  0  0  0  0
  -23.9011  -13.2227   23.6679 O   0  0  0  0  0  0
  -31.5502  -12.3874   19.0789 H   0  0  0  0  0  0
  -30.4840  -11.3054   19.9373 H   0  0  0  0  0  0
  -29.7559  -11.4077   17.5378 H   0  0  0  0  0  0
  -29.6433  -13.0904   17.6040 H   0  0  0  0  0  0
  -27.8700  -11.0140   18.8072 H   0  0  0  0  0  0
  -27.4332  -12.4113   17.9064 H   0  0  0  0  0  0
  -27.8487  -13.9283   19.9273 H   0  0  0  0  0  0
  -29.0038  -11.8515   21.5108 H   0  0  0  0  0  0
  -28.6600  -13.5110   21.9121 H   0  0  0  0  0  0
  -25.2398   -9.2277   22.6313 H   0  0  0  0  0  0
  -23.8173   -7.2322   22.9302 H   0  0  0  0  0  0
  -21.1353   -8.7492   19.9124 H   0  0  0  0  0  0
  -22.6573  -10.5777   19.4004 H   0  0  0  0  0  0
  -21.2080   -7.6027   23.9577 H   0  0  0  0  0  0
  -21.1639   -6.0802   25.9237 H   0  0  0  0  0  0
  -22.0737   -2.7281   23.2773 H   0  0  0  0  0  0
  -22.0271  -10.8901   22.5467 H   0  0  0  0  0  0
  -20.9413  -11.9129   21.8608 H   0  0  0  0  0  0
  -24.5922  -15.4879   20.0041 H   0  0  0  0  0  0
  -25.9147  -15.8994   19.9040 H   0  0  0  0  0  0
  -26.7265  -32.5030   23.0705 H   0  0  0  0  0  0
  -25.0127  -33.9314   25.0146 H   0  0  0  0  0  0
  -22.7755  -31.3279   21.3686 H   0  0  0  0  0  0
  -23.3730  -35.9675   23.3200 H   0  0  0  0  0  0
  -24.3680  -36.8996   22.2040 H   0  0  0  0  0  0
  -23.7535  -37.6484   23.6766 H   0  0  0  0  0  0
  -26.2067  -31.3221   20.6430 H   0  0  0  0  0  0
  -26.8643  -30.6498   22.0943 H   0  0  0  0  0  0
  -27.8993  -28.3491   21.6319 H   0  0  0  0  0  0
  -25.6359  -25.7311   19.0463 H   0  0  0  0  0  0
  -23.9688  -27.4332   18.7410 H   0  0  0  0  0  0
  -23.8383  -30.5962   19.3801 H   0  0  0  0  0  0
  -22.7712  -29.2910   19.8034 H   0  0  0  0  0  0
  -25.1452  -36.1526   25.0715 H   0  0  0  0  0  0
  -21.0262  -28.3324   24.1225 H   0  0  0  0  0  0
  -20.5525  -26.2495   23.3618 H   0  0  0  0  0  0
  -21.6695  -26.7382   22.1290 H   0  0  0  0  0  0
  -19.6819  -25.6271   21.1323 H   0  0  0  0  0  0
  -19.6457  -27.3091   20.6604 H   0  0  0  0  0  0
  -17.4213  -26.6818   21.4103 H   0  0  0  0  0  0
  -18.0361  -25.9990   22.9001 H   0  0  0  0  0  0
  -19.8024  -30.7362   24.2177 H   0  0  0  0  0  0
  -17.5061  -31.6189   24.5227 H   0  0  0  0  0  0
  -15.5406  -30.2914   23.7492 H   0  0  0  0  0  0
  -15.8901  -28.0661   22.7060 H   0  0  0  0  0  0
  -24.5870  -30.7186   25.7568 H   0  0  0  0  0  0
  -24.9004  -32.3079   26.4488 H   0  0  0  0  0  0
  -25.7899  -30.9036   27.0160 H   0  0  0  0  0  0
  -26.3029  -29.6414   24.1504 H   0  0  0  0  0  0
  -27.3982  -29.7031   25.5060 H   0  0  0  0  0  0
  -27.9040  -30.3793   23.9795 H   0  0  0  0  0  0
  -27.2638  -33.3616   26.1774 H   0  0  0  0  0  0
  -28.4006  -32.6672   25.0321 H   0  0  0  0  0  0
  -28.0630  -31.8524   26.5510 H   0  0  0  0  0  0
  -28.2570  -38.0084   24.7368 H   0  0  0  0  0  0
  -28.1067  -36.2610   24.6390 H   0  0  0  0  0  0
  -27.2238  -37.1598   25.8808 H   0  0  0  0  0  0
  -20.9337  -29.8941   21.6754 H   0  0  0  0  0  0
  -26.0103  -38.2632   24.1219 H   0  0  0  0  0  0
  -19.7364  -11.6485   26.5791 H   0  0  0  0  0  0
  -19.2261  -10.5514   25.3145 H   0  0  0  0  0  0
  -20.8283  -11.2451   23.7624 H   0  0  0  0  0  0
  -21.6221  -10.9168   25.3058 H   0  0  0  0  0  0
  -25.3081  -15.4078   16.9945 H   0  0  0  0  0  0
  -25.6101  -13.7064   17.7881 H   0  0  0  0  0  0
  -22.2155  -14.6398   19.0788 H   0  0  0  0  0  0
  -23.3045  -14.0299   18.9904 H   0  0  0  0  0  0
  -27.8967  -17.1923   20.9417 H   0  0  0  0  0  0
  -28.0464  -15.6238   21.5966 H   0  0  0  0  0  0
  -17.6915  -12.6711   25.7812 H   0  0  0  0  0  0
  -18.0711  -12.4201   24.0768 H   0  0  0  0  0  0
  -20.0565  -13.5707   23.2051 H   0  0  0  0  0  0
  -20.5930  -14.9324   24.1141 H   0  0  0  0  0  0
  -21.9355  -13.3969   25.7050 H   0  0  0  0  0  0
  -27.1043  -16.6458   18.5253 H   0  0  0  0  0  0
  -25.8237  -16.0478   23.1872 H   0  0  0  0  0  0
  -23.9475  -14.9861   22.1418 H   0  0  0  0  0  0
  -24.7572  -18.0716   23.1319 H   0  0  0  0  0  0
  -24.2493  -18.1247   21.4211 H   0  0  0  0  0  0
  -28.8126  -16.4624   17.8403 H   0  0  0  0  0  0
  -28.7088  -14.7571   17.5564 H   0  0  0  0  0  0
  -26.5948  -19.1513   20.7812 H   0  0  0  0  0  0
  -26.9310  -19.1821   22.4955 H   0  0  0  0  0  0
  -25.4515  -21.1365   22.7887 H   0  0  0  0  0  0
  -24.8497  -21.0344   21.1701 H   0  0  0  0  0  0
  -27.4798  -21.9804   20.6109 H   0  0  0  0  0  0
  -27.4535  -22.2960   22.3067 H   0  0  0  0  0  0
  -26.0178  -24.4358   21.9180 H   0  0  0  0  0  0
  -25.9345  -24.0920   20.2211 H   0  0  0  0  0  0
  -21.7116  -15.2726   23.0213 H   0  0  0  0  0  0
  -29.9559  -16.4682   19.6660 H   0  0  0  0  0  0
  -19.3154  -14.2512   25.9293 H   0  0  0  0  0  0
  -18.5389  -14.5133   24.6289 H   0  0  0  0  0  0
  1 25  1  0  0  0
  1 30  2  0  0  0
  1 90  1  0  0  0
  2  3  1  0  0  0
  2 25  1  0  0  0
  2 93  1  0  0  0
  2 94  1  0  0  0
  3  4  1  0  0  0
  3 95  1  0  0  0
  3 96  1  0  0  0
  4  5  1  0  0  0
  4 97  1  0  0  0
  4 98  1  0  0  0
  5  6  1  0  0  0
  5 26  1  0  0  0
  5 99  1  0  0  0
  6 25  1  0  0  0
  6100  1  0  0  0
  6101  1  0  0  0
  7  8  2  0  0  0
  7 26  1  0  0  0
  7 29  1  0  0  0
  8  9  1  0  0  0
  8 22  1  0  0  0
  9 10  1  0  0  0
  9 27  2  0  0  0
 10 11  2  0  0  0
 10 15  1  0  0  0
 11 12  1  0  0  0
 11102  1  0  0  0
 12 13  2  0  0  0
 12103  1  0  0  0
 13 14  1  0  0  0
 13 31  1  0  0  0
 14 15  2  0  0  0
 14104  1  0  0  0
 15105  1  0  0  0
 16 17  2  0  0  0
 16 21  1  0  0  0
 16 31  1  0  0  0
 17 18  1  0  0  0
 17106  1  0  0  0
 18 19  2  0  0  0
 18107  1  0  0  0
 19 20  1  0  0  0
 19 24  1  0  0  0
 20 21  2  0  0  0
 20108  1  0  0  0
 21 23  1  0  0  0
 22 28  1  0  0  0
 22 32  2  0  0  0
 26 27  1  0  0  0
 28109  1  0  0  0
 28110  1  0  0  0
 29111  1  0  0  0
 29112  1  0  0  0
 33 34  1  0  0  0
 33 66  1  0  0  0
 33 70  2  0  0  0
 34 36  1  0  0  0
 34 59  1  0  0  0
 34113  1  0  0  0
 35 44  2  0  0  0
 35 45  1  0  0  0
 35 68  1  0  0  0
 36 56  1  0  0  0
 36114  1  0  0  0
 37 39  1  0  0  0
 37 47  1  0  0  0
 37 66  1  0  0  0
 37115  1  0  0  0
 38 43  2  0  0  0
 38 46  1  0  0  0
 38 47  1  0  0  0
 39 64  1  0  0  0
 39 67  2  0  0  0
 40 52  1  0  0  0
 40 53  2  0  0  0
 40 58  1  0  0  0
 41116  1  0  0  0
 41117  1  0  0  0
 41118  1  0  0  0
 41 48  1  0  0  0
 42 43  1  0  0  0
 42 66  1  0  0  0
 42119  1  0  0  0
 42120  1  0  0  0
 43 44  1  0  0  0
 44121  1  0  0  0
 45 46  2  0  0  0
 45122  1  0  0  0
 46123  1  0  0  0
 47124  1  0  0  0
 47125  1  0  0  0
 48 56  1  0  0  0
 48 65  1  0  0  0
 48126  1  0  0  0
 49 50  1  0  0  0
 49 53  1  0  0  0
 49 64  1  0  0  0
 49127  1  0  0  0
 50 51  1  0  0  0
 50128  1  0  0  0
 50129  1  0  0  0
 51 52  1  0  0  0
 51130  1  0  0  0
 51131  1  0  0  0
 52132  1  0  0  0
 52133  1  0  0  0
 53 54  1  0  0  0
 54 55  2  0  0  0
 54134  1  0  0  0
 55 57  1  0  0  0
 55135  1  0  0  0
 56 69  2  0  0  0
 57 58  2  0  0  0
 57136  1  0  0  0
 58137  1  0  0  0
 59 60  1  0  0  0
 59 61  1  0  0  0
 59 62  1  0  0  0
 60138  1  0  0  0
 60139  1  0  0  0
 60140  1  0  0  0
 61141  1  0  0  0
 61142  1  0  0  0
 61143  1  0  0  0
 62144  1  0  0  0
 62145  1  0  0  0
 62146  1  0  0  0
 63 65  1  0  0  0
 63147  1  0  0  0
 63148  1  0  0  0
 63149  1  0  0  0
 64150  1  0  0  0
 65151  1  0  0  0
 68 88  1  0  0  0
 71 89  1  0  0  0
 71 92  2  0  0  0
 71 79  1  0  0  0
 72 73  1  0  0  0
 72 77  1  0  0  0
 72152  1  0  0  0
 72153  1  0  0  0
 73 79  1  0  0  0
 73154  1  0  0  0
 73155  1  0  0  0
 74 75  1  0  0  0
 74 80  1  0  0  0
 74156  1  0  0  0
 74157  1  0  0  0
 75 82  1  0  0  0
 75158  1  0  0  0
 75159  1  0  0  0
 76 80  1  0  0  0
 76 81  1  0  0  0
 76160  1  0  0  0
 76161  1  0  0  0
 77 91  1  0  0  0
 77162  1  0  0  0
 77163  1  0  0  0
 78 79  1  0  0  0
 78 91  1  0  0  0
 78164  1  0  0  0
 78165  1  0  0  0
 79166  1  0  0  0
 80 84  1  0  0  0
 80167  1  0  0  0
 81 82  1  0  0  0
 81 83  1  0  0  0
 81168  1  0  0  0
 82 89  1  0  0  0
 82169  1  0  0  0
 83 85  1  0  0  0
 83170  1  0  0  0
 83171  1  0  0  0
 84 90  1  0  0  0
 84172  1  0  0  0
 84173  1  0  0  0
 85 86  1  0  0  0
 85174  1  0  0  0
 85175  1  0  0  0
 86 87  1  0  0  0
 86176  1  0  0  0
 86177  1  0  0  0
 87 88  1  0  0  0
 87178  1  0  0  0
 87179  1  0  0  0
 88180  1  0  0  0
 88181  1  0  0  0
 89182  1  0  0  0
 90183  1  0  0  0
 91184  1  0  0  0
 91185  1  0  0  0
M  CHG  1  91   1
M  ISO  4   1 100  68 101  88 101  90 100
M  END
> <chiral flag>
0

> <version>
0

> <s_m_source_file>
/data/baiqing/PycharmProjects/Reinvent-master-3.2/result/LINK_invent/BTK/process_docking_weight1_custom_sum_contain_oxygen_bond_distance_aromatic_linkinvent_7_9_3/rearranged_h_0123.sdf

> <i_m_source_file_index>
6

> <r_mmod_Potential_Energy-OPLS-2005>
7687.76416015625

> <r_mmod_Stretch_Energy-OPLS-2005>
4294.072265625

> <r_mmod_Bend_Energy-OPLS-2005>
1470.97583007812

> <r_mmod_Torsional_Energy-OPLS-2005>
502.371002197266

> <r_mmod_Improper_Torsional_Energy-OPLS-2005>
28.720401763916

> <r_mmod_Van_der_Waal_Energy-OPLS-2005>
1281.02770996094

> <r_mmod_Electrostatic_Energy-OPLS-2005>
-328.478240966797

> <r_mmod_Solvation_Energy-OPLS-2005>
-523.230712890625

> <b_mmod_Minimization_Converged-OPLS-2005>
0

> <r_mmod_RMS_Derivative-OPLS-2005>
99.9990005493164

$$$$
6
                    3D
 Structure written by MMmdl.
166175  0  0  1  0            999 V2000
  -30.7168  -14.4135   20.5556 C   0  0  0  0  0  0
  -30.4120  -12.2627   19.4165 C   0  0  0  0  0  0
  -29.4910  -12.4997   18.2019 C   0  0  0  0  0  0
  -28.0100  -12.3758   18.6100 C   0  0  0  0  0  0
  -27.6655  -13.2021   19.8791 C   0  0  2  0  0  0
  -28.7052  -12.9614   20.9988 C   0  0  0  0  0  0
  -25.2613  -13.8161   20.5678 C   0  0  0  0  0  0
  -24.1848  -13.0434   20.9161 C   0  0  0  0  0  0
  -24.6401  -11.6909   20.8730 C   0  0  0  0  0  0
  -23.9062  -10.4295   21.0403 C   0  0  0  0  0  0
  -24.3615   -9.4210   21.9180 C   0  0  0  0  0  0
  -23.6292   -8.2244   22.0749 C   0  0  0  0  0  0
  -22.4275   -8.0285   21.3541 C   0  0  0  0  0  0
  -21.9910   -9.0255   20.4640 C   0  0  0  0  0  0
  -22.7237  -10.2136   20.3048 C   0  0  0  0  0  0
  -21.6854   -6.0742   22.5277 C   0  0  0  0  0  0
  -21.4013   -6.5644   23.8213 C   0  0  0  0  0  0
  -21.3656   -5.6795   24.9176 C   0  0  0  0  0  0
  -21.6045   -4.3057   24.7225 C   0  0  0  0  0  0
  -21.8818   -3.8150   23.4345 C   0  0  0  0  0  0
  -21.9194   -4.6968   22.3404 C   0  0  0  0  0  0
  -22.7878  -13.5242   21.1826 C   0  0  0  0  0  0
  -22.1662   -4.2154   21.0981 F   0  0  0  0  0  0
  -21.5629   -3.4540   25.7738 F   0  0  0  0  0  0
  -30.0424  -13.2401   20.4501 N   0  0  0  0  0  0
  -26.3049  -12.9319   20.3382 N   0  0  0  0  0  0
  -25.9323  -11.6485   20.5756 N   0  0  0  0  0  0
  -22.0515  -12.8231   22.0384 N   0  0  0  0  0  0
  -25.4352  -15.1869   20.4075 N   0  0  0  0  0  0
  -31.8353  -14.5982   20.0673 O   0  0  0  0  0  0
  -21.6636   -6.8884   21.4243 O   0  0  0  0  0  0
  -22.3562  -14.5546   20.6683 O   0  0  0  0  0  0
  -24.6121  -31.8712   23.2115 C   0  0  0  0  0  0
  -25.9023  -32.4838   23.8409 C   0  0  1  0  0  0
  -27.2484  -27.4571   20.0826 C   0  0  0  0  0  0
  -25.5892  -33.8636   24.2335 N   0  0  0  0  0  0
  -23.3978  -30.4927   21.5525 C   0  0  2  0  0  0
  -24.8453  -28.9577   20.1198 C   0  0  0  0  0  0
  -22.7394  -29.4658   22.5008 C   0  0  0  0  0  0
  -18.0265  -28.1374   22.8480 C   0  0  0  0  0  0
  -24.1477  -36.7314   23.2627 C   0  0  0  0  0  0
  -25.9205  -30.8426   21.3565 C   0  0  0  0  0  0
  -26.0017  -29.4737   20.7154 C   0  0  0  0  0  0
  -27.1985  -28.7260   20.7024 C   0  0  0  0  0  0
  -26.0674  -26.9508   19.4887 C   0  0  0  0  0  0
  -24.8702  -27.6909   19.5113 C   0  0  0  0  0  0
  -23.6065  -29.8232   20.1675 C   0  0  0  0  0  0
  -25.4089  -36.3114   24.0335 C   0  0  1  0  0  0
  -20.5852  -28.3642   23.1332 C   0  0  2  0  0  0
  -20.6733  -26.9379   22.5418 C   0  0  0  0  0  0
  -19.5718  -26.6381   21.5207 C   0  0  0  0  0  0
  -18.1908  -26.7919   22.1620 C   0  0  0  0  0  0
  -19.1516  -28.8829   23.2897 C   0  0  0  0  0  0
  -18.9450  -30.1441   23.8899 C   0  0  0  0  0  0
  -17.6450  -30.6578   24.0568 C   0  0  0  0  0  0
  -25.9024  -34.9489   23.5130 C   0  0  0  0  0  0
  -16.5340  -29.9078   23.6330 C   0  0  0  0  0  0
  -16.7256  -28.6506   23.0328 C   0  0  0  0  0  0
  -26.4481  -31.6595   25.0711 C   0  0  0  0  0  0
  -25.3758  -31.3648   26.1455 C   0  0  0  0  0  0
  -27.0282  -30.3052   24.6010 C   0  0  0  0  0  0
  -27.6080  -32.4290   25.7459 C   0  0  0  0  0  0
  -27.5571  -37.1780   24.8452 C   0  0  0  0  0  0
  -21.4123  -29.3026   22.3757 N   0  0  0  0  0  0
  -26.4264  -37.3808   23.9444 N   0  0  0  0  0  0
  -24.6622  -31.0826   22.1001 N   0  0  0  0  0  0
  -23.4188  -28.8204   23.3027 O   0  0  0  0  0  0
  -28.4610  -26.7958   20.0876 O   0  0  0  0  0  0
  -26.5587  -34.8947   22.4691 O   0  0  0  0  0  0
  -23.5322  -32.1449   23.7525 O   0  0  0  0  0  0
  -29.4526  -19.1578   21.0646 C   0  0  0  0  0  0
  -28.5270  -19.7471   23.2163 C   0  0  0  0  0  0
  -28.8701  -20.1306   21.9017 C   0  0  0  0  0  0
  -29.6366  -17.8547   21.5489 C   0  0  0  0  0  0
  -28.7355  -18.4022   23.6111 C   0  0  0  0  0  0
  -27.1824  -23.8223   20.7936 C   0  0  0  0  0  0
  -28.5137  -24.3550   20.3208 C   0  0  1  0  0  0
  -27.9807  -23.0431   19.7715 C   0  0  1  0  0  0
  -28.3586  -17.8900   24.9896 C   0  0  0  0  0  0
  -26.4147  -20.9094   24.0023 C   0  0  0  0  0  0
  -27.9339  -20.7820   24.1663 C   0  0  0  0  0  0
  -30.2915  -16.8188   20.6596 C   0  0  0  0  0  0
  -28.6376  -25.5591   19.3957 C   0  0  0  0  0  0
  -28.6191  -21.7036   20.1066 C   0  0  0  0  0  0
  -29.2750  -17.4761   22.7924 N   0  0  0  0  0  0
  -30.0048  -15.4368   21.0295 N   0  0  0  0  0  0
  -28.6183  -21.4289   21.5044 O   0  0  0  0  0  0
  -31.4601  -12.3371   19.1212 H   0  0  0  0  0  0
  -30.2841  -11.2490   19.7990 H   0  0  0  0  0  0
  -29.7196  -11.7860   17.4094 H   0  0  0  0  0  0
  -29.6765  -13.4901   17.7833 H   0  0  0  0  0  0
  -27.8011  -11.3195   18.7852 H   0  0  0  0  0  0
  -27.3667  -12.6760   17.7815 H   0  0  0  0  0  0
  -27.7172  -14.2522   19.5933 H   0  0  0  0  0  0
  -28.6636  -11.9254   21.3364 H   0  0  0  0  0  0
  -28.4800  -13.5636   21.8793 H   0  0  0  0  0  0
  -25.2769   -9.5685   22.4745 H   0  0  0  0  0  0
  -24.0008   -7.4636   22.7466 H   0  0  0  0  0  0
  -21.0846   -8.8774   19.8941 H   0  0  0  0  0  0
  -22.3705  -10.9673   19.6146 H   0  0  0  0  0  0
  -21.2002   -7.6150   23.9720 H   0  0  0  0  0  0
  -21.1477   -6.0524   25.9081 H   0  0  0  0  0  0
  -22.0599   -2.7611   23.2846 H   0  0  0  0  0  0
  -22.4136  -11.9889   22.4767 H   0  0  0  0  0  0
  -21.1118  -13.1236   22.2565 H   0  0  0  0  0  0
  -24.6752  -15.8482   20.5265 H   0  0  0  0  0  0
  -26.2970  -15.6244   20.1055 H   0  0  0  0  0  0
  -26.7082  -32.5579   23.1165 H   0  0  0  0  0  0
  -25.0079  -33.9790   25.0501 H   0  0  0  0  0  0
  -22.6830  -31.3077   21.4150 H   0  0  0  0  0  0
  -23.3762  -35.9621   23.3279 H   0  0  0  0  0  0
  -24.3563  -36.8947   22.2036 H   0  0  0  0  0  0
  -23.7201  -37.6501   23.6658 H   0  0  0  0  0  0
  -26.0090  -31.6004   20.5774 H   0  0  0  0  0  0
  -26.8152  -30.9151   21.9623 H   0  0  0  0  0  0
  -28.0932  -29.1230   21.1618 H   0  0  0  0  0  0
  -26.0443  -25.9918   18.9980 H   0  0  0  0  0  0
  -23.9777  -27.2842   19.0542 H   0  0  0  0  0  0
  -23.7109  -30.5962   19.4049 H   0  0  0  0  0  0
  -22.7303  -29.2412   19.8752 H   0  0  0  0  0  0
  -25.1252  -36.1963   25.0820 H   0  0  0  0  0  0
  -20.9940  -28.3199   24.1454 H   0  0  0  0  0  0
  -20.5629  -26.2245   23.3586 H   0  0  0  0  0  0
  -21.6604  -26.7404   22.1227 H   0  0  0  0  0  0
  -19.6861  -25.6303   21.1208 H   0  0  0  0  0  0
  -19.6666  -27.3215   20.6758 H   0  0  0  0  0  0
  -17.4168  -26.6674   21.4029 H   0  0  0  0  0  0
  -18.0300  -26.0053   22.9012 H   0  0  0  0  0  0
  -19.7931  -30.7249   24.2266 H   0  0  0  0  0  0
  -17.5011  -31.6256   24.5168 H   0  0  0  0  0  0
  -15.5340  -30.2974   23.7661 H   0  0  0  0  0  0
  -15.8654  -28.0840   22.7005 H   0  0  0  0  0  0
  -24.5979  -30.6941   25.7785 H   0  0  0  0  0  0
  -24.8885  -32.2762   26.4930 H   0  0  0  0  0  0
  -25.8135  -30.8815   27.0199 H   0  0  0  0  0  0
  -26.2776  -29.6819   24.1131 H   0  0  0  0  0  0
  -27.4153  -29.7276   25.4416 H   0  0  0  0  0  0
  -27.8579  -30.4407   23.9066 H   0  0  0  0  0  0
  -27.2768  -33.3634   26.2011 H   0  0  0  0  0  0
  -28.3908  -32.6759   25.0273 H   0  0  0  0  0  0
  -28.0723  -31.8406   26.5378 H   0  0  0  0  0  0
  -28.2551  -38.0119   24.7604 H   0  0  0  0  0  0
  -28.1111  -36.2662   24.6162 H   0  0  0  0  0  0
  -27.2306  -37.1277   25.8853 H   0  0  0  0  0  0
  -20.9268  -29.8786   21.7028 H   0  0  0  0  0  0
  -26.0158  -38.2869   24.1556 H   0  0  0  0  0  0
  -29.7705  -19.3857   20.0582 H   0  0  0  0  0  0
  -26.2687  -24.2956   20.4462 H   0  0  0  0  0  0
  -27.1415  -23.4469   21.8146 H   0  0  0  0  0  0
  -29.3221  -24.2840   21.0472 H   0  0  0  0  0  0
  -27.6327  -23.0937   18.7404 H   0  0  0  0  0  0
  -27.4091  -18.3069   25.3239 H   0  0  0  0  0  0
  -29.1290  -18.1503   25.7150 H   0  0  0  0  0  0
  -28.2504  -16.8055   24.9918 H   0  0  0  0  0  0
  -26.0115  -21.6523   24.6914 H   0  0  0  0  0  0
  -25.9122  -19.9628   24.2036 H   0  0  0  0  0  0
  -26.1504  -21.2192   22.9896 H   0  0  0  0  0  0
  -28.4023  -21.7483   23.9775 H   0  0  0  0  0  0
  -28.1843  -20.5448   25.2004 H   0  0  0  0  0  0
  -31.3636  -17.0173   20.6434 H   0  0  0  0  0  0
  -29.9330  -16.9650   19.6397 H   0  0  0  0  0  0
  -28.0116  -25.4556   18.5105 H   0  0  0  0  0  0
  -29.6578  -25.5642   19.0112 H   0  0  0  0  0  0
  -29.6398  -21.6908   19.7226 H   0  0  0  0  0  0
  -28.0497  -20.9347   19.5815 H   0  0  0  0  0  0
  -29.1159  -15.2644   21.4711 H   0  0  0  0  0  0
  1 25  1  0  0  0
  1 30  2  0  0  0
  1 86  1  0  0  0
  2  3  1  0  0  0
  2 25  1  0  0  0
  2 88  1  0  0  0
  2 89  1  0  0  0
  3  4  1  0  0  0
  3 90  1  0  0  0
  3 91  1  0  0  0
  4  5  1  0  0  0
  4 92  1  0  0  0
  4 93  1  0  0  0
  5  6  1  0  0  0
  5 26  1  0  0  0
  5 94  1  0  0  0
  6 25  1  0  0  0
  6 95  1  0  0  0
  6 96  1  0  0  0
  7  8  2  0  0  0
  7 26  1  0  0  0
  7 29  1  0  0  0
  8  9  1  0  0  0
  8 22  1  0  0  0
  9 10  1  0  0  0
  9 27  2  0  0  0
 10 11  2  0  0  0
 10 15  1  0  0  0
 11 12  1  0  0  0
 11 97  1  0  0  0
 12 13  2  0  0  0
 12 98  1  0  0  0
 13 14  1  0  0  0
 13 31  1  0  0  0
 14 15  2  0  0  0
 14 99  1  0  0  0
 15100  1  0  0  0
 16 17  2  0  0  0
 16 21  1  0  0  0
 16 31  1  0  0  0
 17 18  1  0  0  0
 17101  1  0  0  0
 18 19  2  0  0  0
 18102  1  0  0  0
 19 20  1  0  0  0
 19 24  1  0  0  0
 20 21  2  0  0  0
 20103  1  0  0  0
 21 23  1  0  0  0
 22 28  1  0  0  0
 22 32  2  0  0  0
 26 27  1  0  0  0
 28104  1  0  0  0
 28105  1  0  0  0
 29106  1  0  0  0
 29107  1  0  0  0
 33 34  1  0  0  0
 33 66  1  0  0  0
 33 70  2  0  0  0
 34 36  1  0  0  0
 34 59  1  0  0  0
 34108  1  0  0  0
 35 44  2  0  0  0
 35 45  1  0  0  0
 35 68  1  0  0  0
 36 56  1  0  0  0
 36109  1  0  0  0
 37 39  1  0  0  0
 37 47  1  0  0  0
 37 66  1  0  0  0
 37110  1  0  0  0
 38 43  2  0  0  0
 38 46  1  0  0  0
 38 47  1  0  0  0
 39 64  1  0  0  0
 39 67  2  0  0  0
 40 52  1  0  0  0
 40 53  2  0  0  0
 40 58  1  0  0  0
 41111  1  0  0  0
 41112  1  0  0  0
 41113  1  0  0  0
 41 48  1  0  0  0
 42 43  1  0  0  0
 42 66  1  0  0  0
 42114  1  0  0  0
 42115  1  0  0  0
 43 44  1  0  0  0
 44116  1  0  0  0
 45 46  2  0  0  0
 45117  1  0  0  0
 46118  1  0  0  0
 47119  1  0  0  0
 47120  1  0  0  0
 48 56  1  0  0  0
 48 65  1  0  0  0
 48121  1  0  0  0
 49 50  1  0  0  0
 49 53  1  0  0  0
 49 64  1  0  0  0
 49122  1  0  0  0
 50 51  1  0  0  0
 50123  1  0  0  0
 50124  1  0  0  0
 51 52  1  0  0  0
 51125  1  0  0  0
 51126  1  0  0  0
 52127  1  0  0  0
 52128  1  0  0  0
 53 54  1  0  0  0
 54 55  2  0  0  0
 54129  1  0  0  0
 55 57  1  0  0  0
 55130  1  0  0  0
 56 69  2  0  0  0
 57 58  2  0  0  0
 57131  1  0  0  0
 58132  1  0  0  0
 59 60  1  0  0  0
 59 61  1  0  0  0
 59 62  1  0  0  0
 60133  1  0  0  0
 60134  1  0  0  0
 60135  1  0  0  0
 61136  1  0  0  0
 61137  1  0  0  0
 61138  1  0  0  0
 62139  1  0  0  0
 62140  1  0  0  0
 62141  1  0  0  0
 63 65  1  0  0  0
 63142  1  0  0  0
 63143  1  0  0  0
 63144  1  0  0  0
 64145  1  0  0  0
 65146  1  0  0  0
 68 83  1  0  0  0
 71 73  2  0  0  0
 71 74  1  0  0  0
 71147  1  0  0  0
 72 73  1  0  0  0
 72 75  2  0  0  0
 72 81  1  0  0  0
 73 87  1  0  0  0
 74 82  1  0  0  0
 74 85  2  0  0  0
 75 79  1  0  0  0
 75 85  1  0  0  0
 76 77  1  0  0  0
 76 78  1  0  0  0
 76148  1  0  0  0
 76149  1  0  0  0
 77 78  1  0  0  0
 77 83  1  0  0  0
 77150  1  0  0  0
 78 84  1  0  0  0
 78151  1  0  0  0
 79152  1  0  0  0
 79153  1  0  0  0
 79154  1  0  0  0
 80 81  1  0  0  0
 80155  1  0  0  0
 80156  1  0  0  0
 80157  1  0  0  0
 81158  1  0  0  0
 81159  1  0  0  0
 82 86  1  0  0  0
 82160  1  0  0  0
 82161  1  0  0  0
 83162  1  0  0  0
 83163  1  0  0  0
 84 87  1  0  0  0
 84164  1  0  0  0
 84165  1  0  0  0
 86166  1  0  0  0
M  ISO  4   1 100  68 101  83 101  86 100
M  END
> <chiral flag>
0

> <version>
0

> <s_m_source_file>
/data/baiqing/PycharmProjects/Reinvent-master-3.2/result/LINK_invent/BTK/process_docking_weight1_custom_sum_contain_oxygen_bond_distance_aromatic_linkinvent_7_9_3/rearranged_h_0123.sdf

> <i_m_source_file_index>
7

> <r_mmod_Potential_Energy-OPLS-2005>
-336.729644775391

> <r_mmod_Stretch_Energy-OPLS-2005>
32.7426567077637

> <r_mmod_Bend_Energy-OPLS-2005>
105.809906005859

> <r_mmod_Torsional_Energy-OPLS-2005>
243.660202026367

> <r_mmod_Improper_Torsional_Energy-OPLS-2005>
5.51046133041382

> <r_mmod_Van_der_Waal_Energy-OPLS-2005>
164.428726196289

> <r_mmod_Electrostatic_Energy-OPLS-2005>
-683.565856933594

> <r_mmod_Solvation_Energy-OPLS-2005>
-215.670623779297

> <b_mmod_Minimization_Converged-OPLS-2005>
0

> <r_mmod_RMS_Derivative-OPLS-2005>
2.22867965698242

$$$$
7
                    3D
 Structure written by MMmdl.
182191  0  0  1  0            999 V2000
  -30.8130  -14.2625   20.7388 C   0  0  0  0  0  0
  -30.4070  -12.2626   19.3714 C   0  0  0  0  0  0
  -29.4779  -12.5620   18.1824 C   0  0  0  0  0  0
  -28.0027  -12.4132   18.5981 C   0  0  0  0  0  0
  -27.6719  -13.2044   19.8899 C   0  0  2  0  0  0
  -28.7077  -12.9122   20.9983 C   0  0  0  0  0  0
  -25.2600  -13.8146   20.5671 C   0  0  0  0  0  0
  -24.1844  -13.0419   20.9167 C   0  0  0  0  0  0
  -24.6382  -11.6892   20.8683 C   0  0  0  0  0  0
  -23.9032  -10.4283   21.0336 C   0  0  0  0  0  0
  -24.3591   -9.4224   21.9139 C   0  0  0  0  0  0
  -23.6278   -8.2243   22.0732 C   0  0  0  0  0  0
  -22.4265   -8.0258   21.3534 C   0  0  0  0  0  0
  -21.9877   -9.0218   20.4643 C   0  0  0  0  0  0
  -22.7187  -10.2108   20.3026 C   0  0  0  0  0  0
  -21.6868   -6.0713   22.5268 C   0  0  0  0  0  0
  -21.4016   -6.5616   23.8198 C   0  0  0  0  0  0
  -21.3671   -5.6781   24.9163 C   0  0  0  0  0  0
  -21.6045   -4.3042   24.7238 C   0  0  0  0  0  0
  -21.8816   -3.8130   23.4359 C   0  0  0  0  0  0
  -21.9200   -4.6937   22.3412 C   0  0  0  0  0  0
  -22.7869  -13.5221   21.1827 C   0  0  0  0  0  0
  -22.1667   -4.2113   21.0997 F   0  0  0  0  0  0
  -21.5634   -3.4547   25.7760 F   0  0  0  0  0  0
  -30.0610  -13.1726   20.4695 N   0  0  0  0  0  0
  -26.3070  -12.9320   20.3424 N   0  0  0  0  0  0
  -25.9322  -11.6471   20.5749 N   0  0  0  0  0  0
  -22.0527  -12.8202   22.0396 N   0  0  0  0  0  0
  -25.4333  -15.1854   20.4041 N   0  0  0  0  0  0
  -31.7601  -14.6434   20.0429 O   0  0  0  0  0  0
  -21.6645   -6.8849   21.4229 O   0  0  0  0  0  0
  -22.3537  -14.5529   20.6687 O   0  0  0  0  0  0
  -24.6105  -31.8713   23.2180 C   0  0  0  0  0  0
  -25.9050  -32.4834   23.8426 C   0  0  1  0  0  0
  -27.2252  -27.4890   20.0743 C   0  0  0  0  0  0
  -25.5935  -33.8649   24.2359 N   0  0  0  0  0  0
  -23.3938  -30.4962   21.5569 C   0  0  2  0  0  0
  -24.8299  -28.9660   20.1153 C   0  0  0  0  0  0
  -22.7356  -29.4705   22.5050 C   0  0  0  0  0  0
  -18.0266  -28.1413   22.8492 C   0  0  0  0  0  0
  -24.1489  -36.7336   23.2623 C   0  0  0  0  0  0
  -25.9161  -30.8502   21.3654 C   0  0  0  0  0  0
  -25.9873  -29.4930   20.7011 C   0  0  0  0  0  0
  -27.1886  -28.7629   20.6699 C   0  0  0  0  0  0
  -26.0522  -26.9571   19.4915 C   0  0  0  0  0  0
  -24.8539  -27.6954   19.5108 C   0  0  0  0  0  0
  -23.5926  -29.8272   20.1695 C   0  0  0  0  0  0
  -25.4106  -36.3141   24.0338 C   0  0  1  0  0  0
  -20.5838  -28.3701   23.1352 C   0  0  2  0  0  0
  -20.6746  -26.9429   22.5484 C   0  0  0  0  0  0
  -19.5757  -26.6413   21.5252 C   0  0  0  0  0  0
  -18.1908  -26.7991   22.1569 C   0  0  0  0  0  0
  -19.1510  -28.8873   23.2916 C   0  0  0  0  0  0
  -18.9440  -30.1476   23.8945 C   0  0  0  0  0  0
  -17.6439  -30.6588   24.0617 C   0  0  0  0  0  0
  -25.9035  -34.9500   23.5137 C   0  0  0  0  0  0
  -16.5338  -29.9104   23.6343 C   0  0  0  0  0  0
  -16.7251  -28.6528   23.0350 C   0  0  0  0  0  0
  -26.4474  -31.6618   25.0764 C   0  0  0  0  0  0
  -25.3716  -31.3757   26.1483 C   0  0  0  0  0  0
  -27.0255  -30.3018   24.6226 C   0  0  0  0  0  0
  -27.6096  -32.4310   25.7475 C   0  0  0  0  0  0
  -27.5607  -37.1811   24.8453 C   0  0  0  0  0  0
  -21.4097  -29.3038   22.3736 N   0  0  0  0  0  0
  -26.4305  -37.3817   23.9407 N   0  0  0  0  0  0
  -24.6573  -31.0860   22.1044 N   0  0  0  0  0  0
  -23.4119  -28.8298   23.3145 O   0  0  0  0  0  0
  -28.4317  -26.8453   20.0611 O   0  0  0  0  0  0
  -26.5577  -34.8939   22.4691 O   0  0  0  0  0  0
  -23.5334  -32.1453   23.7622 O   0  0  0  0  0  0
  -29.6905  -23.5941   21.3445 C   0  0  0  0  0  0
  -29.9450  -23.8018   18.8100 C   0  0  0  0  0  0
  -29.4500  -25.1014   21.2222 C   0  0  0  0  0  0
  -28.8864  -24.9122   18.7242 C   0  0  0  0  0  0
  -32.2671  -20.3002   22.2774 C   0  0  0  0  0  0
  -29.6468  -22.8536   19.9837 C   0  0  1  0  0  0
  -32.4020  -18.9474   22.9696 C   0  0  2  0  0  0
  -28.4502  -25.4336   20.1097 C   0  0  2  0  0  0
  -31.0810  -18.5940   22.2793 C   0  0  2  0  0  0
  -33.7427  -19.5122   25.0787 C   0  0  0  0  0  0
  -29.0424  -19.1208   19.0538 C   0  0  0  0  0  0
  -30.5967  -21.6494   19.9844 C   0  0  0  0  0  0
  -32.4931  -18.8472   24.4910 C   0  0  0  0  0  0
  -28.9126  -19.7529   20.4507 C   0  0  0  0  0  0
  -31.1652  -16.0493   22.4377 C   0  0  0  0  0  0
  -30.9256  -17.2721   21.5342 C   0  0  2  0  0  0
  -30.1545  -20.5367   20.9623 C   0  0  1  0  0  0
  -30.5184  -14.8641   21.8914 N   0  0  0  0  0  0
  -31.3151  -19.6879   21.3405 N   0  3  1  0  0  0
  -31.8828  -17.2643   20.4865 O   0  0  0  0  0  0
  -31.4537  -12.3533   19.0718 H   0  0  0  0  0  0
  -30.2867  -11.2282   19.6970 H   0  0  0  0  0  0
  -29.7050  -11.8986   17.3470 H   0  0  0  0  0  0
  -29.6573  -13.5772   17.8250 H   0  0  0  0  0  0
  -27.7933  -11.3536   18.7428 H   0  0  0  0  0  0
  -27.3517  -12.7448   17.7883 H   0  0  0  0  0  0
  -27.7386  -14.2652   19.6481 H   0  0  0  0  0  0
  -28.6481  -11.8679   21.3084 H   0  0  0  0  0  0
  -28.4621  -13.4945   21.8867 H   0  0  0  0  0  0
  -25.2734   -9.5717   22.4719 H   0  0  0  0  0  0
  -24.0010   -7.4645   22.7440 H   0  0  0  0  0  0
  -21.0802   -8.8678   19.8970 H   0  0  0  0  0  0
  -22.3580  -10.9612   19.6135 H   0  0  0  0  0  0
  -21.1996   -7.6125   23.9691 H   0  0  0  0  0  0
  -21.1501   -6.0520   25.9063 H   0  0  0  0  0  0
  -22.0596   -2.7589   23.2877 H   0  0  0  0  0  0
  -22.4155  -11.9862   22.4784 H   0  0  0  0  0  0
  -21.1136  -13.1163   22.2606 H   0  0  0  0  0  0
  -24.6641  -15.8418   20.4876 H   0  0  0  0  0  0
  -26.2880  -15.6168   20.0732 H   0  0  0  0  0  0
  -26.7141  -32.5528   23.1206 H   0  0  0  0  0  0
  -25.0138  -33.9836   25.0536 H   0  0  0  0  0  0
  -22.6832  -31.3131   21.4190 H   0  0  0  0  0  0
  -23.3762  -35.9662   23.3291 H   0  0  0  0  0  0
  -24.3595  -36.8940   22.2039 H   0  0  0  0  0  0
  -23.7214  -37.6539   23.6611 H   0  0  0  0  0  0
  -26.0420  -31.6300   20.6135 H   0  0  0  0  0  0
  -26.7977  -30.8811   21.9952 H   0  0  0  0  0  0
  -28.0912  -29.1752   21.1005 H   0  0  0  0  0  0
  -26.0539  -25.9924   19.0030 H   0  0  0  0  0  0
  -23.9616  -27.2864   19.0546 H   0  0  0  0  0  0
  -23.6924  -30.5982   19.4041 H   0  0  0  0  0  0
  -22.7167  -29.2407   19.8840 H   0  0  0  0  0  0
  -25.1286  -36.2033   25.0838 H   0  0  0  0  0  0
  -20.9928  -28.3303   24.1477 H   0  0  0  0  0  0
  -20.5620  -26.2340   23.3699 H   0  0  0  0  0  0
  -21.6630  -26.7463   22.1324 H   0  0  0  0  0  0
  -19.6921  -25.6320   21.1288 H   0  0  0  0  0  0
  -19.6765  -27.3239   20.6800 H   0  0  0  0  0  0
  -17.4244  -26.6894   21.3883 H   0  0  0  0  0  0
  -18.0165  -26.0081   22.8880 H   0  0  0  0  0  0
  -19.7905  -30.7302   24.2336 H   0  0  0  0  0  0
  -17.4977  -31.6261   24.5237 H   0  0  0  0  0  0
  -15.5343  -30.3040   23.7611 H   0  0  0  0  0  0
  -15.8642  -28.0858   22.7062 H   0  0  0  0  0  0
  -24.6291  -30.6569   25.7996 H   0  0  0  0  0  0
  -24.8383  -32.2812   26.4387 H   0  0  0  0  0  0
  -25.8107  -30.9564   27.0543 H   0  0  0  0  0  0
  -26.2824  -29.6857   24.1149 H   0  0  0  0  0  0
  -27.3758  -29.7226   25.4788 H   0  0  0  0  0  0
  -27.8800  -30.4246   23.9569 H   0  0  0  0  0  0
  -27.2760  -33.3551   26.2208 H   0  0  0  0  0  0
  -28.3786  -32.6963   25.0207 H   0  0  0  0  0  0
  -28.0922  -31.8351   26.5234 H   0  0  0  0  0  0
  -28.2654  -38.0086   24.7461 H   0  0  0  0  0  0
  -28.1063  -36.2613   24.6278 H   0  0  0  0  0  0
  -27.2340  -37.1476   25.8867 H   0  0  0  0  0  0
  -20.9287  -29.8656   21.6851 H   0  0  0  0  0  0
  -26.0218  -38.2899   24.1448 H   0  0  0  0  0  0
  -28.9442  -23.1676   22.0175 H   0  0  0  0  0  0
  -30.6526  -23.4498   21.8376 H   0  0  0  0  0  0
  -30.9309  -24.2502   18.9416 H   0  0  0  0  0  0
  -29.9765  -23.2577   17.8652 H   0  0  0  0  0  0
  -30.3987  -25.6007   21.0178 H   0  0  0  0  0  0
  -29.0939  -25.4967   22.1749 H   0  0  0  0  0  0
  -28.0097  -24.5411   18.1940 H   0  0  0  0  0  0
  -29.2761  -25.7259   18.1107 H   0  0  0  0  0  0
  -33.1767  -20.6618   21.7976 H   0  0  0  0  0  0
  -31.8244  -21.0659   22.9178 H   0  0  0  0  0  0
  -28.6280  -22.4972   19.8255 H   0  0  0  0  0  0
  -33.2265  -18.4070   22.4977 H   0  0  0  0  0  0
  -27.4929  -24.9933   20.3997 H   0  0  0  0  0  0
  -30.2400  -18.8125   22.9417 H   0  0  0  0  0  0
  -33.7357  -19.4356   26.1675 H   0  0  0  0  0  0
  -33.7934  -20.5716   24.8256 H   0  0  0  0  0  0
  -34.6568  -19.0343   24.7228 H   0  0  0  0  0  0
  -28.1672  -18.5103   18.8312 H   0  0  0  0  0  0
  -29.9216  -18.4839   18.9664 H   0  0  0  0  0  0
  -29.1008  -19.8760   18.2700 H   0  0  0  0  0  0
  -31.5963  -22.0060   20.2354 H   0  0  0  0  0  0
  -30.6956  -21.2500   18.9759 H   0  0  0  0  0  0
  -32.4859  -17.7966   24.7852 H   0  0  0  0  0  0
  -31.6064  -19.2890   24.9507 H   0  0  0  0  0  0
  -28.6140  -18.9959   21.1739 H   0  0  0  0  0  0
  -28.0577  -20.4290   20.4275 H   0  0  0  0  0  0
  -30.7153  -16.2321   23.4135 H   0  0  0  0  0  0
  -32.2275  -15.8741   22.6196 H   0  0  0  0  0  0
  -29.9269  -17.2026   21.0987 H   0  0  0  0  0  0
  -29.8314  -21.0025   21.8917 H   0  0  0  0  0  0
  -29.7759  -14.4496   22.4357 H   0  0  0  0  0  0
  -31.7739  -19.2496   20.5477 H   0  0  0  0  0  0
  -31.9523  -16.3495   20.1878 H   0  0  0  0  0  0
  1 25  1  0  0  0
  1 30  2  0  0  0
  1 88  1  0  0  0
  2  3  1  0  0  0
  2 25  1  0  0  0
  2 91  1  0  0  0
  2 92  1  0  0  0
  3  4  1  0  0  0
  3 93  1  0  0  0
  3 94  1  0  0  0
  4  5  1  0  0  0
  4 95  1  0  0  0
  4 96  1  0  0  0
  5  6  1  0  0  0
  5 26  1  0  0  0
  5 97  1  0  0  0
  6 25  1  0  0  0
  6 98  1  0  0  0
  6 99  1  0  0  0
  7  8  2  0  0  0
  7 26  1  0  0  0
  7 29  1  0  0  0
  8  9  1  0  0  0
  8 22  1  0  0  0
  9 10  1  0  0  0
  9 27  2  0  0  0
 10 11  2  0  0  0
 10 15  1  0  0  0
 11 12  1  0  0  0
 11100  1  0  0  0
 12 13  2  0  0  0
 12101  1  0  0  0
 13 14  1  0  0  0
 13 31  1  0  0  0
 14 15  2  0  0  0
 14102  1  0  0  0
 15103  1  0  0  0
 16 17  2  0  0  0
 16 21  1  0  0  0
 16 31  1  0  0  0
 17 18  1  0  0  0
 17104  1  0  0  0
 18 19  2  0  0  0
 18105  1  0  0  0
 19 20  1  0  0  0
 19 24  1  0  0  0
 20 21  2  0  0  0
 20106  1  0  0  0
 21 23  1  0  0  0
 22 28  1  0  0  0
 22 32  2  0  0  0
 26 27  1  0  0  0
 28107  1  0  0  0
 28108  1  0  0  0
 29109  1  0  0  0
 29110  1  0  0  0
 33 34  1  0  0  0
 33 66  1  0  0  0
 33 70  2  0  0  0
 34 36  1  0  0  0
 34 59  1  0  0  0
 34111  1  0  0  0
 35 44  2  0  0  0
 35 45  1  0  0  0
 35 68  1  0  0  0
 36 56  1  0  0  0
 36112  1  0  0  0
 37 39  1  0  0  0
 37 47  1  0  0  0
 37 66  1  0  0  0
 37113  1  0  0  0
 38 43  2  0  0  0
 38 46  1  0  0  0
 38 47  1  0  0  0
 39 64  1  0  0  0
 39 67  2  0  0  0
 40 52  1  0  0  0
 40 53  2  0  0  0
 40 58  1  0  0  0
 41114  1  0  0  0
 41115  1  0  0  0
 41116  1  0  0  0
 41 48  1  0  0  0
 42 43  1  0  0  0
 42 66  1  0  0  0
 42117  1  0  0  0
 42118  1  0  0  0
 43 44  1  0  0  0
 44119  1  0  0  0
 45 46  2  0  0  0
 45120  1  0  0  0
 46121  1  0  0  0
 47122  1  0  0  0
 47123  1  0  0  0
 48 56  1  0  0  0
 48 65  1  0  0  0
 48124  1  0  0  0
 49 50  1  0  0  0
 49 53  1  0  0  0
 49 64  1  0  0  0
 49125  1  0  0  0
 50 51  1  0  0  0
 50126  1  0  0  0
 50127  1  0  0  0
 51 52  1  0  0  0
 51128  1  0  0  0
 51129  1  0  0  0
 52130  1  0  0  0
 52131  1  0  0  0
 53 54  1  0  0  0
 54 55  2  0  0  0
 54132  1  0  0  0
 55 57  1  0  0  0
 55133  1  0  0  0
 56 69  2  0  0  0
 57 58  2  0  0  0
 57134  1  0  0  0
 58135  1  0  0  0
 59 60  1  0  0  0
 59 61  1  0  0  0
 59 62  1  0  0  0
 60136  1  0  0  0
 60137  1  0  0  0
 60138  1  0  0  0
 61139  1  0  0  0
 61140  1  0  0  0
 61141  1  0  0  0
 62142  1  0  0  0
 62143  1  0  0  0
 62144  1  0  0  0
 63 65  1  0  0  0
 63145  1  0  0  0
 63146  1  0  0  0
 63147  1  0  0  0
 64148  1  0  0  0
 65149  1  0  0  0
 68 78  1  0  0  0
 71 73  1  0  0  0
 71 76  1  0  0  0
 71150  1  0  0  0
 71151  1  0  0  0
 72 74  1  0  0  0
 72 76  1  0  0  0
 72152  1  0  0  0
 72153  1  0  0  0
 73 78  1  0  0  0
 73154  1  0  0  0
 73155  1  0  0  0
 74 78  1  0  0  0
 74156  1  0  0  0
 74157  1  0  0  0
 75 77  1  0  0  0
 75158  1  0  0  0
 75159  1  0  0  0
 75 89  1  0  0  0
 76 82  1  0  0  0
 76160  1  0  0  0
 77 79  1  0  0  0
 77 83  1  0  0  0
 77161  1  0  0  0
 78162  1  0  0  0
 79 86  1  0  0  0
 79 89  1  0  0  0
 79163  1  0  0  0
 80 83  1  0  0  0
 80164  1  0  0  0
 80165  1  0  0  0
 80166  1  0  0  0
 81 84  1  0  0  0
 81167  1  0  0  0
 81168  1  0  0  0
 81169  1  0  0  0
 82170  1  0  0  0
 82171  1  0  0  0
 82 87  1  0  0  0
 83172  1  0  0  0
 83173  1  0  0  0
 84 87  1  0  0  0
 84174  1  0  0  0
 84175  1  0  0  0
 85 86  1  0  0  0
 85 88  1  0  0  0
 85176  1  0  0  0
 85177  1  0  0  0
 86 90  1  0  0  0
 86178  1  0  0  0
 87 89  1  0  0  0
 87179  1  0  0  0
 88180  1  0  0  0
 89181  1  0  0  0
 90182  1  0  0  0
M  CHG  1  89   1
M  ISO  4   1 100  68 101  78 101  88 100
M  END
> <chiral flag>
0

> <version>
0

> <s_m_source_file>
/data/baiqing/PycharmProjects/Reinvent-master-3.2/result/LINK_invent/BTK/process_docking_weight1_custom_sum_contain_oxygen_bond_distance_aromatic_linkinvent_7_9_3/rearranged_h_0123.sdf

> <i_m_source_file_index>
8

> <r_mmod_Potential_Energy-OPLS-2005>
-153.634033203125

> <r_mmod_Stretch_Energy-OPLS-2005>
31.9580421447754

> <r_mmod_Bend_Energy-OPLS-2005>
113.940353393555

> <r_mmod_Torsional_Energy-OPLS-2005>
332.388031005859

> <r_mmod_Improper_Torsional_Energy-OPLS-2005>
2.36447095870972

> <r_mmod_Van_der_Waal_Energy-OPLS-2005>
163.310791015625

> <r_mmod_Electrostatic_Energy-OPLS-2005>
-422.589691162109

> <r_mmod_Solvation_Energy-OPLS-2005>
-385.691040039062

> <b_mmod_Minimization_Converged-OPLS-2005>
0

> <r_mmod_RMS_Derivative-OPLS-2005>
3.25026106834412

$$$$
8
                    3D
 Structure written by MMmdl.
173182  0  0  1  0            999 V2000
  -30.8654  -14.2550   20.7640 C   0  0  0  0  0  0
  -30.3989  -12.2801   19.3787 C   0  0  0  0  0  0
  -29.4720  -12.5357   18.1828 C   0  0  0  0  0  0
  -28.0043  -12.3771   18.6085 C   0  0  0  0  0  0
  -27.6648  -13.2087   19.8721 C   0  0  2  0  0  0
  -28.7039  -12.9922   20.9961 C   0  0  0  0  0  0
  -25.2601  -13.8177   20.5664 C   0  0  0  0  0  0
  -24.1846  -13.0446   20.9149 C   0  0  0  0  0  0
  -24.6401  -11.6918   20.8711 C   0  0  0  0  0  0
  -23.9064  -10.4293   21.0389 C   0  0  0  0  0  0
  -24.3621   -9.4216   21.9173 C   0  0  0  0  0  0
  -23.6292   -8.2254   22.0761 C   0  0  0  0  0  0
  -22.4277   -8.0283   21.3545 C   0  0  0  0  0  0
  -21.9910   -9.0249   20.4638 C   0  0  0  0  0  0
  -22.7242  -10.2129   20.3036 C   0  0  0  0  0  0
  -21.6856   -6.0733   22.5281 C   0  0  0  0  0  0
  -21.4016   -6.5638   23.8214 C   0  0  0  0  0  0
  -21.3656   -5.6793   24.9169 C   0  0  0  0  0  0
  -21.6045   -4.3055   24.7229 C   0  0  0  0  0  0
  -21.8814   -3.8148   23.4347 C   0  0  0  0  0  0
  -21.9192   -4.6959   22.3407 C   0  0  0  0  0  0
  -22.7865  -13.5243   21.1820 C   0  0  0  0  0  0
  -22.1661   -4.2149   21.0980 F   0  0  0  0  0  0
  -21.5626   -3.4544   25.7739 F   0  0  0  0  0  0
  -30.0573  -13.2159   20.4565 N   0  0  0  0  0  0
  -26.3043  -12.9362   20.3359 N   0  0  0  0  0  0
  -25.9331  -11.6508   20.5740 N   0  0  0  0  0  0
  -22.0503  -12.8216   22.0362 N   0  0  0  0  0  0
  -25.4331  -15.1896   20.4091 N   0  0  0  0  0  0
  -31.7566  -14.6793   20.0223 O   0  0  0  0  0  0
  -21.6646   -6.8879   21.4244 O   0  0  0  0  0  0
  -22.3550  -14.5554   20.6685 O   0  0  0  0  0  0
  -24.6050  -31.8733   23.2126 C   0  0  0  0  0  0
  -25.8961  -32.4858   23.8423 C   0  0  1  0  0  0
  -27.2523  -27.5108   20.0833 C   0  0  0  0  0  0
  -25.5865  -33.8652   24.2370 N   0  0  0  0  0  0
  -23.3902  -30.4929   21.5548 C   0  0  2  0  0  0
  -24.8378  -28.9623   20.1224 C   0  0  0  0  0  0
  -22.7377  -29.4658   22.5059 C   0  0  0  0  0  0
  -18.0258  -28.1356   22.8490 C   0  0  0  0  0  0
  -24.1490  -36.7323   23.2634 C   0  0  0  0  0  0
  -25.9058  -30.8688   21.3433 C   0  0  0  0  0  0
  -25.9881  -29.4989   20.7123 C   0  0  0  0  0  0
  -27.1971  -28.7810   20.6943 C   0  0  0  0  0  0
  -26.0887  -26.9773   19.4914 C   0  0  0  0  0  0
  -24.8772  -27.6943   19.5152 C   0  0  0  0  0  0
  -23.5922  -29.8151   20.1718 C   0  0  0  0  0  0
  -25.4111  -36.3134   24.0353 C   0  0  1  0  0  0
  -20.5839  -28.3611   23.1367 C   0  0  2  0  0  0
  -20.6741  -26.9353   22.5426 C   0  0  0  0  0  0
  -19.5718  -26.6372   21.5219 C   0  0  0  0  0  0
  -18.1897  -26.7912   22.1618 C   0  0  0  0  0  0
  -19.1512  -28.8808   23.2924 C   0  0  0  0  0  0
  -18.9444  -30.1418   23.8918 C   0  0  0  0  0  0
  -17.6445  -30.6559   24.0552 C   0  0  0  0  0  0
  -25.9028  -34.9487   23.5168 C   0  0  0  0  0  0
  -16.5332  -29.9065   23.6304 C   0  0  0  0  0  0
  -16.7255  -28.6483   23.0335 C   0  0  0  0  0  0
  -26.4444  -31.6605   25.0699 C   0  0  0  0  0  0
  -25.3735  -31.3649   26.1459 C   0  0  0  0  0  0
  -27.0289  -30.3099   24.5940 C   0  0  0  0  0  0
  -27.6040  -32.4301   25.7478 C   0  0  0  0  0  0
  -27.5578  -37.1811   24.8463 C   0  0  0  0  0  0
  -21.4112  -29.2986   22.3806 N   0  0  0  0  0  0
  -26.4297  -37.3817   23.9417 N   0  0  0  0  0  0
  -24.6522  -31.0919   22.0976 N   0  0  0  0  0  0
  -23.4196  -28.8181   23.3043 O   0  0  0  0  0  0
  -28.4174  -26.7984   19.9600 O   0  0  0  0  0  0
  -26.5581  -34.8915   22.4716 O   0  0  0  0  0  0
  -23.5264  -32.1436   23.7568 O   0  0  0  0  0  0
  -30.0655  -25.2181   22.9016 C   0  0  0  0  0  0
  -30.1283  -23.9390   23.4873 C   0  0  0  0  0  0
  -28.8335  -24.2923   21.0208 C   0  0  0  0  0  0
  -29.4014  -25.4018   21.6760 C   0  0  0  0  0  0
  -28.9049  -23.0093   21.5942 C   0  0  0  0  0  0
  -29.5286  -22.8214   22.8496 C   0  0  0  0  0  0
  -31.9151  -19.7901   23.5646 C   0  0  0  0  0  0
  -29.7293  -18.7767   24.3771 C   0  0  0  0  0  0
  -31.6429  -21.0476   24.4105 C   0  0  0  0  0  0
  -29.4822  -20.0295   25.2355 C   0  0  0  0  0  0
  -31.2316  -18.5303   24.1376 C   0  0  1  0  0  0
  -30.1357  -21.2798   24.6276 C   0  0  2  0  0  0
  -28.3148  -21.8352   20.8367 C   0  0  0  0  0  0
  -29.3225  -26.7828   21.0596 C   0  0  0  0  0  0
  -32.0114  -15.0121   22.8175 C   0  0  0  0  0  0
  -31.6944  -16.0900   23.8637 C   0  0  0  0  0  0
  -30.8305  -14.5855   22.0607 N   0  0  0  0  0  0
  -31.4316  -17.3903   23.2177 N   0  3  0  0  0  0
  -29.4977  -21.5474   23.3799 O   0  0  0  0  0  0
  -31.4452  -12.3604   19.0759 H   0  0  0  0  0  0
  -30.2748  -11.2577   19.7394 H   0  0  0  0  0  0
  -29.7043  -11.8432   17.3725 H   0  0  0  0  0  0
  -29.6432  -13.5397   17.7900 H   0  0  0  0  0  0
  -27.8217  -11.3192   18.7980 H   0  0  0  0  0  0
  -27.3442  -12.6572   17.7868 H   0  0  0  0  0  0
  -27.7133  -14.2582   19.5803 H   0  0  0  0  0  0
  -28.6380  -11.9781   21.3935 H   0  0  0  0  0  0
  -28.4679  -13.6588   21.8271 H   0  0  0  0  0  0
  -25.2765   -9.5695   22.4745 H   0  0  0  0  0  0
  -23.9994   -7.4655   22.7492 H   0  0  0  0  0  0
  -21.0844   -8.8757   19.8946 H   0  0  0  0  0  0
  -22.3698  -10.9657   19.6134 H   0  0  0  0  0  0
  -21.2014   -7.6152   23.9713 H   0  0  0  0  0  0
  -21.1479   -6.0527   25.9072 H   0  0  0  0  0  0
  -22.0596   -2.7610   23.2849 H   0  0  0  0  0  0
  -22.4104  -11.9851   22.4715 H   0  0  0  0  0  0
  -21.1107  -13.1216   22.2558 H   0  0  0  0  0  0
  -24.6702  -15.8492   20.5186 H   0  0  0  0  0  0
  -26.2957  -15.6271   20.1116 H   0  0  0  0  0  0
  -26.7032  -32.5616   23.1208 H   0  0  0  0  0  0
  -25.0027  -33.9857   25.0528 H   0  0  0  0  0  0
  -22.6727  -31.3044   21.4139 H   0  0  0  0  0  0
  -23.3759  -35.9642   23.3313 H   0  0  0  0  0  0
  -24.3574  -36.8945   22.2036 H   0  0  0  0  0  0
  -23.7231  -37.6535   23.6640 H   0  0  0  0  0  0
  -25.9833  -31.6255   20.5607 H   0  0  0  0  0  0
  -26.8051  -30.9502   21.9418 H   0  0  0  0  0  0
  -28.0838  -29.2358   21.1078 H   0  0  0  0  0  0
  -26.1291  -26.0139   19.0007 H   0  0  0  0  0  0
  -23.9900  -27.2799   19.0536 H   0  0  0  0  0  0
  -23.6772  -30.5826   19.4015 H   0  0  0  0  0  0
  -22.7255  -29.2156   19.8884 H   0  0  0  0  0  0
  -25.1279  -36.2011   25.0849 H   0  0  0  0  0  0
  -20.9929  -28.3137   24.1495 H   0  0  0  0  0  0
  -20.5693  -26.2185   23.3588 H   0  0  0  0  0  0
  -21.6599  -26.7417   22.1168 H   0  0  0  0  0  0
  -19.6890  -25.6320   21.1174 H   0  0  0  0  0  0
  -19.6670  -27.3241   20.6798 H   0  0  0  0  0  0
  -17.4175  -26.6687   21.4001 H   0  0  0  0  0  0
  -18.0249  -26.0061   22.9009 H   0  0  0  0  0  0
  -19.7935  -30.7223   24.2280 H   0  0  0  0  0  0
  -17.4998  -31.6228   24.5164 H   0  0  0  0  0  0
  -15.5337  -30.2954   23.7628 H   0  0  0  0  0  0
  -15.8658  -28.0800   22.7037 H   0  0  0  0  0  0
  -24.5950  -30.6958   25.7786 H   0  0  0  0  0  0
  -24.8849  -32.2761   26.4906 H   0  0  0  0  0  0
  -25.8081  -30.8829   27.0223 H   0  0  0  0  0  0
  -26.2786  -29.6851   24.1070 H   0  0  0  0  0  0
  -27.4283  -29.7316   25.4286 H   0  0  0  0  0  0
  -27.8504  -30.4553   23.8918 H   0  0  0  0  0  0
  -27.2705  -33.3632   26.2034 H   0  0  0  0  0  0
  -28.3861  -32.6813   25.0298 H   0  0  0  0  0  0
  -28.0666  -31.8412   26.5417 H   0  0  0  0  0  0
  -28.2589  -38.0106   24.7521 H   0  0  0  0  0  0
  -28.1085  -36.2646   24.6288 H   0  0  0  0  0  0
  -27.2278  -37.1455   25.8857 H   0  0  0  0  0  0
  -20.9270  -29.8735   21.7057 H   0  0  0  0  0  0
  -26.0203  -38.2919   24.1392 H   0  0  0  0  0  0
  -30.5201  -26.0639   23.3992 H   0  0  0  0  0  0
  -30.6501  -23.8540   24.4283 H   0  0  0  0  0  0
  -28.3349  -24.4211   20.0697 H   0  0  0  0  0  0
  -32.9937  -19.6334   23.5087 H   0  0  0  0  0  0
  -31.5753  -19.9662   22.5429 H   0  0  0  0  0  0
  -29.2156  -18.9009   23.4229 H   0  0  0  0  0  0
  -29.2763  -17.9128   24.8644 H   0  0  0  0  0  0
  -32.0985  -21.9145   23.9334 H   0  0  0  0  0  0
  -32.1318  -20.9490   25.3790 H   0  0  0  0  0  0
  -29.8773  -19.8723   26.2409 H   0  0  0  0  0  0
  -28.4101  -20.1940   25.3559 H   0  0  0  0  0  0
  -31.7059  -18.3076   25.0957 H   0  0  0  0  0  0
  -29.9672  -22.0892   25.3382 H   0  0  0  0  0  0
  -27.9864  -22.1352   19.8401 H   0  0  0  0  0  0
  -27.4555  -21.4300   21.3692 H   0  0  0  0  0  0
  -29.0577  -21.0440   20.7201 H   0  0  0  0  0  0
  -30.3110  -27.0725   20.7027 H   0  0  0  0  0  0
  -29.0678  -27.4783   21.8579 H   0  0  0  0  0  0
  -32.4129  -14.1290   23.3170 H   0  0  0  0  0  0
  -32.8150  -15.3652   22.1663 H   0  0  0  0  0  0
  -32.5555  -16.1874   24.5277 H   0  0  0  0  0  0
  -30.8496  -15.7879   24.4848 H   0  0  0  0  0  0
  -30.0802  -14.1622   22.5889 H   0  0  0  0  0  0
  -32.2310  -17.5997   22.6427 H   0  0  0  0  0  0
  -30.6373  -17.3020   22.6060 H   0  0  0  0  0  0
  1 25  1  0  0  0
  1 30  2  0  0  0
  1 87  1  0  0  0
  2  3  1  0  0  0
  2 25  1  0  0  0
  2 90  1  0  0  0
  2 91  1  0  0  0
  3  4  1  0  0  0
  3 92  1  0  0  0
  3 93  1  0  0  0
  4  5  1  0  0  0
  4 94  1  0  0  0
  4 95  1  0  0  0
  5  6  1  0  0  0
  5 26  1  0  0  0
  5 96  1  0  0  0
  6 25  1  0  0  0
  6 97  1  0  0  0
  6 98  1  0  0  0
  7  8  2  0  0  0
  7 26  1  0  0  0
  7 29  1  0  0  0
  8  9  1  0  0  0
  8 22  1  0  0  0
  9 10  1  0  0  0
  9 27  2  0  0  0
 10 11  2  0  0  0
 10 15  1  0  0  0
 11 12  1  0  0  0
 11 99  1  0  0  0
 12 13  2  0  0  0
 12100  1  0  0  0
 13 14  1  0  0  0
 13 31  1  0  0  0
 14 15  2  0  0  0
 14101  1  0  0  0
 15102  1  0  0  0
 16 17  2  0  0  0
 16 21  1  0  0  0
 16 31  1  0  0  0
 17 18  1  0  0  0
 17103  1  0  0  0
 18 19  2  0  0  0
 18104  1  0  0  0
 19 20  1  0  0  0
 19 24  1  0  0  0
 20 21  2  0  0  0
 20105  1  0  0  0
 21 23  1  0  0  0
 22 28  1  0  0  0
 22 32  2  0  0  0
 26 27  1  0  0  0
 28106  1  0  0  0
 28107  1  0  0  0
 29108  1  0  0  0
 29109  1  0  0  0
 33 34  1  0  0  0
 33 66  1  0  0  0
 33 70  2  0  0  0
 34 36  1  0  0  0
 34 59  1  0  0  0
 34110  1  0  0  0
 35 44  2  0  0  0
 35 45  1  0  0  0
 35 68  1  0  0  0
 36 56  1  0  0  0
 36111  1  0  0  0
 37 39  1  0  0  0
 37 47  1  0  0  0
 37 66  1  0  0  0
 37112  1  0  0  0
 38 43  2  0  0  0
 38 46  1  0  0  0
 38 47  1  0  0  0
 39 64  1  0  0  0
 39 67  2  0  0  0
 40 52  1  0  0  0
 40 53  2  0  0  0
 40 58  1  0  0  0
 41113  1  0  0  0
 41114  1  0  0  0
 41115  1  0  0  0
 41 48  1  0  0  0
 42 43  1  0  0  0
 42 66  1  0  0  0
 42116  1  0  0  0
 42117  1  0  0  0
 43 44  1  0  0  0
 44118  1  0  0  0
 45 46  2  0  0  0
 45119  1  0  0  0
 46120  1  0  0  0
 47121  1  0  0  0
 47122  1  0  0  0
 48 56  1  0  0  0
 48 65  1  0  0  0
 48123  1  0  0  0
 49 50  1  0  0  0
 49 53  1  0  0  0
 49 64  1  0  0  0
 49124  1  0  0  0
 50 51  1  0  0  0
 50125  1  0  0  0
 50126  1  0  0  0
 51 52  1  0  0  0
 51127  1  0  0  0
 51128  1  0  0  0
 52129  1  0  0  0
 52130  1  0  0  0
 53 54  1  0  0  0
 54 55  2  0  0  0
 54131  1  0  0  0
 55 57  1  0  0  0
 55132  1  0  0  0
 56 69  2  0  0  0
 57 58  2  0  0  0
 57133  1  0  0  0
 58134  1  0  0  0
 59 60  1  0  0  0
 59 61  1  0  0  0
 59 62  1  0  0  0
 60135  1  0  0  0
 60136  1  0  0  0
 60137  1  0  0  0
 61138  1  0  0  0
 61139  1  0  0  0
 61140  1  0  0  0
 62141  1  0  0  0
 62142  1  0  0  0
 62143  1  0  0  0
 63 65  1  0  0  0
 63144  1  0  0  0
 63145  1  0  0  0
 63146  1  0  0  0
 64147  1  0  0  0
 65148  1  0  0  0
 68 84  1  0  0  0
 71 72  2  0  0  0
 71 74  1  0  0  0
 71149  1  0  0  0
 72 76  1  0  0  0
 72150  1  0  0  0
 73 74  2  0  0  0
 73 75  1  0  0  0
 73151  1  0  0  0
 74 84  1  0  0  0
 75 76  2  0  0  0
 75 83  1  0  0  0
 76 89  1  0  0  0
 77 79  1  0  0  0
 77 81  1  0  0  0
 77152  1  0  0  0
 77153  1  0  0  0
 78 80  1  0  0  0
 78 81  1  0  0  0
 78154  1  0  0  0
 78155  1  0  0  0
 79 82  1  0  0  0
 79156  1  0  0  0
 79157  1  0  0  0
 80 82  1  0  0  0
 80158  1  0  0  0
 80159  1  0  0  0
 81 88  1  0  0  0
 81160  1  0  0  0
 82 89  1  0  0  0
 82161  1  0  0  0
 83162  1  0  0  0
 83163  1  0  0  0
 83164  1  0  0  0
 84165  1  0  0  0
 84166  1  0  0  0
 85 86  1  0  0  0
 85 87  1  0  0  0
 85167  1  0  0  0
 85168  1  0  0  0
 86 88  1  0  0  0
 86169  1  0  0  0
 86170  1  0  0  0
 87171  1  0  0  0
 88172  1  0  0  0
 88173  1  0  0  0
M  CHG  1  88   1
M  ISO  4   1 100  68 101  84 101  87 100
M  END
> <chiral flag>
0

> <version>
0

> <s_m_source_file>
/data/baiqing/PycharmProjects/Reinvent-master-3.2/result/LINK_invent/BTK/process_docking_weight1_custom_sum_contain_oxygen_bond_distance_aromatic_linkinvent_7_9_3/rearranged_h_0123.sdf

> <i_m_source_file_index>
9

> <r_mmod_Potential_Energy-OPLS-2005>
-212.321792602539

> <r_mmod_Stretch_Energy-OPLS-2005>
31.4250202178955

> <r_mmod_Bend_Energy-OPLS-2005>
100.971473693848

> <r_mmod_Torsional_Energy-OPLS-2005>
290.928375244141

> <r_mmod_Improper_Torsional_Energy-OPLS-2005>
8.56325817108154

> <r_mmod_Van_der_Waal_Energy-OPLS-2005>
163.783477783203

> <r_mmod_Electrostatic_Energy-OPLS-2005>
-360.10693359375

> <r_mmod_Solvation_Energy-OPLS-2005>
-457.308013916016

> <b_mmod_Minimization_Converged-OPLS-2005>
0

> <r_mmod_RMS_Derivative-OPLS-2005>
3.34444451332092

$$$$
9
                    3D
 Structure written by MMmdl.
163172  0  0  1  0            999 V2000
  -30.5874  -14.8949   20.4253 C   0  0  0  0  0  0
  -30.4265  -12.5513   19.4962 C   0  0  0  0  0  0
  -29.5128  -12.5236   18.2512 C   0  0  0  0  0  0
  -28.0431  -12.3284   18.6675 C   0  0  0  0  0  0
  -27.6295  -13.2528   19.8434 C   0  0  2  0  0  0
  -28.6732  -13.2728   20.9804 C   0  0  0  0  0  0
  -25.2458  -13.8237   20.5741 C   0  0  0  0  0  0
  -24.1771  -13.0453   20.9238 C   0  0  0  0  0  0
  -24.6396  -11.6941   20.8758 C   0  0  0  0  0  0
  -23.9082  -10.4300   21.0401 C   0  0  0  0  0  0
  -24.3624   -9.4209   21.9176 C   0  0  0  0  0  0
  -23.6308   -8.2238   22.0740 C   0  0  0  0  0  0
  -22.4287   -8.0277   21.3533 C   0  0  0  0  0  0
  -21.9924   -9.0249   20.4636 C   0  0  0  0  0  0
  -22.7251  -10.2135   20.3046 C   0  0  0  0  0  0
  -21.6856   -6.0734   22.5274 C   0  0  0  0  0  0
  -21.4010   -6.5630   23.8210 C   0  0  0  0  0  0
  -21.3669   -5.6785   24.9174 C   0  0  0  0  0  0
  -21.6052   -4.3048   24.7219 C   0  0  0  0  0  0
  -21.8820   -3.8141   23.4342 C   0  0  0  0  0  0
  -21.9193   -4.6958   22.3399 C   0  0  0  0  0  0
  -22.7792  -13.5216   21.1904 C   0  0  0  0  0  0
  -22.1666   -4.2137   21.0982 F   0  0  0  0  0  0
  -21.5639   -3.4536   25.7737 F   0  0  0  0  0  0
  -29.9520  -13.6586   20.3742 N   0  0  0  0  0  0
  -26.2886  -12.9479   20.3289 N   0  0  0  0  0  0
  -25.9328  -11.6603   20.5755 N   0  0  0  0  0  0
  -22.0442  -12.8194   22.0447 N   0  0  0  0  0  0
  -25.4155  -15.1959   20.4171 N   0  0  0  0  0  0
  -31.7888  -14.9140   20.1335 O   0  0  0  0  0  0
  -21.6641   -6.8882   21.4238 O   0  0  0  0  0  0
  -22.3478  -14.5525   20.6757 O   0  0  0  0  0  0
  -24.6423  -31.8462   23.1909 C   0  0  0  0  0  0
  -25.9205  -32.4705   23.8288 C   0  0  1  0  0  0
  -27.2130  -27.1528   20.1436 C   0  0  0  0  0  0
  -25.5963  -33.8513   24.2204 N   0  0  0  0  0  0
  -23.4445  -30.4669   21.5365 C   0  0  2  0  0  0
  -24.8927  -28.9003   20.1102 C   0  0  0  0  0  0
  -22.7562  -29.4551   22.4874 C   0  0  0  0  0  0
  -18.0303  -28.1391   22.8475 C   0  0  0  0  0  0
  -24.1491  -36.7258   23.2641 C   0  0  0  0  0  0
  -26.0004  -30.7248   21.3878 C   0  0  0  0  0  0
  -26.0712  -29.3388   20.7267 C   0  0  0  0  0  0
  -27.2338  -28.4815   20.7278 C   0  0  0  0  0  0
  -26.0070  -26.8162   19.4876 C   0  0  0  0  0  0
  -24.8726  -27.6511   19.4752 C   0  0  0  0  0  0
  -23.6689  -29.7993   20.1548 C   0  0  0  0  0  0
  -25.4120  -36.3038   24.0319 C   0  0  1  0  0  0
  -20.5912  -28.3714   23.1232 C   0  0  2  0  0  0
  -20.6787  -26.9415   22.5402 C   0  0  0  0  0  0
  -19.5765  -26.6370   21.5209 C   0  0  0  0  0  0
  -18.1945  -26.7929   22.1615 C   0  0  0  0  0  0
  -19.1562  -28.8871   23.2841 C   0  0  0  0  0  0
  -18.9476  -30.1469   23.8863 C   0  0  0  0  0  0
  -17.6477  -30.6588   24.0553 C   0  0  0  0  0  0
  -25.9071  -34.9418   23.5071 C   0  0  0  0  0  0
  -16.5363  -29.9082   23.6340 C   0  0  0  0  0  0
  -16.7289  -28.6501   23.0356 C   0  0  0  0  0  0
  -26.4523  -31.6573   25.0728 C   0  0  0  0  0  0
  -25.3711  -31.3767   26.1430 C   0  0  0  0  0  0
  -27.0392  -30.2968   24.6315 C   0  0  0  0  0  0
  -27.6054  -32.4340   25.7517 C   0  0  0  0  0  0
  -27.5582  -37.1779   24.8459 C   0  0  0  0  0  0
  -21.4256  -29.3048   22.3616 N   0  0  0  0  0  0
  -26.4279  -37.3754   23.9418 N   0  0  0  0  0  0
  -24.7157  -31.0332   22.0930 N   0  0  0  0  0  0
  -23.4220  -28.8102   23.3012 O   0  0  0  0  0  0
  -28.2566  -26.1620   20.2212 O   0  0  0  0  0  0
  -26.5654  -34.8909   22.4645 O   0  0  0  0  0  0
  -23.5550  -32.1326   23.7134 O   0  0  0  0  0  0
  -31.1399  -22.5977   20.9462 C   0  0  0  0  0  0
  -30.2258  -23.6454   20.6998 C   0  0  0  0  0  0
  -30.7846  -21.2343   20.8305 C   0  0  0  0  0  0
  -28.8934  -23.3818   20.3321 C   0  0  0  0  0  0
  -28.5435  -21.9360   20.2274 C   0  0  0  0  0  0
  -29.4870  -20.8084   20.4623 C   0  0  0  0  0  0
  -30.0718  -18.6175   19.3317 C   0  0  0  0  0  0
  -29.5003  -18.4967   21.5741 C   0  0  0  0  0  0
  -29.8717  -17.0305   19.1654 C   0  0  0  0  0  0
  -29.2494  -16.9011   21.4838 C   0  0  0  0  0  0
  -24.8711  -21.6143   20.6387 C   0  0  0  0  0  0
  -27.9086  -24.6608   20.0503 C   0  0  0  0  0  0
  -27.1064  -21.6028   19.8624 C   0  0  0  0  0  0
  -29.2675  -19.3366   20.3589 N   0  0  0  0  0  0
  -29.8535  -16.1142   20.3580 N   0  0  0  0  0  0
  -26.2105  -22.0115   20.8885 O   0  0  0  0  0  0
  -31.4647  -12.6794   19.1877 H   0  0  0  0  0  0
  -30.3919  -11.5969   20.0250 H   0  0  0  0  0  0
  -29.8196  -11.7258   17.5734 H   0  0  0  0  0  0
  -29.6182  -13.4568   17.6947 H   0  0  0  0  0  0
  -27.9208  -11.2853   18.9609 H   0  0  0  0  0  0
  -27.3811  -12.4808   17.8145 H   0  0  0  0  0  0
  -27.5982  -14.2607   19.4284 H   0  0  0  0  0  0
  -28.7459  -12.3005   21.4699 H   0  0  0  0  0  0
  -28.3861  -13.9909   21.7505 H   0  0  0  0  0  0
  -25.2757   -9.5696   22.4767 H   0  0  0  0  0  0
  -24.0020   -7.4623   22.7447 H   0  0  0  0  0  0
  -21.0854   -8.8759   19.8945 H   0  0  0  0  0  0
  -22.3689  -10.9668   19.6161 H   0  0  0  0  0  0
  -21.1992   -7.6137   23.9717 H   0  0  0  0  0  0
  -21.1503   -6.0509   25.9084 H   0  0  0  0  0  0
  -22.0597   -2.7603   23.2833 H   0  0  0  0  0  0
  -22.4066  -11.9857   22.4833 H   0  0  0  0  0  0
  -21.1056  -13.1211   22.2654 H   0  0  0  0  0  0
  -24.6539  -15.8542   20.5372 H   0  0  0  0  0  0
  -26.2747  -15.6346   20.1105 H   0  0  0  0  0  0
  -26.7270  -32.5314   23.1021 H   0  0  0  0  0  0
  -25.0095  -33.9625   25.0342 H   0  0  0  0  0  0
  -22.7466  -31.2928   21.3843 H   0  0  0  0  0  0
  -23.3769  -35.9574   23.3274 H   0  0  0  0  0  0
  -24.3578  -36.8917   22.2060 H   0  0  0  0  0  0
  -23.7225  -37.6439   23.6691 H   0  0  0  0  0  0
  -26.1561  -31.4808   20.6172 H   0  0  0  0  0  0
  -26.8710  -30.7713   22.0303 H   0  0  0  0  0  0
  -28.1303  -28.8106   21.2341 H   0  0  0  0  0  0
  -25.8952  -25.8644   18.9925 H   0  0  0  0  0  0
  -23.9727  -27.3098   18.9824 H   0  0  0  0  0  0
  -23.8030  -30.5741   19.3989 H   0  0  0  0  0  0
  -22.7842  -29.2394   19.8461 H   0  0  0  0  0  0
  -25.1306  -36.1865   25.0810 H   0  0  0  0  0  0
  -21.0001  -28.3298   24.1355 H   0  0  0  0  0  0
  -20.5673  -26.2328   23.3622 H   0  0  0  0  0  0
  -21.6655  -26.7418   22.1204 H   0  0  0  0  0  0
  -19.6924  -25.6275   21.1262 H   0  0  0  0  0  0
  -19.6707  -27.3161   20.6722 H   0  0  0  0  0  0
  -17.4216  -26.6672   21.4016 H   0  0  0  0  0  0
  -18.0338  -26.0076   22.9014 H   0  0  0  0  0  0
  -19.7956  -30.7292   24.2212 H   0  0  0  0  0  0
  -17.5032  -31.6267   24.5159 H   0  0  0  0  0  0
  -15.5364  -30.2968   23.7689 H   0  0  0  0  0  0
  -15.8686  -28.0811   22.7083 H   0  0  0  0  0  0
  -24.5875  -30.7136   25.7749 H   0  0  0  0  0  0
  -24.8916  -32.2954   26.4816 H   0  0  0  0  0  0
  -25.7991  -30.8957   27.0236 H   0  0  0  0  0  0
  -26.3015  -29.6691   24.1302 H   0  0  0  0  0  0
  -27.3980  -29.7267   25.4897 H   0  0  0  0  0  0
  -27.8933  -30.4203   23.9651 H   0  0  0  0  0  0
  -27.2642  -33.3652   26.2052 H   0  0  0  0  0  0
  -28.3887  -32.6887   25.0367 H   0  0  0  0  0  0
  -28.0701  -31.8498   26.5470 H   0  0  0  0  0  0
  -28.2569  -38.0103   24.7544 H   0  0  0  0  0  0
  -28.1103  -36.2639   24.6236 H   0  0  0  0  0  0
  -27.2310  -37.1366   25.8859 H   0  0  0  0  0  0
  -20.9466  -29.8769   21.6803 H   0  0  0  0  0  0
  -26.0151  -38.2819   24.1441 H   0  0  0  0  0  0
  -32.1528  -22.8462   21.2314 H   0  0  0  0  0  0
  -30.5572  -24.6707   20.7962 H   0  0  0  0  0  0
  -31.5532  -20.5018   21.0321 H   0  0  0  0  0  0
  -29.8791  -19.0869   18.3649 H   0  0  0  0  0  0
  -31.1285  -18.8021   19.5303 H   0  0  0  0  0  0
  -30.5297  -18.6481   21.9024 H   0  0  0  0  0  0
  -28.8853  -18.8972   22.3819 H   0  0  0  0  0  0
  -30.6158  -16.6697   18.4534 H   0  0  0  0  0  0
  -28.9163  -16.8709   18.6639 H   0  0  0  0  0  0
  -28.1737  -16.7334   21.4286 H   0  0  0  0  0  0
  -29.5623  -16.4468   22.4261 H   0  0  0  0  0  0
  -24.2219  -22.0015   21.4246 H   0  0  0  0  0  0
  -24.7788  -20.5271   20.6364 H   0  0  0  0  0  0
  -24.5084  -21.9987   19.6843 H   0  0  0  0  0  0
  -27.0152  -24.4813   20.6481 H   0  0  0  0  0  0
  -27.6067  -24.5312   19.0112 H   0  0  0  0  0  0
  -27.0012  -20.5332   19.6771 H   0  0  0  0  0  0
  -26.8543  -22.1066   18.9279 H   0  0  0  0  0  0
  1 25  1  0  0  0
  1 30  2  0  0  0
  1 85  1  0  0  0
  2  3  1  0  0  0
  2 25  1  0  0  0
  2 87  1  0  0  0
  2 88  1  0  0  0
  3  4  1  0  0  0
  3 89  1  0  0  0
  3 90  1  0  0  0
  4  5  1  0  0  0
  4 91  1  0  0  0
  4 92  1  0  0  0
  5  6  1  0  0  0
  5 26  1  0  0  0
  5 93  1  0  0  0
  6 25  1  0  0  0
  6 94  1  0  0  0
  6 95  1  0  0  0
  7  8  2  0  0  0
  7 26  1  0  0  0
  7 29  1  0  0  0
  8  9  1  0  0  0
  8 22  1  0  0  0
  9 10  1  0  0  0
  9 27  2  0  0  0
 10 11  2  0  0  0
 10 15  1  0  0  0
 11 12  1  0  0  0
 11 96  1  0  0  0
 12 13  2  0  0  0
 12 97  1  0  0  0
 13 14  1  0  0  0
 13 31  1  0  0  0
 14 15  2  0  0  0
 14 98  1  0  0  0
 15 99  1  0  0  0
 16 17  2  0  0  0
 16 21  1  0  0  0
 16 31  1  0  0  0
 17 18  1  0  0  0
 17100  1  0  0  0
 18 19  2  0  0  0
 18101  1  0  0  0
 19 20  1  0  0  0
 19 24  1  0  0  0
 20 21  2  0  0  0
 20102  1  0  0  0
 21 23  1  0  0  0
 22 28  1  0  0  0
 22 32  2  0  0  0
 26 27  1  0  0  0
 28103  1  0  0  0
 28104  1  0  0  0
 29105  1  0  0  0
 29106  1  0  0  0
 33 34  1  0  0  0
 33 66  1  0  0  0
 33 70  2  0  0  0
 34 36  1  0  0  0
 34 59  1  0  0  0
 34107  1  0  0  0
 35 44  2  0  0  0
 35 45  1  0  0  0
 35 68  1  0  0  0
 36 56  1  0  0  0
 36108  1  0  0  0
 37 39  1  0  0  0
 37 47  1  0  0  0
 37 66  1  0  0  0
 37109  1  0  0  0
 38 43  2  0  0  0
 38 46  1  0  0  0
 38 47  1  0  0  0
 39 64  1  0  0  0
 39 67  2  0  0  0
 40 52  1  0  0  0
 40 53  2  0  0  0
 40 58  1  0  0  0
 41110  1  0  0  0
 41111  1  0  0  0
 41112  1  0  0  0
 41 48  1  0  0  0
 42 43  1  0  0  0
 42 66  1  0  0  0
 42113  1  0  0  0
 42114  1  0  0  0
 43 44  1  0  0  0
 44115  1  0  0  0
 45 46  2  0  0  0
 45116  1  0  0  0
 46117  1  0  0  0
 47118  1  0  0  0
 47119  1  0  0  0
 48 56  1  0  0  0
 48 65  1  0  0  0
 48120  1  0  0  0
 49 50  1  0  0  0
 49 53  1  0  0  0
 49 64  1  0  0  0
 49121  1  0  0  0
 50 51  1  0  0  0
 50122  1  0  0  0
 50123  1  0  0  0
 51 52  1  0  0  0
 51124  1  0  0  0
 51125  1  0  0  0
 52126  1  0  0  0
 52127  1  0  0  0
 53 54  1  0  0  0
 54 55  2  0  0  0
 54128  1  0  0  0
 55 57  1  0  0  0
 55129  1  0  0  0
 56 69  2  0  0  0
 57 58  2  0  0  0
 57130  1  0  0  0
 58131  1  0  0  0
 59 60  1  0  0  0
 59 61  1  0  0  0
 59 62  1  0  0  0
 60132  1  0  0  0
 60133  1  0  0  0
 60134  1  0  0  0
 61135  1  0  0  0
 61136  1  0  0  0
 61137  1  0  0  0
 62138  1  0  0  0
 62139  1  0  0  0
 62140  1  0  0  0
 63 65  1  0  0  0
 63141  1  0  0  0
 63142  1  0  0  0
 63143  1  0  0  0
 64144  1  0  0  0
 65145  1  0  0  0
 68 82  1  0  0  0
 71 72  2  0  0  0
 71 73  1  0  0  0
 71146  1  0  0  0
 72 74  1  0  0  0
 72147  1  0  0  0
 73 76  2  0  0  0
 73148  1  0  0  0
 74 75  2  0  0  0
 74 82  1  0  0  0
 75 76  1  0  0  0
 75 83  1  0  0  0
 76 84  1  0  0  0
 77 79  1  0  0  0
 77 84  1  0  0  0
 77149  1  0  0  0
 77150  1  0  0  0
 78 80  1  0  0  0
 78 84  1  0  0  0
 78151  1  0  0  0
 78152  1  0  0  0
 79 85  1  0  0  0
 79153  1  0  0  0
 79154  1  0  0  0
 80 85  1  0  0  0
 80155  1  0  0  0
 80156  1  0  0  0
 81 86  1  0  0  0
 81157  1  0  0  0
 81158  1  0  0  0
 81159  1  0  0  0
 82160  1  0  0  0
 82161  1  0  0  0
 83 86  1  0  0  0
 83162  1  0  0  0
 83163  1  0  0  0
M  ISO  4   1 100  68 101  82 101  85 100
M  END
> <chiral flag>
0

> <version>
0

> <s_m_source_file>
/data/baiqing/PycharmProjects/Reinvent-master-3.2/result/LINK_invent/BTK/process_docking_weight1_custom_sum_contain_oxygen_bond_distance_aromatic_linkinvent_7_9_3/rearranged_h_0123.sdf

> <i_m_source_file_index>
10

> <r_mmod_Potential_Energy-OPLS-2005>
636.37548828125

> <r_mmod_Stretch_Energy-OPLS-2005>
207.261779785156

> <r_mmod_Bend_Energy-OPLS-2005>
232.519119262695

> <r_mmod_Torsional_Energy-OPLS-2005>
385.310821533203

> <r_mmod_Improper_Torsional_Energy-OPLS-2005>
19.8211841583252

> <r_mmod_Van_der_Waal_Energy-OPLS-2005>
134.665817260742

> <r_mmod_Electrostatic_Energy-OPLS-2005>
-297.726623535156

> <r_mmod_Solvation_Energy-OPLS-2005>
-213.435119628906

> <b_mmod_Minimization_Converged-OPLS-2005>
0

> <r_mmod_RMS_Derivative-OPLS-2005>
1.52136206626892

$$$$
10
                    3D
 Structure written by MMmdl.
169177  0  0  1  0            999 V2000
  -30.7342  -14.4186   20.6427 C   0  0  0  0  0  0
  -30.4212  -12.3070   19.4020 C   0  0  0  0  0  0
  -29.4882  -12.5178   18.1940 C   0  0  0  0  0  0
  -28.0115  -12.3713   18.6105 C   0  0  0  0  0  0
  -27.6615  -13.2041   19.8728 C   0  0  2  0  0  0
  -28.7006  -12.9632   20.9891 C   0  0  0  0  0  0
  -25.2583  -13.8156   20.5671 C   0  0  0  0  0  0
  -24.1833  -13.0440   20.9175 C   0  0  0  0  0  0
  -24.6384  -11.6907   20.8728 C   0  0  0  0  0  0
  -23.9053  -10.4293   21.0400 C   0  0  0  0  0  0
  -24.3605   -9.4212   21.9182 C   0  0  0  0  0  0
  -23.6286   -8.2244   22.0750 C   0  0  0  0  0  0
  -22.4267   -8.0281   21.3545 C   0  0  0  0  0  0
  -21.9899   -9.0253   20.4648 C   0  0  0  0  0  0
  -22.7225  -10.2135   20.3053 C   0  0  0  0  0  0
  -21.6853   -6.0735   22.5279 C   0  0  0  0  0  0
  -21.4012   -6.5638   23.8212 C   0  0  0  0  0  0
  -21.3661   -5.6793   24.9176 C   0  0  0  0  0  0
  -21.6045   -4.3056   24.7225 C   0  0  0  0  0  0
  -21.8821   -3.8149   23.4346 C   0  0  0  0  0  0
  -21.9191   -4.6963   22.3403 C   0  0  0  0  0  0
  -22.7857  -13.5242   21.1849 C   0  0  0  0  0  0
  -22.1661   -4.2147   21.0982 F   0  0  0  0  0  0
  -21.5630   -3.4542   25.7739 F   0  0  0  0  0  0
  -30.0358  -13.2699   20.4440 N   0  0  0  0  0  0
  -26.3013  -12.9324   20.3341 N   0  0  0  0  0  0
  -25.9306  -11.6486   20.5735 N   0  0  0  0  0  0
  -22.0494  -12.8236   22.0405 N   0  0  0  0  0  0
  -25.4316  -15.1873   20.4089 N   0  0  0  0  0  0
  -31.8164  -14.6556   20.0983 O   0  0  0  0  0  0
  -21.6638   -6.8876   21.4241 O   0  0  0  0  0  0
  -22.3551  -14.5550   20.6701 O   0  0  0  0  0  0
  -24.6147  -31.8688   23.2098 C   0  0  0  0  0  0
  -25.9047  -32.4818   23.8396 C   0  0  1  0  0  0
  -27.2327  -27.4468   20.0969 C   0  0  0  0  0  0
  -25.5917  -33.8616   24.2349 N   0  0  0  0  0  0
  -23.4022  -30.4917   21.5485 C   0  0  2  0  0  0
  -24.8496  -28.9549   20.1158 C   0  0  0  0  0  0
  -22.7405  -29.4678   22.4987 C   0  0  0  0  0  0
  -18.0275  -28.1384   22.8490 C   0  0  0  0  0  0
  -24.1485  -36.7315   23.2635 C   0  0  0  0  0  0
  -25.9287  -30.8385   21.3594 C   0  0  0  0  0  0
  -26.0084  -29.4725   20.7091 C   0  0  0  0  0  0
  -27.2074  -28.7255   20.6957 C   0  0  0  0  0  0
  -26.0612  -26.9342   19.5052 C   0  0  0  0  0  0
  -24.8692  -27.6836   19.5121 C   0  0  0  0  0  0
  -23.6097  -29.8199   20.1644 C   0  0  0  0  0  0
  -25.4101  -36.3114   24.0344 C   0  0  1  0  0  0
  -20.5862  -28.3672   23.1303 C   0  0  2  0  0  0
  -20.6761  -26.9406   22.5404 C   0  0  0  0  0  0
  -19.5739  -26.6389   21.5203 C   0  0  0  0  0  0
  -18.1923  -26.7926   22.1627 C   0  0  0  0  0  0
  -19.1526  -28.8844   23.2890 C   0  0  0  0  0  0
  -18.9453  -30.1451   23.8896 C   0  0  0  0  0  0
  -17.6456  -30.6585   24.0563 C   0  0  0  0  0  0
  -25.9032  -34.9474   23.5143 C   0  0  0  0  0  0
  -16.5344  -29.9087   23.6322 C   0  0  0  0  0  0
  -16.7262  -28.6509   23.0341 C   0  0  0  0  0  0
  -26.4478  -31.6589   25.0719 C   0  0  0  0  0  0
  -25.3759  -31.3689   26.1487 C   0  0  0  0  0  0
  -27.0295  -30.3028   24.6090 C   0  0  0  0  0  0
  -27.6072  -32.4294   25.7472 C   0  0  0  0  0  0
  -27.5582  -37.1805   24.8461 C   0  0  0  0  0  0
  -21.4137  -29.3040   22.3716 N   0  0  0  0  0  0
  -26.4291  -37.3802   23.9413 N   0  0  0  0  0  0
  -24.6667  -31.0807   22.0980 N   0  0  0  0  0  0
  -23.4182  -28.8238   23.3040 O   0  0  0  0  0  0
  -28.3810  -26.6934   20.0783 O   0  0  0  0  0  0
  -26.5582  -34.8924   22.4699 O   0  0  0  0  0  0
  -23.5343  -32.1445   23.7501 O   0  0  0  0  0  0
  -28.9246  -22.6839   18.7730 C   0  0  0  0  0  0
  -28.9478  -24.0822   19.0129 C   0  0  0  0  0  0
  -28.5101  -22.0532   19.9135 C   0  0  0  0  0  0
  -28.5378  -24.3059   20.2972 C   0  0  0  0  0  0
  -29.5913  -25.9028   21.9684 C   0  0  0  0  0  0
  -28.6460  -21.8999   23.0803 C   0  0  0  0  0  0
  -26.2754  -22.5171   22.2750 C   0  0  0  0  0  0
  -28.3128  -20.5654   20.1152 C   0  0  0  0  0  0
  -30.7955  -17.7587   21.0948 C   0  0  0  0  0  0
  -30.7939  -16.5118   22.0160 C   0  0  0  0  0  0
  -29.4364  -18.4823   20.9348 C   0  0  0  0  0  0
  -28.4059  -25.6243   21.0357 C   0  0  1  0  0  0
  -27.7751  -22.8571   22.2494 C   0  0  0  0  0  0
  -28.2686  -23.0519   20.8745 N   0  0  0  0  0  0
  -30.1569  -15.3121   21.4617 N   0  0  0  0  0  0
  -29.5836  -19.8511   20.3707 N   0  3  0  0  0  0
  -31.4637  -12.4148   19.0977 H   0  0  0  0  0  0
  -30.3291  -11.2892   19.7836 H   0  0  0  0  0  0
  -29.7271  -11.8035   17.4049 H   0  0  0  0  0  0
  -29.6541  -13.5092   17.7695 H   0  0  0  0  0  0
  -27.8249  -11.3140   18.8018 H   0  0  0  0  0  0
  -27.3582  -12.6484   17.7825 H   0  0  0  0  0  0
  -27.7136  -14.2553   19.5883 H   0  0  0  0  0  0
  -28.6723  -11.9203   21.3083 H   0  0  0  0  0  0
  -28.4493  -13.5402   21.8795 H   0  0  0  0  0  0
  -25.2750   -9.5694   22.4757 H   0  0  0  0  0  0
  -24.0000   -7.4635   22.7464 H   0  0  0  0  0  0
  -21.0830   -8.8773   19.8956 H   0  0  0  0  0  0
  -22.3682  -10.9672   19.6159 H   0  0  0  0  0  0
  -21.2002   -7.6148   23.9714 H   0  0  0  0  0  0
  -21.1483   -6.0525   25.9078 H   0  0  0  0  0  0
  -22.0599   -2.7610   23.2848 H   0  0  0  0  0  0
  -22.4096  -11.9896   22.4800 H   0  0  0  0  0  0
  -21.1108  -13.1263   22.2593 H   0  0  0  0  0  0
  -24.6664  -15.8443   20.5128 H   0  0  0  0  0  0
  -26.2877  -15.6225   20.0894 H   0  0  0  0  0  0
  -26.7130  -32.5536   23.1171 H   0  0  0  0  0  0
  -25.0106  -33.9765   25.0521 H   0  0  0  0  0  0
  -22.6912  -31.3087   21.4081 H   0  0  0  0  0  0
  -23.3753  -35.9640   23.3286 H   0  0  0  0  0  0
  -24.3596  -36.8936   22.2056 H   0  0  0  0  0  0
  -23.7223  -37.6515   23.6643 H   0  0  0  0  0  0
  -26.0387  -31.6050   20.5915 H   0  0  0  0  0  0
  -26.8167  -30.8937   21.9773 H   0  0  0  0  0  0
  -28.1058  -29.1201   21.1492 H   0  0  0  0  0  0
  -26.0745  -25.9562   19.0441 H   0  0  0  0  0  0
  -23.9776  -27.2780   19.0547 H   0  0  0  0  0  0
  -23.7142  -30.5919   19.4013 H   0  0  0  0  0  0
  -22.7350  -29.2360   19.8732 H   0  0  0  0  0  0
  -25.1275  -36.1984   25.0835 H   0  0  0  0  0  0
  -20.9953  -28.3238   24.1428 H   0  0  0  0  0  0
  -20.5659  -26.2283   23.3597 H   0  0  0  0  0  0
  -21.6629  -26.7443   22.1195 H   0  0  0  0  0  0
  -19.6884  -25.6302   21.1230 H   0  0  0  0  0  0
  -19.6673  -27.3202   20.6736 H   0  0  0  0  0  0
  -17.4184  -26.6668   21.4039 H   0  0  0  0  0  0
  -18.0338  -26.0070   22.9035 H   0  0  0  0  0  0
  -19.7930  -30.7266   24.2261 H   0  0  0  0  0  0
  -17.5011  -31.6258   24.5179 H   0  0  0  0  0  0
  -15.5344  -30.2987   23.7642 H   0  0  0  0  0  0
  -15.8670  -28.0822   22.7043 H   0  0  0  0  0  0
  -24.5905  -30.7075   25.7814 H   0  0  0  0  0  0
  -24.8988  -32.2844   26.4996 H   0  0  0  0  0  0
  -25.8132  -30.8805   27.0204 H   0  0  0  0  0  0
  -26.2824  -29.6797   24.1164 H   0  0  0  0  0  0
  -27.4076  -29.7271   25.4545 H   0  0  0  0  0  0
  -27.8658  -30.4333   23.9222 H   0  0  0  0  0  0
  -27.2716  -33.3588   26.2082 H   0  0  0  0  0  0
  -28.3867  -32.6859   25.0283 H   0  0  0  0  0  0
  -28.0759  -31.8391   26.5358 H   0  0  0  0  0  0
  -28.2584  -38.0118   24.7546 H   0  0  0  0  0  0
  -28.1098  -36.2658   24.6241 H   0  0  0  0  0  0
  -27.2312  -37.1398   25.8866 H   0  0  0  0  0  0
  -20.9309  -29.8775   21.6945 H   0  0  0  0  0  0
  -26.0188  -38.2873   24.1444 H   0  0  0  0  0  0
  -29.1812  -22.1886   17.8459 H   0  0  0  0  0  0
  -29.2312  -24.8550   18.3114 H   0  0  0  0  0  0
  -29.4549  -26.8453   22.4986 H   0  0  0  0  0  0
  -30.5216  -25.9665   21.4040 H   0  0  0  0  0  0
  -29.7152  -25.1218   22.7168 H   0  0  0  0  0  0
  -28.4645  -22.0517   24.1448 H   0  0  0  0  0  0
  -29.7073  -22.0836   22.9117 H   0  0  0  0  0  0
  -28.4423  -20.8501   22.8851 H   0  0  0  0  0  0
  -25.8959  -22.5116   23.2967 H   0  0  0  0  0  0
  -26.0495  -21.5447   21.8442 H   0  0  0  0  0  0
  -25.7008  -23.2593   21.7198 H   0  0  0  0  0  0
  -27.8524  -20.1388   19.2226 H   0  0  0  0  0  0
  -27.6052  -20.3603   20.9131 H   0  0  0  0  0  0
  -31.2022  -17.5015   20.1159 H   0  0  0  0  0  0
  -31.5061  -18.4640   21.5281 H   0  0  0  0  0  0
  -30.3128  -16.7518   22.9652 H   0  0  0  0  0  0
  -31.8252  -16.2622   22.2745 H   0  0  0  0  0  0
  -28.9473  -18.5598   21.9067 H   0  0  0  0  0  0
  -28.7766  -17.8863   20.3028 H   0  0  0  0  0  0
  -27.4842  -25.6229   21.6229 H   0  0  0  0  0  0
  -27.8614  -23.8045   22.7729 H   0  0  0  0  0  0
  -29.2621  -15.0444   21.8460 H   0  0  0  0  0  0
  -30.1283  -20.4103   21.0061 H   0  0  0  0  0  0
  -30.0900  -19.8058   19.5017 H   0  0  0  0  0  0
  1 25  1  0  0  0
  1 30  2  0  0  0
  1 85  1  0  0  0
  2  3  1  0  0  0
  2 25  1  0  0  0
  2 87  1  0  0  0
  2 88  1  0  0  0
  3  4  1  0  0  0
  3 89  1  0  0  0
  3 90  1  0  0  0
  4  5  1  0  0  0
  4 91  1  0  0  0
  4 92  1  0  0  0
  5  6  1  0  0  0
  5 26  1  0  0  0
  5 93  1  0  0  0
  6 25  1  0  0  0
  6 94  1  0  0  0
  6 95  1  0  0  0
  7  8  2  0  0  0
  7 26  1  0  0  0
  7 29  1  0  0  0
  8  9  1  0  0  0
  8 22  1  0  0  0
  9 10  1  0  0  0
  9 27  2  0  0  0
 10 11  2  0  0  0
 10 15  1  0  0  0
 11 12  1  0  0  0
 11 96  1  0  0  0
 12 13  2  0  0  0
 12 97  1  0  0  0
 13 14  1  0  0  0
 13 31  1  0  0  0
 14 15  2  0  0  0
 14 98  1  0  0  0
 15 99  1  0  0  0
 16 17  2  0  0  0
 16 21  1  0  0  0
 16 31  1  0  0  0
 17 18  1  0  0  0
 17100  1  0  0  0
 18 19  2  0  0  0
 18101  1  0  0  0
 19 20  1  0  0  0
 19 24  1  0  0  0
 20 21  2  0  0  0
 20102  1  0  0  0
 21 23  1  0  0  0
 22 28  1  0  0  0
 22 32  2  0  0  0
 26 27  1  0  0  0
 28103  1  0  0  0
 28104  1  0  0  0
 29105  1  0  0  0
 29106  1  0  0  0
 33 34  1  0  0  0
 33 66  1  0  0  0
 33 70  2  0  0  0
 34 36  1  0  0  0
 34 59  1  0  0  0
 34107  1  0  0  0
 35 44  2  0  0  0
 35 45  1  0  0  0
 35 68  1  0  0  0
 36 56  1  0  0  0
 36108  1  0  0  0
 37 39  1  0  0  0
 37 47  1  0  0  0
 37 66  1  0  0  0
 37109  1  0  0  0
 38 43  2  0  0  0
 38 46  1  0  0  0
 38 47  1  0  0  0
 39 64  1  0  0  0
 39 67  2  0  0  0
 40 52  1  0  0  0
 40 53  2  0  0  0
 40 58  1  0  0  0
 41110  1  0  0  0
 41111  1  0  0  0
 41112  1  0  0  0
 41 48  1  0  0  0
 42 43  1  0  0  0
 42 66  1  0  0  0
 42113  1  0  0  0
 42114  1  0  0  0
 43 44  1  0  0  0
 44115  1  0  0  0
 45 46  2  0  0  0
 45116  1  0  0  0
 46117  1  0  0  0
 47118  1  0  0  0
 47119  1  0  0  0
 48 56  1  0  0  0
 48 65  1  0  0  0
 48120  1  0  0  0
 49 50  1  0  0  0
 49 53  1  0  0  0
 49 64  1  0  0  0
 49121  1  0  0  0
 50 51  1  0  0  0
 50122  1  0  0  0
 50123  1  0  0  0
 51 52  1  0  0  0
 51124  1  0  0  0
 51125  1  0  0  0
 52126  1  0  0  0
 52127  1  0  0  0
 53 54  1  0  0  0
 54 55  2  0  0  0
 54128  1  0  0  0
 55 57  1  0  0  0
 55129  1  0  0  0
 56 69  2  0  0  0
 57 58  2  0  0  0
 57130  1  0  0  0
 58131  1  0  0  0
 59 60  1  0  0  0
 59 61  1  0  0  0
 59 62  1  0  0  0
 60132  1  0  0  0
 60133  1  0  0  0
 60134  1  0  0  0
 61135  1  0  0  0
 61136  1  0  0  0
 61137  1  0  0  0
 62138  1  0  0  0
 62139  1  0  0  0
 62140  1  0  0  0
 63 65  1  0  0  0
 63141  1  0  0  0
 63142  1  0  0  0
 63143  1  0  0  0
 64144  1  0  0  0
 65145  1  0  0  0
 68 82  1  0  0  0
 71 72  1  0  0  0
 71 73  2  0  0  0
 71146  1  0  0  0
 72 74  2  0  0  0
 72147  1  0  0  0
 73 78  1  0  0  0
 73 84  1  0  0  0
 74 82  1  0  0  0
 74 84  1  0  0  0
 75148  1  0  0  0
 75149  1  0  0  0
 75150  1  0  0  0
 75 82  1  0  0  0
 76151  1  0  0  0
 76152  1  0  0  0
 76153  1  0  0  0
 76 83  1  0  0  0
 77 83  1  0  0  0
 77154  1  0  0  0
 77155  1  0  0  0
 77156  1  0  0  0
 78 86  1  0  0  0
 78157  1  0  0  0
 78158  1  0  0  0
 79 80  1  0  0  0
 79 81  1  0  0  0
 79159  1  0  0  0
 79160  1  0  0  0
 80 85  1  0  0  0
 80161  1  0  0  0
 80162  1  0  0  0
 81 86  1  0  0  0
 81163  1  0  0  0
 81164  1  0  0  0
 82165  1  0  0  0
 83 84  1  0  0  0
 83166  1  0  0  0
 85167  1  0  0  0
 86168  1  0  0  0
 86169  1  0  0  0
M  CHG  1  86   1
M  ISO  4   1 100  68 101  82 101  85 100
M  END
> <chiral flag>
0

> <version>
0

> <s_m_source_file>
/data/baiqing/PycharmProjects/Reinvent-master-3.2/result/LINK_invent/BTK/process_docking_weight1_custom_sum_contain_oxygen_bond_distance_aromatic_linkinvent_7_9_3/rearranged_h_0123.sdf

> <i_m_source_file_index>
11

> <r_mmod_Potential_Energy-OPLS-2005>
-249.763259887695

> <r_mmod_Stretch_Energy-OPLS-2005>
37.5548782348633

> <r_mmod_Bend_Energy-OPLS-2005>
99.2244186401367

> <r_mmod_Torsional_Energy-OPLS-2005>
260.447845458984

> <r_mmod_Improper_Torsional_Energy-OPLS-2005>
2.09043765068054

> <r_mmod_Van_der_Waal_Energy-OPLS-2005>
120.62181854248

> <r_mmod_Electrostatic_Energy-OPLS-2005>
-319.119262695312

> <r_mmod_Solvation_Energy-OPLS-2005>
-459.474700927734

> <b_mmod_Minimization_Converged-OPLS-2005>
0

> <r_mmod_RMS_Derivative-OPLS-2005>
1.41136968135834

$$$$
11
                    3D
 Structure written by MMmdl.
173182  0  0  1  0            999 V2000
  -30.6512  -14.4929   20.5450 C   0  0  0  0  0  0
  -30.4399  -12.3060   19.4340 C   0  0  0  0  0  0
  -29.5112  -12.4998   18.2152 C   0  0  0  0  0  0
  -28.0271  -12.3635   18.6176 C   0  0  0  0  0  0
  -27.6676  -13.1978   19.8769 C   0  0  2  0  0  0
  -28.7055  -12.9607   20.9985 C   0  0  0  0  0  0
  -25.2629  -13.8149   20.5647 C   0  0  0  0  0  0
  -24.1863  -13.0444   20.9155 C   0  0  0  0  0  0
  -24.6406  -11.6902   20.8721 C   0  0  0  0  0  0
  -23.9070  -10.4296   21.0394 C   0  0  0  0  0  0
  -24.3629   -9.4213   21.9177 C   0  0  0  0  0  0
  -23.6294   -8.2253   22.0751 C   0  0  0  0  0  0
  -22.4268   -8.0300   21.3558 C   0  0  0  0  0  0
  -21.9910   -9.0268   20.4654 C   0  0  0  0  0  0
  -22.7240  -10.2143   20.3048 C   0  0  0  0  0  0
  -21.6863   -6.0733   22.5276 C   0  0  0  0  0  0
  -21.4018   -6.5629   23.8213 C   0  0  0  0  0  0
  -21.3667   -5.6782   24.9178 C   0  0  0  0  0  0
  -21.6045   -4.3045   24.7223 C   0  0  0  0  0  0
  -21.8824   -3.8141   23.4343 C   0  0  0  0  0  0
  -21.9198   -4.6960   22.3397 C   0  0  0  0  0  0
  -22.7887  -13.5248   21.1817 C   0  0  0  0  0  0
  -22.1663   -4.2142   21.0975 F   0  0  0  0  0  0
  -21.5636   -3.4532   25.7738 F   0  0  0  0  0  0
  -30.0395  -13.2823   20.4577 N   0  0  0  0  0  0
  -26.3056  -12.9291   20.3347 N   0  0  0  0  0  0
  -25.9331  -11.6467   20.5754 N   0  0  0  0  0  0
  -22.0523  -12.8259   22.0381 N   0  0  0  0  0  0
  -25.4359  -15.1867   20.4049 N   0  0  0  0  0  0
  -31.7721  -14.7190   20.0747 O   0  0  0  0  0  0
  -21.6652   -6.8885   21.4240 O   0  0  0  0  0  0
  -22.3561  -14.5545   20.6655 O   0  0  0  0  0  0
  -24.6136  -31.8655   23.2088 C   0  0  0  0  0  0
  -25.9028  -32.4810   23.8380 C   0  0  1  0  0  0
  -27.2403  -27.4115   20.0938 C   0  0  0  0  0  0
  -25.5889  -33.8610   24.2307 N   0  0  0  0  0  0
  -23.4034  -30.4866   21.5495 C   0  0  2  0  0  0
  -24.8514  -28.9489   20.1136 C   0  0  0  0  0  0
  -22.7419  -29.4620   22.4999 C   0  0  0  0  0  0
  -18.0261  -28.1364   22.8487 C   0  0  0  0  0  0
  -24.1492  -36.7302   23.2641 C   0  0  0  0  0  0
  -25.9331  -30.8195   21.3695 C   0  0  0  0  0  0
  -26.0098  -29.4518   20.7168 C   0  0  0  0  0  0
  -27.2001  -28.6872   20.7106 C   0  0  0  0  0  0
  -26.0594  -26.9272   19.4846 C   0  0  0  0  0  0
  -24.8723  -27.6859   19.4964 C   0  0  0  0  0  0
  -23.6127  -29.8175   20.1642 C   0  0  0  0  0  0
  -25.4117  -36.3101   24.0333 C   0  0  1  0  0  0
  -20.5855  -28.3637   23.1333 C   0  0  2  0  0  0
  -20.6756  -26.9377   22.5428 C   0  0  0  0  0  0
  -19.5740  -26.6373   21.5218 C   0  0  0  0  0  0
  -18.1911  -26.7915   22.1618 C   0  0  0  0  0  0
  -19.1509  -28.8821   23.2904 C   0  0  0  0  0  0
  -18.9441  -30.1437   23.8904 C   0  0  0  0  0  0
  -17.6440  -30.6576   24.0555 C   0  0  0  0  0  0
  -25.9038  -34.9465   23.5117 C   0  0  0  0  0  0
  -16.5329  -29.9070   23.6334 C   0  0  0  0  0  0
  -16.7249  -28.6490   23.0347 C   0  0  0  0  0  0
  -26.4459  -31.6595   25.0711 C   0  0  0  0  0  0
  -25.3741  -31.3697   26.1473 C   0  0  0  0  0  0
  -27.0281  -30.3036   24.6090 C   0  0  0  0  0  0
  -27.6031  -32.4321   25.7466 C   0  0  0  0  0  0
  -27.5584  -37.1804   24.8462 C   0  0  0  0  0  0
  -21.4141  -29.3000   22.3744 N   0  0  0  0  0  0
  -26.4299  -37.3788   23.9404 N   0  0  0  0  0  0
  -24.6678  -31.0734   22.1001 N   0  0  0  0  0  0
  -23.4185  -28.8171   23.3045 O   0  0  0  0  0  0
  -28.4252  -26.6934   20.1285 O   0  0  0  0  0  0
  -26.5607  -34.8917   22.4683 O   0  0  0  0  0  0
  -23.5324  -32.1411   23.7477 O   0  0  0  0  0  0
  -29.5437  -19.9448   19.8969 C   0  0  0  0  0  0
  -29.1587  -21.3130   19.7912 C   0  0  0  0  0  0
  -30.0815  -20.2853   22.2141 C   0  0  0  0  0  0
  -29.7128  -21.6286   22.1052 C   0  0  0  0  0  0
  -30.0434  -19.4024   21.1104 C   0  0  0  0  0  0
  -29.2519  -22.1990   20.9018 C   0  0  0  0  0  0
  -30.5314  -19.9590   23.6167 C   0  0  0  0  0  0
  -29.8874  -22.3541   23.4139 C   0  0  0  0  0  0
  -30.5713  -21.3221   24.3382 C   0  0  0  0  0  0
  -32.8159  -19.1679   20.4588 C   0  0  0  0  0  0
  -29.7281  -16.8722   20.5232 C   0  0  0  0  0  0
  -32.9387  -17.0234   21.8117 C   0  0  0  0  0  0
  -28.5972  -25.4908   19.3495 C   0  0  0  0  0  0
  -28.0668  -24.1617   19.9676 C   0  0  0  0  0  0
  -30.6013  -17.9568   21.2265 C   0  0  1  0  0  0
  -32.1033  -17.8378   20.7933 C   0  0  1  0  0  0
  -29.8592  -15.4796   21.0125 N   0  0  0  0  0  0
  -33.9576  -16.1941   21.1463 N   0  3  0  0  0  0
  -28.9912  -23.5676   20.8974 O   0  0  0  0  0  0
  -31.4873  -12.4144   19.1417 H   0  0  0  0  0  0
  -30.3461  -11.2940   19.8288 H   0  0  0  0  0  0
  -29.7548  -11.7720   17.4410 H   0  0  0  0  0  0
  -29.6858  -13.4849   17.7769 H   0  0  0  0  0  0
  -27.8330  -11.3075   18.8083 H   0  0  0  0  0  0
  -27.3860  -12.6469   17.7823 H   0  0  0  0  0  0
  -27.7154  -14.2467   19.5842 H   0  0  0  0  0  0
  -28.6834  -11.9158   21.3124 H   0  0  0  0  0  0
  -28.4632  -13.5355   21.8933 H   0  0  0  0  0  0
  -25.2793   -9.5685   22.4737 H   0  0  0  0  0  0
  -24.0015   -7.4643   22.7466 H   0  0  0  0  0  0
  -21.0841   -8.8783   19.8960 H   0  0  0  0  0  0
  -22.3705  -10.9680   19.6149 H   0  0  0  0  0  0
  -21.1994   -7.6137   23.9713 H   0  0  0  0  0  0
  -21.1492   -6.0514   25.9085 H   0  0  0  0  0  0
  -22.0591   -2.7599   23.2852 H   0  0  0  0  0  0
  -22.4134  -11.9928   22.4784 H   0  0  0  0  0  0
  -21.1140  -13.1300   22.2559 H   0  0  0  0  0  0
  -24.6644  -15.8390   20.5045 H   0  0  0  0  0  0
  -26.2829  -15.6284   20.0696 H   0  0  0  0  0  0
  -26.7087  -32.5511   23.1125 H   0  0  0  0  0  0
  -25.0043  -33.9782   25.0451 H   0  0  0  0  0  0
  -22.6886  -31.3009   21.4110 H   0  0  0  0  0  0
  -23.3763  -35.9629   23.3306 H   0  0  0  0  0  0
  -24.3582  -36.8915   22.2055 H   0  0  0  0  0  0
  -23.7236  -37.6501   23.6658 H   0  0  0  0  0  0
  -26.0541  -31.5854   20.6020 H   0  0  0  0  0  0
  -26.8169  -30.8685   21.9945 H   0  0  0  0  0  0
  -28.0923  -29.0716   21.1853 H   0  0  0  0  0  0
  -26.0308  -25.9619   19.0020 H   0  0  0  0  0  0
  -23.9812  -27.2925   19.0271 H   0  0  0  0  0  0
  -23.7181  -30.5903   19.4017 H   0  0  0  0  0  0
  -22.7362  -29.2374   19.8725 H   0  0  0  0  0  0
  -25.1301  -36.1961   25.0828 H   0  0  0  0  0  0
  -20.9934  -28.3192   24.1460 H   0  0  0  0  0  0
  -20.5658  -26.2238   23.3608 H   0  0  0  0  0  0
  -21.6625  -26.7417   22.1218 H   0  0  0  0  0  0
  -19.6898  -25.6293   21.1228 H   0  0  0  0  0  0
  -19.6691  -27.3204   20.6768 H   0  0  0  0  0  0
  -17.4191  -26.6663   21.4006 H   0  0  0  0  0  0
  -18.0296  -26.0045   22.9003 H   0  0  0  0  0  0
  -19.7912  -30.7252   24.2271 H   0  0  0  0  0  0
  -17.4990  -31.6262   24.5144 H   0  0  0  0  0  0
  -15.5327  -30.2967   23.7671 H   0  0  0  0  0  0
  -15.8647  -28.0819   22.7054 H   0  0  0  0  0  0
  -24.5891  -30.7069   25.7813 H   0  0  0  0  0  0
  -24.8965  -32.2855   26.4966 H   0  0  0  0  0  0
  -25.8108  -30.8825   27.0200 H   0  0  0  0  0  0
  -26.2812  -29.6811   24.1152 H   0  0  0  0  0  0
  -27.4053  -29.7257   25.4533 H   0  0  0  0  0  0
  -27.8652  -30.4346   23.9232 H   0  0  0  0  0  0
  -27.2639  -33.3607   26.2066 H   0  0  0  0  0  0
  -28.3822  -32.6906   25.0285 H   0  0  0  0  0  0
  -28.0721  -31.8441   26.5361 H   0  0  0  0  0  0
  -28.2604  -38.0100   24.7521 H   0  0  0  0  0  0
  -28.1076  -36.2631   24.6280 H   0  0  0  0  0  0
  -27.2299  -37.1442   25.8864 H   0  0  0  0  0  0
  -20.9304  -29.8718   21.6962 H   0  0  0  0  0  0
  -26.0187  -38.2866   24.1408 H   0  0  0  0  0  0
  -29.4892  -19.3216   19.0154 H   0  0  0  0  0  0
  -28.8345  -21.6614   18.8229 H   0  0  0  0  0  0
  -31.5050  -19.4671   23.6225 H   0  0  0  0  0  0
  -29.8025  -19.2918   24.0795 H   0  0  0  0  0  0
  -28.9082  -22.6422   23.7983 H   0  0  0  0  0  0
  -30.4920  -23.2537   23.2913 H   0  0  0  0  0  0
  -31.6138  -21.6099   24.4799 H   0  0  0  0  0  0
  -30.1151  -21.2824   25.3281 H   0  0  0  0  0  0
  -33.8332  -18.9937   20.1052 H   0  0  0  0  0  0
  -32.8771  -19.8281   21.3237 H   0  0  0  0  0  0
  -32.3054  -19.7078   19.6602 H   0  0  0  0  0  0
  -29.8650  -16.9027   19.4408 H   0  0  0  0  0  0
  -28.6793  -17.1269   20.6855 H   0  0  0  0  0  0
  -32.3036  -16.3460   22.3843 H   0  0  0  0  0  0
  -33.4132  -17.6820   22.5415 H   0  0  0  0  0  0
  -28.1642  -25.6422   18.3594 H   0  0  0  0  0  0
  -29.6636  -25.3740   19.1581 H   0  0  0  0  0  0
  -27.8346  -23.4862   19.1478 H   0  0  0  0  0  0
  -27.1209  -24.3386   20.4796 H   0  0  0  0  0  0
  -30.5326  -17.7212   22.2884 H   0  0  0  0  0  0
  -32.1008  -17.2986   19.8458 H   0  0  0  0  0  0
  -29.0233  -15.1275   21.4564 H   0  0  0  0  0  0
  -34.6070  -16.7559   20.6256 H   0  0  0  0  0  0
  -33.4875  -15.5514   20.5200 H   0  0  0  0  0  0
  -34.4663  -15.6567   21.8261 H   0  0  0  0  0  0
  1 25  1  0  0  0
  1 30  2  0  0  0
  1 87  1  0  0  0
  2  3  1  0  0  0
  2 25  1  0  0  0
  2 90  1  0  0  0
  2 91  1  0  0  0
  3  4  1  0  0  0
  3 92  1  0  0  0
  3 93  1  0  0  0
  4  5  1  0  0  0
  4 94  1  0  0  0
  4 95  1  0  0  0
  5  6  1  0  0  0
  5 26  1  0  0  0
  5 96  1  0  0  0
  6 25  1  0  0  0
  6 97  1  0  0  0
  6 98  1  0  0  0
  7  8  2  0  0  0
  7 26  1  0  0  0
  7 29  1  0  0  0
  8  9  1  0  0  0
  8 22  1  0  0  0
  9 10  1  0  0  0
  9 27  2  0  0  0
 10 11  2  0  0  0
 10 15  1  0  0  0
 11 12  1  0  0  0
 11 99  1  0  0  0
 12 13  2  0  0  0
 12100  1  0  0  0
 13 14  1  0  0  0
 13 31  1  0  0  0
 14 15  2  0  0  0
 14101  1  0  0  0
 15102  1  0  0  0
 16 17  2  0  0  0
 16 21  1  0  0  0
 16 31  1  0  0  0
 17 18  1  0  0  0
 17103  1  0  0  0
 18 19  2  0  0  0
 18104  1  0  0  0
 19 20  1  0  0  0
 19 24  1  0  0  0
 20 21  2  0  0  0
 20105  1  0  0  0
 21 23  1  0  0  0
 22 28  1  0  0  0
 22 32  2  0  0  0
 26 27  1  0  0  0
 28106  1  0  0  0
 28107  1  0  0  0
 29108  1  0  0  0
 29109  1  0  0  0
 33 34  1  0  0  0
 33 66  1  0  0  0
 33 70  2  0  0  0
 34 36  1  0  0  0
 34 59  1  0  0  0
 34110  1  0  0  0
 35 44  2  0  0  0
 35 45  1  0  0  0
 35 68  1  0  0  0
 36 56  1  0  0  0
 36111  1  0  0  0
 37 39  1  0  0  0
 37 47  1  0  0  0
 37 66  1  0  0  0
 37112  1  0  0  0
 38 43  2  0  0  0
 38 46  1  0  0  0
 38 47  1  0  0  0
 39 64  1  0  0  0
 39 67  2  0  0  0
 40 52  1  0  0  0
 40 53  2  0  0  0
 40 58  1  0  0  0
 41113  1  0  0  0
 41114  1  0  0  0
 41115  1  0  0  0
 41 48  1  0  0  0
 42 43  1  0  0  0
 42 66  1  0  0  0
 42116  1  0  0  0
 42117  1  0  0  0
 43 44  1  0  0  0
 44118  1  0  0  0
 45 46  2  0  0  0
 45119  1  0  0  0
 46120  1  0  0  0
 47121  1  0  0  0
 47122  1  0  0  0
 48 56  1  0  0  0
 48 65  1  0  0  0
 48123  1  0  0  0
 49 50  1  0  0  0
 49 53  1  0  0  0
 49 64  1  0  0  0
 49124  1  0  0  0
 50 51  1  0  0  0
 50125  1  0  0  0
 50126  1  0  0  0
 51 52  1  0  0  0
 51127  1  0  0  0
 51128  1  0  0  0
 52129  1  0  0  0
 52130  1  0  0  0
 53 54  1  0  0  0
 54 55  2  0  0  0
 54131  1  0  0  0
 55 57  1  0  0  0
 55132  1  0  0  0
 56 69  2  0  0  0
 57 58  2  0  0  0
 57133  1  0  0  0
 58134  1  0  0  0
 59 60  1  0  0  0
 59 61  1  0  0  0
 59 62  1  0  0  0
 60135  1  0  0  0
 60136  1  0  0  0
 60137  1  0  0  0
 61138  1  0  0  0
 61139  1  0  0  0
 61140  1  0  0  0
 62141  1  0  0  0
 62142  1  0  0  0
 62143  1  0  0  0
 63 65  1  0  0  0
 63144  1  0  0  0
 63145  1  0  0  0
 63146  1  0  0  0
 64147  1  0  0  0
 65148  1  0  0  0
 68 83  1  0  0  0
 71 72  2  0  0  0
 71 75  1  0  0  0
 71149  1  0  0  0
 72 76  1  0  0  0
 72150  1  0  0  0
 73 74  1  0  0  0
 73 75  2  0  0  0
 73 77  1  0  0  0
 74 76  2  0  0  0
 74 78  1  0  0  0
 75 85  1  0  0  0
 76 89  1  0  0  0
 77 79  1  0  0  0
 77151  1  0  0  0
 77152  1  0  0  0
 78 79  1  0  0  0
 78153  1  0  0  0
 78154  1  0  0  0
 79155  1  0  0  0
 79156  1  0  0  0
 80157  1  0  0  0
 80158  1  0  0  0
 80159  1  0  0  0
 80 86  1  0  0  0
 81 87  1  0  0  0
 81160  1  0  0  0
 81161  1  0  0  0
 81 85  1  0  0  0
 82 86  1  0  0  0
 82 88  1  0  0  0
 82162  1  0  0  0
 82163  1  0  0  0
 83 84  1  0  0  0
 83164  1  0  0  0
 83165  1  0  0  0
 84 89  1  0  0  0
 84166  1  0  0  0
 84167  1  0  0  0
 85 86  1  0  0  0
 85168  1  0  0  0
 86169  1  0  0  0
 87170  1  0  0  0
 88171  1  0  0  0
 88172  1  0  0  0
 88173  1  0  0  0
M  CHG  1  88   1
M  ISO  4   1 100  68 101  83 101  87 100
M  END
> <chiral flag>
0

> <version>
0

> <s_m_source_file>
/data/baiqing/PycharmProjects/Reinvent-master-3.2/result/LINK_invent/BTK/process_docking_weight1_custom_sum_contain_oxygen_bond_distance_aromatic_linkinvent_7_9_3/rearranged_h_0123.sdf

> <i_m_source_file_index>
12

> <r_mmod_Potential_Energy-OPLS-2005>
-234.396560668945

> <r_mmod_Stretch_Energy-OPLS-2005>
48.4838714599609

> <r_mmod_Bend_Energy-OPLS-2005>
170.513046264648

> <r_mmod_Torsional_Energy-OPLS-2005>
254.452972412109

> <r_mmod_Improper_Torsional_Energy-OPLS-2005>
6.61176204681396

> <r_mmod_Van_der_Waal_Energy-OPLS-2005>
152.105911254883

> <r_mmod_Electrostatic_Energy-OPLS-2005>
-438.407470703125

> <r_mmod_Solvation_Energy-OPLS-2005>
-444.2861328125

> <b_mmod_Minimization_Converged-OPLS-2005>
0

> <r_mmod_RMS_Derivative-OPLS-2005>
2.36843490600586

$$$$
12
                    3D
 Structure written by MMmdl.
154162  0  0  1  0            999 V2000
  -30.6624  -14.6460   20.4691 C   0  0  0  0  0  0
  -30.4108  -12.3845   19.4741 C   0  0  0  0  0  0
  -29.5015  -12.5070   18.2331 C   0  0  0  0  0  0
  -28.0260  -12.3406   18.6463 C   0  0  0  0  0  0
  -27.6449  -13.2281   19.8623 C   0  0  2  0  0  0
  -28.6896  -13.1299   20.9973 C   0  0  0  0  0  0
  -25.2512  -13.8186   20.5699 C   0  0  0  0  0  0
  -24.1790  -13.0428   20.9187 C   0  0  0  0  0  0
  -24.6390  -11.6922   20.8754 C   0  0  0  0  0  0
  -23.9071  -10.4285   21.0411 C   0  0  0  0  0  0
  -24.3618   -9.4203   21.9194 C   0  0  0  0  0  0
  -23.6286   -8.2242   22.0763 C   0  0  0  0  0  0
  -22.4271   -8.0273   21.3547 C   0  0  0  0  0  0
  -21.9914   -9.0253   20.4657 C   0  0  0  0  0  0
  -22.7249  -10.2132   20.3063 C   0  0  0  0  0  0
  -21.6845   -6.0732   22.5284 C   0  0  0  0  0  0
  -21.4020   -6.5638   23.8217 C   0  0  0  0  0  0
  -21.3675   -5.6794   24.9181 C   0  0  0  0  0  0
  -21.6034   -4.3052   24.7236 C   0  0  0  0  0  0
  -21.8815   -3.8144   23.4360 C   0  0  0  0  0  0
  -21.9184   -4.6958   22.3412 C   0  0  0  0  0  0
  -22.7822  -13.5213   21.1861 C   0  0  0  0  0  0
  -22.1651   -4.2144   21.0987 F   0  0  0  0  0  0
  -21.5630   -3.4539   25.7750 F   0  0  0  0  0  0
  -30.0010  -13.4458   20.4178 N   0  0  0  0  0  0
  -26.2944  -12.9409   20.3355 N   0  0  0  0  0  0
  -25.9322  -11.6544   20.5797 N   0  0  0  0  0  0
  -22.0487  -12.8193   22.0431 N   0  0  0  0  0  0
  -25.4163  -15.1913   20.4107 N   0  0  0  0  0  0
  -31.8426  -14.7279   20.1190 O   0  0  0  0  0  0
  -21.6634   -6.8876   21.4245 O   0  0  0  0  0  0
  -22.3508  -14.5516   20.6716 O   0  0  0  0  0  0
  -24.6231  -31.8608   23.2081 C   0  0  0  0  0  0
  -25.9081  -32.4792   23.8392 C   0  0  1  0  0  0
  -27.2157  -27.3092   20.0926 C   0  0  0  0  0  0
  -25.5902  -33.8605   24.2307 N   0  0  0  0  0  0
  -23.4171  -30.4864   21.5542 C   0  0  2  0  0  0
  -24.8659  -28.9581   20.1081 C   0  0  0  0  0  0
  -22.7472  -29.4574   22.4956 C   0  0  0  0  0  0
  -18.0259  -28.1375   22.8501 C   0  0  0  0  0  0
  -24.1488  -36.7305   23.2641 C   0  0  0  0  0  0
  -25.9640  -30.7862   21.3875 C   0  0  0  0  0  0
  -26.0380  -29.4170   20.7200 C   0  0  0  0  0  0
  -27.2117  -28.6027   20.7126 C   0  0  0  0  0  0
  -26.0079  -26.9102   19.4693 C   0  0  0  0  0  0
  -24.8565  -27.7124   19.4739 C   0  0  0  0  0  0
  -23.6343  -29.8376   20.1654 C   0  0  0  0  0  0
  -25.4118  -36.3094   24.0319 C   0  0  1  0  0  0
  -20.5863  -28.3646   23.1317 C   0  0  2  0  0  0
  -20.6759  -26.9370   22.5433 C   0  0  0  0  0  0
  -19.5724  -26.6362   21.5249 C   0  0  0  0  0  0
  -18.1893  -26.7918   22.1643 C   0  0  0  0  0  0
  -19.1517  -28.8832   23.2890 C   0  0  0  0  0  0
  -18.9446  -30.1452   23.8866 C   0  0  0  0  0  0
  -17.6448  -30.6579   24.0558 C   0  0  0  0  0  0
  -25.9037  -34.9451   23.5103 C   0  0  0  0  0  0
  -16.5334  -29.9082   23.6344 C   0  0  0  0  0  0
  -16.7254  -28.6516   23.0342 C   0  0  0  0  0  0
  -26.4473  -31.6606   25.0757 C   0  0  0  0  0  0
  -25.3716  -31.3706   26.1488 C   0  0  0  0  0  0
  -27.0339  -30.3039   24.6209 C   0  0  0  0  0  0
  -27.6033  -32.4362   25.7516 C   0  0  0  0  0  0
  -27.5582  -37.1792   24.8445 C   0  0  0  0  0  0
  -21.4176  -29.3002   22.3733 N   0  0  0  0  0  0
  -26.4297  -37.3793   23.9388 N   0  0  0  0  0  0
  -24.6875  -31.0579   22.1072 N   0  0  0  0  0  0
  -23.4218  -28.8082   23.2980 O   0  0  0  0  0  0
  -28.3299  -26.4505   20.1604 O   0  0  0  0  0  0
  -26.5602  -34.8896   22.4673 O   0  0  0  0  0  0
  -23.5397  -32.1425   23.7380 O   0  0  0  0  0  0
  -28.5274  -21.5768   20.7880 C   0  0  0  0  0  0
  -30.4360  -22.0702   19.4558 C   0  0  0  0  0  0
  -28.1230  -22.9418   20.6169 C   0  0  0  0  0  0
  -29.7125  -21.0859   20.1804 C   0  0  0  0  0  0
  -28.9158  -23.8392   19.8407 C   0  0  0  0  0  0
  -26.8092  -23.4044   21.2214 C   0  0  0  0  0  0
  -28.4352  -25.2463   19.2993 C   0  0  0  0  0  0
  -29.5273  -18.4638   20.5855 C   0  0  0  0  0  0
  -30.4817  -17.1880   20.4817 C   0  0  0  0  0  0
  -30.0644  -23.3703   19.2900 N   0  0  0  0  0  0
  -30.2265  -19.7434   20.2546 N   0  0  0  0  0  0
  -29.9416  -15.7952   20.6889 N   0  0  0  0  0  0
  -31.4629  -12.4521   19.1938 H   0  0  0  0  0  0
  -30.2904  -11.4042   19.9380 H   0  0  0  0  0  0
  -29.7727  -11.7603   17.4859 H   0  0  0  0  0  0
  -29.6436  -13.4816   17.7617 H   0  0  0  0  0  0
  -27.8748  -11.2895   18.8956 H   0  0  0  0  0  0
  -27.3673  -12.5500   17.8029 H   0  0  0  0  0  0
  -27.6513  -14.2563   19.5005 H   0  0  0  0  0  0
  -28.6996  -12.1270   21.4255 H   0  0  0  0  0  0
  -28.4446  -13.8074   21.8161 H   0  0  0  0  0  0
  -25.2760   -9.5668   22.4774 H   0  0  0  0  0  0
  -23.9989   -7.4634   22.7489 H   0  0  0  0  0  0
  -21.0844   -8.8777   19.8963 H   0  0  0  0  0  0
  -22.3708  -10.9669   19.6172 H   0  0  0  0  0  0
  -21.2025   -7.6146   23.9723 H   0  0  0  0  0  0
  -21.1500   -6.0526   25.9084 H   0  0  0  0  0  0
  -22.0578   -2.7608   23.2862 H   0  0  0  0  0  0
  -22.4121  -11.9827   22.4746 H   0  0  0  0  0  0
  -21.1135  -13.1253   22.2726 H   0  0  0  0  0  0
  -24.6407  -15.8385   20.5032 H   0  0  0  0  0  0
  -26.2623  -15.6365   20.0776 H   0  0  0  0  0  0
  -26.7138  -32.5466   23.1130 H   0  0  0  0  0  0
  -25.0043  -33.9778   25.0458 H   0  0  0  0  0  0
  -22.7078  -31.3054   21.4194 H   0  0  0  0  0  0
  -23.3747  -35.9637   23.3288 H   0  0  0  0  0  0
  -24.3567  -36.8981   22.2061 H   0  0  0  0  0  0
  -23.7257  -37.6498   23.6704 H   0  0  0  0  0  0
  -26.0953  -31.5549   20.6254 H   0  0  0  0  0  0
  -26.8448  -30.8341   22.0161 H   0  0  0  0  0  0
  -28.1100  -28.9481   21.2067 H   0  0  0  0  0  0
  -25.8675  -25.9577   18.9920 H   0  0  0  0  0  0
  -23.9578  -27.3561   18.9888 H   0  0  0  0  0  0
  -23.7502  -30.6245   19.4180 H   0  0  0  0  0  0
  -22.7552  -29.2689   19.8599 H   0  0  0  0  0  0
  -25.1301  -36.1937   25.0814 H   0  0  0  0  0  0
  -20.9937  -28.3215   24.1451 H   0  0  0  0  0  0
  -20.5715  -26.2220   23.3605 H   0  0  0  0  0  0
  -21.6614  -26.7426   22.1186 H   0  0  0  0  0  0
  -19.6865  -25.6277   21.1255 H   0  0  0  0  0  0
  -19.6674  -27.3180   20.6776 H   0  0  0  0  0  0
  -17.4171  -26.6663   21.4031 H   0  0  0  0  0  0
  -18.0266  -26.0070   22.9038 H   0  0  0  0  0  0
  -19.7915  -30.7283   24.2217 H   0  0  0  0  0  0
  -17.4993  -31.6268   24.5142 H   0  0  0  0  0  0
  -15.5333  -30.2968   23.7688 H   0  0  0  0  0  0
  -15.8651  -28.0858   22.7029 H   0  0  0  0  0  0
  -24.5927  -30.7014   25.7815 H   0  0  0  0  0  0
  -24.8835  -32.2845   26.4884 H   0  0  0  0  0  0
  -25.8053  -30.8925   27.0280 H   0  0  0  0  0  0
  -26.2939  -29.6758   24.1249 H   0  0  0  0  0  0
  -27.4079  -29.7303   25.4692 H   0  0  0  0  0  0
  -27.8766  -30.4330   23.9424 H   0  0  0  0  0  0
  -27.2683  -33.3734   26.1972 H   0  0  0  0  0  0
  -28.3892  -32.6824   25.0365 H   0  0  0  0  0  0
  -28.0629  -31.8563   26.5528 H   0  0  0  0  0  0
  -28.2547  -38.0131   24.7558 H   0  0  0  0  0  0
  -28.1141  -36.2669   24.6228 H   0  0  0  0  0  0
  -27.2279  -37.1389   25.8837 H   0  0  0  0  0  0
  -20.9329  -29.8818   21.7045 H   0  0  0  0  0  0
  -26.0163  -38.2848   24.1457 H   0  0  0  0  0  0
  -27.9154  -20.9068   21.3734 H   0  0  0  0  0  0
  -31.3492  -21.7983   18.9446 H   0  0  0  0  0  0
  -26.4732  -22.7292   22.0120 H   0  0  0  0  0  0
  -26.0299  -23.4411   20.4589 H   0  0  0  0  0  0
  -26.9127  -24.3961   21.6621 H   0  0  0  0  0  0
  -27.5523  -25.0158   18.7183 H   0  0  0  0  0  0
  -29.1485  -25.5425   18.5288 H   0  0  0  0  0  0
  -29.0992  -18.5330   21.5870 H   0  0  0  0  0  0
  -28.6885  -18.3472   19.8962 H   0  0  0  0  0  0
  -31.3133  -17.3148   21.1763 H   0  0  0  0  0  0
  -30.9285  -17.2021   19.4862 H   0  0  0  0  0  0
  -31.1613  -19.6201   19.8682 H   0  0  0  0  0  0
  -28.9680  -15.6995   20.9364 H   0  0  0  0  0  0
  1 25  1  0  0  0
  1 30  2  0  0  0
  1 82  1  0  0  0
  2  3  1  0  0  0
  2 25  1  0  0  0
  2 83  1  0  0  0
  2 84  1  0  0  0
  3  4  1  0  0  0
  3 85  1  0  0  0
  3 86  1  0  0  0
  4  5  1  0  0  0
  4 87  1  0  0  0
  4 88  1  0  0  0
  5  6  1  0  0  0
  5 26  1  0  0  0
  5 89  1  0  0  0
  6 25  1  0  0  0
  6 90  1  0  0  0
  6 91  1  0  0  0
  7  8  2  0  0  0
  7 26  1  0  0  0
  7 29  1  0  0  0
  8  9  1  0  0  0
  8 22  1  0  0  0
  9 10  1  0  0  0
  9 27  2  0  0  0
 10 11  2  0  0  0
 10 15  1  0  0  0
 11 12  1  0  0  0
 11 92  1  0  0  0
 12 13  2  0  0  0
 12 93  1  0  0  0
 13 14  1  0  0  0
 13 31  1  0  0  0
 14 15  2  0  0  0
 14 94  1  0  0  0
 15 95  1  0  0  0
 16 17  2  0  0  0
 16 21  1  0  0  0
 16 31  1  0  0  0
 17 18  1  0  0  0
 17 96  1  0  0  0
 18 19  2  0  0  0
 18 97  1  0  0  0
 19 20  1  0  0  0
 19 24  1  0  0  0
 20 21  2  0  0  0
 20 98  1  0  0  0
 21 23  1  0  0  0
 22 28  1  0  0  0
 22 32  2  0  0  0
 26 27  1  0  0  0
 28 99  1  0  0  0
 28100  1  0  0  0
 29101  1  0  0  0
 29102  1  0  0  0
 33 34  1  0  0  0
 33 66  1  0  0  0
 33 70  2  0  0  0
 34 36  1  0  0  0
 34 59  1  0  0  0
 34103  1  0  0  0
 35 44  2  0  0  0
 35 45  1  0  0  0
 35 68  1  0  0  0
 36 56  1  0  0  0
 36104  1  0  0  0
 37 39  1  0  0  0
 37 47  1  0  0  0
 37 66  1  0  0  0
 37105  1  0  0  0
 38 43  2  0  0  0
 38 46  1  0  0  0
 38 47  1  0  0  0
 39 64  1  0  0  0
 39 67  2  0  0  0
 40 52  1  0  0  0
 40 53  2  0  0  0
 40 58  1  0  0  0
 41106  1  0  0  0
 41107  1  0  0  0
 41108  1  0  0  0
 41 48  1  0  0  0
 42 43  1  0  0  0
 42 66  1  0  0  0
 42109  1  0  0  0
 42110  1  0  0  0
 43 44  1  0  0  0
 44111  1  0  0  0
 45 46  2  0  0  0
 45112  1  0  0  0
 46113  1  0  0  0
 47114  1  0  0  0
 47115  1  0  0  0
 48 56  1  0  0  0
 48 65  1  0  0  0
 48116  1  0  0  0
 49 50  1  0  0  0
 49 53  1  0  0  0
 49 64  1  0  0  0
 49117  1  0  0  0
 50 51  1  0  0  0
 50118  1  0  0  0
 50119  1  0  0  0
 51 52  1  0  0  0
 51120  1  0  0  0
 51121  1  0  0  0
 52122  1  0  0  0
 52123  1  0  0  0
 53 54  1  0  0  0
 54 55  2  0  0  0
 54124  1  0  0  0
 55 57  1  0  0  0
 55125  1  0  0  0
 56 69  2  0  0  0
 57 58  2  0  0  0
 57126  1  0  0  0
 58127  1  0  0  0
 59 60  1  0  0  0
 59 61  1  0  0  0
 59 62  1  0  0  0
 60128  1  0  0  0
 60129  1  0  0  0
 60130  1  0  0  0
 61131  1  0  0  0
 61132  1  0  0  0
 61133  1  0  0  0
 62134  1  0  0  0
 62135  1  0  0  0
 62136  1  0  0  0
 63 65  1  0  0  0
 63137  1  0  0  0
 63138  1  0  0  0
 63139  1  0  0  0
 64140  1  0  0  0
 65141  1  0  0  0
 68 77  1  0  0  0
 71 73  2  0  0  0
 71 74  1  0  0  0
 71142  1  0  0  0
 72 74  2  0  0  0
 72 80  1  0  0  0
 72143  1  0  0  0
 73 75  1  0  0  0
 73 76  1  0  0  0
 74 81  1  0  0  0
 75 77  1  0  0  0
 75 80  2  0  0  0
 76144  1  0  0  0
 76145  1  0  0  0
 76146  1  0  0  0
 77147  1  0  0  0
 77148  1  0  0  0
 78 79  1  0  0  0
 78 81  1  0  0  0
 78149  1  0  0  0
 78150  1  0  0  0
 79 82  1  0  0  0
 79151  1  0  0  0
 79152  1  0  0  0
 81153  1  0  0  0
 82154  1  0  0  0
M  ISO  4   1 100  68 101  77 101  82 100
M  END
> <chiral flag>
0

> <version>
0

> <s_m_source_file>
/data/baiqing/PycharmProjects/Reinvent-master-3.2/result/LINK_invent/BTK/process_docking_weight1_custom_sum_contain_oxygen_bond_distance_aromatic_linkinvent_7_9_3/rearranged_h_0123.sdf

> <i_m_source_file_index>
13

> <r_mmod_Potential_Energy-OPLS-2005>
-9.59373092651367

> <r_mmod_Stretch_Energy-OPLS-2005>
81.5196762084961

> <r_mmod_Bend_Energy-OPLS-2005>
171.46630859375

> <r_mmod_Torsional_Energy-OPLS-2005>
202.552505493164

> <r_mmod_Improper_Torsional_Energy-OPLS-2005>
7.31755495071411

> <r_mmod_Van_der_Waal_Energy-OPLS-2005>
148.65983581543

> <r_mmod_Electrostatic_Energy-OPLS-2005>
-437.596618652344

> <r_mmod_Solvation_Energy-OPLS-2005>
-238.029144287109

> <b_mmod_Minimization_Converged-OPLS-2005>
0

> <r_mmod_RMS_Derivative-OPLS-2005>
3.31671500205994

$$$$
13
                    3D
 Structure written by MMmdl.
170179  0  0  1  0            999 V2000
  -30.7161  -14.4349   20.5499 C   0  0  0  0  0  0
  -30.4200  -12.2751   19.4197 C   0  0  0  0  0  0
  -29.4977  -12.5033   18.2010 C   0  0  0  0  0  0
  -28.0183  -12.3649   18.6163 C   0  0  0  0  0  0
  -27.6674  -13.2041   19.8763 C   0  0  2  0  0  0
  -28.7134  -12.9692   20.9928 C   0  0  0  0  0  0
  -25.2665  -13.8105   20.5791 C   0  0  0  0  0  0
  -24.1831  -13.0342   20.9117 C   0  0  0  0  0  0
  -24.6485  -11.6842   20.8652 C   0  0  0  0  0  0
  -23.9173  -10.4228   21.0362 C   0  0  0  0  0  0
  -24.3670   -9.4170   21.9208 C   0  0  0  0  0  0
  -23.6285   -8.2238   22.0788 C   0  0  0  0  0  0
  -22.4290   -8.0256   21.3515 C   0  0  0  0  0  0
  -21.9932   -9.0273   20.4631 C   0  0  0  0  0  0
  -22.7323  -10.2151   20.3047 C   0  0  0  0  0  0
  -21.6849   -6.0730   22.5287 C   0  0  0  0  0  0
  -21.4018   -6.5626   23.8227 C   0  0  0  0  0  0
  -21.3678   -5.6775   24.9192 C   0  0  0  0  0  0
  -21.6063   -4.3031   24.7209 C   0  0  0  0  0  0
  -21.8806   -3.8126   23.4303 C   0  0  0  0  0  0
  -21.9201   -4.6963   22.3382 C   0  0  0  0  0  0
  -22.7875  -13.5211   21.1722 C   0  0  0  0  0  0
  -22.1602   -4.2113   21.0943 F   0  0  0  0  0  0
  -21.5698   -3.4515   25.7711 F   0  0  0  0  0  0
  -30.0413  -13.2621   20.4399 N   0  0  0  0  0  0
  -26.3069  -12.9259   20.3340 N   0  0  0  0  0  0
  -25.9401  -11.6417   20.5646 N   0  0  0  0  0  0
  -22.0526  -12.8246   22.0351 N   0  0  0  0  0  0
  -25.4469  -15.1798   20.4440 N   0  0  0  0  0  0
  -31.8644  -14.5879   20.1311 O   0  0  0  0  0  0
  -21.6649   -6.8872   21.4260 O   0  0  0  0  0  0
  -22.3606  -14.5547   20.6599 O   0  0  0  0  0  0
  -24.6166  -31.8655   23.2153 C   0  0  0  0  0  0
  -25.9070  -32.4758   23.8421 C   0  0  1  0  0  0
  -27.2098  -27.3452   20.0682 C   0  0  0  0  0  0
  -25.5953  -33.8565   24.2347 N   0  0  0  0  0  0
  -23.4011  -30.4960   21.5570 C   0  0  2  0  0  0
  -24.8521  -28.9773   20.1050 C   0  0  0  0  0  0
  -22.7389  -29.4623   22.4975 C   0  0  0  0  0  0
  -18.0263  -28.1331   22.8528 C   0  0  0  0  0  0
  -24.1483  -36.7249   23.2646 C   0  0  0  0  0  0
  -25.9503  -30.7852   21.4074 C   0  0  0  0  0  0
  -26.0151  -29.4163   20.7500 C   0  0  0  0  0  0
  -27.1814  -28.5917   20.7665 C   0  0  0  0  0  0
  -26.0644  -27.0607   19.2967 C   0  0  0  0  0  0
  -24.8791  -27.7962   19.3714 C   0  0  0  0  0  0
  -23.6128  -29.8432   20.1680 C   0  0  0  0  0  0
  -25.4108  -36.3067   24.0365 C   0  0  1  0  0  0
  -20.5862  -28.3617   23.1352 C   0  0  2  0  0  0
  -20.6747  -26.9367   22.5418 C   0  0  0  0  0  0
  -19.5702  -26.6372   21.5234 C   0  0  0  0  0  0
  -18.1890  -26.7880   22.1673 C   0  0  0  0  0  0
  -19.1520  -28.8809   23.2918 C   0  0  0  0  0  0
  -18.9456  -30.1423   23.8914 C   0  0  0  0  0  0
  -17.6467  -30.6569   24.0551 C   0  0  0  0  0  0
  -25.9052  -34.9431   23.5147 C   0  0  0  0  0  0
  -16.5346  -29.9066   23.6324 C   0  0  0  0  0  0
  -16.7265  -28.6462   23.0376 C   0  0  0  0  0  0
  -26.4479  -31.6493   25.0734 C   0  0  0  0  0  0
  -25.3754  -31.3591   26.1488 C   0  0  0  0  0  0
  -27.0310  -30.2925   24.6123 C   0  0  0  0  0  0
  -27.6043  -32.4185   25.7487 C   0  0  0  0  0  0
  -27.5556  -37.1785   24.8505 C   0  0  0  0  0  0
  -21.4125  -29.2993   22.3745 N   0  0  0  0  0  0
  -26.4281  -37.3767   23.9439 N   0  0  0  0  0  0
  -24.6719  -31.0675   22.1126 N   0  0  0  0  0  0
  -23.4176  -28.8180   23.3023 O   0  0  0  0  0  0
  -28.3378  -26.5034   20.1165 O   0  0  0  0  0  0
  -26.5593  -34.8883   22.4692 O   0  0  0  0  0  0
  -23.5352  -32.1472   23.7513 O   0  0  0  0  0  0
  -27.0016  -22.8409   19.3908 C   0  0  0  0  0  0
  -26.9153  -22.5891   20.9174 C   0  0  0  0  0  0
  -27.1087  -24.3457   19.1735 C   0  0  0  0  0  0
  -27.9314  -23.4524   21.7138 C   0  0  0  0  0  0
  -31.1841  -19.8290   19.6967 C   0  0  0  0  0  0
  -28.8637  -19.3430   19.0965 C   0  0  0  0  0  0
  -30.2935  -18.8231   18.9284 C   0  0  1  0  0  0
  -28.3747  -25.0534   19.7491 C   0  0  2  0  0  0
  -29.0362  -24.0827   20.8181 C   0  0  2  0  0  0
  -30.2451  -20.5926   20.6542 C   0  0  1  0  0  0
  -30.4125  -17.3154   19.2854 C   0  0  0  0  0  0
  -30.5745  -22.1004   20.9253 C   0  0  0  0  0  0
  -30.3348  -16.9032   20.7779 C   0  0  0  0  0  0
  -29.9695  -15.4843   20.9337 N   0  0  0  0  0  0
  -28.9098  -20.4472   20.0629 N   0  3  0  0  0  0
  -29.7485  -23.0013   20.1417 O   0  0  0  0  0  0
  -31.4679  -12.3281   19.1306 H   0  0  0  0  0  0
  -30.2815  -11.2669   19.8049 H   0  0  0  0  0  0
  -29.7225  -11.7912   17.4031 H   0  0  0  0  0  0
  -29.6793  -13.4904   17.7753 H   0  0  0  0  0  0
  -27.8365  -11.3073   18.8139 H   0  0  0  0  0  0
  -27.3661  -12.6337   17.7860 H   0  0  0  0  0  0
  -27.7157  -14.2598   19.5978 H   0  0  0  0  0  0
  -28.6697  -11.9308   21.3249 H   0  0  0  0  0  0
  -28.5015  -13.5624   21.8861 H   0  0  0  0  0  0
  -25.2793   -9.5622   22.4779 H   0  0  0  0  0  0
  -23.9973   -7.4682   22.7594 H   0  0  0  0  0  0
  -21.0876   -8.8856   19.8872 H   0  0  0  0  0  0
  -22.3805  -10.9734   19.6203 H   0  0  0  0  0  0
  -21.1895   -7.6120   23.9701 H   0  0  0  0  0  0
  -21.1592   -6.0468   25.9077 H   0  0  0  0  0  0
  -22.0550   -2.7572   23.2819 H   0  0  0  0  0  0
  -22.4141  -11.9802   22.4549 H   0  0  0  0  0  0
  -21.1201  -13.1369   22.2735 H   0  0  0  0  0  0
  -24.6881  -15.8384   20.5934 H   0  0  0  0  0  0
  -26.3169  -15.6195   20.1735 H   0  0  0  0  0  0
  -26.7079  -32.5404   23.1108 H   0  0  0  0  0  0
  -25.0142  -33.9699   25.0520 H   0  0  0  0  0  0
  -22.6898  -31.3093   21.4180 H   0  0  0  0  0  0
  -23.3759  -35.9553   23.3313 H   0  0  0  0  0  0
  -24.3591  -36.8855   22.2052 H   0  0  0  0  0  0
  -23.7194  -37.6449   23.6648 H   0  0  0  0  0  0
  -26.0972  -31.5529   20.6437 H   0  0  0  0  0  0
  -26.8277  -30.8169   22.0423 H   0  0  0  0  0  0
  -28.0498  -28.9119   21.3294 H   0  0  0  0  0  0
  -26.0203  -26.3105   18.5350 H   0  0  0  0  0  0
  -24.0259  -27.4950   18.7768 H   0  0  0  0  0  0
  -23.7128  -30.6178   19.4049 H   0  0  0  0  0  0
  -22.7384  -29.2575   19.8745 H   0  0  0  0  0  0
  -25.1276  -36.1912   25.0858 H   0  0  0  0  0  0
  -20.9942  -28.3168   24.1488 H   0  0  0  0  0  0
  -20.5707  -26.2228   23.3592 H   0  0  0  0  0  0
  -21.6600  -26.7452   22.1169 H   0  0  0  0  0  0
  -19.6867  -25.6312   21.1187 H   0  0  0  0  0  0
  -19.6573  -27.3257   20.6816 H   0  0  0  0  0  0
  -17.4149  -26.6651   21.4065 H   0  0  0  0  0  0
  -18.0283  -25.9986   22.9046 H   0  0  0  0  0  0
  -19.7953  -30.7220   24.2250 H   0  0  0  0  0  0
  -17.5042  -31.6261   24.5124 H   0  0  0  0  0  0
  -15.5347  -30.2976   23.7657 H   0  0  0  0  0  0
  -15.8645  -28.0791   22.7090 H   0  0  0  0  0  0
  -24.5945  -30.6893   25.7881 H   0  0  0  0  0  0
  -24.8920  -32.2728   26.4942 H   0  0  0  0  0  0
  -25.8165  -30.8787   27.0222 H   0  0  0  0  0  0
  -26.2948  -29.6724   24.0997 H   0  0  0  0  0  0
  -27.3901  -29.7092   25.4599 H   0  0  0  0  0  0
  -27.8833  -30.4229   23.9449 H   0  0  0  0  0  0
  -27.2682  -33.3488   26.2044 H   0  0  0  0  0  0
  -28.3875  -32.6688   25.0331 H   0  0  0  0  0  0
  -28.0636  -31.8271   26.5409 H   0  0  0  0  0  0
  -28.2650  -38.0012   24.7527 H   0  0  0  0  0  0
  -28.0990  -36.2566   24.6388 H   0  0  0  0  0  0
  -27.2289  -37.1503   25.8915 H   0  0  0  0  0  0
  -20.9275  -29.8685   21.6933 H   0  0  0  0  0  0
  -26.0163  -38.2841   24.1436 H   0  0  0  0  0  0
  -26.1214  -22.4416   18.8789 H   0  0  0  0  0  0
  -27.8475  -22.3857   18.8880 H   0  0  0  0  0  0
  -27.0021  -21.5376   21.1781 H   0  0  0  0  0  0
  -25.9062  -22.8465   21.2451 H   0  0  0  0  0  0
  -26.2268  -24.6681   19.7145 H   0  0  0  0  0  0
  -26.9991  -24.5717   18.1126 H   0  0  0  0  0  0
  -28.3405  -22.8631   22.5330 H   0  0  0  0  0  0
  -27.3876  -24.2712   22.1856 H   0  0  0  0  0  0
  -31.6135  -20.5385   18.9856 H   0  0  0  0  0  0
  -32.0298  -19.3649   20.2215 H   0  0  0  0  0  0
  -28.1613  -18.5811   19.4381 H   0  0  0  0  0  0
  -28.4619  -19.7525   18.1658 H   0  0  0  0  0  0
  -30.5285  -18.8762   17.8632 H   0  0  0  0  0  0
  -29.0913  -25.0708   18.9286 H   0  0  0  0  0  0
  -29.7654  -24.6426   21.3971 H   0  0  0  0  0  0
  -30.2438  -20.0562   21.6033 H   0  0  0  0  0  0
  -31.3304  -16.9220   18.8415 H   0  0  0  0  0  0
  -29.6151  -16.8063   18.7501 H   0  0  0  0  0  0
  -31.6221  -22.2797   20.6819 H   0  0  0  0  0  0
  -30.4916  -22.3180   21.9895 H   0  0  0  0  0  0
  -31.2769  -17.1156   21.2931 H   0  0  0  0  0  0
  -29.5789  -17.4990   21.2954 H   0  0  0  0  0  0
  -29.0183  -15.2859   21.2148 H   0  0  0  0  0  0
  -28.1745  -20.3681   20.7496 H   0  0  0  0  0  0
  -28.7459  -21.3012   19.5473 H   0  0  0  0  0  0
  1 25  1  0  0  0
  1 30  2  0  0  0
  1 84  1  0  0  0
  2  3  1  0  0  0
  2 25  1  0  0  0
  2 87  1  0  0  0
  2 88  1  0  0  0
  3  4  1  0  0  0
  3 89  1  0  0  0
  3 90  1  0  0  0
  4  5  1  0  0  0
  4 91  1  0  0  0
  4 92  1  0  0  0
  5  6  1  0  0  0
  5 26  1  0  0  0
  5 93  1  0  0  0
  6 25  1  0  0  0
  6 94  1  0  0  0
  6 95  1  0  0  0
  7  8  2  0  0  0
  7 26  1  0  0  0
  7 29  1  0  0  0
  8  9  1  0  0  0
  8 22  1  0  0  0
  9 10  1  0  0  0
  9 27  2  0  0  0
 10 11  2  0  0  0
 10 15  1  0  0  0
 11 12  1  0  0  0
 11 96  1  0  0  0
 12 13  2  0  0  0
 12 97  1  0  0  0
 13 14  1  0  0  0
 13 31  1  0  0  0
 14 15  2  0  0  0
 14 98  1  0  0  0
 15 99  1  0  0  0
 16 17  2  0  0  0
 16 21  1  0  0  0
 16 31  1  0  0  0
 17 18  1  0  0  0
 17100  1  0  0  0
 18 19  2  0  0  0
 18101  1  0  0  0
 19 20  1  0  0  0
 19 24  1  0  0  0
 20 21  2  0  0  0
 20102  1  0  0  0
 21 23  1  0  0  0
 22 28  1  0  0  0
 22 32  2  0  0  0
 26 27  1  0  0  0
 28103  1  0  0  0
 28104  1  0  0  0
 29105  1  0  0  0
 29106  1  0  0  0
 33 34  1  0  0  0
 33 66  1  0  0  0
 33 70  2  0  0  0
 34 36  1  0  0  0
 34 59  1  0  0  0
 34107  1  0  0  0
 35 44  2  0  0  0
 35 45  1  0  0  0
 35 68  1  0  0  0
 36 56  1  0  0  0
 36108  1  0  0  0
 37 39  1  0  0  0
 37 47  1  0  0  0
 37 66  1  0  0  0
 37109  1  0  0  0
 38 43  2  0  0  0
 38 46  1  0  0  0
 38 47  1  0  0  0
 39 64  1  0  0  0
 39 67  2  0  0  0
 40 52  1  0  0  0
 40 53  2  0  0  0
 40 58  1  0  0  0
 41110  1  0  0  0
 41111  1  0  0  0
 41112  1  0  0  0
 41 48  1  0  0  0
 42 43  1  0  0  0
 42 66  1  0  0  0
 42113  1  0  0  0
 42114  1  0  0  0
 43 44  1  0  0  0
 44115  1  0  0  0
 45 46  2  0  0  0
 45116  1  0  0  0
 46117  1  0  0  0
 47118  1  0  0  0
 47119  1  0  0  0
 48 56  1  0  0  0
 48 65  1  0  0  0
 48120  1  0  0  0
 49 50  1  0  0  0
 49 53  1  0  0  0
 49 64  1  0  0  0
 49121  1  0  0  0
 50 51  1  0  0  0
 50122  1  0  0  0
 50123  1  0  0  0
 51 52  1  0  0  0
 51124  1  0  0  0
 51125  1  0  0  0
 52126  1  0  0  0
 52127  1  0  0  0
 53 54  1  0  0  0
 54 55  2  0  0  0
 54128  1  0  0  0
 55 57  1  0  0  0
 55129  1  0  0  0
 56 69  2  0  0  0
 57 58  2  0  0  0
 57130  1  0  0  0
 58131  1  0  0  0
 59 60  1  0  0  0
 59 61  1  0  0  0
 59 62  1  0  0  0
 60132  1  0  0  0
 60133  1  0  0  0
 60134  1  0  0  0
 61135  1  0  0  0
 61136  1  0  0  0
 61137  1  0  0  0
 62138  1  0  0  0
 62139  1  0  0  0
 62140  1  0  0  0
 63 65  1  0  0  0
 63141  1  0  0  0
 63142  1  0  0  0
 63143  1  0  0  0
 64144  1  0  0  0
 65145  1  0  0  0
 68 78  1  0  0  0
 71 72  1  0  0  0
 71 73  1  0  0  0
 71146  1  0  0  0
 71147  1  0  0  0
 72 74  1  0  0  0
 72148  1  0  0  0
 72149  1  0  0  0
 73 78  1  0  0  0
 73150  1  0  0  0
 73151  1  0  0  0
 74 79  1  0  0  0
 74152  1  0  0  0
 74153  1  0  0  0
 75 77  1  0  0  0
 75 80  1  0  0  0
 75154  1  0  0  0
 75155  1  0  0  0
 76 77  1  0  0  0
 76 85  1  0  0  0
 76156  1  0  0  0
 76157  1  0  0  0
 77 81  1  0  0  0
 77158  1  0  0  0
 78 79  1  0  0  0
 78159  1  0  0  0
 79 86  1  0  0  0
 79160  1  0  0  0
 80 82  1  0  0  0
 80 85  1  0  0  0
 80161  1  0  0  0
 81 83  1  0  0  0
 81162  1  0  0  0
 81163  1  0  0  0
 82 86  1  0  0  0
 82164  1  0  0  0
 82165  1  0  0  0
 83 84  1  0  0  0
 83166  1  0  0  0
 83167  1  0  0  0
 84168  1  0  0  0
 85169  1  0  0  0
 85170  1  0  0  0
M  CHG  1  85   1
M  ISO  4   1 100  68 101  78 101  84 100
M  END
> <chiral flag>
0

> <version>
0

> <s_m_source_file>
/data/baiqing/PycharmProjects/Reinvent-master-3.2/result/LINK_invent/BTK/process_docking_weight1_custom_sum_contain_oxygen_bond_distance_aromatic_linkinvent_7_9_3/rearranged_h_0123.sdf

> <i_m_source_file_index>
14

> <r_mmod_Potential_Energy-OPLS-2005>
121.649215698242

> <r_mmod_Stretch_Energy-OPLS-2005>
63.3105430603027

> <r_mmod_Bend_Energy-OPLS-2005>
180.866821289062

> <r_mmod_Torsional_Energy-OPLS-2005>
369.856353759766

> <r_mmod_Improper_Torsional_Energy-OPLS-2005>
5.58245801925659

> <r_mmod_Van_der_Waal_Energy-OPLS-2005>
172.551605224609

> <r_mmod_Electrostatic_Energy-OPLS-2005>
-266.723663330078

> <r_mmod_Solvation_Energy-OPLS-2005>
-438.494842529297

> <b_mmod_Minimization_Converged-OPLS-2005>
0

> <r_mmod_RMS_Derivative-OPLS-2005>
10.2267541885376

$$$$
14
                    3D
 Structure written by MMmdl.
163172  0  0  1  0            999 V2000
  -30.5998  -14.5182   20.2880 C   0  0  0  0  0  0
  -30.4618  -12.1974   19.5001 C   0  0  0  0  0  0
  -29.5631  -12.2565   18.2533 C   0  0  0  0  0  0
  -28.0513  -12.2857   18.6134 C   0  0  0  0  0  0
  -27.6628  -13.1675   19.8392 C   0  0  2  0  0  0
  -28.7074  -13.0105   20.9705 C   0  0  0  0  0  0
  -25.2646  -13.8079   20.5534 C   0  0  0  0  0  0
  -24.1878  -13.0416   20.9164 C   0  0  0  0  0  0
  -24.6380  -11.6872   20.8745 C   0  0  0  0  0  0
  -23.9021  -10.4272   21.0379 C   0  0  0  0  0  0
  -24.3603   -9.4206   21.9156 C   0  0  0  0  0  0
  -23.6316   -8.2233   22.0713 C   0  0  0  0  0  0
  -22.4330   -8.0222   21.3511 C   0  0  0  0  0  0
  -21.9923   -9.0168   20.4606 C   0  0  0  0  0  0
  -22.7205  -10.2081   20.3021 C   0  0  0  0  0  0
  -21.6847   -6.0695   22.5256 C   0  0  0  0  0  0
  -21.3982   -6.5589   23.8184 C   0  0  0  0  0  0
  -21.3693   -5.6750   24.9163 C   0  0  0  0  0  0
  -21.6046   -4.3004   24.7214 C   0  0  0  0  0  0
  -21.8849   -3.8102   23.4334 C   0  0  0  0  0  0
  -21.9186   -4.6929   22.3395 C   0  0  0  0  0  0
  -22.7889  -13.5259   21.1819 C   0  0  0  0  0  0
  -22.1655   -4.2131   21.0968 F   0  0  0  0  0  0
  -21.5668   -3.4482   25.7726 F   0  0  0  0  0  0
  -30.0354  -13.2792   20.3964 N   0  0  0  0  0  0
  -26.3043  -12.9154   20.3159 N   0  0  0  0  0  0
  -25.9312  -11.6402   20.5809 N   0  0  0  0  0  0
  -22.0474  -12.8263   22.0370 N   0  0  0  0  0  0
  -25.4344  -15.1811   20.3875 N   0  0  0  0  0  0
  -31.8081  -14.7020   20.1161 O   0  0  0  0  0  0
  -21.6666   -6.8839   21.4223 O   0  0  0  0  0  0
  -22.3546  -14.5526   20.6620 O   0  0  0  0  0  0
  -24.6182  -31.8663   23.2075 C   0  0  0  0  0  0
  -25.9080  -32.4790   23.8359 C   0  0  1  0  0  0
  -27.2132  -27.3747   20.0953 C   0  0  0  0  0  0
  -25.5896  -33.8584   24.2244 N   0  0  0  0  0  0
  -23.4052  -30.4959   21.5484 C   0  0  2  0  0  0
  -24.8469  -28.9600   20.1145 C   0  0  0  0  0  0
  -22.7402  -29.4693   22.4945 C   0  0  0  0  0  0
  -18.0282  -28.1438   22.8452 C   0  0  0  0  0  0
  -24.1488  -36.7319   23.2637 C   0  0  0  0  0  0
  -25.9427  -30.8160   21.3654 C   0  0  0  0  0  0
  -26.0170  -29.4487   20.7078 C   0  0  0  0  0  0
  -27.2027  -28.6654   20.6949 C   0  0  0  0  0  0
  -26.0127  -26.9253   19.4915 C   0  0  0  0  0  0
  -24.8405  -27.6973   19.5073 C   0  0  0  0  0  0
  -23.6173  -29.8373   20.1613 C   0  0  0  0  0  0
  -25.4105  -36.3075   24.0310 C   0  0  1  0  0  0
  -20.5881  -28.3723   23.1265 C   0  0  2  0  0  0
  -20.6793  -26.9439   22.5424 C   0  0  0  0  0  0
  -19.5774  -26.6402   21.5227 C   0  0  0  0  0  0
  -18.1941  -26.7980   22.1613 C   0  0  0  0  0  0
  -19.1533  -28.8897   23.2862 C   0  0  0  0  0  0
  -18.9478  -30.1511   23.8872 C   0  0  0  0  0  0
  -17.6476  -30.6622   24.0583 C   0  0  0  0  0  0
  -25.9046  -34.9453   23.5069 C   0  0  0  0  0  0
  -16.5358  -29.9128   23.6341 C   0  0  0  0  0  0
  -16.7267  -28.6571   23.0284 C   0  0  0  0  0  0
  -26.4445  -31.6580   25.0709 C   0  0  0  0  0  0
  -25.3721  -31.3711   26.1470 C   0  0  0  0  0  0
  -27.0245  -30.2992   24.6143 C   0  0  0  0  0  0
  -27.5971  -32.4310   25.7523 C   0  0  0  0  0  0
  -27.5557  -37.1820   24.8437 C   0  0  0  0  0  0
  -21.4125  -29.3093   22.3665 N   0  0  0  0  0  0
  -26.4264  -37.3787   23.9397 N   0  0  0  0  0  0
  -24.6754  -31.0729   22.0996 N   0  0  0  0  0  0
  -23.4152  -28.8253   23.3011 O   0  0  0  0  0  0
  -28.3541  -26.5718   20.1119 O   0  0  0  0  0  0
  -26.5629  -34.8920   22.4641 O   0  0  0  0  0  0
  -23.5353  -32.1472   23.7438 O   0  0  0  0  0  0
  -29.1090  -18.2243   17.5088 C   0  0  0  0  0  0
  -29.4376  -19.3546   18.2781 C   0  0  0  0  0  0
  -30.1195  -17.8919   20.1017 C   0  0  0  0  0  0
  -29.1892  -16.9226   18.0559 C   0  0  0  0  0  0
  -29.9158  -19.2040   19.5910 C   0  0  0  0  0  0
  -29.7403  -16.7409   19.3647 C   0  0  0  0  0  0
  -27.9746  -15.8593   15.8726 C   0  0  0  0  0  0
  -27.1202  -15.6721   17.1046 C   0  0  0  0  0  0
  -28.6272  -15.7831   17.2456 C   0  0  0  0  0  0
  -29.3985  -24.2231   20.1758 C   0  0  0  0  0  0
  -30.2537  -21.8566   19.9231 C   0  0  0  0  0  0
  -28.1352  -25.1272   20.1170 C   0  0  0  0  0  0
  -30.1665  -20.4041   20.5151 C   0  0  1  0  0  0
  -29.6685  -15.4723   20.0529 N   0  0  0  0  0  0
  -29.0864  -22.7488   20.2025 N   0  3  0  0  0  0
  -29.2613  -20.3764   21.4995 F   0  0  0  0  0  0
  -31.5156  -12.2760   19.2217 H   0  0  0  0  0  0
  -30.3509  -11.2246   19.9903 H   0  0  0  0  0  0
  -29.7577  -11.3711   17.6446 H   0  0  0  0  0  0
  -29.9065  -13.0696   17.6329 H   0  0  0  0  0  0
  -27.7852  -11.2532   18.8336 H   0  0  0  0  0  0
  -27.4578  -12.5495   17.7373 H   0  0  0  0  0  0
  -27.6617  -14.1878   19.4747 H   0  0  0  0  0  0
  -28.6758  -11.9963   21.3734 H   0  0  0  0  0  0
  -28.5024  -13.6678   21.8155 H   0  0  0  0  0  0
  -25.2720   -9.5727   22.4719 H   0  0  0  0  0  0
  -23.9992   -7.4614   22.7436 H   0  0  0  0  0  0
  -21.0845   -8.8646   19.8933 H   0  0  0  0  0  0
  -22.3597  -10.9594   19.6134 H   0  0  0  0  0  0
  -21.1940   -7.6085   23.9687 H   0  0  0  0  0  0
  -21.1521   -6.0471   25.9065 H   0  0  0  0  0  0
  -22.0641   -2.7574   23.2819 H   0  0  0  0  0  0
  -22.4040  -11.9901   22.4779 H   0  0  0  0  0  0
  -21.1029  -13.1171   22.2417 H   0  0  0  0  0  0
  -24.6660  -15.8313   20.5096 H   0  0  0  0  0  0
  -26.2702  -15.6302   20.0331 H   0  0  0  0  0  0
  -26.7150  -32.5462   23.1106 H   0  0  0  0  0  0
  -24.9930  -33.9740   25.0305 H   0  0  0  0  0  0
  -22.6993  -31.3188   21.4077 H   0  0  0  0  0  0
  -23.3728  -35.9676   23.3295 H   0  0  0  0  0  0
  -24.3589  -36.8970   22.2058 H   0  0  0  0  0  0
  -23.7293  -37.6533   23.6682 H   0  0  0  0  0  0
  -26.0601  -31.5850   20.6030 H   0  0  0  0  0  0
  -26.8273  -30.8647   21.9883 H   0  0  0  0  0  0
  -28.0991  -29.0388   21.1711 H   0  0  0  0  0  0
  -25.9256  -25.9722   18.9954 H   0  0  0  0  0  0
  -23.9363  -27.3090   19.0544 H   0  0  0  0  0  0
  -23.7396  -30.6194   19.4101 H   0  0  0  0  0  0
  -22.7360  -29.2741   19.8487 H   0  0  0  0  0  0
  -25.1309  -36.1877   25.0811 H   0  0  0  0  0  0
  -20.9959  -28.3347   24.1394 H   0  0  0  0  0  0
  -20.5701  -26.2362   23.3641 H   0  0  0  0  0  0
  -21.6660  -26.7512   22.1208 H   0  0  0  0  0  0
  -19.6938  -25.6298   21.1282 H   0  0  0  0  0  0
  -19.6727  -27.3198   20.6733 H   0  0  0  0  0  0
  -17.4217  -26.6689   21.4019 H   0  0  0  0  0  0
  -18.0346  -26.0145   22.9026 H   0  0  0  0  0  0
  -19.7973  -30.7343   24.2182 H   0  0  0  0  0  0
  -17.5047  -31.6294   24.5205 H   0  0  0  0  0  0
  -15.5359  -30.3019   23.7735 H   0  0  0  0  0  0
  -15.8663  -28.0933   22.6915 H   0  0  0  0  0  0
  -24.5890  -30.7032   25.7864 H   0  0  0  0  0  0
  -24.8917  -32.2866   26.4931 H   0  0  0  0  0  0
  -25.8107  -30.8903   27.0233 H   0  0  0  0  0  0
  -26.2812  -29.6825   24.1066 H   0  0  0  0  0  0
  -27.3815  -29.7155   25.4649 H   0  0  0  0  0  0
  -27.8746  -30.4254   23.9436 H   0  0  0  0  0  0
  -27.2516  -33.3572   26.2144 H   0  0  0  0  0  0
  -28.3804  -32.6952   25.0402 H   0  0  0  0  0  0
  -28.0624  -31.8415   26.5445 H   0  0  0  0  0  0
  -28.2539  -38.0147   24.7474 H   0  0  0  0  0  0
  -28.1084  -36.2670   24.6241 H   0  0  0  0  0  0
  -27.2279  -37.1446   25.8844 H   0  0  0  0  0  0
  -20.9296  -29.8816   21.6876 H   0  0  0  0  0  0
  -26.0108  -38.2833   24.1469 H   0  0  0  0  0  0
  -28.7451  -18.3886   16.5078 H   0  0  0  0  0  0
  -29.2862  -20.3329   17.8442 H   0  0  0  0  0  0
  -30.4907  -17.7738   21.1074 H   0  0  0  0  0  0
  -28.0002  -16.8120   15.3567 H   0  0  0  0  0  0
  -27.9814  -14.9883   15.2152 H   0  0  0  0  0  0
  -26.6757  -14.6965   17.2986 H   0  0  0  0  0  0
  -26.4968  -16.5213   17.3762 H   0  0  0  0  0  0
  -29.2696  -14.9316   17.3402 H   0  0  0  0  0  0
  -29.9795  -24.4778   21.0632 H   0  0  0  0  0  0
  -30.0316  -24.4456   19.3140 H   0  0  0  0  0  0
  -30.5178  -21.8680   18.8635 H   0  0  0  0  0  0
  -31.0984  -22.3188   20.4332 H   0  0  0  0  0  0
  -27.4992  -24.8915   20.9704 H   0  0  0  0  0  0
  -27.6022  -24.8126   19.2222 H   0  0  0  0  0  0
  -31.1222  -20.1812   20.9923 H   0  0  0  0  0  0
  -28.7453  -15.0776   20.0886 H   0  0  0  0  0  0
  -28.3418  -22.5359   19.5545 H   0  0  0  0  0  0
  -28.7540  -22.4922   21.1242 H   0  0  0  0  0  0
  1 25  1  0  0  0
  1 30  2  0  0  0
  1 84  1  0  0  0
  2  3  1  0  0  0
  2 25  1  0  0  0
  2 87  1  0  0  0
  2 88  1  0  0  0
  3  4  1  0  0  0
  3 89  1  0  0  0
  3 90  1  0  0  0
  4  5  1  0  0  0
  4 91  1  0  0  0
  4 92  1  0  0  0
  5  6  1  0  0  0
  5 26  1  0  0  0
  5 93  1  0  0  0
  6 25  1  0  0  0
  6 94  1  0  0  0
  6 95  1  0  0  0
  7  8  2  0  0  0
  7 26  1  0  0  0
  7 29  1  0  0  0
  8  9  1  0  0  0
  8 22  1  0  0  0
  9 10  1  0  0  0
  9 27  2  0  0  0
 10 11  2  0  0  0
 10 15  1  0  0  0
 11 12  1  0  0  0
 11 96  1  0  0  0
 12 13  2  0  0  0
 12 97  1  0  0  0
 13 14  1  0  0  0
 13 31  1  0  0  0
 14 15  2  0  0  0
 14 98  1  0  0  0
 15 99  1  0  0  0
 16 17  2  0  0  0
 16 21  1  0  0  0
 16 31  1  0  0  0
 17 18  1  0  0  0
 17100  1  0  0  0
 18 19  2  0  0  0
 18101  1  0  0  0
 19 20  1  0  0  0
 19 24  1  0  0  0
 20 21  2  0  0  0
 20102  1  0  0  0
 21 23  1  0  0  0
 22 28  1  0  0  0
 22 32  2  0  0  0
 26 27  1  0  0  0
 28103  1  0  0  0
 28104  1  0  0  0
 29105  1  0  0  0
 29106  1  0  0  0
 33 34  1  0  0  0
 33 66  1  0  0  0
 33 70  2  0  0  0
 34 36  1  0  0  0
 34 59  1  0  0  0
 34107  1  0  0  0
 35 44  2  0  0  0
 35 45  1  0  0  0
 35 68  1  0  0  0
 36 56  1  0  0  0
 36108  1  0  0  0
 37 39  1  0  0  0
 37 47  1  0  0  0
 37 66  1  0  0  0
 37109  1  0  0  0
 38 43  2  0  0  0
 38 46  1  0  0  0
 38 47  1  0  0  0
 39 64  1  0  0  0
 39 67  2  0  0  0
 40 52  1  0  0  0
 40 53  2  0  0  0
 40 58  1  0  0  0
 41110  1  0  0  0
 41111  1  0  0  0
 41112  1  0  0  0
 41 48  1  0  0  0
 42 43  1  0  0  0
 42 66  1  0  0  0
 42113  1  0  0  0
 42114  1  0  0  0
 43 44  1  0  0  0
 44115  1  0  0  0
 45 46  2  0  0  0
 45116  1  0  0  0
 46117  1  0  0  0
 47118  1  0  0  0
 47119  1  0  0  0
 48 56  1  0  0  0
 48 65  1  0  0  0
 48120  1  0  0  0
 49 50  1  0  0  0
 49 53  1  0  0  0
 49 64  1  0  0  0
 49121  1  0  0  0
 50 51  1  0  0  0
 50122  1  0  0  0
 50123  1  0  0  0
 51 52  1  0  0  0
 51124  1  0  0  0
 51125  1  0  0  0
 52126  1  0  0  0
 52127  1  0  0  0
 53 54  1  0  0  0
 54 55  2  0  0  0
 54128  1  0  0  0
 55 57  1  0  0  0
 55129  1  0  0  0
 56 69  2  0  0  0
 57 58  2  0  0  0
 57130  1  0  0  0
 58131  1  0  0  0
 59 60  1  0  0  0
 59 61  1  0  0  0
 59 62  1  0  0  0
 60132  1  0  0  0
 60133  1  0  0  0
 60134  1  0  0  0
 61135  1  0  0  0
 61136  1  0  0  0
 61137  1  0  0  0
 62138  1  0  0  0
 62139  1  0  0  0
 62140  1  0  0  0
 63 65  1  0  0  0
 63141  1  0  0  0
 63142  1  0  0  0
 63143  1  0  0  0
 64144  1  0  0  0
 65145  1  0  0  0
 68 82  1  0  0  0
 71 72  2  0  0  0
 71 74  1  0  0  0
 71146  1  0  0  0
 72 75  1  0  0  0
 72147  1  0  0  0
 73 75  2  0  0  0
 73 76  1  0  0  0
 73148  1  0  0  0
 74 76  2  0  0  0
 74 79  1  0  0  0
 75 83  1  0  0  0
 76 84  1  0  0  0
 77 78  1  0  0  0
 77 79  1  0  0  0
 77149  1  0  0  0
 77150  1  0  0  0
 78 79  1  0  0  0
 78151  1  0  0  0
 78152  1  0  0  0
 79153  1  0  0  0
 80 82  1  0  0  0
 80 85  1  0  0  0
 80154  1  0  0  0
 80155  1  0  0  0
 81 83  1  0  0  0
 81 85  1  0  0  0
 81156  1  0  0  0
 81157  1  0  0  0
 82158  1  0  0  0
 82159  1  0  0  0
 83 86  1  0  0  0
 83160  1  0  0  0
 84161  1  0  0  0
 85162  1  0  0  0
 85163  1  0  0  0
M  CHG  1  85   1
M  ISO  4   1 100  68 101  82 101  84 100
M  END
> <chiral flag>
0

> <version>
0

> <s_m_source_file>
/data/baiqing/PycharmProjects/Reinvent-master-3.2/result/LINK_invent/BTK/process_docking_weight1_custom_sum_contain_oxygen_bond_distance_aromatic_linkinvent_7_9_3/rearranged_h_0123.sdf

> <i_m_source_file_index>
15

> <r_mmod_Potential_Energy-OPLS-2005>
-11.753472328186

> <r_mmod_Stretch_Energy-OPLS-2005>
52.8364906311035

> <r_mmod_Bend_Energy-OPLS-2005>
132.799743652344

> <r_mmod_Torsional_Energy-OPLS-2005>
323.838806152344

> <r_mmod_Improper_Torsional_Energy-OPLS-2005>
12.1431579589844

> <r_mmod_Van_der_Waal_Energy-OPLS-2005>
151.657318115234

> <r_mmod_Electrostatic_Energy-OPLS-2005>
-284.531707763672

> <r_mmod_Solvation_Energy-OPLS-2005>
-449.291351318359

> <b_mmod_Minimization_Converged-OPLS-2005>
0

> <r_mmod_RMS_Derivative-OPLS-2005>
8.24495315551758

$$$$
15
                    3D
 Structure written by MMmdl.
174183  0  0  1  0            999 V2000
  -30.5180  -14.8721   20.4278 C   0  0  0  0  0  0
  -30.4482  -12.5352   19.4630 C   0  0  0  0  0  0
  -29.5129  -12.5268   18.2307 C   0  0  0  0  0  0
  -28.0416  -12.3311   18.6490 C   0  0  0  0  0  0
  -27.6354  -13.2300   19.8447 C   0  0  2  0  0  0
  -28.6856  -13.1939   20.9755 C   0  0  0  0  0  0
  -25.2489  -13.8172   20.5671 C   0  0  0  0  0  0
  -24.1805  -13.0434   20.9256 C   0  0  0  0  0  0
  -24.6378  -11.6904   20.8781 C   0  0  0  0  0  0
  -23.9044  -10.4295   21.0436 C   0  0  0  0  0  0
  -24.3608   -9.4220   21.9201 C   0  0  0  0  0  0
  -23.6292   -8.2251   22.0765 C   0  0  0  0  0  0
  -22.4281   -8.0273   21.3551 C   0  0  0  0  0  0
  -21.9906   -9.0258   20.4664 C   0  0  0  0  0  0
  -22.7214  -10.2149   20.3082 C   0  0  0  0  0  0
  -21.6855   -6.0718   22.5275 C   0  0  0  0  0  0
  -21.4023   -6.5633   23.8203 C   0  0  0  0  0  0
  -21.3672   -5.6788   24.9169 C   0  0  0  0  0  0
  -21.6043   -4.3049   24.7221 C   0  0  0  0  0  0
  -21.8822   -3.8129   23.4347 C   0  0  0  0  0  0
  -21.9201   -4.6945   22.3401 C   0  0  0  0  0  0
  -22.7840  -13.5274   21.1886 C   0  0  0  0  0  0
  -22.1662   -4.2129   21.0980 F   0  0  0  0  0  0
  -21.5619   -3.4534   25.7736 F   0  0  0  0  0  0
  -29.9701  -13.5969   20.3868 N   0  0  0  0  0  0
  -26.2906  -12.9361   20.3255 N   0  0  0  0  0  0
  -25.9308  -11.6508   20.5762 N   0  0  0  0  0  0
  -22.0444  -12.8299   22.0428 N   0  0  0  0  0  0
  -25.4062  -15.1888   20.3921 N   0  0  0  0  0  0
  -31.7189  -15.0030   20.1639 O   0  0  0  0  0  0
  -21.6656   -6.8864   21.4233 O   0  0  0  0  0  0
  -22.3592  -14.5597   20.6705 O   0  0  0  0  0  0
  -24.6401  -31.8501   23.1890 C   0  0  0  0  0  0
  -25.9197  -32.4715   23.8278 C   0  0  1  0  0  0
  -27.2134  -27.1813   20.1547 C   0  0  0  0  0  0
  -25.5981  -33.8518   24.2212 N   0  0  0  0  0  0
  -23.4386  -30.4705   21.5355 C   0  0  2  0  0  0
  -24.8866  -28.8950   20.1152 C   0  0  0  0  0  0
  -22.7544  -29.4601   22.4881 C   0  0  0  0  0  0
  -18.0317  -28.1399   22.8466 C   0  0  0  0  0  0
  -24.1488  -36.7257   23.2633 C   0  0  0  0  0  0
  -25.9905  -30.7374   21.3808 C   0  0  0  0  0  0
  -26.0624  -29.3505   20.7259 C   0  0  0  0  0  0
  -27.2318  -28.5103   20.7237 C   0  0  0  0  0  0
  -26.0136  -26.8049   19.5194 C   0  0  0  0  0  0
  -24.8722  -27.6332   19.4969 C   0  0  0  0  0  0
  -23.6642  -29.7968   20.1553 C   0  0  0  0  0  0
  -25.4120  -36.3044   24.0311 C   0  0  1  0  0  0
  -20.5916  -28.3729   23.1263 C   0  0  2  0  0  0
  -20.6780  -26.9440   22.5408 C   0  0  0  0  0  0
  -19.5750  -26.6374   21.5222 C   0  0  0  0  0  0
  -18.1942  -26.7930   22.1621 C   0  0  0  0  0  0
  -19.1565  -28.8871   23.2867 C   0  0  0  0  0  0
  -18.9492  -30.1471   23.8884 C   0  0  0  0  0  0
  -17.6494  -30.6598   24.0555 C   0  0  0  0  0  0
  -25.9070  -34.9426   23.5061 C   0  0  0  0  0  0
  -16.5385  -29.9104   23.6322 C   0  0  0  0  0  0
  -16.7312  -28.6528   23.0340 C   0  0  0  0  0  0
  -26.4536  -31.6562   25.0693 C   0  0  0  0  0  0
  -25.3703  -31.3751   26.1371 C   0  0  0  0  0  0
  -27.0389  -30.2962   24.6244 C   0  0  0  0  0  0
  -27.6079  -32.4314   25.7468 C   0  0  0  0  0  0
  -27.5572  -37.1792   24.8469 C   0  0  0  0  0  0
  -21.4236  -29.3079   22.3641 N   0  0  0  0  0  0
  -26.4282  -37.3758   23.9403 N   0  0  0  0  0  0
  -24.7093  -31.0400   22.0912 N   0  0  0  0  0  0
  -23.4216  -28.8144   23.3010 O   0  0  0  0  0  0
  -28.2877  -26.2416   20.1481 O   0  0  0  0  0  0
  -26.5657  -34.8918   22.4638 O   0  0  0  0  0  0
  -23.5547  -32.1366   23.7153 O   0  0  0  0  0  0
  -28.2695  -18.0628   20.3361 C   0  0  0  0  0  0
  -30.3352  -19.7589   20.6323 C   0  0  0  0  0  0
  -28.0121  -19.4851   20.3553 C   0  0  0  0  0  0
  -29.0672  -20.4359   20.5503 C   0  0  0  0  0  0
  -29.5602  -17.4613   20.4803 C   0  0  0  0  0  0
  -22.4008  -19.9789   21.3347 C   0  0  0  0  0  0
  -23.4931  -19.3020   22.1446 C   0  0  1  0  0  0
  -22.1496  -18.6300   21.9621 C   0  0  1  0  0  0
  -19.7486  -18.5732   22.7409 C   0  0  0  0  0  0
  -21.4920  -17.0992   23.8344 C   0  0  0  0  0  0
  -28.8599  -22.0199   20.9504 C   0  0  0  0  0  0
  -26.5587  -19.9272   20.2381 C   0  0  0  0  0  0
  -24.7407  -18.7303   21.4945 C   0  0  0  0  0  0
  -28.5585  -23.3576   20.0073 C   0  0  0  0  0  0
  -28.1149  -24.8153   20.6918 C   0  0  0  0  0  0
  -21.2219  -18.4454   23.1494 C   0  0  0  0  0  0
  -30.5688  -18.3832   20.5962 N   0  0  0  0  0  0
  -29.6105  -15.9452   20.5535 N   0  0  0  0  0  0
  -25.8534  -19.7046   21.5157 N   0  3  0  0  0  0
  -31.4759  -12.7071   19.1397 H   0  0  0  0  0  0
  -30.4444  -11.5608   19.9547 H   0  0  0  0  0  0
  -29.8068  -11.7394   17.5354 H   0  0  0  0  0  0
  -29.6179  -13.4647   17.6823 H   0  0  0  0  0  0
  -27.9133  -11.2816   18.9148 H   0  0  0  0  0  0
  -27.3785  -12.5089   17.8012 H   0  0  0  0  0  0
  -27.6148  -14.2469   19.4558 H   0  0  0  0  0  0
  -28.7558  -12.1998   21.4190 H   0  0  0  0  0  0
  -28.4037  -13.8719   21.7843 H   0  0  0  0  0  0
  -25.2748   -9.5716   22.4778 H   0  0  0  0  0  0
  -23.9998   -7.4652   22.7501 H   0  0  0  0  0  0
  -21.0818   -8.8780   19.8979 H   0  0  0  0  0  0
  -22.3635  -10.9701   19.6212 H   0  0  0  0  0  0
  -21.2007   -7.6140   23.9697 H   0  0  0  0  0  0
  -21.1497   -6.0524   25.9075 H   0  0  0  0  0  0
  -22.0588   -2.7586   23.2858 H   0  0  0  0  0  0
  -22.4005  -11.9952   22.4821 H   0  0  0  0  0  0
  -21.1068  -13.1368   22.2589 H   0  0  0  0  0  0
  -24.5436  -15.7157   20.3152 H   0  0  0  0  0  0
  -26.1243  -15.5380   19.7724 H   0  0  0  0  0  0
  -26.7249  -32.5352   23.1001 H   0  0  0  0  0  0
  -25.0102  -33.9619   25.0349 H   0  0  0  0  0  0
  -22.7363  -31.2930   21.3800 H   0  0  0  0  0  0
  -23.3751  -35.9591   23.3309 H   0  0  0  0  0  0
  -24.3561  -36.8877   22.2044 H   0  0  0  0  0  0
  -23.7237  -37.6451   23.6664 H   0  0  0  0  0  0
  -26.1403  -31.4914   20.6077 H   0  0  0  0  0  0
  -26.8620  -30.7884   22.0226 H   0  0  0  0  0  0
  -28.1349  -28.8584   21.2061 H   0  0  0  0  0  0
  -25.9527  -25.8351   19.0464 H   0  0  0  0  0  0
  -23.9739  -27.2773   19.0090 H   0  0  0  0  0  0
  -23.8033  -30.5692   19.3973 H   0  0  0  0  0  0
  -22.7778  -29.2419   19.8432 H   0  0  0  0  0  0
  -25.1308  -36.1867   25.0802 H   0  0  0  0  0  0
  -20.9992  -28.3316   24.1379 H   0  0  0  0  0  0
  -20.5688  -26.2362   23.3630 H   0  0  0  0  0  0
  -21.6625  -26.7452   22.1160 H   0  0  0  0  0  0
  -19.6912  -25.6260   21.1309 H   0  0  0  0  0  0
  -19.6691  -27.3162   20.6726 H   0  0  0  0  0  0
  -17.4216  -26.6657   21.4015 H   0  0  0  0  0  0
  -18.0356  -26.0104   22.9052 H   0  0  0  0  0  0
  -19.7976  -30.7280   24.2269 H   0  0  0  0  0  0
  -17.5056  -31.6261   24.5183 H   0  0  0  0  0  0
  -15.5372  -30.3002   23.7650 H   0  0  0  0  0  0
  -15.8705  -28.0841   22.7076 H   0  0  0  0  0  0
  -24.5893  -30.7097   25.7678 H   0  0  0  0  0  0
  -24.8866  -32.2926   26.4736 H   0  0  0  0  0  0
  -25.7959  -30.8955   27.0193 H   0  0  0  0  0  0
  -26.2999  -29.6679   24.1243 H   0  0  0  0  0  0
  -27.4012  -29.7267   25.4815 H   0  0  0  0  0  0
  -27.8916  -30.4200   23.9554 H   0  0  0  0  0  0
  -27.2697  -33.3637   26.2012 H   0  0  0  0  0  0
  -28.3910  -32.6833   25.0295 H   0  0  0  0  0  0
  -28.0727  -31.8437   26.5407 H   0  0  0  0  0  0
  -28.2606  -38.0075   24.7508 H   0  0  0  0  0  0
  -28.1056  -36.2609   24.6311 H   0  0  0  0  0  0
  -27.2297  -37.1460   25.8875 H   0  0  0  0  0  0
  -20.9435  -29.8838   21.6874 H   0  0  0  0  0  0
  -26.0164  -38.2834   24.1388 H   0  0  0  0  0  0
  -27.4166  -17.4072   20.2324 H   0  0  0  0  0  0
  -31.2226  -20.3487   20.8112 H   0  0  0  0  0  0
  -22.4969  -20.0040   20.2504 H   0  0  0  0  0  0
  -21.9194  -20.8510   21.7749 H   0  0  0  0  0  0
  -23.6722  -19.7076   23.1388 H   0  0  0  0  0  0
  -22.1147  -17.7961   21.2621 H   0  0  0  0  0  0
  -19.5276  -19.5773   22.3759 H   0  0  0  0  0  0
  -19.0899  -18.3837   23.5893 H   0  0  0  0  0  0
  -19.4873  -17.8649   21.9543 H   0  0  0  0  0  0
  -22.5310  -17.0226   24.1565 H   0  0  0  0  0  0
  -21.2933  -16.2645   23.1617 H   0  0  0  0  0  0
  -20.8632  -16.9696   24.7151 H   0  0  0  0  0  0
  -29.7491  -22.2782   21.5266 H   0  0  0  0  0  0
  -28.0761  -22.0099   21.7068 H   0  0  0  0  0  0
  -26.0918  -19.3952   19.4060 H   0  0  0  0  0  0
  -26.4996  -20.9825   19.9788 H   0  0  0  0  0  0
  -24.5007  -18.3816   20.4900 H   0  0  0  0  0  0
  -25.0502  -17.8504   22.0611 H   0  0  0  0  0  0
  -27.7677  -23.0913   19.3057 H   0  0  0  0  0  0
  -29.4371  -23.5350   19.3908 H   0  0  0  0  0  0
  -28.6709  -24.8587   21.6282 H   0  0  0  0  0  0
  -27.0771  -24.7052   21.0093 H   0  0  0  0  0  0
  -21.4330  -19.2359   23.8726 H   0  0  0  0  0  0
  -28.6887  -15.5626   20.6745 H   0  0  0  0  0  0
  -25.4965  -20.5867   21.8395 H   0  0  0  0  0  0
  -26.5416  -19.3938   22.1832 H   0  0  0  0  0  0
  1 25  1  0  0  0
  1 30  2  0  0  0
  1 88  1  0  0  0
  2  3  1  0  0  0
  2 25  1  0  0  0
  2 90  1  0  0  0
  2 91  1  0  0  0
  3  4  1  0  0  0
  3 92  1  0  0  0
  3 93  1  0  0  0
  4  5  1  0  0  0
  4 94  1  0  0  0
  4 95  1  0  0  0
  5  6  1  0  0  0
  5 26  1  0  0  0
  5 96  1  0  0  0
  6 25  1  0  0  0
  6 97  1  0  0  0
  6 98  1  0  0  0
  7  8  2  0  0  0
  7 26  1  0  0  0
  7 29  1  0  0  0
  8  9  1  0  0  0
  8 22  1  0  0  0
  9 10  1  0  0  0
  9 27  2  0  0  0
 10 11  2  0  0  0
 10 15  1  0  0  0
 11 12  1  0  0  0
 11 99  1  0  0  0
 12 13  2  0  0  0
 12100  1  0  0  0
 13 14  1  0  0  0
 13 31  1  0  0  0
 14 15  2  0  0  0
 14101  1  0  0  0
 15102  1  0  0  0
 16 17  2  0  0  0
 16 21  1  0  0  0
 16 31  1  0  0  0
 17 18  1  0  0  0
 17103  1  0  0  0
 18 19  2  0  0  0
 18104  1  0  0  0
 19 20  1  0  0  0
 19 24  1  0  0  0
 20 21  2  0  0  0
 20105  1  0  0  0
 21 23  1  0  0  0
 22 28  1  0  0  0
 22 32  2  0  0  0
 26 27  1  0  0  0
 28106  1  0  0  0
 28107  1  0  0  0
 29108  1  0  0  0
 29109  1  0  0  0
 33 34  1  0  0  0
 33 66  1  0  0  0
 33 70  2  0  0  0
 34 36  1  0  0  0
 34 59  1  0  0  0
 34110  1  0  0  0
 35 44  2  0  0  0
 35 45  1  0  0  0
 35 68  1  0  0  0
 36 56  1  0  0  0
 36111  1  0  0  0
 37 39  1  0  0  0
 37 47  1  0  0  0
 37 66  1  0  0  0
 37112  1  0  0  0
 38 43  2  0  0  0
 38 46  1  0  0  0
 38 47  1  0  0  0
 39 64  1  0  0  0
 39 67  2  0  0  0
 40 52  1  0  0  0
 40 53  2  0  0  0
 40 58  1  0  0  0
 41113  1  0  0  0
 41114  1  0  0  0
 41115  1  0  0  0
 41 48  1  0  0  0
 42 43  1  0  0  0
 42 66  1  0  0  0
 42116  1  0  0  0
 42117  1  0  0  0
 43 44  1  0  0  0
 44118  1  0  0  0
 45 46  2  0  0  0
 45119  1  0  0  0
 46120  1  0  0  0
 47121  1  0  0  0
 47122  1  0  0  0
 48 56  1  0  0  0
 48 65  1  0  0  0
 48123  1  0  0  0
 49 50  1  0  0  0
 49 53  1  0  0  0
 49 64  1  0  0  0
 49124  1  0  0  0
 50 51  1  0  0  0
 50125  1  0  0  0
 50126  1  0  0  0
 51 52  1  0  0  0
 51127  1  0  0  0
 51128  1  0  0  0
 52129  1  0  0  0
 52130  1  0  0  0
 53 54  1  0  0  0
 54 55  2  0  0  0
 54131  1  0  0  0
 55 57  1  0  0  0
 55132  1  0  0  0
 56 69  2  0  0  0
 57 58  2  0  0  0
 57133  1  0  0  0
 58134  1  0  0  0
 59 60  1  0  0  0
 59 61  1  0  0  0
 59 62  1  0  0  0
 60135  1  0  0  0
 60136  1  0  0  0
 60137  1  0  0  0
 61138  1  0  0  0
 61139  1  0  0  0
 61140  1  0  0  0
 62141  1  0  0  0
 62142  1  0  0  0
 62143  1  0  0  0
 63 65  1  0  0  0
 63144  1  0  0  0
 63145  1  0  0  0
 63146  1  0  0  0
 64147  1  0  0  0
 65148  1  0  0  0
 68 85  1  0  0  0
 71 73  2  0  0  0
 71 75  1  0  0  0
 71149  1  0  0  0
 72 74  2  0  0  0
 72 87  1  0  0  0
 72150  1  0  0  0
 73 74  1  0  0  0
 73 82  1  0  0  0
 74 81  1  0  0  0
 75 87  2  0  0  0
 75 88  1  0  0  0
 76 77  1  0  0  0
 76151  1  0  0  0
 76152  1  0  0  0
 76 78  1  0  0  0
 77 78  1  0  0  0
 77 83  1  0  0  0
 77153  1  0  0  0
 78 86  1  0  0  0
 78154  1  0  0  0
 79155  1  0  0  0
 79156  1  0  0  0
 79157  1  0  0  0
 79 86  1  0  0  0
 80 86  1  0  0  0
 80158  1  0  0  0
 80159  1  0  0  0
 80160  1  0  0  0
 81 84  1  0  0  0
 81161  1  0  0  0
 81162  1  0  0  0
 82 89  1  0  0  0
 82163  1  0  0  0
 82164  1  0  0  0
 83 89  1  0  0  0
 83165  1  0  0  0
 83166  1  0  0  0
 84 85  1  0  0  0
 84167  1  0  0  0
 84168  1  0  0  0
 85169  1  0  0  0
 85170  1  0  0  0
 86171  1  0  0  0
 88172  1  0  0  0
 89173  1  0  0  0
 89174  1  0  0  0
M  CHG  1  89   1
M  ISO  4   1 100  68 101  85 101  88 100
M  END
> <chiral flag>
0

> <version>
0

> <s_m_source_file>
/data/baiqing/PycharmProjects/Reinvent-master-3.2/result/LINK_invent/BTK/process_docking_weight1_custom_sum_contain_oxygen_bond_distance_aromatic_linkinvent_7_9_3/rearranged_h_0123.sdf

> <i_m_source_file_index>
16

> <r_mmod_Potential_Energy-OPLS-2005>
53.4813270568848

> <r_mmod_Stretch_Energy-OPLS-2005>
193.415802001953

> <r_mmod_Bend_Energy-OPLS-2005>
254.168045043945

> <r_mmod_Torsional_Energy-OPLS-2005>
313.531585693359

> <r_mmod_Improper_Torsional_Energy-OPLS-2005>
10.8196496963501

> <r_mmod_Van_der_Waal_Energy-OPLS-2005>
113.479156494141

> <r_mmod_Electrostatic_Energy-OPLS-2005>
-462.143829345703

> <r_mmod_Solvation_Energy-OPLS-2005>
-515.431457519531

> <b_mmod_Minimization_Converged-OPLS-2005>
0

> <r_mmod_RMS_Derivative-OPLS-2005>
3.31525945663452

$$$$
16
                    3D
 Structure written by MMmdl.
163171  0  0  1  0            999 V2000
  -30.6270  -14.6167   20.4685 C   0  0  0  0  0  0
  -30.4360  -12.3748   19.4314 C   0  0  0  0  0  0
  -29.5007  -12.4953   18.2083 C   0  0  0  0  0  0
  -28.0227  -12.3492   18.6245 C   0  0  0  0  0  0
  -27.6518  -13.2149   19.8578 C   0  0  2  0  0  0
  -28.7014  -13.0652   20.9807 C   0  0  0  0  0  0
  -25.2548  -13.8175   20.5683 C   0  0  0  0  0  0
  -24.1804  -13.0433   20.9204 C   0  0  0  0  0  0
  -24.6376  -11.6908   20.8742 C   0  0  0  0  0  0
  -23.9035  -10.4297   21.0391 C   0  0  0  0  0  0
  -24.3604   -9.4224   21.9172 C   0  0  0  0  0  0
  -23.6291   -8.2253   22.0752 C   0  0  0  0  0  0
  -22.4270   -8.0271   21.3548 C   0  0  0  0  0  0
  -21.9902   -9.0238   20.4641 C   0  0  0  0  0  0
  -22.7210  -10.2125   20.3046 C   0  0  0  0  0  0
  -21.6836   -6.0732   22.5267 C   0  0  0  0  0  0
  -21.3998   -6.5635   23.8204 C   0  0  0  0  0  0
  -21.3670   -5.6790   24.9176 C   0  0  0  0  0  0
  -21.6054   -4.3052   24.7229 C   0  0  0  0  0  0
  -21.8812   -3.8149   23.4342 C   0  0  0  0  0  0
  -21.9195   -4.6962   22.3401 C   0  0  0  0  0  0
  -22.7833  -13.5240   21.1876 C   0  0  0  0  0  0
  -22.1660   -4.2133   21.0982 F   0  0  0  0  0  0
  -21.5651   -3.4550   25.7756 F   0  0  0  0  0  0
  -30.0142  -13.3963   20.4053 N   0  0  0  0  0  0
  -26.2972  -12.9342   20.3305 N   0  0  0  0  0  0
  -25.9299  -11.6496   20.5747 N   0  0  0  0  0  0
  -22.0464  -12.8210   22.0423 N   0  0  0  0  0  0
  -25.4274  -15.1889   20.4107 N   0  0  0  0  0  0
  -31.8058  -14.7751   20.1409 O   0  0  0  0  0  0
  -21.6637   -6.8865   21.4225 O   0  0  0  0  0  0
  -22.3536  -14.5547   20.6738 O   0  0  0  0  0  0
  -24.6204  -31.8587   23.1962 C   0  0  0  0  0  0
  -25.9093  -32.4772   23.8296 C   0  0  1  0  0  0
  -27.2625  -27.3572   20.1030 C   0  0  0  0  0  0
  -25.5959  -33.8574   24.2238 N   0  0  0  0  0  0
  -23.4153  -30.4684   21.5374 C   0  0  2  0  0  0
  -24.8679  -28.9107   20.1148 C   0  0  0  0  0  0
  -22.7451  -29.4583   22.4973 C   0  0  0  0  0  0
  -18.0276  -28.1343   22.8439 C   0  0  0  0  0  0
  -24.1515  -36.7295   23.2619 C   0  0  0  0  0  0
  -25.9497  -30.7920   21.3643 C   0  0  0  0  0  0
  -26.0276  -29.4202   20.7105 C   0  0  0  0  0  0
  -27.2214  -28.6506   20.6969 C   0  0  0  0  0  0
  -26.0804  -26.8756   19.4997 C   0  0  0  0  0  0
  -24.8939  -27.6405   19.5075 C   0  0  0  0  0  0
  -23.6292  -29.7788   20.1621 C   0  0  0  0  0  0
  -25.4148  -36.3084   24.0284 C   0  0  1  0  0  0
  -20.5863  -28.3647   23.1291 C   0  0  2  0  0  0
  -20.6762  -26.9380   22.5400 C   0  0  0  0  0  0
  -19.5764  -26.6339   21.5178 C   0  0  0  0  0  0
  -18.1929  -26.7877   22.1560 C   0  0  0  0  0  0
  -19.1532  -28.8812   23.2836 C   0  0  0  0  0  0
  -18.9465  -30.1418   23.8830 C   0  0  0  0  0  0
  -17.6468  -30.6552   24.0525 C   0  0  0  0  0  0
  -25.9078  -34.9449   23.5058 C   0  0  0  0  0  0
  -16.5359  -29.9035   23.6317 C   0  0  0  0  0  0
  -16.7269  -28.6469   23.0308 C   0  0  0  0  0  0
  -26.4499  -31.6618   25.0683 C   0  0  0  0  0  0
  -25.3726  -31.3726   26.1406 C   0  0  0  0  0  0
  -27.0344  -30.3035   24.6145 C   0  0  0  0  0  0
  -27.6042  -32.4374   25.7480 C   0  0  0  0  0  0
  -27.5615  -37.1808   24.8443 C   0  0  0  0  0  0
  -21.4172  -29.3013   22.3723 N   0  0  0  0  0  0
  -26.4326  -37.3781   23.9383 N   0  0  0  0  0  0
  -24.6795  -31.0592   22.0895 N   0  0  0  0  0  0
  -23.4178  -28.8161   23.3083 O   0  0  0  0  0  0
  -28.4499  -26.6281   20.1806 O   0  0  0  0  0  0
  -26.5626  -34.8893   22.4629 O   0  0  0  0  0  0
  -23.5397  -32.1435   23.7290 O   0  0  0  0  0  0
  -28.6770  -19.6990   22.2867 C   0  0  0  0  0  0
  -28.9928  -20.3467   23.4810 C   0  0  0  0  0  0
  -28.8076  -20.3660   21.0556 C   0  0  0  0  0  0
  -29.0218  -21.8053   21.0979 C   0  0  0  0  0  0
  -29.4795  -22.3075   22.3579 C   0  0  0  0  0  0
  -30.1370  -23.6640   22.5446 C   0  0  0  0  0  0
  -28.7710  -25.3552   18.0715 C   0  0  0  0  0  0
  -28.5850  -19.4732   19.8084 C   0  0  0  0  0  0
  -29.2567  -18.0141   19.6345 C   0  0  0  0  0  0
  -30.0534  -17.1561   20.7191 C   0  0  0  0  0  0
  -28.0481  -23.9979   20.2023 C   0  0  0  0  0  0
  -28.7247  -25.3053   19.6035 C   0  0  2  0  0  0
  -29.4550  -21.6048   23.5083 N   0  0  0  0  0  0
  -28.7925  -22.7023   20.0015 N   0  0  0  0  0  0
  -29.7978  -15.6751   20.6984 N   0  0  0  0  0  0
  -31.4745  -12.4994   19.1188 H   0  0  0  0  0  0
  -30.3693  -11.3793   19.8710 H   0  0  0  0  0  0
  -29.7522  -11.7357   17.4652 H   0  0  0  0  0  0
  -29.6508  -13.4592   17.7183 H   0  0  0  0  0  0
  -27.8457  -11.2959   18.8458 H   0  0  0  0  0  0
  -27.3712  -12.5982   17.7855 H   0  0  0  0  0  0
  -27.6699  -14.2500   19.5182 H   0  0  0  0  0  0
  -28.7072  -12.0455   21.3693 H   0  0  0  0  0  0
  -28.4626  -13.7119   21.8264 H   0  0  0  0  0  0
  -25.2727   -9.5719   22.4756 H   0  0  0  0  0  0
  -24.0000   -7.4656   22.7472 H   0  0  0  0  0  0
  -21.0840   -8.8743   19.8943 H   0  0  0  0  0  0
  -22.3641  -10.9675   19.6177 H   0  0  0  0  0  0
  -21.1954   -7.6138   23.9693 H   0  0  0  0  0  0
  -21.1512   -6.0536   25.9080 H   0  0  0  0  0  0
  -22.0582   -2.7597   23.2862 H   0  0  0  0  0  0
  -22.4086  -11.9897   22.4833 H   0  0  0  0  0  0
  -21.1077  -13.1236   22.2610 H   0  0  0  0  0  0
  -24.6604  -15.8442   20.5124 H   0  0  0  0  0  0
  -26.2735  -15.6254   20.0683 H   0  0  0  0  0  0
  -26.7159  -32.5418   23.1038 H   0  0  0  0  0  0
  -25.0136  -33.9757   25.0395 H   0  0  0  0  0  0
  -22.7043  -31.2812   21.3781 H   0  0  0  0  0  0
  -23.3778  -35.9632   23.3284 H   0  0  0  0  0  0
  -24.3571  -36.8961   22.2033 H   0  0  0  0  0  0
  -23.7294  -37.6479   23.6689 H   0  0  0  0  0  0
  -26.0735  -31.5528   20.5929 H   0  0  0  0  0  0
  -26.8297  -30.8448   21.9937 H   0  0  0  0  0  0
  -28.1158  -29.0402   21.1628 H   0  0  0  0  0  0
  -26.0587  -25.8988   19.0399 H   0  0  0  0  0  0
  -24.0003  -27.2335   19.0539 H   0  0  0  0  0  0
  -23.7404  -30.5338   19.3860 H   0  0  0  0  0  0
  -22.7573  -29.1865   19.8755 H   0  0  0  0  0  0
  -25.1353  -36.1908   25.0773 H   0  0  0  0  0  0
  -20.9914  -28.3234   24.1428 H   0  0  0  0  0  0
  -20.5672  -26.2244   23.3591 H   0  0  0  0  0  0
  -21.6644  -26.7434   22.1229 H   0  0  0  0  0  0
  -19.6936  -25.6247   21.1229 H   0  0  0  0  0  0
  -19.6713  -27.3119   20.6691 H   0  0  0  0  0  0
  -17.4212  -26.6587   21.3951 H   0  0  0  0  0  0
  -18.0333  -26.0016   22.8959 H   0  0  0  0  0  0
  -19.7951  -30.7214   24.2173 H   0  0  0  0  0  0
  -17.5035  -31.6230   24.5142 H   0  0  0  0  0  0
  -15.5352  -30.2909   23.7701 H   0  0  0  0  0  0
  -15.8658  -28.0802   22.7016 H   0  0  0  0  0  0
  -24.5917  -30.7083   25.7713 H   0  0  0  0  0  0
  -24.8877  -32.2852   26.4848 H   0  0  0  0  0  0
  -25.8042  -30.8883   27.0172 H   0  0  0  0  0  0
  -26.2906  -29.6753   24.1218 H   0  0  0  0  0  0
  -27.4084  -29.7337   25.4666 H   0  0  0  0  0  0
  -27.8761  -30.4313   23.9336 H   0  0  0  0  0  0
  -27.2682  -33.3703   26.2011 H   0  0  0  0  0  0
  -28.3891  -32.6909   25.0351 H   0  0  0  0  0  0
  -28.0654  -31.8513   26.5434 H   0  0  0  0  0  0
  -28.2611  -38.0128   24.7571 H   0  0  0  0  0  0
  -28.1164  -36.2666   24.6252 H   0  0  0  0  0  0
  -27.2289  -37.1435   25.8827 H   0  0  0  0  0  0
  -20.9368  -29.8745   21.6930 H   0  0  0  0  0  0
  -26.0200  -38.2849   24.1393 H   0  0  0  0  0  0
  -28.3139  -18.6827   22.3212 H   0  0  0  0  0  0
  -28.9166  -19.8303   24.4267 H   0  0  0  0  0  0
  -30.3020  -24.2002   21.6197 H   0  0  0  0  0  0
  -31.1297  -23.5237   22.9729 H   0  0  0  0  0  0
  -29.5569  -24.2915   23.2228 H   0  0  0  0  0  0
  -29.0512  -24.3812   17.6671 H   0  0  0  0  0  0
  -29.5268  -26.0716   17.7432 H   0  0  0  0  0  0
  -27.8251  -25.6515   17.6298 H   0  0  0  0  0  0
  -28.7811  -20.0673   18.9134 H   0  0  0  0  0  0
  -27.5047  -19.3162   19.7840 H   0  0  0  0  0  0
  -29.9585  -18.1270   18.8048 H   0  0  0  0  0  0
  -28.4825  -17.3743   19.2044 H   0  0  0  0  0  0
  -29.8441  -17.4567   21.7414 H   0  0  0  0  0  0
  -31.1224  -17.3442   20.6026 H   0  0  0  0  0  0
  -27.0620  -23.8942   19.7500 H   0  0  0  0  0  0
  -27.8496  -24.1512   21.2616 H   0  0  0  0  0  0
  -29.7768  -25.2066   19.8598 H   0  0  0  0  0  0
  -28.5715  -22.2616   19.1119 H   0  0  0  0  0  0
  -28.8517  -15.4027   20.9194 H   0  0  0  0  0  0
  1 25  1  0  0  0
  1 30  2  0  0  0
  1 85  1  0  0  0
  2  3  1  0  0  0
  2 25  1  0  0  0
  2 86  1  0  0  0
  2 87  1  0  0  0
  3  4  1  0  0  0
  3 88  1  0  0  0
  3 89  1  0  0  0
  4  5  1  0  0  0
  4 90  1  0  0  0
  4 91  1  0  0  0
  5  6  1  0  0  0
  5 26  1  0  0  0
  5 92  1  0  0  0
  6 25  1  0  0  0
  6 93  1  0  0  0
  6 94  1  0  0  0
  7  8  2  0  0  0
  7 26  1  0  0  0
  7 29  1  0  0  0
  8  9  1  0  0  0
  8 22  1  0  0  0
  9 10  1  0  0  0
  9 27  2  0  0  0
 10 11  2  0  0  0
 10 15  1  0  0  0
 11 12  1  0  0  0
 11 95  1  0  0  0
 12 13  2  0  0  0
 12 96  1  0  0  0
 13 14  1  0  0  0
 13 31  1  0  0  0
 14 15  2  0  0  0
 14 97  1  0  0  0
 15 98  1  0  0  0
 16 17  2  0  0  0
 16 21  1  0  0  0
 16 31  1  0  0  0
 17 18  1  0  0  0
 17 99  1  0  0  0
 18 19  2  0  0  0
 18100  1  0  0  0
 19 20  1  0  0  0
 19 24  1  0  0  0
 20 21  2  0  0  0
 20101  1  0  0  0
 21 23  1  0  0  0
 22 28  1  0  0  0
 22 32  2  0  0  0
 26 27  1  0  0  0
 28102  1  0  0  0
 28103  1  0  0  0
 29104  1  0  0  0
 29105  1  0  0  0
 33 34  1  0  0  0
 33 66  1  0  0  0
 33 70  2  0  0  0
 34 36  1  0  0  0
 34 59  1  0  0  0
 34106  1  0  0  0
 35 44  2  0  0  0
 35 45  1  0  0  0
 35 68  1  0  0  0
 36 56  1  0  0  0
 36107  1  0  0  0
 37 39  1  0  0  0
 37 47  1  0  0  0
 37 66  1  0  0  0
 37108  1  0  0  0
 38 43  2  0  0  0
 38 46  1  0  0  0
 38 47  1  0  0  0
 39 64  1  0  0  0
 39 67  2  0  0  0
 40 52  1  0  0  0
 40 53  2  0  0  0
 40 58  1  0  0  0
 41109  1  0  0  0
 41110  1  0  0  0
 41111  1  0  0  0
 41 48  1  0  0  0
 42 43  1  0  0  0
 42 66  1  0  0  0
 42112  1  0  0  0
 42113  1  0  0  0
 43 44  1  0  0  0
 44114  1  0  0  0
 45 46  2  0  0  0
 45115  1  0  0  0
 46116  1  0  0  0
 47117  1  0  0  0
 47118  1  0  0  0
 48 56  1  0  0  0
 48 65  1  0  0  0
 48119  1  0  0  0
 49 50  1  0  0  0
 49 53  1  0  0  0
 49 64  1  0  0  0
 49120  1  0  0  0
 50 51  1  0  0  0
 50121  1  0  0  0
 50122  1  0  0  0
 51 52  1  0  0  0
 51123  1  0  0  0
 51124  1  0  0  0
 52125  1  0  0  0
 52126  1  0  0  0
 53 54  1  0  0  0
 54 55  2  0  0  0
 54127  1  0  0  0
 55 57  1  0  0  0
 55128  1  0  0  0
 56 69  2  0  0  0
 57 58  2  0  0  0
 57129  1  0  0  0
 58130  1  0  0  0
 59 60  1  0  0  0
 59 61  1  0  0  0
 59 62  1  0  0  0
 60131  1  0  0  0
 60132  1  0  0  0
 60133  1  0  0  0
 61134  1  0  0  0
 61135  1  0  0  0
 61136  1  0  0  0
 62137  1  0  0  0
 62138  1  0  0  0
 62139  1  0  0  0
 63 65  1  0  0  0
 63140  1  0  0  0
 63141  1  0  0  0
 63142  1  0  0  0
 64143  1  0  0  0
 65144  1  0  0  0
 68 82  1  0  0  0
 71 72  2  0  0  0
 71 73  1  0  0  0
 71145  1  0  0  0
 72 83  1  0  0  0
 72146  1  0  0  0
 73 74  2  0  0  0
 73 78  1  0  0  0
 74 75  1  0  0  0
 74 84  1  0  0  0
 75 76  1  0  0  0
 75 83  2  0  0  0
 76147  1  0  0  0
 76148  1  0  0  0
 76149  1  0  0  0
 77150  1  0  0  0
 77151  1  0  0  0
 77152  1  0  0  0
 77 82  1  0  0  0
 78 79  1  0  0  0
 78153  1  0  0  0
 78154  1  0  0  0
 79 80  1  0  0  0
 79155  1  0  0  0
 79156  1  0  0  0
 80 85  1  0  0  0
 80157  1  0  0  0
 80158  1  0  0  0
 81 82  1  0  0  0
 81 84  1  0  0  0
 81159  1  0  0  0
 81160  1  0  0  0
 82161  1  0  0  0
 84162  1  0  0  0
 85163  1  0  0  0
M  ISO  4   1 100  68 101  82 101  85 100
M  END
> <chiral flag>
0

> <version>
0

> <s_m_source_file>
/data/baiqing/PycharmProjects/Reinvent-master-3.2/result/LINK_invent/BTK/process_docking_weight1_custom_sum_contain_oxygen_bond_distance_aromatic_linkinvent_7_9_3/rearranged_h_0123.sdf

> <i_m_source_file_index>
17

> <r_mmod_Potential_Energy-OPLS-2005>
-12.3177909851074

> <r_mmod_Stretch_Energy-OPLS-2005>
83.0472717285156

> <r_mmod_Bend_Energy-OPLS-2005>
203.46630859375

> <r_mmod_Torsional_Energy-OPLS-2005>
241.135528564453

> <r_mmod_Improper_Torsional_Energy-OPLS-2005>
8.75193119049072

> <r_mmod_Van_der_Waal_Energy-OPLS-2005>
149.550689697266

> <r_mmod_Electrostatic_Energy-OPLS-2005>
-503.523254394531

> <r_mmod_Solvation_Energy-OPLS-2005>
-233.986770629883

> <b_mmod_Minimization_Converged-OPLS-2005>
0

> <r_mmod_RMS_Derivative-OPLS-2005>
4.69911861419678

$$$$
17
                    3D
 Structure written by MMmdl.
162170  0  0  1  0            999 V2000
  -30.6946  -14.4607   20.5766 C   0  0  0  0  0  0
  -30.4336  -12.3052   19.4038 C   0  0  0  0  0  0
  -29.4985  -12.5121   18.1926 C   0  0  0  0  0  0
  -28.0167  -12.3830   18.6021 C   0  0  0  0  0  0
  -27.6688  -13.2022   19.8733 C   0  0  2  0  0  0
  -28.7125  -12.9545   20.9864 C   0  0  0  0  0  0
  -25.2633  -13.8139   20.5649 C   0  0  0  0  0  0
  -24.1872  -13.0429   20.9152 C   0  0  0  0  0  0
  -24.6414  -11.6898   20.8716 C   0  0  0  0  0  0
  -23.9060  -10.4297   21.0419 C   0  0  0  0  0  0
  -24.3624   -9.4211   21.9180 C   0  0  0  0  0  0
  -23.6290   -8.2255   22.0762 C   0  0  0  0  0  0
  -22.4280   -8.0290   21.3552 C   0  0  0  0  0  0
  -21.9912   -9.0266   20.4651 C   0  0  0  0  0  0
  -22.7246  -10.2139   20.3053 C   0  0  0  0  0  0
  -21.6857   -6.0739   22.5281 C   0  0  0  0  0  0
  -21.4004   -6.5640   23.8220 C   0  0  0  0  0  0
  -21.3653   -5.6786   24.9175 C   0  0  0  0  0  0
  -21.6047   -4.3054   24.7217 C   0  0  0  0  0  0
  -21.8821   -3.8148   23.4341 C   0  0  0  0  0  0
  -21.9194   -4.6968   22.3400 C   0  0  0  0  0  0
  -22.7899  -13.5246   21.1825 C   0  0  0  0  0  0
  -22.1676   -4.2150   21.0982 F   0  0  0  0  0  0
  -21.5634   -3.4540   25.7731 F   0  0  0  0  0  0
  -30.0462  -13.2726   20.4407 N   0  0  0  0  0  0
  -26.3069  -12.9302   20.3327 N   0  0  0  0  0  0
  -25.9337  -11.6467   20.5711 N   0  0  0  0  0  0
  -22.0534  -12.8237   22.0374 N   0  0  0  0  0  0
  -25.4367  -15.1849   20.4065 N   0  0  0  0  0  0
  -31.8002  -14.6981   20.0838 O   0  0  0  0  0  0
  -21.6646   -6.8886   21.4245 O   0  0  0  0  0  0
  -22.3604  -14.5570   20.6691 O   0  0  0  0  0  0
  -24.6152  -31.8685   23.2096 C   0  0  0  0  0  0
  -25.9042  -32.4817   23.8412 C   0  0  1  0  0  0
  -27.2378  -27.4318   20.0899 C   0  0  0  0  0  0
  -25.5932  -33.8626   24.2332 N   0  0  0  0  0  0
  -23.4036  -30.4895   21.5511 C   0  0  2  0  0  0
  -24.8489  -28.9509   20.1170 C   0  0  0  0  0  0
  -22.7413  -29.4655   22.5003 C   0  0  0  0  0  0
  -18.0290  -28.1345   22.8482 C   0  0  0  0  0  0
  -24.1499  -36.7324   23.2628 C   0  0  0  0  0  0
  -25.9336  -30.8309   21.3625 C   0  0  0  0  0  0
  -26.0103  -29.4653   20.7075 C   0  0  0  0  0  0
  -27.2095  -28.7161   20.6822 C   0  0  0  0  0  0
  -26.0606  -26.9317   19.4948 C   0  0  0  0  0  0
  -24.8686  -27.6830   19.5079 C   0  0  0  0  0  0
  -23.6122  -29.8198   20.1665 C   0  0  0  0  0  0
  -25.4120  -36.3117   24.0325 C   0  0  1  0  0  0
  -20.5875  -28.3646   23.1318 C   0  0  2  0  0  0
  -20.6784  -26.9386   22.5409 C   0  0  0  0  0  0
  -19.5766  -26.6360   21.5207 C   0  0  0  0  0  0
  -18.1942  -26.7904   22.1603 C   0  0  0  0  0  0
  -19.1528  -28.8814   23.2891 C   0  0  0  0  0  0
  -18.9445  -30.1428   23.8880 C   0  0  0  0  0  0
  -17.6438  -30.6550   24.0551 C   0  0  0  0  0  0
  -25.9041  -34.9475   23.5109 C   0  0  0  0  0  0
  -16.5335  -29.9040   23.6320 C   0  0  0  0  0  0
  -16.7273  -28.6467   23.0330 C   0  0  0  0  0  0
  -26.4467  -31.6595   25.0737 C   0  0  0  0  0  0
  -25.3735  -31.3668   26.1482 C   0  0  0  0  0  0
  -27.0308  -30.3055   24.6098 C   0  0  0  0  0  0
  -27.6062  -32.4308   25.7478 C   0  0  0  0  0  0
  -27.5591  -37.1819   24.8448 C   0  0  0  0  0  0
  -21.4141  -29.3022   22.3728 N   0  0  0  0  0  0
  -26.4301  -37.3801   23.9391 N   0  0  0  0  0  0
  -24.6694  -31.0780   22.0998 N   0  0  0  0  0  0
  -23.4177  -28.8202   23.3053 O   0  0  0  0  0  0
  -28.4130  -26.7061   20.0791 O   0  0  0  0  0  0
  -26.5585  -34.8908   22.4655 O   0  0  0  0  0  0
  -23.5342  -32.1467   23.7469 O   0  0  0  0  0  0
  -30.6053  -21.7634   16.3127 C   0  0  0  0  0  0
  -31.1747  -20.5222   16.6276 C   0  0  0  0  0  0
  -29.9290  -22.4973   17.3026 C   0  0  0  0  0  0
  -31.0496  -20.0126   17.9294 C   0  0  0  0  0  0
  -29.8003  -22.0144   18.6298 C   0  0  0  0  0  0
  -30.3555  -20.7262   18.9335 C   0  0  0  0  0  0
  -29.0833  -22.8979   19.6776 C   0  0  0  0  0  0
  -30.2656  -20.0401   20.3035 C   0  0  0  0  0  0
  -28.8814  -24.3986   19.2893 C   0  0  0  0  0  0
  -30.1990  -16.8743   21.2108 C   0  0  0  0  0  0
  -29.4255  -17.6266   20.0905 C   0  0  0  0  0  0
  -28.3454  -25.3079   20.4207 C   0  0  0  0  0  0
  -29.9622  -15.4228   21.1614 N   0  0  0  0  0  0
  -29.1516  -19.0658   20.3674 N   0  3  0  0  0  0
  -31.4773  -12.4150   19.1020 H   0  0  0  0  0  0
  -30.3413  -11.2868   19.7861 H   0  0  0  0  0  0
  -29.7314  -11.7926   17.4063 H   0  0  0  0  0  0
  -29.6744  -13.4964   17.7575 H   0  0  0  0  0  0
  -27.8098  -11.3273   18.7726 H   0  0  0  0  0  0
  -27.3739  -12.6870   17.7747 H   0  0  0  0  0  0
  -27.7211  -14.2539   19.5927 H   0  0  0  0  0  0
  -28.6874  -11.9082   21.2972 H   0  0  0  0  0  0
  -28.4725  -13.5255   21.8840 H   0  0  0  0  0  0
  -25.2775   -9.5692   22.4740 H   0  0  0  0  0  0
  -24.0005   -7.4647   22.7482 H   0  0  0  0  0  0
  -21.0849   -8.8776   19.8960 H   0  0  0  0  0  0
  -22.3702  -10.9675   19.6162 H   0  0  0  0  0  0
  -21.1999   -7.6147   23.9713 H   0  0  0  0  0  0
  -21.1473   -6.0525   25.9075 H   0  0  0  0  0  0
  -22.0606   -2.7611   23.2842 H   0  0  0  0  0  0
  -22.4128  -11.9875   22.4729 H   0  0  0  0  0  0
  -21.1158  -13.1287   22.2572 H   0  0  0  0  0  0
  -24.6686  -15.8385   20.5086 H   0  0  0  0  0  0
  -26.2772  -15.6170   20.0458 H   0  0  0  0  0  0
  -26.7106  -32.5510   23.1174 H   0  0  0  0  0  0
  -25.0153  -33.9806   25.0526 H   0  0  0  0  0  0
  -22.6921  -31.3050   21.4114 H   0  0  0  0  0  0
  -23.3754  -35.9667   23.3284 H   0  0  0  0  0  0
  -24.3579  -36.8955   22.2042 H   0  0  0  0  0  0
  -23.7271  -37.6529   23.6657 H   0  0  0  0  0  0
  -26.0480  -31.5953   20.5931 H   0  0  0  0  0  0
  -26.8225  -30.8835   21.9806 H   0  0  0  0  0  0
  -28.1104  -29.1167   21.1260 H   0  0  0  0  0  0
  -26.0641  -25.9666   19.0065 H   0  0  0  0  0  0
  -23.9788  -27.2805   19.0478 H   0  0  0  0  0  0
  -23.7201  -30.5956   19.4077 H   0  0  0  0  0  0
  -22.7357  -29.2412   19.8703 H   0  0  0  0  0  0
  -25.1304  -36.1990   25.0828 H   0  0  0  0  0  0
  -20.9967  -28.3217   24.1437 H   0  0  0  0  0  0
  -20.5705  -26.2252   23.3588 H   0  0  0  0  0  0
  -21.6654  -26.7449   22.1186 H   0  0  0  0  0  0
  -19.6923  -25.6276   21.1232 H   0  0  0  0  0  0
  -19.6700  -27.3160   20.6734 H   0  0  0  0  0  0
  -17.4225  -26.6655   21.3991 H   0  0  0  0  0  0
  -18.0315  -26.0036   22.8982 H   0  0  0  0  0  0
  -19.7912  -30.7263   24.2224 H   0  0  0  0  0  0
  -17.4980  -31.6226   24.5153 H   0  0  0  0  0  0
  -15.5322  -30.2908   23.7665 H   0  0  0  0  0  0
  -15.8687  -28.0775   22.7031 H   0  0  0  0  0  0
  -24.5932  -30.6992   25.7797 H   0  0  0  0  0  0
  -24.8873  -32.2786   26.4958 H   0  0  0  0  0  0
  -25.8110  -30.8819   27.0217 H   0  0  0  0  0  0
  -26.2846  -29.6790   24.1197 H   0  0  0  0  0  0
  -27.4136  -29.7327   25.4549 H   0  0  0  0  0  0
  -27.8650  -30.4380   23.9211 H   0  0  0  0  0  0
  -27.2737  -33.3626   26.2065 H   0  0  0  0  0  0
  -28.3872  -32.6847   25.0297 H   0  0  0  0  0  0
  -28.0737  -31.8423   26.5383 H   0  0  0  0  0  0
  -28.2603  -38.0127   24.7535 H   0  0  0  0  0  0
  -28.1115  -36.2666   24.6256 H   0  0  0  0  0  0
  -27.2295  -37.1427   25.8846 H   0  0  0  0  0  0
  -20.9299  -29.8754   21.6964 H   0  0  0  0  0  0
  -26.0192  -38.2885   24.1388 H   0  0  0  0  0  0
  -30.6961  -22.1609   15.3108 H   0  0  0  0  0  0
  -31.7059  -19.9587   15.8719 H   0  0  0  0  0  0
  -29.5188  -23.4490   17.0040 H   0  0  0  0  0  0
  -31.5000  -19.0540   18.1514 H   0  0  0  0  0  0
  -29.6605  -22.8759   20.6021 H   0  0  0  0  0  0
  -28.1160  -22.4470   19.9055 H   0  0  0  0  0  0
  -30.1183  -20.7791   21.0877 H   0  0  0  0  0  0
  -31.2136  -19.5540   20.5420 H   0  0  0  0  0  0
  -28.2047  -24.4764   18.4380 H   0  0  0  0  0  0
  -29.8402  -24.8065   18.9649 H   0  0  0  0  0  0
  -29.8717  -17.2198   22.1917 H   0  0  0  0  0  0
  -31.2658  -17.0946   21.1450 H   0  0  0  0  0  0
  -28.4492  -17.1568   19.9651 H   0  0  0  0  0  0
  -29.9350  -17.5121   19.1321 H   0  0  0  0  0  0
  -28.9724  -25.1774   21.3020 H   0  0  0  0  0  0
  -27.3476  -24.9904   20.7283 H   0  0  0  0  0  0
  -29.0861  -15.1040   21.5465 H   0  0  0  0  0  0
  -28.4660  -19.3821   19.7012 H   0  0  0  0  0  0
  -28.7235  -19.1397   21.2757 H   0  0  0  0  0  0
  1 25  1  0  0  0
  1 30  2  0  0  0
  1 83  1  0  0  0
  2  3  1  0  0  0
  2 25  1  0  0  0
  2 85  1  0  0  0
  2 86  1  0  0  0
  3  4  1  0  0  0
  3 87  1  0  0  0
  3 88  1  0  0  0
  4  5  1  0  0  0
  4 89  1  0  0  0
  4 90  1  0  0  0
  5  6  1  0  0  0
  5 26  1  0  0  0
  5 91  1  0  0  0
  6 25  1  0  0  0
  6 92  1  0  0  0
  6 93  1  0  0  0
  7  8  2  0  0  0
  7 26  1  0  0  0
  7 29  1  0  0  0
  8  9  1  0  0  0
  8 22  1  0  0  0
  9 10  1  0  0  0
  9 27  2  0  0  0
 10 11  2  0  0  0
 10 15  1  0  0  0
 11 12  1  0  0  0
 11 94  1  0  0  0
 12 13  2  0  0  0
 12 95  1  0  0  0
 13 14  1  0  0  0
 13 31  1  0  0  0
 14 15  2  0  0  0
 14 96  1  0  0  0
 15 97  1  0  0  0
 16 17  2  0  0  0
 16 21  1  0  0  0
 16 31  1  0  0  0
 17 18  1  0  0  0
 17 98  1  0  0  0
 18 19  2  0  0  0
 18 99  1  0  0  0
 19 20  1  0  0  0
 19 24  1  0  0  0
 20 21  2  0  0  0
 20100  1  0  0  0
 21 23  1  0  0  0
 22 28  1  0  0  0
 22 32  2  0  0  0
 26 27  1  0  0  0
 28101  1  0  0  0
 28102  1  0  0  0
 29103  1  0  0  0
 29104  1  0  0  0
 33 34  1  0  0  0
 33 66  1  0  0  0
 33 70  2  0  0  0
 34 36  1  0  0  0
 34 59  1  0  0  0
 34105  1  0  0  0
 35 44  2  0  0  0
 35 45  1  0  0  0
 35 68  1  0  0  0
 36 56  1  0  0  0
 36106  1  0  0  0
 37 39  1  0  0  0
 37 47  1  0  0  0
 37 66  1  0  0  0
 37107  1  0  0  0
 38 43  2  0  0  0
 38 46  1  0  0  0
 38 47  1  0  0  0
 39 64  1  0  0  0
 39 67  2  0  0  0
 40 52  1  0  0  0
 40 53  2  0  0  0
 40 58  1  0  0  0
 41108  1  0  0  0
 41109  1  0  0  0
 41110  1  0  0  0
 41 48  1  0  0  0
 42 43  1  0  0  0
 42 66  1  0  0  0
 42111  1  0  0  0
 42112  1  0  0  0
 43 44  1  0  0  0
 44113  1  0  0  0
 45 46  2  0  0  0
 45114  1  0  0  0
 46115  1  0  0  0
 47116  1  0  0  0
 47117  1  0  0  0
 48 56  1  0  0  0
 48 65  1  0  0  0
 48118  1  0  0  0
 49 50  1  0  0  0
 49 53  1  0  0  0
 49 64  1  0  0  0
 49119  1  0  0  0
 50 51  1  0  0  0
 50120  1  0  0  0
 50121  1  0  0  0
 51 52  1  0  0  0
 51122  1  0  0  0
 51123  1  0  0  0
 52124  1  0  0  0
 52125  1  0  0  0
 53 54  1  0  0  0
 54 55  2  0  0  0
 54126  1  0  0  0
 55 57  1  0  0  0
 55127  1  0  0  0
 56 69  2  0  0  0
 57 58  2  0  0  0
 57128  1  0  0  0
 58129  1  0  0  0
 59 60  1  0  0  0
 59 61  1  0  0  0
 59 62  1  0  0  0
 60130  1  0  0  0
 60131  1  0  0  0
 60132  1  0  0  0
 61133  1  0  0  0
 61134  1  0  0  0
 61135  1  0  0  0
 62136  1  0  0  0
 62137  1  0  0  0
 62138  1  0  0  0
 63 65  1  0  0  0
 63139  1  0  0  0
 63140  1  0  0  0
 63141  1  0  0  0
 64142  1  0  0  0
 65143  1  0  0  0
 68 82  1  0  0  0
 71 72  2  0  0  0
 71 73  1  0  0  0
 71144  1  0  0  0
 72 74  1  0  0  0
 72145  1  0  0  0
 73 75  2  0  0  0
 73146  1  0  0  0
 74 76  2  0  0  0
 74147  1  0  0  0
 75 76  1  0  0  0
 75 77  1  0  0  0
 76 78  1  0  0  0
 77 79  1  0  0  0
 77148  1  0  0  0
 77149  1  0  0  0
 78 84  1  0  0  0
 78150  1  0  0  0
 78151  1  0  0  0
 79 82  1  0  0  0
 79152  1  0  0  0
 79153  1  0  0  0
 80 81  1  0  0  0
 80 83  1  0  0  0
 80154  1  0  0  0
 80155  1  0  0  0
 81 84  1  0  0  0
 81156  1  0  0  0
 81157  1  0  0  0
 82158  1  0  0  0
 82159  1  0  0  0
 83160  1  0  0  0
 84161  1  0  0  0
 84162  1  0  0  0
M  CHG  1  84   1
M  ISO  4   1 100  68 101  82 101  83 100
M  END
> <chiral flag>
0

> <version>
0

> <s_m_source_file>
/data/baiqing/PycharmProjects/Reinvent-master-3.2/result/LINK_invent/BTK/process_docking_weight1_custom_sum_contain_oxygen_bond_distance_aromatic_linkinvent_7_9_3/rearranged_h_0123.sdf

> <i_m_source_file_index>
18

> <r_mmod_Potential_Energy-OPLS-2005>
-301.728729248047

> <r_mmod_Stretch_Energy-OPLS-2005>
41.7927284240723

> <r_mmod_Bend_Energy-OPLS-2005>
105.147514343262

> <r_mmod_Torsional_Energy-OPLS-2005>
214.061416625977

> <r_mmod_Improper_Torsional_Energy-OPLS-2005>
3.73561954498291

> <r_mmod_Van_der_Waal_Energy-OPLS-2005>
147.98551940918

> <r_mmod_Electrostatic_Energy-OPLS-2005>
-334.768524169922

> <r_mmod_Solvation_Energy-OPLS-2005>
-490.978515625

> <b_mmod_Minimization_Converged-OPLS-2005>
0

> <r_mmod_RMS_Derivative-OPLS-2005>
2.4878933429718

$$$$
18
                    3D
 Structure written by MMmdl.
165173  0  0  1  0            999 V2000
  -30.6062  -14.7542   20.4577 C   0  0  0  0  0  0
  -30.4238  -12.4589   19.4904 C   0  0  0  0  0  0
  -29.5105  -12.5109   18.2472 C   0  0  0  0  0  0
  -28.0386  -12.3266   18.6575 C   0  0  0  0  0  0
  -27.6352  -13.2326   19.8509 C   0  0  2  0  0  0
  -28.6737  -13.1789   20.9916 C   0  0  0  0  0  0
  -25.2465  -13.8195   20.5682 C   0  0  0  0  0  0
  -24.1765  -13.0428   20.9203 C   0  0  0  0  0  0
  -24.6358  -11.6911   20.8751 C   0  0  0  0  0  0
  -23.9042  -10.4290   21.0400 C   0  0  0  0  0  0
  -24.3602   -9.4215   21.9176 C   0  0  0  0  0  0
  -23.6291   -8.2243   22.0739 C   0  0  0  0  0  0
  -22.4273   -8.0271   21.3534 C   0  0  0  0  0  0
  -21.9909   -9.0237   20.4629 C   0  0  0  0  0  0
  -22.7221  -10.2127   20.3041 C   0  0  0  0  0  0
  -21.6848   -6.0731   22.5279 C   0  0  0  0  0  0
  -21.4021   -6.5637   23.8214 C   0  0  0  0  0  0
  -21.3664   -5.6787   24.9173 C   0  0  0  0  0  0
  -21.6039   -4.3048   24.7222 C   0  0  0  0  0  0
  -21.8819   -3.8141   23.4343 C   0  0  0  0  0  0
  -21.9198   -4.6960   22.3401 C   0  0  0  0  0  0
  -22.7800  -13.5215   21.1867 C   0  0  0  0  0  0
  -22.1661   -4.2144   21.0977 F   0  0  0  0  0  0
  -21.5626   -3.4532   25.7736 F   0  0  0  0  0  0
  -29.9760  -13.5292   20.4120 N   0  0  0  0  0  0
  -26.2869  -12.9395   20.3257 N   0  0  0  0  0  0
  -25.9277  -11.6538   20.5739 N   0  0  0  0  0  0
  -22.0452  -12.8202   22.0435 N   0  0  0  0  0  0
  -25.4199  -15.1911   20.4098 N   0  0  0  0  0  0
  -31.7954  -14.8384   20.1409 O   0  0  0  0  0  0
  -21.6638   -6.8867   21.4236 O   0  0  0  0  0  0
  -22.3494  -14.5524   20.6719 O   0  0  0  0  0  0
  -24.6353  -31.8574   23.1989 C   0  0  0  0  0  0
  -25.9162  -32.4764   23.8370 C   0  0  1  0  0  0
  -27.2117  -27.2395   20.1176 C   0  0  0  0  0  0
  -25.5984  -33.8576   24.2311 N   0  0  0  0  0  0
  -23.4314  -30.4829   21.5460 C   0  0  2  0  0  0
  -24.8726  -28.9337   20.1125 C   0  0  0  0  0  0
  -22.7538  -29.4624   22.4933 C   0  0  0  0  0  0
  -18.0305  -28.1341   22.8528 C   0  0  0  0  0  0
  -24.1486  -36.7262   23.2643 C   0  0  0  0  0  0
  -25.9839  -30.7595   21.3872 C   0  0  0  0  0  0
  -26.0504  -29.3831   20.7241 C   0  0  0  0  0  0
  -27.2142  -28.5481   20.7191 C   0  0  0  0  0  0
  -26.0069  -26.8747   19.4675 C   0  0  0  0  0  0
  -24.8581  -27.6876   19.4782 C   0  0  0  0  0  0
  -23.6454  -29.8203   20.1620 C   0  0  0  0  0  0
  -25.4129  -36.3094   24.0344 C   0  0  1  0  0  0
  -20.5906  -28.3695   23.1275 C   0  0  2  0  0  0
  -20.6779  -26.9414   22.5409 C   0  0  0  0  0  0
  -19.5736  -26.6354   21.5230 C   0  0  0  0  0  0
  -18.1925  -26.7889   22.1643 C   0  0  0  0  0  0
  -19.1549  -28.8829   23.2890 C   0  0  0  0  0  0
  -18.9471  -30.1424   23.8916 C   0  0  0  0  0  0
  -17.6464  -30.6560   24.0558 C   0  0  0  0  0  0
  -25.9101  -34.9452   23.5141 C   0  0  0  0  0  0
  -16.5366  -29.9058   23.6303 C   0  0  0  0  0  0
  -16.7285  -28.6440   23.0400 C   0  0  0  0  0  0
  -26.4519  -31.6577   25.0748 C   0  0  0  0  0  0
  -25.3728  -31.3740   26.1458 C   0  0  0  0  0  0
  -27.0392  -30.3006   24.6222 C   0  0  0  0  0  0
  -27.6064  -32.4336   25.7516 C   0  0  0  0  0  0
  -27.5594  -37.1795   24.8485 C   0  0  0  0  0  0
  -21.4228  -29.3052   22.3662 N   0  0  0  0  0  0
  -26.4314  -37.3786   23.9402 N   0  0  0  0  0  0
  -24.7026  -31.0545   22.0971 N   0  0  0  0  0  0
  -23.4242  -28.8146   23.3007 O   0  0  0  0  0  0
  -28.3007  -26.3282   20.2317 O   0  0  0  0  0  0
  -26.5651  -34.8940   22.4710 O   0  0  0  0  0  0
  -23.5481  -32.1362   23.7272 O   0  0  0  0  0  0
  -29.0300  -22.3142   19.6698 C   0  0  0  0  0  0
  -28.7729  -23.6077   20.2947 C   0  0  0  0  0  0
  -28.9622  -23.3340   21.6318 C   0  0  0  0  0  0
  -29.3913  -21.3346   20.5881 C   0  0  0  0  0  0
  -28.8235  -24.3094   22.7644 C   0  0  0  0  0  0
  -29.1867  -25.1947   18.3160 C   0  0  0  0  0  0
  -31.2518  -21.9537   23.4558 C   0  0  0  0  0  0
  -29.6649  -19.9898   23.4359 C   0  0  0  0  0  0
  -29.3058  -18.6335   20.5120 C   0  0  0  0  0  0
  -30.3239  -17.3611   20.4729 C   0  0  0  0  0  0
  -28.3274  -24.9712   19.5644 C   0  0  1  0  0  0
  -29.8158  -21.4917   23.1636 C   0  0  0  0  0  0
  -29.3669  -21.9829   21.8393 N   0  0  0  0  0  0
  -29.9002  -20.0084   20.2414 N   0  0  0  0  0  0
  -29.8551  -15.9096   20.6455 N   0  0  0  0  0  0
  -31.4680  -12.5755   19.1979 H   0  0  0  0  0  0
  -30.3587  -11.4850   19.9779 H   0  0  0  0  0  0
  -29.8044  -11.7471   17.5269 H   0  0  0  0  0  0
  -29.6318  -13.4728   17.7459 H   0  0  0  0  0  0
  -27.9019  -11.2804   18.9273 H   0  0  0  0  0  0
  -27.3823  -12.4999   17.8054 H   0  0  0  0  0  0
  -27.6276  -14.2499   19.4584 H   0  0  0  0  0  0
  -28.7060  -12.1846   21.4420 H   0  0  0  0  0  0
  -28.4010  -13.8715   21.7887 H   0  0  0  0  0  0
  -25.2739   -9.5702   22.4755 H   0  0  0  0  0  0
  -24.0000   -7.4636   22.7462 H   0  0  0  0  0  0
  -21.0840   -8.8738   19.8934 H   0  0  0  0  0  0
  -22.3661  -10.9656   19.6147 H   0  0  0  0  0  0
  -21.2016   -7.6143   23.9717 H   0  0  0  0  0  0
  -21.1485   -6.0515   25.9078 H   0  0  0  0  0  0
  -22.0600   -2.7602   23.2840 H   0  0  0  0  0  0
  -22.4082  -11.9861   22.4811 H   0  0  0  0  0  0
  -21.1059  -13.1219   22.2625 H   0  0  0  0  0  0
  -24.6534  -15.8479   20.5040 H   0  0  0  0  0  0
  -26.2679  -15.6256   20.0706 H   0  0  0  0  0  0
  -26.7249  -32.5388   23.1131 H   0  0  0  0  0  0
  -25.0133  -33.9720   25.0460 H   0  0  0  0  0  0
  -22.7312  -31.3082   21.4026 H   0  0  0  0  0  0
  -23.3779  -35.9563   23.3309 H   0  0  0  0  0  0
  -24.3578  -36.8869   22.2061 H   0  0  0  0  0  0
  -23.7201  -37.6455   23.6650 H   0  0  0  0  0  0
  -26.1362  -31.5191   20.6180 H   0  0  0  0  0  0
  -26.8589  -30.8018   22.0231 H   0  0  0  0  0  0
  -28.1100  -28.8842   21.2199 H   0  0  0  0  0  0
  -25.8738  -25.9359   18.9571 H   0  0  0  0  0  0
  -23.9558  -27.3366   19.0008 H   0  0  0  0  0  0
  -23.7657  -30.5919   19.4026 H   0  0  0  0  0  0
  -22.7633  -29.2506   19.8642 H   0  0  0  0  0  0
  -25.1286  -36.1971   25.0832 H   0  0  0  0  0  0
  -20.9998  -28.3260   24.1398 H   0  0  0  0  0  0
  -20.5657  -26.2332   23.3636 H   0  0  0  0  0  0
  -21.6658  -26.7416   22.1226 H   0  0  0  0  0  0
  -19.6892  -25.6259   21.1266 H   0  0  0  0  0  0
  -19.6619  -27.3151   20.6753 H   0  0  0  0  0  0
  -17.4211  -26.6696   21.4025 H   0  0  0  0  0  0
  -18.0294  -25.9985   22.8983 H   0  0  0  0  0  0
  -19.7956  -30.7203   24.2323 H   0  0  0  0  0  0
  -17.5033  -31.6248   24.5139 H   0  0  0  0  0  0
  -15.5362  -30.2978   23.7557 H   0  0  0  0  0  0
  -15.8705  -28.0711   22.7179 H   0  0  0  0  0  0
  -24.5903  -30.7091   25.7783 H   0  0  0  0  0  0
  -24.8893  -32.2909   26.4852 H   0  0  0  0  0  0
  -25.8013  -30.8931   27.0262 H   0  0  0  0  0  0
  -26.2969  -29.6731   24.1261 H   0  0  0  0  0  0
  -27.4152  -29.7288   25.4721 H   0  0  0  0  0  0
  -27.8828  -30.4320   23.9435 H   0  0  0  0  0  0
  -27.2673  -33.3668   26.2040 H   0  0  0  0  0  0
  -28.3893  -32.6866   25.0346 H   0  0  0  0  0  0
  -28.0713  -31.8492   26.5467 H   0  0  0  0  0  0
  -28.2628  -38.0075   24.7536 H   0  0  0  0  0  0
  -28.1067  -36.2613   24.6293 H   0  0  0  0  0  0
  -27.2315  -37.1449   25.8891 H   0  0  0  0  0  0
  -20.9424  -29.8821   21.6891 H   0  0  0  0  0  0
  -26.0204  -38.2874   24.1360 H   0  0  0  0  0  0
  -28.9731  -22.1392   18.6041 H   0  0  0  0  0  0
  -28.2749  -25.1984   22.4581 H   0  0  0  0  0  0
  -29.7944  -24.6486   23.1221 H   0  0  0  0  0  0
  -28.2738  -23.8860   23.6031 H   0  0  0  0  0  0
  -29.0770  -24.3818   17.6004 H   0  0  0  0  0  0
  -30.2429  -25.2704   18.5737 H   0  0  0  0  0  0
  -28.9003  -26.1197   17.8124 H   0  0  0  0  0  0
  -31.5839  -21.5967   24.4307 H   0  0  0  0  0  0
  -31.3370  -23.0391   23.4676 H   0  0  0  0  0  0
  -31.9445  -21.5803   22.7042 H   0  0  0  0  0  0
  -29.9025  -19.7621   24.4767 H   0  0  0  0  0  0
  -30.3557  -19.3988   22.8356 H   0  0  0  0  0  0
  -28.6395  -19.6627   23.2669 H   0  0  0  0  0  0
  -28.7509  -18.6277   21.4441 H   0  0  0  0  0  0
  -28.5480  -18.4745   19.7435 H   0  0  0  0  0  0
  -31.0910  -17.5256   21.2304 H   0  0  0  0  0  0
  -30.8459  -17.3942   19.5167 H   0  0  0  0  0  0
  -27.3449  -24.6840   19.2188 H   0  0  0  0  0  0
  -29.1735  -21.9494   23.9144 H   0  0  0  0  0  0
  -30.2521  -20.0381   19.2882 H   0  0  0  0  0  0
  -28.8828  -15.7718   20.8754 H   0  0  0  0  0  0
  1 25  1  0  0  0
  1 30  2  0  0  0
  1 85  1  0  0  0
  2  3  1  0  0  0
  2 25  1  0  0  0
  2 86  1  0  0  0
  2 87  1  0  0  0
  3  4  1  0  0  0
  3 88  1  0  0  0
  3 89  1  0  0  0
  4  5  1  0  0  0
  4 90  1  0  0  0
  4 91  1  0  0  0
  5  6  1  0  0  0
  5 26  1  0  0  0
  5 92  1  0  0  0
  6 25  1  0  0  0
  6 93  1  0  0  0
  6 94  1  0  0  0
  7  8  2  0  0  0
  7 26  1  0  0  0
  7 29  1  0  0  0
  8  9  1  0  0  0
  8 22  1  0  0  0
  9 10  1  0  0  0
  9 27  2  0  0  0
 10 11  2  0  0  0
 10 15  1  0  0  0
 11 12  1  0  0  0
 11 95  1  0  0  0
 12 13  2  0  0  0
 12 96  1  0  0  0
 13 14  1  0  0  0
 13 31  1  0  0  0
 14 15  2  0  0  0
 14 97  1  0  0  0
 15 98  1  0  0  0
 16 17  2  0  0  0
 16 21  1  0  0  0
 16 31  1  0  0  0
 17 18  1  0  0  0
 17 99  1  0  0  0
 18 19  2  0  0  0
 18100  1  0  0  0
 19 20  1  0  0  0
 19 24  1  0  0  0
 20 21  2  0  0  0
 20101  1  0  0  0
 21 23  1  0  0  0
 22 28  1  0  0  0
 22 32  2  0  0  0
 26 27  1  0  0  0
 28102  1  0  0  0
 28103  1  0  0  0
 29104  1  0  0  0
 29105  1  0  0  0
 33 34  1  0  0  0
 33 66  1  0  0  0
 33 70  2  0  0  0
 34 36  1  0  0  0
 34 59  1  0  0  0
 34106  1  0  0  0
 35 44  2  0  0  0
 35 45  1  0  0  0
 35 68  1  0  0  0
 36 56  1  0  0  0
 36107  1  0  0  0
 37 39  1  0  0  0
 37 47  1  0  0  0
 37 66  1  0  0  0
 37108  1  0  0  0
 38 43  2  0  0  0
 38 46  1  0  0  0
 38 47  1  0  0  0
 39 64  1  0  0  0
 39 67  2  0  0  0
 40 52  1  0  0  0
 40 53  2  0  0  0
 40 58  1  0  0  0
 41109  1  0  0  0
 41110  1  0  0  0
 41111  1  0  0  0
 41 48  1  0  0  0
 42 43  1  0  0  0
 42 66  1  0  0  0
 42112  1  0  0  0
 42113  1  0  0  0
 43 44  1  0  0  0
 44114  1  0  0  0
 45 46  2  0  0  0
 45115  1  0  0  0
 46116  1  0  0  0
 47117  1  0  0  0
 47118  1  0  0  0
 48 56  1  0  0  0
 48 65  1  0  0  0
 48119  1  0  0  0
 49 50  1  0  0  0
 49 53  1  0  0  0
 49 64  1  0  0  0
 49120  1  0  0  0
 50 51  1  0  0  0
 50121  1  0  0  0
 50122  1  0  0  0
 51 52  1  0  0  0
 51123  1  0  0  0
 51124  1  0  0  0
 52125  1  0  0  0
 52126  1  0  0  0
 53 54  1  0  0  0
 54 55  2  0  0  0
 54127  1  0  0  0
 55 57  1  0  0  0
 55128  1  0  0  0
 56 69  2  0  0  0
 57 58  2  0  0  0
 57129  1  0  0  0
 58130  1  0  0  0
 59 60  1  0  0  0
 59 61  1  0  0  0
 59 62  1  0  0  0
 60131  1  0  0  0
 60132  1  0  0  0
 60133  1  0  0  0
 61134  1  0  0  0
 61135  1  0  0  0
 61136  1  0  0  0
 62137  1  0  0  0
 62138  1  0  0  0
 62139  1  0  0  0
 63 65  1  0  0  0
 63140  1  0  0  0
 63141  1  0  0  0
 63142  1  0  0  0
 64143  1  0  0  0
 65144  1  0  0  0
 68 81  1  0  0  0
 71 72  1  0  0  0
 71 74  2  0  0  0
 71145  1  0  0  0
 72 73  2  0  0  0
 72 81  1  0  0  0
 73 75  1  0  0  0
 73 83  1  0  0  0
 74 83  1  0  0  0
 74 84  1  0  0  0
 75146  1  0  0  0
 75147  1  0  0  0
 75148  1  0  0  0
 76149  1  0  0  0
 76150  1  0  0  0
 76151  1  0  0  0
 76 81  1  0  0  0
 77152  1  0  0  0
 77153  1  0  0  0
 77154  1  0  0  0
 77 82  1  0  0  0
 78 82  1  0  0  0
 78155  1  0  0  0
 78156  1  0  0  0
 78157  1  0  0  0
 79 80  1  0  0  0
 79 84  1  0  0  0
 79158  1  0  0  0
 79159  1  0  0  0
 80 85  1  0  0  0
 80160  1  0  0  0
 80161  1  0  0  0
 81162  1  0  0  0
 82 83  1  0  0  0
 82163  1  0  0  0
 84164  1  0  0  0
 85165  1  0  0  0
M  ISO  4   1 100  68 101  81 101  85 100
M  END
> <chiral flag>
0

> <version>
0

> <s_m_source_file>
/data/baiqing/PycharmProjects/Reinvent-master-3.2/result/LINK_invent/BTK/process_docking_weight1_custom_sum_contain_oxygen_bond_distance_aromatic_linkinvent_7_9_3/rearranged_h_0123.sdf

> <i_m_source_file_index>
19

> <r_mmod_Potential_Energy-OPLS-2005>
162.263458251953

> <r_mmod_Stretch_Energy-OPLS-2005>
132.249069213867

> <r_mmod_Bend_Energy-OPLS-2005>
210.936111450195

> <r_mmod_Torsional_Energy-OPLS-2005>
254.973205566406

> <r_mmod_Improper_Torsional_Energy-OPLS-2005>
10.9567451477051

> <r_mmod_Van_der_Waal_Energy-OPLS-2005>
126.929862976074

> <r_mmod_Electrostatic_Energy-OPLS-2005>
-453.277008056641

> <r_mmod_Solvation_Energy-OPLS-2005>
-217.031372070312

> <b_mmod_Minimization_Converged-OPLS-2005>
0

> <r_mmod_RMS_Derivative-OPLS-2005>
3.98267245292664

$$$$
19
                    3D
 Structure written by MMmdl.
157166  0  0  1  0            999 V2000
  -30.5403  -14.8459   20.4669 C   0  0  0  0  0  0
  -30.4471  -12.5201   19.4992 C   0  0  0  0  0  0
  -29.5204  -12.4774   18.2607 C   0  0  0  0  0  0
  -28.0537  -12.2785   18.6848 C   0  0  0  0  0  0
  -27.6351  -13.2173   19.8466 C   0  0  2  0  0  0
  -28.6707  -13.1954   20.9915 C   0  0  0  0  0  0
  -25.2511  -13.8146   20.5739 C   0  0  0  0  0  0
  -24.1803  -13.0425   20.9356 C   0  0  0  0  0  0
  -24.6358  -11.6889   20.8857 C   0  0  0  0  0  0
  -23.9025  -10.4269   21.0488 C   0  0  0  0  0  0
  -24.3569   -9.4172   21.9250 C   0  0  0  0  0  0
  -23.6276   -8.2187   22.0752 C   0  0  0  0  0  0
  -22.4269   -8.0230   21.3516 C   0  0  0  0  0  0
  -21.9892   -9.0239   20.4653 C   0  0  0  0  0  0
  -22.7206  -10.2133   20.3119 C   0  0  0  0  0  0
  -21.6857   -6.0682   22.5238 C   0  0  0  0  0  0
  -21.4013   -6.5621   23.8163 C   0  0  0  0  0  0
  -21.3676   -5.6805   24.9154 C   0  0  0  0  0  0
  -21.6058   -4.3057   24.7242 C   0  0  0  0  0  0
  -21.8824   -3.8112   23.4370 C   0  0  0  0  0  0
  -21.9199   -4.6902   22.3404 C   0  0  0  0  0  0
  -22.7827  -13.5183   21.2018 C   0  0  0  0  0  0
  -22.1658   -4.2060   21.0988 F   0  0  0  0  0  0
  -21.5670   -3.4561   25.7774 F   0  0  0  0  0  0
  -29.9620  -13.5906   20.4124 N   0  0  0  0  0  0
  -26.2878  -12.9302   20.3252 N   0  0  0  0  0  0
  -25.9278  -11.6476   20.5827 N   0  0  0  0  0  0
  -22.0461  -12.8124   22.0536 N   0  0  0  0  0  0
  -25.4287  -15.1851   20.3969 N   0  0  0  0  0  0
  -31.7228  -14.9674   20.1231 O   0  0  0  0  0  0
  -21.6659   -6.8803   21.4190 O   0  0  0  0  0  0
  -22.3545  -14.5505   20.6858 O   0  0  0  0  0  0
  -24.6320  -31.8480   23.1926 C   0  0  0  0  0  0
  -25.9124  -32.4701   23.8319 C   0  0  1  0  0  0
  -27.2332  -27.1942   20.1774 C   0  0  0  0  0  0
  -25.5894  -33.8509   24.2252 N   0  0  0  0  0  0
  -23.4359  -30.4606   21.5308 C   0  0  2  0  0  0
  -24.8931  -28.8843   20.1168 C   0  0  0  0  0  0
  -22.7505  -29.4593   22.4909 C   0  0  0  0  0  0
  -18.0329  -28.1349   22.8484 C   0  0  0  0  0  0
  -24.1489  -36.7264   23.2648 C   0  0  0  0  0  0
  -25.9822  -30.7394   21.3833 C   0  0  0  0  0  0
  -26.0599  -29.3514   20.7369 C   0  0  0  0  0  0
  -27.2290  -28.5174   20.7567 C   0  0  0  0  0  0
  -26.0525  -26.8106   19.5126 C   0  0  0  0  0  0
  -24.8985  -27.6256   19.4905 C   0  0  0  0  0  0
  -23.6636  -29.7731   20.1546 C   0  0  0  0  0  0
  -25.4109  -36.3061   24.0346 C   0  0  1  0  0  0
  -20.5903  -28.3759   23.1274 C   0  0  2  0  0  0
  -20.6844  -26.9443   22.5519 C   0  0  0  0  0  0
  -19.5837  -26.6268   21.5349 C   0  0  0  0  0  0
  -18.2011  -26.7846   22.1740 C   0  0  0  0  0  0
  -19.1541  -28.8887   23.2849 C   0  0  0  0  0  0
  -18.9414  -30.1495   23.8855 C   0  0  0  0  0  0
  -17.6393  -30.6578   24.0500 C   0  0  0  0  0  0
  -25.9041  -34.9414   23.5117 C   0  0  0  0  0  0
  -16.5329  -29.9010   23.6258 C   0  0  0  0  0  0
  -16.7298  -28.6422   23.0337 C   0  0  0  0  0  0
  -26.4510  -31.6523   25.0702 C   0  0  0  0  0  0
  -25.3760  -31.3655   26.1440 C   0  0  0  0  0  0
  -27.0363  -30.2928   24.6221 C   0  0  0  0  0  0
  -27.6078  -32.4255   25.7446 C   0  0  0  0  0  0
  -27.5591  -37.1777   24.8473 C   0  0  0  0  0  0
  -21.4218  -29.3039   22.3588 N   0  0  0  0  0  0
  -26.4314  -37.3735   23.9400 N   0  0  0  0  0  0
  -24.7008  -31.0386   22.0909 N   0  0  0  0  0  0
  -23.4171  -28.8205   23.3098 O   0  0  0  0  0  0
  -28.3359  -26.2942   20.2125 O   0  0  0  0  0  0
  -26.5638  -34.8906   22.4698 O   0  0  0  0  0  0
  -23.5450  -32.1340   23.7160 O   0  0  0  0  0  0
  -29.1738  -22.5436   19.5976 C   0  0  0  0  0  0
  -29.0949  -23.9882   19.4895 C   0  0  0  0  0  0
  -27.6864  -22.6427   21.4330 C   0  0  0  0  0  0
  -28.4655  -21.7805   20.5795 C   0  0  0  0  0  0
  -27.6052  -24.0889   21.3336 C   0  0  0  0  0  0
  -28.2965  -24.8414   20.3278 C   0  0  0  0  0  0
  -27.5766  -19.4253   19.4350 C   0  0  0  0  0  0
  -28.2675  -20.1477   20.5756 C   0  0  1  0  0  0
  -28.7985  -18.6098   20.9834 C   0  0  1  0  0  0
  -26.7379  -24.8262   22.3449 C   0  0  0  0  0  0
  -29.9546  -17.5111   20.5375 C   0  0  0  0  0  0
  -29.7267  -15.9677   20.7099 N   0  0  0  0  0  0
  -27.5970  -18.1972   20.2409 N   0  3  0  0  0  0
  -31.4788  -12.6867   19.1832 H   0  0  0  0  0  0
  -30.4534  -11.5589   20.0146 H   0  0  0  0  0  0
  -29.8272  -11.6689   17.5942 H   0  0  0  0  0  0
  -29.6188  -13.4000   17.6878 H   0  0  0  0  0  0
  -27.9570  -11.2416   19.0130 H   0  0  0  0  0  0
  -27.3815  -12.3859   17.8325 H   0  0  0  0  0  0
  -27.6244  -14.2234   19.4322 H   0  0  0  0  0  0
  -28.7322  -12.2033   21.4446 H   0  0  0  0  0  0
  -28.3733  -13.8789   21.7895 H   0  0  0  0  0  0
  -25.2671   -9.5668   22.4884 H   0  0  0  0  0  0
  -23.9995   -7.4553   22.7427 H   0  0  0  0  0  0
  -21.0833   -8.8779   19.8938 H   0  0  0  0  0  0
  -22.3647  -10.9720   19.6273 H   0  0  0  0  0  0
  -21.1983   -7.6126   23.9620 H   0  0  0  0  0  0
  -21.1525   -6.0568   25.9049 H   0  0  0  0  0  0
  -22.0596   -2.7565   23.2935 H   0  0  0  0  0  0
  -22.4054  -11.9683   22.4756 H   0  0  0  0  0  0
  -21.1090  -13.1142   22.2802 H   0  0  0  0  0  0
  -24.5662  -15.7198   20.4026 H   0  0  0  0  0  0
  -25.9862  -15.4050   19.5841 H   0  0  0  0  0  0
  -26.7168  -32.5361   23.1045 H   0  0  0  0  0  0
  -24.9969  -33.9613   25.0353 H   0  0  0  0  0  0
  -22.7352  -31.2815   21.3649 H   0  0  0  0  0  0
  -23.3760  -35.9585   23.3299 H   0  0  0  0  0  0
  -24.3614  -36.8889   22.2073 H   0  0  0  0  0  0
  -23.7230  -37.6463   23.6658 H   0  0  0  0  0  0
  -26.1260  -31.4921   20.6082 H   0  0  0  0  0  0
  -26.8555  -30.7984   22.0208 H   0  0  0  0  0  0
  -28.1190  -28.8688   21.2579 H   0  0  0  0  0  0
  -26.0158  -25.8367   19.0457 H   0  0  0  0  0  0
  -24.0123  -27.2610   18.9925 H   0  0  0  0  0  0
  -23.7894  -30.5344   19.3844 H   0  0  0  0  0  0
  -22.7861  -29.1956   19.8565 H   0  0  0  0  0  0
  -25.1288  -36.1929   25.0842 H   0  0  0  0  0  0
  -20.9973  -28.3428   24.1415 H   0  0  0  0  0  0
  -20.5795  -26.2424   23.3821 H   0  0  0  0  0  0
  -21.6726  -26.7461   22.1338 H   0  0  0  0  0  0
  -19.7042  -25.6139   21.1506 H   0  0  0  0  0  0
  -19.6760  -27.2993   20.6837 H   0  0  0  0  0  0
  -17.4277  -26.6466   21.4169 H   0  0  0  0  0  0
  -18.0455  -26.0070   22.9244 H   0  0  0  0  0  0
  -19.7878  -30.7333   24.2233 H   0  0  0  0  0  0
  -17.4904  -31.6258   24.5065 H   0  0  0  0  0  0
  -15.5311  -30.2868   23.7530 H   0  0  0  0  0  0
  -15.8745  -28.0641   22.7058 H   0  0  0  0  0  0
  -24.5968  -30.6939   25.7807 H   0  0  0  0  0  0
  -24.8909  -32.2794   26.4865 H   0  0  0  0  0  0
  -25.8140  -30.8878   27.0212 H   0  0  0  0  0  0
  -26.2954  -29.6622   24.1291 H   0  0  0  0  0  0
  -27.4063  -29.7235   25.4762 H   0  0  0  0  0  0
  -27.8827  -30.4168   23.9466 H   0  0  0  0  0  0
  -27.2721  -33.3561   26.2020 H   0  0  0  0  0  0
  -28.3884  -32.6786   25.0260 H   0  0  0  0  0  0
  -28.0742  -31.8371   26.5358 H   0  0  0  0  0  0
  -28.2609  -38.0074   24.7508 H   0  0  0  0  0  0
  -28.1099  -36.2607   24.6311 H   0  0  0  0  0  0
  -27.2315  -37.1423   25.8882 H   0  0  0  0  0  0
  -20.9467  -29.8577   21.6609 H   0  0  0  0  0  0
  -26.0215  -38.2832   24.1331 H   0  0  0  0  0  0
  -29.7703  -22.0172   18.8640 H   0  0  0  0  0  0
  -29.6844  -24.4596   18.7131 H   0  0  0  0  0  0
  -27.0699  -22.1816   22.1941 H   0  0  0  0  0  0
  -28.1899  -19.3665   18.5373 H   0  0  0  0  0  0
  -26.5692  -19.7853   19.2168 H   0  0  0  0  0  0
  -27.5063  -20.2210   21.3575 H   0  0  0  0  0  0
  -28.6297  -18.4983   22.0558 H   0  0  0  0  0  0
  -25.7573  -25.0443   21.9203 H   0  0  0  0  0  0
  -27.1962  -25.7674   22.6495 H   0  0  0  0  0  0
  -26.5844  -24.2361   23.2502 H   0  0  0  0  0  0
  -30.2284  -17.6761   19.4937 H   0  0  0  0  0  0
  -30.8648  -17.7400   21.0944 H   0  0  0  0  0  0
  -28.8091  -15.6934   21.0250 H   0  0  0  0  0  0
  -27.7354  -17.3823   19.6724 H   0  0  0  0  0  0
  -26.7836  -18.0977   20.8294 H   0  0  0  0  0  0
  1 25  1  0  0  0
  1 30  2  0  0  0
  1 82  1  0  0  0
  2  3  1  0  0  0
  2 25  1  0  0  0
  2 84  1  0  0  0
  2 85  1  0  0  0
  3  4  1  0  0  0
  3 86  1  0  0  0
  3 87  1  0  0  0
  4  5  1  0  0  0
  4 88  1  0  0  0
  4 89  1  0  0  0
  5  6  1  0  0  0
  5 26  1  0  0  0
  5 90  1  0  0  0
  6 25  1  0  0  0
  6 91  1  0  0  0
  6 92  1  0  0  0
  7  8  2  0  0  0
  7 26  1  0  0  0
  7 29  1  0  0  0
  8  9  1  0  0  0
  8 22  1  0  0  0
  9 10  1  0  0  0
  9 27  2  0  0  0
 10 11  2  0  0  0
 10 15  1  0  0  0
 11 12  1  0  0  0
 11 93  1  0  0  0
 12 13  2  0  0  0
 12 94  1  0  0  0
 13 14  1  0  0  0
 13 31  1  0  0  0
 14 15  2  0  0  0
 14 95  1  0  0  0
 15 96  1  0  0  0
 16 17  2  0  0  0
 16 21  1  0  0  0
 16 31  1  0  0  0
 17 18  1  0  0  0
 17 97  1  0  0  0
 18 19  2  0  0  0
 18 98  1  0  0  0
 19 20  1  0  0  0
 19 24  1  0  0  0
 20 21  2  0  0  0
 20 99  1  0  0  0
 21 23  1  0  0  0
 22 28  1  0  0  0
 22 32  2  0  0  0
 26 27  1  0  0  0
 28100  1  0  0  0
 28101  1  0  0  0
 29102  1  0  0  0
 29103  1  0  0  0
 33 34  1  0  0  0
 33 66  1  0  0  0
 33 70  2  0  0  0
 34 36  1  0  0  0
 34 59  1  0  0  0
 34104  1  0  0  0
 35 44  2  0  0  0
 35 45  1  0  0  0
 35 68  1  0  0  0
 36 56  1  0  0  0
 36105  1  0  0  0
 37 39  1  0  0  0
 37 47  1  0  0  0
 37 66  1  0  0  0
 37106  1  0  0  0
 38 43  2  0  0  0
 38 46  1  0  0  0
 38 47  1  0  0  0
 39 64  1  0  0  0
 39 67  2  0  0  0
 40 52  1  0  0  0
 40 53  2  0  0  0
 40 58  1  0  0  0
 41107  1  0  0  0
 41108  1  0  0  0
 41109  1  0  0  0
 41 48  1  0  0  0
 42 43  1  0  0  0
 42 66  1  0  0  0
 42110  1  0  0  0
 42111  1  0  0  0
 43 44  1  0  0  0
 44112  1  0  0  0
 45 46  2  0  0  0
 45113  1  0  0  0
 46114  1  0  0  0
 47115  1  0  0  0
 47116  1  0  0  0
 48 56  1  0  0  0
 48 65  1  0  0  0
 48117  1  0  0  0
 49 50  1  0  0  0
 49 53  1  0  0  0
 49 64  1  0  0  0
 49118  1  0  0  0
 50 51  1  0  0  0
 50119  1  0  0  0
 50120  1  0  0  0
 51 52  1  0  0  0
 51121  1  0  0  0
 51122  1  0  0  0
 52123  1  0  0  0
 52124  1  0  0  0
 53 54  1  0  0  0
 54 55  2  0  0  0
 54125  1  0  0  0
 55 57  1  0  0  0
 55126  1  0  0  0
 56 69  2  0  0  0
 57 58  2  0  0  0
 57127  1  0  0  0
 58128  1  0  0  0
 59 60  1  0  0  0
 59 61  1  0  0  0
 59 62  1  0  0  0
 60129  1  0  0  0
 60130  1  0  0  0
 60131  1  0  0  0
 61132  1  0  0  0
 61133  1  0  0  0
 61134  1  0  0  0
 62135  1  0  0  0
 62136  1  0  0  0
 62137  1  0  0  0
 63 65  1  0  0  0
 63138  1  0  0  0
 63139  1  0  0  0
 63140  1  0  0  0
 64141  1  0  0  0
 65142  1  0  0  0
 68 76  1  0  0  0
 71 72  2  0  0  0
 71 74  1  0  0  0
 71143  1  0  0  0
 72 76  1  0  0  0
 72144  1  0  0  0
 73 74  2  0  0  0
 73 75  1  0  0  0
 73145  1  0  0  0
 74 78  1  0  0  0
 75 76  2  0  0  0
 75 80  1  0  0  0
 77 78  1  0  0  0
 77 83  1  0  0  0
 77146  1  0  0  0
 77147  1  0  0  0
 78 79  1  0  0  0
 78148  1  0  0  0
 79 81  1  0  0  0
 79 83  1  0  0  0
 79149  1  0  0  0
 80150  1  0  0  0
 80151  1  0  0  0
 80152  1  0  0  0
 81 82  1  0  0  0
 81153  1  0  0  0
 81154  1  0  0  0
 82155  1  0  0  0
 83156  1  0  0  0
 83157  1  0  0  0
M  CHG  1  83   1
M  ISO  4   1 100  68 101  76 101  82 100
M  END
> <chiral flag>
0

> <version>
0

> <s_m_source_file>
/data/baiqing/PycharmProjects/Reinvent-master-3.2/result/LINK_invent/BTK/process_docking_weight1_custom_sum_contain_oxygen_bond_distance_aromatic_linkinvent_7_9_3/rearranged_h_0123.sdf

> <i_m_source_file_index>
20

> <r_mmod_Potential_Energy-OPLS-2005>
218.593338012695

> <r_mmod_Stretch_Energy-OPLS-2005>
189.293594360352

> <r_mmod_Bend_Energy-OPLS-2005>
306.683197021484

> <r_mmod_Torsional_Energy-OPLS-2005>
275.003234863281

> <r_mmod_Improper_Torsional_Energy-OPLS-2005>
11.9531316757202

> <r_mmod_Van_der_Waal_Energy-OPLS-2005>
131.560592651367

> <r_mmod_Electrostatic_Energy-OPLS-2005>
-313.876495361328

> <r_mmod_Solvation_Energy-OPLS-2005>
-515.452880859375

> <b_mmod_Minimization_Converged-OPLS-2005>
0

> <r_mmod_RMS_Derivative-OPLS-2005>
4.33797407150269

$$$$
20
                    3D
 Structure written by MMmdl.
176185  0  0  1  0            999 V2000
  -30.7371  -14.4230   20.6406 C   0  0  0  0  0  0
  -30.4201  -12.3076   19.4040 C   0  0  0  0  0  0
  -29.4856  -12.5126   18.1952 C   0  0  0  0  0  0
  -28.0097  -12.3696   18.6132 C   0  0  0  0  0  0
  -27.6619  -13.2049   19.8739 C   0  0  2  0  0  0
  -28.7022  -12.9694   20.9914 C   0  0  0  0  0  0
  -25.2591  -13.8163   20.5672 C   0  0  0  0  0  0
  -24.1838  -13.0442   20.9169 C   0  0  0  0  0  0
  -24.6386  -11.6909   20.8727 C   0  0  0  0  0  0
  -23.9053  -10.4296   21.0400 C   0  0  0  0  0  0
  -24.3606   -9.4213   21.9180 C   0  0  0  0  0  0
  -23.6287   -8.2245   22.0752 C   0  0  0  0  0  0
  -22.4272   -8.0278   21.3540 C   0  0  0  0  0  0
  -21.9904   -9.0251   20.4642 C   0  0  0  0  0  0
  -22.7227  -10.2133   20.3052 C   0  0  0  0  0  0
  -21.6853   -6.0733   22.5277 C   0  0  0  0  0  0
  -21.4011   -6.5636   23.8211 C   0  0  0  0  0  0
  -21.3657   -5.6790   24.9173 C   0  0  0  0  0  0
  -21.6047   -4.3055   24.7226 C   0  0  0  0  0  0
  -21.8819   -3.8146   23.4349 C   0  0  0  0  0  0
  -21.9190   -4.6961   22.3403 C   0  0  0  0  0  0
  -22.7865  -13.5244   21.1844 C   0  0  0  0  0  0
  -22.1663   -4.2148   21.0981 F   0  0  0  0  0  0
  -21.5628   -3.4542   25.7741 F   0  0  0  0  0  0
  -30.0381  -13.2730   20.4463 N   0  0  0  0  0  0
  -26.3022  -12.9327   20.3352 N   0  0  0  0  0  0
  -25.9308  -11.6491   20.5750 N   0  0  0  0  0  0
  -22.0502  -12.8229   22.0395 N   0  0  0  0  0  0
  -25.4334  -15.1881   20.4083 N   0  0  0  0  0  0
  -31.8082  -14.6665   20.0790 O   0  0  0  0  0  0
  -21.6638   -6.8876   21.4239 O   0  0  0  0  0  0
  -22.3554  -14.5554   20.6702 O   0  0  0  0  0  0
  -24.6147  -31.8700   23.2112 C   0  0  0  0  0  0
  -25.9045  -32.4830   23.8403 C   0  0  1  0  0  0
  -27.2232  -27.4283   20.0876 C   0  0  0  0  0  0
  -25.5906  -33.8628   24.2333 N   0  0  0  0  0  0
  -23.4008  -30.4972   21.5521 C   0  0  2  0  0  0
  -24.8434  -28.9671   20.1149 C   0  0  0  0  0  0
  -22.7409  -29.4686   22.4985 C   0  0  0  0  0  0
  -18.0278  -28.1373   22.8492 C   0  0  0  0  0  0
  -24.1489  -36.7313   23.2635 C   0  0  0  0  0  0
  -25.9327  -30.8337   21.3654 C   0  0  0  0  0  0
  -26.0069  -29.4702   20.7088 C   0  0  0  0  0  0
  -27.2002  -28.7095   20.6902 C   0  0  0  0  0  0
  -26.0335  -26.9455   19.4910 C   0  0  0  0  0  0
  -24.8514  -27.7048   19.5038 C   0  0  0  0  0  0
  -23.6076  -29.8351   20.1656 C   0  0  0  0  0  0
  -25.4112  -36.3114   24.0339 C   0  0  1  0  0  0
  -20.5867  -28.3670   23.1311 C   0  0  2  0  0  0
  -20.6768  -26.9404   22.5408 C   0  0  0  0  0  0
  -19.5745  -26.6382   21.5204 C   0  0  0  0  0  0
  -18.1924  -26.7921   22.1615 C   0  0  0  0  0  0
  -19.1526  -28.8836   23.2903 C   0  0  0  0  0  0
  -18.9458  -30.1436   23.8922 C   0  0  0  0  0  0
  -17.6465  -30.6586   24.0565 C   0  0  0  0  0  0
  -25.9044  -34.9479   23.5135 C   0  0  0  0  0  0
  -16.5353  -29.9093   23.6321 C   0  0  0  0  0  0
  -16.7266  -28.6500   23.0356 C   0  0  0  0  0  0
  -26.4472  -31.6606   25.0727 C   0  0  0  0  0  0
  -25.3737  -31.3706   26.1472 C   0  0  0  0  0  0
  -27.0303  -30.3052   24.6093 C   0  0  0  0  0  0
  -27.6060  -32.4314   25.7493 C   0  0  0  0  0  0
  -27.5584  -37.1814   24.8464 C   0  0  0  0  0  0
  -21.4139  -29.3048   22.3728 N   0  0  0  0  0  0
  -26.4299  -37.3798   23.9410 N   0  0  0  0  0  0
  -24.6680  -31.0802   22.1014 N   0  0  0  0  0  0
  -23.4195  -28.8206   23.3001 O   0  0  0  0  0  0
  -28.3906  -26.6866   20.1034 O   0  0  0  0  0  0
  -26.5599  -34.8922   22.4691 O   0  0  0  0  0  0
  -23.5341  -32.1459   23.7510 O   0  0  0  0  0  0
  -31.9304  -23.1069   20.3076 C   0  0  0  0  0  0
  -29.5409  -23.0473   20.0061 C   0  0  0  0  0  0
  -30.7641  -22.3347   20.0957 C   0  0  0  0  0  0
  -31.8401  -24.5026   20.4230 C   0  0  0  0  0  0
  -29.5460  -24.4605   20.0966 C   0  0  0  0  0  0
  -30.9254  -20.8440   19.9223 C   0  0  0  0  0  0
  -27.0516  -18.3804   16.9186 C   0  0  0  0  0  0
  -28.3252  -19.1424   16.5208 C   0  0  0  0  0  0
  -26.4386  -18.9624   18.2007 C   0  0  0  0  0  0
  -29.3526  -19.1512   17.6658 C   0  0  0  0  0  0
  -27.4619  -18.9797   19.3476 C   0  0  0  0  0  0
  -28.7478  -19.7503   18.9630 C   0  0  0  0  0  0
  -33.0680  -25.3469   20.6864 C   0  0  0  0  0  0
  -28.2613  -25.2645   19.8998 C   0  0  0  0  0  0
  -30.7799  -16.5608   21.9560 C   0  0  0  0  0  0
  -29.9392  -17.8324   21.6702 C   0  0  0  0  0  0
  -29.7408  -19.8613   20.1634 C   0  0  1  0  0  0
  -30.6763  -25.1675   20.3124 N   0  0  0  0  0  0
  -30.1701  -15.3153   21.4685 N   0  0  0  0  0  0
  -30.3708  -18.5414   20.4421 N   0  3  0  0  0  0
  -32.0359  -20.3720   19.6394 O   0  0  0  0  0  0
  -31.4625  -12.4127   19.0967 H   0  0  0  0  0  0
  -30.3284  -11.2909   19.7895 H   0  0  0  0  0  0
  -29.7217  -11.7910   17.4120 H   0  0  0  0  0  0
  -29.6513  -13.4997   17.7612 H   0  0  0  0  0  0
  -27.8209  -11.3127   18.8062 H   0  0  0  0  0  0
  -27.3557  -12.6471   17.7856 H   0  0  0  0  0  0
  -27.7118  -14.2550   19.5851 H   0  0  0  0  0  0
  -28.6743  -11.9288   21.3177 H   0  0  0  0  0  0
  -28.4509  -13.5530   21.8769 H   0  0  0  0  0  0
  -25.2752   -9.5692   22.4754 H   0  0  0  0  0  0
  -23.9999   -7.4639   22.7471 H   0  0  0  0  0  0
  -21.0836   -8.8764   19.8949 H   0  0  0  0  0  0
  -22.3686  -10.9667   19.6157 H   0  0  0  0  0  0
  -21.2004   -7.6146   23.9713 H   0  0  0  0  0  0
  -21.1479   -6.0523   25.9076 H   0  0  0  0  0  0
  -22.0601   -2.7610   23.2852 H   0  0  0  0  0  0
  -22.4108  -11.9879   22.4767 H   0  0  0  0  0  0
  -21.1118  -13.1251   22.2599 H   0  0  0  0  0  0
  -24.6658  -15.8434   20.5072 H   0  0  0  0  0  0
  -26.2851  -15.6223   20.0771 H   0  0  0  0  0  0
  -26.7115  -32.5539   23.1166 H   0  0  0  0  0  0
  -25.0061  -33.9795   25.0481 H   0  0  0  0  0  0
  -22.6886  -31.3144   21.4156 H   0  0  0  0  0  0
  -23.3755  -35.9644   23.3300 H   0  0  0  0  0  0
  -24.3576  -36.8929   22.2049 H   0  0  0  0  0  0
  -23.7238  -37.6515   23.6652 H   0  0  0  0  0  0
  -26.0462  -31.6001   20.5979 H   0  0  0  0  0  0
  -26.8212  -30.8840   21.9827 H   0  0  0  0  0  0
  -28.0998  -29.0939   21.1512 H   0  0  0  0  0  0
  -25.9828  -25.9837   19.0050 H   0  0  0  0  0  0
  -23.9559  -27.3125   19.0408 H   0  0  0  0  0  0
  -23.7165  -30.6123   19.4084 H   0  0  0  0  0  0
  -22.7304  -29.2569   19.8679 H   0  0  0  0  0  0
  -25.1289  -36.1985   25.0835 H   0  0  0  0  0  0
  -20.9965  -28.3246   24.1431 H   0  0  0  0  0  0
  -20.5672  -26.2279   23.3598 H   0  0  0  0  0  0
  -21.6641  -26.7449   22.1200 H   0  0  0  0  0  0
  -19.6911  -25.6297   21.1225 H   0  0  0  0  0  0
  -19.6692  -27.3198   20.6743 H   0  0  0  0  0  0
  -17.4192  -26.6671   21.4016 H   0  0  0  0  0  0
  -18.0331  -26.0055   22.9003 H   0  0  0  0  0  0
  -19.7940  -30.7230   24.2318 H   0  0  0  0  0  0
  -17.5024  -31.6273   24.5153 H   0  0  0  0  0  0
  -15.5359  -30.3004   23.7630 H   0  0  0  0  0  0
  -15.8662  -28.0827   22.7078 H   0  0  0  0  0  0
  -24.5913  -30.7057   25.7798 H   0  0  0  0  0  0
  -24.8922  -32.2854   26.4936 H   0  0  0  0  0  0
  -25.8081  -30.8857   27.0223 H   0  0  0  0  0  0
  -26.2849  -29.6809   24.1148 H   0  0  0  0  0  0
  -27.4086  -29.7287   25.4546 H   0  0  0  0  0  0
  -27.8678  -30.4377   23.9239 H   0  0  0  0  0  0
  -27.2711  -33.3625   26.2080 H   0  0  0  0  0  0
  -28.3874  -32.6855   25.0320 H   0  0  0  0  0  0
  -28.0713  -31.8416   26.5397 H   0  0  0  0  0  0
  -28.2606  -38.0104   24.7509 H   0  0  0  0  0  0
  -28.1075  -36.2635   24.6304 H   0  0  0  0  0  0
  -27.2285  -37.1485   25.8859 H   0  0  0  0  0  0
  -20.9291  -29.8791   21.6975 H   0  0  0  0  0  0
  -26.0189  -38.2884   24.1397 H   0  0  0  0  0  0
  -32.8982  -22.6288   20.3875 H   0  0  0  0  0  0
  -28.5988  -22.5461   19.8424 H   0  0  0  0  0  0
  -27.2871  -17.3259   17.0712 H   0  0  0  0  0  0
  -26.3231  -18.4178   16.1072 H   0  0  0  0  0  0
  -28.0680  -20.1676   16.2487 H   0  0  0  0  0  0
  -28.7628  -18.6915   15.6292 H   0  0  0  0  0  0
  -25.5648  -18.3774   18.4921 H   0  0  0  0  0  0
  -26.0792  -19.9752   18.0109 H   0  0  0  0  0  0
  -30.2280  -19.7185   17.3467 H   0  0  0  0  0  0
  -29.6938  -18.1288   17.8346 H   0  0  0  0  0  0
  -27.6982  -17.9495   19.6153 H   0  0  0  0  0  0
  -27.0027  -19.4280   20.2303 H   0  0  0  0  0  0
  -28.4277  -20.7583   18.7062 H   0  0  0  0  0  0
  -33.9722  -24.8369   20.3545 H   0  0  0  0  0  0
  -33.1611  -25.5493   21.7538 H   0  0  0  0  0  0
  -33.0061  -26.3003   20.1609 H   0  0  0  0  0  0
  -27.5073  -24.8597   20.5780 H   0  0  0  0  0  0
  -27.9339  -25.0655   18.8789 H   0  0  0  0  0  0
  -30.8568  -16.4460   23.0379 H   0  0  0  0  0  0
  -31.8087  -16.6850   21.6128 H   0  0  0  0  0  0
  -30.0682  -18.5215   22.5073 H   0  0  0  0  0  0
  -28.8742  -17.5995   21.6364 H   0  0  0  0  0  0
  -29.2040  -20.2056   21.0482 H   0  0  0  0  0  0
  -29.2913  -15.0382   21.8817 H   0  0  0  0  0  0
  -30.2625  -17.9526   19.6331 H   0  0  0  0  0  0
  -31.3573  -18.7651   20.5068 H   0  0  0  0  0  0
  1 25  1  0  0  0
  1 30  2  0  0  0
  1 89  1  0  0  0
  2  3  1  0  0  0
  2 25  1  0  0  0
  2 92  1  0  0  0
  2 93  1  0  0  0
  3  4  1  0  0  0
  3 94  1  0  0  0
  3 95  1  0  0  0
  4  5  1  0  0  0
  4 96  1  0  0  0
  4 97  1  0  0  0
  5  6  1  0  0  0
  5 26  1  0  0  0
  5 98  1  0  0  0
  6 25  1  0  0  0
  6 99  1  0  0  0
  6100  1  0  0  0
  7  8  2  0  0  0
  7 26  1  0  0  0
  7 29  1  0  0  0
  8  9  1  0  0  0
  8 22  1  0  0  0
  9 10  1  0  0  0
  9 27  2  0  0  0
 10 11  2  0  0  0
 10 15  1  0  0  0
 11 12  1  0  0  0
 11101  1  0  0  0
 12 13  2  0  0  0
 12102  1  0  0  0
 13 14  1  0  0  0
 13 31  1  0  0  0
 14 15  2  0  0  0
 14103  1  0  0  0
 15104  1  0  0  0
 16 17  2  0  0  0
 16 21  1  0  0  0
 16 31  1  0  0  0
 17 18  1  0  0  0
 17105  1  0  0  0
 18 19  2  0  0  0
 18106  1  0  0  0
 19 20  1  0  0  0
 19 24  1  0  0  0
 20 21  2  0  0  0
 20107  1  0  0  0
 21 23  1  0  0  0
 22 28  1  0  0  0
 22 32  2  0  0  0
 26 27  1  0  0  0
 28108  1  0  0  0
 28109  1  0  0  0
 29110  1  0  0  0
 29111  1  0  0  0
 33 34  1  0  0  0
 33 66  1  0  0  0
 33 70  2  0  0  0
 34 36  1  0  0  0
 34 59  1  0  0  0
 34112  1  0  0  0
 35 44  2  0  0  0
 35 45  1  0  0  0
 35 68  1  0  0  0
 36 56  1  0  0  0
 36113  1  0  0  0
 37 39  1  0  0  0
 37 47  1  0  0  0
 37 66  1  0  0  0
 37114  1  0  0  0
 38 43  2  0  0  0
 38 46  1  0  0  0
 38 47  1  0  0  0
 39 64  1  0  0  0
 39 67  2  0  0  0
 40 52  1  0  0  0
 40 53  2  0  0  0
 40 58  1  0  0  0
 41115  1  0  0  0
 41116  1  0  0  0
 41117  1  0  0  0
 41 48  1  0  0  0
 42 43  1  0  0  0
 42 66  1  0  0  0
 42118  1  0  0  0
 42119  1  0  0  0
 43 44  1  0  0  0
 44120  1  0  0  0
 45 46  2  0  0  0
 45121  1  0  0  0
 46122  1  0  0  0
 47123  1  0  0  0
 47124  1  0  0  0
 48 56  1  0  0  0
 48 65  1  0  0  0
 48125  1  0  0  0
 49 50  1  0  0  0
 49 53  1  0  0  0
 49 64  1  0  0  0
 49126  1  0  0  0
 50 51  1  0  0  0
 50127  1  0  0  0
 50128  1  0  0  0
 51 52  1  0  0  0
 51129  1  0  0  0
 51130  1  0  0  0
 52131  1  0  0  0
 52132  1  0  0  0
 53 54  1  0  0  0
 54 55  2  0  0  0
 54133  1  0  0  0
 55 57  1  0  0  0
 55134  1  0  0  0
 56 69  2  0  0  0
 57 58  2  0  0  0
 57135  1  0  0  0
 58136  1  0  0  0
 59 60  1  0  0  0
 59 61  1  0  0  0
 59 62  1  0  0  0
 60137  1  0  0  0
 60138  1  0  0  0
 60139  1  0  0  0
 61140  1  0  0  0
 61141  1  0  0  0
 61142  1  0  0  0
 62143  1  0  0  0
 62144  1  0  0  0
 62145  1  0  0  0
 63 65  1  0  0  0
 63146  1  0  0  0
 63147  1  0  0  0
 63148  1  0  0  0
 64149  1  0  0  0
 65150  1  0  0  0
 68 84  1  0  0  0
 71 73  2  0  0  0
 71 74  1  0  0  0
 71151  1  0  0  0
 72 73  1  0  0  0
 72 75  2  0  0  0
 72152  1  0  0  0
 73 76  1  0  0  0
 74 83  1  0  0  0
 74 88  2  0  0  0
 75 84  1  0  0  0
 75 88  1  0  0  0
 76 87  1  0  0  0
 76 91  2  0  0  0
 77 78  1  0  0  0
 77 79  1  0  0  0
 77153  1  0  0  0
 77154  1  0  0  0
 78 80  1  0  0  0
 78155  1  0  0  0
 78156  1  0  0  0
 79 81  1  0  0  0
 79157  1  0  0  0
 79158  1  0  0  0
 80159  1  0  0  0
 80160  1  0  0  0
 80 82  1  0  0  0
 81 82  1  0  0  0
 81161  1  0  0  0
 81162  1  0  0  0
 82 87  1  0  0  0
 82163  1  0  0  0
 83164  1  0  0  0
 83165  1  0  0  0
 83166  1  0  0  0
 84167  1  0  0  0
 84168  1  0  0  0
 85 86  1  0  0  0
 85 89  1  0  0  0
 85169  1  0  0  0
 85170  1  0  0  0
 86 90  1  0  0  0
 86171  1  0  0  0
 86172  1  0  0  0
 87 90  1  0  0  0
 87173  1  0  0  0
 89174  1  0  0  0
 90175  1  0  0  0
 90176  1  0  0  0
M  CHG  1  90   1
M  ISO  4   1 100  68 101  84 101  89 100
M  END
> <chiral flag>
0

> <version>
0

> <s_m_source_file>
/data/baiqing/PycharmProjects/Reinvent-master-3.2/result/LINK_invent/BTK/process_docking_weight1_custom_sum_contain_oxygen_bond_distance_aromatic_linkinvent_7_9_3/rearranged_h_0123.sdf

> <i_m_source_file_index>
21

> <r_mmod_Potential_Energy-OPLS-2005>
-357.594360351562

> <r_mmod_Stretch_Energy-OPLS-2005>
41.9065895080566

> <r_mmod_Bend_Energy-OPLS-2005>
110.730812072754

> <r_mmod_Torsional_Energy-OPLS-2005>
275.575347900391

> <r_mmod_Improper_Torsional_Energy-OPLS-2005>
2.39806604385376

> <r_mmod_Van_der_Waal_Energy-OPLS-2005>
163.808975219727

> <r_mmod_Electrostatic_Energy-OPLS-2005>
-470.101409912109

> <r_mmod_Solvation_Energy-OPLS-2005>
-492.268920898438

> <b_mmod_Minimization_Converged-OPLS-2005>
0

> <r_mmod_RMS_Derivative-OPLS-2005>
1.19348216056824

$$$$
21
                    3D
 Structure written by MMmdl.
174183  0  0  1  0            999 V2000
  -30.7584  -14.4381   20.6567 C   0  0  0  0  0  0
  -30.4166  -12.3218   19.4133 C   0  0  0  0  0  0
  -29.4822  -12.4846   18.1999 C   0  0  0  0  0  0
  -28.0084  -12.3446   18.6240 C   0  0  0  0  0  0
  -27.6557  -13.2077   19.8642 C   0  0  2  0  0  0
  -28.6940  -13.0200   20.9884 C   0  0  0  0  0  0
  -25.2613  -13.8175   20.5676 C   0  0  0  0  0  0
  -24.1848  -13.0448   20.9169 C   0  0  0  0  0  0
  -24.6399  -11.6924   20.8744 C   0  0  0  0  0  0
  -23.9070  -10.4307   21.0426 C   0  0  0  0  0  0
  -24.3629   -9.4216   21.9191 C   0  0  0  0  0  0
  -23.6311   -8.2247   22.0746 C   0  0  0  0  0  0
  -22.4291   -8.0275   21.3542 C   0  0  0  0  0  0
  -21.9943   -9.0269   20.4656 C   0  0  0  0  0  0
  -22.7266  -10.2141   20.3064 C   0  0  0  0  0  0
  -21.6889   -6.0744   22.5296 C   0  0  0  0  0  0
  -21.4014   -6.5644   23.8229 C   0  0  0  0  0  0
  -21.3631   -5.6804   24.9199 C   0  0  0  0  0  0
  -21.6036   -4.3068   24.7255 C   0  0  0  0  0  0
  -21.8807   -3.8150   23.4378 C   0  0  0  0  0  0
  -21.9211   -4.6971   22.3431 C   0  0  0  0  0  0
  -22.7876  -13.5257   21.1898 C   0  0  0  0  0  0
  -22.1671   -4.2129   21.1019 F   0  0  0  0  0  0
  -21.5647   -3.4572   25.7777 F   0  0  0  0  0  0
  -30.0278  -13.3084   20.4370 N   0  0  0  0  0  0
  -26.3015  -12.9325   20.3372 N   0  0  0  0  0  0
  -25.9308  -11.6492   20.5728 N   0  0  0  0  0  0
  -22.0530  -12.8210   22.0426 N   0  0  0  0  0  0
  -25.4492  -15.1852   20.4164 N   0  0  0  0  0  0
  -31.8283  -14.6587   20.0859 O   0  0  0  0  0  0
  -21.6637   -6.8874   21.4254 O   0  0  0  0  0  0
  -22.3596  -14.5639   20.6839 O   0  0  0  0  0  0
  -24.6136  -31.8686   23.2114 C   0  0  0  0  0  0
  -25.9020  -32.4833   23.8410 C   0  0  1  0  0  0
  -27.2259  -27.4227   20.0912 C   0  0  0  0  0  0
  -25.5884  -33.8639   24.2344 N   0  0  0  0  0  0
  -23.4040  -30.4911   21.5531 C   0  0  2  0  0  0
  -24.8490  -28.9457   20.1240 C   0  0  0  0  0  0
  -22.7434  -29.4700   22.5050 C   0  0  0  0  0  0
  -18.0297  -28.1374   22.8488 C   0  0  0  0  0  0
  -24.1490  -36.7325   23.2636 C   0  0  0  0  0  0
  -25.9326  -30.8271   21.3669 C   0  0  0  0  0  0
  -26.0095  -29.4554   20.7189 C   0  0  0  0  0  0
  -27.2055  -28.7011   20.7025 C   0  0  0  0  0  0
  -26.0501  -26.9271   19.4956 C   0  0  0  0  0  0
  -24.8608  -27.6806   19.5122 C   0  0  0  0  0  0
  -23.6122  -29.8159   20.1708 C   0  0  0  0  0  0
  -25.4106  -36.3121   24.0330 C   0  0  1  0  0  0
  -20.5882  -28.3704   23.1343 C   0  0  2  0  0  0
  -20.6827  -26.9426   22.5453 C   0  0  0  0  0  0
  -19.5767  -26.6339   21.5293 C   0  0  0  0  0  0
  -18.1944  -26.7879   22.1725 C   0  0  0  0  0  0
  -19.1533  -28.8869   23.2898 C   0  0  0  0  0  0
  -18.9446  -30.1490   23.8884 C   0  0  0  0  0  0
  -17.6426  -30.6596   24.0556 C   0  0  0  0  0  0
  -25.9026  -34.9481   23.5147 C   0  0  0  0  0  0
  -16.5353  -29.9061   23.6282 C   0  0  0  0  0  0
  -16.7288  -28.6524   23.0261 C   0  0  0  0  0  0
  -26.4449  -31.6594   25.0742 C   0  0  0  0  0  0
  -25.3710  -31.3720   26.1499 C   0  0  0  0  0  0
  -27.0298  -30.3034   24.6132 C   0  0  0  0  0  0
  -27.6045  -32.4298   25.7508 C   0  0  0  0  0  0
  -27.5580  -37.1807   24.8452 C   0  0  0  0  0  0
  -21.4178  -29.3050   22.3748 N   0  0  0  0  0  0
  -26.4316  -37.3786   23.9389 N   0  0  0  0  0  0
  -24.6682  -31.0788   22.1014 N   0  0  0  0  0  0
  -23.4220  -28.8262   23.3097 O   0  0  0  0  0  0
  -28.3726  -26.6637   20.0131 O   0  0  0  0  0  0
  -26.5634  -34.8928   22.4733 O   0  0  0  0  0  0
  -23.5330  -32.1485   23.7480 O   0  0  0  0  0  0
  -27.9108  -18.0414   22.4797 C   0  0  0  0  0  0
  -27.9655  -17.8553   20.0628 C   0  0  0  0  0  0
  -28.8911  -17.0272   22.5726 C   0  0  0  0  0  0
  -28.9363  -16.8294   20.1538 C   0  0  0  0  0  0
  -27.3897  -18.4275   21.2231 C   0  0  0  0  0  0
  -29.3735  -16.3692   21.4193 C   0  0  0  0  0  0
  -24.2761  -20.1315   22.4185 C   0  0  0  0  0  0
  -23.3877  -19.6806   21.2151 C   0  0  0  0  0  0
  -25.3852  -19.3982   19.7790 C   0  0  0  0  0  0
  -26.0390  -19.1645   21.1690 C   0  0  2  0  0  0
  -25.9758  -22.4421   23.2351 C   0  0  0  0  0  0
  -28.6646  -24.2273   20.6518 C   0  0  0  0  0  0
  -27.4109  -22.0640   21.1993 C   0  0  0  0  0  0
  -28.5856  -25.7282   21.0830 C   0  0  0  0  0  0
  -26.0620  -21.6878   21.8774 C   0  0  1  0  0  0
  -25.7328  -20.2527   22.1315 N   0  0  0  0  0  0
  -30.3010  -15.2954   21.5914 N   0  0  0  0  0  0
  -24.0267  -19.9785   19.9141 N   0  3  0  0  0  0
  -27.3704  -23.5007   20.7752 N   0  3  0  0  0  0
  -31.4577  -12.4282   19.0982 H   0  0  0  0  0  0
  -30.3279  -11.3172   19.8275 H   0  0  0  0  0  0
  -29.7138  -11.7319   17.4457 H   0  0  0  0  0  0
  -29.6403  -13.4504   17.7216 H   0  0  0  0  0  0
  -27.8296  -11.2932   18.8553 H   0  0  0  0  0  0
  -27.3448  -12.5822   17.7918 H   0  0  0  0  0  0
  -27.6934  -14.2482   19.5400 H   0  0  0  0  0  0
  -28.6689  -11.9955   21.3603 H   0  0  0  0  0  0
  -28.4355  -13.6491   21.8421 H   0  0  0  0  0  0
  -25.2796   -9.5705   22.4753 H   0  0  0  0  0  0
  -24.0044   -7.4647   22.7455 H   0  0  0  0  0  0
  -21.0873   -8.8820   19.8960 H   0  0  0  0  0  0
  -22.3766  -10.9687   19.6164 H   0  0  0  0  0  0
  -21.1951   -7.6145   23.9740 H   0  0  0  0  0  0
  -21.1480   -6.0524   25.9100 H   0  0  0  0  0  0
  -22.0601   -2.7605   23.2915 H   0  0  0  0  0  0
  -22.4144  -11.9772   22.4656 H   0  0  0  0  0  0
  -21.1142  -13.1212   22.2685 H   0  0  0  0  0  0
  -24.7106  -15.8551   20.5783 H   0  0  0  0  0  0
  -26.3498  -15.6100   20.2383 H   0  0  0  0  0  0
  -26.7127  -32.5540   23.1211 H   0  0  0  0  0  0
  -24.9918  -33.9796   25.0421 H   0  0  0  0  0  0
  -22.6911  -31.3051   21.4104 H   0  0  0  0  0  0
  -23.3756  -35.9657   23.3324 H   0  0  0  0  0  0
  -24.3553  -36.8928   22.2036 H   0  0  0  0  0  0
  -23.7248  -37.6540   23.6644 H   0  0  0  0  0  0
  -26.0426  -31.5912   20.5943 H   0  0  0  0  0  0
  -26.8174  -30.8863   21.9885 H   0  0  0  0  0  0
  -28.1087  -29.0996   21.1463 H   0  0  0  0  0  0
  -26.0557  -25.9619   19.0072 H   0  0  0  0  0  0
  -23.9678  -27.2875   19.0478 H   0  0  0  0  0  0
  -23.7237  -30.5810   19.4034 H   0  0  0  0  0  0
  -22.7364  -29.2341   19.8779 H   0  0  0  0  0  0
  -25.1287  -36.2007   25.0825 H   0  0  0  0  0  0
  -20.9964  -28.3276   24.1479 H   0  0  0  0  0  0
  -20.5877  -26.2306   23.3671 H   0  0  0  0  0  0
  -21.6657  -26.7525   22.1160 H   0  0  0  0  0  0
  -19.6928  -25.6247   21.1337 H   0  0  0  0  0  0
  -19.6673  -27.3180   20.6813 H   0  0  0  0  0  0
  -17.4175  -26.6517   21.4193 H   0  0  0  0  0  0
  -18.0372  -26.0130   22.9229 H   0  0  0  0  0  0
  -19.7898  -30.7351   24.2232 H   0  0  0  0  0  0
  -17.4922  -31.6265   24.5173 H   0  0  0  0  0  0
  -15.5347  -30.2952   23.7576 H   0  0  0  0  0  0
  -15.8720  -28.0826   22.6902 H   0  0  0  0  0  0
  -24.5837  -30.7133   25.7833 H   0  0  0  0  0  0
  -24.8972  -32.2885   26.4996 H   0  0  0  0  0  0
  -25.8020  -30.8829   27.0242 H   0  0  0  0  0  0
  -26.2884  -29.6824   24.1098 H   0  0  0  0  0  0
  -27.3985  -29.7223   25.4596 H   0  0  0  0  0  0
  -27.8738  -30.4392   23.9377 H   0  0  0  0  0  0
  -27.2682  -33.3573   26.2158 H   0  0  0  0  0  0
  -28.3797  -32.6889   25.0289 H   0  0  0  0  0  0
  -28.0783  -31.8386   26.5354 H   0  0  0  0  0  0
  -28.2605  -38.0104   24.7489 H   0  0  0  0  0  0
  -28.1084  -36.2623   24.6310 H   0  0  0  0  0  0
  -27.2279  -37.1468   25.8858 H   0  0  0  0  0  0
  -20.9400  -29.8721   21.6886 H   0  0  0  0  0  0
  -26.0216  -38.2886   24.1388 H   0  0  0  0  0  0
  -27.4932  -18.4519   23.3888 H   0  0  0  0  0  0
  -27.6257  -18.1273   19.0757 H   0  0  0  0  0  0
  -29.2257  -16.7168   23.5535 H   0  0  0  0  0  0
  -29.3132  -16.3952   19.2349 H   0  0  0  0  0  0
  -24.1517  -19.3914   23.2143 H   0  0  0  0  0  0
  -23.8491  -21.0427   22.8307 H   0  0  0  0  0  0
  -22.4101  -20.1618   21.2655 H   0  0  0  0  0  0
  -23.1977  -18.6080   21.2770 H   0  0  0  0  0  0
  -25.2705  -18.4381   19.2743 H   0  0  0  0  0  0
  -25.9968  -20.0231   19.1288 H   0  0  0  0  0  0
  -25.4735  -18.3204   21.5654 H   0  0  0  0  0  0
  -26.4419  -23.4257   23.1951 H   0  0  0  0  0  0
  -26.4711  -21.8926   24.0333 H   0  0  0  0  0  0
  -24.9546  -22.6359   23.5613 H   0  0  0  0  0  0
  -29.3773  -23.7418   21.3198 H   0  0  0  0  0  0
  -29.0761  -24.1226   19.6443 H   0  0  0  0  0  0
  -27.6092  -21.4402   20.3274 H   0  0  0  0  0  0
  -28.2253  -21.8907   21.9046 H   0  0  0  0  0  0
  -29.5582  -26.0012   21.4984 H   0  0  0  0  0  0
  -27.8758  -25.8692   21.9020 H   0  0  0  0  0  0
  -25.2763  -22.0818   21.2281 H   0  0  0  0  0  0
  -30.9843  -15.4843   22.3112 H   0  0  0  0  0  0
  -24.0830  -20.9771   19.8221 H   0  0  0  0  0  0
  -23.4435  -19.6449   19.1647 H   0  0  0  0  0  0
  -26.8552  -23.5893   19.9124 H   0  0  0  0  0  0
  -26.8400  -23.9775   21.4874 H   0  0  0  0  0  0
  1 25  1  0  0  0
  1 30  2  0  0  0
  1 87  1  0  0  0
  2  3  1  0  0  0
  2 25  1  0  0  0
  2 90  1  0  0  0
  2 91  1  0  0  0
  3  4  1  0  0  0
  3 92  1  0  0  0
  3 93  1  0  0  0
  4  5  1  0  0  0
  4 94  1  0  0  0
  4 95  1  0  0  0
  5  6  1  0  0  0
  5 26  1  0  0  0
  5 96  1  0  0  0
  6 25  1  0  0  0
  6 97  1  0  0  0
  6 98  1  0  0  0
  7  8  2  0  0  0
  7 26  1  0  0  0
  7 29  1  0  0  0
  8  9  1  0  0  0
  8 22  1  0  0  0
  9 10  1  0  0  0
  9 27  2  0  0  0
 10 11  2  0  0  0
 10 15  1  0  0  0
 11 12  1  0  0  0
 11 99  1  0  0  0
 12 13  2  0  0  0
 12100  1  0  0  0
 13 14  1  0  0  0
 13 31  1  0  0  0
 14 15  2  0  0  0
 14101  1  0  0  0
 15102  1  0  0  0
 16 17  2  0  0  0
 16 21  1  0  0  0
 16 31  1  0  0  0
 17 18  1  0  0  0
 17103  1  0  0  0
 18 19  2  0  0  0
 18104  1  0  0  0
 19 20  1  0  0  0
 19 24  1  0  0  0
 20 21  2  0  0  0
 20105  1  0  0  0
 21 23  1  0  0  0
 22 28  1  0  0  0
 22 32  2  0  0  0
 26 27  1  0  0  0
 28106  1  0  0  0
 28107  1  0  0  0
 29108  1  0  0  0
 29109  1  0  0  0
 33 34  1  0  0  0
 33 66  1  0  0  0
 33 70  2  0  0  0
 34 36  1  0  0  0
 34 59  1  0  0  0
 34110  1  0  0  0
 35 44  2  0  0  0
 35 45  1  0  0  0
 35 68  1  0  0  0
 36 56  1  0  0  0
 36111  1  0  0  0
 37 39  1  0  0  0
 37 47  1  0  0  0
 37 66  1  0  0  0
 37112  1  0  0  0
 38 43  2  0  0  0
 38 46  1  0  0  0
 38 47  1  0  0  0
 39 64  1  0  0  0
 39 67  2  0  0  0
 40 52  1  0  0  0
 40 53  2  0  0  0
 40 58  1  0  0  0
 41113  1  0  0  0
 41114  1  0  0  0
 41115  1  0  0  0
 41 48  1  0  0  0
 42 43  1  0  0  0
 42 66  1  0  0  0
 42116  1  0  0  0
 42117  1  0  0  0
 43 44  1  0  0  0
 44118  1  0  0  0
 45 46  2  0  0  0
 45119  1  0  0  0
 46120  1  0  0  0
 47121  1  0  0  0
 47122  1  0  0  0
 48 56  1  0  0  0
 48 65  1  0  0  0
 48123  1  0  0  0
 49 50  1  0  0  0
 49 53  1  0  0  0
 49 64  1  0  0  0
 49124  1  0  0  0
 50 51  1  0  0  0
 50125  1  0  0  0
 50126  1  0  0  0
 51 52  1  0  0  0
 51127  1  0  0  0
 51128  1  0  0  0
 52129  1  0  0  0
 52130  1  0  0  0
 53 54  1  0  0  0
 54 55  2  0  0  0
 54131  1  0  0  0
 55 57  1  0  0  0
 55132  1  0  0  0
 56 69  2  0  0  0
 57 58  2  0  0  0
 57133  1  0  0  0
 58134  1  0  0  0
 59 60  1  0  0  0
 59 61  1  0  0  0
 59 62  1  0  0  0
 60135  1  0  0  0
 60136  1  0  0  0
 60137  1  0  0  0
 61138  1  0  0  0
 61139  1  0  0  0
 61140  1  0  0  0
 62141  1  0  0  0
 62142  1  0  0  0
 62143  1  0  0  0
 63 65  1  0  0  0
 63144  1  0  0  0
 63145  1  0  0  0
 63146  1  0  0  0
 64147  1  0  0  0
 65148  1  0  0  0
 68 84  1  0  0  0
 71 73  2  0  0  0
 71 75  1  0  0  0
 71149  1  0  0  0
 72 74  1  0  0  0
 72 75  2  0  0  0
 72150  1  0  0  0
 73 76  1  0  0  0
 73151  1  0  0  0
 74 76  2  0  0  0
 74152  1  0  0  0
 75 80  1  0  0  0
 76 87  1  0  0  0
 77 78  1  0  0  0
 77 86  1  0  0  0
 77153  1  0  0  0
 77154  1  0  0  0
 78 88  1  0  0  0
 78155  1  0  0  0
 78156  1  0  0  0
 79 80  1  0  0  0
 79 88  1  0  0  0
 79157  1  0  0  0
 79158  1  0  0  0
 80 86  1  0  0  0
 80159  1  0  0  0
 81160  1  0  0  0
 81161  1  0  0  0
 81162  1  0  0  0
 81 85  1  0  0  0
 82 84  1  0  0  0
 82 89  1  0  0  0
 82163  1  0  0  0
 82164  1  0  0  0
 83 85  1  0  0  0
 83 89  1  0  0  0
 83165  1  0  0  0
 83166  1  0  0  0
 84167  1  0  0  0
 84168  1  0  0  0
 85 86  1  0  0  0
 85169  1  0  0  0
 87170  1  0  0  0
 88171  1  0  0  0
 88172  1  0  0  0
 89173  1  0  0  0
 89174  1  0  0  0
M  CHG  2  88   1  89   1
M  ISO  4   1 100  68 101  84 101  87 100
M  END
> <chiral flag>
0

> <version>
0

> <s_m_source_file>
/data/baiqing/PycharmProjects/Reinvent-master-3.2/result/LINK_invent/BTK/process_docking_weight1_custom_sum_contain_oxygen_bond_distance_aromatic_linkinvent_7_9_3/rearranged_h_0123.sdf

> <i_m_source_file_index>
22

> <r_mmod_Potential_Energy-OPLS-2005>
-128.806610107422

> <r_mmod_Stretch_Energy-OPLS-2005>
51.1524314880371

> <r_mmod_Bend_Energy-OPLS-2005>
162.939819335938

> <r_mmod_Torsional_Energy-OPLS-2005>
384.194946289062

> <r_mmod_Improper_Torsional_Energy-OPLS-2005>
6.74236917495728

> <r_mmod_Van_der_Waal_Energy-OPLS-2005>
156.247100830078

> <r_mmod_Electrostatic_Energy-OPLS-2005>
55.7132110595703

> <r_mmod_Solvation_Energy-OPLS-2005>
-957.943420410156

> <b_mmod_Minimization_Converged-OPLS-2005>
0

> <r_mmod_RMS_Derivative-OPLS-2005>
5.5581374168396

$$$$
22
                    3D
 Structure written by MMmdl.
178186  0  0  1  0            999 V2000
  -30.7479  -14.3782   20.6738 C   0  0  0  0  0  0
  -30.4192  -12.2925   19.3997 C   0  0  0  0  0  0
  -29.4897  -12.5364   18.1957 C   0  0  0  0  0  0
  -28.0116  -12.3872   18.6078 C   0  0  0  0  0  0
  -27.6659  -13.2049   19.8811 C   0  0  2  0  0  0
  -28.7028  -12.9401   20.9963 C   0  0  0  0  0  0
  -25.2598  -13.8162   20.5690 C   0  0  0  0  0  0
  -24.1837  -13.0445   20.9173 C   0  0  0  0  0  0
  -24.6388  -11.6911   20.8725 C   0  0  0  0  0  0
  -23.9049  -10.4293   21.0382 C   0  0  0  0  0  0
  -24.3613   -9.4217   21.9165 C   0  0  0  0  0  0
  -23.6301   -8.2245   22.0743 C   0  0  0  0  0  0
  -22.4274   -8.0270   21.3539 C   0  0  0  0  0  0
  -21.9899   -9.0229   20.4637 C   0  0  0  0  0  0
  -22.7224  -10.2116   20.3040 C   0  0  0  0  0  0
  -21.6851   -6.0722   22.5282 C   0  0  0  0  0  0
  -21.4008   -6.5620   23.8214 C   0  0  0  0  0  0
  -21.3663   -5.6775   24.9179 C   0  0  0  0  0  0
  -21.6053   -4.3037   24.7226 C   0  0  0  0  0  0
  -21.8828   -3.8130   23.4338 C   0  0  0  0  0  0
  -21.9198   -4.6951   22.3398 C   0  0  0  0  0  0
  -22.7864  -13.5239   21.1832 C   0  0  0  0  0  0
  -22.1661   -4.2133   21.0975 F   0  0  0  0  0  0
  -21.5642   -3.4529   25.7734 F   0  0  0  0  0  0
  -30.0464  -13.2360   20.4644 N   0  0  0  0  0  0
  -26.3037  -12.9341   20.3381 N   0  0  0  0  0  0
  -25.9311  -11.6501   20.5747 N   0  0  0  0  0  0
  -22.0494  -12.8235   22.0392 N   0  0  0  0  0  0
  -25.4360  -15.1882   20.4134 N   0  0  0  0  0  0
  -31.7789  -14.6642   20.0564 O   0  0  0  0  0  0
  -21.6648   -6.8862   21.4239 O   0  0  0  0  0  0
  -22.3546  -14.5534   20.6670 O   0  0  0  0  0  0
  -24.6109  -31.8702   23.2128 C   0  0  0  0  0  0
  -25.9015  -32.4829   23.8408 C   0  0  1  0  0  0
  -27.2364  -27.4639   20.0679 C   0  0  0  0  0  0
  -25.5893  -33.8627   24.2338 N   0  0  0  0  0  0
  -23.3986  -30.4937   21.5530 C   0  0  2  0  0  0
  -24.8431  -28.9601   20.1176 C   0  0  0  0  0  0
  -22.7393  -29.4664   22.5006 C   0  0  0  0  0  0
  -18.0264  -28.1375   22.8498 C   0  0  0  0  0  0
  -24.1476  -36.7309   23.2638 C   0  0  0  0  0  0
  -25.9256  -30.8365   21.3668 C   0  0  0  0  0  0
  -26.0018  -29.4720   20.7160 C   0  0  0  0  0  0
  -27.1993  -28.7240   20.7040 C   0  0  0  0  0  0
  -26.0557  -26.9489   19.4893 C   0  0  0  0  0  0
  -24.8618  -27.6931   19.5097 C   0  0  0  0  0  0
  -23.6046  -29.8261   20.1674 C   0  0  0  0  0  0
  -25.4103  -36.3119   24.0345 C   0  0  1  0  0  0
  -20.5850  -28.3654   23.1334 C   0  0  2  0  0  0
  -20.6755  -26.9396   22.5427 C   0  0  0  0  0  0
  -19.5737  -26.6384   21.5222 C   0  0  0  0  0  0
  -18.1914  -26.7927   22.1624 C   0  0  0  0  0  0
  -19.1511  -28.8830   23.2914 C   0  0  0  0  0  0
  -18.9446  -30.1438   23.8920 C   0  0  0  0  0  0
  -17.6451  -30.6581   24.0566 C   0  0  0  0  0  0
  -25.9033  -34.9484   23.5138 C   0  0  0  0  0  0
  -16.5341  -29.9089   23.6323 C   0  0  0  0  0  0
  -16.7255  -28.6503   23.0349 C   0  0  0  0  0  0
  -26.4459  -31.6608   25.0731 C   0  0  0  0  0  0
  -25.3738  -31.3712   26.1490 C   0  0  0  0  0  0
  -27.0283  -30.3051   24.6099 C   0  0  0  0  0  0
  -27.6041  -32.4331   25.7486 C   0  0  0  0  0  0
  -27.5584  -37.1799   24.8460 C   0  0  0  0  0  0
  -21.4123  -29.3024   22.3742 N   0  0  0  0  0  0
  -26.4286  -37.3809   23.9421 N   0  0  0  0  0  0
  -24.6629  -31.0805   22.1030 N   0  0  0  0  0  0
  -23.4177  -28.8212   23.3046 O   0  0  0  0  0  0
  -28.4035  -26.7383   20.0443 O   0  0  0  0  0  0
  -26.5596  -34.8943   22.4698 O   0  0  0  0  0  0
  -23.5302  -32.1447   23.7530 O   0  0  0  0  0  0
  -26.1081  -20.3308   20.8423 C   0  0  0  0  0  0
  -26.9130  -19.4452   21.5792 C   0  0  0  0  0  0
  -26.6451  -20.9746   19.7061 C   0  0  0  0  0  0
  -28.0141  -20.7453   19.4037 C   0  0  0  0  0  0
  -28.2332  -19.2265   21.1651 C   0  0  0  0  0  0
  -23.1196  -20.9285   16.2288 C   0  0  0  0  0  0
  -24.7456  -22.8612   16.0488 C   0  0  0  0  0  0
  -25.7238  -21.8650   18.8717 C   0  0  0  0  0  0
  -28.7470  -21.3897   18.2274 C   0  0  0  0  0  0
  -30.0819  -17.6160   21.1062 C   0  0  0  0  0  0
  -30.7566  -16.5193   21.9521 C   0  0  0  0  0  0
  -29.6328  -22.6129   18.5776 C   0  0  0  0  0  0
  -29.7257  -25.1007   18.8024 C   0  0  0  0  0  0
  -28.8914  -26.3961   18.7454 C   0  0  0  0  0  0
  -24.0443  -21.8785   17.0093 C   0  0  0  0  0  0
  -28.7738  -19.8843   20.1198 N   0  0  0  0  0  0
  -29.0259  -18.2991   21.8448 N   0  0  0  0  0  0
  -30.2440  -15.1950   21.6079 N   0  0  0  0  0  0
  -25.0098  -21.1001   17.8235 N   0  3  0  0  0  0
  -28.8831  -23.8763   18.8047 N   0  3  0  0  0  0
  -31.4646  -12.3925   19.1011 H   0  0  0  0  0  0
  -30.3155  -11.2671   19.7563 H   0  0  0  0  0  0
  -29.7278  -11.8404   17.3907 H   0  0  0  0  0  0
  -29.6621  -13.5371   17.7965 H   0  0  0  0  0  0
  -27.8167  -11.3278   18.7815 H   0  0  0  0  0  0
  -27.3597  -12.6837   17.7846 H   0  0  0  0  0  0
  -27.7238  -14.2612   19.6142 H   0  0  0  0  0  0
  -28.6672  -11.8941   21.3005 H   0  0  0  0  0  0
  -28.4509  -13.5040   21.8953 H   0  0  0  0  0  0
  -25.2760   -9.5703   22.4740 H   0  0  0  0  0  0
  -24.0019   -7.4634   22.7454 H   0  0  0  0  0  0
  -21.0827   -8.8734   19.8943 H   0  0  0  0  0  0
  -22.3665  -10.9645   19.6147 H   0  0  0  0  0  0
  -21.1984   -7.6127   23.9719 H   0  0  0  0  0  0
  -21.1483   -6.0496   25.9084 H   0  0  0  0  0  0
  -22.0605   -2.7594   23.2846 H   0  0  0  0  0  0
  -22.4085  -11.9902   22.4810 H   0  0  0  0  0  0
  -21.1110  -13.1274   22.2556 H   0  0  0  0  0  0
  -24.6774  -15.8499   20.5278 H   0  0  0  0  0  0
  -26.3044  -15.6229   20.1260 H   0  0  0  0  0  0
  -26.7082  -32.5549   23.1168 H   0  0  0  0  0  0
  -25.0054  -33.9796   25.0490 H   0  0  0  0  0  0
  -22.6872  -31.3107   21.4164 H   0  0  0  0  0  0
  -23.3748  -35.9629   23.3307 H   0  0  0  0  0  0
  -24.3570  -36.8906   22.2050 H   0  0  0  0  0  0
  -23.7214  -37.6514   23.6642 H   0  0  0  0  0  0
  -26.0392  -31.6033   20.5989 H   0  0  0  0  0  0
  -26.8135  -30.8880   21.9849 H   0  0  0  0  0  0
  -28.0955  -29.1151   21.1656 H   0  0  0  0  0  0
  -26.0483  -25.9737   19.0241 H   0  0  0  0  0  0
  -23.9674  -27.2900   19.0549 H   0  0  0  0  0  0
  -23.7108  -30.6007   19.4067 H   0  0  0  0  0  0
  -22.7286  -29.2441   19.8741 H   0  0  0  0  0  0
  -25.1272  -36.1986   25.0835 H   0  0  0  0  0  0
  -20.9946  -28.3207   24.1453 H   0  0  0  0  0  0
  -20.5650  -26.2262   23.3604 H   0  0  0  0  0  0
  -21.6624  -26.7436   22.1217 H   0  0  0  0  0  0
  -19.6893  -25.6302   21.1235 H   0  0  0  0  0  0
  -19.6679  -27.3200   20.6761 H   0  0  0  0  0  0
  -17.4189  -26.6677   21.4022 H   0  0  0  0  0  0
  -18.0302  -26.0062   22.9004 H   0  0  0  0  0  0
  -19.7921  -30.7248   24.2297 H   0  0  0  0  0  0
  -17.5008  -31.6265   24.5157 H   0  0  0  0  0  0
  -15.5346  -30.3003   23.7645 H   0  0  0  0  0  0
  -15.8646  -28.0843   22.7056 H   0  0  0  0  0  0
  -24.5901  -30.7067   25.7834 H   0  0  0  0  0  0
  -24.8940  -32.2865   26.4965 H   0  0  0  0  0  0
  -25.8099  -30.8865   27.0234 H   0  0  0  0  0  0
  -26.2816  -29.6824   24.1156 H   0  0  0  0  0  0
  -27.4054  -29.7280   25.4551 H   0  0  0  0  0  0
  -27.8654  -30.4368   23.9240 H   0  0  0  0  0  0
  -27.2663  -33.3624   26.2091 H   0  0  0  0  0  0
  -28.3836  -32.6908   25.0304 H   0  0  0  0  0  0
  -28.0729  -31.8444   26.5380 H   0  0  0  0  0  0
  -28.2587  -38.0114   24.7554 H   0  0  0  0  0  0
  -28.1099  -36.2652   24.6228 H   0  0  0  0  0  0
  -27.2314  -37.1368   25.8865 H   0  0  0  0  0  0
  -20.9277  -29.8757   21.6975 H   0  0  0  0  0  0
  -26.0176  -38.2879   24.1465 H   0  0  0  0  0  0
  -25.0799  -20.4917   21.1356 H   0  0  0  0  0  0
  -26.4967  -18.9313   22.4350 H   0  0  0  0  0  0
  -22.3771  -21.4884   15.6593 H   0  0  0  0  0  0
  -22.5741  -20.2606   16.8964 H   0  0  0  0  0  0
  -23.6769  -20.3114   15.5234 H   0  0  0  0  0  0
  -24.0154  -23.3841   15.4304 H   0  0  0  0  0  0
  -25.4320  -22.3481   15.3748 H   0  0  0  0  0  0
  -25.3084  -23.6289   16.5791 H   0  0  0  0  0  0
  -26.2893  -22.6814   18.4293 H   0  0  0  0  0  0
  -24.9928  -22.3349   19.5313 H   0  0  0  0  0  0
  -28.0621  -21.6249   17.4150 H   0  0  0  0  0  0
  -29.4000  -20.6223   17.8074 H   0  0  0  0  0  0
  -29.6882  -17.2142   20.1691 H   0  0  0  0  0  0
  -30.8335  -18.3568   20.8294 H   0  0  0  0  0  0
  -30.6349  -16.6996   23.0204 H   0  0  0  0  0  0
  -31.8345  -16.5506   21.7769 H   0  0  0  0  0  0
  -30.3061  -22.7707   17.7339 H   0  0  0  0  0  0
  -30.2683  -22.3935   19.4377 H   0  0  0  0  0  0
  -30.3927  -25.1089   19.6648 H   0  0  0  0  0  0
  -30.3632  -25.0799   17.9173 H   0  0  0  0  0  0
  -28.1087  -26.3057   17.9906 H   0  0  0  0  0  0
  -29.5268  -27.2190   18.4148 H   0  0  0  0  0  0
  -23.4149  -22.4527   17.6920 H   0  0  0  0  0  0
  -28.5764  -17.7725   22.5853 H   0  0  0  0  0  0
  -29.4198  -14.8742   22.0949 H   0  0  0  0  0  0
  -24.4872  -20.3770   18.2905 H   0  0  0  0  0  0
  -25.6660  -20.6414   17.2131 H   0  0  0  0  0  0
  -28.3869  -23.8276   19.6824 H   0  0  0  0  0  0
  -28.2154  -23.9820   18.0586 H   0  0  0  0  0  0
  1 25  1  0  0  0
  1 30  2  0  0  0
  1 88  1  0  0  0
  2  3  1  0  0  0
  2 25  1  0  0  0
  2 91  1  0  0  0
  2 92  1  0  0  0
  3  4  1  0  0  0
  3 93  1  0  0  0
  3 94  1  0  0  0
  4  5  1  0  0  0
  4 95  1  0  0  0
  4 96  1  0  0  0
  5  6  1  0  0  0
  5 26  1  0  0  0
  5 97  1  0  0  0
  6 25  1  0  0  0
  6 98  1  0  0  0
  6 99  1  0  0  0
  7  8  2  0  0  0
  7 26  1  0  0  0
  7 29  1  0  0  0
  8  9  1  0  0  0
  8 22  1  0  0  0
  9 10  1  0  0  0
  9 27  2  0  0  0
 10 11  2  0  0  0
 10 15  1  0  0  0
 11 12  1  0  0  0
 11100  1  0  0  0
 12 13  2  0  0  0
 12101  1  0  0  0
 13 14  1  0  0  0
 13 31  1  0  0  0
 14 15  2  0  0  0
 14102  1  0  0  0
 15103  1  0  0  0
 16 17  2  0  0  0
 16 21  1  0  0  0
 16 31  1  0  0  0
 17 18  1  0  0  0
 17104  1  0  0  0
 18 19  2  0  0  0
 18105  1  0  0  0
 19 20  1  0  0  0
 19 24  1  0  0  0
 20 21  2  0  0  0
 20106  1  0  0  0
 21 23  1  0  0  0
 22 28  1  0  0  0
 22 32  2  0  0  0
 26 27  1  0  0  0
 28107  1  0  0  0
 28108  1  0  0  0
 29109  1  0  0  0
 29110  1  0  0  0
 33 34  1  0  0  0
 33 66  1  0  0  0
 33 70  2  0  0  0
 34 36  1  0  0  0
 34 59  1  0  0  0
 34111  1  0  0  0
 35 44  2  0  0  0
 35 45  1  0  0  0
 35 68  1  0  0  0
 36 56  1  0  0  0
 36112  1  0  0  0
 37 39  1  0  0  0
 37 47  1  0  0  0
 37 66  1  0  0  0
 37113  1  0  0  0
 38 43  2  0  0  0
 38 46  1  0  0  0
 38 47  1  0  0  0
 39 64  1  0  0  0
 39 67  2  0  0  0
 40 52  1  0  0  0
 40 53  2  0  0  0
 40 58  1  0  0  0
 41114  1  0  0  0
 41115  1  0  0  0
 41116  1  0  0  0
 41 48  1  0  0  0
 42 43  1  0  0  0
 42 66  1  0  0  0
 42117  1  0  0  0
 42118  1  0  0  0
 43 44  1  0  0  0
 44119  1  0  0  0
 45 46  2  0  0  0
 45120  1  0  0  0
 46121  1  0  0  0
 47122  1  0  0  0
 47123  1  0  0  0
 48 56  1  0  0  0
 48 65  1  0  0  0
 48124  1  0  0  0
 49 50  1  0  0  0
 49 53  1  0  0  0
 49 64  1  0  0  0
 49125  1  0  0  0
 50 51  1  0  0  0
 50126  1  0  0  0
 50127  1  0  0  0
 51 52  1  0  0  0
 51128  1  0  0  0
 51129  1  0  0  0
 52130  1  0  0  0
 52131  1  0  0  0
 53 54  1  0  0  0
 54 55  2  0  0  0
 54132  1  0  0  0
 55 57  1  0  0  0
 55133  1  0  0  0
 56 69  2  0  0  0
 57 58  2  0  0  0
 57134  1  0  0  0
 58135  1  0  0  0
 59 60  1  0  0  0
 59 61  1  0  0  0
 59 62  1  0  0  0
 60136  1  0  0  0
 60137  1  0  0  0
 60138  1  0  0  0
 61139  1  0  0  0
 61140  1  0  0  0
 61141  1  0  0  0
 62142  1  0  0  0
 62143  1  0  0  0
 62144  1  0  0  0
 63 65  1  0  0  0
 63145  1  0  0  0
 63146  1  0  0  0
 63147  1  0  0  0
 64148  1  0  0  0
 65149  1  0  0  0
 68 84  1  0  0  0
 71 72  2  0  0  0
 71 73  1  0  0  0
 71150  1  0  0  0
 72 75  1  0  0  0
 72151  1  0  0  0
 73 74  2  0  0  0
 73 78  1  0  0  0
 74 79  1  0  0  0
 74 86  1  0  0  0
 75 86  2  0  0  0
 75 87  1  0  0  0
 76152  1  0  0  0
 76153  1  0  0  0
 76154  1  0  0  0
 76 85  1  0  0  0
 77 85  1  0  0  0
 77155  1  0  0  0
 77156  1  0  0  0
 77157  1  0  0  0
 78 89  1  0  0  0
 78158  1  0  0  0
 78159  1  0  0  0
 79 82  1  0  0  0
 79160  1  0  0  0
 79161  1  0  0  0
 80 81  1  0  0  0
 80 87  1  0  0  0
 80162  1  0  0  0
 80163  1  0  0  0
 81 88  1  0  0  0
 81164  1  0  0  0
 81165  1  0  0  0
 82 90  1  0  0  0
 82166  1  0  0  0
 82167  1  0  0  0
 83 84  1  0  0  0
 83 90  1  0  0  0
 83168  1  0  0  0
 83169  1  0  0  0
 84170  1  0  0  0
 84171  1  0  0  0
 85 89  1  0  0  0
 85172  1  0  0  0
 87173  1  0  0  0
 88174  1  0  0  0
 89175  1  0  0  0
 89176  1  0  0  0
 90177  1  0  0  0
 90178  1  0  0  0
M  CHG  2  89   1  90   1
M  ISO  4   1 100  68 101  84 101  88 100
M  END
> <chiral flag>
0

> <version>
0

> <s_m_source_file>
/data/baiqing/PycharmProjects/Reinvent-master-3.2/result/LINK_invent/BTK/process_docking_weight1_custom_sum_contain_oxygen_bond_distance_aromatic_linkinvent_7_9_3/rearranged_h_0123.sdf

> <i_m_source_file_index>
23

> <r_mmod_Potential_Energy-OPLS-2005>
-620.388610839844

> <r_mmod_Stretch_Energy-OPLS-2005>
34.5825653076172

> <r_mmod_Bend_Energy-OPLS-2005>
102.752616882324

> <r_mmod_Torsional_Energy-OPLS-2005>
226.141464233398

> <r_mmod_Improper_Torsional_Energy-OPLS-2005>
4.24071216583252

> <r_mmod_Van_der_Waal_Energy-OPLS-2005>
149.153900146484

> <r_mmod_Electrostatic_Energy-OPLS-2005>
-166.836441040039

> <r_mmod_Solvation_Energy-OPLS-2005>
-977.448364257812

> <b_mmod_Minimization_Converged-OPLS-2005>
0

> <r_mmod_RMS_Derivative-OPLS-2005>
2.00609707832336

$$$$
23
                    3D
 Structure written by MMmdl.
164172  0  0  1  0            999 V2000
  -30.6644  -14.4547   20.5999 C   0  0  0  0  0  0
  -30.4367  -12.3074   19.4003 C   0  0  0  0  0  0
  -29.4942  -12.5203   18.1961 C   0  0  0  0  0  0
  -28.0108  -12.3844   18.6035 C   0  0  0  0  0  0
  -27.6673  -13.1919   19.8834 C   0  0  2  0  0  0
  -28.7114  -12.9182   20.9904 C   0  0  0  0  0  0
  -25.2637  -13.8127   20.5709 C   0  0  0  0  0  0
  -24.1857  -13.0431   20.9185 C   0  0  0  0  0  0
  -24.6381  -11.6893   20.8744 C   0  0  0  0  0  0
  -23.9029  -10.4300   21.0419 C   0  0  0  0  0  0
  -24.3594   -9.4220   21.9199 C   0  0  0  0  0  0
  -23.6281   -8.2249   22.0773 C   0  0  0  0  0  0
  -22.4268   -8.0275   21.3555 C   0  0  0  0  0  0
  -21.9888   -9.0247   20.4655 C   0  0  0  0  0  0
  -22.7201  -10.2135   20.3065 C   0  0  0  0  0  0
  -21.6851   -6.0721   22.5272 C   0  0  0  0  0  0
  -21.3998   -6.5630   23.8197 C   0  0  0  0  0  0
  -21.3663   -5.6795   24.9171 C   0  0  0  0  0  0
  -21.6053   -4.3058   24.7227 C   0  0  0  0  0  0
  -21.8822   -3.8135   23.4350 C   0  0  0  0  0  0
  -21.9186   -4.6946   22.3400 C   0  0  0  0  0  0
  -22.7883  -13.5253   21.1833 C   0  0  0  0  0  0
  -22.1661   -4.2138   21.0979 F   0  0  0  0  0  0
  -21.5646   -3.4538   25.7741 F   0  0  0  0  0  0
  -30.0417  -13.2549   20.4500 N   0  0  0  0  0  0
  -26.3056  -12.9252   20.3401 N   0  0  0  0  0  0
  -25.9300  -11.6435   20.5771 N   0  0  0  0  0  0
  -22.0525  -12.8275   22.0402 N   0  0  0  0  0  0
  -25.4407  -15.1828   20.4141 N   0  0  0  0  0  0
  -31.7626  -14.7269   20.1032 O   0  0  0  0  0  0
  -21.6641   -6.8864   21.4243 O   0  0  0  0  0  0
  -22.3584  -14.5540   20.6627 O   0  0  0  0  0  0
  -24.6129  -31.8648   23.2117 C   0  0  0  0  0  0
  -25.9011  -32.4808   23.8411 C   0  0  1  0  0  0
  -27.2493  -27.4319   20.1014 C   0  0  0  0  0  0
  -25.5832  -33.8612   24.2323 N   0  0  0  0  0  0
  -23.4053  -30.4859   21.5507 C   0  0  2  0  0  0
  -24.8571  -28.9509   20.1196 C   0  0  0  0  0  0
  -22.7411  -29.4626   22.4998 C   0  0  0  0  0  0
  -18.0256  -28.1371   22.8480 C   0  0  0  0  0  0
  -24.1481  -36.7345   23.2640 C   0  0  0  0  0  0
  -25.9358  -30.8304   21.3705 C   0  0  0  0  0  0
  -26.0156  -29.4651   20.7169 C   0  0  0  0  0  0
  -27.2143  -28.7128   20.7043 C   0  0  0  0  0  0
  -26.0715  -26.9327   19.5005 C   0  0  0  0  0  0
  -24.8791  -27.6823   19.5120 C   0  0  0  0  0  0
  -23.6180  -29.8154   20.1679 C   0  0  0  0  0  0
  -25.4094  -36.3121   24.0342 C   0  0  1  0  0  0
  -20.5853  -28.3659   23.1324 C   0  0  2  0  0  0
  -20.6748  -26.9394   22.5430 C   0  0  0  0  0  0
  -19.5736  -26.6386   21.5211 C   0  0  0  0  0  0
  -18.1910  -26.7912   22.1617 C   0  0  0  0  0  0
  -19.1507  -28.8832   23.2894 C   0  0  0  0  0  0
  -18.9432  -30.1434   23.8908 C   0  0  0  0  0  0
  -17.6434  -30.6577   24.0556 C   0  0  0  0  0  0
  -25.9005  -34.9472   23.5141 C   0  0  0  0  0  0
  -16.5325  -29.9074   23.6320 C   0  0  0  0  0  0
  -16.7245  -28.6493   23.0338 C   0  0  0  0  0  0
  -26.4464  -31.6604   25.0741 C   0  0  0  0  0  0
  -25.3752  -31.3705   26.1515 C   0  0  0  0  0  0
  -27.0325  -30.3043   24.6154 C   0  0  0  0  0  0
  -27.6047  -32.4359   25.7441 C   0  0  0  0  0  0
  -27.5582  -37.1827   24.8448 C   0  0  0  0  0  0
  -21.4143  -29.3015   22.3736 N   0  0  0  0  0  0
  -26.4293  -37.3800   23.9400 N   0  0  0  0  0  0
  -24.6683  -31.0750   22.1017 N   0  0  0  0  0  0
  -23.4164  -28.8171   23.3059 O   0  0  0  0  0  0
  -28.4323  -26.7164   20.0709 O   0  0  0  0  0  0
  -26.5625  -34.8918   22.4736 O   0  0  0  0  0  0
  -23.5314  -32.1409   23.7496 O   0  0  0  0  0  0
  -28.5855  -23.3299   19.0408 C   0  0  0  0  0  0
  -28.3502  -22.5572   20.1959 C   0  0  0  0  0  0
  -28.2175  -23.2417   21.4304 C   0  0  0  0  0  0
  -28.2600  -24.6647   21.4220 C   0  0  0  0  0  0
  -28.4191  -25.3379   20.1869 C   0  0  0  0  0  0
  -28.1195  -25.4707   22.7088 C   0  0  0  0  0  0
  -26.4945  -22.2858   23.0430 C   0  0  0  0  0  0
  -28.0933  -21.0482   20.0323 C   0  0  0  0  0  0
  -27.9839  -22.4706   22.7263 C   0  0  0  0  0  0
  -30.0145  -16.8394   21.2715 C   0  0  0  0  0  0
  -29.2768  -20.0529   20.2172 C   0  0  0  0  0  0
  -29.7620  -17.5419   19.9075 C   0  0  0  0  0  0
  -28.6267  -24.6769   19.0303 N   0  0  0  0  0  0
  -29.8937  -15.3764   21.2009 N   0  0  0  0  0  0
  -28.7917  -18.6683   19.9708 N   0  3  0  0  0  0
  -31.4768  -12.4334   19.0964 H   0  0  0  0  0  0
  -30.3608  -11.2871   19.7774 H   0  0  0  0  0  0
  -29.7305  -11.8136   17.4005 H   0  0  0  0  0  0
  -29.6574  -13.5152   17.7800 H   0  0  0  0  0  0
  -27.7934  -11.3271   18.7574 H   0  0  0  0  0  0
  -27.3725  -12.7047   17.7795 H   0  0  0  0  0  0
  -27.7221  -14.2480   19.6192 H   0  0  0  0  0  0
  -28.6937  -11.8634   21.2693 H   0  0  0  0  0  0
  -28.4712  -13.4551   21.9104 H   0  0  0  0  0  0
  -25.2754   -9.5713   22.4749 H   0  0  0  0  0  0
  -24.0000   -7.4668   22.7505 H   0  0  0  0  0  0
  -21.0814   -8.8738   19.8974 H   0  0  0  0  0  0
  -22.3644  -10.9662   19.6151 H   0  0  0  0  0  0
  -21.1965   -7.6134   23.9692 H   0  0  0  0  0  0
  -21.1496   -6.0531   25.9076 H   0  0  0  0  0  0
  -22.0594   -2.7592   23.2857 H   0  0  0  0  0  0
  -22.4128  -11.9936   22.4822 H   0  0  0  0  0  0
  -21.1143  -13.1313   22.2597 H   0  0  0  0  0  0
  -24.6846  -15.8442   20.5558 H   0  0  0  0  0  0
  -26.2729  -15.6106   20.0323 H   0  0  0  0  0  0
  -26.7074  -32.5523   23.1171 H   0  0  0  0  0  0
  -24.9839  -33.9761   25.0367 H   0  0  0  0  0  0
  -22.6941  -31.3027   21.4082 H   0  0  0  0  0  0
  -23.3718  -35.9705   23.3297 H   0  0  0  0  0  0
  -24.3593  -36.8966   22.2057 H   0  0  0  0  0  0
  -23.7269  -37.6562   23.6656 H   0  0  0  0  0  0
  -26.0574  -31.6022   20.6085 H   0  0  0  0  0  0
  -26.8195  -30.8756   21.9971 H   0  0  0  0  0  0
  -28.1138  -29.1112   21.1538 H   0  0  0  0  0  0
  -26.0719  -25.9635   19.0198 H   0  0  0  0  0  0
  -23.9886  -27.2775   19.0523 H   0  0  0  0  0  0
  -23.7282  -30.5885   19.4084 H   0  0  0  0  0  0
  -22.7432  -29.2329   19.8728 H   0  0  0  0  0  0
  -25.1266  -36.1986   25.0838 H   0  0  0  0  0  0
  -20.9923  -28.3226   24.1452 H   0  0  0  0  0  0
  -20.5630  -26.2261   23.3614 H   0  0  0  0  0  0
  -21.6622  -26.7426   22.1235 H   0  0  0  0  0  0
  -19.6908  -25.6309   21.1206 H   0  0  0  0  0  0
  -19.6677  -27.3232   20.6772 H   0  0  0  0  0  0
  -17.4173  -26.6643   21.4024 H   0  0  0  0  0  0
  -18.0320  -26.0065   22.9028 H   0  0  0  0  0  0
  -19.7908  -30.7244   24.2293 H   0  0  0  0  0  0
  -17.4979  -31.6257   24.5162 H   0  0  0  0  0  0
  -15.5323  -30.2968   23.7650 H   0  0  0  0  0  0
  -15.8640  -28.0815   22.7050 H   0  0  0  0  0  0
  -24.5908  -30.7072   25.7858 H   0  0  0  0  0  0
  -24.8973  -32.2856   26.5008 H   0  0  0  0  0  0
  -25.8120  -30.8833   27.0243 H   0  0  0  0  0  0
  -26.2955  -29.6844   24.1034 H   0  0  0  0  0  0
  -27.3919  -29.7231   25.4655 H   0  0  0  0  0  0
  -27.8837  -30.4374   23.9484 H   0  0  0  0  0  0
  -27.2665  -33.3645   26.2053 H   0  0  0  0  0  0
  -28.3764  -32.6969   25.0189 H   0  0  0  0  0  0
  -28.0833  -31.8497   26.5298 H   0  0  0  0  0  0
  -28.2571  -38.0140   24.7467 H   0  0  0  0  0  0
  -28.1092  -36.2665   24.6265 H   0  0  0  0  0  0
  -27.2311  -37.1471   25.8855 H   0  0  0  0  0  0
  -20.9320  -29.8706   21.6928 H   0  0  0  0  0  0
  -26.0170  -38.2870   24.1410 H   0  0  0  0  0  0
  -28.6912  -22.8512   18.0786 H   0  0  0  0  0  0
  -28.8253  -25.1293   23.4667 H   0  0  0  0  0  0
  -27.1106  -25.3813   23.1086 H   0  0  0  0  0  0
  -28.3237  -26.5293   22.5590 H   0  0  0  0  0  0
  -26.3679  -21.7840   24.0022 H   0  0  0  0  0  0
  -25.9936  -21.6810   22.2880 H   0  0  0  0  0  0
  -25.9765  -23.2433   23.0942 H   0  0  0  0  0  0
  -27.6760  -20.9108   19.0327 H   0  0  0  0  0  0
  -27.2818  -20.7609   20.6958 H   0  0  0  0  0  0
  -28.4762  -22.9687   23.5593 H   0  0  0  0  0  0
  -28.4692  -21.4987   22.6765 H   0  0  0  0  0  0
  -29.2926  -17.1759   22.0179 H   0  0  0  0  0  0
  -30.9980  -17.1051   21.6607 H   0  0  0  0  0  0
  -29.6918  -20.1187   21.2240 H   0  0  0  0  0  0
  -30.0828  -20.2942   19.5241 H   0  0  0  0  0  0
  -29.3433  -16.8228   19.2010 H   0  0  0  0  0  0
  -30.7003  -17.8748   19.4635 H   0  0  0  0  0  0
  -29.0314  -14.9978   21.5645 H   0  0  0  0  0  0
  -28.3557  -18.6903   19.0629 H   0  0  0  0  0  0
  -28.0666  -18.4405   20.6314 H   0  0  0  0  0  0
  1 25  1  0  0  0
  1 30  2  0  0  0
  1 84  1  0  0  0
  2  3  1  0  0  0
  2 25  1  0  0  0
  2 86  1  0  0  0
  2 87  1  0  0  0
  3  4  1  0  0  0
  3 88  1  0  0  0
  3 89  1  0  0  0
  4  5  1  0  0  0
  4 90  1  0  0  0
  4 91  1  0  0  0
  5  6  1  0  0  0
  5 26  1  0  0  0
  5 92  1  0  0  0
  6 25  1  0  0  0
  6 93  1  0  0  0
  6 94  1  0  0  0
  7  8  2  0  0  0
  7 26  1  0  0  0
  7 29  1  0  0  0
  8  9  1  0  0  0
  8 22  1  0  0  0
  9 10  1  0  0  0
  9 27  2  0  0  0
 10 11  2  0  0  0
 10 15  1  0  0  0
 11 12  1  0  0  0
 11 95  1  0  0  0
 12 13  2  0  0  0
 12 96  1  0  0  0
 13 14  1  0  0  0
 13 31  1  0  0  0
 14 15  2  0  0  0
 14 97  1  0  0  0
 15 98  1  0  0  0
 16 17  2  0  0  0
 16 21  1  0  0  0
 16 31  1  0  0  0
 17 18  1  0  0  0
 17 99  1  0  0  0
 18 19  2  0  0  0
 18100  1  0  0  0
 19 20  1  0  0  0
 19 24  1  0  0  0
 20 21  2  0  0  0
 20101  1  0  0  0
 21 23  1  0  0  0
 22 28  1  0  0  0
 22 32  2  0  0  0
 26 27  1  0  0  0
 28102  1  0  0  0
 28103  1  0  0  0
 29104  1  0  0  0
 29105  1  0  0  0
 33 34  1  0  0  0
 33 66  1  0  0  0
 33 70  2  0  0  0
 34 36  1  0  0  0
 34 59  1  0  0  0
 34106  1  0  0  0
 35 44  2  0  0  0
 35 45  1  0  0  0
 35 68  1  0  0  0
 36 56  1  0  0  0
 36107  1  0  0  0
 37 39  1  0  0  0
 37 47  1  0  0  0
 37 66  1  0  0  0
 37108  1  0  0  0
 38 43  2  0  0  0
 38 46  1  0  0  0
 38 47  1  0  0  0
 39 64  1  0  0  0
 39 67  2  0  0  0
 40 52  1  0  0  0
 40 53  2  0  0  0
 40 58  1  0  0  0
 41109  1  0  0  0
 41110  1  0  0  0
 41111  1  0  0  0
 41 48  1  0  0  0
 42 43  1  0  0  0
 42 66  1  0  0  0
 42112  1  0  0  0
 42113  1  0  0  0
 43 44  1  0  0  0
 44114  1  0  0  0
 45 46  2  0  0  0
 45115  1  0  0  0
 46116  1  0  0  0
 47117  1  0  0  0
 47118  1  0  0  0
 48 56  1  0  0  0
 48 65  1  0  0  0
 48119  1  0  0  0
 49 50  1  0  0  0
 49 53  1  0  0  0
 49 64  1  0  0  0
 49120  1  0  0  0
 50 51  1  0  0  0
 50121  1  0  0  0
 50122  1  0  0  0
 51 52  1  0  0  0
 51123  1  0  0  0
 51124  1  0  0  0
 52125  1  0  0  0
 52126  1  0  0  0
 53 54  1  0  0  0
 54 55  2  0  0  0
 54127  1  0  0  0
 55 57  1  0  0  0
 55128  1  0  0  0
 56 69  2  0  0  0
 57 58  2  0  0  0
 57129  1  0  0  0
 58130  1  0  0  0
 59 60  1  0  0  0
 59 61  1  0  0  0
 59 62  1  0  0  0
 60131  1  0  0  0
 60132  1  0  0  0
 60133  1  0  0  0
 61134  1  0  0  0
 61135  1  0  0  0
 61136  1  0  0  0
 62137  1  0  0  0
 62138  1  0  0  0
 62139  1  0  0  0
 63 65  1  0  0  0
 63140  1  0  0  0
 63141  1  0  0  0
 63142  1  0  0  0
 64143  1  0  0  0
 65144  1  0  0  0
 68 75  1  0  0  0
 71 72  2  0  0  0
 71 83  1  0  0  0
 71145  1  0  0  0
 72 73  1  0  0  0
 72 78  1  0  0  0
 73 74  2  0  0  0
 73 79  1  0  0  0
 74 75  1  0  0  0
 74 76  1  0  0  0
 75 83  2  0  0  0
 76146  1  0  0  0
 76147  1  0  0  0
 76148  1  0  0  0
 77 79  1  0  0  0
 77149  1  0  0  0
 77150  1  0  0  0
 77151  1  0  0  0
 78 81  1  0  0  0
 78152  1  0  0  0
 78153  1  0  0  0
 79154  1  0  0  0
 79155  1  0  0  0
 80 82  1  0  0  0
 80 84  1  0  0  0
 80156  1  0  0  0
 80157  1  0  0  0
 81 85  1  0  0  0
 81158  1  0  0  0
 81159  1  0  0  0
 82 85  1  0  0  0
 82160  1  0  0  0
 82161  1  0  0  0
 84162  1  0  0  0
 85163  1  0  0  0
 85164  1  0  0  0
M  CHG  1  85   1
M  ISO  4   1 100  68 101  75 101  84 100
M  END
> <chiral flag>
0

> <version>
0

> <s_m_source_file>
/data/baiqing/PycharmProjects/Reinvent-master-3.2/result/LINK_invent/BTK/process_docking_weight1_custom_sum_contain_oxygen_bond_distance_aromatic_linkinvent_7_9_3/rearranged_h_0123.sdf

> <i_m_source_file_index>
24

> <r_mmod_Potential_Energy-OPLS-2005>
-420.518707275391

> <r_mmod_Stretch_Energy-OPLS-2005>
38.7709922790527

> <r_mmod_Bend_Energy-OPLS-2005>
107.007041931152

> <r_mmod_Torsional_Energy-OPLS-2005>
243.372787475586

> <r_mmod_Improper_Torsional_Energy-OPLS-2005>
4.70881319046021

> <r_mmod_Van_der_Waal_Energy-OPLS-2005>
148.866836547852

> <r_mmod_Electrostatic_Energy-OPLS-2005>
-461.417083740234

> <r_mmod_Solvation_Energy-OPLS-2005>
-513.106079101562

> <b_mmod_Minimization_Converged-OPLS-2005>
0

> <r_mmod_RMS_Derivative-OPLS-2005>
3.10009479522705

$$$$
24
                    3D
 Structure written by MMmdl.
178188  0  0  1  0            999 V2000
  -30.7250  -14.4319   20.5342 C   0  0  0  0  0  0
  -30.4068  -12.2693   19.4296 C   0  0  0  0  0  0
  -29.4925  -12.4911   18.2080 C   0  0  0  0  0  0
  -28.0125  -12.3639   18.6179 C   0  0  0  0  0  0
  -27.6600  -13.2093   19.8716 C   0  0  2  0  0  0
  -28.7001  -13.0066   20.9984 C   0  0  0  0  0  0
  -25.2575  -13.8173   20.5664 C   0  0  0  0  0  0
  -24.1833  -13.0444   20.9174 C   0  0  0  0  0  0
  -24.6394  -11.6911   20.8741 C   0  0  0  0  0  0
  -23.9068  -10.4296   21.0410 C   0  0  0  0  0  0
  -24.3624   -9.4208   21.9183 C   0  0  0  0  0  0
  -23.6295   -8.2246   22.0759 C   0  0  0  0  0  0
  -22.4270   -8.0290   21.3554 C   0  0  0  0  0  0
  -21.9909   -9.0264   20.4655 C   0  0  0  0  0  0
  -22.7243  -10.2139   20.3056 C   0  0  0  0  0  0
  -21.6853   -6.0744   22.5280 C   0  0  0  0  0  0
  -21.4019   -6.5646   23.8217 C   0  0  0  0  0  0
  -21.3654   -5.6798   24.9176 C   0  0  0  0  0  0
  -21.6040   -4.3061   24.7225 C   0  0  0  0  0  0
  -21.8818   -3.8154   23.4347 C   0  0  0  0  0  0
  -21.9191   -4.6972   22.3402 C   0  0  0  0  0  0
  -22.7853  -13.5235   21.1842 C   0  0  0  0  0  0
  -22.1659   -4.2161   21.0980 F   0  0  0  0  0  0
  -21.5623   -3.4540   25.7739 F   0  0  0  0  0  0
  -30.0338  -13.2696   20.4401 N   0  0  0  0  0  0
  -26.3016  -12.9349   20.3350 N   0  0  0  0  0  0
  -25.9319  -11.6509   20.5762 N   0  0  0  0  0  0
  -22.0489  -12.8237   22.0404 N   0  0  0  0  0  0
  -25.4293  -15.1888   20.4057 N   0  0  0  0  0  0
  -31.8799  -14.5581   20.1205 O   0  0  0  0  0  0
  -21.6636   -6.8886   21.4244 O   0  0  0  0  0  0
  -22.3536  -14.5538   20.6688 O   0  0  0  0  0  0
  -24.6122  -31.8696   23.2120 C   0  0  0  0  0  0
  -25.9027  -32.4832   23.8406 C   0  0  1  0  0  0
  -27.2354  -27.4606   20.0727 C   0  0  0  0  0  0
  -25.5892  -33.8630   24.2344 N   0  0  0  0  0  0
  -23.3986  -30.4945   21.5522 C   0  0  2  0  0  0
  -24.8431  -28.9622   20.1157 C   0  0  0  0  0  0
  -22.7392  -29.4669   22.4993 C   0  0  0  0  0  0
  -18.0269  -28.1368   22.8492 C   0  0  0  0  0  0
  -24.1487  -36.7320   23.2637 C   0  0  0  0  0  0
  -25.9259  -30.8391   21.3639 C   0  0  0  0  0  0
  -26.0017  -29.4742   20.7130 C   0  0  0  0  0  0
  -27.1978  -28.7242   20.7011 C   0  0  0  0  0  0
  -26.0505  -26.9447   19.5011 C   0  0  0  0  0  0
  -24.8594  -27.6926   19.5140 C   0  0  0  0  0  0
  -23.6054  -29.8280   20.1659 C   0  0  0  0  0  0
  -25.4104  -36.3121   24.0343 C   0  0  1  0  0  0
  -20.5857  -28.3657   23.1316 C   0  0  2  0  0  0
  -20.6758  -26.9393   22.5413 C   0  0  0  0  0  0
  -19.5739  -26.6381   21.5207 C   0  0  0  0  0  0
  -18.1918  -26.7917   22.1620 C   0  0  0  0  0  0
  -19.1518  -28.8827   23.2904 C   0  0  0  0  0  0
  -18.9449  -30.1432   23.8917 C   0  0  0  0  0  0
  -17.6453  -30.6577   24.0564 C   0  0  0  0  0  0
  -25.9030  -34.9481   23.5143 C   0  0  0  0  0  0
  -16.5344  -29.9081   23.6321 C   0  0  0  0  0  0
  -16.7259  -28.6495   23.0348 C   0  0  0  0  0  0
  -26.4463  -31.6603   25.0724 C   0  0  0  0  0  0
  -25.3740  -31.3705   26.1481 C   0  0  0  0  0  0
  -27.0293  -30.3050   24.6089 C   0  0  0  0  0  0
  -27.6050  -32.4310   25.7480 C   0  0  0  0  0  0
  -27.5584  -37.1811   24.8462 C   0  0  0  0  0  0
  -21.4123  -29.3031   22.3728 N   0  0  0  0  0  0
  -26.4294  -37.3800   23.9410 N   0  0  0  0  0  0
  -24.6636  -31.0816   22.1014 N   0  0  0  0  0  0
  -23.4175  -28.8206   23.3023 O   0  0  0  0  0  0
  -28.4114  -26.7456   20.0667 O   0  0  0  0  0  0
  -26.5592  -34.8928   22.4705 O   0  0  0  0  0  0
  -23.5320  -32.1438   23.7530 O   0  0  0  0  0  0
  -28.6235  -23.5953   18.5042 C   0  0  0  0  0  0
  -29.2025  -22.3133   18.5398 C   0  0  0  0  0  0
  -29.3215  -24.6880   19.0586 C   0  0  0  0  0  0
  -30.5578  -24.4330   19.6973 C   0  0  0  0  0  0
  -30.4639  -22.1579   19.1434 C   0  0  0  0  0  0
  -33.6125  -26.5791   20.4800 C   0  0  0  0  0  0
  -33.1699  -26.1649   21.8937 C   0  0  0  0  0  0
  -32.7276  -25.7928   19.5077 C   0  0  0  0  0  0
  -31.9130  -25.2955   21.7267 C   0  0  0  0  0  0
  -30.1476  -17.1636   18.9876 C   0  0  0  0  0  0
  -29.7982  -18.0240   21.2716 C   0  0  0  0  0  0
  -30.8426  -18.4672   18.5664 C   0  0  0  0  0  0
  -30.4870  -19.3623   20.8873 C   0  0  0  0  0  0
  -31.4360  -25.5400   20.2884 C   0  0  0  0  0  0
  -30.4315  -16.8773   20.4699 C   0  0  1  0  0  0
  -32.6911  -20.9137   19.5729 C   0  0  0  0  0  0
  -28.7784  -26.0969   18.8472 C   0  0  0  0  0  0
  -31.2536  -20.8524   18.9926 C   0  0  1  0  0  0
  -31.0977  -23.1932   19.7362 N   0  0  0  0  0  0
  -29.9993  -15.5212   20.8494 N   0  0  0  0  0  0
  -30.4801  -19.6428   19.4143 N   0  3  1  0  0  0
  -31.4568  -12.3314   19.1376 H   0  0  0  0  0  0
  -30.2714  -11.2644   19.8326 H   0  0  0  0  0  0
  -29.7265  -11.7678   17.4258 H   0  0  0  0  0  0
  -29.6763  -13.4767   17.7774 H   0  0  0  0  0  0
  -27.8164  -11.3098   18.8160 H   0  0  0  0  0  0
  -27.3661  -12.6415   17.7841 H   0  0  0  0  0  0
  -27.7007  -14.2539   19.5634 H   0  0  0  0  0  0
  -28.6584  -11.9845   21.3782 H   0  0  0  0  0  0
  -28.4819  -13.6499   21.8519 H   0  0  0  0  0  0
  -25.2778   -9.5673   22.4749 H   0  0  0  0  0  0
  -24.0010   -7.4628   22.7468 H   0  0  0  0  0  0
  -21.0843   -8.8783   19.8957 H   0  0  0  0  0  0
  -22.3714  -10.9676   19.6157 H   0  0  0  0  0  0
  -21.2022   -7.6157   23.9722 H   0  0  0  0  0  0
  -21.1469   -6.0529   25.9079 H   0  0  0  0  0  0
  -22.0600   -2.7618   23.2842 H   0  0  0  0  0  0
  -22.4102  -11.9907   22.4813 H   0  0  0  0  0  0
  -21.1105  -13.1264   22.2598 H   0  0  0  0  0  0
  -24.6619  -15.8437   20.5112 H   0  0  0  0  0  0
  -26.2802  -15.6283   20.0784 H   0  0  0  0  0  0
  -26.7098  -32.5548   23.1171 H   0  0  0  0  0  0
  -25.0058  -33.9794   25.0501 H   0  0  0  0  0  0
  -22.6864  -31.3108   21.4150 H   0  0  0  0  0  0
  -23.3744  -35.9658   23.3312 H   0  0  0  0  0  0
  -24.3586  -36.8916   22.2049 H   0  0  0  0  0  0
  -23.7243  -37.6532   23.6637 H   0  0  0  0  0  0
  -26.0369  -31.6056   20.5957 H   0  0  0  0  0  0
  -26.8147  -30.8924   21.9806 H   0  0  0  0  0  0
  -28.0943  -29.1168   21.1604 H   0  0  0  0  0  0
  -26.0326  -25.9604   19.0559 H   0  0  0  0  0  0
  -23.9643  -27.2844   19.0650 H   0  0  0  0  0  0
  -23.7108  -30.6029   19.4057 H   0  0  0  0  0  0
  -22.7298  -29.2468   19.8717 H   0  0  0  0  0  0
  -25.1277  -36.1995   25.0837 H   0  0  0  0  0  0
  -20.9954  -28.3223   24.1433 H   0  0  0  0  0  0
  -20.5654  -26.2266   23.3600 H   0  0  0  0  0  0
  -21.6632  -26.7432   22.1213 H   0  0  0  0  0  0
  -19.6902  -25.6299   21.1221 H   0  0  0  0  0  0
  -19.6676  -27.3202   20.6746 H   0  0  0  0  0  0
  -17.4188  -26.6663   21.4022 H   0  0  0  0  0  0
  -18.0319  -26.0050   22.9006 H   0  0  0  0  0  0
  -19.7927  -30.7237   24.2299 H   0  0  0  0  0  0
  -17.5012  -31.6260   24.5158 H   0  0  0  0  0  0
  -15.5347  -30.2993   23.7630 H   0  0  0  0  0  0
  -15.8657  -28.0821   22.7058 H   0  0  0  0  0  0
  -24.5904  -30.7059   25.7824 H   0  0  0  0  0  0
  -24.8939  -32.2860   26.4947 H   0  0  0  0  0  0
  -25.8099  -30.8862   27.0229 H   0  0  0  0  0  0
  -26.2836  -29.6812   24.1145 H   0  0  0  0  0  0
  -27.4076  -29.7281   25.4539 H   0  0  0  0  0  0
  -27.8664  -30.4379   23.9230 H   0  0  0  0  0  0
  -27.2682  -33.3596   26.2101 H   0  0  0  0  0  0
  -28.3834  -32.6890   25.0287 H   0  0  0  0  0  0
  -28.0746  -31.8404   26.5357 H   0  0  0  0  0  0
  -28.2603  -38.0107   24.7516 H   0  0  0  0  0  0
  -28.1077  -36.2641   24.6276 H   0  0  0  0  0  0
  -27.2305  -37.1451   25.8865 H   0  0  0  0  0  0
  -20.9274  -29.8770   21.6971 H   0  0  0  0  0  0
  -26.0189  -38.2882   24.1407 H   0  0  0  0  0  0
  -27.6802  -23.7438   17.9974 H   0  0  0  0  0  0
  -28.7068  -21.4934   18.0393 H   0  0  0  0  0  0
  -34.6734  -26.3926   20.3062 H   0  0  0  0  0  0
  -33.4455  -27.6489   20.3443 H   0  0  0  0  0  0
  -32.9528  -27.0493   22.4943 H   0  0  0  0  0  0
  -33.9560  -25.6110   22.4097 H   0  0  0  0  0  0
  -33.2121  -24.8443   19.2712 H   0  0  0  0  0  0
  -32.5524  -26.3155   18.5668 H   0  0  0  0  0  0
  -31.1389  -25.5125   22.4633 H   0  0  0  0  0  0
  -32.1999  -24.2517   21.8586 H   0  0  0  0  0  0
  -30.5188  -16.3555   18.3560 H   0  0  0  0  0  0
  -29.0735  -17.2228   18.8036 H   0  0  0  0  0  0
  -28.7241  -18.0804   21.0887 H   0  0  0  0  0  0
  -29.9212  -17.8509   22.3417 H   0  0  0  0  0  0
  -30.5949  -18.6763   17.5246 H   0  0  0  0  0  0
  -31.9208  -18.3083   18.5970 H   0  0  0  0  0  0
  -31.5113  -19.3119   21.2551 H   0  0  0  0  0  0
  -30.0128  -20.1906   21.4157 H   0  0  0  0  0  0
  -30.8870  -26.4797   20.3081 H   0  0  0  0  0  0
  -31.5095  -16.9373   20.6404 H   0  0  0  0  0  0
  -33.2710  -21.6911   19.0753 H   0  0  0  0  0  0
  -33.2329  -19.9796   19.4338 H   0  0  0  0  0  0
  -32.6933  -21.1497   20.6369 H   0  0  0  0  0  0
  -27.9875  -26.0710   18.0983 H   0  0  0  0  0  0
  -29.5639  -26.6933   18.3820 H   0  0  0  0  0  0
  -31.3785  -20.7835   17.9103 H   0  0  0  0  0  0
  -29.0492  -15.3796   21.1581 H   0  0  0  0  0  0
  -29.5258  -19.8742   19.1795 H   0  0  0  0  0  0
  1 25  1  0  0  0
  1 30  2  0  0  0
  1 90  1  0  0  0
  2  3  1  0  0  0
  2 25  1  0  0  0
  2 92  1  0  0  0
  2 93  1  0  0  0
  3  4  1  0  0  0
  3 94  1  0  0  0
  3 95  1  0  0  0
  4  5  1  0  0  0
  4 96  1  0  0  0
  4 97  1  0  0  0
  5  6  1  0  0  0
  5 26  1  0  0  0
  5 98  1  0  0  0
  6 25  1  0  0  0
  6 99  1  0  0  0
  6100  1  0  0  0
  7  8  2  0  0  0
  7 26  1  0  0  0
  7 29  1  0  0  0
  8  9  1  0  0  0
  8 22  1  0  0  0
  9 10  1  0  0  0
  9 27  2  0  0  0
 10 11  2  0  0  0
 10 15  1  0  0  0
 11 12  1  0  0  0
 11101  1  0  0  0
 12 13  2  0  0  0
 12102  1  0  0  0
 13 14  1  0  0  0
 13 31  1  0  0  0
 14 15  2  0  0  0
 14103  1  0  0  0
 15104  1  0  0  0
 16 17  2  0  0  0
 16 21  1  0  0  0
 16 31  1  0  0  0
 17 18  1  0  0  0
 17105  1  0  0  0
 18 19  2  0  0  0
 18106  1  0  0  0
 19 20  1  0  0  0
 19 24  1  0  0  0
 20 21  2  0  0  0
 20107  1  0  0  0
 21 23  1  0  0  0
 22 28  1  0  0  0
 22 32  2  0  0  0
 26 27  1  0  0  0
 28108  1  0  0  0
 28109  1  0  0  0
 29110  1  0  0  0
 29111  1  0  0  0
 33 34  1  0  0  0
 33 66  1  0  0  0
 33 70  2  0  0  0
 34 36  1  0  0  0
 34 59  1  0  0  0
 34112  1  0  0  0
 35 44  2  0  0  0
 35 45  1  0  0  0
 35 68  1  0  0  0
 36 56  1  0  0  0
 36113  1  0  0  0
 37 39  1  0  0  0
 37 47  1  0  0  0
 37 66  1  0  0  0
 37114  1  0  0  0
 38 43  2  0  0  0
 38 46  1  0  0  0
 38 47  1  0  0  0
 39 64  1  0  0  0
 39 67  2  0  0  0
 40 52  1  0  0  0
 40 53  2  0  0  0
 40 58  1  0  0  0
 41115  1  0  0  0
 41116  1  0  0  0
 41117  1  0  0  0
 41 48  1  0  0  0
 42 43  1  0  0  0
 42 66  1  0  0  0
 42118  1  0  0  0
 42119  1  0  0  0
 43 44  1  0  0  0
 44120  1  0  0  0
 45 46  2  0  0  0
 45121  1  0  0  0
 46122  1  0  0  0
 47123  1  0  0  0
 47124  1  0  0  0
 48 56  1  0  0  0
 48 65  1  0  0  0
 48125  1  0  0  0
 49 50  1  0  0  0
 49 53  1  0  0  0
 49 64  1  0  0  0
 49126  1  0  0  0
 50 51  1  0  0  0
 50127  1  0  0  0
 50128  1  0  0  0
 51 52  1  0  0  0
 51129  1  0  0  0
 51130  1  0  0  0
 52131  1  0  0  0
 52132  1  0  0  0
 53 54  1  0  0  0
 54 55  2  0  0  0
 54133  1  0  0  0
 55 57  1  0  0  0
 55134  1  0  0  0
 56 69  2  0  0  0
 57 58  2  0  0  0
 57135  1  0  0  0
 58136  1  0  0  0
 59 60  1  0  0  0
 59 61  1  0  0  0
 59 62  1  0  0  0
 60137  1  0  0  0
 60138  1  0  0  0
 60139  1  0  0  0
 61140  1  0  0  0
 61141  1  0  0  0
 61142  1  0  0  0
 62143  1  0  0  0
 62144  1  0  0  0
 62145  1  0  0  0
 63 65  1  0  0  0
 63146  1  0  0  0
 63147  1  0  0  0
 63148  1  0  0  0
 64149  1  0  0  0
 65150  1  0  0  0
 68 87  1  0  0  0
 71 72  2  0  0  0
 71 73  1  0  0  0
 71151  1  0  0  0
 72 75  1  0  0  0
 72152  1  0  0  0
 73 74  2  0  0  0
 73 87  1  0  0  0
 74 89  1  0  0  0
 74 84  1  0  0  0
 75 88  1  0  0  0
 75 89  2  0  0  0
 76 77  1  0  0  0
 76 78  1  0  0  0
 76153  1  0  0  0
 76154  1  0  0  0
 77 79  1  0  0  0
 77155  1  0  0  0
 77156  1  0  0  0
 78 84  1  0  0  0
 78157  1  0  0  0
 78158  1  0  0  0
 79 84  1  0  0  0
 79159  1  0  0  0
 79160  1  0  0  0
 80 82  1  0  0  0
 80 85  1  0  0  0
 80161  1  0  0  0
 80162  1  0  0  0
 81 83  1  0  0  0
 81 85  1  0  0  0
 81163  1  0  0  0
 81164  1  0  0  0
 82165  1  0  0  0
 82166  1  0  0  0
 82 91  1  0  0  0
 83 91  1  0  0  0
 83167  1  0  0  0
 83168  1  0  0  0
 84169  1  0  0  0
 85 90  1  0  0  0
 85170  1  0  0  0
 86171  1  0  0  0
 86172  1  0  0  0
 86173  1  0  0  0
 86 88  1  0  0  0
 87174  1  0  0  0
 87175  1  0  0  0
 88 91  1  0  0  0
 88176  1  0  0  0
 90177  1  0  0  0
 91178  1  0  0  0
M  CHG  1  91   1
M  ISO  4   1 100  68 101  87 101  90 100
M  END
> <chiral flag>
0

> <version>
0

> <s_m_source_file>
/data/baiqing/PycharmProjects/Reinvent-master-3.2/result/LINK_invent/BTK/process_docking_weight1_custom_sum_contain_oxygen_bond_distance_aromatic_linkinvent_7_9_3/rearranged_h_0123.sdf

> <i_m_source_file_index>
25

> <r_mmod_Potential_Energy-OPLS-2005>
-201.876708984375

> <r_mmod_Stretch_Energy-OPLS-2005>
37.5679016113281

> <r_mmod_Bend_Energy-OPLS-2005>
132.690765380859

> <r_mmod_Torsional_Energy-OPLS-2005>
312.193023681641

> <r_mmod_Improper_Torsional_Energy-OPLS-2005>
8.16755962371826

> <r_mmod_Van_der_Waal_Energy-OPLS-2005>
169.510955810547

> <r_mmod_Electrostatic_Energy-OPLS-2005>
-433.725738525391

> <r_mmod_Solvation_Energy-OPLS-2005>
-441.367736816406

> <b_mmod_Minimization_Converged-OPLS-2005>
0

> <r_mmod_RMS_Derivative-OPLS-2005>
1.08140182495117

$$$$
25
                    3D
 Structure written by MMmdl.
160168  0  0  1  0            999 V2000
  -30.7532  -14.3867   20.6749 C   0  0  0  0  0  0
  -30.4198  -12.2989   19.4040 C   0  0  0  0  0  0
  -29.4867  -12.5029   18.1954 C   0  0  0  0  0  0
  -28.0136  -12.3313   18.6144 C   0  0  0  0  0  0
  -27.6583  -13.1796   19.8599 C   0  0  2  0  0  0
  -28.6943  -12.9591   20.9867 C   0  0  0  0  0  0
  -25.2630  -13.8119   20.5624 C   0  0  0  0  0  0
  -24.1870  -13.0452   20.9197 C   0  0  0  0  0  0
  -24.6354  -11.6894   20.8741 C   0  0  0  0  0  0
  -23.9014  -10.4301   21.0429 C   0  0  0  0  0  0
  -24.3594   -9.4217   21.9192 C   0  0  0  0  0  0
  -23.6283   -8.2245   22.0756 C   0  0  0  0  0  0
  -22.4258   -8.0286   21.3552 C   0  0  0  0  0  0
  -21.9888   -9.0253   20.4649 C   0  0  0  0  0  0
  -22.7196  -10.2141   20.3069 C   0  0  0  0  0  0
  -21.6859   -6.0734   22.5278 C   0  0  0  0  0  0
  -21.4007   -6.5640   23.8206 C   0  0  0  0  0  0
  -21.3652   -5.6799   24.9175 C   0  0  0  0  0  0
  -21.6052   -4.3060   24.7229 C   0  0  0  0  0  0
  -21.8823   -3.8147   23.4349 C   0  0  0  0  0  0
  -21.9188   -4.6963   22.3405 C   0  0  0  0  0  0
  -22.7910  -13.5283   21.1866 C   0  0  0  0  0  0
  -22.1666   -4.2154   21.0985 F   0  0  0  0  0  0
  -21.5624   -3.4540   25.7737 F   0  0  0  0  0  0
  -30.0339  -13.2561   20.4504 N   0  0  0  0  0  0
  -26.2987  -12.9204   20.3229 N   0  0  0  0  0  0
  -25.9241  -11.6405   20.5690 N   0  0  0  0  0  0
  -22.0530  -12.8265   22.0394 N   0  0  0  0  0  0
  -25.4455  -15.1832   20.3934 N   0  0  0  0  0  0
  -31.8121  -14.6457   20.0982 O   0  0  0  0  0  0
  -21.6647   -6.8870   21.4233 O   0  0  0  0  0  0
  -22.3638  -14.5617   20.6721 O   0  0  0  0  0  0
  -24.6114  -31.8701   23.2136 C   0  0  0  0  0  0
  -25.9031  -32.4842   23.8421 C   0  0  1  0  0  0
  -27.2289  -27.4588   20.0824 C   0  0  0  0  0  0
  -25.5909  -33.8642   24.2365 N   0  0  0  0  0  0
  -23.3963  -30.4983   21.5528 C   0  0  2  0  0  0
  -24.8383  -28.9635   20.1184 C   0  0  0  0  0  0
  -22.7368  -29.4715   22.4996 C   0  0  0  0  0  0
  -18.0266  -28.1380   22.8497 C   0  0  0  0  0  0
  -24.1492  -36.7323   23.2636 C   0  0  0  0  0  0
  -25.9251  -30.8428   21.3635 C   0  0  0  0  0  0
  -25.9997  -29.4795   20.7078 C   0  0  0  0  0  0
  -27.1971  -28.7354   20.6823 C   0  0  0  0  0  0
  -26.0485  -26.9511   19.4929 C   0  0  0  0  0  0
  -24.8568  -27.6974   19.5090 C   0  0  0  0  0  0
  -23.6023  -29.8308   20.1679 C   0  0  0  0  0  0
  -25.4108  -36.3128   24.0351 C   0  0  1  0  0  0
  -20.5852  -28.3684   23.1292 C   0  0  2  0  0  0
  -20.6774  -26.9410   22.5413 C   0  0  0  0  0  0
  -19.5741  -26.6370   21.5222 C   0  0  0  0  0  0
  -18.1919  -26.7916   22.1653 C   0  0  0  0  0  0
  -19.1513  -28.8848   23.2901 C   0  0  0  0  0  0
  -18.9445  -30.1452   23.8912 C   0  0  0  0  0  0
  -17.6445  -30.6597   24.0555 C   0  0  0  0  0  0
  -25.9035  -34.9493   23.5146 C   0  0  0  0  0  0
  -16.5334  -29.9091   23.6331 C   0  0  0  0  0  0
  -16.7250  -28.6506   23.0356 C   0  0  0  0  0  0
  -26.4456  -31.6612   25.0748 C   0  0  0  0  0  0
  -25.3731  -31.3712   26.1502 C   0  0  0  0  0  0
  -27.0296  -30.3065   24.6127 C   0  0  0  0  0  0
  -27.6051  -32.4307   25.7492 C   0  0  0  0  0  0
  -27.5582  -37.1818   24.8465 C   0  0  0  0  0  0
  -21.4103  -29.3082   22.3716 N   0  0  0  0  0  0
  -26.4294  -37.3808   23.9410 N   0  0  0  0  0  0
  -24.6627  -31.0836   22.1021 N   0  0  0  0  0  0
  -23.4136  -28.8246   23.3024 O   0  0  0  0  0  0
  -28.4160  -26.7642   20.0748 O   0  0  0  0  0  0
  -26.5585  -34.8928   22.4706 O   0  0  0  0  0  0
  -23.5329  -32.1446   23.7569 O   0  0  0  0  0  0
  -28.0097  -21.0266   23.4760 C   0  0  0  0  0  0
  -26.0260  -20.5747   22.1424 C   0  0  0  0  0  0
  -27.9650  -22.3810   23.0922 C   0  0  0  0  0  0
  -25.9949  -21.9267   21.7432 C   0  0  0  0  0  0
  -27.0478  -20.1131   22.9995 C   0  0  0  0  0  0
  -26.9672  -22.8427   22.1986 C   0  0  0  0  0  0
  -27.1306  -18.6447   23.3946 C   0  0  0  0  0  0
  -29.2782  -16.1981   21.3523 C   0  0  0  0  0  0
  -28.7359  -16.8913   22.6172 C   0  0  0  0  0  0
  -27.9823  -25.0068   21.7421 C   0  0  0  0  0  0
  -28.3655  -25.3508   20.2875 C   0  0  0  0  0  0
  -30.3065  -15.1959   21.6426 N   0  0  0  0  0  0
  -27.6638  -17.8501   22.2704 N   0  3  0  0  0  0
  -26.8421  -24.1450   21.7601 O   0  0  0  0  0  0
  -31.4631  -12.4049   19.1023 H   0  0  0  0  0  0
  -30.3291  -11.2835   19.7911 H   0  0  0  0  0  0
  -29.7322  -11.7886   17.4099 H   0  0  0  0  0  0
  -29.6397  -13.4950   17.7678 H   0  0  0  0  0  0
  -27.8486  -11.2735   18.8250 H   0  0  0  0  0  0
  -27.3512  -12.5763   17.7844 H   0  0  0  0  0  0
  -27.7021  -14.2145   19.5300 H   0  0  0  0  0  0
  -28.6657  -11.9237   21.3284 H   0  0  0  0  0  0
  -28.4351  -13.5536   21.8630 H   0  0  0  0  0  0
  -25.2760   -9.5700   22.4731 H   0  0  0  0  0  0
  -24.0013   -7.4644   22.7468 H   0  0  0  0  0  0
  -21.0827   -8.8764   19.8953 H   0  0  0  0  0  0
  -22.3668  -10.9675   19.6165 H   0  0  0  0  0  0
  -21.1996   -7.6156   23.9709 H   0  0  0  0  0  0
  -21.1471   -6.0535   25.9079 H   0  0  0  0  0  0
  -22.0607   -2.7610   23.2854 H   0  0  0  0  0  0
  -22.4131  -11.9885   22.4713 H   0  0  0  0  0  0
  -21.1153  -13.1277   22.2623 H   0  0  0  0  0  0
  -24.5996  -15.7398   20.3282 H   0  0  0  0  0  0
  -26.1406  -15.4806   19.7197 H   0  0  0  0  0  0
  -26.7102  -32.5531   23.1181 H   0  0  0  0  0  0
  -25.0098  -33.9807   25.0533 H   0  0  0  0  0  0
  -22.6869  -31.3176   21.4137 H   0  0  0  0  0  0
  -23.3748  -35.9661   23.3316 H   0  0  0  0  0  0
  -24.3591  -36.8919   22.2042 H   0  0  0  0  0  0
  -23.7243  -37.6541   23.6632 H   0  0  0  0  0  0
  -26.0434  -31.6130   20.5993 H   0  0  0  0  0  0
  -26.8109  -30.8888   21.9854 H   0  0  0  0  0  0
  -28.0962  -29.1332   21.1288 H   0  0  0  0  0  0
  -26.0301  -25.9901   19.0036 H   0  0  0  0  0  0
  -23.9653  -27.2958   19.0468 H   0  0  0  0  0  0
  -23.7134  -30.6066   19.4076 H   0  0  0  0  0  0
  -22.7248  -29.2533   19.8706 H   0  0  0  0  0  0
  -25.1278  -36.2007   25.0841 H   0  0  0  0  0  0
  -20.9943  -28.3249   24.1405 H   0  0  0  0  0  0
  -20.5690  -26.2278   23.3610 H   0  0  0  0  0  0
  -21.6652  -26.7466   22.1211 H   0  0  0  0  0  0
  -19.6886  -25.6269   21.1277 H   0  0  0  0  0  0
  -19.6671  -27.3163   20.6741 H   0  0  0  0  0  0
  -17.4179  -26.6626   21.4076 H   0  0  0  0  0  0
  -18.0332  -26.0085   22.9087 H   0  0  0  0  0  0
  -19.7926  -30.7267   24.2287 H   0  0  0  0  0  0
  -17.5012  -31.6272   24.5151 H   0  0  0  0  0  0
  -15.5349  -30.2998   23.7678 H   0  0  0  0  0  0
  -15.8655  -28.0830   22.7067 H   0  0  0  0  0  0
  -24.5887  -30.7081   25.7828 H   0  0  0  0  0  0
  -24.8931  -32.2865   26.4975 H   0  0  0  0  0  0
  -25.8071  -30.8850   27.0246 H   0  0  0  0  0  0
  -26.2864  -29.6823   24.1153 H   0  0  0  0  0  0
  -27.4047  -29.7308   25.4596 H   0  0  0  0  0  0
  -27.8703  -30.4407   23.9320 H   0  0  0  0  0  0
  -27.2711  -33.3589   26.2137 H   0  0  0  0  0  0
  -28.3821  -32.6881   25.0281 H   0  0  0  0  0  0
  -28.0770  -31.8386   26.5340 H   0  0  0  0  0  0
  -28.2606  -38.0110   24.7500 H   0  0  0  0  0  0
  -28.1075  -36.2634   24.6306 H   0  0  0  0  0  0
  -27.2304  -37.1493   25.8875 H   0  0  0  0  0  0
  -20.9284  -29.8806   21.6917 H   0  0  0  0  0  0
  -26.0194  -38.2900   24.1387 H   0  0  0  0  0  0
  -28.7935  -20.6959   24.1447 H   0  0  0  0  0  0
  -25.2638  -19.8958   21.7826 H   0  0  0  0  0  0
  -28.7092  -23.0346   23.5201 H   0  0  0  0  0  0
  -25.2154  -22.2688   21.0766 H   0  0  0  0  0  0
  -26.1413  -18.2793   23.6709 H   0  0  0  0  0  0
  -27.7626  -18.5432   24.2789 H   0  0  0  0  0  0
  -28.4478  -15.7480   20.8161 H   0  0  0  0  0  0
  -29.7055  -16.9403   20.6757 H   0  0  0  0  0  0
  -28.3405  -16.1534   23.3168 H   0  0  0  0  0  0
  -29.5439  -17.4195   23.1287 H   0  0  0  0  0  0
  -27.7012  -25.9089   22.2852 H   0  0  0  0  0  0
  -28.8666  -24.6355   22.2517 H   0  0  0  0  0  0
  -27.7211  -24.8430   19.5722 H   0  0  0  0  0  0
  -29.3619  -24.9603   20.0866 H   0  0  0  0  0  0
  -31.0828  -15.6163   22.1328 H   0  0  0  0  0  0
  -28.0191  -18.5019   21.5916 H   0  0  0  0  0  0
  -26.8945  -17.3557   21.8473 H   0  0  0  0  0  0
  1 25  1  0  0  0
  1 30  2  0  0  0
  1 82  1  0  0  0
  2  3  1  0  0  0
  2 25  1  0  0  0
  2 85  1  0  0  0
  2 86  1  0  0  0
  3  4  1  0  0  0
  3 87  1  0  0  0
  3 88  1  0  0  0
  4  5  1  0  0  0
  4 89  1  0  0  0
  4 90  1  0  0  0
  5  6  1  0  0  0
  5 26  1  0  0  0
  5 91  1  0  0  0
  6 25  1  0  0  0
  6 92  1  0  0  0
  6 93  1  0  0  0
  7  8  2  0  0  0
  7 26  1  0  0  0
  7 29  1  0  0  0
  8  9  1  0  0  0
  8 22  1  0  0  0
  9 10  1  0  0  0
  9 27  2  0  0  0
 10 11  2  0  0  0
 10 15  1  0  0  0
 11 12  1  0  0  0
 11 94  1  0  0  0
 12 13  2  0  0  0
 12 95  1  0  0  0
 13 14  1  0  0  0
 13 31  1  0  0  0
 14 15  2  0  0  0
 14 96  1  0  0  0
 15 97  1  0  0  0
 16 17  2  0  0  0
 16 21  1  0  0  0
 16 31  1  0  0  0
 17 18  1  0  0  0
 17 98  1  0  0  0
 18 19  2  0  0  0
 18 99  1  0  0  0
 19 20  1  0  0  0
 19 24  1  0  0  0
 20 21  2  0  0  0
 20100  1  0  0  0
 21 23  1  0  0  0
 22 28  1  0  0  0
 22 32  2  0  0  0
 26 27  1  0  0  0
 28101  1  0  0  0
 28102  1  0  0  0
 29103  1  0  0  0
 29104  1  0  0  0
 33 34  1  0  0  0
 33 66  1  0  0  0
 33 70  2  0  0  0
 34 36  1  0  0  0
 34 59  1  0  0  0
 34105  1  0  0  0
 35 44  2  0  0  0
 35 45  1  0  0  0
 35 68  1  0  0  0
 36 56  1  0  0  0
 36106  1  0  0  0
 37 39  1  0  0  0
 37 47  1  0  0  0
 37 66  1  0  0  0
 37107  1  0  0  0
 38 43  2  0  0  0
 38 46  1  0  0  0
 38 47  1  0  0  0
 39 64  1  0  0  0
 39 67  2  0  0  0
 40 52  1  0  0  0
 40 53  2  0  0  0
 40 58  1  0  0  0
 41108  1  0  0  0
 41109  1  0  0  0
 41110  1  0  0  0
 41 48  1  0  0  0
 42 43  1  0  0  0
 42 66  1  0  0  0
 42111  1  0  0  0
 42112  1  0  0  0
 43 44  1  0  0  0
 44113  1  0  0  0
 45 46  2  0  0  0
 45114  1  0  0  0
 46115  1  0  0  0
 47116  1  0  0  0
 47117  1  0  0  0
 48 56  1  0  0  0
 48 65  1  0  0  0
 48118  1  0  0  0
 49 50  1  0  0  0
 49 53  1  0  0  0
 49 64  1  0  0  0
 49119  1  0  0  0
 50 51  1  0  0  0
 50120  1  0  0  0
 50121  1  0  0  0
 51 52  1  0  0  0
 51122  1  0  0  0
 51123  1  0  0  0
 52124  1  0  0  0
 52125  1  0  0  0
 53 54  1  0  0  0
 54 55  2  0  0  0
 54126  1  0  0  0
 55 57  1  0  0  0
 55127  1  0  0  0
 56 69  2  0  0  0
 57 58  2  0  0  0
 57128  1  0  0  0
 58129  1  0  0  0
 59 60  1  0  0  0
 59 61  1  0  0  0
 59 62  1  0  0  0
 60130  1  0  0  0
 60131  1  0  0  0
 60132  1  0  0  0
 61133  1  0  0  0
 61134  1  0  0  0
 61135  1  0  0  0
 62136  1  0  0  0
 62137  1  0  0  0
 62138  1  0  0  0
 63 65  1  0  0  0
 63139  1  0  0  0
 63140  1  0  0  0
 63141  1  0  0  0
 64142  1  0  0  0
 65143  1  0  0  0
 68 81  1  0  0  0
 71 73  2  0  0  0
 71 75  1  0  0  0
 71144  1  0  0  0
 72 74  1  0  0  0
 72 75  2  0  0  0
 72145  1  0  0  0
 73 76  1  0  0  0
 73146  1  0  0  0
 74 76  2  0  0  0
 74147  1  0  0  0
 75 77  1  0  0  0
 76 84  1  0  0  0
 77 83  1  0  0  0
 77148  1  0  0  0
 77149  1  0  0  0
 78 79  1  0  0  0
 78 82  1  0  0  0
 78150  1  0  0  0
 78151  1  0  0  0
 79 83  1  0  0  0
 79152  1  0  0  0
 79153  1  0  0  0
 80 81  1  0  0  0
 80 84  1  0  0  0
 80154  1  0  0  0
 80155  1  0  0  0
 81156  1  0  0  0
 81157  1  0  0  0
 82158  1  0  0  0
 83159  1  0  0  0
 83160  1  0  0  0
M  CHG  1  83   1
M  ISO  4   1 100  68 101  81 101  82 100
M  END
> <chiral flag>
0

> <version>
0

> <s_m_source_file>
/data/baiqing/PycharmProjects/Reinvent-master-3.2/result/LINK_invent/BTK/process_docking_weight1_custom_sum_contain_oxygen_bond_distance_aromatic_linkinvent_7_9_3/rearranged_h_0123.sdf

> <i_m_source_file_index>
26

> <r_mmod_Potential_Energy-OPLS-2005>
-256.303863525391

> <r_mmod_Stretch_Energy-OPLS-2005>
32.6000709533691

> <r_mmod_Bend_Energy-OPLS-2005>
104.403160095215

> <r_mmod_Torsional_Energy-OPLS-2005>
270.790496826172

> <r_mmod_Improper_Torsional_Energy-OPLS-2005>
11.0860061645508

> <r_mmod_Van_der_Waal_Energy-OPLS-2005>
154.164840698242

> <r_mmod_Electrostatic_Energy-OPLS-2005>
-346.932922363281

> <r_mmod_Solvation_Energy-OPLS-2005>
-491.326202392578

> <b_mmod_Minimization_Converged-OPLS-2005>
0

> <r_mmod_RMS_Derivative-OPLS-2005>
2.7075526714325

$$$$
26
                    3D
 Structure written by MMmdl.
170179  0  0  1  0            999 V2000
  -30.7379  -14.4624   20.7312 C   0  0  0  0  0  0
  -30.4181  -12.3513   19.4545 C   0  0  0  0  0  0
  -29.5146  -12.5500   18.2202 C   0  0  0  0  0  0
  -28.0273  -12.4101   18.5985 C   0  0  0  0  0  0
  -27.6614  -13.2140   19.8709 C   0  0  2  0  0  0
  -28.6763  -12.9915   21.0078 C   0  0  0  0  0  0
  -25.2615  -13.8131   20.5670 C   0  0  0  0  0  0
  -24.1862  -13.0386   20.9128 C   0  0  0  0  0  0
  -24.6412  -11.6875   20.8629 C   0  0  0  0  0  0
  -23.9045  -10.4272   21.0354 C   0  0  0  0  0  0
  -24.3599   -9.4194   21.9132 C   0  0  0  0  0  0
  -23.6316   -8.2219   22.0709 C   0  0  0  0  0  0
  -22.4279   -8.0270   21.3535 C   0  0  0  0  0  0
  -21.9871   -9.0242   20.4670 C   0  0  0  0  0  0
  -22.7181  -10.2126   20.3050 C   0  0  0  0  0  0
  -21.6843   -6.0742   22.5283 C   0  0  0  0  0  0
  -21.4019   -6.5654   23.8227 C   0  0  0  0  0  0
  -21.3654   -5.6793   24.9183 C   0  0  0  0  0  0
  -21.6047   -4.3057   24.7212 C   0  0  0  0  0  0
  -21.8821   -3.8143   23.4333 C   0  0  0  0  0  0
  -21.9163   -4.6967   22.3388 C   0  0  0  0  0  0
  -22.7898  -13.5210   21.1833 C   0  0  0  0  0  0
  -22.1592   -4.2149   21.0964 F   0  0  0  0  0  0
  -21.5675   -3.4540   25.7726 F   0  0  0  0  0  0
  -30.0188  -13.3190   20.5033 N   0  0  0  0  0  0
  -26.3014  -12.9302   20.3197 N   0  0  0  0  0  0
  -25.9317  -11.6433   20.5552 N   0  0  0  0  0  0
  -22.0532  -12.8250   22.0414 N   0  0  0  0  0  0
  -25.4359  -15.1858   20.4379 N   0  0  0  0  0  0
  -31.7966  -14.6644   20.1141 O   0  0  0  0  0  0
  -21.6645   -6.8864   21.4236 O   0  0  0  0  0  0
  -22.3548  -14.5498   20.6705 O   0  0  0  0  0  0
  -24.6140  -31.8712   23.2129 C   0  0  0  0  0  0
  -25.9042  -32.4846   23.8405 C   0  0  1  0  0  0
  -27.2572  -27.4591   20.0823 C   0  0  0  0  0  0
  -25.5919  -33.8647   24.2317 N   0  0  0  0  0  0
  -23.4029  -30.4966   21.5521 C   0  0  2  0  0  0
  -24.8552  -28.9632   20.1194 C   0  0  0  0  0  0
  -22.7400  -29.4700   22.4984 C   0  0  0  0  0  0
  -18.0273  -28.1391   22.8467 C   0  0  0  0  0  0
  -24.1493  -36.7338   23.2639 C   0  0  0  0  0  0
  -25.9340  -30.8356   21.3743 C   0  0  0  0  0  0
  -26.0164  -29.4751   20.7159 C   0  0  0  0  0  0
  -27.2201  -28.7316   20.7018 C   0  0  0  0  0  0
  -26.0787  -26.9610   19.4919 C   0  0  0  0  0  0
  -24.8796  -27.7004   19.5054 C   0  0  0  0  0  0
  -23.6151  -29.8289   20.1679 C   0  0  0  0  0  0
  -25.4118  -36.3133   24.0334 C   0  0  1  0  0  0
  -20.5862  -28.3688   23.1327 C   0  0  2  0  0  0
  -20.6734  -26.9399   22.5505 C   0  0  0  0  0  0
  -19.5789  -26.6379   21.5221 C   0  0  0  0  0  0
  -18.1920  -26.7964   22.1522 C   0  0  0  0  0  0
  -19.1519  -28.8835   23.2891 C   0  0  0  0  0  0
  -18.9450  -30.1420   23.8938 C   0  0  0  0  0  0
  -17.6454  -30.6564   24.0586 C   0  0  0  0  0  0
  -25.9042  -34.9502   23.5109 C   0  0  0  0  0  0
  -16.5344  -29.9088   23.6316 C   0  0  0  0  0  0
  -16.7259  -28.6502   23.0321 C   0  0  0  0  0  0
  -26.4483  -31.6659   25.0753 C   0  0  0  0  0  0
  -25.3765  -31.3928   26.1558 C   0  0  0  0  0  0
  -27.0236  -30.3020   24.6264 C   0  0  0  0  0  0
  -27.6147  -32.4375   25.7386 C   0  0  0  0  0  0
  -27.5627  -37.1783   24.8418 C   0  0  0  0  0  0
  -21.4132  -29.3027   22.3692 N   0  0  0  0  0  0
  -26.4308  -37.3815   23.9409 N   0  0  0  0  0  0
  -24.6675  -31.0828   22.1026 N   0  0  0  0  0  0
  -23.4154  -28.8264   23.3055 O   0  0  0  0  0  0
  -28.3665  -26.6400   19.9870 O   0  0  0  0  0  0
  -26.5606  -34.8952   22.4665 O   0  0  0  0  0  0
  -23.5337  -32.1474   23.7523 O   0  0  0  0  0  0
  -30.4003  -20.2636   22.2254 C   0  0  0  0  0  0
  -30.8217  -21.5827   21.9221 C   0  0  0  0  0  0
  -30.1677  -21.2444   19.6188 C   0  0  0  0  0  0
  -29.8678  -19.3998   21.2303 C   0  0  0  0  0  0
  -30.7076  -22.0903   20.6074 C   0  0  0  0  0  0
  -29.7494  -19.9222   19.9132 C   0  0  0  0  0  0
  -30.4730  -16.8738   21.0681 C   0  0  0  0  0  0
  -28.8542  -16.4267   23.3218 C   0  0  0  0  0  0
  -29.4510  -17.9429   21.5789 C   0  0  1  0  0  0
  -29.9534  -15.4160   22.9341 C   0  0  2  0  0  0
  -29.1689  -19.1149   18.7663 C   0  0  0  0  0  0
  -31.2400  -15.6566   23.7470 C   0  0  0  0  0  0
  -31.2113  -23.4947   20.2210 C   0  0  0  0  0  0
  -30.6545  -25.9501   20.1396 C   0  0  0  0  0  0
  -29.6151  -27.0220   20.5532 C   0  0  0  0  0  0
  -30.1832  -15.4742   21.4734 N   0  0  0  0  0  0
  -30.4092  -24.6178   20.7718 N   0  3  0  0  0  0
  -29.2750  -17.7488   22.9849 O   0  0  0  0  0  0
  -31.4634  -12.4547   19.1593 H   0  0  0  0  0  0
  -30.3233  -11.3323   19.8354 H   0  0  0  0  0  0
  -29.7692  -11.8264   17.4436 H   0  0  0  0  0  0
  -29.6978  -13.5401   17.7907 H   0  0  0  0  0  0
  -27.8117  -11.3520   18.7460 H   0  0  0  0  0  0
  -27.4004  -12.7355   17.7663 H   0  0  0  0  0  0
  -27.7065  -14.2705   19.6046 H   0  0  0  0  0  0
  -28.6551  -11.9598   21.3650 H   0  0  0  0  0  0
  -28.3554  -13.5964   21.8485 H   0  0  0  0  0  0
  -25.2722   -9.5710   22.4722 H   0  0  0  0  0  0
  -24.0084   -7.4593   22.7387 H   0  0  0  0  0  0
  -21.0788   -8.8721   19.9012 H   0  0  0  0  0  0
  -22.3564  -10.9679   19.6214 H   0  0  0  0  0  0
  -21.2038   -7.6163   23.9730 H   0  0  0  0  0  0
  -21.1481   -6.0527   25.9098 H   0  0  0  0  0  0
  -22.0648   -2.7616   23.2823 H   0  0  0  0  0  0
  -22.4117  -11.9933   22.4851 H   0  0  0  0  0  0
  -21.1159  -13.1359   22.2612 H   0  0  0  0  0  0
  -24.6990  -15.8438   20.6700 H   0  0  0  0  0  0
  -26.3078  -15.6335   20.1857 H   0  0  0  0  0  0
  -26.7115  -32.5563   23.1173 H   0  0  0  0  0  0
  -25.0086  -33.9818   25.0474 H   0  0  0  0  0  0
  -22.6928  -31.3144   21.4125 H   0  0  0  0  0  0
  -23.3767  -35.9657   23.3294 H   0  0  0  0  0  0
  -24.3583  -36.8962   22.2052 H   0  0  0  0  0  0
  -23.7223  -37.6530   23.6663 H   0  0  0  0  0  0
  -26.0663  -31.6121   20.6201 H   0  0  0  0  0  0
  -26.8112  -30.8720   22.0085 H   0  0  0  0  0  0
  -28.1043  -29.1513   21.1588 H   0  0  0  0  0  0
  -26.0917  -25.9962   19.0068 H   0  0  0  0  0  0
  -23.9932  -27.3005   19.0319 H   0  0  0  0  0  0
  -23.7231  -30.6048   19.4097 H   0  0  0  0  0  0
  -22.7399  -29.2504   19.8670 H   0  0  0  0  0  0
  -25.1299  -36.2001   25.0832 H   0  0  0  0  0  0
  -20.9955  -28.3304   24.1453 H   0  0  0  0  0  0
  -20.5504  -26.2338   23.3735 H   0  0  0  0  0  0
  -21.6643  -26.7364   22.1432 H   0  0  0  0  0  0
  -19.6962  -25.6282   21.1270 H   0  0  0  0  0  0
  -19.6813  -27.3172   20.6753 H   0  0  0  0  0  0
  -17.4282  -26.6833   21.3816 H   0  0  0  0  0  0
  -18.0177  -26.0036   22.8811 H   0  0  0  0  0  0
  -19.7924  -30.7184   24.2371 H   0  0  0  0  0  0
  -17.5019  -31.6248   24.5196 H   0  0  0  0  0  0
  -15.5345  -30.2995   23.7619 H   0  0  0  0  0  0
  -15.8661  -28.0824   22.7026 H   0  0  0  0  0  0
  -24.6037  -30.7066   25.8070 H   0  0  0  0  0  0
  -24.8829  -32.3130   26.4709 H   0  0  0  0  0  0
  -25.8171  -30.9464   27.0485 H   0  0  0  0  0  0
  -26.2763  -29.6794   24.1338 H   0  0  0  0  0  0
  -27.3856  -29.7303   25.4824 H   0  0  0  0  0  0
  -27.8706  -30.4172   23.9497 H   0  0  0  0  0  0
  -27.2811  -33.3594   26.2164 H   0  0  0  0  0  0
  -28.3775  -32.7095   25.0072 H   0  0  0  0  0  0
  -28.1067  -31.8430   26.5096 H   0  0  0  0  0  0
  -28.2707  -38.0021   24.7427 H   0  0  0  0  0  0
  -28.1060  -36.2580   24.6228 H   0  0  0  0  0  0
  -27.2411  -37.1444   25.8841 H   0  0  0  0  0  0
  -20.9296  -29.8742   21.6910 H   0  0  0  0  0  0
  -26.0229  -38.2899   24.1450 H   0  0  0  0  0  0
  -30.5055  -19.9185   23.2456 H   0  0  0  0  0  0
  -31.2484  -22.1960   22.7048 H   0  0  0  0  0  0
  -30.0911  -21.6079   18.6015 H   0  0  0  0  0  0
  -31.4709  -17.1513   21.4030 H   0  0  0  0  0  0
  -30.5264  -16.8828   19.9837 H   0  0  0  0  0  0
  -28.6543  -16.3707   24.3949 H   0  0  0  0  0  0
  -27.9097  -16.1884   22.8295 H   0  0  0  0  0  0
  -28.4699  -17.7713   21.1293 H   0  0  0  0  0  0
  -29.6107  -14.4287   23.2390 H   0  0  0  0  0  0
  -29.5058  -19.5175   17.8106 H   0  0  0  0  0  0
  -28.0796  -19.1423   18.7973 H   0  0  0  0  0  0
  -29.4733  -18.0796   18.7625 H   0  0  0  0  0  0
  -31.6878  -16.6262   23.5401 H   0  0  0  0  0  0
  -31.9897  -14.8914   23.5474 H   0  0  0  0  0  0
  -31.0323  -15.6423   24.8182 H   0  0  0  0  0  0
  -31.2016  -23.5632   19.1307 H   0  0  0  0  0  0
  -32.2557  -23.6025   20.5183 H   0  0  0  0  0  0
  -31.6580  -26.2926   20.3982 H   0  0  0  0  0  0
  -30.6393  -25.8575   19.0530 H   0  0  0  0  0  0
  -29.9130  -27.9950   20.1568 H   0  0  0  0  0  0
  -29.5470  -27.1043   21.6383 H   0  0  0  0  0  0
  -30.5963  -24.6836   21.7591 H   0  0  0  0  0  0
  -29.4336  -24.3911   20.6604 H   0  0  0  0  0  0
  1 25  1  0  0  0
  1 30  2  0  0  0
  1 86  1  0  0  0
  2  3  1  0  0  0
  2 25  1  0  0  0
  2 89  1  0  0  0
  2 90  1  0  0  0
  3  4  1  0  0  0
  3 91  1  0  0  0
  3 92  1  0  0  0
  4  5  1  0  0  0
  4 93  1  0  0  0
  4 94  1  0  0  0
  5  6  1  0  0  0
  5 26  1  0  0  0
  5 95  1  0  0  0
  6 25  1  0  0  0
  6 96  1  0  0  0
  6 97  1  0  0  0
  7  8  2  0  0  0
  7 26  1  0  0  0
  7 29  1  0  0  0
  8  9  1  0  0  0
  8 22  1  0  0  0
  9 10  1  0  0  0
  9 27  2  0  0  0
 10 11  2  0  0  0
 10 15  1  0  0  0
 11 12  1  0  0  0
 11 98  1  0  0  0
 12 13  2  0  0  0
 12 99  1  0  0  0
 13 14  1  0  0  0
 13 31  1  0  0  0
 14 15  2  0  0  0
 14100  1  0  0  0
 15101  1  0  0  0
 16 17  2  0  0  0
 16 21  1  0  0  0
 16 31  1  0  0  0
 17 18  1  0  0  0
 17102  1  0  0  0
 18 19  2  0  0  0
 18103  1  0  0  0
 19 20  1  0  0  0
 19 24  1  0  0  0
 20 21  2  0  0  0
 20104  1  0  0  0
 21 23  1  0  0  0
 22 28  1  0  0  0
 22 32  2  0  0  0
 26 27  1  0  0  0
 28105  1  0  0  0
 28106  1  0  0  0
 29107  1  0  0  0
 29108  1  0  0  0
 33 34  1  0  0  0
 33 66  1  0  0  0
 33 70  2  0  0  0
 34 36  1  0  0  0
 34 59  1  0  0  0
 34109  1  0  0  0
 35 44  2  0  0  0
 35 45  1  0  0  0
 35 68  1  0  0  0
 36 56  1  0  0  0
 36110  1  0  0  0
 37 39  1  0  0  0
 37 47  1  0  0  0
 37 66  1  0  0  0
 37111  1  0  0  0
 38 43  2  0  0  0
 38 46  1  0  0  0
 38 47  1  0  0  0
 39 64  1  0  0  0
 39 67  2  0  0  0
 40 52  1  0  0  0
 40 53  2  0  0  0
 40 58  1  0  0  0
 41112  1  0  0  0
 41113  1  0  0  0
 41114  1  0  0  0
 41 48  1  0  0  0
 42 43  1  0  0  0
 42 66  1  0  0  0
 42115  1  0  0  0
 42116  1  0  0  0
 43 44  1  0  0  0
 44117  1  0  0  0
 45 46  2  0  0  0
 45118  1  0  0  0
 46119  1  0  0  0
 47120  1  0  0  0
 47121  1  0  0  0
 48 56  1  0  0  0
 48 65  1  0  0  0
 48122  1  0  0  0
 49 50  1  0  0  0
 49 53  1  0  0  0
 49 64  1  0  0  0
 49123  1  0  0  0
 50 51  1  0  0  0
 50124  1  0  0  0
 50125  1  0  0  0
 51 52  1  0  0  0
 51126  1  0  0  0
 51127  1  0  0  0
 52128  1  0  0  0
 52129  1  0  0  0
 53 54  1  0  0  0
 54 55  2  0  0  0
 54130  1  0  0  0
 55 57  1  0  0  0
 55131  1  0  0  0
 56 69  2  0  0  0
 57 58  2  0  0  0
 57132  1  0  0  0
 58133  1  0  0  0
 59 60  1  0  0  0
 59 61  1  0  0  0
 59 62  1  0  0  0
 60134  1  0  0  0
 60135  1  0  0  0
 60136  1  0  0  0
 61137  1  0  0  0
 61138  1  0  0  0
 61139  1  0  0  0
 62140  1  0  0  0
 62141  1  0  0  0
 62142  1  0  0  0
 63 65  1  0  0  0
 63143  1  0  0  0
 63144  1  0  0  0
 63145  1  0  0  0
 64146  1  0  0  0
 65147  1  0  0  0
 68 85  1  0  0  0
 71 72  2  0  0  0
 71 74  1  0  0  0
 71148  1  0  0  0
 72 75  1  0  0  0
 72149  1  0  0  0
 73 75  2  0  0  0
 73 76  1  0  0  0
 73150  1  0  0  0
 74 76  2  0  0  0
 74 79  1  0  0  0
 75 83  1  0  0  0
 76 81  1  0  0  0
 77 79  1  0  0  0
 77 86  1  0  0  0
 77151  1  0  0  0
 77152  1  0  0  0
 78 80  1  0  0  0
 78 88  1  0  0  0
 78153  1  0  0  0
 78154  1  0  0  0
 79 88  1  0  0  0
 79155  1  0  0  0
 80 82  1  0  0  0
 80 86  1  0  0  0
 80156  1  0  0  0
 81157  1  0  0  0
 81158  1  0  0  0
 81159  1  0  0  0
 82160  1  0  0  0
 82161  1  0  0  0
 82162  1  0  0  0
 83 87  1  0  0  0
 83163  1  0  0  0
 83164  1  0  0  0
 84 85  1  0  0  0
 84 87  1  0  0  0
 84165  1  0  0  0
 84166  1  0  0  0
 85167  1  0  0  0
 85168  1  0  0  0
 87169  1  0  0  0
 87170  1  0  0  0
M  CHG  1  87   1
M  ISO  4   1 100  68 101  85 101  86 100
M  END
> <chiral flag>
0

> <version>
0

> <s_m_source_file>
/data/baiqing/PycharmProjects/Reinvent-master-3.2/result/LINK_invent/BTK/process_docking_weight1_custom_sum_contain_oxygen_bond_distance_aromatic_linkinvent_7_9_3/rearranged_h_0123.sdf

> <i_m_source_file_index>
27

> <r_mmod_Potential_Energy-OPLS-2005>
-35.8469161987305

> <r_mmod_Stretch_Energy-OPLS-2005>
50.0043449401855

> <r_mmod_Bend_Energy-OPLS-2005>
124.058975219727

> <r_mmod_Torsional_Energy-OPLS-2005>
309.677612304688

> <r_mmod_Improper_Torsional_Energy-OPLS-2005>
7.13241529464722

> <r_mmod_Van_der_Waal_Energy-OPLS-2005>
161.61506652832

> <r_mmod_Electrostatic_Energy-OPLS-2005>
-276.828308105469

> <r_mmod_Solvation_Energy-OPLS-2005>
-425.309753417969

> <b_mmod_Minimization_Converged-OPLS-2005>
0

> <r_mmod_RMS_Derivative-OPLS-2005>
5.77595520019531

$$$$
27
                    3D
 Structure written by MMmdl.
168177  0  0  1  0            999 V2000
  -30.4083  -14.7566   19.6974 C   0  0  0  0  0  0
  -31.2707  -12.6170   19.3215 C   0  0  0  0  0  0
  -30.2248  -12.2473   18.2987 C   0  0  0  0  0  0
  -29.2861  -11.7243   19.2949 C   0  0  0  0  0  0
  -28.5439  -12.8870   20.3858 C   0  0  2  0  0  0
  -29.7446  -12.9599   21.3149 C   0  0  0  0  0  0
  -24.7736  -14.1911   20.6514 C   0  0  0  0  0  0
  -23.8433  -13.2986   21.1415 C   0  0  0  0  0  0
  -24.2620  -11.9872   20.8758 C   0  0  0  0  0  0
  -23.7404  -10.5893   21.0091 C   0  0  0  0  0  0
  -24.2804   -9.5983   21.8819 C   0  0  0  0  0  0
  -23.6371   -8.3399   22.0491 C   0  0  0  0  0  0
  -22.4427   -8.0595   21.3392 C   0  0  0  0  0  0
  -21.9588   -9.0152   20.4305 C   0  0  0  0  0  0
  -22.6026  -10.2512   20.2607 C   0  0  0  0  0  0
  -21.7210   -6.0835   22.5275 C   0  0  0  0  0  0
  -21.4273   -6.5750   23.8186 C   0  0  0  0  0  0
  -21.3707   -5.6877   24.9134 C   0  0  0  0  0  0
  -21.6033   -4.3122   24.7209 C   0  0  0  0  0  0
  -21.8803   -3.8200   23.4344 C   0  0  0  0  0  0
  -21.9316   -4.7018   22.3419 C   0  0  0  0  0  0
  -22.4586  -13.6487   21.3877 C   0  0  0  0  0  0
  -22.1737   -4.2161   21.1003 F   0  0  0  0  0  0
  -21.5530   -3.4613   25.7723 F   0  0  0  0  0  0
  -30.6836  -13.5507   20.2786 N   0  0  0  0  0  0
  -25.7772  -13.4186   20.1686 N   0  0  0  0  0  0
  -24.7827  -12.4408   19.7837 N   0  0  0  0  0  0
  -21.7895  -12.8516   22.2003 N   0  0  0  0  0  0
  -24.8157  -15.5504   20.4896 N   0  0  0  0  0  0
  -31.4240  -15.4481   19.6872 O   0  0  0  0  0  0
  -21.7224   -6.8885   21.4160 O   0  0  0  0  0  0
  -21.9814  -14.6294   20.8276 O   0  0  0  0  0  0
  -24.6683  -31.8177   23.1700 C   0  0  0  0  0  0
  -25.9362  -32.4536   23.8150 C   0  0  1  0  0  0
  -27.0587  -26.7985   20.2391 C   0  0  0  0  0  0
  -25.6018  -33.8359   24.2047 N   0  0  0  0  0  0
  -23.4767  -30.4420   21.5199 C   0  0  2  0  0  0
  -24.9045  -28.8256   20.0972 C   0  0  0  0  0  0
  -22.7664  -29.4436   22.4715 C   0  0  0  0  0  0
  -18.0322  -28.1410   22.8451 C   0  0  0  0  0  0
  -24.1499  -36.7184   23.2645 C   0  0  0  0  0  0
  -26.0497  -30.5866   21.4150 C   0  0  0  0  0  0
  -26.0888  -29.1690   20.7603 C   0  0  0  0  0  0
  -27.1733  -28.1733   20.8066 C   0  0  0  0  0  0
  -25.8874  -26.6528   19.4763 C   0  0  0  0  0  0
  -24.8398  -27.5990   19.4236 C   0  0  0  0  0  0
  -23.7117  -29.7785   20.1367 C   0  0  0  0  0  0
  -25.4142  -36.2933   24.0288 C   0  0  1  0  0  0
  -20.5947  -28.3757   23.1159 C   0  0  2  0  0  0
  -20.6800  -26.9432   22.5392 C   0  0  0  0  0  0
  -19.5777  -26.6378   21.5200 C   0  0  0  0  0  0
  -18.1959  -26.7938   22.1609 C   0  0  0  0  0  0
  -19.1586  -28.8902   23.2796 C   0  0  0  0  0  0
  -18.9498  -30.1487   23.8843 C   0  0  0  0  0  0
  -17.6496  -30.6600   24.0548 C   0  0  0  0  0  0
  -25.9118  -34.9318   23.4989 C   0  0  0  0  0  0
  -16.5385  -29.9086   23.6344 C   0  0  0  0  0  0
  -16.7304  -28.6505   23.0359 C   0  0  0  0  0  0
  -26.4591  -31.6509   25.0709 C   0  0  0  0  0  0
  -25.3711  -31.3794   26.1368 C   0  0  0  0  0  0
  -27.0497  -30.2857   24.6512 C   0  0  0  0  0  0
  -27.6071  -32.4332   25.7518 C   0  0  0  0  0  0
  -27.5569  -37.1755   24.8472 C   0  0  0  0  0  0
  -21.4331  -29.3048   22.3488 N   0  0  0  0  0  0
  -26.4278  -37.3678   23.9414 N   0  0  0  0  0  0
  -24.7546  -30.9789   22.0868 N   0  0  0  0  0  0
  -23.4213  -28.7982   23.2946 O   0  0  0  0  0  0
  -27.8897  -25.5585   20.3962 O   0  0  0  0  0  0
  -26.5722  -34.8861   22.4585 O   0  0  0  0  0  0
  -23.5758  -32.1192   23.6774 O   0  0  0  0  0  0
  -27.2065  -12.7963   18.5525 C   0  0  0  0  0  0
  -26.9071  -11.4484   19.9231 C   0  0  0  0  0  0
  -27.4121  -15.0752   20.7535 C   0  0  0  0  0  0
  -27.6354  -14.5231   19.1087 C   0  0  0  0  0  0
  -27.0851  -13.7656   22.0161 C   0  0  0  0  0  0
  -28.4735  -17.9122   20.0767 C   0  0  0  0  0  0
  -26.4485  -18.0513   21.1056 C   0  0  0  0  0  0
  -28.7276  -19.5687   20.3692 C   0  0  0  0  0  0
  -26.6854  -19.7268   21.3757 C   0  0  0  0  0  0
  -27.6179  -16.8659   21.0309 C   0  0  1  0  0  0
  -27.6113  -13.3095   24.4727 C   0  0  0  0  0  0
  -26.8286  -14.1527   23.4581 C   0  0  0  0  0  0
  -27.9684  -22.2712   20.8021 C   0  0  0  0  0  0
  -27.3974  -23.9394   20.2403 C   0  0  0  0  0  0
  -26.8646  -12.0417   21.6273 N   0  0  0  0  0  0
  -29.1413  -15.0107   18.9679 N   0  0  0  0  0  0
  -27.5828  -20.6307   20.4675 N   0  3  1  0  0  0
  -32.1250  -13.0717   18.8127 H   0  0  0  0  0  0
  -31.7017  -11.7562   19.8381 H   0  0  0  0  0  0
  -30.6032  -11.4577   17.6461 H   0  0  0  0  0  0
  -29.8477  -13.0364   17.6511 H   0  0  0  0  0  0
  -29.7283  -10.9093   19.8752 H   0  0  0  0  0  0
  -28.7366  -11.0454   18.6368 H   0  0  0  0  0  0
  -28.8719  -13.6412   20.9596 H   0  0  0  0  0  0
  -30.0823  -11.9618   21.5982 H   0  0  0  0  0  0
  -29.8554  -13.4515   22.3308 H   0  0  0  0  0  0
  -25.1663   -9.8313   22.4569 H   0  0  0  0  0  0
  -24.0545   -7.6146   22.7331 H   0  0  0  0  0  0
  -21.0649   -8.8027   19.8611 H   0  0  0  0  0  0
  -22.1808  -10.9749   19.5768 H   0  0  0  0  0  0
  -21.2380   -7.6272   23.9693 H   0  0  0  0  0  0
  -21.1476   -6.0620   25.9019 H   0  0  0  0  0  0
  -22.0474   -2.7642   23.2861 H   0  0  0  0  0  0
  -22.2308  -12.0547   22.6353 H   0  0  0  0  0  0
  -20.8182  -13.0446   22.3986 H   0  0  0  0  0  0
  -24.1321  -16.1829   20.8847 H   0  0  0  0  0  0
  -25.7480  -15.9346   20.3749 H   0  0  0  0  0  0
  -26.7408  -32.5014   23.0832 H   0  0  0  0  0  0
  -25.0121  -33.9431   25.0167 H   0  0  0  0  0  0
  -22.7934  -31.2793   21.3620 H   0  0  0  0  0  0
  -23.3770  -35.9505   23.3268 H   0  0  0  0  0  0
  -24.3568  -36.8876   22.2068 H   0  0  0  0  0  0
  -23.7250  -37.6355   23.6732 H   0  0  0  0  0  0
  -26.2466  -31.3199   20.6316 H   0  0  0  0  0  0
  -26.9070  -30.6361   22.0735 H   0  0  0  0  0  0
  -28.0561  -28.4113   21.3837 H   0  0  0  0  0  0
  -25.7164  -25.7158   18.9665 H   0  0  0  0  0  0
  -23.9453  -27.3408   18.8734 H   0  0  0  0  0  0
  -23.8882  -30.5562   19.3932 H   0  0  0  0  0  0
  -22.8111  -29.2592   19.8046 H   0  0  0  0  0  0
  -25.1343  -36.1711   25.0775 H   0  0  0  0  0  0
  -21.0039  -28.3382   24.1278 H   0  0  0  0  0  0
  -20.5666  -26.2381   23.3637 H   0  0  0  0  0  0
  -21.6665  -26.7398   22.1209 H   0  0  0  0  0  0
  -19.6935  -25.6277   21.1259 H   0  0  0  0  0  0
  -19.6720  -27.3159   20.6704 H   0  0  0  0  0  0
  -17.4223  -26.6660   21.4021 H   0  0  0  0  0  0
  -18.0368  -26.0101   22.9027 H   0  0  0  0  0  0
  -19.7980  -30.7304   24.2198 H   0  0  0  0  0  0
  -17.5054  -31.6271   24.5163 H   0  0  0  0  0  0
  -15.5384  -30.2974   23.7704 H   0  0  0  0  0  0
  -15.8701  -28.0809   22.7109 H   0  0  0  0  0  0
  -24.5921  -30.7095   25.7708 H   0  0  0  0  0  0
  -24.8877  -32.3005   26.4629 H   0  0  0  0  0  0
  -25.7949  -30.9098   27.0255 H   0  0  0  0  0  0
  -26.3179  -29.6509   24.1502 H   0  0  0  0  0  0
  -27.3965  -29.7254   25.5207 H   0  0  0  0  0  0
  -27.9149  -30.4010   23.9980 H   0  0  0  0  0  0
  -27.2629  -33.3688   26.1939 H   0  0  0  0  0  0
  -28.3967  -32.6795   25.0408 H   0  0  0  0  0  0
  -28.0633  -31.8561   26.5574 H   0  0  0  0  0  0
  -28.2568  -38.0066   24.7501 H   0  0  0  0  0  0
  -28.1082  -36.2592   24.6316 H   0  0  0  0  0  0
  -27.2284  -37.1410   25.8873 H   0  0  0  0  0  0
  -20.9568  -29.8766   21.6652 H   0  0  0  0  0  0
  -26.0116  -38.2733   24.1414 H   0  0  0  0  0  0
  -27.3413  -12.4965   17.5226 H   0  0  0  0  0  0
  -26.7511  -10.3987   19.7173 H   0  0  0  0  0  0
  -29.4759  -17.4969   19.9974 H   0  0  0  0  0  0
  -28.0667  -17.8374   19.0672 H   0  0  0  0  0  0
  -25.8754  -17.9967   20.1788 H   0  0  0  0  0  0
  -25.7462  -17.7342   21.8771 H   0  0  0  0  0  0
  -29.4187  -19.9313   19.6089 H   0  0  0  0  0  0
  -29.2890  -19.6380   21.3017 H   0  0  0  0  0  0
  -27.0645  -19.8382   22.3925 H   0  0  0  0  0  0
  -25.7038  -20.2013   21.3966 H   0  0  0  0  0  0
  -28.1124  -16.8849   22.0019 H   0  0  0  0  0  0
  -27.3744  -13.6189   25.4916 H   0  0  0  0  0  0
  -28.6876  -13.4114   24.3418 H   0  0  0  0  0  0
  -27.3589  -12.2521   24.3837 H   0  0  0  0  0  0
  -25.7581  -14.0713   23.6496 H   0  0  0  0  0  0
  -27.0860  -15.2046   23.5832 H   0  0  0  0  0  0
  -27.9749  -22.3235   21.8900 H   0  0  0  0  0  0
  -29.0262  -22.2976   20.5421 H   0  0  0  0  0  0
  -26.3606  -23.9760   20.5755 H   0  0  0  0  0  0
  -27.3138  -23.8298   19.1589 H   0  0  0  0  0  0
  -29.2156  -15.8486   18.4119 H   0  0  0  0  0  0
  -27.1481  -20.6441   19.5559 H   0  0  0  0  0  0
  1 25  1  0  0  0
  1 30  2  0  0  0
  1 86  1  0  0  0
  2  3  1  0  0  0
  2 25  1  0  0  0
  2 88  1  0  0  0
  2 89  1  0  0  0
  3  4  1  0  0  0
  3 90  1  0  0  0
  3 91  1  0  0  0
  4  5  1  0  0  0
  4 92  1  0  0  0
  4 93  1  0  0  0
  5  6  1  0  0  0
  5 26  1  0  0  0
  5 94  1  0  0  0
  6 25  1  0  0  0
  6 95  1  0  0  0
  6 96  1  0  0  0
  7  8  2  0  0  0
  7 26  1  0  0  0
  7 29  1  0  0  0
  8  9  1  0  0  0
  8 22  1  0  0  0
  9 10  1  0  0  0
  9 27  2  0  0  0
 10 11  2  0  0  0
 10 15  1  0  0  0
 11 12  1  0  0  0
 11 97  1  0  0  0
 12 13  2  0  0  0
 12 98  1  0  0  0
 13 14  1  0  0  0
 13 31  1  0  0  0
 14 15  2  0  0  0
 14 99  1  0  0  0
 15100  1  0  0  0
 16 17  2  0  0  0
 16 21  1  0  0  0
 16 31  1  0  0  0
 17 18  1  0  0  0
 17101  1  0  0  0
 18 19  2  0  0  0
 18102  1  0  0  0
 19 20  1  0  0  0
 19 24  1  0  0  0
 20 21  2  0  0  0
 20103  1  0  0  0
 21 23  1  0  0  0
 22 28  1  0  0  0
 22 32  2  0  0  0
 26 27  1  0  0  0
 28104  1  0  0  0
 28105  1  0  0  0
 29106  1  0  0  0
 29107  1  0  0  0
 33 34  1  0  0  0
 33 66  1  0  0  0
 33 70  2  0  0  0
 34 36  1  0  0  0
 34 59  1  0  0  0
 34108  1  0  0  0
 35 44  2  0  0  0
 35 45  1  0  0  0
 35 68  1  0  0  0
 36 56  1  0  0  0
 36109  1  0  0  0
 37 39  1  0  0  0
 37 47  1  0  0  0
 37 66  1  0  0  0
 37110  1  0  0  0
 38 43  2  0  0  0
 38 46  1  0  0  0
 38 47  1  0  0  0
 39 64  1  0  0  0
 39 67  2  0  0  0
 40 52  1  0  0  0
 40 53  2  0  0  0
 40 58  1  0  0  0
 41111  1  0  0  0
 41112  1  0  0  0
 41113  1  0  0  0
 41 48  1  0  0  0
 42 43  1  0  0  0
 42 66  1  0  0  0
 42114  1  0  0  0
 42115  1  0  0  0
 43 44  1  0  0  0
 44116  1  0  0  0
 45 46  2  0  0  0
 45117  1  0  0  0
 46118  1  0  0  0
 47119  1  0  0  0
 47120  1  0  0  0
 48 56  1  0  0  0
 48 65  1  0  0  0
 48121  1  0  0  0
 49 50  1  0  0  0
 49 53  1  0  0  0
 49 64  1  0  0  0
 49122  1  0  0  0
 50 51  1  0  0  0
 50123  1  0  0  0
 50124  1  0  0  0
 51 52  1  0  0  0
 51125  1  0  0  0
 51126  1  0  0  0
 52127  1  0  0  0
 52128  1  0  0  0
 53 54  1  0  0  0
 54 55  2  0  0  0
 54129  1  0  0  0
 55 57  1  0  0  0
 55130  1  0  0  0
 56 69  2  0  0  0
 57 58  2  0  0  0
 57131  1  0  0  0
 58132  1  0  0  0
 59 60  1  0  0  0
 59 61  1  0  0  0
 59 62  1  0  0  0
 60133  1  0  0  0
 60134  1  0  0  0
 60135  1  0  0  0
 61136  1  0  0  0
 61137  1  0  0  0
 61138  1  0  0  0
 62139  1  0  0  0
 62140  1  0  0  0
 62141  1  0  0  0
 63 65  1  0  0  0
 63142  1  0  0  0
 63143  1  0  0  0
 63144  1  0  0  0
 64145  1  0  0  0
 65146  1  0  0  0
 68 84  1  0  0  0
 71 72  2  0  0  0
 71 74  1  0  0  0
 71147  1  0  0  0
 72 85  1  0  0  0
 72148  1  0  0  0
 73 74  2  0  0  0
 73 75  1  0  0  0
 73 80  1  0  0  0
 74 86  1  0  0  0
 75 82  1  0  0  0
 75 85  2  0  0  0
 76 78  1  0  0  0
 76 80  1  0  0  0
 76149  1  0  0  0
 76150  1  0  0  0
 77 79  1  0  0  0
 77 80  1  0  0  0
 77151  1  0  0  0
 77152  1  0  0  0
 78 87  1  0  0  0
 78153  1  0  0  0
 78154  1  0  0  0
 79 87  1  0  0  0
 79155  1  0  0  0
 79156  1  0  0  0
 80157  1  0  0  0
 81 82  1  0  0  0
 81158  1  0  0  0
 81159  1  0  0  0
 81160  1  0  0  0
 82161  1  0  0  0
 82162  1  0  0  0
 83 84  1  0  0  0
 83163  1  0  0  0
 83164  1  0  0  0
 83 87  1  0  0  0
 84165  1  0  0  0
 84166  1  0  0  0
 86167  1  0  0  0
 87168  1  0  0  0
M  CHG  1  87   1
M  ISO  4   1 100  68 101  84 101  86 100
M  END
> <chiral flag>
0

> <version>
0

> <s_m_source_file>
/data/baiqing/PycharmProjects/Reinvent-master-3.2/result/LINK_invent/BTK/process_docking_weight1_custom_sum_contain_oxygen_bond_distance_aromatic_linkinvent_7_9_3/rearranged_h_0123.sdf

> <i_m_source_file_index>
28

> <r_mmod_Potential_Energy-OPLS-2005>
11729.6953125

> <r_mmod_Stretch_Energy-OPLS-2005>
5930.63037109375

> <r_mmod_Bend_Energy-OPLS-2005>
1203.06811523438

> <r_mmod_Torsional_Energy-OPLS-2005>
644.94091796875

> <r_mmod_Improper_Torsional_Energy-OPLS-2005>
48.6683502197266

> <r_mmod_Van_der_Waal_Energy-OPLS-2005>
2948.78295898438

> <r_mmod_Electrostatic_Energy-OPLS-2005>
-320.952606201172

> <r_mmod_Solvation_Energy-OPLS-2005>
-463.863342285156

> <b_mmod_Minimization_Converged-OPLS-2005>
0

> <r_mmod_RMS_Derivative-OPLS-2005>
2.49697732925415

$$$$
28
                    3D
 Structure written by MMmdl.
164173  0  0  1  0            999 V2000
  -30.7893  -14.3544   20.7199 C   0  0  0  0  0  0
  -30.4132  -12.2990   19.4002 C   0  0  0  0  0  0
  -29.4867  -12.5509   18.1974 C   0  0  0  0  0  0
  -28.0169  -12.3729   18.6159 C   0  0  0  0  0  0
  -27.6672  -13.2007   19.8795 C   0  0  2  0  0  0
  -28.7031  -12.9573   21.0010 C   0  0  0  0  0  0
  -25.2626  -13.8142   20.5658 C   0  0  0  0  0  0
  -24.1854  -13.0409   20.9143 C   0  0  0  0  0  0
  -24.6402  -11.6892   20.8709 C   0  0  0  0  0  0
  -23.9061  -10.4284   21.0391 C   0  0  0  0  0  0
  -24.3613   -9.4209   21.9173 C   0  0  0  0  0  0
  -23.6288   -8.2245   22.0760 C   0  0  0  0  0  0
  -22.4269   -8.0277   21.3543 C   0  0  0  0  0  0
  -21.9904   -9.0249   20.4639 C   0  0  0  0  0  0
  -22.7238  -10.2127   20.3036 C   0  0  0  0  0  0
  -21.6853   -6.0724   22.5274 C   0  0  0  0  0  0
  -21.4023   -6.5634   23.8206 C   0  0  0  0  0  0
  -21.3663   -5.6785   24.9171 C   0  0  0  0  0  0
  -21.6047   -4.3044   24.7228 C   0  0  0  0  0  0
  -21.8823   -3.8146   23.4345 C   0  0  0  0  0  0
  -21.9197   -4.6957   22.3401 C   0  0  0  0  0  0
  -22.7891  -13.5235   21.1826 C   0  0  0  0  0  0
  -22.1661   -4.2146   21.0977 F   0  0  0  0  0  0
  -21.5630   -3.4532   25.7742 F   0  0  0  0  0  0
  -30.0484  -13.2438   20.4668 N   0  0  0  0  0  0
  -26.3054  -12.9301   20.3359 N   0  0  0  0  0  0
  -25.9321  -11.6464   20.5726 N   0  0  0  0  0  0
  -22.0550  -12.8210   22.0394 N   0  0  0  0  0  0
  -25.4369  -15.1857   20.4130 N   0  0  0  0  0  0
  -31.8048  -14.6473   20.0814 O   0  0  0  0  0  0
  -21.6634   -6.8868   21.4231 O   0  0  0  0  0  0
  -22.3573  -14.5543   20.6701 O   0  0  0  0  0  0
  -24.6176  -31.8683   23.2163 C   0  0  0  0  0  0
  -25.9077  -32.4774   23.8478 C   0  0  1  0  0  0
  -27.2064  -27.4132   20.0846 C   0  0  0  0  0  0
  -25.5988  -33.8605   24.2370 N   0  0  0  0  0  0
  -23.4057  -30.4992   21.5572 C   0  0  2  0  0  0
  -24.8441  -28.9763   20.1076 C   0  0  0  0  0  0
  -22.7436  -29.4683   22.5004 C   0  0  0  0  0  0
  -18.0294  -28.1348   22.8498 C   0  0  0  0  0  0
  -24.1462  -36.7287   23.2643 C   0  0  0  0  0  0
  -25.9434  -30.8190   21.3873 C   0  0  0  0  0  0
  -26.0116  -29.4630   20.7124 C   0  0  0  0  0  0
  -27.1988  -28.6885   20.6982 C   0  0  0  0  0  0
  -26.0280  -26.9702   19.4390 C   0  0  0  0  0  0
  -24.8484  -27.7303   19.4688 C   0  0  0  0  0  0
  -23.6105  -29.8469   20.1674 C   0  0  0  0  0  0
  -25.4086  -36.3064   24.0329 C   0  0  1  0  0  0
  -20.5896  -28.3674   23.1285 C   0  0  2  0  0  0
  -20.6772  -26.9408   22.5385 C   0  0  0  0  0  0
  -19.5744  -26.6354   21.5186 C   0  0  0  0  0  0
  -18.1921  -26.7910   22.1584 C   0  0  0  0  0  0
  -19.1541  -28.8834   23.2872 C   0  0  0  0  0  0
  -18.9479  -30.1462   23.8833 C   0  0  0  0  0  0
  -17.6465  -30.6567   24.0548 C   0  0  0  0  0  0
  -25.9026  -34.9440   23.5113 C   0  0  0  0  0  0
  -16.5355  -29.9012   23.6397 C   0  0  0  0  0  0
  -16.7275  -28.6436   23.0412 C   0  0  0  0  0  0
  -26.4446  -31.6622   25.0885 C   0  0  0  0  0  0
  -25.3669  -31.3761   26.1590 C   0  0  0  0  0  0
  -27.0366  -30.3069   24.6427 C   0  0  0  0  0  0
  -27.5996  -32.4398   25.7638 C   0  0  0  0  0  0
  -27.5551  -37.1766   24.8477 C   0  0  0  0  0  0
  -21.4175  -29.3032   22.3686 N   0  0  0  0  0  0
  -26.4260  -37.3762   23.9415 N   0  0  0  0  0  0
  -24.6729  -31.0799   22.1079 N   0  0  0  0  0  0
  -23.4204  -28.8220   23.3042 O   0  0  0  0  0  0
  -28.3076  -26.5780   20.1838 O   0  0  0  0  0  0
  -26.5510  -34.8860   22.4632 O   0  0  0  0  0  0
  -23.5361  -32.1508   23.7504 O   0  0  0  0  0  0
  -28.6193  -19.5274   21.7631 C   0  0  0  0  0  0
  -29.2339  -18.3540   22.1015 C   0  0  0  0  0  0
  -30.7698  -19.7089   21.2145 C   0  0  0  0  0  0
  -29.5821  -20.3975   21.1545 C   0  0  0  0  0  0
  -27.0215  -23.8809   22.6110 C   0  0  0  0  0  0
  -27.3567  -25.2767   22.0549 C   0  0  0  0  0  0
  -27.4608  -22.7387   21.6832 C   0  0  0  0  0  0
  -29.1740  -24.2387   20.6251 C   0  0  0  0  0  0
  -27.9817  -25.2333   20.6393 C   0  0  2  0  0  0
  -29.3750  -21.7448   20.4435 C   0  0  0  0  0  0
  -31.5590  -17.3613   21.7199 C   0  0  0  0  0  0
  -31.1928  -16.0738   22.5107 C   0  0  0  0  0  0
  -30.5548  -18.4294   21.7079 N   0  0  0  0  0  0
  -30.3976  -15.0685   21.7875 N   0  0  0  0  0  0
  -28.8790  -22.8949   21.2579 N   0  3  2  0  0  0
  -31.4597  -12.3888   19.1033 H   0  0  0  0  0  0
  -30.2961  -11.2737   19.7568 H   0  0  0  0  0  0
  -29.7316  -11.8772   17.3754 H   0  0  0  0  0  0
  -29.6436  -13.5640   17.8233 H   0  0  0  0  0  0
  -27.8539  -11.3121   18.8127 H   0  0  0  0  0  0
  -27.3533  -12.6380   17.7924 H   0  0  0  0  0  0
  -27.7212  -14.2516   19.5978 H   0  0  0  0  0  0
  -28.6648  -11.9191   21.3360 H   0  0  0  0  0  0
  -28.4413  -13.5521   21.8758 H   0  0  0  0  0  0
  -25.2759   -9.5688   22.4740 H   0  0  0  0  0  0
  -23.9998   -7.4647   22.7490 H   0  0  0  0  0  0
  -21.0835   -8.8765   19.8947 H   0  0  0  0  0  0
  -22.3698  -10.9658   19.6136 H   0  0  0  0  0  0
  -21.2017   -7.6145   23.9711 H   0  0  0  0  0  0
  -21.1478   -6.0515   25.9072 H   0  0  0  0  0  0
  -22.0602   -2.7613   23.2847 H   0  0  0  0  0  0
  -22.4166  -11.9840   22.4713 H   0  0  0  0  0  0
  -21.1188  -13.1249   22.2660 H   0  0  0  0  0  0
  -24.6770  -15.8476   20.5297 H   0  0  0  0  0  0
  -26.3073  -15.6268   20.1416 H   0  0  0  0  0  0
  -26.7186  -32.5388   23.1263 H   0  0  0  0  0  0
  -25.0412  -33.9831   25.0685 H   0  0  0  0  0  0
  -22.6962  -31.3208   21.4291 H   0  0  0  0  0  0
  -23.3734  -35.9615   23.3296 H   0  0  0  0  0  0
  -24.3577  -36.8935   22.2069 H   0  0  0  0  0  0
  -23.7205  -37.6482   23.6688 H   0  0  0  0  0  0
  -26.0985  -31.5948   20.6374 H   0  0  0  0  0  0
  -26.8122  -30.8412   22.0315 H   0  0  0  0  0  0
  -28.0895  -29.0444   21.1984 H   0  0  0  0  0  0
  -25.9803  -26.0293   18.9129 H   0  0  0  0  0  0
  -23.9510  -27.3620   18.9907 H   0  0  0  0  0  0
  -23.7217  -30.6295   19.4147 H   0  0  0  0  0  0
  -22.7290  -29.2761   19.8703 H   0  0  0  0  0  0
  -25.1246  -36.1919   25.0828 H   0  0  0  0  0  0
  -20.9995  -28.3226   24.1414 H   0  0  0  0  0  0
  -20.5772  -26.2273   23.3579 H   0  0  0  0  0  0
  -21.6631  -26.7477   22.1133 H   0  0  0  0  0  0
  -19.6911  -25.6264   21.1248 H   0  0  0  0  0  0
  -19.6663  -27.3107   20.6675 H   0  0  0  0  0  0
  -17.4234  -26.6774   21.3929 H   0  0  0  0  0  0
  -18.0252  -26.0007   22.8924 H   0  0  0  0  0  0
  -19.7956  -30.7322   24.2119 H   0  0  0  0  0  0
  -17.5019  -31.6233   24.5150 H   0  0  0  0  0  0
  -15.5358  -30.2847   23.7814 H   0  0  0  0  0  0
  -15.8691  -28.0707   22.7183 H   0  0  0  0  0  0
  -24.5783  -30.7182   25.7901 H   0  0  0  0  0  0
  -24.8907  -32.2946   26.5057 H   0  0  0  0  0  0
  -25.7955  -30.8887   27.0360 H   0  0  0  0  0  0
  -26.2949  -29.6597   24.1741 H   0  0  0  0  0  0
  -27.4373  -29.7550   25.4943 H   0  0  0  0  0  0
  -27.8656  -30.4374   23.9475 H   0  0  0  0  0  0
  -27.2636  -33.3742   26.2147 H   0  0  0  0  0  0
  -28.3828  -32.6897   25.0469 H   0  0  0  0  0  0
  -28.0647  -31.8618   26.5622 H   0  0  0  0  0  0
  -28.2533  -38.0081   24.7556 H   0  0  0  0  0  0
  -28.1070  -36.2628   24.6264 H   0  0  0  0  0  0
  -27.2314  -37.1380   25.8888 H   0  0  0  0  0  0
  -20.9374  -29.8750   21.6893 H   0  0  0  0  0  0
  -26.0142  -38.2843   24.1444 H   0  0  0  0  0  0
  -27.5572  -19.6862   21.8962 H   0  0  0  0  0  0
  -28.8267  -17.4527   22.5406 H   0  0  0  0  0  0
  -31.7534  -19.9880   20.8598 H   0  0  0  0  0  0
  -25.9486  -23.7981   22.7979 H   0  0  0  0  0  0
  -27.4958  -23.7572   23.5837 H   0  0  0  0  0  0
  -28.0485  -25.7754   22.7350 H   0  0  0  0  0  0
  -26.4514  -25.8835   22.0635 H   0  0  0  0  0  0
  -26.8147  -22.6888   20.8029 H   0  0  0  0  0  0
  -27.3133  -21.8091   22.2270 H   0  0  0  0  0  0
  -30.0255  -24.6833   21.1414 H   0  0  0  0  0  0
  -29.4746  -24.1115   19.5838 H   0  0  0  0  0  0
  -27.2631  -24.7911   19.9520 H   0  0  0  0  0  0
  -28.7171  -21.5850   19.5885 H   0  0  0  0  0  0
  -30.3448  -22.0184   20.0262 H   0  0  0  0  0  0
  -31.8077  -17.1249   20.6850 H   0  0  0  0  0  0
  -32.4752  -17.7752   22.1449 H   0  0  0  0  0  0
  -30.6884  -16.3270   23.4444 H   0  0  0  0  0  0
  -32.1194  -15.5840   22.8122 H   0  0  0  0  0  0
  -29.5687  -14.7282   22.2538 H   0  0  0  0  0  0
  -29.4187  -22.8644   22.1090 H   0  0  0  0  0  0
  1 25  1  0  0  0
  1 30  2  0  0  0
  1 84  1  0  0  0
  2  3  1  0  0  0
  2 25  1  0  0  0
  2 86  1  0  0  0
  2 87  1  0  0  0
  3  4  1  0  0  0
  3 88  1  0  0  0
  3 89  1  0  0  0
  4  5  1  0  0  0
  4 90  1  0  0  0
  4 91  1  0  0  0
  5  6  1  0  0  0
  5 26  1  0  0  0
  5 92  1  0  0  0
  6 25  1  0  0  0
  6 93  1  0  0  0
  6 94  1  0  0  0
  7  8  2  0  0  0
  7 26  1  0  0  0
  7 29  1  0  0  0
  8  9  1  0  0  0
  8 22  1  0  0  0
  9 10  1  0  0  0
  9 27  2  0  0  0
 10 11  2  0  0  0
 10 15  1  0  0  0
 11 12  1  0  0  0
 11 95  1  0  0  0
 12 13  2  0  0  0
 12 96  1  0  0  0
 13 14  1  0  0  0
 13 31  1  0  0  0
 14 15  2  0  0  0
 14 97  1  0  0  0
 15 98  1  0  0  0
 16 17  2  0  0  0
 16 21  1  0  0  0
 16 31  1  0  0  0
 17 18  1  0  0  0
 17 99  1  0  0  0
 18 19  2  0  0  0
 18100  1  0  0  0
 19 20  1  0  0  0
 19 24  1  0  0  0
 20 21  2  0  0  0
 20101  1  0  0  0
 21 23  1  0  0  0
 22 28  1  0  0  0
 22 32  2  0  0  0
 26 27  1  0  0  0
 28102  1  0  0  0
 28103  1  0  0  0
 29104  1  0  0  0
 29105  1  0  0  0
 33 34  1  0  0  0
 33 66  1  0  0  0
 33 70  2  0  0  0
 34 36  1  0  0  0
 34 59  1  0  0  0
 34106  1  0  0  0
 35 44  2  0  0  0
 35 45  1  0  0  0
 35 68  1  0  0  0
 36 56  1  0  0  0
 36107  1  0  0  0
 37 39  1  0  0  0
 37 47  1  0  0  0
 37 66  1  0  0  0
 37108  1  0  0  0
 38 43  2  0  0  0
 38 46  1  0  0  0
 38 47  1  0  0  0
 39 64  1  0  0  0
 39 67  2  0  0  0
 40 52  1  0  0  0
 40 53  2  0  0  0
 40 58  1  0  0  0
 41109  1  0  0  0
 41110  1  0  0  0
 41111  1  0  0  0
 41 48  1  0  0  0
 42 43  1  0  0  0
 42 66  1  0  0  0
 42112  1  0  0  0
 42113  1  0  0  0
 43 44  1  0  0  0
 44114  1  0  0  0
 45 46  2  0  0  0
 45115  1  0  0  0
 46116  1  0  0  0
 47117  1  0  0  0
 47118  1  0  0  0
 48 56  1  0  0  0
 48 65  1  0  0  0
 48119  1  0  0  0
 49 50  1  0  0  0
 49 53  1  0  0  0
 49 64  1  0  0  0
 49120  1  0  0  0
 50 51  1  0  0  0
 50121  1  0  0  0
 50122  1  0  0  0
 51 52  1  0  0  0
 51123  1  0  0  0
 51124  1  0  0  0
 52125  1  0  0  0
 52126  1  0  0  0
 53 54  1  0  0  0
 54 55  2  0  0  0
 54127  1  0  0  0
 55 57  1  0  0  0
 55128  1  0  0  0
 56 69  2  0  0  0
 57 58  2  0  0  0
 57129  1  0  0  0
 58130  1  0  0  0
 59 60  1  0  0  0
 59 61  1  0  0  0
 59 62  1  0  0  0
 60131  1  0  0  0
 60132  1  0  0  0
 60133  1  0  0  0
 61134  1  0  0  0
 61135  1  0  0  0
 61136  1  0  0  0
 62137  1  0  0  0
 62138  1  0  0  0
 62139  1  0  0  0
 63 65  1  0  0  0
 63140  1  0  0  0
 63141  1  0  0  0
 63142  1  0  0  0
 64143  1  0  0  0
 65144  1  0  0  0
 68 79  1  0  0  0
 71 72  2  0  0  0
 71 74  1  0  0  0
 71145  1  0  0  0
 72 83  1  0  0  0
 72146  1  0  0  0
 73 74  2  0  0  0
 73 83  1  0  0  0
 73147  1  0  0  0
 74 80  1  0  0  0
 75 76  1  0  0  0
 75 77  1  0  0  0
 75148  1  0  0  0
 75149  1  0  0  0
 76 79  1  0  0  0
 76150  1  0  0  0
 76151  1  0  0  0
 77 85  1  0  0  0
 77152  1  0  0  0
 77153  1  0  0  0
 78 79  1  0  0  0
 78 85  1  0  0  0
 78154  1  0  0  0
 78155  1  0  0  0
 79156  1  0  0  0
 80157  1  0  0  0
 80158  1  0  0  0
 80 85  1  0  0  0
 81 82  1  0  0  0
 81 83  1  0  0  0
 81159  1  0  0  0
 81160  1  0  0  0
 82 84  1  0  0  0
 82161  1  0  0  0
 82162  1  0  0  0
 84163  1  0  0  0
 85164  1  0  0  0
M  CHG  1  85   1
M  ISO  4   1 100  68 101  79 101  84 100
M  END
> <chiral flag>
0

> <version>
0

> <s_m_source_file>
/data/baiqing/PycharmProjects/Reinvent-master-3.2/result/LINK_invent/BTK/process_docking_weight1_custom_sum_contain_oxygen_bond_distance_aromatic_linkinvent_7_9_3/rearranged_h_0123.sdf

> <i_m_source_file_index>
29

> <r_mmod_Potential_Energy-OPLS-2005>
-96.8432693481445

> <r_mmod_Stretch_Energy-OPLS-2005>
42.4600944519043

> <r_mmod_Bend_Energy-OPLS-2005>
108.174629211426

> <r_mmod_Torsional_Energy-OPLS-2005>
270.897674560547

> <r_mmod_Improper_Torsional_Energy-OPLS-2005>
3.62993597984314

> <r_mmod_Van_der_Waal_Energy-OPLS-2005>
150.0771484375

> <r_mmod_Electrostatic_Energy-OPLS-2005>
-278.107086181641

> <r_mmod_Solvation_Energy-OPLS-2005>
-411.864868164062

> <b_mmod_Minimization_Converged-OPLS-2005>
0

> <r_mmod_RMS_Derivative-OPLS-2005>
4.67733907699585

$$$$
29
                    3D
 Structure written by MMmdl.
159168  0  0  1  0            999 V2000
  -31.4547  -15.2786   21.1314 C   0  0  0  0  0  0
  -30.8816  -14.0764   18.9272 C   0  0  0  0  0  0
  -29.5161  -13.5027   17.3943 C   0  0  0  0  0  0
  -27.4824  -13.5560   17.9219 C   0  0  0  0  0  0
  -26.9211  -14.3198   19.7968 C   0  0  2  0  0  0
  -28.3793  -15.1612   21.5505 C   0  0  0  0  0  0
  -24.8802  -14.0210   20.8266 C   0  0  0  0  0  0
  -23.9724  -13.0649   21.0307 C   0  0  0  0  0  0
  -24.5934  -11.7892   20.8465 C   0  0  0  0  0  0
  -23.9465  -10.4564   20.9842 C   0  0  0  0  0  0
  -24.3951   -9.4562   21.8824 C   0  0  0  0  0  0
  -23.6606   -8.2556   22.0605 C   0  0  0  0  0  0
  -22.4557   -8.0408   21.3470 C   0  0  0  0  0  0
  -22.0202   -9.0271   20.4462 C   0  0  0  0  0  0
  -22.7546  -10.2129   20.2659 C   0  0  0  0  0  0
  -21.7007   -6.0833   22.5296 C   0  0  0  0  0  0
  -21.4128   -6.5704   23.8232 C   0  0  0  0  0  0
  -21.3718   -5.6831   24.9180 C   0  0  0  0  0  0
  -21.6043   -4.3087   24.7214 C   0  0  0  0  0  0
  -21.8798   -3.8193   23.4326 C   0  0  0  0  0  0
  -21.9237   -4.7034   22.3400 C   0  0  0  0  0  0
  -22.5629  -13.4289   21.2629 C   0  0  0  0  0  0
  -22.1671   -4.2210   21.0974 F   0  0  0  0  0  0
  -21.5613   -3.4557   25.7717 F   0  0  0  0  0  0
  -30.3335  -14.9486   20.6377 N   0  0  0  0  0  0
  -25.9373  -13.3943   20.3412 N   0  0  0  0  0  0
  -25.8585  -11.9988   20.4204 N   0  0  0  0  0  0
  -21.8821  -12.6950   22.1200 N   0  0  0  0  0  0
  -24.8553  -15.4131   20.9305 N   0  0  0  0  0  0
  -32.4829  -14.7973   20.6843 O   0  0  0  0  0  0
  -21.6861   -6.9011   21.4270 O   0  0  0  0  0  0
  -22.0975  -14.4369   20.7285 O   0  0  0  0  0  0
  -24.7703  -31.6852   23.0788 C   0  0  0  0  0  0
  -25.9835  -32.3919   23.7654 C   0  0  1  0  0  0
  -27.0998  -25.7446   20.1929 C   0  0  0  0  0  0
  -25.6028  -33.7804   24.1425 N   0  0  0  0  0  0
  -23.6215  -30.2579   21.4616 C   0  0  2  0  0  0
  -25.0386  -28.4014   20.1285 C   0  0  0  0  0  0
  -22.8086  -29.3729   22.4514 C   0  0  0  0  0  0
  -18.0379  -28.1460   22.8412 C   0  0  0  0  0  0
  -24.1500  -36.6919   23.2678 C   0  0  0  0  0  0
  -26.2214  -30.0845   21.4798 C   0  0  0  0  0  0
  -26.2397  -28.5490   20.8260 C   0  0  0  0  0  0
  -27.2197  -27.2817   20.8043 C   0  0  0  0  0  0
  -25.8970  -26.0617   19.4353 C   0  0  0  0  0  0
  -24.9613  -27.1892   19.4091 C   0  0  0  0  0  0
  -23.9038  -29.4848   20.1284 C   0  0  0  0  0  0
  -25.4184  -36.2586   24.0219 C   0  0  1  0  0  0
  -20.6040  -28.3836   23.1015 C   0  0  2  0  0  0
  -20.6795  -26.9425   22.5431 C   0  0  0  0  0  0
  -19.5794  -26.6337   21.5230 C   0  0  0  0  0  0
  -18.1973  -26.7970   22.1599 C   0  0  0  0  0  0
  -19.1662  -28.8995   23.2664 C   0  0  0  0  0  0
  -18.9558  -30.1558   23.8747 C   0  0  0  0  0  0
  -17.6541  -30.6624   24.0535 C   0  0  0  0  0  0
  -25.9219  -34.8997   23.4736 C   0  0  0  0  0  0
  -16.5424  -29.9096   23.6365 C   0  0  0  0  0  0
  -16.7354  -28.6520   23.0379 C   0  0  0  0  0  0
  -26.4737  -31.6377   25.0646 C   0  0  0  0  0  0
  -25.3575  -31.3921   26.1091 C   0  0  0  0  0  0
  -27.0819  -30.2650   24.7182 C   0  0  0  0  0  0
  -27.6015  -32.4468   25.7487 C   0  0  0  0  0  0
  -27.5542  -37.1606   24.8462 C   0  0  0  0  0  0
  -21.4670  -29.2908   22.3248 N   0  0  0  0  0  0
  -26.4232  -37.3448   23.9414 N   0  0  0  0  0  0
  -24.9117  -30.7339   22.0576 N   0  0  0  0  0  0
  -23.4131  -28.7480   23.3246 O   0  0  0  0  0  0
  -27.8829  -24.1040   20.0299 O   0  0  0  0  0  0
  -26.6001  -34.8759   22.4452 O   0  0  0  0  0  0
  -23.6555  -32.0385   23.5176 O   0  0  0  0  0  0
  -28.0141  -20.3533   19.6185 C   0  0  0  0  0  0
  -29.1505  -20.5829   21.7686 C   0  0  0  0  0  0
  -28.5195  -18.5910   20.0733 C   0  0  0  0  0  0
  -29.1613  -19.1614   21.3021 C   0  0  0  0  0  0
  -28.0141  -22.1528   20.1934 C   0  0  0  0  0  0
  -29.7998  -12.2656   20.5664 C   0  0  0  0  0  0
  -28.9799  -12.9005   19.5407 C   0  0  0  0  0  0
  -28.8031  -13.3282   20.5256 C   0  0  0  0  0  0
  -28.8734  -15.2857   18.7400 C   0  0  0  0  0  0
  -28.5317  -16.2611   19.6544 C   0  0  0  0  0  0
  -30.0050  -18.4655   22.4259 C   0  0  0  0  0  0
  -30.5651  -17.0388   22.6097 C   0  0  0  0  0  0
  -28.6818  -21.8392   21.3456 N   0  0  0  0  0  0
  -31.4452  -16.5383   21.5694 N   0  0  0  0  0  0
  -31.5413  -14.7952   18.4350 H   0  0  0  0  0  0
  -31.6024  -13.2654   19.0500 H   0  0  0  0  0  0
  -29.7849  -12.5357   16.9607 H   0  0  0  0  0  0
  -29.6632  -14.1699   16.5433 H   0  0  0  0  0  0
  -26.9991  -12.5926   17.7407 H   0  0  0  0  0  0
  -26.9556  -14.1381   17.1619 H   0  0  0  0  0  0
  -26.3353  -15.0738   19.2790 H   0  0  0  0  0  0
  -28.2682  -14.6642   22.5231 H   0  0  0  0  0  0
  -28.0868  -16.1623   21.8915 H   0  0  0  0  0  0
  -25.2965   -9.6232   22.4554 H   0  0  0  0  0  0
  -24.0296   -7.5087   22.7494 H   0  0  0  0  0  0
  -21.1087   -8.8738   19.8848 H   0  0  0  0  0  0
  -22.3799  -10.9594   19.5795 H   0  0  0  0  0  0
  -21.2150   -7.6216   23.9764 H   0  0  0  0  0  0
  -21.1558   -6.0551   25.9093 H   0  0  0  0  0  0
  -22.0505   -2.7647   23.2806 H   0  0  0  0  0  0
  -22.3001  -11.8935   22.5690 H   0  0  0  0  0  0
  -20.9230  -12.9300   22.3310 H   0  0  0  0  0  0
  -24.0063  -15.9055   21.1875 H   0  0  0  0  0  0
  -25.6283  -16.0346   20.7328 H   0  0  0  0  0  0
  -26.8037  -32.4240   23.0462 H   0  0  0  0  0  0
  -24.9906  -33.8686   24.9401 H   0  0  0  0  0  0
  -23.0022  -31.1212   21.2084 H   0  0  0  0  0  0
  -23.3816  -35.9187   23.3185 H   0  0  0  0  0  0
  -24.3542  -36.8794   22.2127 H   0  0  0  0  0  0
  -23.7213  -37.5995   23.6932 H   0  0  0  0  0  0
  -26.5407  -30.7522   20.6784 H   0  0  0  0  0  0
  -27.0394  -30.1413   22.1821 H   0  0  0  0  0  0
  -28.1294  -27.4377   21.3664 H   0  0  0  0  0  0
  -25.5787  -25.2428   18.8054 H   0  0  0  0  0  0
  -24.0869  -27.0572   18.7860 H   0  0  0  0  0  0
  -24.1671  -30.2110   19.3592 H   0  0  0  0  0  0
  -22.9818  -29.0197   19.7763 H   0  0  0  0  0  0
  -25.1438  -36.1216   25.0703 H   0  0  0  0  0  0
  -21.0081  -28.3524   24.1161 H   0  0  0  0  0  0
  -20.5581  -26.2487   23.3762 H   0  0  0  0  0  0
  -21.6652  -26.7243   22.1304 H   0  0  0  0  0  0
  -19.6936  -25.6209   21.1360 H   0  0  0  0  0  0
  -19.6773  -27.3065   20.6700 H   0  0  0  0  0  0
  -17.4253  -26.6729   21.3989 H   0  0  0  0  0  0
  -18.0319  -26.0147   22.9021 H   0  0  0  0  0  0
  -19.8038  -30.7403   24.2055 H   0  0  0  0  0  0
  -17.5095  -31.6286   24.5171 H   0  0  0  0  0  0
  -15.5421  -30.2956   23.7781 H   0  0  0  0  0  0
  -15.8749  -28.0797   22.7179 H   0  0  0  0  0  0
  -24.5845  -30.7199   25.7346 H   0  0  0  0  0  0
  -24.8685  -32.3204   26.4048 H   0  0  0  0  0  0
  -25.7548  -30.9372   27.0173 H   0  0  0  0  0  0
  -26.3630  -29.5921   24.2508 H   0  0  0  0  0  0
  -27.4218  -29.7542   25.6202 H   0  0  0  0  0  0
  -27.9623  -30.3608   24.0830 H   0  0  0  0  0  0
  -27.2453  -33.3956   26.1505 H   0  0  0  0  0  0
  -28.4078  -32.6729   25.0498 H   0  0  0  0  0  0
  -28.0403  -31.8999   26.5841 H   0  0  0  0  0  0
  -28.2450  -37.9999   24.7545 H   0  0  0  0  0  0
  -28.1143  -36.2511   24.6242 H   0  0  0  0  0  0
  -27.2257  -37.1159   25.8859 H   0  0  0  0  0  0
  -21.0182  -29.8430   21.6072 H   0  0  0  0  0  0
  -25.9978  -38.2448   24.1457 H   0  0  0  0  0  0
  -27.5556  -20.3239   18.6381 H   0  0  0  0  0  0
  -29.6642  -20.7850   22.6972 H   0  0  0  0  0  0
  -30.8483  -12.4907   20.7838 H   0  0  0  0  0  0
  -29.4411  -11.2914   20.9197 H   0  0  0  0  0  0
  -28.2998  -12.0038   19.1619 H   0  0  0  0  0  0
  -29.6199  -12.1271   18.9985 H   0  0  0  0  0  0
  -29.2446  -13.2088   21.5900 H   0  0  0  0  0  0
  -27.9924  -12.9360   21.2777 H   0  0  0  0  0  0
  -28.3045  -15.6021   17.8553 H   0  0  0  0  0  0
  -29.7238  -15.8307   18.3153 H   0  0  0  0  0  0
  -27.5230  -16.5431   19.3733 H   0  0  0  0  0  0
  -29.4760  -18.6651   23.3603 H   0  0  0  0  0  0
  -30.9164  -19.0662   22.4815 H   0  0  0  0  0  0
  -31.2358  -17.1183   23.4667 H   0  0  0  0  0  0
  -29.8591  -16.3289   23.0168 H   0  0  0  0  0  0
  -32.3436  -16.9966   21.5188 H   0  0  0  0  0  0
  1 25  1  0  0  0
  1 30  2  0  0  0
  1 84  1  0  0  0
  2  3  1  0  0  0
  2 25  1  0  0  0
  2 85  1  0  0  0
  2 86  1  0  0  0
  3  4  1  0  0  0
  3 87  1  0  0  0
  3 88  1  0  0  0
  4  5  1  0  0  0
  4 89  1  0  0  0
  4 90  1  0  0  0
  5  6  1  0  0  0
  5 26  1  0  0  0
  5 91  1  0  0  0
  6 25  1  0  0  0
  6 92  1  0  0  0
  6 93  1  0  0  0
  7  8  2  0  0  0
  7 26  1  0  0  0
  7 29  1  0  0  0
  8  9  1  0  0  0
  8 22  1  0  0  0
  9 10  1  0  0  0
  9 27  2  0  0  0
 10 11  2  0  0  0
 10 15  1  0  0  0
 11 12  1  0  0  0
 11 94  1  0  0  0
 12 13  2  0  0  0
 12 95  1  0  0  0
 13 14  1  0  0  0
 13 31  1  0  0  0
 14 15  2  0  0  0
 14 96  1  0  0  0
 15 97  1  0  0  0
 16 17  2  0  0  0
 16 21  1  0  0  0
 16 31  1  0  0  0
 17 18  1  0  0  0
 17 98  1  0  0  0
 18 19  2  0  0  0
 18 99  1  0  0  0
 19 20  1  0  0  0
 19 24  1  0  0  0
 20 21  2  0  0  0
 20100  1  0  0  0
 21 23  1  0  0  0
 22 28  1  0  0  0
 22 32  2  0  0  0
 26 27  1  0  0  0
 28101  1  0  0  0
 28102  1  0  0  0
 29103  1  0  0  0
 29104  1  0  0  0
 33 34  1  0  0  0
 33 66  1  0  0  0
 33 70  2  0  0  0
 34 36  1  0  0  0
 34 59  1  0  0  0
 34105  1  0  0  0
 35 44  2  0  0  0
 35 45  1  0  0  0
 35 68  1  0  0  0
 36 56  1  0  0  0
 36106  1  0  0  0
 37 39  1  0  0  0
 37 47  1  0  0  0
 37 66  1  0  0  0
 37107  1  0  0  0
 38 43  2  0  0  0
 38 46  1  0  0  0
 38 47  1  0  0  0
 39 64  1  0  0  0
 39 67  2  0  0  0
 40 52  1  0  0  0
 40 53  2  0  0  0
 40 58  1  0  0  0
 41108  1  0  0  0
 41109  1  0  0  0
 41110  1  0  0  0
 41 48  1  0  0  0
 42 43  1  0  0  0
 42 66  1  0  0  0
 42111  1  0  0  0
 42112  1  0  0  0
 43 44  1  0  0  0
 44113  1  0  0  0
 45 46  2  0  0  0
 45114  1  0  0  0
 46115  1  0  0  0
 47116  1  0  0  0
 47117  1  0  0  0
 48 56  1  0  0  0
 48 65  1  0  0  0
 48118  1  0  0  0
 49 50  1  0  0  0
 49 53  1  0  0  0
 49 64  1  0  0  0
 49119  1  0  0  0
 50 51  1  0  0  0
 50120  1  0  0  0
 50121  1  0  0  0
 51 52  1  0  0  0
 51122  1  0  0  0
 51123  1  0  0  0
 52124  1  0  0  0
 52125  1  0  0  0
 53 54  1  0  0  0
 54 55  2  0  0  0
 54126  1  0  0  0
 55 57  1  0  0  0
 55127  1  0  0  0
 56 69  2  0  0  0
 57 58  2  0  0  0
 57128  1  0  0  0
 58129  1  0  0  0
 59 60  1  0  0  0
 59 61  1  0  0  0
 59 62  1  0  0  0
 60130  1  0  0  0
 60131  1  0  0  0
 60132  1  0  0  0
 61133  1  0  0  0
 61134  1  0  0  0
 61135  1  0  0  0
 62136  1  0  0  0
 62137  1  0  0  0
 62138  1  0  0  0
 63 65  1  0  0  0
 63139  1  0  0  0
 63140  1  0  0  0
 63141  1  0  0  0
 64142  1  0  0  0
 65143  1  0  0  0
 68 75  1  0  0  0
 71 73  2  0  0  0
 71 75  1  0  0  0
 71144  1  0  0  0
 72 74  2  0  0  0
 72 83  1  0  0  0
 72145  1  0  0  0
 73 74  1  0  0  0
 73 80  1  0  0  0
 74 81  1  0  0  0
 75 83  2  0  0  0
 76 77  1  0  0  0
 76 78  1  0  0  0
 76146  1  0  0  0
 76147  1  0  0  0
 77 79  1  0  0  0
 77148  1  0  0  0
 77149  1  0  0  0
 78 80  1  0  0  0
 78150  1  0  0  0
 78151  1  0  0  0
 79 80  1  0  0  0
 79152  1  0  0  0
 79153  1  0  0  0
 80154  1  0  0  0
 81 82  1  0  0  0
 81155  1  0  0  0
 81156  1  0  0  0
 82 84  1  0  0  0
 82157  1  0  0  0
 82158  1  0  0  0
 84159  1  0  0  0
M  ISO  4   1 100  68 101  75 101  84 100
M  END
> <chiral flag>
0

> <version>
0

> <s_m_source_file>
/data/baiqing/PycharmProjects/Reinvent-master-3.2/result/LINK_invent/BTK/process_docking_weight1_custom_sum_contain_oxygen_bond_distance_aromatic_linkinvent_7_9_3/rearranged_h_0123.sdf

> <i_m_source_file_index>
30

> <r_mmod_Potential_Energy-OPLS-2005>
19522.345703125

> <r_mmod_Stretch_Energy-OPLS-2005>
10431.123046875

> <r_mmod_Bend_Energy-OPLS-2005>
2590.427734375

> <r_mmod_Torsional_Energy-OPLS-2005>
386.981658935547

> <r_mmod_Improper_Torsional_Energy-OPLS-2005>
31.1394138336182

> <r_mmod_Van_der_Waal_Energy-OPLS-2005>
3000.11181640625

> <r_mmod_Electrostatic_Energy-OPLS-2005>
-524.292419433594

> <r_mmod_Solvation_Energy-OPLS-2005>
-218.920562744141

> <b_mmod_Minimization_Converged-OPLS-2005>
0

> <r_mmod_RMS_Derivative-OPLS-2005>
2.84952855110168

$$$$
30
                    3D
 Structure written by MMmdl.
175184  0  0  1  0            999 V2000
  -30.6970  -14.4767   20.5840 C   0  0  0  0  0  0
  -30.4418  -12.3102   19.4282 C   0  0  0  0  0  0
  -29.5094  -12.5225   18.2148 C   0  0  0  0  0  0
  -28.0296  -12.3705   18.6279 C   0  0  0  0  0  0
  -27.6685  -13.2040   19.8848 C   0  0  2  0  0  0
  -28.7105  -12.9604   20.9974 C   0  0  0  0  0  0
  -25.2602  -13.8153   20.5732 C   0  0  0  0  0  0
  -24.1815  -13.0416   20.9180 C   0  0  0  0  0  0
  -24.6396  -11.6890   20.8742 C   0  0  0  0  0  0
  -23.9086  -10.4266   21.0447 C   0  0  0  0  0  0
  -24.3634   -9.4163   21.9199 C   0  0  0  0  0  0
  -23.6298   -8.2200   22.0751 C   0  0  0  0  0  0
  -22.4269   -8.0268   21.3547 C   0  0  0  0  0  0
  -21.9930   -9.0251   20.4652 C   0  0  0  0  0  0
  -22.7279  -10.2116   20.3078 C   0  0  0  0  0  0
  -21.6831   -6.0727   22.5269 C   0  0  0  0  0  0
  -21.3985   -6.5625   23.8206 C   0  0  0  0  0  0
  -21.3664   -5.6797   24.9178 C   0  0  0  0  0  0
  -21.6050   -4.3064   24.7255 C   0  0  0  0  0  0
  -21.8812   -3.8141   23.4377 C   0  0  0  0  0  0
  -21.9183   -4.6950   22.3422 C   0  0  0  0  0  0
  -22.7814  -13.5203   21.1807 C   0  0  0  0  0  0
  -22.1624   -4.2119   21.0999 F   0  0  0  0  0  0
  -21.5677   -3.4563   25.7775 F   0  0  0  0  0  0
  -30.0437  -13.2842   20.4568 N   0  0  0  0  0  0
  -26.3055  -12.9318   20.3433 N   0  0  0  0  0  0
  -25.9320  -11.6483   20.5763 N   0  0  0  0  0  0
  -22.0447  -12.8214   22.0405 N   0  0  0  0  0  0
  -25.4333  -15.1863   20.4153 N   0  0  0  0  0  0
  -31.8121  -14.6765   20.0906 O   0  0  0  0  0  0
  -21.6612   -6.8866   21.4235 O   0  0  0  0  0  0
  -22.3481  -14.5480   20.6630 O   0  0  0  0  0  0
  -24.6109  -31.8660   23.2105 C   0  0  0  0  0  0
  -25.9004  -32.4811   23.8393 C   0  0  1  0  0  0
  -27.2440  -27.4341   20.0832 C   0  0  0  0  0  0
  -25.5861  -33.8613   24.2306 N   0  0  0  0  0  0
  -23.3992  -30.4872   21.5511 C   0  0  2  0  0  0
  -24.8472  -28.9509   20.1146 C   0  0  0  0  0  0
  -22.7371  -29.4642   22.5015 C   0  0  0  0  0  0
  -18.0251  -28.1356   22.8513 C   0  0  0  0  0  0
  -24.1487  -36.7333   23.2636 C   0  0  0  0  0  0
  -25.9261  -30.8302   21.3637 C   0  0  0  0  0  0
  -26.0054  -29.4636   20.7107 C   0  0  0  0  0  0
  -27.2007  -28.7076   20.7013 C   0  0  0  0  0  0
  -26.0599  -26.9281   19.5006 C   0  0  0  0  0  0
  -24.8683  -27.6794   19.5137 C   0  0  0  0  0  0
  -23.6049  -29.8139   20.1680 C   0  0  0  0  0  0
  -25.4114  -36.3111   24.0322 C   0  0  1  0  0  0
  -20.5841  -28.3634   23.1337 C   0  0  2  0  0  0
  -20.6721  -26.9372   22.5428 C   0  0  0  0  0  0
  -19.5702  -26.6368   21.5211 C   0  0  0  0  0  0
  -18.1889  -26.7909   22.1634 C   0  0  0  0  0  0
  -19.1506  -28.8812   23.2920 C   0  0  0  0  0  0
  -18.9431  -30.1425   23.8926 C   0  0  0  0  0  0
  -17.6438  -30.6570   24.0570 C   0  0  0  0  0  0
  -25.9035  -34.9468   23.5117 C   0  0  0  0  0  0
  -16.5327  -29.9078   23.6320 C   0  0  0  0  0  0
  -16.7247  -28.6482   23.0368 C   0  0  0  0  0  0
  -26.4436  -31.6611   25.0737 C   0  0  0  0  0  0
  -25.3706  -31.3712   26.1489 C   0  0  0  0  0  0
  -27.0259  -30.3050   24.6126 C   0  0  0  0  0  0
  -27.6006  -32.4345   25.7490 C   0  0  0  0  0  0
  -27.5582  -37.1812   24.8456 C   0  0  0  0  0  0
  -21.4104  -29.3013   22.3750 N   0  0  0  0  0  0
  -26.4306  -37.3793   23.9391 N   0  0  0  0  0  0
  -24.6638  -31.0752   22.1004 N   0  0  0  0  0  0
  -23.4144  -28.8189   23.3057 O   0  0  0  0  0  0
  -28.4306  -26.7234   20.1027 O   0  0  0  0  0  0
  -26.5623  -34.8916   22.4695 O   0  0  0  0  0  0
  -23.5302  -32.1412   23.7497 O   0  0  0  0  0  0
  -30.4525  -17.0038   22.8806 C   0  0  0  0  0  0
  -30.1984  -18.2448   22.0079 C   0  0  0  0  0  0
  -29.7870  -24.0136   20.6252 C   0  0  0  0  0  0
  -28.9207  -23.3292   18.3214 C   0  0  0  0  0  0
  -30.0402  -22.5169   20.9364 C   0  0  0  0  0  0
  -29.2103  -21.8447   18.6698 C   0  0  0  0  0  0
  -29.6388  -15.7976   22.3837 C   0  0  0  0  0  0
  -29.6688  -16.6817   20.0858 C   0  0  0  0  0  0
  -28.7033  -24.2651   19.5449 C   0  0  2  0  0  0
  -30.4520  -17.9477   20.5195 C   0  0  1  0  0  0
  -30.4032  -21.7535   19.6487 C   0  0  2  0  0  0
  -33.2892  -19.1729   19.7000 C   0  0  0  0  0  0
  -30.1622  -19.1910   19.6110 C   0  0  0  0  0  0
  -28.7044  -25.7538   19.0783 C   0  0  0  0  0  0
  -32.3866  -20.3497   19.3046 C   0  0  0  0  0  0
  -29.9203  -15.5224   20.9695 N   0  0  0  0  0  0
  -31.0137  -20.3930   19.9056 N   0  3  1  0  0  0
  -31.4855  -12.4212   19.1233 H   0  0  0  0  0  0
  -30.3587  -11.2926   19.8169 H   0  0  0  0  0  0
  -29.7557  -11.8205   17.4169 H   0  0  0  0  0  0
  -29.6726  -13.5214   17.8051 H   0  0  0  0  0  0
  -27.8509  -11.3134   18.8267 H   0  0  0  0  0  0
  -27.3711  -12.6423   17.8035 H   0  0  0  0  0  0
  -27.7157  -14.2545   19.5982 H   0  0  0  0  0  0
  -28.6887  -11.9160   21.3092 H   0  0  0  0  0  0
  -28.4618  -13.5278   21.8914 H   0  0  0  0  0  0
  -25.2776   -9.5584   22.4781 H   0  0  0  0  0  0
  -23.9996   -7.4593   22.7469 H   0  0  0  0  0  0
  -21.0851   -8.8830   19.8954 H   0  0  0  0  0  0
  -22.3801  -10.9684   19.6196 H   0  0  0  0  0  0
  -21.1917   -7.6123   23.9697 H   0  0  0  0  0  0
  -21.1484   -6.0523   25.9082 H   0  0  0  0  0  0
  -22.0576   -2.7598   23.2904 H   0  0  0  0  0  0
  -22.4115  -11.9933   22.4852 H   0  0  0  0  0  0
  -21.1038  -13.1189   22.2583 H   0  0  0  0  0  0
  -24.6740  -15.8474   20.5396 H   0  0  0  0  0  0
  -26.2976  -15.6229   20.1196 H   0  0  0  0  0  0
  -26.7075  -32.5509   23.1150 H   0  0  0  0  0  0
  -24.9955  -33.9779   25.0409 H   0  0  0  0  0  0
  -22.6882  -31.3043   21.4112 H   0  0  0  0  0  0
  -23.3736  -35.9682   23.3320 H   0  0  0  0  0  0
  -24.3564  -36.8944   22.2048 H   0  0  0  0  0  0
  -23.7263  -37.6542   23.6662 H   0  0  0  0  0  0
  -26.0370  -31.6002   20.5994 H   0  0  0  0  0  0
  -26.8121  -30.8815   21.9846 H   0  0  0  0  0  0
  -28.0950  -29.1047   21.1610 H   0  0  0  0  0  0
  -26.0389  -25.9459   19.0519 H   0  0  0  0  0  0
  -23.9743  -27.2706   19.0645 H   0  0  0  0  0  0
  -23.7005  -30.5846   19.4019 H   0  0  0  0  0  0
  -22.7301  -29.2254   19.8833 H   0  0  0  0  0  0
  -25.1293  -36.1977   25.0816 H   0  0  0  0  0  0
  -20.9933  -28.3185   24.1457 H   0  0  0  0  0  0
  -20.5576  -26.2244   23.3610 H   0  0  0  0  0  0
  -21.6594  -26.7370   22.1252 H   0  0  0  0  0  0
  -19.6854  -25.6277   21.1232 H   0  0  0  0  0  0
  -19.6649  -27.3184   20.6746 H   0  0  0  0  0  0
  -17.4154  -26.6674   21.4044 H   0  0  0  0  0  0
  -18.0294  -26.0036   22.9013 H   0  0  0  0  0  0
  -19.7907  -30.7232   24.2310 H   0  0  0  0  0  0
  -17.4990  -31.6261   24.5149 H   0  0  0  0  0  0
  -15.5331  -30.2992   23.7604 H   0  0  0  0  0  0
  -15.8646  -28.0792   22.7093 H   0  0  0  0  0  0
  -24.5880  -30.7055   25.7827 H   0  0  0  0  0  0
  -24.8893  -32.2862   26.4949 H   0  0  0  0  0  0
  -25.8061  -30.8873   27.0240 H   0  0  0  0  0  0
  -26.2802  -29.6838   24.1154 H   0  0  0  0  0  0
  -27.3975  -29.7264   25.4591 H   0  0  0  0  0  0
  -27.8662  -30.4358   23.9310 H   0  0  0  0  0  0
  -27.2616  -33.3638   26.2081 H   0  0  0  0  0  0
  -28.3798  -32.6922   25.0307 H   0  0  0  0  0  0
  -28.0701  -31.8478   26.5393 H   0  0  0  0  0  0
  -28.2596  -38.0110   24.7492 H   0  0  0  0  0  0
  -28.1081  -36.2633   24.6304 H   0  0  0  0  0  0
  -27.2292  -37.1488   25.8857 H   0  0  0  0  0  0
  -20.9241  -29.8768   21.7015 H   0  0  0  0  0  0
  -26.0195  -38.2869   24.1399 H   0  0  0  0  0  0
  -30.1973  -17.2261   23.9185 H   0  0  0  0  0  0
  -31.5153  -16.7535   22.8725 H   0  0  0  0  0  0
  -30.8397  -19.0559   22.3567 H   0  0  0  0  0  0
  -29.1686  -18.5839   22.1343 H   0  0  0  0  0  0
  -30.7269  -24.4612   20.2965 H   0  0  0  0  0  0
  -29.5151  -24.5395   21.5409 H   0  0  0  0  0  0
  -28.0565  -23.3888   17.6570 H   0  0  0  0  0  0
  -29.7611  -23.7090   17.7395 H   0  0  0  0  0  0
  -29.1605  -22.0761   21.4108 H   0  0  0  0  0  0
  -30.8568  -22.4433   21.6565 H   0  0  0  0  0  0
  -29.4349  -21.3034   17.7500 H   0  0  0  0  0  0
  -28.3145  -21.3870   19.0931 H   0  0  0  0  0  0
  -28.5708  -15.9902   22.4948 H   0  0  0  0  0  0
  -29.8701  -14.9319   23.0087 H   0  0  0  0  0  0
  -29.9385  -16.4261   19.0584 H   0  0  0  0  0  0
  -28.5981  -16.8871   20.0776 H   0  0  0  0  0  0
  -27.7275  -24.0364   19.9764 H   0  0  0  0  0  0
  -31.4871  -17.6431   20.4363 H   0  0  0  0  0  0
  -31.1768  -22.3635   19.1792 H   0  0  0  0  0  0
  -34.3224  -19.3925   19.4355 H   0  0  0  0  0  0
  -33.0298  -18.2656   19.1566 H   0  0  0  0  0  0
  -33.2697  -18.9749   20.7722 H   0  0  0  0  0  0
  -29.1115  -19.4383   19.7544 H   0  0  0  0  0  0
  -30.2646  -18.9377   18.5536 H   0  0  0  0  0  0
  -29.7061  -25.9917   18.7163 H   0  0  0  0  0  0
  -28.0686  -25.8880   18.2030 H   0  0  0  0  0  0
  -32.3164  -20.4030   18.2181 H   0  0  0  0  0  0
  -32.9248  -21.2446   19.6179 H   0  0  0  0  0  0
  -31.1482  -20.3747   20.9043 H   0  0  0  0  0  0
  1 25  1  0  0  0
  1 30  2  0  0  0
  1 86  1  0  0  0
  2  3  1  0  0  0
  2 25  1  0  0  0
  2 88  1  0  0  0
  2 89  1  0  0  0
  3  4  1  0  0  0
  3 90  1  0  0  0
  3 91  1  0  0  0
  4  5  1  0  0  0
  4 92  1  0  0  0
  4 93  1  0  0  0
  5  6  1  0  0  0
  5 26  1  0  0  0
  5 94  1  0  0  0
  6 25  1  0  0  0
  6 95  1  0  0  0
  6 96  1  0  0  0
  7  8  2  0  0  0
  7 26  1  0  0  0
  7 29  1  0  0  0
  8  9  1  0  0  0
  8 22  1  0  0  0
  9 10  1  0  0  0
  9 27  2  0  0  0
 10 11  2  0  0  0
 10 15  1  0  0  0
 11 12  1  0  0  0
 11 97  1  0  0  0
 12 13  2  0  0  0
 12 98  1  0  0  0
 13 14  1  0  0  0
 13 31  1  0  0  0
 14 15  2  0  0  0
 14 99  1  0  0  0
 15100  1  0  0  0
 16 17  2  0  0  0
 16 21  1  0  0  0
 16 31  1  0  0  0
 17 18  1  0  0  0
 17101  1  0  0  0
 18 19  2  0  0  0
 18102  1  0  0  0
 19 20  1  0  0  0
 19 24  1  0  0  0
 20 21  2  0  0  0
 20103  1  0  0  0
 21 23  1  0  0  0
 22 28  1  0  0  0
 22 32  2  0  0  0
 26 27  1  0  0  0
 28104  1  0  0  0
 28105  1  0  0  0
 29106  1  0  0  0
 29107  1  0  0  0
 33 34  1  0  0  0
 33 66  1  0  0  0
 33 70  2  0  0  0
 34 36  1  0  0  0
 34 59  1  0  0  0
 34108  1  0  0  0
 35 44  2  0  0  0
 35 45  1  0  0  0
 35 68  1  0  0  0
 36 56  1  0  0  0
 36109  1  0  0  0
 37 39  1  0  0  0
 37 47  1  0  0  0
 37 66  1  0  0  0
 37110  1  0  0  0
 38 43  2  0  0  0
 38 46  1  0  0  0
 38 47  1  0  0  0
 39 64  1  0  0  0
 39 67  2  0  0  0
 40 52  1  0  0  0
 40 53  2  0  0  0
 40 58  1  0  0  0
 41111  1  0  0  0
 41112  1  0  0  0
 41113  1  0  0  0
 41 48  1  0  0  0
 42 43  1  0  0  0
 42 66  1  0  0  0
 42114  1  0  0  0
 42115  1  0  0  0
 43 44  1  0  0  0
 44116  1  0  0  0
 45 46  2  0  0  0
 45117  1  0  0  0
 46118  1  0  0  0
 47119  1  0  0  0
 47120  1  0  0  0
 48 56  1  0  0  0
 48 65  1  0  0  0
 48121  1  0  0  0
 49 50  1  0  0  0
 49 53  1  0  0  0
 49 64  1  0  0  0
 49122  1  0  0  0
 50 51  1  0  0  0
 50123  1  0  0  0
 50124  1  0  0  0
 51 52  1  0  0  0
 51125  1  0  0  0
 51126  1  0  0  0
 52127  1  0  0  0
 52128  1  0  0  0
 53 54  1  0  0  0
 54 55  2  0  0  0
 54129  1  0  0  0
 55 57  1  0  0  0
 55130  1  0  0  0
 56 69  2  0  0  0
 57 58  2  0  0  0
 57131  1  0  0  0
 58132  1  0  0  0
 59 60  1  0  0  0
 59 61  1  0  0  0
 59 62  1  0  0  0
 60133  1  0  0  0
 60134  1  0  0  0
 60135  1  0  0  0
 61136  1  0  0  0
 61137  1  0  0  0
 61138  1  0  0  0
 62139  1  0  0  0
 62140  1  0  0  0
 62141  1  0  0  0
 63 65  1  0  0  0
 63142  1  0  0  0
 63143  1  0  0  0
 63144  1  0  0  0
 64145  1  0  0  0
 65146  1  0  0  0
 68 84  1  0  0  0
 71 72  1  0  0  0
 71 77  1  0  0  0
 71147  1  0  0  0
 71148  1  0  0  0
 72 80  1  0  0  0
 72149  1  0  0  0
 72150  1  0  0  0
 73 75  1  0  0  0
 73 79  1  0  0  0
 73151  1  0  0  0
 73152  1  0  0  0
 74 76  1  0  0  0
 74 79  1  0  0  0
 74153  1  0  0  0
 74154  1  0  0  0
 75155  1  0  0  0
 75156  1  0  0  0
 75 81  1  0  0  0
 76 81  1  0  0  0
 76157  1  0  0  0
 76158  1  0  0  0
 77 86  1  0  0  0
 77159  1  0  0  0
 77160  1  0  0  0
 78 80  1  0  0  0
 78 86  1  0  0  0
 78161  1  0  0  0
 78162  1  0  0  0
 79 84  1  0  0  0
 79163  1  0  0  0
 80 83  1  0  0  0
 80164  1  0  0  0
 81 87  1  0  0  0
 81165  1  0  0  0
 82 85  1  0  0  0
 82166  1  0  0  0
 82167  1  0  0  0
 82168  1  0  0  0
 83169  1  0  0  0
 83170  1  0  0  0
 83 87  1  0  0  0
 84171  1  0  0  0
 84172  1  0  0  0
 85 87  1  0  0  0
 85173  1  0  0  0
 85174  1  0  0  0
 87175  1  0  0  0
M  CHG  1  87   1
M  ISO  4   1 100  68 101  84 101  86 100
M  END
> <chiral flag>
0

> <version>
0

> <s_m_source_file>
/data/baiqing/PycharmProjects/Reinvent-master-3.2/result/LINK_invent/BTK/process_docking_weight1_custom_sum_contain_oxygen_bond_distance_aromatic_linkinvent_7_9_3/rearranged_h_0123.sdf

> <i_m_source_file_index>
31

> <r_mmod_Potential_Energy-OPLS-2005>
187.621383666992

> <r_mmod_Stretch_Energy-OPLS-2005>
46.8723945617676

> <r_mmod_Bend_Energy-OPLS-2005>
129.317367553711

> <r_mmod_Torsional_Energy-OPLS-2005>
371.421447753906

> <r_mmod_Improper_Torsional_Energy-OPLS-2005>
9.82006454467773

> <r_mmod_Van_der_Waal_Energy-OPLS-2005>
146.742111206055

> <r_mmod_Electrostatic_Energy-OPLS-2005>
-126.234527587891

> <r_mmod_Solvation_Energy-OPLS-2005>
-402.615020751953

> <b_mmod_Minimization_Converged-OPLS-2005>
0

> <r_mmod_RMS_Derivative-OPLS-2005>
3.84434866905212

$$$$
31
                    3D
 Structure written by MMmdl.
162170  0  0  1  0            999 V2000
  -30.6005  -14.8090   20.4509 C   0  0  0  0  0  0
  -30.4373  -12.4928   19.5090 C   0  0  0  0  0  0
  -29.5286  -12.5167   18.2614 C   0  0  0  0  0  0
  -28.0541  -12.3321   18.6658 C   0  0  0  0  0  0
  -27.6462  -13.2374   19.8579 C   0  0  2  0  0  0
  -28.6866  -13.2131   20.9987 C   0  0  0  0  0  0
  -25.2538  -13.8212   20.5735 C   0  0  0  0  0  0
  -24.1843  -13.0454   20.9241 C   0  0  0  0  0  0
  -24.6424  -11.6944   20.8784 C   0  0  0  0  0  0
  -23.9064  -10.4332   21.0431 C   0  0  0  0  0  0
  -24.3627   -9.4221   21.9192 C   0  0  0  0  0  0
  -23.6285   -8.2267   22.0768 C   0  0  0  0  0  0
  -22.4298   -8.0287   21.3530 C   0  0  0  0  0  0
  -21.9913   -9.0282   20.4663 C   0  0  0  0  0  0
  -22.7245  -10.2161   20.3069 C   0  0  0  0  0  0
  -21.6846   -6.0769   22.5300 C   0  0  0  0  0  0
  -21.4027   -6.5680   23.8242 C   0  0  0  0  0  0
  -21.3658   -5.6812   24.9190 C   0  0  0  0  0  0
  -21.6015   -4.3072   24.7239 C   0  0  0  0  0  0
  -21.8808   -3.8176   23.4350 C   0  0  0  0  0  0
  -21.9188   -4.7005   22.3412 C   0  0  0  0  0  0
  -22.7858  -13.5259   21.1836 C   0  0  0  0  0  0
  -22.1648   -4.2180   21.0990 F   0  0  0  0  0  0
  -21.5600   -3.4545   25.7738 F   0  0  0  0  0  0
  -29.9839  -13.5760   20.4149 N   0  0  0  0  0  0
  -26.2985  -12.9438   20.3352 N   0  0  0  0  0  0
  -25.9367  -11.6566   20.5804 N   0  0  0  0  0  0
  -22.0440  -12.8338   22.0411 N   0  0  0  0  0  0
  -25.4162  -15.1935   20.4154 N   0  0  0  0  0  0
  -31.7899  -14.8941   20.1319 O   0  0  0  0  0  0
  -21.6615   -6.8907   21.4258 O   0  0  0  0  0  0
  -22.3575  -14.5541   20.6606 O   0  0  0  0  0  0
  -24.6337  -31.8490   23.1935 C   0  0  0  0  0  0
  -25.9135  -32.4736   23.8291 C   0  0  1  0  0  0
  -27.2166  -27.2158   20.1545 C   0  0  0  0  0  0
  -25.5899  -33.8541   24.2221 N   0  0  0  0  0  0
  -23.4393  -30.4697   21.5348 C   0  0  2  0  0  0
  -24.8874  -28.9069   20.1106 C   0  0  0  0  0  0
  -22.7551  -29.4537   22.4852 C   0  0  0  0  0  0
  -18.0314  -28.1374   22.8482 C   0  0  0  0  0  0
  -24.1482  -36.7318   23.2642 C   0  0  0  0  0  0
  -25.9871  -30.7452   21.3842 C   0  0  0  0  0  0
  -26.0587  -29.3600   20.7344 C   0  0  0  0  0  0
  -27.2285  -28.5278   20.7480 C   0  0  0  0  0  0
  -26.0284  -26.8374   19.4970 C   0  0  0  0  0  0
  -24.8796  -27.6536   19.4780 C   0  0  0  0  0  0
  -23.6656  -29.8051   20.1506 C   0  0  0  0  0  0
  -25.4110  -36.3079   24.0325 C   0  0  1  0  0  0
  -20.5918  -28.3690   23.1253 C   0  0  2  0  0  0
  -20.6786  -26.9403   22.5399 C   0  0  0  0  0  0
  -19.5760  -26.6364   21.5208 C   0  0  0  0  0  0
  -18.1944  -26.7910   22.1621 C   0  0  0  0  0  0
  -19.1570  -28.8849   23.2867 C   0  0  0  0  0  0
  -18.9480  -30.1443   23.8901 C   0  0  0  0  0  0
  -17.6471  -30.6574   24.0560 C   0  0  0  0  0  0
  -25.9041  -34.9443   23.5087 C   0  0  0  0  0  0
  -16.5368  -29.9077   23.6318 C   0  0  0  0  0  0
  -16.7295  -28.6491   23.0357 C   0  0  0  0  0  0
  -26.4478  -31.6566   25.0690 C   0  0  0  0  0  0
  -25.3679  -31.3757   26.1403 C   0  0  0  0  0  0
  -27.0333  -30.2966   24.6215 C   0  0  0  0  0  0
  -27.6021  -32.4318   25.7452 C   0  0  0  0  0  0
  -27.5590  -37.1809   24.8453 C   0  0  0  0  0  0
  -21.4246  -29.3043   22.3636 N   0  0  0  0  0  0
  -26.4291  -37.3778   23.9415 N   0  0  0  0  0  0
  -24.7067  -31.0407   22.0921 N   0  0  0  0  0  0
  -23.4234  -28.8079   23.2962 O   0  0  0  0  0  0
  -28.2555  -26.2467   20.1455 O   0  0  0  0  0  0
  -26.5642  -34.8921   22.4669 O   0  0  0  0  0  0
  -23.5480  -32.1321   23.7177 O   0  0  0  0  0  0
  -29.0337  -22.7440   20.2108 C   0  0  0  0  0  0
  -28.6494  -21.5319   22.0492 C   0  0  0  0  0  0
  -29.0711  -21.3821   20.7701 C   0  0  0  0  0  0
  -28.5870  -23.6990   21.1543 C   0  0  0  0  0  0
  -29.4731  -25.9618   22.1469 C   0  0  0  0  0  0
  -29.1690  -23.2185   24.6276 C   0  0  0  0  0  0
  -26.7931  -22.4581   24.1831 C   0  0  0  0  0  0
  -29.2777  -18.7030   20.7954 C   0  0  0  0  0  0
  -30.1828  -17.4327   20.2782 C   0  0  0  0  0  0
  -28.3626  -25.3059   21.3087 C   0  0  1  0  0  0
  -27.9746  -23.2978   23.6558 C   0  0  0  0  0  0
  -28.3753  -22.8808   22.3015 N   0  0  0  0  0  0
  -29.4907  -20.1019   20.2030 N   0  0  0  0  0  0
  -29.8336  -15.9654   20.6167 N   0  0  0  0  0  0
  -31.4808  -12.6176   19.2147 H   0  0  0  0  0  0
  -30.3823  -11.5291   20.0155 H   0  0  0  0  0  0
  -29.8297  -11.7357   17.5603 H   0  0  0  0  0  0
  -29.6501  -13.4666   17.7414 H   0  0  0  0  0  0
  -27.9282  -11.2829   18.9355 H   0  0  0  0  0  0
  -27.4000  -12.5120   17.8137 H   0  0  0  0  0  0
  -27.6274  -14.2542   19.4633 H   0  0  0  0  0  0
  -28.7430  -12.2316   21.4683 H   0  0  0  0  0  0
  -28.4080  -13.9141   21.7871 H   0  0  0  0  0  0
  -25.2754   -9.5684   22.4770 H   0  0  0  0  0  0
  -23.9960   -7.4682   22.7543 H   0  0  0  0  0  0
  -21.0801   -8.8827   19.9015 H   0  0  0  0  0  0
  -22.3682  -10.9713   19.6193 H   0  0  0  0  0  0
  -21.2037   -7.6188   23.9758 H   0  0  0  0  0  0
  -21.1475   -6.0548   25.9093 H   0  0  0  0  0  0
  -22.0577   -2.7639   23.2856 H   0  0  0  0  0  0
  -22.3994  -12.0008   22.4862 H   0  0  0  0  0  0
  -21.1058  -13.1430   22.2506 H   0  0  0  0  0  0
  -24.6323  -15.8268   20.5311 H   0  0  0  0  0  0
  -26.2410  -15.6499   20.0479 H   0  0  0  0  0  0
  -26.7193  -32.5369   23.1030 H   0  0  0  0  0  0
  -25.0030  -33.9673   25.0357 H   0  0  0  0  0  0
  -22.7381  -31.2919   21.3827 H   0  0  0  0  0  0
  -23.3733  -35.9659   23.3284 H   0  0  0  0  0  0
  -24.3577  -36.8966   22.2059 H   0  0  0  0  0  0
  -23.7233  -37.6516   23.6671 H   0  0  0  0  0  0
  -26.1335  -31.5007   20.6110 H   0  0  0  0  0  0
  -26.8616  -30.7950   22.0214 H   0  0  0  0  0  0
  -28.1252  -28.8720   21.2440 H   0  0  0  0  0  0
  -25.9805  -25.8709   19.0135 H   0  0  0  0  0  0
  -23.9873  -27.3045   18.9759 H   0  0  0  0  0  0
  -23.8087  -30.5813   19.3967 H   0  0  0  0  0  0
  -22.7819  -29.2477   19.8352 H   0  0  0  0  0  0
  -25.1292  -36.1930   25.0818 H   0  0  0  0  0  0
  -21.0035  -28.3243   24.1359 H   0  0  0  0  0  0
  -20.5650  -26.2314   23.3619 H   0  0  0  0  0  0
  -21.6656  -26.7372   22.1217 H   0  0  0  0  0  0
  -19.6926  -25.6273   21.1254 H   0  0  0  0  0  0
  -19.6706  -27.3169   20.6735 H   0  0  0  0  0  0
  -17.4220  -26.6670   21.4017 H   0  0  0  0  0  0
  -18.0338  -26.0047   22.9012 H   0  0  0  0  0  0
  -19.7952  -30.7250   24.2296 H   0  0  0  0  0  0
  -17.5025  -31.6257   24.5156 H   0  0  0  0  0  0
  -15.5369  -30.2984   23.7621 H   0  0  0  0  0  0
  -15.8700  -28.0808   22.7065 H   0  0  0  0  0  0
  -24.5798  -30.7192   25.7704 H   0  0  0  0  0  0
  -24.8947  -32.2957   26.4838 H   0  0  0  0  0  0
  -25.7943  -30.8874   27.0175 H   0  0  0  0  0  0
  -26.2929  -29.6692   24.1239 H   0  0  0  0  0  0
  -27.4004  -29.7254   25.4751 H   0  0  0  0  0  0
  -27.8809  -30.4246   23.9482 H   0  0  0  0  0  0
  -27.2614  -33.3620   26.2020 H   0  0  0  0  0  0
  -28.3805  -32.6887   25.0251 H   0  0  0  0  0  0
  -28.0709  -31.8451   26.5366 H   0  0  0  0  0  0
  -28.2580  -38.0130   24.7511 H   0  0  0  0  0  0
  -28.1104  -36.2660   24.6240 H   0  0  0  0  0  0
  -27.2322  -37.1420   25.8857 H   0  0  0  0  0  0
  -20.9428  -29.8857   21.6927 H   0  0  0  0  0  0
  -26.0171  -38.2852   24.1415 H   0  0  0  0  0  0
  -29.3324  -23.0121   19.2054 H   0  0  0  0  0  0
  -28.5407  -20.7935   22.8324 H   0  0  0  0  0  0
  -29.4955  -25.5874   23.1638 H   0  0  0  0  0  0
  -29.3357  -27.0397   22.2206 H   0  0  0  0  0  0
  -30.4504  -25.7846   21.7022 H   0  0  0  0  0  0
  -28.9068  -23.6399   25.5982 H   0  0  0  0  0  0
  -30.0381  -23.7635   24.2598 H   0  0  0  0  0  0
  -29.4922  -22.1914   24.7974 H   0  0  0  0  0  0
  -26.3737  -22.9004   25.0863 H   0  0  0  0  0  0
  -27.0904  -21.4426   24.4450 H   0  0  0  0  0  0
  -25.9855  -22.3871   23.4546 H   0  0  0  0  0  0
  -29.3840  -18.7727   21.8772 H   0  0  0  0  0  0
  -28.2297  -18.4560   20.6222 H   0  0  0  0  0  0
  -31.2124  -17.6037   20.5956 H   0  0  0  0  0  0
  -30.2102  -17.4738   19.1885 H   0  0  0  0  0  0
  -27.4209  -25.4366   21.8419 H   0  0  0  0  0  0
  -27.6263  -24.3272   23.6315 H   0  0  0  0  0  0
  -29.7970  -20.1179   19.2307 H   0  0  0  0  0  0
  -28.8648  -15.7983   20.8469 H   0  0  0  0  0  0
  1 25  1  0  0  0
  1 30  2  0  0  0
  1 84  1  0  0  0
  2  3  1  0  0  0
  2 25  1  0  0  0
  2 85  1  0  0  0
  2 86  1  0  0  0
  3  4  1  0  0  0
  3 87  1  0  0  0
  3 88  1  0  0  0
  4  5  1  0  0  0
  4 89  1  0  0  0
  4 90  1  0  0  0
  5  6  1  0  0  0
  5 26  1  0  0  0
  5 91  1  0  0  0
  6 25  1  0  0  0
  6 92  1  0  0  0
  6 93  1  0  0  0
  7  8  2  0  0  0
  7 26  1  0  0  0
  7 29  1  0  0  0
  8  9  1  0  0  0
  8 22  1  0  0  0
  9 10  1  0  0  0
  9 27  2  0  0  0
 10 11  2  0  0  0
 10 15  1  0  0  0
 11 12  1  0  0  0
 11 94  1  0  0  0
 12 13  2  0  0  0
 12 95  1  0  0  0
 13 14  1  0  0  0
 13 31  1  0  0  0
 14 15  2  0  0  0
 14 96  1  0  0  0
 15 97  1  0  0  0
 16 17  2  0  0  0
 16 21  1  0  0  0
 16 31  1  0  0  0
 17 18  1  0  0  0
 17 98  1  0  0  0
 18 19  2  0  0  0
 18 99  1  0  0  0
 19 20  1  0  0  0
 19 24  1  0  0  0
 20 21  2  0  0  0
 20100  1  0  0  0
 21 23  1  0  0  0
 22 28  1  0  0  0
 22 32  2  0  0  0
 26 27  1  0  0  0
 28101  1  0  0  0
 28102  1  0  0  0
 29103  1  0  0  0
 29104  1  0  0  0
 33 34  1  0  0  0
 33 66  1  0  0  0
 33 70  2  0  0  0
 34 36  1  0  0  0
 34 59  1  0  0  0
 34105  1  0  0  0
 35 44  2  0  0  0
 35 45  1  0  0  0
 35 68  1  0  0  0
 36 56  1  0  0  0
 36106  1  0  0  0
 37 39  1  0  0  0
 37 47  1  0  0  0
 37 66  1  0  0  0
 37107  1  0  0  0
 38 43  2  0  0  0
 38 46  1  0  0  0
 38 47  1  0  0  0
 39 64  1  0  0  0
 39 67  2  0  0  0
 40 52  1  0  0  0
 40 53  2  0  0  0
 40 58  1  0  0  0
 41108  1  0  0  0
 41109  1  0  0  0
 41110  1  0  0  0
 41 48  1  0  0  0
 42 43  1  0  0  0
 42 66  1  0  0  0
 42111  1  0  0  0
 42112  1  0  0  0
 43 44  1  0  0  0
 44113  1  0  0  0
 45 46  2  0  0  0
 45114  1  0  0  0
 46115  1  0  0  0
 47116  1  0  0  0
 47117  1  0  0  0
 48 56  1  0  0  0
 48 65  1  0  0  0
 48118  1  0  0  0
 49 50  1  0  0  0
 49 53  1  0  0  0
 49 64  1  0  0  0
 49119  1  0  0  0
 50 51  1  0  0  0
 50120  1  0  0  0
 50121  1  0  0  0
 51 52  1  0  0  0
 51122  1  0  0  0
 51123  1  0  0  0
 52124  1  0  0  0
 52125  1  0  0  0
 53 54  1  0  0  0
 54 55  2  0  0  0
 54126  1  0  0  0
 55 57  1  0  0  0
 55127  1  0  0  0
 56 69  2  0  0  0
 57 58  2  0  0  0
 57128  1  0  0  0
 58129  1  0  0  0
 59 60  1  0  0  0
 59 61  1  0  0  0
 59 62  1  0  0  0
 60130  1  0  0  0
 60131  1  0  0  0
 60132  1  0  0  0
 61133  1  0  0  0
 61134  1  0  0  0
 61135  1  0  0  0
 62136  1  0  0  0
 62137  1  0  0  0
 62138  1  0  0  0
 63 65  1  0  0  0
 63139  1  0  0  0
 63140  1  0  0  0
 63141  1  0  0  0
 64142  1  0  0  0
 65143  1  0  0  0
 68 80  1  0  0  0
 71 73  1  0  0  0
 71 74  2  0  0  0
 71144  1  0  0  0
 72 73  2  0  0  0
 72 82  1  0  0  0
 72145  1  0  0  0
 73 83  1  0  0  0
 74 80  1  0  0  0
 74 82  1  0  0  0
 75146  1  0  0  0
 75147  1  0  0  0
 75148  1  0  0  0
 75 80  1  0  0  0
 76149  1  0  0  0
 76150  1  0  0  0
 76151  1  0  0  0
 76 81  1  0  0  0
 77 81  1  0  0  0
 77152  1  0  0  0
 77153  1  0  0  0
 77154  1  0  0  0
 78 79  1  0  0  0
 78 83  1  0  0  0
 78155  1  0  0  0
 78156  1  0  0  0
 79 84  1  0  0  0
 79157  1  0  0  0
 79158  1  0  0  0
 80159  1  0  0  0
 81 82  1  0  0  0
 81160  1  0  0  0
 83161  1  0  0  0
 84162  1  0  0  0
M  ISO  4   1 100  68 101  80 101  84 100
M  END
> <chiral flag>
0

> <version>
0

> <s_m_source_file>
/data/baiqing/PycharmProjects/Reinvent-master-3.2/result/LINK_invent/BTK/process_docking_weight1_custom_sum_contain_oxygen_bond_distance_aromatic_linkinvent_7_9_3/rearranged_h_0123.sdf

> <i_m_source_file_index>
32

> <r_mmod_Potential_Energy-OPLS-2005>
188.684234619141

> <r_mmod_Stretch_Energy-OPLS-2005>
154.68603515625

> <r_mmod_Bend_Energy-OPLS-2005>
227.214218139648

> <r_mmod_Torsional_Energy-OPLS-2005>
267.81787109375

> <r_mmod_Improper_Torsional_Energy-OPLS-2005>
6.11987066268921

> <r_mmod_Van_der_Waal_Energy-OPLS-2005>
115.753936767578

> <r_mmod_Electrostatic_Energy-OPLS-2005>
-478.98291015625

> <r_mmod_Solvation_Energy-OPLS-2005>
-224.968612670898

> <b_mmod_Minimization_Converged-OPLS-2005>
0

> <r_mmod_RMS_Derivative-OPLS-2005>
5.16338729858398

$$$$
32
                    3D
 Structure written by MMmdl.
156165  0  0  1  0            999 V2000
  -30.4741  -15.1970   20.3802 C   0  0  0  0  0  0
  -30.4378  -12.7622   19.5178 C   0  0  0  0  0  0
  -29.5302  -12.5613   18.2795 C   0  0  0  0  0  0
  -28.0762  -12.2992   18.7088 C   0  0  0  0  0  0
  -27.6146  -13.2699   19.8249 C   0  0  2  0  0  0
  -28.6516  -13.4207   20.9581 C   0  0  0  0  0  0
  -25.2405  -13.8243   20.5743 C   0  0  0  0  0  0
  -24.1750  -13.0439   20.9253 C   0  0  0  0  0  0
  -24.6400  -11.6934   20.8767 C   0  0  0  0  0  0
  -23.9095  -10.4292   21.0412 C   0  0  0  0  0  0
  -24.3640   -9.4204   21.9190 C   0  0  0  0  0  0
  -23.6303   -8.2245   22.0760 C   0  0  0  0  0  0
  -22.4286   -8.0286   21.3548 C   0  0  0  0  0  0
  -21.9926   -9.0263   20.4651 C   0  0  0  0  0  0
  -22.7264  -10.2139   20.3059 C   0  0  0  0  0  0
  -21.6856   -6.0740   22.5278 C   0  0  0  0  0  0
  -21.4016   -6.5642   23.8212 C   0  0  0  0  0  0
  -21.3658   -5.6793   24.9172 C   0  0  0  0  0  0
  -21.6043   -4.3056   24.7222 C   0  0  0  0  0  0
  -21.8818   -3.8150   23.4342 C   0  0  0  0  0  0
  -21.9194   -4.6967   22.3399 C   0  0  0  0  0  0
  -22.7768  -13.5196   21.1895 C   0  0  0  0  0  0
  -22.1662   -4.2152   21.0976 F   0  0  0  0  0  0
  -21.5627   -3.4540   25.7734 F   0  0  0  0  0  0
  -29.8916  -13.9051   20.3324 N   0  0  0  0  0  0
  -26.2832  -12.9511   20.3229 N   0  0  0  0  0  0
  -25.9337  -11.6620   20.5735 N   0  0  0  0  0  0
  -22.0424  -12.8181   22.0451 N   0  0  0  0  0  0
  -25.4041  -15.1976   20.4168 N   0  0  0  0  0  0
  -31.6939  -15.1934   20.1677 O   0  0  0  0  0  0
  -21.6644   -6.8888   21.4240 O   0  0  0  0  0  0
  -22.3452  -14.5498   20.6734 O   0  0  0  0  0  0
  -24.6605  -31.8280   23.1753 C   0  0  0  0  0  0
  -25.9301  -32.4614   23.8201 C   0  0  1  0  0  0
  -27.2118  -26.9614   20.1739 C   0  0  0  0  0  0
  -25.5982  -33.8427   24.2102 N   0  0  0  0  0  0
  -23.4731  -30.4439   21.5242 C   0  0  2  0  0  0
  -24.9255  -28.8438   20.1112 C   0  0  0  0  0  0
  -22.7661  -29.4466   22.4795 C   0  0  0  0  0  0
  -18.0324  -28.1408   22.8476 C   0  0  0  0  0  0
  -24.1493  -36.7212   23.2648 C   0  0  0  0  0  0
  -26.0428  -30.6457   21.4025 C   0  0  0  0  0  0
  -26.1104  -29.2406   20.7437 C   0  0  0  0  0  0
  -27.2503  -28.3199   20.7533 C   0  0  0  0  0  0
  -25.9982  -26.7184   19.4884 C   0  0  0  0  0  0
  -24.8932  -27.6020   19.4634 C   0  0  0  0  0  0
  -23.7107  -29.7672   20.1482 C   0  0  0  0  0  0
  -25.4130  -36.2980   24.0307 C   0  0  1  0  0  0
  -20.5951  -28.3746   23.1202 C   0  0  2  0  0  0
  -20.6803  -26.9431   22.5408 C   0  0  0  0  0  0
  -19.5771  -26.6375   21.5227 C   0  0  0  0  0  0
  -18.1952  -26.7945   22.1627 C   0  0  0  0  0  0
  -19.1586  -28.8897   23.2829 C   0  0  0  0  0  0
  -18.9495  -30.1489   23.8861 C   0  0  0  0  0  0
  -17.6486  -30.6598   24.0557 C   0  0  0  0  0  0
  -25.9095  -34.9363   23.5019 C   0  0  0  0  0  0
  -16.5378  -29.9084   23.6344 C   0  0  0  0  0  0
  -16.7305  -28.6503   23.0369 C   0  0  0  0  0  0
  -26.4557  -31.6548   25.0716 C   0  0  0  0  0  0
  -25.3685  -31.3801   26.1375 C   0  0  0  0  0  0
  -27.0447  -30.2916   24.6431 C   0  0  0  0  0  0
  -27.6058  -32.4351   25.7508 C   0  0  0  0  0  0
  -27.5571  -37.1761   24.8465 C   0  0  0  0  0  0
  -21.4333  -29.3043   22.3552 N   0  0  0  0  0  0
  -26.4275  -37.3715   23.9416 N   0  0  0  0  0  0
  -24.7466  -30.9979   22.0875 N   0  0  0  0  0  0
  -23.4230  -28.8023   23.3013 O   0  0  0  0  0  0
  -28.1921  -25.8444   20.2559 O   0  0  0  0  0  0
  -26.5698  -34.8892   22.4611 O   0  0  0  0  0  0
  -23.5680  -32.1234   23.6861 O   0  0  0  0  0  0
  -28.0511  -20.0626   20.3026 C   0  0  0  0  0  0
  -30.1739  -20.9037   20.3524 C   0  0  0  0  0  0
  -27.5633  -21.4612   20.2323 C   0  0  0  0  0  0
  -29.4272  -19.6412   20.3563 C   0  0  0  0  0  0
  -28.4035  -22.6691   20.2485 C   0  0  0  0  0  0
  -24.0664  -20.8154   20.2252 C   0  0  0  0  0  0
  -25.1957  -20.7237   19.1928 C   0  0  0  0  0  0
  -25.1369  -21.1469   21.2702 C   0  0  0  0  0  0
  -26.0437  -21.6147   20.1208 C   0  0  0  0  0  0
  -30.1670  -18.0612   20.3876 C   0  0  0  0  0  0
  -27.7529  -24.2869   20.0686 C   0  0  0  0  0  0
  -29.7335  -22.2617   20.3039 N   0  0  0  0  0  0
  -29.7333  -16.4697   20.4614 N   0  0  0  0  0  0
  -31.4597  -12.9537   19.1878 H   0  0  0  0  0  0
  -30.4901  -11.8500   20.1139 H   0  0  0  0  0  0
  -29.8965  -11.7346   17.6695 H   0  0  0  0  0  0
  -29.5713  -13.4503   17.6485 H   0  0  0  0  0  0
  -28.0226  -11.2728   19.0734 H   0  0  0  0  0  0
  -27.4066  -12.3532   17.8498 H   0  0  0  0  0  0
  -27.5376  -14.2422   19.3374 H   0  0  0  0  0  0
  -28.8048  -12.4795   21.4878 H   0  0  0  0  0  0
  -28.3052  -14.1436   21.6982 H   0  0  0  0  0  0
  -25.2783   -9.5677   22.4768 H   0  0  0  0  0  0
  -24.0005   -7.4637   22.7484 H   0  0  0  0  0  0
  -21.0857   -8.8791   19.8959 H   0  0  0  0  0  0
  -22.3725  -10.9682   19.6172 H   0  0  0  0  0  0
  -21.2011   -7.6152   23.9715 H   0  0  0  0  0  0
  -21.1479   -6.0524   25.9075 H   0  0  0  0  0  0
  -22.0599   -2.7611   23.2839 H   0  0  0  0  0  0
  -22.4051  -11.9845   22.4832 H   0  0  0  0  0  0
  -21.1044  -13.1204   22.2668 H   0  0  0  0  0  0
  -24.6315  -15.8453   20.5260 H   0  0  0  0  0  0
  -26.2415  -15.6379   20.0599 H   0  0  0  0  0  0
  -26.7370  -32.5159   23.0919 H   0  0  0  0  0  0
  -25.0096  -33.9517   25.0229 H   0  0  0  0  0  0
  -22.7842  -31.2748   21.3590 H   0  0  0  0  0  0
  -23.3773  -35.9524   23.3278 H   0  0  0  0  0  0
  -24.3569  -36.8881   22.2068 H   0  0  0  0  0  0
  -23.7229  -37.6386   23.6713 H   0  0  0  0  0  0
  -26.2226  -31.3910   20.6263 H   0  0  0  0  0  0
  -26.9034  -30.6984   22.0572 H   0  0  0  0  0  0
  -28.1437  -28.6200   21.2821 H   0  0  0  0  0  0
  -25.8492  -25.7779   18.9822 H   0  0  0  0  0  0
  -23.9933  -27.2939   18.9489 H   0  0  0  0  0  0
  -23.8640  -30.5395   19.3939 H   0  0  0  0  0  0
  -22.8210  -29.2219   19.8286 H   0  0  0  0  0  0
  -25.1325  -36.1780   25.0799 H   0  0  0  0  0  0
  -21.0042  -28.3346   24.1324 H   0  0  0  0  0  0
  -20.5701  -26.2361   23.3642 H   0  0  0  0  0  0
  -21.6663  -26.7414   22.1203 H   0  0  0  0  0  0
  -19.6931  -25.6278   21.1275 H   0  0  0  0  0  0
  -19.6713  -27.3170   20.6747 H   0  0  0  0  0  0
  -17.4227  -26.6708   21.4020 H   0  0  0  0  0  0
  -18.0327  -26.0094   22.9025 H   0  0  0  0  0  0
  -19.7970  -30.7318   24.2211 H   0  0  0  0  0  0
  -17.5036  -31.6277   24.5162 H   0  0  0  0  0  0
  -15.5376  -30.2971   23.7690 H   0  0  0  0  0  0
  -15.8707  -28.0802   22.7112 H   0  0  0  0  0  0
  -24.5883  -30.7131   25.7689 H   0  0  0  0  0  0
  -24.8860  -32.3007   26.4668 H   0  0  0  0  0  0
  -25.7920  -30.9058   27.0238 H   0  0  0  0  0  0
  -26.3111  -29.6602   24.1406 H   0  0  0  0  0  0
  -27.3957  -29.7266   25.5078 H   0  0  0  0  0  0
  -27.9061  -30.4108   23.9857 H   0  0  0  0  0  0
  -27.2633  -33.3697   26.1962 H   0  0  0  0  0  0
  -28.3926  -32.6839   25.0373 H   0  0  0  0  0  0
  -28.0660  -31.8559   26.5523 H   0  0  0  0  0  0
  -28.2569  -38.0077   24.7519 H   0  0  0  0  0  0
  -28.1086  -36.2604   24.6275 H   0  0  0  0  0  0
  -27.2292  -37.1382   25.8869 H   0  0  0  0  0  0
  -20.9575  -29.8734   21.6691 H   0  0  0  0  0  0
  -26.0126  -38.2774   24.1434 H   0  0  0  0  0  0
  -27.3213  -19.2674   20.3034 H   0  0  0  0  0  0
  -31.2506  -20.8230   20.3830 H   0  0  0  0  0  0
  -23.5282  -19.8826   20.4002 H   0  0  0  0  0  0
  -23.3847  -21.6468   20.0367 H   0  0  0  0  0  0
  -24.9690  -21.1631   18.2203 H   0  0  0  0  0  0
  -25.5538  -19.6998   19.0839 H   0  0  0  0  0  0
  -25.5044  -20.2513   21.7744 H   0  0  0  0  0  0
  -24.8665  -21.9232   21.9871 H   0  0  0  0  0  0
  -25.7802  -22.6390   19.8656 H   0  0  0  0  0  0
  -30.8652  -18.1484   21.2208 H   0  0  0  0  0  0
  -30.8183  -18.0864   19.5131 H   0  0  0  0  0  0
  -26.8728  -24.2575   20.7093 H   0  0  0  0  0  0
  -27.3794  -24.2508   19.0463 H   0  0  0  0  0  0
  -28.7417  -16.3273   20.5821 H   0  0  0  0  0  0
  1 25  1  0  0  0
  1 30  2  0  0  0
  1 83  1  0  0  0
  2  3  1  0  0  0
  2 25  1  0  0  0
  2 84  1  0  0  0
  2 85  1  0  0  0
  3  4  1  0  0  0
  3 86  1  0  0  0
  3 87  1  0  0  0
  4  5  1  0  0  0
  4 88  1  0  0  0
  4 89  1  0  0  0
  5  6  1  0  0  0
  5 26  1  0  0  0
  5 90  1  0  0  0
  6 25  1  0  0  0
  6 91  1  0  0  0
  6 92  1  0  0  0
  7  8  2  0  0  0
  7 26  1  0  0  0
  7 29  1  0  0  0
  8  9  1  0  0  0
  8 22  1  0  0  0
  9 10  1  0  0  0
  9 27  2  0  0  0
 10 11  2  0  0  0
 10 15  1  0  0  0
 11 12  1  0  0  0
 11 93  1  0  0  0
 12 13  2  0  0  0
 12 94  1  0  0  0
 13 14  1  0  0  0
 13 31  1  0  0  0
 14 15  2  0  0  0
 14 95  1  0  0  0
 15 96  1  0  0  0
 16 17  2  0  0  0
 16 21  1  0  0  0
 16 31  1  0  0  0
 17 18  1  0  0  0
 17 97  1  0  0  0
 18 19  2  0  0  0
 18 98  1  0  0  0
 19 20  1  0  0  0
 19 24  1  0  0  0
 20 21  2  0  0  0
 20 99  1  0  0  0
 21 23  1  0  0  0
 22 28  1  0  0  0
 22 32  2  0  0  0
 26 27  1  0  0  0
 28100  1  0  0  0
 28101  1  0  0  0
 29102  1  0  0  0
 29103  1  0  0  0
 33 34  1  0  0  0
 33 66  1  0  0  0
 33 70  2  0  0  0
 34 36  1  0  0  0
 34 59  1  0  0  0
 34104  1  0  0  0
 35 44  2  0  0  0
 35 45  1  0  0  0
 35 68  1  0  0  0
 36 56  1  0  0  0
 36105  1  0  0  0
 37 39  1  0  0  0
 37 47  1  0  0  0
 37 66  1  0  0  0
 37106  1  0  0  0
 38 43  2  0  0  0
 38 46  1  0  0  0
 38 47  1  0  0  0
 39 64  1  0  0  0
 39 67  2  0  0  0
 40 52  1  0  0  0
 40 53  2  0  0  0
 40 58  1  0  0  0
 41107  1  0  0  0
 41108  1  0  0  0
 41109  1  0  0  0
 41 48  1  0  0  0
 42 43  1  0  0  0
 42 66  1  0  0  0
 42110  1  0  0  0
 42111  1  0  0  0
 43 44  1  0  0  0
 44112  1  0  0  0
 45 46  2  0  0  0
 45113  1  0  0  0
 46114  1  0  0  0
 47115  1  0  0  0
 47116  1  0  0  0
 48 56  1  0  0  0
 48 65  1  0  0  0
 48117  1  0  0  0
 49 50  1  0  0  0
 49 53  1  0  0  0
 49 64  1  0  0  0
 49118  1  0  0  0
 50 51  1  0  0  0
 50119  1  0  0  0
 50120  1  0  0  0
 51 52  1  0  0  0
 51121  1  0  0  0
 51122  1  0  0  0
 52123  1  0  0  0
 52124  1  0  0  0
 53 54  1  0  0  0
 54 55  2  0  0  0
 54125  1  0  0  0
 55 57  1  0  0  0
 55126  1  0  0  0
 56 69  2  0  0  0
 57 58  2  0  0  0
 57127  1  0  0  0
 58128  1  0  0  0
 59 60  1  0  0  0
 59 61  1  0  0  0
 59 62  1  0  0  0
 60129  1  0  0  0
 60130  1  0  0  0
 60131  1  0  0  0
 61132  1  0  0  0
 61133  1  0  0  0
 61134  1  0  0  0
 62135  1  0  0  0
 62136  1  0  0  0
 62137  1  0  0  0
 63 65  1  0  0  0
 63138  1  0  0  0
 63139  1  0  0  0
 63140  1  0  0  0
 64141  1  0  0  0
 65142  1  0  0  0
 68 81  1  0  0  0
 71 73  2  0  0  0
 71 74  1  0  0  0
 71143  1  0  0  0
 72 74  2  0  0  0
 72 82  1  0  0  0
 72144  1  0  0  0
 73 75  1  0  0  0
 73 79  1  0  0  0
 74 80  1  0  0  0
 75 81  1  0  0  0
 75 82  2  0  0  0
 76 77  1  0  0  0
 76 78  1  0  0  0
 76145  1  0  0  0
 76146  1  0  0  0
 77 79  1  0  0  0
 77147  1  0  0  0
 77148  1  0  0  0
 78 79  1  0  0  0
 78149  1  0  0  0
 78150  1  0  0  0
 79151  1  0  0  0
 80 83  1  0  0  0
 80152  1  0  0  0
 80153  1  0  0  0
 81154  1  0  0  0
 81155  1  0  0  0
 83156  1  0  0  0
M  ISO  4   1 100  68 101  81 101  83 100
M  END
> <chiral flag>
0

> <version>
0

> <s_m_source_file>
/data/baiqing/PycharmProjects/Reinvent-master-3.2/result/LINK_invent/BTK/process_docking_weight1_custom_sum_contain_oxygen_bond_distance_aromatic_linkinvent_7_9_3/rearranged_h_0123.sdf

> <i_m_source_file_index>
33

> <r_mmod_Potential_Energy-OPLS-2005>
1036.35876464844

> <r_mmod_Stretch_Energy-OPLS-2005>
474.459594726562

> <r_mmod_Bend_Energy-OPLS-2005>
464.775299072266

> <r_mmod_Torsional_Energy-OPLS-2005>
225.819580078125

> <r_mmod_Improper_Torsional_Energy-OPLS-2005>
4.42595195770264

> <r_mmod_Van_der_Waal_Energy-OPLS-2005>
138.460357666016

> <r_mmod_Electrostatic_Energy-OPLS-2005>
-440.081573486328

> <r_mmod_Solvation_Energy-OPLS-2005>
-233.961242675781

> <b_mmod_Minimization_Converged-OPLS-2005>
0

> <r_mmod_RMS_Derivative-OPLS-2005>
0.687802135944366

$$$$
33
                    3D
 Structure written by MMmdl.
160169  0  0  1  0            999 V2000
  -30.6408  -14.5351   20.5189 C   0  0  0  0  0  0
  -30.4289  -12.3311   19.4278 C   0  0  0  0  0  0
  -29.4977  -12.5100   18.2089 C   0  0  0  0  0  0
  -28.0169  -12.3673   18.6187 C   0  0  0  0  0  0
  -27.6569  -13.2067   19.8735 C   0  0  2  0  0  0
  -28.7018  -12.9995   20.9937 C   0  0  0  0  0  0
  -25.2564  -13.8157   20.5680 C   0  0  0  0  0  0
  -24.1818  -13.0426   20.9177 C   0  0  0  0  0  0
  -24.6378  -11.6902   20.8725 C   0  0  0  0  0  0
  -23.9048  -10.4288   21.0402 C   0  0  0  0  0  0
  -24.3602   -9.4213   21.9186 C   0  0  0  0  0  0
  -23.6292   -8.2243   22.0760 C   0  0  0  0  0  0
  -22.4276   -8.0273   21.3550 C   0  0  0  0  0  0
  -21.9900   -9.0237   20.4639 C   0  0  0  0  0  0
  -22.7224  -10.2123   20.3050 C   0  0  0  0  0  0
  -21.6852   -6.0726   22.5279 C   0  0  0  0  0  0
  -21.4014   -6.5636   23.8207 C   0  0  0  0  0  0
  -21.3667   -5.6795   24.9174 C   0  0  0  0  0  0
  -21.6053   -4.3057   24.7228 C   0  0  0  0  0  0
  -21.8819   -3.8146   23.4346 C   0  0  0  0  0  0
  -21.9189   -4.6954   22.3397 C   0  0  0  0  0  0
  -22.7839  -13.5220   21.1837 C   0  0  0  0  0  0
  -22.1663   -4.2131   21.0977 F   0  0  0  0  0  0
  -21.5634   -3.4546   25.7745 F   0  0  0  0  0  0
  -30.0257  -13.3232   20.4363 N   0  0  0  0  0  0
  -26.2994  -12.9324   20.3357 N   0  0  0  0  0  0
  -25.9307  -11.6485   20.5764 N   0  0  0  0  0  0
  -22.0491  -12.8191   22.0383 N   0  0  0  0  0  0
  -25.4261  -15.1877   20.4061 N   0  0  0  0  0  0
  -31.7938  -14.7283   20.1215 O   0  0  0  0  0  0
  -21.6647   -6.8872   21.4247 O   0  0  0  0  0  0
  -22.3524  -14.5540   20.6714 O   0  0  0  0  0  0
  -24.6189  -31.8635   23.2053 C   0  0  0  0  0  0
  -25.9068  -32.4801   23.8361 C   0  0  1  0  0  0
  -27.2429  -27.4027   20.0929 C   0  0  0  0  0  0
  -25.5922  -33.8599   24.2301 N   0  0  0  0  0  0
  -23.4083  -30.4867   21.5433 C   0  0  2  0  0  0
  -24.8562  -28.9425   20.1127 C   0  0  0  0  0  0
  -22.7424  -29.4655   22.4941 C   0  0  0  0  0  0
  -18.0283  -28.1392   22.8497 C   0  0  0  0  0  0
  -24.1492  -36.7309   23.2640 C   0  0  0  0  0  0
  -25.9401  -30.8195   21.3620 C   0  0  0  0  0  0
  -26.0164  -29.4485   20.7128 C   0  0  0  0  0  0
  -27.2070  -28.6813   20.7063 C   0  0  0  0  0  0
  -26.0574  -26.9121   19.4999 C   0  0  0  0  0  0
  -24.8731  -27.6739   19.5058 C   0  0  0  0  0  0
  -23.6198  -29.8140   20.1601 C   0  0  0  0  0  0
  -25.4122  -36.3097   24.0331 C   0  0  1  0  0  0
  -20.5872  -28.3693   23.1309 C   0  0  2  0  0  0
  -20.6772  -26.9421   22.5419 C   0  0  0  0  0  0
  -19.5740  -26.6395   21.5228 C   0  0  0  0  0  0
  -18.1920  -26.7943   22.1628 C   0  0  0  0  0  0
  -19.1528  -28.8859   23.2905 C   0  0  0  0  0  0
  -18.9457  -30.1473   23.8904 C   0  0  0  0  0  0
  -17.6454  -30.6603   24.0571 C   0  0  0  0  0  0
  -25.9050  -34.9464   23.5111 C   0  0  0  0  0  0
  -16.5351  -29.9103   23.6337 C   0  0  0  0  0  0
  -16.7273  -28.6522   23.0351 C   0  0  0  0  0  0
  -26.4485  -31.6590   25.0703 C   0  0  0  0  0  0
  -25.3753  -31.3667   26.1446 C   0  0  0  0  0  0
  -27.0358  -30.3050   24.6092 C   0  0  0  0  0  0
  -27.6037  -32.4315   25.7498 C   0  0  0  0  0  0
  -27.5576  -37.1833   24.8467 C   0  0  0  0  0  0
  -21.4145  -29.3048   22.3699 N   0  0  0  0  0  0
  -26.4302  -37.3788   23.9391 N   0  0  0  0  0  0
  -24.6735  -31.0722   22.0951 N   0  0  0  0  0  0
  -23.4184  -28.8210   23.3001 O   0  0  0  0  0  0
  -28.4153  -26.6626   20.1231 O   0  0  0  0  0  0
  -26.5604  -34.8917   22.4667 O   0  0  0  0  0  0
  -23.5380  -32.1389   23.7448 O   0  0  0  0  0  0
  -28.3236  -21.8491   18.7135 C   0  0  0  0  0  0
  -28.9820  -22.2784   20.9997 C   0  0  0  0  0  0
  -28.2709  -23.2405   18.4667 C   0  0  0  0  0  0
  -28.9216  -23.6772   20.7542 C   0  0  0  0  0  0
  -28.7021  -21.3340   19.9758 C   0  0  0  0  0  0
  -28.5783  -24.1803   19.4763 C   0  0  0  0  0  0
  -29.1002  -19.3046   21.6090 C   0  0  0  0  0  0
  -29.7817  -19.1020   19.2160 C   0  0  0  0  0  0
  -29.0854  -17.7568   21.7414 C   0  0  0  0  0  0
  -29.7785  -17.5515   19.3263 C   0  0  0  0  0  0
  -28.7785  -19.7928   20.1749 C   0  0  2  0  0  0
  -30.0369  -17.0222   20.7614 C   0  0  2  0  0  0
  -28.6760  -25.6762   19.1012 C   0  0  0  0  0  0
  -29.8228  -15.5583   20.8616 N   0  0  0  0  0  0
  -31.4726  -12.4436   19.1300 H   0  0  0  0  0  0
  -30.3376  -11.3235   19.8363 H   0  0  0  0  0  0
  -29.7435  -11.7803   17.4355 H   0  0  0  0  0  0
  -29.6595  -13.4938   17.7650 H   0  0  0  0  0  0
  -27.8259  -11.3108   18.8108 H   0  0  0  0  0  0
  -27.3698  -12.6460   17.7861 H   0  0  0  0  0  0
  -27.6916  -14.2523   19.5688 H   0  0  0  0  0  0
  -28.6902  -11.9649   21.3405 H   0  0  0  0  0  0
  -28.4668  -13.6048   21.8703 H   0  0  0  0  0  0
  -25.2744   -9.5694   22.4752 H   0  0  0  0  0  0
  -24.0004   -7.4642   22.7488 H   0  0  0  0  0  0
  -21.0838   -8.8744   19.8929 H   0  0  0  0  0  0
  -22.3684  -10.9654   19.6151 H   0  0  0  0  0  0
  -21.2008   -7.6144   23.9700 H   0  0  0  0  0  0
  -21.1501   -6.0534   25.9079 H   0  0  0  0  0  0
  -22.0587   -2.7602   23.2860 H   0  0  0  0  0  0
  -22.4149  -11.9847   22.4722 H   0  0  0  0  0  0
  -21.1098  -13.1182   22.2601 H   0  0  0  0  0  0
  -24.6527  -15.8371   20.5040 H   0  0  0  0  0  0
  -26.2679  -15.6248   20.0529 H   0  0  0  0  0  0
  -26.7154  -32.5502   23.1137 H   0  0  0  0  0  0
  -25.0090  -33.9747   25.0458 H   0  0  0  0  0  0
  -22.6988  -31.3040   21.3994 H   0  0  0  0  0  0
  -23.3758  -35.9633   23.3284 H   0  0  0  0  0  0
  -24.3566  -36.8949   22.2052 H   0  0  0  0  0  0
  -23.7249  -37.6508   23.6675 H   0  0  0  0  0  0
  -26.0558  -31.5813   20.5893 H   0  0  0  0  0  0
  -26.8300  -30.8772   21.9785 H   0  0  0  0  0  0
  -28.1023  -29.0684   21.1738 H   0  0  0  0  0  0
  -26.0306  -25.9294   19.0503 H   0  0  0  0  0  0
  -23.9793  -27.2723   19.0482 H   0  0  0  0  0  0
  -23.7344  -30.5870   19.3993 H   0  0  0  0  0  0
  -22.7430  -29.2354   19.8616 H   0  0  0  0  0  0
  -25.1310  -36.1955   25.0829 H   0  0  0  0  0  0
  -20.9985  -28.3284   24.1419 H   0  0  0  0  0  0
  -20.5712  -26.2288   23.3609 H   0  0  0  0  0  0
  -21.6639  -26.7469   22.1193 H   0  0  0  0  0  0
  -19.6890  -25.6318   21.1230 H   0  0  0  0  0  0
  -19.6677  -27.3226   20.6779 H   0  0  0  0  0  0
  -17.4195  -26.6734   21.4017 H   0  0  0  0  0  0
  -18.0279  -26.0083   22.9015 H   0  0  0  0  0  0
  -19.7941  -30.7305   24.2245 H   0  0  0  0  0  0
  -17.5017  -31.6268   24.5201 H   0  0  0  0  0  0
  -15.5356  -30.3006   23.7662 H   0  0  0  0  0  0
  -15.8673  -28.0864   22.7026 H   0  0  0  0  0  0
  -24.5921  -30.7026   25.7771 H   0  0  0  0  0  0
  -24.8948  -32.2807   26.4938 H   0  0  0  0  0  0
  -25.8119  -30.8798   27.0176 H   0  0  0  0  0  0
  -26.2919  -29.6769   24.1179 H   0  0  0  0  0  0
  -27.4189  -29.7325   25.4552 H   0  0  0  0  0  0
  -27.8706  -30.4402   23.9211 H   0  0  0  0  0  0
  -27.2660  -33.3635   26.2044 H   0  0  0  0  0  0
  -28.3885  -32.6840   25.0355 H   0  0  0  0  0  0
  -28.0651  -31.8437   26.5447 H   0  0  0  0  0  0
  -28.2613  -38.0112   24.7499 H   0  0  0  0  0  0
  -28.1054  -36.2637   24.6342 H   0  0  0  0  0  0
  -27.2264  -37.1558   25.8863 H   0  0  0  0  0  0
  -20.9304  -29.8774   21.6932 H   0  0  0  0  0  0
  -26.0179  -38.2867   24.1363 H   0  0  0  0  0  0
  -28.0899  -21.1717   17.9048 H   0  0  0  0  0  0
  -29.2642  -21.9443   21.9874 H   0  0  0  0  0  0
  -28.0230  -23.5841   17.4718 H   0  0  0  0  0  0
  -29.1801  -24.3673   21.5446 H   0  0  0  0  0  0
  -30.0771  -19.6804   21.9176 H   0  0  0  0  0  0
  -28.3730  -19.7189   22.3078 H   0  0  0  0  0  0
  -29.5560  -19.3693   18.1838 H   0  0  0  0  0  0
  -30.7853  -19.4831   19.4085 H   0  0  0  0  0  0
  -28.0631  -17.4062   21.5884 H   0  0  0  0  0  0
  -29.3450  -17.4850   22.7649 H   0  0  0  0  0  0
  -30.5322  -17.1483   18.6486 H   0  0  0  0  0  0
  -28.8189  -17.1794   18.9640 H   0  0  0  0  0  0
  -27.7803  -19.4271   19.9253 H   0  0  0  0  0  0
  -31.0684  -17.2478   21.0400 H   0  0  0  0  0  0
  -28.1050  -25.8807   18.1949 H   0  0  0  0  0  0
  -29.7130  -25.8294   18.8006 H   0  0  0  0  0  0
  -28.9010  -15.2674   21.1500 H   0  0  0  0  0  0
  1 25  1  0  0  0
  1 30  2  0  0  0
  1 84  1  0  0  0
  2  3  1  0  0  0
  2 25  1  0  0  0
  2 85  1  0  0  0
  2 86  1  0  0  0
  3  4  1  0  0  0
  3 87  1  0  0  0
  3 88  1  0  0  0
  4  5  1  0  0  0
  4 89  1  0  0  0
  4 90  1  0  0  0
  5  6  1  0  0  0
  5 26  1  0  0  0
  5 91  1  0  0  0
  6 25  1  0  0  0
  6 92  1  0  0  0
  6 93  1  0  0  0
  7  8  2  0  0  0
  7 26  1  0  0  0
  7 29  1  0  0  0
  8  9  1  0  0  0
  8 22  1  0  0  0
  9 10  1  0  0  0
  9 27  2  0  0  0
 10 11  2  0  0  0
 10 15  1  0  0  0
 11 12  1  0  0  0
 11 94  1  0  0  0
 12 13  2  0  0  0
 12 95  1  0  0  0
 13 14  1  0  0  0
 13 31  1  0  0  0
 14 15  2  0  0  0
 14 96  1  0  0  0
 15 97  1  0  0  0
 16 17  2  0  0  0
 16 21  1  0  0  0
 16 31  1  0  0  0
 17 18  1  0  0  0
 17 98  1  0  0  0
 18 19  2  0  0  0
 18 99  1  0  0  0
 19 20  1  0  0  0
 19 24  1  0  0  0
 20 21  2  0  0  0
 20100  1  0  0  0
 21 23  1  0  0  0
 22 28  1  0  0  0
 22 32  2  0  0  0
 26 27  1  0  0  0
 28101  1  0  0  0
 28102  1  0  0  0
 29103  1  0  0  0
 29104  1  0  0  0
 33 34  1  0  0  0
 33 66  1  0  0  0
 33 70  2  0  0  0
 34 36  1  0  0  0
 34 59  1  0  0  0
 34105  1  0  0  0
 35 44  2  0  0  0
 35 45  1  0  0  0
 35 68  1  0  0  0
 36 56  1  0  0  0
 36106  1  0  0  0
 37 39  1  0  0  0
 37 47  1  0  0  0
 37 66  1  0  0  0
 37107  1  0  0  0
 38 43  2  0  0  0
 38 46  1  0  0  0
 38 47  1  0  0  0
 39 64  1  0  0  0
 39 67  2  0  0  0
 40 52  1  0  0  0
 40 53  2  0  0  0
 40 58  1  0  0  0
 41108  1  0  0  0
 41109  1  0  0  0
 41110  1  0  0  0
 41 48  1  0  0  0
 42 43  1  0  0  0
 42 66  1  0  0  0
 42111  1  0  0  0
 42112  1  0  0  0
 43 44  1  0  0  0
 44113  1  0  0  0
 45 46  2  0  0  0
 45114  1  0  0  0
 46115  1  0  0  0
 47116  1  0  0  0
 47117  1  0  0  0
 48 56  1  0  0  0
 48 65  1  0  0  0
 48118  1  0  0  0
 49 50  1  0  0  0
 49 53  1  0  0  0
 49 64  1  0  0  0
 49119  1  0  0  0
 50 51  1  0  0  0
 50120  1  0  0  0
 50121  1  0  0  0
 51 52  1  0  0  0
 51122  1  0  0  0
 51123  1  0  0  0
 52124  1  0  0  0
 52125  1  0  0  0
 53 54  1  0  0  0
 54 55  2  0  0  0
 54126  1  0  0  0
 55 57  1  0  0  0
 55127  1  0  0  0
 56 69  2  0  0  0
 57 58  2  0  0  0
 57128  1  0  0  0
 58129  1  0  0  0
 59 60  1  0  0  0
 59 61  1  0  0  0
 59 62  1  0  0  0
 60130  1  0  0  0
 60131  1  0  0  0
 60132  1  0  0  0
 61133  1  0  0  0
 61134  1  0  0  0
 61135  1  0  0  0
 62136  1  0  0  0
 62137  1  0  0  0
 62138  1  0  0  0
 63 65  1  0  0  0
 63139  1  0  0  0
 63140  1  0  0  0
 63141  1  0  0  0
 64142  1  0  0  0
 65143  1  0  0  0
 68 83  1  0  0  0
 71 73  2  0  0  0
 71 75  1  0  0  0
 71144  1  0  0  0
 72 74  1  0  0  0
 72 75  2  0  0  0
 72145  1  0  0  0
 73 76  1  0  0  0
 73146  1  0  0  0
 74 76  2  0  0  0
 74147  1  0  0  0
 75 81  1  0  0  0
 76 83  1  0  0  0
 77 79  1  0  0  0
 77 81  1  0  0  0
 77148  1  0  0  0
 77149  1  0  0  0
 78 80  1  0  0  0
 78 81  1  0  0  0
 78150  1  0  0  0
 78151  1  0  0  0
 79 82  1  0  0  0
 79152  1  0  0  0
 79153  1  0  0  0
 80 82  1  0  0  0
 80154  1  0  0  0
 80155  1  0  0  0
 81156  1  0  0  0
 82 84  1  0  0  0
 82157  1  0  0  0
 83158  1  0  0  0
 83159  1  0  0  0
 84160  1  0  0  0
M  ISO  4   1 100  68 101  83 101  84 100
M  END
> <chiral flag>
0

> <version>
0

> <s_m_source_file>
/data/baiqing/PycharmProjects/Reinvent-master-3.2/result/LINK_invent/BTK/process_docking_weight1_custom_sum_contain_oxygen_bond_distance_aromatic_linkinvent_7_9_3/rearranged_h_0123.sdf

> <i_m_source_file_index>
34

> <r_mmod_Potential_Energy-OPLS-2005>
-10.5654964447021

> <r_mmod_Stretch_Energy-OPLS-2005>
46.4833984375

> <r_mmod_Bend_Energy-OPLS-2005>
111.887908935547

> <r_mmod_Torsional_Energy-OPLS-2005>
227.869827270508

> <r_mmod_Improper_Torsional_Energy-OPLS-2005>
5.75639772415161

> <r_mmod_Van_der_Waal_Energy-OPLS-2005>
145.925445556641

> <r_mmod_Electrostatic_Energy-OPLS-2005>
-368.930633544922

> <r_mmod_Solvation_Energy-OPLS-2005>
-200.22119140625

> <b_mmod_Minimization_Converged-OPLS-2005>
0

> <r_mmod_RMS_Derivative-OPLS-2005>
1.85504686832428

$$$$
34
                    3D
 Structure written by MMmdl.
157166  0  0  1  0            999 V2000
  -30.5806  -14.7614   20.4662 C   0  0  0  0  0  0
  -30.4315  -12.4629   19.5079 C   0  0  0  0  0  0
  -29.5146  -12.5036   18.2640 C   0  0  0  0  0  0
  -28.0389  -12.3192   18.6665 C   0  0  0  0  0  0
  -27.6345  -13.2282   19.8574 C   0  0  2  0  0  0
  -28.6678  -13.1659   21.0032 C   0  0  0  0  0  0
  -25.2429  -13.8198   20.5703 C   0  0  0  0  0  0
  -24.1727  -13.0454   20.9212 C   0  0  0  0  0  0
  -24.6316  -11.6925   20.8765 C   0  0  0  0  0  0
  -23.9008  -10.4291   21.0415 C   0  0  0  0  0  0
  -24.3574   -9.4216   21.9195 C   0  0  0  0  0  0
  -23.6272   -8.2241   22.0758 C   0  0  0  0  0  0
  -22.4268   -8.0259   21.3530 C   0  0  0  0  0  0
  -21.9882   -9.0229   20.4635 C   0  0  0  0  0  0
  -22.7185  -10.2118   20.3056 C   0  0  0  0  0  0
  -21.6845   -6.0722   22.5277 C   0  0  0  0  0  0
  -21.4004   -6.5630   23.8206 C   0  0  0  0  0  0
  -21.3664   -5.6786   24.9171 C   0  0  0  0  0  0
  -21.6051   -4.3054   24.7227 C   0  0  0  0  0  0
  -21.8811   -3.8134   23.4348 C   0  0  0  0  0  0
  -21.9186   -4.6950   22.3405 C   0  0  0  0  0  0
  -22.7739  -13.5217   21.1887 C   0  0  0  0  0  0
  -22.1660   -4.2131   21.0984 F   0  0  0  0  0  0
  -21.5633   -3.4549   25.7745 F   0  0  0  0  0  0
  -29.9761  -13.5225   20.4385 N   0  0  0  0  0  0
  -26.2844  -12.9405   20.3279 N   0  0  0  0  0  0
  -25.9234  -11.6552   20.5743 N   0  0  0  0  0  0
  -22.0391  -12.8214   22.0446 N   0  0  0  0  0  0
  -25.4154  -15.1936   20.4132 N   0  0  0  0  0  0
  -31.7551  -14.8712   20.0994 O   0  0  0  0  0  0
  -21.6636   -6.8861   21.4233 O   0  0  0  0  0  0
  -22.3425  -14.5525   20.6728 O   0  0  0  0  0  0
  -24.6387  -31.8517   23.1967 C   0  0  0  0  0  0
  -25.9170  -32.4743   23.8364 C   0  0  1  0  0  0
  -27.2299  -27.2425   20.1254 C   0  0  0  0  0  0
  -25.5930  -33.8544   24.2289 N   0  0  0  0  0  0
  -23.4401  -30.4735   21.5413 C   0  0  2  0  0  0
  -24.8859  -28.9164   20.1125 C   0  0  0  0  0  0
  -22.7545  -29.4600   22.4916 C   0  0  0  0  0  0
  -18.0295  -28.1375   22.8481 C   0  0  0  0  0  0
  -24.1468  -36.7281   23.2650 C   0  0  0  0  0  0
  -25.9898  -30.7569   21.3797 C   0  0  0  0  0  0
  -26.0608  -29.3793   20.7196 C   0  0  0  0  0  0
  -27.2370  -28.5574   20.7100 C   0  0  0  0  0  0
  -26.0336  -26.8624   19.4755 C   0  0  0  0  0  0
  -24.8794  -27.6665   19.4777 C   0  0  0  0  0  0
  -23.6578  -29.8038   20.1601 C   0  0  0  0  0  0
  -25.4089  -36.3084   24.0360 C   0  0  1  0  0  0
  -20.5907  -28.3709   23.1238 C   0  0  2  0  0  0
  -20.6776  -26.9417   22.5393 C   0  0  0  0  0  0
  -19.5740  -26.6380   21.5204 C   0  0  0  0  0  0
  -18.1926  -26.7916   22.1617 C   0  0  0  0  0  0
  -19.1552  -28.8861   23.2852 C   0  0  0  0  0  0
  -18.9457  -30.1454   23.8884 C   0  0  0  0  0  0
  -17.6451  -30.6570   24.0558 C   0  0  0  0  0  0
  -25.9040  -34.9444   23.5138 C   0  0  0  0  0  0
  -16.5347  -29.9062   23.6327 C   0  0  0  0  0  0
  -16.7280  -28.6476   23.0363 C   0  0  0  0  0  0
  -26.4491  -31.6583   25.0782 C   0  0  0  0  0  0
  -25.3702  -31.3722   26.1505 C   0  0  0  0  0  0
  -27.0354  -30.2999   24.6301 C   0  0  0  0  0  0
  -27.6058  -32.4333   25.7523 C   0  0  0  0  0  0
  -27.5578  -37.1789   24.8460 C   0  0  0  0  0  0
  -21.4250  -29.3053   22.3636 N   0  0  0  0  0  0
  -26.4273  -37.3783   23.9431 N   0  0  0  0  0  0
  -24.7095  -31.0473   22.0946 N   0  0  0  0  0  0
  -23.4209  -28.8135   23.3046 O   0  0  0  0  0  0
  -28.3078  -26.3203   20.2010 O   0  0  0  0  0  0
  -26.5614  -34.8918   22.4707 O   0  0  0  0  0  0
  -23.5517  -32.1340   23.7223 O   0  0  0  0  0  0
  -30.3500  -21.2814   21.7788 C   0  0  0  0  0  0
  -30.9947  -20.1859   22.3943 C   0  0  0  0  0  0
  -30.7836  -18.8780   21.8838 C   0  0  0  0  0  0
  -29.9496  -18.6910   20.7535 C   0  0  0  0  0  0
  -29.4817  -21.0965   20.6948 C   0  0  0  0  0  0
  -31.3444  -20.8386   24.9111 C   0  0  0  0  0  0
  -32.2304  -21.7862   24.1410 C   0  0  0  0  0  0
  -31.9095  -20.4179   23.5719 C   0  0  0  0  0  0
  -29.9289  -17.2691   20.0088 C   0  0  0  0  0  0
  -28.0376  -24.8384   20.0115 C   0  0  0  0  0  0
  -29.0173  -23.6401   20.5249 C   0  0  0  0  0  0
  -29.3047  -19.8055   20.1916 N   0  0  0  0  0  0
  -29.7873  -15.8829   20.6585 N   0  0  0  0  0  0
  -28.7854  -22.2048   20.1096 O   0  0  0  0  0  0
  -31.6023  -17.5336   22.6109 Cl  0  0  0  0  0  0
  -31.4701  -12.6013   19.2045 H   0  0  0  0  0  0
  -30.3956  -11.4889   19.9974 H   0  0  0  0  0  0
  -29.8088  -11.7333   17.5511 H   0  0  0  0  0  0
  -29.6365  -13.4611   17.7567 H   0  0  0  0  0  0
  -27.8938  -11.2711   18.9353 H   0  0  0  0  0  0
  -27.3881  -12.5027   17.8119 H   0  0  0  0  0  0
  -27.6301  -14.2459   19.4684 H   0  0  0  0  0  0
  -28.6914  -12.1640   21.4375 H   0  0  0  0  0  0
  -28.3878  -13.8438   21.8112 H   0  0  0  0  0  0
  -25.2710   -9.5724   22.4775 H   0  0  0  0  0  0
  -23.9990   -7.4624   22.7471 H   0  0  0  0  0  0
  -21.0827   -8.8713   19.8928 H   0  0  0  0  0  0
  -22.3620  -10.9651   19.6167 H   0  0  0  0  0  0
  -21.1993   -7.6135   23.9705 H   0  0  0  0  0  0
  -21.1504   -6.0525   25.9072 H   0  0  0  0  0  0
  -22.0589   -2.7596   23.2859 H   0  0  0  0  0  0
  -22.4005  -11.9876   22.4841 H   0  0  0  0  0  0
  -21.0988  -13.1201   22.2642 H   0  0  0  0  0  0
  -24.6500  -15.8516   20.5129 H   0  0  0  0  0  0
  -26.2619  -15.6265   20.0697 H   0  0  0  0  0  0
  -26.7268  -32.5366   23.1135 H   0  0  0  0  0  0
  -25.0117  -33.9658   25.0467 H   0  0  0  0  0  0
  -22.7430  -31.2995   21.3906 H   0  0  0  0  0  0
  -23.3755  -35.9585   23.3275 H   0  0  0  0  0  0
  -24.3590  -36.8924   22.2075 H   0  0  0  0  0  0
  -23.7167  -37.6461   23.6670 H   0  0  0  0  0  0
  -26.1410  -31.5088   20.6045 H   0  0  0  0  0  0
  -26.8660  -30.8046   22.0161 H   0  0  0  0  0  0
  -28.1389  -28.9084   21.1927 H   0  0  0  0  0  0
  -25.9549  -25.9113   18.9707 H   0  0  0  0  0  0
  -23.9844  -27.3037   18.9908 H   0  0  0  0  0  0
  -23.7818  -30.5763   19.4013 H   0  0  0  0  0  0
  -22.7753  -29.2356   19.8600 H   0  0  0  0  0  0
  -25.1248  -36.1979   25.0855 H   0  0  0  0  0  0
  -21.0003  -28.3283   24.1357 H   0  0  0  0  0  0
  -20.5665  -26.2318   23.3603 H   0  0  0  0  0  0
  -21.6642  -26.7409   22.1193 H   0  0  0  0  0  0
  -19.6904  -25.6293   21.1224 H   0  0  0  0  0  0
  -19.6668  -27.3197   20.6734 H   0  0  0  0  0  0
  -17.4194  -26.6676   21.4020 H   0  0  0  0  0  0
  -18.0314  -26.0051   22.9004 H   0  0  0  0  0  0
  -19.7932  -30.7270   24.2259 H   0  0  0  0  0  0
  -17.4997  -31.6247   24.5161 H   0  0  0  0  0  0
  -15.5348  -30.2951   23.7653 H   0  0  0  0  0  0
  -15.8678  -28.0780   22.7102 H   0  0  0  0  0  0
  -24.5929  -30.6992   25.7867 H   0  0  0  0  0  0
  -24.8811  -32.2857   26.4901 H   0  0  0  0  0  0
  -25.8039  -30.8974   27.0319 H   0  0  0  0  0  0
  -26.2970  -29.6740   24.1285 H   0  0  0  0  0  0
  -27.3976  -29.7282   25.4858 H   0  0  0  0  0  0
  -27.8863  -30.4283   23.9608 H   0  0  0  0  0  0
  -27.2706  -33.3676   26.2037 H   0  0  0  0  0  0
  -28.3866  -32.6823   25.0325 H   0  0  0  0  0  0
  -28.0719  -31.8498   26.5470 H   0  0  0  0  0  0
  -28.2574  -38.0112   24.7571 H   0  0  0  0  0  0
  -28.1099  -36.2656   24.6200 H   0  0  0  0  0  0
  -27.2315  -37.1338   25.8864 H   0  0  0  0  0  0
  -20.9462  -29.8789   21.6831 H   0  0  0  0  0  0
  -26.0170  -38.2866   24.1439 H   0  0  0  0  0  0
  -30.5288  -22.2722   22.1518 H   0  0  0  0  0  0
  -30.2887  -21.1029   24.9639 H   0  0  0  0  0  0
  -31.7636  -20.4006   25.8153 H   0  0  0  0  0  0
  -33.2390  -21.9377   24.5153 H   0  0  0  0  0  0
  -31.7495  -22.6832   23.7645 H   0  0  0  0  0  0
  -32.7476  -19.7242   23.5580 H   0  0  0  0  0  0
  -30.8623  -17.2467   19.4479 H   0  0  0  0  0  0
  -29.1519  -17.3112   19.2448 H   0  0  0  0  0  0
  -27.0733  -24.6290   20.4758 H   0  0  0  0  0  0
  -27.8918  -24.6879   18.9416 H   0  0  0  0  0  0
  -29.0105  -23.6917   21.6138 H   0  0  0  0  0  0
  -30.0335  -23.8887   20.2185 H   0  0  0  0  0  0
  -28.8610  -15.6916   21.0085 H   0  0  0  0  0  0
  1 25  1  0  0  0
  1 30  2  0  0  0
  1 83  1  0  0  0
  2  3  1  0  0  0
  2 25  1  0  0  0
  2 86  1  0  0  0
  2 87  1  0  0  0
  3  4  1  0  0  0
  3 88  1  0  0  0
  3 89  1  0  0  0
  4  5  1  0  0  0
  4 90  1  0  0  0
  4 91  1  0  0  0
  5  6  1  0  0  0
  5 26  1  0  0  0
  5 92  1  0  0  0
  6 25  1  0  0  0
  6 93  1  0  0  0
  6 94  1  0  0  0
  7  8  2  0  0  0
  7 26  1  0  0  0
  7 29  1  0  0  0
  8  9  1  0  0  0
  8 22  1  0  0  0
  9 10  1  0  0  0
  9 27  2  0  0  0
 10 11  2  0  0  0
 10 15  1  0  0  0
 11 12  1  0  0  0
 11 95  1  0  0  0
 12 13  2  0  0  0
 12 96  1  0  0  0
 13 14  1  0  0  0
 13 31  1  0  0  0
 14 15  2  0  0  0
 14 97  1  0  0  0
 15 98  1  0  0  0
 16 17  2  0  0  0
 16 21  1  0  0  0
 16 31  1  0  0  0
 17 18  1  0  0  0
 17 99  1  0  0  0
 18 19  2  0  0  0
 18100  1  0  0  0
 19 20  1  0  0  0
 19 24  1  0  0  0
 20 21  2  0  0  0
 20101  1  0  0  0
 21 23  1  0  0  0
 22 28  1  0  0  0
 22 32  2  0  0  0
 26 27  1  0  0  0
 28102  1  0  0  0
 28103  1  0  0  0
 29104  1  0  0  0
 29105  1  0  0  0
 33 34  1  0  0  0
 33 66  1  0  0  0
 33 70  2  0  0  0
 34 36  1  0  0  0
 34 59  1  0  0  0
 34106  1  0  0  0
 35 44  2  0  0  0
 35 45  1  0  0  0
 35 68  1  0  0  0
 36 56  1  0  0  0
 36107  1  0  0  0
 37 39  1  0  0  0
 37 47  1  0  0  0
 37 66  1  0  0  0
 37108  1  0  0  0
 38 43  2  0  0  0
 38 46  1  0  0  0
 38 47  1  0  0  0
 39 64  1  0  0  0
 39 67  2  0  0  0
 40 52  1  0  0  0
 40 53  2  0  0  0
 40 58  1  0  0  0
 41109  1  0  0  0
 41110  1  0  0  0
 41111  1  0  0  0
 41 48  1  0  0  0
 42 43  1  0  0  0
 42 66  1  0  0  0
 42112  1  0  0  0
 42113  1  0  0  0
 43 44  1  0  0  0
 44114  1  0  0  0
 45 46  2  0  0  0
 45115  1  0  0  0
 46116  1  0  0  0
 47117  1  0  0  0
 47118  1  0  0  0
 48 56  1  0  0  0
 48 65  1  0  0  0
 48119  1  0  0  0
 49 50  1  0  0  0
 49 53  1  0  0  0
 49 64  1  0  0  0
 49120  1  0  0  0
 50 51  1  0  0  0
 50121  1  0  0  0
 50122  1  0  0  0
 51 52  1  0  0  0
 51123  1  0  0  0
 51124  1  0  0  0
 52125  1  0  0  0
 52126  1  0  0  0
 53 54  1  0  0  0
 54 55  2  0  0  0
 54127  1  0  0  0
 55 57  1  0  0  0
 55128  1  0  0  0
 56 69  2  0  0  0
 57 58  2  0  0  0
 57129  1  0  0  0
 58130  1  0  0  0
 59 60  1  0  0  0
 59 61  1  0  0  0
 59 62  1  0  0  0
 60131  1  0  0  0
 60132  1  0  0  0
 60133  1  0  0  0
 61134  1  0  0  0
 61135  1  0  0  0
 61136  1  0  0  0
 62137  1  0  0  0
 62138  1  0  0  0
 62139  1  0  0  0
 63 65  1  0  0  0
 63140  1  0  0  0
 63141  1  0  0  0
 63142  1  0  0  0
 64143  1  0  0  0
 65144  1  0  0  0
 68 80  1  0  0  0
 71 72  2  0  0  0
 71 75  1  0  0  0
 71145  1  0  0  0
 72 73  1  0  0  0
 72 78  1  0  0  0
 73 74  2  0  0  0
 73 85  1  0  0  0
 74 79  1  0  0  0
 74 82  1  0  0  0
 75 82  2  0  0  0
 75 84  1  0  0  0
 76 77  1  0  0  0
 76 78  1  0  0  0
 76146  1  0  0  0
 76147  1  0  0  0
 77 78  1  0  0  0
 77148  1  0  0  0
 77149  1  0  0  0
 78150  1  0  0  0
 79 83  1  0  0  0
 79151  1  0  0  0
 79152  1  0  0  0
 80 81  1  0  0  0
 80153  1  0  0  0
 80154  1  0  0  0
 81 84  1  0  0  0
 81155  1  0  0  0
 81156  1  0  0  0
 83157  1  0  0  0
M  ISO  4   1 100  68 101  80 101  83 100
M  END
> <chiral flag>
0

> <version>
0

> <s_m_source_file>
/data/baiqing/PycharmProjects/Reinvent-master-3.2/result/LINK_invent/BTK/process_docking_weight1_custom_sum_contain_oxygen_bond_distance_aromatic_linkinvent_7_9_3/rearranged_h_0123.sdf

> <i_m_source_file_index>
35

> <r_mmod_Potential_Energy-OPLS-2005>
1.20494711399078

> <r_mmod_Stretch_Energy-OPLS-2005>
142.52734375

> <r_mmod_Bend_Energy-OPLS-2005>
185.224517822266

> <r_mmod_Torsional_Energy-OPLS-2005>
239.662719726562

> <r_mmod_Improper_Torsional_Energy-OPLS-2005>
8.13430309295654

> <r_mmod_Van_der_Waal_Energy-OPLS-2005>
151.669555664062

> <r_mmod_Electrostatic_Energy-OPLS-2005>
-599.460632324219

> <r_mmod_Solvation_Energy-OPLS-2005>
-224.589813232422

> <b_mmod_Minimization_Converged-OPLS-2005>
0

> <r_mmod_RMS_Derivative-OPLS-2005>
3.51630520820618

$$$$
35
                    3D
 Structure written by MMmdl.
168177  0  0  1  0            999 V2000
  -30.6978  -14.4512   20.5986 C   0  0  0  0  0  0
  -30.4297  -12.3012   19.4104 C   0  0  0  0  0  0
  -29.4933  -12.5131   18.2017 C   0  0  0  0  0  0
  -28.0140  -12.3745   18.6155 C   0  0  0  0  0  0
  -27.6665  -13.2007   19.8820 C   0  0  2  0  0  0
  -28.7087  -12.9476   20.9953 C   0  0  0  0  0  0
  -25.2613  -13.8151   20.5680 C   0  0  0  0  0  0
  -24.1854  -13.0438   20.9176 C   0  0  0  0  0  0
  -24.6395  -11.6899   20.8733 C   0  0  0  0  0  0
  -23.9052  -10.4291   21.0403 C   0  0  0  0  0  0
  -24.3607   -9.4209   21.9186 C   0  0  0  0  0  0
  -23.6285   -8.2239   22.0754 C   0  0  0  0  0  0
  -22.4267   -8.0276   21.3545 C   0  0  0  0  0  0
  -21.9901   -9.0248   20.4648 C   0  0  0  0  0  0
  -22.7223  -10.2131   20.3056 C   0  0  0  0  0  0
  -21.6854   -6.0728   22.5275 C   0  0  0  0  0  0
  -21.4013   -6.5636   23.8208 C   0  0  0  0  0  0
  -21.3662   -5.6789   24.9172 C   0  0  0  0  0  0
  -21.6041   -4.3050   24.7226 C   0  0  0  0  0  0
  -21.8822   -3.8143   23.4348 C   0  0  0  0  0  0
  -21.9194   -4.6954   22.3402 C   0  0  0  0  0  0
  -22.7876  -13.5242   21.1834 C   0  0  0  0  0  0
  -22.1663   -4.2140   21.0980 F   0  0  0  0  0  0
  -21.5629   -3.4535   25.7741 F   0  0  0  0  0  0
  -30.0438  -13.2654   20.4524 N   0  0  0  0  0  0
  -26.3047  -12.9306   20.3396 N   0  0  0  0  0  0
  -25.9324  -11.6470   20.5780 N   0  0  0  0  0  0
  -22.0511  -12.8238   22.0389 N   0  0  0  0  0  0
  -25.4349  -15.1863   20.4066 N   0  0  0  0  0  0
  -31.8092  -14.6602   20.0980 O   0  0  0  0  0  0
  -21.6639   -6.8872   21.4236 O   0  0  0  0  0  0
  -22.3568  -14.5552   20.6684 O   0  0  0  0  0  0
  -24.6127  -31.8700   23.2139 C   0  0  0  0  0  0
  -25.9024  -32.4839   23.8417 C   0  0  1  0  0  0
  -27.2358  -27.4523   20.0947 C   0  0  0  0  0  0
  -25.5881  -33.8641   24.2348 N   0  0  0  0  0  0
  -23.4009  -30.4941   21.5532 C   0  0  2  0  0  0
  -24.8504  -28.9585   20.1234 C   0  0  0  0  0  0
  -22.7404  -29.4670   22.5001 C   0  0  0  0  0  0
  -18.0281  -28.1383   22.8510 C   0  0  0  0  0  0
  -24.1477  -36.7316   23.2639 C   0  0  0  0  0  0
  -25.9290  -30.8363   21.3683 C   0  0  0  0  0  0
  -26.0080  -29.4666   20.7284 C   0  0  0  0  0  0
  -27.2066  -28.7149   20.7272 C   0  0  0  0  0  0
  -26.0676  -26.9582   19.4818 C   0  0  0  0  0  0
  -24.8709  -27.6972   19.5041 C   0  0  0  0  0  0
  -23.6111  -29.8249   20.1684 C   0  0  0  0  0  0
  -25.4101  -36.3127   24.0342 C   0  0  1  0  0  0
  -20.5874  -28.3654   23.1329 C   0  0  2  0  0  0
  -20.6774  -26.9392   22.5419 C   0  0  0  0  0  0
  -19.5743  -26.6395   21.5221 C   0  0  0  0  0  0
  -18.1922  -26.7939   22.1629 C   0  0  0  0  0  0
  -19.1531  -28.8835   23.2926 C   0  0  0  0  0  0
  -18.9455  -30.1448   23.8928 C   0  0  0  0  0  0
  -17.6457  -30.6595   24.0576 C   0  0  0  0  0  0
  -25.9025  -34.9488   23.5143 C   0  0  0  0  0  0
  -16.5353  -29.9097   23.6337 C   0  0  0  0  0  0
  -16.7273  -28.6513   23.0361 C   0  0  0  0  0  0
  -26.4468  -31.6616   25.0735 C   0  0  0  0  0  0
  -25.3738  -31.3721   26.1483 C   0  0  0  0  0  0
  -27.0296  -30.3066   24.6084 C   0  0  0  0  0  0
  -27.6048  -32.4330   25.7493 C   0  0  0  0  0  0
  -27.5581  -37.1812   24.8468 C   0  0  0  0  0  0
  -21.4136  -29.3029   22.3742 N   0  0  0  0  0  0
  -26.4296  -37.3803   23.9411 N   0  0  0  0  0  0
  -24.6655  -31.0809   22.1033 N   0  0  0  0  0  0
  -23.4186  -28.8212   23.3036 O   0  0  0  0  0  0
  -28.3747  -26.6921   19.9742 O   0  0  0  0  0  0
  -26.5585  -34.8935   22.4702 O   0  0  0  0  0  0
  -23.5323  -32.1449   23.7534 O   0  0  0  0  0  0
  -28.7988  -18.8764   21.4286 C   0  0  0  0  0  0
  -28.8532  -17.4725   21.4812 C   0  0  0  0  0  0
  -29.9684  -19.6016   21.1306 C   0  0  0  0  0  0
  -31.1491  -18.8626   20.8934 C   0  0  0  0  0  0
  -30.0613  -16.8028   21.2066 C   0  0  0  0  0  0
  -30.7854  -24.3082   21.5892 C   0  0  0  0  0  0
  -28.2976  -23.7379   21.8428 C   0  0  0  0  0  0
  -30.1827  -25.3401   20.6092 C   0  0  0  0  0  0
  -28.0018  -25.2438   21.9651 C   0  0  0  0  0  0
  -29.7371  -23.4238   22.3133 C   0  0  1  0  0  0
  -28.9724  -26.1428   21.1491 C   0  0  2  0  0  0
  -32.4635  -19.5428   20.5600 C   0  0  0  0  0  0
  -29.4006  -21.2261   23.5684 C   0  0  0  0  0  0
  -29.9065  -21.1332   21.0352 C   0  0  0  0  0  0
  -30.1014  -21.9053   22.3734 C   0  0  1  0  0  0
  -31.1851  -17.5089   20.9288 N   0  0  0  0  0  0
  -29.9863  -15.3845   21.2585 N   0  0  0  0  0  0
  -31.4716  -12.4105   19.1037 H   0  0  0  0  0  0
  -30.3389  -11.2831   19.7910 H   0  0  0  0  0  0
  -29.7272  -11.7962   17.4129 H   0  0  0  0  0  0
  -29.6625  -13.5025   17.7744 H   0  0  0  0  0  0
  -27.8180  -11.3177   18.7996 H   0  0  0  0  0  0
  -27.3633  -12.6640   17.7898 H   0  0  0  0  0  0
  -27.7201  -14.2535   19.6037 H   0  0  0  0  0  0
  -28.6835  -11.9005   21.3014 H   0  0  0  0  0  0
  -28.4638  -13.5090   21.8979 H   0  0  0  0  0  0
  -25.2751   -9.5683   22.4758 H   0  0  0  0  0  0
  -23.9993   -7.4633   22.7474 H   0  0  0  0  0  0
  -21.0830   -8.8767   19.8957 H   0  0  0  0  0  0
  -22.3684  -10.9668   19.6163 H   0  0  0  0  0  0
  -21.2008   -7.6145   23.9708 H   0  0  0  0  0  0
  -21.1480   -6.0523   25.9077 H   0  0  0  0  0  0
  -22.0600   -2.7601   23.2851 H   0  0  0  0  0  0
  -22.4119  -11.9897   22.4774 H   0  0  0  0  0  0
  -21.1132  -13.1279   22.2596 H   0  0  0  0  0  0
  -24.6649  -15.8398   20.5021 H   0  0  0  0  0  0
  -26.2781  -15.6188   20.0507 H   0  0  0  0  0  0
  -26.7100  -32.5566   23.1188 H   0  0  0  0  0  0
  -25.0045  -33.9806   25.0504 H   0  0  0  0  0  0
  -22.6903  -31.3118   21.4155 H   0  0  0  0  0  0
  -23.3738  -35.9651   23.3317 H   0  0  0  0  0  0
  -24.3575  -36.8906   22.2050 H   0  0  0  0  0  0
  -23.7225  -37.6527   23.6637 H   0  0  0  0  0  0
  -26.0370  -31.5969   20.5930 H   0  0  0  0  0  0
  -26.8190  -30.8973   21.9822 H   0  0  0  0  0  0
  -28.1032  -29.1103   21.1829 H   0  0  0  0  0  0
  -26.0879  -25.9988   18.9845 H   0  0  0  0  0  0
  -23.9817  -27.3025   19.0317 H   0  0  0  0  0  0
  -23.7175  -30.5998   19.4082 H   0  0  0  0  0  0
  -22.7354  -29.2443   19.8731 H   0  0  0  0  0  0
  -25.1278  -36.1996   25.0838 H   0  0  0  0  0  0
  -20.9982  -28.3212   24.1443 H   0  0  0  0  0  0
  -20.5683  -26.2255   23.3601 H   0  0  0  0  0  0
  -21.6639  -26.7450   22.1193 H   0  0  0  0  0  0
  -19.6891  -25.6312   21.1225 H   0  0  0  0  0  0
  -19.6680  -27.3233   20.6773 H   0  0  0  0  0  0
  -17.4198  -26.6715   21.4026 H   0  0  0  0  0  0
  -18.0309  -26.0085   22.9021 H   0  0  0  0  0  0
  -19.7932  -30.7271   24.2293 H   0  0  0  0  0  0
  -17.5015  -31.6274   24.5173 H   0  0  0  0  0  0
  -15.5351  -30.3006   23.7643 H   0  0  0  0  0  0
  -15.8682  -28.0843   22.7048 H   0  0  0  0  0  0
  -24.5898  -30.7084   25.7821 H   0  0  0  0  0  0
  -24.8950  -32.2882   26.4954 H   0  0  0  0  0  0
  -25.8089  -30.8876   27.0230 H   0  0  0  0  0  0
  -26.2836  -29.6832   24.1139 H   0  0  0  0  0  0
  -27.4089  -29.7293   25.4526 H   0  0  0  0  0  0
  -27.8662  -30.4408   23.9219 H   0  0  0  0  0  0
  -27.2667  -33.3609   26.2116 H   0  0  0  0  0  0
  -28.3830  -32.6914   25.0301 H   0  0  0  0  0  0
  -28.0743  -31.8427   26.5370 H   0  0  0  0  0  0
  -28.2608  -38.0102   24.7517 H   0  0  0  0  0  0
  -28.1062  -36.2632   24.6292 H   0  0  0  0  0  0
  -27.2302  -37.1460   25.8873 H   0  0  0  0  0  0
  -20.9293  -29.8755   21.6970 H   0  0  0  0  0  0
  -26.0184  -38.2882   24.1423 H   0  0  0  0  0  0
  -27.8659  -19.3880   21.6176 H   0  0  0  0  0  0
  -27.9493  -16.9253   21.7128 H   0  0  0  0  0  0
  -31.3749  -24.8399   22.3380 H   0  0  0  0  0  0
  -31.5027  -23.6897   21.0478 H   0  0  0  0  0  0
  -28.1449  -23.4291   20.8088 H   0  0  0  0  0  0
  -27.5765  -23.1813   22.4420 H   0  0  0  0  0  0
  -29.8695  -24.7983   19.7154 H   0  0  0  0  0  0
  -30.9585  -26.0275   20.2706 H   0  0  0  0  0  0
  -28.0831  -25.5227   23.0162 H   0  0  0  0  0  0
  -26.9604  -25.4281   21.7065 H   0  0  0  0  0  0
  -29.7727  -23.7671   23.3491 H   0  0  0  0  0  0
  -29.3283  -26.9564   21.7831 H   0  0  0  0  0  0
  -32.6965  -20.3149   21.2930 H   0  0  0  0  0  0
  -32.4129  -20.0073   19.5750 H   0  0  0  0  0  0
  -33.2920  -18.8338   20.5520 H   0  0  0  0  0  0
  -29.5631  -21.7825   24.4915 H   0  0  0  0  0  0
  -29.7877  -20.2221   23.7438 H   0  0  0  0  0  0
  -28.3249  -21.1471   23.4136 H   0  0  0  0  0  0
  -28.9286  -21.3657   20.6170 H   0  0  0  0  0  0
  -30.6184  -21.4934   20.2922 H   0  0  0  0  0  0
  -31.1650  -21.8486   22.6101 H   0  0  0  0  0  0
  -29.1244  -15.0248   21.6323 H   0  0  0  0  0  0
  1 25  1  0  0  0
  1 30  2  0  0  0
  1 87  1  0  0  0
  2  3  1  0  0  0
  2 25  1  0  0  0
  2 88  1  0  0  0
  2 89  1  0  0  0
  3  4  1  0  0  0
  3 90  1  0  0  0
  3 91  1  0  0  0
  4  5  1  0  0  0
  4 92  1  0  0  0
  4 93  1  0  0  0
  5  6  1  0  0  0
  5 26  1  0  0  0
  5 94  1  0  0  0
  6 25  1  0  0  0
  6 95  1  0  0  0
  6 96  1  0  0  0
  7  8  2  0  0  0
  7 26  1  0  0  0
  7 29  1  0  0  0
  8  9  1  0  0  0
  8 22  1  0  0  0
  9 10  1  0  0  0
  9 27  2  0  0  0
 10 11  2  0  0  0
 10 15  1  0  0  0
 11 12  1  0  0  0
 11 97  1  0  0  0
 12 13  2  0  0  0
 12 98  1  0  0  0
 13 14  1  0  0  0
 13 31  1  0  0  0
 14 15  2  0  0  0
 14 99  1  0  0  0
 15100  1  0  0  0
 16 17  2  0  0  0
 16 21  1  0  0  0
 16 31  1  0  0  0
 17 18  1  0  0  0
 17101  1  0  0  0
 18 19  2  0  0  0
 18102  1  0  0  0
 19 20  1  0  0  0
 19 24  1  0  0  0
 20 21  2  0  0  0
 20103  1  0  0  0
 21 23  1  0  0  0
 22 28  1  0  0  0
 22 32  2  0  0  0
 26 27  1  0  0  0
 28104  1  0  0  0
 28105  1  0  0  0
 29106  1  0  0  0
 29107  1  0  0  0
 33 34  1  0  0  0
 33 66  1  0  0  0
 33 70  2  0  0  0
 34 36  1  0  0  0
 34 59  1  0  0  0
 34108  1  0  0  0
 35 44  2  0  0  0
 35 45  1  0  0  0
 35 68  1  0  0  0
 36 56  1  0  0  0
 36109  1  0  0  0
 37 39  1  0  0  0
 37 47  1  0  0  0
 37 66  1  0  0  0
 37110  1  0  0  0
 38 43  2  0  0  0
 38 46  1  0  0  0
 38 47  1  0  0  0
 39 64  1  0  0  0
 39 67  2  0  0  0
 40 52  1  0  0  0
 40 53  2  0  0  0
 40 58  1  0  0  0
 41111  1  0  0  0
 41112  1  0  0  0
 41113  1  0  0  0
 41 48  1  0  0  0
 42 43  1  0  0  0
 42 66  1  0  0  0
 42114  1  0  0  0
 42115  1  0  0  0
 43 44  1  0  0  0
 44116  1  0  0  0
 45 46  2  0  0  0
 45117  1  0  0  0
 46118  1  0  0  0
 47119  1  0  0  0
 47120  1  0  0  0
 48 56  1  0  0  0
 48 65  1  0  0  0
 48121  1  0  0  0
 49 50  1  0  0  0
 49 53  1  0  0  0
 49 64  1  0  0  0
 49122  1  0  0  0
 50 51  1  0  0  0
 50123  1  0  0  0
 50124  1  0  0  0
 51 52  1  0  0  0
 51125  1  0  0  0
 51126  1  0  0  0
 52127  1  0  0  0
 52128  1  0  0  0
 53 54  1  0  0  0
 54 55  2  0  0  0
 54129  1  0  0  0
 55 57  1  0  0  0
 55130  1  0  0  0
 56 69  2  0  0  0
 57 58  2  0  0  0
 57131  1  0  0  0
 58132  1  0  0  0
 59 60  1  0  0  0
 59 61  1  0  0  0
 59 62  1  0  0  0
 60133  1  0  0  0
 60134  1  0  0  0
 60135  1  0  0  0
 61136  1  0  0  0
 61137  1  0  0  0
 61138  1  0  0  0
 62139  1  0  0  0
 62140  1  0  0  0
 62141  1  0  0  0
 63 65  1  0  0  0
 63142  1  0  0  0
 63143  1  0  0  0
 63144  1  0  0  0
 64145  1  0  0  0
 65146  1  0  0  0
 68 81  1  0  0  0
 71 72  2  0  0  0
 71 73  1  0  0  0
 71147  1  0  0  0
 72 75  1  0  0  0
 72148  1  0  0  0
 73 74  2  0  0  0
 73 84  1  0  0  0
 74 82  1  0  0  0
 74 86  1  0  0  0
 75 86  2  0  0  0
 75 87  1  0  0  0
 76 78  1  0  0  0
 76149  1  0  0  0
 76150  1  0  0  0
 76 80  1  0  0  0
 77 79  1  0  0  0
 77 80  1  0  0  0
 77151  1  0  0  0
 77152  1  0  0  0
 78 81  1  0  0  0
 78153  1  0  0  0
 78154  1  0  0  0
 79 81  1  0  0  0
 79155  1  0  0  0
 79156  1  0  0  0
 80 85  1  0  0  0
 80157  1  0  0  0
 81158  1  0  0  0
 82159  1  0  0  0
 82160  1  0  0  0
 82161  1  0  0  0
 83162  1  0  0  0
 83163  1  0  0  0
 83164  1  0  0  0
 83 85  1  0  0  0
 84 85  1  0  0  0
 84165  1  0  0  0
 84166  1  0  0  0
 85167  1  0  0  0
 87168  1  0  0  0
M  ISO  4   1 100  68 101  81 101  87 100
M  END
> <chiral flag>
0

> <version>
0

> <s_m_source_file>
/data/baiqing/PycharmProjects/Reinvent-master-3.2/result/LINK_invent/BTK/process_docking_weight1_custom_sum_contain_oxygen_bond_distance_aromatic_linkinvent_7_9_3/rearranged_h_0123.sdf

> <i_m_source_file_index>
36

> <r_mmod_Potential_Energy-OPLS-2005>
-138.65022277832

> <r_mmod_Stretch_Energy-OPLS-2005>
38.1936073303223

> <r_mmod_Bend_Energy-OPLS-2005>
117.893798828125

> <r_mmod_Torsional_Energy-OPLS-2005>
278.251678466797

> <r_mmod_Improper_Torsional_Energy-OPLS-2005>
3.64049744606018

> <r_mmod_Van_der_Waal_Energy-OPLS-2005>
160.913009643555

> <r_mmod_Electrostatic_Energy-OPLS-2005>
-526.746887207031

> <r_mmod_Solvation_Energy-OPLS-2005>
-220.3359375

> <b_mmod_Minimization_Converged-OPLS-2005>
0

> <r_mmod_RMS_Derivative-OPLS-2005>
1.52611291408539

$$$$
36
                    3D
 Structure written by MMmdl.
179188  0  0  1  0            999 V2000
  -30.7720  -14.3456   20.6702 C   0  0  0  0  0  0
  -30.4106  -12.2701   19.4018 C   0  0  0  0  0  0
  -29.4843  -12.5107   18.1956 C   0  0  0  0  0  0
  -28.0073  -12.3756   18.6114 C   0  0  0  0  0  0
  -27.6652  -13.2015   19.8793 C   0  0  2  0  0  0
  -28.7014  -12.9466   20.9965 C   0  0  0  0  0  0
  -25.2605  -13.8152   20.5684 C   0  0  0  0  0  0
  -24.1854  -13.0440   20.9181 C   0  0  0  0  0  0
  -24.6393  -11.6908   20.8744 C   0  0  0  0  0  0
  -23.9063  -10.4296   21.0408 C   0  0  0  0  0  0
  -24.3611   -9.4214   21.9187 C   0  0  0  0  0  0
  -23.6282   -8.2246   22.0757 C   0  0  0  0  0  0
  -22.4270   -8.0280   21.3548 C   0  0  0  0  0  0
  -21.9906   -9.0262   20.4648 C   0  0  0  0  0  0
  -22.7236  -10.2138   20.3057 C   0  0  0  0  0  0
  -21.6848   -6.0741   22.5282 C   0  0  0  0  0  0
  -21.4011   -6.5640   23.8219 C   0  0  0  0  0  0
  -21.3659   -5.6795   24.9179 C   0  0  0  0  0  0
  -21.6042   -4.3051   24.7223 C   0  0  0  0  0  0
  -21.8820   -3.8150   23.4344 C   0  0  0  0  0  0
  -21.9191   -4.6967   22.3397 C   0  0  0  0  0  0
  -22.7871  -13.5246   21.1829 C   0  0  0  0  0  0
  -22.1657   -4.2150   21.0976 F   0  0  0  0  0  0
  -21.5631   -3.4538   25.7739 F   0  0  0  0  0  0
  -30.0453  -13.2230   20.4576 N   0  0  0  0  0  0
  -26.3037  -12.9313   20.3372 N   0  0  0  0  0  0
  -25.9314  -11.6477   20.5765 N   0  0  0  0  0  0
  -22.0498  -12.8252   22.0382 N   0  0  0  0  0  0
  -25.4337  -15.1873   20.4078 N   0  0  0  0  0  0
  -31.8183  -14.6029   20.0659 O   0  0  0  0  0  0
  -21.6631   -6.8880   21.4238 O   0  0  0  0  0  0
  -22.3572  -14.5560   20.6681 O   0  0  0  0  0  0
  -24.6143  -31.8707   23.2197 C   0  0  0  0  0  0
  -25.9039  -32.4856   23.8464 C   0  0  1  0  0  0
  -27.2343  -27.4887   20.0617 C   0  0  0  0  0  0
  -25.5875  -33.8650   24.2377 N   0  0  0  0  0  0
  -23.3937  -30.4998   21.5617 C   0  0  2  0  0  0
  -24.8353  -28.9672   20.1247 C   0  0  0  0  0  0
  -22.7400  -29.4679   22.5089 C   0  0  0  0  0  0
  -18.0255  -28.1367   22.8496 C   0  0  0  0  0  0
  -24.1474  -36.7340   23.2630 C   0  0  0  0  0  0
  -25.9198  -30.8519   21.3635 C   0  0  0  0  0  0
  -25.9967  -29.4905   20.7076 C   0  0  0  0  0  0
  -27.1987  -28.7567   20.6705 C   0  0  0  0  0  0
  -26.0513  -26.9618   19.4906 C   0  0  0  0  0  0
  -24.8537  -27.6982   19.5223 C   0  0  0  0  0  0
  -23.5961  -29.8290   20.1769 C   0  0  0  0  0  0
  -25.4087  -36.3140   24.0353 C   0  0  1  0  0  0
  -20.5839  -28.3618   23.1352 C   0  0  2  0  0  0
  -20.6744  -26.9363   22.5421 C   0  0  0  0  0  0
  -19.5730  -26.6368   21.5207 C   0  0  0  0  0  0
  -18.1905  -26.7920   22.1619 C   0  0  0  0  0  0
  -19.1503  -28.8815   23.2931 C   0  0  0  0  0  0
  -18.9437  -30.1425   23.8936 C   0  0  0  0  0  0
  -17.6441  -30.6575   24.0551 C   0  0  0  0  0  0
  -25.9002  -34.9503   23.5161 C   0  0  0  0  0  0
  -16.5328  -29.9065   23.6348 C   0  0  0  0  0  0
  -16.7250  -28.6487   23.0349 C   0  0  0  0  0  0
  -26.4489  -31.6639   25.0781 C   0  0  0  0  0  0
  -25.3765  -31.3706   26.1540 C   0  0  0  0  0  0
  -27.0332  -30.3115   24.6121 C   0  0  0  0  0  0
  -27.6078  -32.4356   25.7510 C   0  0  0  0  0  0
  -27.5592  -37.1801   24.8449 C   0  0  0  0  0  0
  -21.4136  -29.3011   22.3819 N   0  0  0  0  0  0
  -26.4279  -37.3814   23.9428 N   0  0  0  0  0  0
  -24.6610  -31.0838   22.1091 N   0  0  0  0  0  0
  -23.4222  -28.8191   23.3061 O   0  0  0  0  0  0
  -28.4442  -26.8424   20.0193 O   0  0  0  0  0  0
  -26.5557  -34.8946   22.4724 O   0  0  0  0  0  0
  -23.5369  -32.1392   23.7679 O   0  0  0  0  0  0
  -27.1642  -20.7791   21.7138 C   0  0  0  0  0  0
  -26.4806  -21.8909   22.2397 C   0  0  0  0  0  0
  -28.4674  -22.5034   23.5149 C   0  0  0  0  0  0
  -28.5487  -20.6269   21.9541 C   0  0  0  0  0  0
  -29.1735  -21.4265   22.9489 C   0  0  0  0  0  0
  -27.1733  -22.8065   23.0560 C   0  0  0  0  0  0
  -30.3146  -17.4560   19.6068 C   0  0  0  0  0  0
  -29.3818  -19.6751   21.1025 C   0  0  2  0  0  0
  -30.5890  -17.6684   21.1209 C   0  0  2  0  0  0
  -29.0638  -19.6190   19.5637 C   0  0  1  0  0  0
  -30.6263  -21.2318   23.3561 C   0  0  0  0  0  0
  -29.2697  -21.0034   17.3319 C   0  0  0  0  0  0
  -30.9385  -16.4319   21.9840 C   0  0  0  0  0  0
  -28.3153  -24.9406   21.5018 C   0  0  0  0  0  0
  -28.4671  -25.4270   20.0582 C   0  0  0  0  0  0
  -26.8538  -24.8601   22.0308 C   0  0  0  0  0  0
  -29.0512  -21.0274   18.8608 C   0  0  1  0  0  0
  -29.4320  -18.3414   21.7030 N   0  0  0  0  0  0
  -30.2743  -15.1992   21.5705 N   0  0  0  0  0  0
  -30.0888  -18.7525   18.9280 N   0  3  0  0  0  0
  -27.8071  -21.6970   18.9951 O   0  0  0  0  0  0
  -26.7121  -24.0815   23.2295 O   0  0  0  0  0  0
  -31.4571  -12.3541   19.1027 H   0  0  0  0  0  0
  -30.2929  -11.2517   19.7748 H   0  0  0  0  0  0
  -29.7143  -11.7993   17.4008 H   0  0  0  0  0  0
  -29.6634  -13.5035   17.7810 H   0  0  0  0  0  0
  -27.8118  -11.3182   18.7950 H   0  0  0  0  0  0
  -27.3553  -12.6643   17.7863 H   0  0  0  0  0  0
  -27.7235  -14.2541   19.6013 H   0  0  0  0  0  0
  -28.6581  -11.9066   21.3208 H   0  0  0  0  0  0
  -28.4553  -13.5313   21.8829 H   0  0  0  0  0  0
  -25.2751   -9.5683   22.4773 H   0  0  0  0  0  0
  -23.9991   -7.4635   22.7476 H   0  0  0  0  0  0
  -21.0843   -8.8782   19.8951 H   0  0  0  0  0  0
  -22.3697  -10.9681   19.6170 H   0  0  0  0  0  0
  -21.2000   -7.6152   23.9721 H   0  0  0  0  0  0
  -21.1480   -6.0522   25.9083 H   0  0  0  0  0  0
  -22.0599   -2.7609   23.2843 H   0  0  0  0  0  0
  -22.4082  -11.9896   22.4762 H   0  0  0  0  0  0
  -21.1116  -13.1303   22.2569 H   0  0  0  0  0  0
  -24.6667  -15.8430   20.5152 H   0  0  0  0  0  0
  -26.2854  -15.6217   20.0790 H   0  0  0  0  0  0
  -26.7113  -32.5602   23.1234 H   0  0  0  0  0  0
  -25.0060  -33.9783   25.0562 H   0  0  0  0  0  0
  -22.6787  -31.3161   21.4290 H   0  0  0  0  0  0
  -23.3748  -35.9663   23.3289 H   0  0  0  0  0  0
  -24.3573  -36.8963   22.2043 H   0  0  0  0  0  0
  -23.7235  -37.6543   23.6661 H   0  0  0  0  0  0
  -26.0127  -31.6211   20.5969 H   0  0  0  0  0  0
  -26.8142  -30.9124   21.9730 H   0  0  0  0  0  0
  -28.1032  -29.1547   21.1111 H   0  0  0  0  0  0
  -26.0291  -26.0007   19.0005 H   0  0  0  0  0  0
  -23.9571  -27.2876   19.0784 H   0  0  0  0  0  0
  -23.7055  -30.6015   19.4146 H   0  0  0  0  0  0
  -22.7219  -29.2459   19.8821 H   0  0  0  0  0  0
  -25.1272  -36.2003   25.0843 H   0  0  0  0  0  0
  -20.9918  -28.3136   24.1481 H   0  0  0  0  0  0
  -20.5619  -26.2214   23.3591 H   0  0  0  0  0  0
  -21.6618  -26.7406   22.1225 H   0  0  0  0  0  0
  -19.6877  -25.6281   21.1230 H   0  0  0  0  0  0
  -19.6682  -27.3192   20.6753 H   0  0  0  0  0  0
  -17.4179  -26.6696   21.4005 H   0  0  0  0  0  0
  -18.0278  -26.0037   22.8995 H   0  0  0  0  0  0
  -19.7912  -30.7223   24.2331 H   0  0  0  0  0  0
  -17.4994  -31.6273   24.5125 H   0  0  0  0  0  0
  -15.5331  -30.2954   23.7679 H   0  0  0  0  0  0
  -15.8651  -28.0819   22.7037 H   0  0  0  0  0  0
  -24.5920  -30.7079   25.7851 H   0  0  0  0  0  0
  -24.8974  -32.2836   26.5090 H   0  0  0  0  0  0
  -25.8128  -30.8794   27.0250 H   0  0  0  0  0  0
  -26.2854  -29.6824   24.1274 H   0  0  0  0  0  0
  -27.4214  -29.7429   25.4581 H   0  0  0  0  0  0
  -27.8644  -30.4477   23.9197 H   0  0  0  0  0  0
  -27.2726  -33.3650   26.2141 H   0  0  0  0  0  0
  -28.3843  -32.6914   25.0278 H   0  0  0  0  0  0
  -28.0801  -31.8454   26.5369 H   0  0  0  0  0  0
  -28.2565  -38.0133   24.7562 H   0  0  0  0  0  0
  -28.1128  -36.2680   24.6201 H   0  0  0  0  0  0
  -27.2321  -37.1349   25.8841 H   0  0  0  0  0  0
  -20.9319  -29.8783   21.7083 H   0  0  0  0  0  0
  -26.0195  -38.2894   24.1478 H   0  0  0  0  0  0
  -26.6449  -20.1293   21.0233 H   0  0  0  0  0  0
  -25.4666  -22.0982   21.9255 H   0  0  0  0  0  0
  -28.9831  -23.2096   24.1523 H   0  0  0  0  0  0
  -29.4536  -16.8060   19.4432 H   0  0  0  0  0  0
  -31.1713  -16.9761   19.1319 H   0  0  0  0  0  0
  -30.3806  -20.1082   21.1460 H   0  0  0  0  0  0
  -31.4567  -18.3245   21.2241 H   0  0  0  0  0  0
  -28.0942  -19.1439   19.4031 H   0  0  0  0  0  0
  -30.8070  -21.6192   24.3593 H   0  0  0  0  0  0
  -31.2904  -21.7580   22.6693 H   0  0  0  0  0  0
  -30.8981  -20.1755   23.3671 H   0  0  0  0  0  0
  -30.2481  -20.6150   17.0479 H   0  0  0  0  0  0
  -29.2212  -22.0133   16.9216 H   0  0  0  0  0  0
  -28.5111  -20.4062   16.8227 H   0  0  0  0  0  0
  -30.7198  -16.6181   23.0371 H   0  0  0  0  0  0
  -32.0199  -16.2812   21.9542 H   0  0  0  0  0  0
  -28.9274  -25.5418   22.1735 H   0  0  0  0  0  0
  -28.7811  -23.9605   21.4779 H   0  0  0  0  0  0
  -27.7719  -24.9323   19.3811 H   0  0  0  0  0  0
  -29.4545  -25.1336   19.7014 H   0  0  0  0  0  0
  -26.1942  -24.4594   21.2589 H   0  0  0  0  0  0
  -26.4819  -25.8633   22.2397 H   0  0  0  0  0  0
  -29.8235  -21.6566   19.3094 H   0  0  0  0  0  0
  -28.6040  -17.8282   21.4191 H   0  0  0  0  0  0
  -29.4245  -14.9368   22.0496 H   0  0  0  0  0  0
  -29.8301  -18.5846   17.9701 H   0  0  0  0  0  0
  -30.9611  -19.2532   18.9268 H   0  0  0  0  0  0
  -27.6395  -21.8423   19.9226 H   0  0  0  0  0  0
  1 25  1  0  0  0
  1 30  2  0  0  0
  1 89  1  0  0  0
  2  3  1  0  0  0
  2 25  1  0  0  0
  2 93  1  0  0  0
  2 94  1  0  0  0
  3  4  1  0  0  0
  3 95  1  0  0  0
  3 96  1  0  0  0
  4  5  1  0  0  0
  4 97  1  0  0  0
  4 98  1  0  0  0
  5  6  1  0  0  0
  5 26  1  0  0  0
  5 99  1  0  0  0
  6 25  1  0  0  0
  6100  1  0  0  0
  6101  1  0  0  0
  7  8  2  0  0  0
  7 26  1  0  0  0
  7 29  1  0  0  0
  8  9  1  0  0  0
  8 22  1  0  0  0
  9 10  1  0  0  0
  9 27  2  0  0  0
 10 11  2  0  0  0
 10 15  1  0  0  0
 11 12  1  0  0  0
 11102  1  0  0  0
 12 13  2  0  0  0
 12103  1  0  0  0
 13 14  1  0  0  0
 13 31  1  0  0  0
 14 15  2  0  0  0
 14104  1  0  0  0
 15105  1  0  0  0
 16 17  2  0  0  0
 16 21  1  0  0  0
 16 31  1  0  0  0
 17 18  1  0  0  0
 17106  1  0  0  0
 18 19  2  0  0  0
 18107  1  0  0  0
 19 20  1  0  0  0
 19 24  1  0  0  0
 20 21  2  0  0  0
 20108  1  0  0  0
 21 23  1  0  0  0
 22 28  1  0  0  0
 22 32  2  0  0  0
 26 27  1  0  0  0
 28109  1  0  0  0
 28110  1  0  0  0
 29111  1  0  0  0
 29112  1  0  0  0
 33 34  1  0  0  0
 33 66  1  0  0  0
 33 70  2  0  0  0
 34 36  1  0  0  0
 34 59  1  0  0  0
 34113  1  0  0  0
 35 44  2  0  0  0
 35 45  1  0  0  0
 35 68  1  0  0  0
 36 56  1  0  0  0
 36114  1  0  0  0
 37 39  1  0  0  0
 37 47  1  0  0  0
 37 66  1  0  0  0
 37115  1  0  0  0
 38 43  2  0  0  0
 38 46  1  0  0  0
 38 47  1  0  0  0
 39 64  1  0  0  0
 39 67  2  0  0  0
 40 52  1  0  0  0
 40 53  2  0  0  0
 40 58  1  0  0  0
 41116  1  0  0  0
 41117  1  0  0  0
 41118  1  0  0  0
 41 48  1  0  0  0
 42 43  1  0  0  0
 42 66  1  0  0  0
 42119  1  0  0  0
 42120  1  0  0  0
 43 44  1  0  0  0
 44121  1  0  0  0
 45 46  2  0  0  0
 45122  1  0  0  0
 46123  1  0  0  0
 47124  1  0  0  0
 47125  1  0  0  0
 48 56  1  0  0  0
 48 65  1  0  0  0
 48126  1  0  0  0
 49 50  1  0  0  0
 49 53  1  0  0  0
 49 64  1  0  0  0
 49127  1  0  0  0
 50 51  1  0  0  0
 50128  1  0  0  0
 50129  1  0  0  0
 51 52  1  0  0  0
 51130  1  0  0  0
 51131  1  0  0  0
 52132  1  0  0  0
 52133  1  0  0  0
 53 54  1  0  0  0
 54 55  2  0  0  0
 54134  1  0  0  0
 55 57  1  0  0  0
 55135  1  0  0  0
 56 69  2  0  0  0
 57 58  2  0  0  0
 57136  1  0  0  0
 58137  1  0  0  0
 59 60  1  0  0  0
 59 61  1  0  0  0
 59 62  1  0  0  0
 60138  1  0  0  0
 60139  1  0  0  0
 60140  1  0  0  0
 61141  1  0  0  0
 61142  1  0  0  0
 61143  1  0  0  0
 62144  1  0  0  0
 62145  1  0  0  0
 62146  1  0  0  0
 63 65  1  0  0  0
 63147  1  0  0  0
 63148  1  0  0  0
 63149  1  0  0  0
 64150  1  0  0  0
 65151  1  0  0  0
 68 85  1  0  0  0
 71 72  2  0  0  0
 71 74  1  0  0  0
 71152  1  0  0  0
 72 76  1  0  0  0
 72153  1  0  0  0
 73 75  1  0  0  0
 73 76  2  0  0  0
 73154  1  0  0  0
 74 75  2  0  0  0
 74 78  1  0  0  0
 75 81  1  0  0  0
 76 92  1  0  0  0
 77 79  1  0  0  0
 77 90  1  0  0  0
 77155  1  0  0  0
 77156  1  0  0  0
 78 80  1  0  0  0
 78 88  1  0  0  0
 78157  1  0  0  0
 79 83  1  0  0  0
 79 88  1  0  0  0
 79158  1  0  0  0
 80 87  1  0  0  0
 80 90  1  0  0  0
 80159  1  0  0  0
 81160  1  0  0  0
 81161  1  0  0  0
 81162  1  0  0  0
 82163  1  0  0  0
 82164  1  0  0  0
 82165  1  0  0  0
 82 87  1  0  0  0
 83 89  1  0  0  0
 83166  1  0  0  0
 83167  1  0  0  0
 84 85  1  0  0  0
 84 86  1  0  0  0
 84168  1  0  0  0
 84169  1  0  0  0
 85170  1  0  0  0
 85171  1  0  0  0
 86 92  1  0  0  0
 86172  1  0  0  0
 86173  1  0  0  0
 87 91  1  0  0  0
 87174  1  0  0  0
 88175  1  0  0  0
 89176  1  0  0  0
 90177  1  0  0  0
 90178  1  0  0  0
 91179  1  0  0  0
M  CHG  1  90   1
M  ISO  4   1 100  68 101  85 101  89 100
M  END
> <chiral flag>
0

> <version>
0

> <s_m_source_file>
/data/baiqing/PycharmProjects/Reinvent-master-3.2/result/LINK_invent/BTK/process_docking_weight1_custom_sum_contain_oxygen_bond_distance_aromatic_linkinvent_7_9_3/rearranged_h_0123.sdf

> <i_m_source_file_index>
37

> <r_mmod_Potential_Energy-OPLS-2005>
-176.6474609375

> <r_mmod_Stretch_Energy-OPLS-2005>
38.8085174560547

> <r_mmod_Bend_Energy-OPLS-2005>
117.094329833984

> <r_mmod_Torsional_Energy-OPLS-2005>
299.631561279297

> <r_mmod_Improper_Torsional_Energy-OPLS-2005>
4.20852518081665

> <r_mmod_Van_der_Waal_Energy-OPLS-2005>
177.907470703125

> <r_mmod_Electrostatic_Energy-OPLS-2005>
-323.1337890625

> <r_mmod_Solvation_Energy-OPLS-2005>
-499.724273681641

> <b_mmod_Minimization_Converged-OPLS-2005>
0

> <r_mmod_RMS_Derivative-OPLS-2005>
3.29373145103455

$$$$
37
                    3D
 Structure written by MMmdl.
171180  0  0  1  0            999 V2000
  -29.5720  -17.3947   20.7487 C   0  0  0  0  0  0
  -30.1568  -14.4657   19.7442 C   0  0  0  0  0  0
  -29.5926  -13.3911   18.6387 C   0  0  0  0  0  0
  -28.3662  -12.5999   19.0784 C   0  0  0  0  0  0
  -27.5771  -13.5988   19.9262 C   0  0  2  0  0  0
  -28.3840  -14.5105   21.0051 C   0  0  0  0  0  0
  -25.1926  -13.8792   20.6069 C   0  0  0  0  0  0
  -24.1597  -13.0546   20.9319 C   0  0  0  0  0  0
  -24.6701  -11.7201   20.8657 C   0  0  0  0  0  0
  -23.9457  -10.4401   21.0247 C   0  0  0  0  0  0
  -24.3861   -9.4291   21.9105 C   0  0  0  0  0  0
  -23.6438   -8.2360   22.0753 C   0  0  0  0  0  0
  -22.4408   -8.0390   21.3560 C   0  0  0  0  0  0
  -22.0119   -9.0371   20.4631 C   0  0  0  0  0  0
  -22.7555  -10.2201   20.2976 C   0  0  0  0  0  0
  -21.6893   -6.0824   22.5296 C   0  0  0  0  0  0
  -21.4030   -6.5692   23.8244 C   0  0  0  0  0  0
  -21.3673   -5.6815   24.9194 C   0  0  0  0  0  0
  -21.6069   -4.3085   24.7217 C   0  0  0  0  0  0
  -21.8803   -3.8201   23.4325 C   0  0  0  0  0  0
  -21.9203   -4.7044   22.3401 C   0  0  0  0  0  0
  -22.7544  -13.5044   21.1896 C   0  0  0  0  0  0
  -22.1669   -4.2233   21.0974 F   0  0  0  0  0  0
  -21.5624   -3.4564   25.7709 F   0  0  0  0  0  0
  -29.2646  -15.7167   20.4517 N   0  0  0  0  0  0
  -26.2861  -13.0773   20.3896 N   0  0  0  0  0  0
  -25.9801  -11.7500   20.5718 N   0  0  0  0  0  0
  -22.0268  -12.7996   22.0459 N   0  0  0  0  0  0
  -25.2958  -15.2569   20.4441 N   0  0  0  0  0  0
  -30.8145  -17.0503   20.5662 O   0  0  0  0  0  0
  -21.6731   -6.8995   21.4263 O   0  0  0  0  0  0
  -22.3152  -14.5326   20.6754 O   0  0  0  0  0  0
  -25.0991  -30.9916   23.6111 C   0  0  0  0  0  0
  -26.0297  -32.1902   24.1557 C   0  0  1  0  0  0
  -26.1040  -26.4435   19.5963 C   0  0  0  0  0  0
  -25.5049  -33.6229   24.2533 N   0  0  0  0  0  0
  -24.1759  -29.2405   21.9876 C   0  0  2  0  0  0
  -25.9969  -28.7666   18.9237 C   0  0  0  0  0  0
  -22.9409  -28.7925   22.8347 C   0  0  0  0  0  0
  -18.0191  -28.1334   22.8115 C   0  0  0  0  0  0
  -24.1485  -36.5988   23.2672 C   0  0  0  0  0  0
  -27.8285  -29.0794   20.9583 C   0  0  0  0  0  0
  -27.2601  -28.6013   19.5541 C   0  0  0  0  0  0
  -27.3640  -27.2233   19.6119 C   0  0  0  0  0  0
  -25.7958  -26.4862   18.3143 C   0  0  0  0  0  0
  -25.5863  -27.8002   17.9674 C   0  0  0  0  0  0
  -24.8128  -28.9850   19.6647 C   0  0  0  0  0  0
  -25.3982  -36.1553   24.0487 C   0  0  1  0  0  0
  -20.5549  -28.2439   23.2399 C   0  0  2  0  0  0
  -20.5524  -26.7853   22.7377 C   0  0  0  0  0  0
  -19.5763  -26.5480   21.5841 C   0  0  0  0  0  0
  -18.1573  -26.7894   22.1064 C   0  0  0  0  0  0
  -19.1520  -28.8598   23.2689 C   0  0  0  0  0  0
  -18.9580  -30.1219   23.8683 C   0  0  0  0  0  0
  -17.6594  -30.6447   24.0331 C   0  0  0  0  0  0
  -25.8781  -34.7449   23.5605 C   0  0  0  0  0  0
  -16.5402  -29.9039   23.6116 C   0  0  0  0  0  0
  -16.7235  -28.6500   23.0052 C   0  0  0  0  0  0
  -26.4788  -31.6721   25.5331 C   0  0  0  0  0  0
  -25.2964  -31.5947   26.5087 C   0  0  0  0  0  0
  -27.0808  -30.2547   25.6214 C   0  0  0  0  0  0
  -27.6062  -32.5768   26.0564 C   0  0  0  0  0  0
  -27.5299  -37.1222   24.8718 C   0  0  0  0  0  0
  -21.6127  -29.0103   22.5810 N   0  0  0  0  0  0
  -26.4163  -37.2396   23.9341 N   0  0  0  0  0  0
  -25.6019  -29.6252   23.0221 N   0  0  0  0  0  0
  -23.2787  -28.2617   23.8660 O   0  0  0  0  0  0
  -24.7390  -26.6678   20.2418 O   0  0  0  0  0  0
  -26.5908  -34.7007   22.5522 O   0  0  0  0  0  0
  -23.9195  -31.4214   23.7654 O   0  0  0  0  0  0
  -27.2840  -30.9480   22.0838 C   0  0  0  0  0  0
  -27.9372  -27.9745   23.1529 C   0  0  0  0  0  0
  -28.0592  -29.7496   23.1228 C   0  0  0  0  0  0
  -26.0380  -30.3089   21.0414 C   0  0  0  0  0  0
  -27.1774  -26.7323   22.2240 C   0  0  0  0  0  0
  -31.1578  -26.1366   24.1689 C   0  0  0  0  0  0
  -30.1588  -25.5480   25.1807 C   0  0  0  0  0  0
  -30.3339  -27.0294   23.2284 C   0  0  0  0  0  0
  -28.7832  -26.1788   24.8857 C   0  0  0  0  0  0
  -29.0753  -27.4068   24.0205 C   0  0  0  0  0  0
  -29.4241  -30.3690   23.4898 C   0  0  0  0  0  0
  -24.2932  -31.1089   20.5022 C   0  0  0  0  0  0
  -27.5502  -24.1953   21.9503 C   0  0  0  0  0  0
  -22.6978  -29.7431   20.1185 C   0  0  0  0  0  0
  -28.5608  -21.6844   21.3062 C   0  0  0  0  0  0
  -23.0778  -27.5933   20.1626 C   0  0  0  0  0  0
  -26.0759  -27.9995   21.6096 N   0  0  0  0  0  0
  -28.8870  -19.2673   21.0574 N   0  0  0  0  0  0
  -30.9627  -14.9720   19.2107 H   0  0  0  0  0  0
  -30.7036  -13.9263   20.5226 H   0  0  0  0  0  0
  -30.3895  -12.7105   18.3344 H   0  0  0  0  0  0
  -29.3244  -13.9541   17.7436 H   0  0  0  0  0  0
  -28.6652  -11.7439   19.6849 H   0  0  0  0  0  0
  -27.7991  -12.2211   18.2290 H   0  0  0  0  0  0
  -27.2846  -14.3238   19.1600 H   0  0  0  0  0  0
  -28.9234  -13.8798   21.7167 H   0  0  0  0  0  0
  -27.6492  -15.0015   21.6406 H   0  0  0  0  0  0
  -25.2985   -9.5765   22.4744 H   0  0  0  0  0  0
  -24.0124   -7.4787   22.7527 H   0  0  0  0  0  0
  -21.1054   -8.8949   19.8935 H   0  0  0  0  0  0
  -22.4033  -10.9734   19.6093 H   0  0  0  0  0  0
  -21.2015   -7.6203   23.9777 H   0  0  0  0  0  0
  -21.1507   -6.0544   25.9108 H   0  0  0  0  0  0
  -22.0551   -2.7669   23.2809 H   0  0  0  0  0  0
  -22.3964  -11.9726   22.4907 H   0  0  0  0  0  0
  -21.0825  -13.0925   22.2584 H   0  0  0  0  0  0
  -24.4927  -15.8679   20.5318 H   0  0  0  0  0  0
  -26.1394  -15.7343   20.1516 H   0  0  0  0  0  0
  -26.9850  -32.4166   23.7326 H   0  0  0  0  0  0
  -24.8766  -33.7817   25.0264 H   0  0  0  0  0  0
  -23.5196  -30.0518   22.1785 H   0  0  0  0  0  0
  -23.3722  -35.8355   23.3280 H   0  0  0  0  0  0
  -24.3785  -36.7433   22.2106 H   0  0  0  0  0  0
  -23.7233  -37.5236   23.6569 H   0  0  0  0  0  0
  -28.4624  -29.8779   20.5363 H   0  0  0  0  0  0
  -28.7165  -28.4508   21.1222 H   0  0  0  0  0  0
  -28.2583  -26.7349   19.9710 H   0  0  0  0  0  0
  -25.1628  -25.7417   17.8532 H   0  0  0  0  0  0
  -24.8511  -27.9769   17.1934 H   0  0  0  0  0  0
  -25.0430  -29.8336   18.9995 H   0  0  0  0  0  0
  -24.1109  -28.9301   18.8158 H   0  0  0  0  0  0
  -25.1111  -36.0622   25.0989 H   0  0  0  0  0  0
  -20.8288  -28.2009   24.2945 H   0  0  0  0  0  0
  -20.1874  -26.1705   23.5632 H   0  0  0  0  0  0
  -21.5448  -26.3737   22.5760 H   0  0  0  0  0  0
  -19.6620  -25.5240   21.2159 H   0  0  0  0  0  0
  -19.8010  -27.2069   20.7438 H   0  0  0  0  0  0
  -17.4559  -26.7319   21.2721 H   0  0  0  0  0  0
  -17.8653  -25.9959   22.7975 H   0  0  0  0  0  0
  -19.8100  -30.6768   24.2323 H   0  0  0  0  0  0
  -17.5201  -31.6074   24.5032 H   0  0  0  0  0  0
  -15.5405  -30.2937   23.7444 H   0  0  0  0  0  0
  -15.8640  -28.0819   22.6758 H   0  0  0  0  0  0
  -24.5901  -30.7993   26.2783 H   0  0  0  0  0  0
  -24.7404  -32.5276   26.5694 H   0  0  0  0  0  0
  -25.6352  -31.3964   27.5267 H   0  0  0  0  0  0
  -26.5696  -29.4056   25.1863 H   0  0  0  0  0  0
  -27.0596  -29.9575   26.6686 H   0  0  0  0  0  0
  -28.1513  -30.2246   25.5227 H   0  0  0  0  0  0
  -27.3240  -33.6269   26.1082 H   0  0  0  0  0  0
  -28.5061  -32.5119   25.4475 H   0  0  0  0  0  0
  -27.9036  -32.2852   27.0647 H   0  0  0  0  0  0
  -28.2119  -37.9625   24.7401 H   0  0  0  0  0  0
  -28.1020  -36.2049   24.7234 H   0  0  0  0  0  0
  -27.1873  -37.1431   25.9085 H   0  0  0  0  0  0
  -21.3430  -29.6047   21.8113 H   0  0  0  0  0  0
  -25.9897  -38.1516   24.0660 H   0  0  0  0  0  0
  -27.6230  -31.9673   21.9478 H   0  0  0  0  0  0
  -31.7028  -25.3636   23.6199 H   0  0  0  0  0  0
  -31.9146  -26.7266   24.6943 H   0  0  0  0  0  0
  -30.4924  -25.7791   26.1951 H   0  0  0  0  0  0
  -30.1111  -24.4601   25.1043 H   0  0  0  0  0  0
  -30.0699  -26.4612   22.3344 H   0  0  0  0  0  0
  -30.8868  -27.9105   22.8926 H   0  0  0  0  0  0
  -28.2427  -26.4439   25.7960 H   0  0  0  0  0  0
  -28.1701  -25.4606   24.3534 H   0  0  0  0  0  0
  -29.3631  -28.1532   24.7585 H   0  0  0  0  0  0
  -30.1155  -30.1651   22.6718 H   0  0  0  0  0  0
  -29.9252  -30.0647   24.4061 H   0  0  0  0  0  0
  -29.3450  -31.4543   23.5277 H   0  0  0  0  0  0
  -24.4612  -31.7221   19.6155 H   0  0  0  0  0  0
  -23.9884  -31.8742   21.2125 H   0  0  0  0  0  0
  -26.5708  -24.0393   21.4912 H   0  0  0  0  0  0
  -27.3619  -23.9628   22.9990 H   0  0  0  0  0  0
  -22.4065  -29.9766   19.0909 H   0  0  0  0  0  0
  -21.7508  -30.0771   20.5191 H   0  0  0  0  0  0
  -29.5864  -21.8629   21.6332 H   0  0  0  0  0  0
  -28.5880  -21.8651   20.2321 H   0  0  0  0  0  0
  -22.5939  -27.2096   19.2622 H   0  0  0  0  0  0
  -22.4708  -27.1205   20.9161 H   0  0  0  0  0  0
  -29.8809  -19.4588   21.1136 H   0  0  0  0  0  0
  1 25  1  0  0  0
  1 30  2  0  0  0
  1 88  1  0  0  0
  2  3  1  0  0  0
  2 25  1  0  0  0
  2 89  1  0  0  0
  2 90  1  0  0  0
  3  4  1  0  0  0
  3 91  1  0  0  0
  3 92  1  0  0  0
  4  5  1  0  0  0
  4 93  1  0  0  0
  4 94  1  0  0  0
  5  6  1  0  0  0
  5 26  1  0  0  0
  5 95  1  0  0  0
  6 25  1  0  0  0
  6 96  1  0  0  0
  6 97  1  0  0  0
  7  8  2  0  0  0
  7 26  1  0  0  0
  7 29  1  0  0  0
  8  9  1  0  0  0
  8 22  1  0  0  0
  9 10  1  0  0  0
  9 27  2  0  0  0
 10 11  2  0  0  0
 10 15  1  0  0  0
 11 12  1  0  0  0
 11 98  1  0  0  0
 12 13  2  0  0  0
 12 99  1  0  0  0
 13 14  1  0  0  0
 13 31  1  0  0  0
 14 15  2  0  0  0
 14100  1  0  0  0
 15101  1  0  0  0
 16 17  2  0  0  0
 16 21  1  0  0  0
 16 31  1  0  0  0
 17 18  1  0  0  0
 17102  1  0  0  0
 18 19  2  0  0  0
 18103  1  0  0  0
 19 20  1  0  0  0
 19 24  1  0  0  0
 20 21  2  0  0  0
 20104  1  0  0  0
 21 23  1  0  0  0
 22 28  1  0  0  0
 22 32  2  0  0  0
 26 27  1  0  0  0
 28105  1  0  0  0
 28106  1  0  0  0
 29107  1  0  0  0
 29108  1  0  0  0
 33 34  1  0  0  0
 33 66  1  0  0  0
 33 70  2  0  0  0
 34 36  1  0  0  0
 34 59  1  0  0  0
 34109  1  0  0  0
 35 44  2  0  0  0
 35 45  1  0  0  0
 35 68  1  0  0  0
 36 56  1  0  0  0
 36110  1  0  0  0
 37 39  1  0  0  0
 37 47  1  0  0  0
 37 66  1  0  0  0
 37111  1  0  0  0
 38 43  2  0  0  0
 38 46  1  0  0  0
 38 47  1  0  0  0
 39 64  1  0  0  0
 39 67  2  0  0  0
 40 52  1  0  0  0
 40 53  2  0  0  0
 40 58  1  0  0  0
 41112  1  0  0  0
 41113  1  0  0  0
 41114  1  0  0  0
 41 48  1  0  0  0
 42 43  1  0  0  0
 42 66  1  0  0  0
 42115  1  0  0  0
 42116  1  0  0  0
 43 44  1  0  0  0
 44117  1  0  0  0
 45 46  2  0  0  0
 45118  1  0  0  0
 46119  1  0  0  0
 47120  1  0  0  0
 47121  1  0  0  0
 48 56  1  0  0  0
 48 65  1  0  0  0
 48122  1  0  0  0
 49 50  1  0  0  0
 49 53  1  0  0  0
 49 64  1  0  0  0
 49123  1  0  0  0
 50 51  1  0  0  0
 50124  1  0  0  0
 50125  1  0  0  0
 51 52  1  0  0  0
 51126  1  0  0  0
 51127  1  0  0  0
 52128  1  0  0  0
 52129  1  0  0  0
 53 54  1  0  0  0
 54 55  2  0  0  0
 54130  1  0  0  0
 55 57  1  0  0  0
 55131  1  0  0  0
 56 69  2  0  0  0
 57 58  2  0  0  0
 57132  1  0  0  0
 58133  1  0  0  0
 59 60  1  0  0  0
 59 61  1  0  0  0
 59 62  1  0  0  0
 60134  1  0  0  0
 60135  1  0  0  0
 60136  1  0  0  0
 61137  1  0  0  0
 61138  1  0  0  0
 61139  1  0  0  0
 62140  1  0  0  0
 62141  1  0  0  0
 62142  1  0  0  0
 63 65  1  0  0  0
 63143  1  0  0  0
 63144  1  0  0  0
 63145  1  0  0  0
 64146  1  0  0  0
 65147  1  0  0  0
 68 86  1  0  0  0
 71 73  2  0  0  0
 71 74  1  0  0  0
 71148  1  0  0  0
 72 73  1  0  0  0
 72 75  2  0  0  0
 72 80  1  0  0  0
 73 81  1  0  0  0
 74 82  1  0  0  0
 74 87  2  0  0  0
 75 83  1  0  0  0
 75 87  1  0  0  0
 76 77  1  0  0  0
 76 78  1  0  0  0
 76149  1  0  0  0
 76150  1  0  0  0
 77 79  1  0  0  0
 77151  1  0  0  0
 77152  1  0  0  0
 78 80  1  0  0  0
 78153  1  0  0  0
 78154  1  0  0  0
 79 80  1  0  0  0
 79155  1  0  0  0
 79156  1  0  0  0
 80157  1  0  0  0
 81158  1  0  0  0
 81159  1  0  0  0
 81160  1  0  0  0
 82 84  1  0  0  0
 82161  1  0  0  0
 82162  1  0  0  0
 83 85  1  0  0  0
 83163  1  0  0  0
 83164  1  0  0  0
 84 86  1  0  0  0
 84165  1  0  0  0
 84166  1  0  0  0
 85 88  1  0  0  0
 85167  1  0  0  0
 85168  1  0  0  0
 86169  1  0  0  0
 86170  1  0  0  0
 88171  1  0  0  0
M  ISO  4   1 100  68 101  86 101  88 100
M  END
> <chiral flag>
0

> <version>
0

> <s_m_source_file>
/data/baiqing/PycharmProjects/Reinvent-master-3.2/result/LINK_invent/BTK/process_docking_weight1_custom_sum_contain_oxygen_bond_distance_aromatic_linkinvent_7_9_3/rearranged_h_0123.sdf

> <i_m_source_file_index>
38

> <r_mmod_Potential_Energy-OPLS-2005>
32427.244140625

> <r_mmod_Stretch_Energy-OPLS-2005>
16341.349609375

> <r_mmod_Bend_Energy-OPLS-2005>
2724.59936523438

> <r_mmod_Torsional_Energy-OPLS-2005>
830.549926757812

> <r_mmod_Improper_Torsional_Energy-OPLS-2005>
95.8765411376953

> <r_mmod_Van_der_Waal_Energy-OPLS-2005>
4550.84228515625

> <r_mmod_Electrostatic_Energy-OPLS-2005>
-448.347076416016

> <r_mmod_Solvation_Energy-OPLS-2005>
-250.009078979492

> <b_mmod_Minimization_Converged-OPLS-2005>
0

> <r_mmod_RMS_Derivative-OPLS-2005>
13.2994890213013

$$$$
38
                    3D
 Structure written by MMmdl.
162170  0  0  1  0            999 V2000
  -30.7567  -14.3971   20.6544 C   0  0  0  0  0  0
  -30.4166  -12.2986   19.4004 C   0  0  0  0  0  0
  -29.4841  -12.5254   18.1962 C   0  0  0  0  0  0
  -28.0075  -12.3859   18.6106 C   0  0  0  0  0  0
  -27.6656  -13.2078   19.8811 C   0  0  2  0  0  0
  -28.7068  -12.9613   20.9959 C   0  0  0  0  0  0
  -25.2606  -13.8158   20.5680 C   0  0  0  0  0  0
  -24.1853  -13.0434   20.9170 C   0  0  0  0  0  0
  -24.6407  -11.6905   20.8733 C   0  0  0  0  0  0
  -23.9074  -10.4291   21.0390 C   0  0  0  0  0  0
  -24.3627   -9.4208   21.9171 C   0  0  0  0  0  0
  -23.6301   -8.2248   22.0753 C   0  0  0  0  0  0
  -22.4279   -8.0284   21.3549 C   0  0  0  0  0  0
  -21.9918   -9.0254   20.4649 C   0  0  0  0  0  0
  -22.7244  -10.2130   20.3041 C   0  0  0  0  0  0
  -21.6856   -6.0733   22.5280 C   0  0  0  0  0  0
  -21.4014   -6.5637   23.8210 C   0  0  0  0  0  0
  -21.3664   -5.6797   24.9176 C   0  0  0  0  0  0
  -21.6046   -4.3060   24.7234 C   0  0  0  0  0  0
  -21.8822   -3.8150   23.4360 C   0  0  0  0  0  0
  -21.9193   -4.6960   22.3411 C   0  0  0  0  0  0
  -22.7878  -13.5227   21.1840 C   0  0  0  0  0  0
  -22.1655   -4.2146   21.0989 F   0  0  0  0  0  0
  -21.5634   -3.4542   25.7746 F   0  0  0  0  0  0
  -30.0453  -13.2573   20.4528 N   0  0  0  0  0  0
  -26.3052  -12.9338   20.3400 N   0  0  0  0  0  0
  -25.9335  -11.6495   20.5783 N   0  0  0  0  0  0
  -22.0529  -12.8211   22.0399 N   0  0  0  0  0  0
  -25.4338  -15.1875   20.4081 N   0  0  0  0  0  0
  -31.8133  -14.6483   20.0670 O   0  0  0  0  0  0
  -21.6651   -6.8877   21.4242 O   0  0  0  0  0  0
  -22.3559  -14.5532   20.6685 O   0  0  0  0  0  0
  -24.6122  -31.8705   23.2121 C   0  0  0  0  0  0
  -25.9025  -32.4836   23.8407 C   0  0  1  0  0  0
  -27.2421  -27.4613   20.0758 C   0  0  0  0  0  0
  -25.5890  -33.8636   24.2333 N   0  0  0  0  0  0
  -23.3995  -30.4934   21.5518 C   0  0  2  0  0  0
  -24.8472  -28.9601   20.1159 C   0  0  0  0  0  0
  -22.7392  -29.4674   22.4999 C   0  0  0  0  0  0
  -18.0270  -28.1382   22.8491 C   0  0  0  0  0  0
  -24.1486  -36.7316   23.2638 C   0  0  0  0  0  0
  -25.9269  -30.8376   21.3662 C   0  0  0  0  0  0
  -26.0043  -29.4725   20.7165 C   0  0  0  0  0  0
  -27.2006  -28.7228   20.7087 C   0  0  0  0  0  0
  -26.0632  -26.9485   19.4904 C   0  0  0  0  0  0
  -24.8687  -27.6929   19.5065 C   0  0  0  0  0  0
  -23.6081  -29.8248   20.1664 C   0  0  0  0  0  0
  -25.4109  -36.3120   24.0336 C   0  0  1  0  0  0
  -20.5858  -28.3666   23.1323 C   0  0  2  0  0  0
  -20.6763  -26.9407   22.5418 C   0  0  0  0  0  0
  -19.5742  -26.6391   21.5213 C   0  0  0  0  0  0
  -18.1921  -26.7928   22.1621 C   0  0  0  0  0  0
  -19.1516  -28.8842   23.2906 C   0  0  0  0  0  0
  -18.9447  -30.1445   23.8919 C   0  0  0  0  0  0
  -17.6446  -30.6586   24.0572 C   0  0  0  0  0  0
  -25.9037  -34.9485   23.5136 C   0  0  0  0  0  0
  -16.5339  -29.9091   23.6323 C   0  0  0  0  0  0
  -16.7257  -28.6511   23.0345 C   0  0  0  0  0  0
  -26.4463  -31.6608   25.0725 C   0  0  0  0  0  0
  -25.3732  -31.3699   26.1467 C   0  0  0  0  0  0
  -27.0301  -30.3055   24.6093 C   0  0  0  0  0  0
  -27.6043  -32.4326   25.7482 C   0  0  0  0  0  0
  -27.5585  -37.1817   24.8464 C   0  0  0  0  0  0
  -21.4128  -29.3031   22.3723 N   0  0  0  0  0  0
  -26.4298  -37.3800   23.9410 N   0  0  0  0  0  0
  -24.6643  -31.0816   22.1015 N   0  0  0  0  0  0
  -23.4174  -28.8214   23.3037 O   0  0  0  0  0  0
  -28.4093  -26.7335   20.0790 O   0  0  0  0  0  0
  -26.5599  -34.8933   22.4696 O   0  0  0  0  0  0
  -23.5323  -32.1444   23.7524 O   0  0  0  0  0  0
  -29.8795  -20.4595   19.9997 C   0  0  0  0  0  0
  -31.3565  -22.1514   19.9361 C   0  0  0  0  0  0
  -30.1317  -21.7586   19.4568 C   0  0  0  0  0  0
  -30.9676  -20.1128   20.7487 C   0  0  0  0  0  0
  -33.1680  -21.1811   21.4014 C   0  0  0  0  0  0
  -29.2357  -22.5116   18.4924 C   0  0  0  0  0  0
  -30.4755  -17.6922   21.0290 C   0  0  0  0  0  0
  -30.8415  -16.5193   21.9608 C   0  0  0  0  0  0
  -29.6399  -24.9556   18.9246 C   0  0  0  0  0  0
  -28.8939  -26.2997   18.8073 C   0  0  0  0  0  0
  -31.8790  -21.1479   20.7353 N   0  0  0  0  0  0
  -31.1656  -18.9130   21.4310 N   0  0  0  0  0  0
  -30.2337  -15.2580   21.5384 N   0  0  0  0  0  0
  -28.7140  -23.7957   19.0128 N   0  3  0  0  0  0
  -31.4591  -12.3971   19.0922 H   0  0  0  0  0  0
  -30.3146  -11.2784   19.7730 H   0  0  0  0  0  0
  -29.7151  -11.8170   17.3992 H   0  0  0  0  0  0
  -29.6579  -13.5196   17.7816 H   0  0  0  0  0  0
  -27.8100  -11.3280   18.7860 H   0  0  0  0  0  0
  -27.3562  -12.6836   17.7873 H   0  0  0  0  0  0
  -27.7185  -14.2619   19.6065 H   0  0  0  0  0  0
  -28.6755  -11.9196   21.3169 H   0  0  0  0  0  0
  -28.4573  -13.5393   21.8866 H   0  0  0  0  0  0
  -25.2762   -9.5683   22.4759 H   0  0  0  0  0  0
  -24.0006   -7.4641   22.7465 H   0  0  0  0  0  0
  -21.0852   -8.8772   19.8960 H   0  0  0  0  0  0
  -22.3693  -10.9674   19.6165 H   0  0  0  0  0  0
  -21.1996   -7.6143   23.9706 H   0  0  0  0  0  0
  -21.1483   -6.0531   25.9075 H   0  0  0  0  0  0
  -22.0595   -2.7612   23.2861 H   0  0  0  0  0  0
  -22.4131  -11.9844   22.4759 H   0  0  0  0  0  0
  -21.1144  -13.1226   22.2606 H   0  0  0  0  0  0
  -24.6715  -15.8468   20.5164 H   0  0  0  0  0  0
  -26.2947  -15.6265   20.1064 H   0  0  0  0  0  0
  -26.7093  -32.5556   23.1177 H   0  0  0  0  0  0
  -25.0045  -33.9801   25.0482 H   0  0  0  0  0  0
  -22.6873  -31.3101   21.4126 H   0  0  0  0  0  0
  -23.3751  -35.9647   23.3309 H   0  0  0  0  0  0
  -24.3584  -36.8924   22.2051 H   0  0  0  0  0  0
  -23.7234  -37.6522   23.6644 H   0  0  0  0  0  0
  -26.0396  -31.6032   20.5972 H   0  0  0  0  0  0
  -26.8152  -30.8917   21.9844 H   0  0  0  0  0  0
  -28.0941  -29.1124   21.1766 H   0  0  0  0  0  0
  -26.0551  -25.9703   19.0323 H   0  0  0  0  0  0
  -23.9760  -27.2874   19.0511 H   0  0  0  0  0  0
  -23.7130  -30.5986   19.4050 H   0  0  0  0  0  0
  -22.7333  -29.2417   19.8726 H   0  0  0  0  0  0
  -25.1290  -36.1992   25.0831 H   0  0  0  0  0  0
  -20.9954  -28.3236   24.1445 H   0  0  0  0  0  0
  -20.5674  -26.2279   23.3605 H   0  0  0  0  0  0
  -21.6634  -26.7460   22.1208 H   0  0  0  0  0  0
  -19.6909  -25.6307   21.1236 H   0  0  0  0  0  0
  -19.6689  -27.3210   20.6752 H   0  0  0  0  0  0
  -17.4194  -26.6685   21.4015 H   0  0  0  0  0  0
  -18.0315  -26.0064   22.9010 H   0  0  0  0  0  0
  -19.7925  -30.7256   24.2302 H   0  0  0  0  0  0
  -17.5006  -31.6270   24.5167 H   0  0  0  0  0  0
  -15.5342  -30.3007   23.7634 H   0  0  0  0  0  0
  -15.8657  -28.0839   22.7048 H   0  0  0  0  0  0
  -24.5899  -30.7064   25.7784 H   0  0  0  0  0  0
  -24.8930  -32.2849   26.4941 H   0  0  0  0  0  0
  -25.8077  -30.8833   27.0208 H   0  0  0  0  0  0
  -26.2846  -29.6816   24.1145 H   0  0  0  0  0  0
  -27.4074  -29.7288   25.4550 H   0  0  0  0  0  0
  -27.8678  -30.4381   23.9245 H   0  0  0  0  0  0
  -27.2665  -33.3617   26.2087 H   0  0  0  0  0  0
  -28.3832  -32.6907   25.0294 H   0  0  0  0  0  0
  -28.0733  -31.8436   26.5372 H   0  0  0  0  0  0
  -28.2603  -38.0113   24.7519 H   0  0  0  0  0  0
  -28.1081  -36.2649   24.6282 H   0  0  0  0  0  0
  -27.2304  -37.1457   25.8866 H   0  0  0  0  0  0
  -20.9286  -29.8748   21.6941 H   0  0  0  0  0  0
  -26.0192  -38.2883   24.1402 H   0  0  0  0  0  0
  -29.0041  -19.8480   19.8288 H   0  0  0  0  0  0
  -31.9225  -23.0577   19.7614 H   0  0  0  0  0  0
  -33.6317  -22.1608   21.2832 H   0  0  0  0  0  0
  -33.8230  -20.4261   20.9661 H   0  0  0  0  0  0
  -33.0409  -20.9777   22.4645 H   0  0  0  0  0  0
  -28.3797  -21.8748   18.2649 H   0  0  0  0  0  0
  -29.7591  -22.6580   17.5463 H   0  0  0  0  0  0
  -29.3971  -17.8562   21.0489 H   0  0  0  0  0  0
  -30.7454  -17.4581   19.9967 H   0  0  0  0  0  0
  -30.5071  -16.7355   22.9770 H   0  0  0  0  0  0
  -31.9253  -16.3980   22.0175 H   0  0  0  0  0  0
  -30.3221  -24.9639   19.7753 H   0  0  0  0  0  0
  -30.2569  -24.8481   18.0318 H   0  0  0  0  0  0
  -28.1243  -26.2405   18.0358 H   0  0  0  0  0  0
  -29.5953  -27.0621   18.4653 H   0  0  0  0  0  0
  -32.0354  -18.7807   21.9400 H   0  0  0  0  0  0
  -29.3651  -14.9896   21.9767 H   0  0  0  0  0  0
  -28.3851  -23.6708   19.9567 H   0  0  0  0  0  0
  -27.9100  -24.0023   18.4430 H   0  0  0  0  0  0
  1 25  1  0  0  0
  1 30  2  0  0  0
  1 83  1  0  0  0
  2  3  1  0  0  0
  2 25  1  0  0  0
  2 85  1  0  0  0
  2 86  1  0  0  0
  3  4  1  0  0  0
  3 87  1  0  0  0
  3 88  1  0  0  0
  4  5  1  0  0  0
  4 89  1  0  0  0
  4 90  1  0  0  0
  5  6  1  0  0  0
  5 26  1  0  0  0
  5 91  1  0  0  0
  6 25  1  0  0  0
  6 92  1  0  0  0
  6 93  1  0  0  0
  7  8  2  0  0  0
  7 26  1  0  0  0
  7 29  1  0  0  0
  8  9  1  0  0  0
  8 22  1  0  0  0
  9 10  1  0  0  0
  9 27  2  0  0  0
 10 11  2  0  0  0
 10 15  1  0  0  0
 11 12  1  0  0  0
 11 94  1  0  0  0
 12 13  2  0  0  0
 12 95  1  0  0  0
 13 14  1  0  0  0
 13 31  1  0  0  0
 14 15  2  0  0  0
 14 96  1  0  0  0
 15 97  1  0  0  0
 16 17  2  0  0  0
 16 21  1  0  0  0
 16 31  1  0  0  0
 17 18  1  0  0  0
 17 98  1  0  0  0
 18 19  2  0  0  0
 18 99  1  0  0  0
 19 20  1  0  0  0
 19 24  1  0  0  0
 20 21  2  0  0  0
 20100  1  0  0  0
 21 23  1  0  0  0
 22 28  1  0  0  0
 22 32  2  0  0  0
 26 27  1  0  0  0
 28101  1  0  0  0
 28102  1  0  0  0
 29103  1  0  0  0
 29104  1  0  0  0
 33 34  1  0  0  0
 33 66  1  0  0  0
 33 70  2  0  0  0
 34 36  1  0  0  0
 34 59  1  0  0  0
 34105  1  0  0  0
 35 44  2  0  0  0
 35 45  1  0  0  0
 35 68  1  0  0  0
 36 56  1  0  0  0
 36106  1  0  0  0
 37 39  1  0  0  0
 37 47  1  0  0  0
 37 66  1  0  0  0
 37107  1  0  0  0
 38 43  2  0  0  0
 38 46  1  0  0  0
 38 47  1  0  0  0
 39 64  1  0  0  0
 39 67  2  0  0  0
 40 52  1  0  0  0
 40 53  2  0  0  0
 40 58  1  0  0  0
 41108  1  0  0  0
 41109  1  0  0  0
 41110  1  0  0  0
 41 48  1  0  0  0
 42 43  1  0  0  0
 42 66  1  0  0  0
 42111  1  0  0  0
 42112  1  0  0  0
 43 44  1  0  0  0
 44113  1  0  0  0
 45 46  2  0  0  0
 45114  1  0  0  0
 46115  1  0  0  0
 47116  1  0  0  0
 47117  1  0  0  0
 48 56  1  0  0  0
 48 65  1  0  0  0
 48118  1  0  0  0
 49 50  1  0  0  0
 49 53  1  0  0  0
 49 64  1  0  0  0
 49119  1  0  0  0
 50 51  1  0  0  0
 50120  1  0  0  0
 50121  1  0  0  0
 51 52  1  0  0  0
 51122  1  0  0  0
 51123  1  0  0  0
 52124  1  0  0  0
 52125  1  0  0  0
 53 54  1  0  0  0
 54 55  2  0  0  0
 54126  1  0  0  0
 55 57  1  0  0  0
 55127  1  0  0  0
 56 69  2  0  0  0
 57 58  2  0  0  0
 57128  1  0  0  0
 58129  1  0  0  0
 59 60  1  0  0  0
 59 61  1  0  0  0
 59 62  1  0  0  0
 60130  1  0  0  0
 60131  1  0  0  0
 60132  1  0  0  0
 61133  1  0  0  0
 61134  1  0  0  0
 61135  1  0  0  0
 62136  1  0  0  0
 62137  1  0  0  0
 62138  1  0  0  0
 63 65  1  0  0  0
 63139  1  0  0  0
 63140  1  0  0  0
 63141  1  0  0  0
 64142  1  0  0  0
 65143  1  0  0  0
 68 80  1  0  0  0
 71 73  1  0  0  0
 71 74  2  0  0  0
 71144  1  0  0  0
 72 73  2  0  0  0
 72 81  1  0  0  0
 72145  1  0  0  0
 73 76  1  0  0  0
 74 81  1  0  0  0
 74 82  1  0  0  0
 75 81  1  0  0  0
 75146  1  0  0  0
 75147  1  0  0  0
 75148  1  0  0  0
 76 84  1  0  0  0
 76149  1  0  0  0
 76150  1  0  0  0
 77 78  1  0  0  0
 77 82  1  0  0  0
 77151  1  0  0  0
 77152  1  0  0  0
 78 83  1  0  0  0
 78153  1  0  0  0
 78154  1  0  0  0
 79 80  1  0  0  0
 79 84  1  0  0  0
 79155  1  0  0  0
 79156  1  0  0  0
 80157  1  0  0  0
 80158  1  0  0  0
 82159  1  0  0  0
 83160  1  0  0  0
 84161  1  0  0  0
 84162  1  0  0  0
M  CHG  1  84   1
M  ISO  4   1 100  68 101  80 101  83 100
M  END
> <chiral flag>
0

> <version>
0

> <s_m_source_file>
/data/baiqing/PycharmProjects/Reinvent-master-3.2/result/LINK_invent/BTK/process_docking_weight1_custom_sum_contain_oxygen_bond_distance_aromatic_linkinvent_7_9_3/rearranged_h_0123.sdf

> <i_m_source_file_index>
39

> <r_mmod_Potential_Energy-OPLS-2005>
-389.959747314453

> <r_mmod_Stretch_Energy-OPLS-2005>
31.2459487915039

> <r_mmod_Bend_Energy-OPLS-2005>
101.775909423828

> <r_mmod_Torsional_Energy-OPLS-2005>
211.834091186523

> <r_mmod_Improper_Torsional_Energy-OPLS-2005>
3.32558155059814

> <r_mmod_Van_der_Waal_Energy-OPLS-2005>
129.734741210938

> <r_mmod_Electrostatic_Energy-OPLS-2005>
-411.404693603516

> <r_mmod_Solvation_Energy-OPLS-2005>
-464.042877197266

> <b_mmod_Minimization_Converged-OPLS-2005>
0

> <r_mmod_RMS_Derivative-OPLS-2005>
1.66907548904419

$$$$
39
                    3D
 Structure written by MMmdl.
163172  0  0  1  0            999 V2000
  -30.7383  -14.4102   20.6418 C   0  0  0  0  0  0
  -30.4187  -12.2976   19.4055 C   0  0  0  0  0  0
  -29.4878  -12.5175   18.1972 C   0  0  0  0  0  0
  -28.0110  -12.3746   18.6116 C   0  0  0  0  0  0
  -27.6632  -13.2036   19.8766 C   0  0  2  0  0  0
  -28.7020  -12.9601   20.9938 C   0  0  0  0  0  0
  -25.2591  -13.8156   20.5662 C   0  0  0  0  0  0
  -24.1839  -13.0438   20.9167 C   0  0  0  0  0  0
  -24.6391  -11.6905   20.8728 C   0  0  0  0  0  0
  -23.9060  -10.4294   21.0401 C   0  0  0  0  0  0
  -24.3615   -9.4209   21.9181 C   0  0  0  0  0  0
  -23.6293   -8.2242   22.0752 C   0  0  0  0  0  0
  -22.4274   -8.0278   21.3542 C   0  0  0  0  0  0
  -21.9907   -9.0251   20.4643 C   0  0  0  0  0  0
  -22.7233  -10.2132   20.3052 C   0  0  0  0  0  0
  -21.6853   -6.0736   22.5281 C   0  0  0  0  0  0
  -21.4013   -6.5640   23.8213 C   0  0  0  0  0  0
  -21.3658   -5.6794   24.9175 C   0  0  0  0  0  0
  -21.6046   -4.3058   24.7224 C   0  0  0  0  0  0
  -21.8819   -3.8150   23.4347 C   0  0  0  0  0  0
  -21.9192   -4.6965   22.3405 C   0  0  0  0  0  0
  -22.7863  -13.5235   21.1842 C   0  0  0  0  0  0
  -22.1661   -4.2153   21.0983 F   0  0  0  0  0  0
  -21.5629   -3.4542   25.7735 F   0  0  0  0  0  0
  -30.0377  -13.2622   20.4483 N   0  0  0  0  0  0
  -26.3029  -12.9321   20.3362 N   0  0  0  0  0  0
  -25.9315  -11.6484   20.5755 N   0  0  0  0  0  0
  -22.0511  -12.8221   22.0398 N   0  0  0  0  0  0
  -25.4319  -15.1869   20.4050 N   0  0  0  0  0  0
  -31.8256  -14.6294   20.0973 O   0  0  0  0  0  0
  -21.6636   -6.8877   21.4242 O   0  0  0  0  0  0
  -22.3548  -14.5545   20.6698 O   0  0  0  0  0  0
  -24.6115  -31.8692   23.2100 C   0  0  0  0  0  0
  -25.9022  -32.4824   23.8394 C   0  0  1  0  0  0
  -27.2408  -27.4601   20.0963 C   0  0  0  0  0  0
  -25.5895  -33.8622   24.2334 N   0  0  0  0  0  0
  -23.3999  -30.4909   21.5499 C   0  0  2  0  0  0
  -24.8467  -28.9532   20.1208 C   0  0  0  0  0  0
  -22.7400  -29.4662   22.4999 C   0  0  0  0  0  0
  -18.0269  -28.1378   22.8481 C   0  0  0  0  0  0
  -24.1494  -36.7321   23.2638 C   0  0  0  0  0  0
  -25.9240  -30.8428   21.3583 C   0  0  0  0  0  0
  -26.0042  -29.4768   20.7106 C   0  0  0  0  0  0
  -27.2059  -28.7373   20.6932 C   0  0  0  0  0  0
  -26.0688  -26.9394   19.5092 C   0  0  0  0  0  0
  -24.8711  -27.6814   19.5200 C   0  0  0  0  0  0
  -23.6081  -29.8190   20.1662 C   0  0  0  0  0  0
  -25.4110  -36.3112   24.0337 C   0  0  1  0  0  0
  -20.5856  -28.3658   23.1321 C   0  0  2  0  0  0
  -20.6762  -26.9397   22.5420 C   0  0  0  0  0  0
  -19.5749  -26.6382   21.5205 C   0  0  0  0  0  0
  -18.1920  -26.7925   22.1611 C   0  0  0  0  0  0
  -19.1518  -28.8832   23.2897 C   0  0  0  0  0  0
  -18.9450  -30.1437   23.8910 C   0  0  0  0  0  0
  -17.6456  -30.6586   24.0562 C   0  0  0  0  0  0
  -25.9033  -34.9475   23.5133 C   0  0  0  0  0  0
  -16.5346  -29.9093   23.6322 C   0  0  0  0  0  0
  -16.7259  -28.6512   23.0336 C   0  0  0  0  0  0
  -26.4460  -31.6596   25.0710 C   0  0  0  0  0  0
  -25.3736  -31.3704   26.1470 C   0  0  0  0  0  0
  -27.0280  -30.3043   24.6054 C   0  0  0  0  0  0
  -27.6044  -32.4305   25.7474 C   0  0  0  0  0  0
  -27.5581  -37.1811   24.8461 C   0  0  0  0  0  0
  -21.4129  -29.3031   22.3739 N   0  0  0  0  0  0
  -26.4302  -37.3789   23.9403 N   0  0  0  0  0  0
  -24.6630  -31.0823   22.0982 N   0  0  0  0  0  0
  -23.4178  -28.8206   23.3040 O   0  0  0  0  0  0
  -28.4248  -26.7652   20.0565 O   0  0  0  0  0  0
  -26.5594  -34.8929   22.4688 O   0  0  0  0  0  0
  -23.5316  -32.1429   23.7515 O   0  0  0  0  0  0
  -32.4369  -17.9765   22.7162 C   0  0  0  0  0  0
  -31.6480  -19.1289   22.5463 C   0  0  0  0  0  0
  -31.9429  -16.7180   22.3307 C   0  0  0  0  0  0
  -29.8499  -17.7616   21.6327 C   0  0  0  0  0  0
  -30.3475  -19.0360   21.9956 C   0  0  0  0  0  0
  -30.6494  -16.6035   21.7752 C   0  0  0  0  0  0
  -30.0402  -24.1472   22.2392 C   0  0  0  0  0  0
  -29.0580  -23.0934   20.1402 C   0  0  0  0  0  0
  -29.8606  -25.4326   21.4079 C   0  0  0  0  0  0
  -28.1655  -24.3270   19.8666 C   0  0  0  0  0  0
  -29.3490  -22.8926   21.6431 C   0  0  1  0  0  0
  -28.4631  -25.5367   20.7834 C   0  0  2  0  0  0
  -29.4697  -20.2730   21.7777 C   0  0  0  0  0  0
  -30.1940  -21.6303   21.9382 C   0  0  0  0  0  0
  -30.1264  -15.3369   21.4001 N   0  0  0  0  0  0
  -31.4624  -12.3972   19.1011 H   0  0  0  0  0  0
  -30.3187  -11.2805   19.7865 H   0  0  0  0  0  0
  -29.7244  -11.8063   17.4049 H   0  0  0  0  0  0
  -29.6565  -13.5109   17.7778 H   0  0  0  0  0  0
  -27.8184  -11.3172   18.7965 H   0  0  0  0  0  0
  -27.3594  -12.6609   17.7850 H   0  0  0  0  0  0
  -27.7157  -14.2551   19.5942 H   0  0  0  0  0  0
  -28.6727  -11.9179   21.3153 H   0  0  0  0  0  0
  -28.4563  -13.5401   21.8840 H   0  0  0  0  0  0
  -25.2765   -9.5684   22.4750 H   0  0  0  0  0  0
  -24.0007   -7.4632   22.7466 H   0  0  0  0  0  0
  -21.0844   -8.8768   19.8945 H   0  0  0  0  0  0
  -22.3696  -10.9670   19.6157 H   0  0  0  0  0  0
  -21.2006   -7.6147   23.9718 H   0  0  0  0  0  0
  -21.1481   -6.0524   25.9078 H   0  0  0  0  0  0
  -22.0600   -2.7613   23.2846 H   0  0  0  0  0  0
  -22.4133  -11.9877   22.4773 H   0  0  0  0  0  0
  -21.1130  -13.1240   22.2615 H   0  0  0  0  0  0
  -24.6642  -15.8431   20.5009 H   0  0  0  0  0  0
  -26.2849  -15.6229   20.0781 H   0  0  0  0  0  0
  -26.7099  -32.5554   23.1174 H   0  0  0  0  0  0
  -25.0056  -33.9784   25.0485 H   0  0  0  0  0  0
  -22.6874  -31.3062   21.4084 H   0  0  0  0  0  0
  -23.3748  -35.9661   23.3311 H   0  0  0  0  0  0
  -24.3595  -36.8919   22.2051 H   0  0  0  0  0  0
  -23.7253  -37.6528   23.6652 H   0  0  0  0  0  0
  -26.0293  -31.6079   20.5878 H   0  0  0  0  0  0
  -26.8137  -30.9003   21.9734 H   0  0  0  0  0  0
  -28.1052  -29.1408   21.1375 H   0  0  0  0  0  0
  -26.0818  -25.9722   19.0282 H   0  0  0  0  0  0
  -23.9818  -27.2710   19.0632 H   0  0  0  0  0  0
  -23.7182  -30.5917   19.4042 H   0  0  0  0  0  0
  -22.7330  -29.2379   19.8716 H   0  0  0  0  0  0
  -25.1285  -36.1983   25.0830 H   0  0  0  0  0  0
  -20.9938  -28.3233   24.1444 H   0  0  0  0  0  0
  -20.5668  -26.2265   23.3604 H   0  0  0  0  0  0
  -21.6631  -26.7450   22.1206 H   0  0  0  0  0  0
  -19.6916  -25.6296   21.1225 H   0  0  0  0  0  0
  -19.6697  -27.3207   20.6743 H   0  0  0  0  0  0
  -17.4190  -26.6667   21.4016 H   0  0  0  0  0  0
  -18.0317  -26.0073   22.9012 H   0  0  0  0  0  0
  -19.7934  -30.7234   24.2293 H   0  0  0  0  0  0
  -17.5022  -31.6269   24.5161 H   0  0  0  0  0  0
  -15.5353  -30.2998   23.7641 H   0  0  0  0  0  0
  -15.8657  -28.0844   22.7025 H   0  0  0  0  0  0
  -24.5909  -30.7044   25.7823 H   0  0  0  0  0  0
  -24.8920  -32.2857   26.4922 H   0  0  0  0  0  0
  -25.8088  -30.8884   27.0232 H   0  0  0  0  0  0
  -26.2807  -29.6818   24.1116 H   0  0  0  0  0  0
  -27.4075  -29.7263   25.4488 H   0  0  0  0  0  0
  -27.8636  -30.4376   23.9175 H   0  0  0  0  0  0
  -27.2670  -33.3601   26.2078 H   0  0  0  0  0  0
  -28.3843  -32.6863   25.0285 H   0  0  0  0  0  0
  -28.0728  -31.8404   26.5364 H   0  0  0  0  0  0
  -28.2598  -38.0107   24.7494 H   0  0  0  0  0  0
  -28.1073  -36.2632   24.6304 H   0  0  0  0  0  0
  -27.2301  -37.1480   25.8865 H   0  0  0  0  0  0
  -20.9288  -29.8764   21.6969 H   0  0  0  0  0  0
  -26.0197  -38.2869   24.1400 H   0  0  0  0  0  0
  -33.4275  -18.0583   23.1412 H   0  0  0  0  0  0
  -32.0687  -20.0776   22.8480 H   0  0  0  0  0  0
  -32.5650  -15.8443   22.4692 H   0  0  0  0  0  0
  -28.8542  -17.6789   21.2189 H   0  0  0  0  0  0
  -29.6596  -24.3107   23.2484 H   0  0  0  0  0  0
  -31.1119  -23.9767   22.3557 H   0  0  0  0  0  0
  -30.0029  -23.2106   19.6060 H   0  0  0  0  0  0
  -28.5844  -22.2094   19.7122 H   0  0  0  0  0  0
  -30.6049  -25.4522   20.6108 H   0  0  0  0  0  0
  -30.0654  -26.3050   22.0302 H   0  0  0  0  0  0
  -27.1173  -24.0505   19.9878 H   0  0  0  0  0  0
  -28.2835  -24.6131   18.8208 H   0  0  0  0  0  0
  -28.3888  -22.7786   22.1496 H   0  0  0  0  0  0
  -27.7385  -25.5581   21.6011 H   0  0  0  0  0  0
  -28.6337  -20.2245   22.4765 H   0  0  0  0  0  0
  -29.0367  -20.2029   20.7797 H   0  0  0  0  0  0
  -30.5457  -21.6993   22.9682 H   0  0  0  0  0  0
  -31.0842  -21.6480   21.3077 H   0  0  0  0  0  0
  -29.1745  -15.1337   21.6650 H   0  0  0  0  0  0
  1 25  1  0  0  0
  1 30  2  0  0  0
  1 85  1  0  0  0
  2  3  1  0  0  0
  2 25  1  0  0  0
  2 86  1  0  0  0
  2 87  1  0  0  0
  3  4  1  0  0  0
  3 88  1  0  0  0
  3 89  1  0  0  0
  4  5  1  0  0  0
  4 90  1  0  0  0
  4 91  1  0  0  0
  5  6  1  0  0  0
  5 26  1  0  0  0
  5 92  1  0  0  0
  6 25  1  0  0  0
  6 93  1  0  0  0
  6 94  1  0  0  0
  7  8  2  0  0  0
  7 26  1  0  0  0
  7 29  1  0  0  0
  8  9  1  0  0  0
  8 22  1  0  0  0
  9 10  1  0  0  0
  9 27  2  0  0  0
 10 11  2  0  0  0
 10 15  1  0  0  0
 11 12  1  0  0  0
 11 95  1  0  0  0
 12 13  2  0  0  0
 12 96  1  0  0  0
 13 14  1  0  0  0
 13 31  1  0  0  0
 14 15  2  0  0  0
 14 97  1  0  0  0
 15 98  1  0  0  0
 16 17  2  0  0  0
 16 21  1  0  0  0
 16 31  1  0  0  0
 17 18  1  0  0  0
 17 99  1  0  0  0
 18 19  2  0  0  0
 18100  1  0  0  0
 19 20  1  0  0  0
 19 24  1  0  0  0
 20 21  2  0  0  0
 20101  1  0  0  0
 21 23  1  0  0  0
 22 28  1  0  0  0
 22 32  2  0  0  0
 26 27  1  0  0  0
 28102  1  0  0  0
 28103  1  0  0  0
 29104  1  0  0  0
 29105  1  0  0  0
 33 34  1  0  0  0
 33 66  1  0  0  0
 33 70  2  0  0  0
 34 36  1  0  0  0
 34 59  1  0  0  0
 34106  1  0  0  0
 35 44  2  0  0  0
 35 45  1  0  0  0
 35 68  1  0  0  0
 36 56  1  0  0  0
 36107  1  0  0  0
 37 39  1  0  0  0
 37 47  1  0  0  0
 37 66  1  0  0  0
 37108  1  0  0  0
 38 43  2  0  0  0
 38 46  1  0  0  0
 38 47  1  0  0  0
 39 64  1  0  0  0
 39 67  2  0  0  0
 40 52  1  0  0  0
 40 53  2  0  0  0
 40 58  1  0  0  0
 41109  1  0  0  0
 41110  1  0  0  0
 41111  1  0  0  0
 41 48  1  0  0  0
 42 43  1  0  0  0
 42 66  1  0  0  0
 42112  1  0  0  0
 42113  1  0  0  0
 43 44  1  0  0  0
 44114  1  0  0  0
 45 46  2  0  0  0
 45115  1  0  0  0
 46116  1  0  0  0
 47117  1  0  0  0
 47118  1  0  0  0
 48 56  1  0  0  0
 48 65  1  0  0  0
 48119  1  0  0  0
 49 50  1  0  0  0
 49 53  1  0  0  0
 49 64  1  0  0  0
 49120  1  0  0  0
 50 51  1  0  0  0
 50121  1  0  0  0
 50122  1  0  0  0
 51 52  1  0  0  0
 51123  1  0  0  0
 51124  1  0  0  0
 52125  1  0  0  0
 52126  1  0  0  0
 53 54  1  0  0  0
 54 55  2  0  0  0
 54127  1  0  0  0
 55 57  1  0  0  0
 55128  1  0  0  0
 56 69  2  0  0  0
 57 58  2  0  0  0
 57129  1  0  0  0
 58130  1  0  0  0
 59 60  1  0  0  0
 59 61  1  0  0  0
 59 62  1  0  0  0
 60131  1  0  0  0
 60132  1  0  0  0
 60133  1  0  0  0
 61134  1  0  0  0
 61135  1  0  0  0
 61136  1  0  0  0
 62137  1  0  0  0
 62138  1  0  0  0
 62139  1  0  0  0
 63 65  1  0  0  0
 63140  1  0  0  0
 63141  1  0  0  0
 63142  1  0  0  0
 64143  1  0  0  0
 65144  1  0  0  0
 68 82  1  0  0  0
 71 72  2  0  0  0
 71 73  1  0  0  0
 71145  1  0  0  0
 72 75  1  0  0  0
 72146  1  0  0  0
 73 76  2  0  0  0
 73147  1  0  0  0
 74 75  2  0  0  0
 74 76  1  0  0  0
 74148  1  0  0  0
 75 83  1  0  0  0
 76 85  1  0  0  0
 77 79  1  0  0  0
 77 81  1  0  0  0
 77149  1  0  0  0
 77150  1  0  0  0
 78 80  1  0  0  0
 78 81  1  0  0  0
 78151  1  0  0  0
 78152  1  0  0  0
 79 82  1  0  0  0
 79153  1  0  0  0
 79154  1  0  0  0
 80 82  1  0  0  0
 80155  1  0  0  0
 80156  1  0  0  0
 81 84  1  0  0  0
 81157  1  0  0  0
 82158  1  0  0  0
 83 84  1  0  0  0
 83159  1  0  0  0
 83160  1  0  0  0
 84161  1  0  0  0
 84162  1  0  0  0
 85163  1  0  0  0
M  ISO  4   1 100  68 101  82 101  85 100
M  END
> <chiral flag>
0

> <version>
0

> <s_m_source_file>
/data/baiqing/PycharmProjects/Reinvent-master-3.2/result/LINK_invent/BTK/process_docking_weight1_custom_sum_contain_oxygen_bond_distance_aromatic_linkinvent_7_9_3/rearranged_h_0123.sdf

> <i_m_source_file_index>
40

> <r_mmod_Potential_Energy-OPLS-2005>
19.6725845336914

> <r_mmod_Stretch_Energy-OPLS-2005>
34.4459953308105

> <r_mmod_Bend_Energy-OPLS-2005>
92.5244216918945

> <r_mmod_Torsional_Energy-OPLS-2005>
285.421600341797

> <r_mmod_Improper_Torsional_Energy-OPLS-2005>
2.36423826217651

> <r_mmod_Van_der_Waal_Energy-OPLS-2005>
162.59342956543

> <r_mmod_Electrostatic_Energy-OPLS-2005>
-367.973999023438

> <r_mmod_Solvation_Energy-OPLS-2005>
-197.624252319336

> <b_mmod_Minimization_Converged-OPLS-2005>
0

> <r_mmod_RMS_Derivative-OPLS-2005>
1.15664517879486

$$$$
40
                    3D
 Structure written by MMmdl.
156164  0  0  1  0            999 V2000
  -30.4350  -15.1910   20.3817 C   0  0  0  0  0  0
  -30.4394  -12.7543   19.5013 C   0  0  0  0  0  0
  -29.5228  -12.5920   18.2616 C   0  0  0  0  0  0
  -28.0621  -12.3390   18.6786 C   0  0  0  0  0  0
  -27.6187  -13.2733   19.8322 C   0  0  2  0  0  0
  -28.6649  -13.3726   20.9633 C   0  0  0  0  0  0
  -25.2435  -13.8235   20.5761 C   0  0  0  0  0  0
  -24.1788  -13.0429   20.9263 C   0  0  0  0  0  0
  -24.6432  -11.6923   20.8771 C   0  0  0  0  0  0
  -23.9122  -10.4298   21.0404 C   0  0  0  0  0  0
  -24.3657   -9.4200   21.9181 C   0  0  0  0  0  0
  -23.6314   -8.2254   22.0770 C   0  0  0  0  0  0
  -22.4295   -8.0309   21.3548 C   0  0  0  0  0  0
  -21.9932   -9.0287   20.4648 C   0  0  0  0  0  0
  -22.7296  -10.2142   20.3049 C   0  0  0  0  0  0
  -21.6838   -6.0743   22.5276 C   0  0  0  0  0  0
  -21.4016   -6.5646   23.8221 C   0  0  0  0  0  0
  -21.3676   -5.6802   24.9191 C   0  0  0  0  0  0
  -21.6035   -4.3067   24.7227 C   0  0  0  0  0  0
  -21.8819   -3.8148   23.4359 C   0  0  0  0  0  0
  -21.9204   -4.6965   22.3408 C   0  0  0  0  0  0
  -22.7795  -13.5175   21.1902 C   0  0  0  0  0  0
  -22.1660   -4.2160   21.0977 F   0  0  0  0  0  0
  -21.5637   -3.4549   25.7733 F   0  0  0  0  0  0
  -29.9037  -13.8760   20.3494 N   0  0  0  0  0  0
  -26.2859  -12.9512   20.3264 N   0  0  0  0  0  0
  -25.9373  -11.6613   20.5744 N   0  0  0  0  0  0
  -22.0440  -12.8186   22.0450 N   0  0  0  0  0  0
  -25.4038  -15.1987   20.4161 N   0  0  0  0  0  0
  -31.6475  -15.2491   20.1319 O   0  0  0  0  0  0
  -21.6657   -6.8899   21.4246 O   0  0  0  0  0  0
  -22.3483  -14.5477   20.6741 O   0  0  0  0  0  0
  -24.6565  -31.8334   23.1702 C   0  0  0  0  0  0
  -25.9291  -32.4660   23.8135 C   0  0  1  0  0  0
  -27.2335  -26.9995   20.1752 C   0  0  0  0  0  0
  -25.5946  -33.8457   24.2089 N   0  0  0  0  0  0
  -23.4704  -30.4430   21.5169 C   0  0  2  0  0  0
  -24.9275  -28.8343   20.1103 C   0  0  0  0  0  0
  -22.7668  -29.4488   22.4784 C   0  0  0  0  0  0
  -18.0341  -28.1427   22.8453 C   0  0  0  0  0  0
  -24.1479  -36.7258   23.2639 C   0  0  0  0  0  0
  -26.0339  -30.6581   21.3958 C   0  0  0  0  0  0
  -26.1038  -29.2538   20.7360 C   0  0  0  0  0  0
  -27.2522  -28.3543   20.7496 C   0  0  0  0  0  0
  -26.0300  -26.7151   19.4901 C   0  0  0  0  0  0
  -24.9074  -27.5825   19.4700 C   0  0  0  0  0  0
  -23.7115  -29.7540   20.1416 C   0  0  0  0  0  0
  -25.4110  -36.2987   24.0300 C   0  0  1  0  0  0
  -20.5955  -28.3800   23.1176 C   0  0  2  0  0  0
  -20.6811  -26.9485   22.5397 C   0  0  0  0  0  0
  -19.5771  -26.6391   21.5217 C   0  0  0  0  0  0
  -18.1962  -26.7962   22.1620 C   0  0  0  0  0  0
  -19.1596  -28.8923   23.2784 C   0  0  0  0  0  0
  -18.9500  -30.1500   23.8848 C   0  0  0  0  0  0
  -17.6508  -30.6613   24.0557 C   0  0  0  0  0  0
  -25.9069  -34.9385   23.5024 C   0  0  0  0  0  0
  -16.5387  -29.9083   23.6345 C   0  0  0  0  0  0
  -16.7321  -28.6520   23.0382 C   0  0  0  0  0  0
  -26.4508  -31.6563   25.0644 C   0  0  0  0  0  0
  -25.3590  -31.3861   26.1301 C   0  0  0  0  0  0
  -27.0422  -30.2892   24.6436 C   0  0  0  0  0  0
  -27.5979  -32.4383   25.7451 C   0  0  0  0  0  0
  -27.5576  -37.1823   24.8463 C   0  0  0  0  0  0
  -21.4336  -29.3097   22.3547 N   0  0  0  0  0  0
  -26.4248  -37.3732   23.9422 N   0  0  0  0  0  0
  -24.7402  -31.0021   22.0825 N   0  0  0  0  0  0
  -23.4241  -28.8122   23.3066 O   0  0  0  0  0  0
  -28.2652  -25.9478   20.3153 O   0  0  0  0  0  0
  -26.5669  -34.8903   22.4597 O   0  0  0  0  0  0
  -23.5646  -32.1301   23.6822 O   0  0  0  0  0  0
  -28.9379  -20.3356   19.3730 C   0  0  0  0  0  0
  -29.7521  -18.8862   21.5611 C   0  0  0  0  0  0
  -29.0918  -21.2280   20.5177 C   0  0  0  0  0  0
  -29.1455  -18.8535   19.3384 C   0  0  0  0  0  0
  -29.5253  -20.3497   21.6073 C   0  0  0  0  0  0
  -29.6016  -17.9923   20.4327 C   0  0  0  0  0  0
  -28.7962  -18.1525   18.0405 C   0  0  0  0  0  0
  -29.7498  -21.0014   22.9635 C   0  0  0  0  0  0
  -28.7683  -24.4375   18.4858 C   0  0  0  0  0  0
  -28.9181  -22.9579   20.7209 C   0  0  0  0  0  0
  -28.2124  -24.3728   19.9168 C   0  0  1  0  0  0
  -29.5879  -16.3862   20.5054 N   0  0  0  0  0  0
  -31.4616  -12.9534   19.1760 H   0  0  0  0  0  0
  -30.4861  -11.8227   20.0658 H   0  0  0  0  0  0
  -29.8804  -11.7778   17.6278 H   0  0  0  0  0  0
  -29.5802  -13.4936   17.6498 H   0  0  0  0  0  0
  -27.9780  -11.2951   18.9841 H   0  0  0  0  0  0
  -27.3990  -12.4573   17.8194 H   0  0  0  0  0  0
  -27.5562  -14.2658   19.3841 H   0  0  0  0  0  0
  -28.8175  -12.4056   21.4475 H   0  0  0  0  0  0
  -28.3306  -14.0548   21.7463 H   0  0  0  0  0  0
  -25.2797   -9.5679   22.4777 H   0  0  0  0  0  0
  -24.0021   -7.4637   22.7479 H   0  0  0  0  0  0
  -21.0885   -8.8794   19.8951 H   0  0  0  0  0  0
  -22.3750  -10.9686   19.6171 H   0  0  0  0  0  0
  -21.1990   -7.6152   23.9719 H   0  0  0  0  0  0
  -21.1499   -6.0534   25.9087 H   0  0  0  0  0  0
  -22.0578   -2.7613   23.2842 H   0  0  0  0  0  0
  -22.4064  -11.9860   22.4881 H   0  0  0  0  0  0
  -21.1027  -13.1198   22.2578 H   0  0  0  0  0  0
  -24.6247  -15.8416   20.5264 H   0  0  0  0  0  0
  -26.2341  -15.6476   20.0502 H   0  0  0  0  0  0
  -26.7402  -32.5224   23.0881 H   0  0  0  0  0  0
  -24.9970  -33.9501   25.0168 H   0  0  0  0  0  0
  -22.7839  -31.2770   21.3540 H   0  0  0  0  0  0
  -23.3709  -35.9611   23.3265 H   0  0  0  0  0  0
  -24.3588  -36.8924   22.2059 H   0  0  0  0  0  0
  -23.7280  -37.6463   23.6712 H   0  0  0  0  0  0
  -26.2149  -31.4123   20.6276 H   0  0  0  0  0  0
  -26.8941  -30.7085   22.0511 H   0  0  0  0  0  0
  -28.1390  -28.6591   21.2876 H   0  0  0  0  0  0
  -25.9199  -25.7632   18.9947 H   0  0  0  0  0  0
  -24.0041  -27.2581   18.9706 H   0  0  0  0  0  0
  -22.8254  -29.2071   19.8145 H   0  0  0  0  0  0
  -23.8766  -30.5213   19.3844 H   0  0  0  0  0  0
  -25.1330  -36.1772   25.0787 H   0  0  0  0  0  0
  -21.0024  -28.3434   24.1301 H   0  0  0  0  0  0
  -20.5696  -26.2446   23.3664 H   0  0  0  0  0  0
  -21.6673  -26.7493   22.1183 H   0  0  0  0  0  0
  -19.6918  -25.6269   21.1336 H   0  0  0  0  0  0
  -19.6659  -27.3143   20.6696 H   0  0  0  0  0  0
  -17.4230  -26.6732   21.4017 H   0  0  0  0  0  0
  -18.0301  -26.0104   22.9016 H   0  0  0  0  0  0
  -19.7961  -30.7291   24.2215 H   0  0  0  0  0  0
  -17.5063  -31.6279   24.5179 H   0  0  0  0  0  0
  -15.5392  -30.2994   23.7642 H   0  0  0  0  0  0
  -15.8734  -28.0776   22.7152 H   0  0  0  0  0  0
  -24.5734  -30.7260   25.7642 H   0  0  0  0  0  0
  -24.8784  -32.3077   26.4581 H   0  0  0  0  0  0
  -25.7754  -30.9097   27.0177 H   0  0  0  0  0  0
  -26.3099  -29.6524   24.1459 H   0  0  0  0  0  0
  -27.3966  -29.7328   25.5138 H   0  0  0  0  0  0
  -27.9023  -30.4042   23.9827 H   0  0  0  0  0  0
  -27.2510  -33.3701   26.1935 H   0  0  0  0  0  0
  -28.3834  -32.6968   25.0336 H   0  0  0  0  0  0
  -28.0649  -31.8605   26.5450 H   0  0  0  0  0  0
  -28.2597  -38.0118   24.7478 H   0  0  0  0  0  0
  -28.1042  -36.2649   24.6266 H   0  0  0  0  0  0
  -27.2314  -37.1487   25.8865 H   0  0  0  0  0  0
  -20.9598  -29.8791   21.6657 H   0  0  0  0  0  0
  -26.0090  -38.2791   24.1327 H   0  0  0  0  0  0
  -28.6181  -20.8033   18.4526 H   0  0  0  0  0  0
  -30.0262  -18.4101   22.4903 H   0  0  0  0  0  0
  -28.7873  -18.8448   17.1992 H   0  0  0  0  0  0
  -27.8079  -17.6989   18.1199 H   0  0  0  0  0  0
  -29.5166  -17.3684   17.8161 H   0  0  0  0  0  0
  -30.3898  -21.8795   22.8878 H   0  0  0  0  0  0
  -30.2171  -20.3233   23.6786 H   0  0  0  0  0  0
  -28.8006  -21.3194   23.3916 H   0  0  0  0  0  0
  -28.4094  -25.3261   17.9628 H   0  0  0  0  0  0
  -28.4969  -23.5696   17.8864 H   0  0  0  0  0  0
  -29.8563  -24.4997   18.5074 H   0  0  0  0  0  0
  -29.9526  -23.2643   20.8790 H   0  0  0  0  0  0
  -28.4867  -23.0326   21.7186 H   0  0  0  0  0  0
  -27.1503  -24.1454   19.8589 H   0  0  0  0  0  0
  -28.6539  -16.0617   20.7164 H   0  0  0  0  0  0
  1 25  1  0  0  0
  1 30  2  0  0  0
  1 82  1  0  0  0
  2  3  1  0  0  0
  2 25  1  0  0  0
  2 83  1  0  0  0
  2 84  1  0  0  0
  3  4  1  0  0  0
  3 85  1  0  0  0
  3 86  1  0  0  0
  4  5  1  0  0  0
  4 87  1  0  0  0
  4 88  1  0  0  0
  5  6  1  0  0  0
  5 26  1  0  0  0
  5 89  1  0  0  0
  6 25  1  0  0  0
  6 90  1  0  0  0
  6 91  1  0  0  0
  7  8  2  0  0  0
  7 26  1  0  0  0
  7 29  1  0  0  0
  8  9  1  0  0  0
  8 22  1  0  0  0
  9 10  1  0  0  0
  9 27  2  0  0  0
 10 11  2  0  0  0
 10 15  1  0  0  0
 11 12  1  0  0  0
 11 92  1  0  0  0
 12 13  2  0  0  0
 12 93  1  0  0  0
 13 14  1  0  0  0
 13 31  1  0  0  0
 14 15  2  0  0  0
 14 94  1  0  0  0
 15 95  1  0  0  0
 16 17  2  0  0  0
 16 21  1  0  0  0
 16 31  1  0  0  0
 17 18  1  0  0  0
 17 96  1  0  0  0
 18 19  2  0  0  0
 18 97  1  0  0  0
 19 20  1  0  0  0
 19 24  1  0  0  0
 20 21  2  0  0  0
 20 98  1  0  0  0
 21 23  1  0  0  0
 22 28  1  0  0  0
 22 32  2  0  0  0
 26 27  1  0  0  0
 28 99  1  0  0  0
 28100  1  0  0  0
 29101  1  0  0  0
 29102  1  0  0  0
 33 34  1  0  0  0
 33 66  1  0  0  0
 33 70  2  0  0  0
 34 36  1  0  0  0
 34 59  1  0  0  0
 34103  1  0  0  0
 35 44  2  0  0  0
 35 45  1  0  0  0
 35 68  1  0  0  0
 36 56  1  0  0  0
 36104  1  0  0  0
 37 39  1  0  0  0
 37 47  1  0  0  0
 37 66  1  0  0  0
 37105  1  0  0  0
 38 43  2  0  0  0
 38 46  1  0  0  0
 38 47  1  0  0  0
 39 64  1  0  0  0
 39 67  2  0  0  0
 40 52  1  0  0  0
 40 53  2  0  0  0
 40 58  1  0  0  0
 41106  1  0  0  0
 41107  1  0  0  0
 41108  1  0  0  0
 41 48  1  0  0  0
 42 43  1  0  0  0
 42 66  1  0  0  0
 42109  1  0  0  0
 42110  1  0  0  0
 43 44  1  0  0  0
 44111  1  0  0  0
 45 46  2  0  0  0
 45112  1  0  0  0
 46113  1  0  0  0
 47114  1  0  0  0
 47115  1  0  0  0
 48 56  1  0  0  0
 48 65  1  0  0  0
 48116  1  0  0  0
 49 50  1  0  0  0
 49 53  1  0  0  0
 49 64  1  0  0  0
 49117  1  0  0  0
 50 51  1  0  0  0
 50118  1  0  0  0
 50119  1  0  0  0
 51 52  1  0  0  0
 51120  1  0  0  0
 51121  1  0  0  0
 52122  1  0  0  0
 52123  1  0  0  0
 53 54  1  0  0  0
 54 55  2  0  0  0
 54124  1  0  0  0
 55 57  1  0  0  0
 55125  1  0  0  0
 56 69  2  0  0  0
 57 58  2  0  0  0
 57126  1  0  0  0
 58127  1  0  0  0
 59 60  1  0  0  0
 59 61  1  0  0  0
 59 62  1  0  0  0
 60128  1  0  0  0
 60129  1  0  0  0
 60130  1  0  0  0
 61131  1  0  0  0
 61132  1  0  0  0
 61133  1  0  0  0
 62134  1  0  0  0
 62135  1  0  0  0
 62136  1  0  0  0
 63 65  1  0  0  0
 63137  1  0  0  0
 63138  1  0  0  0
 63139  1  0  0  0
 64140  1  0  0  0
 65141  1  0  0  0
 68 81  1  0  0  0
 71 73  2  0  0  0
 71 74  1  0  0  0
 71142  1  0  0  0
 72 75  2  0  0  0
 72 76  1  0  0  0
 72143  1  0  0  0
 73 75  1  0  0  0
 73 80  1  0  0  0
 74 76  2  0  0  0
 74 77  1  0  0  0
 75 78  1  0  0  0
 76 82  1  0  0  0
 77144  1  0  0  0
 77145  1  0  0  0
 77146  1  0  0  0
 78147  1  0  0  0
 78148  1  0  0  0
 78149  1  0  0  0
 79150  1  0  0  0
 79151  1  0  0  0
 79152  1  0  0  0
 79 81  1  0  0  0
 80 81  1  0  0  0
 80153  1  0  0  0
 80154  1  0  0  0
 81155  1  0  0  0
 82156  1  0  0  0
M  ISO  4   1 100  68 101  81 101  82 100
M  END
> <chiral flag>
0

> <version>
0

> <s_m_source_file>
/data/baiqing/PycharmProjects/Reinvent-master-3.2/result/LINK_invent/BTK/process_docking_weight1_custom_sum_contain_oxygen_bond_distance_aromatic_linkinvent_7_9_3/rearranged_h_0123.sdf

> <i_m_source_file_index>
41

> <r_mmod_Potential_Energy-OPLS-2005>
1047.03967285156

> <r_mmod_Stretch_Energy-OPLS-2005>
462.305053710938

> <r_mmod_Bend_Energy-OPLS-2005>
426.53857421875

> <r_mmod_Torsional_Energy-OPLS-2005>
242.880432128906

> <r_mmod_Improper_Torsional_Energy-OPLS-2005>
7.03907251358032

> <r_mmod_Van_der_Waal_Energy-OPLS-2005>
126.231437683105

> <r_mmod_Electrostatic_Energy-OPLS-2005>
-385.411224365234

> <r_mmod_Solvation_Energy-OPLS-2005>
-206.143768310547

> <b_mmod_Minimization_Converged-OPLS-2005>
0

> <r_mmod_RMS_Derivative-OPLS-2005>
5.96825981140137

$$$$
41
                    3D
 Structure written by MMmdl.
152160  0  0  1  0            999 V2000
  -30.4256  -15.1342   20.3861 C   0  0  0  0  0  0
  -30.4605  -12.7116   19.5076 C   0  0  0  0  0  0
  -29.5393  -12.5600   18.2700 C   0  0  0  0  0  0
  -28.0770  -12.3095   18.6895 C   0  0  0  0  0  0
  -27.6281  -13.2537   19.8331 C   0  0  2  0  0  0
  -28.6701  -13.3299   20.9698 C   0  0  0  0  0  0
  -25.2458  -13.8199   20.5698 C   0  0  0  0  0  0
  -24.1784  -13.0426   20.9242 C   0  0  0  0  0  0
  -24.6402  -11.6916   20.8749 C   0  0  0  0  0  0
  -23.9078  -10.4290   21.0402 C   0  0  0  0  0  0
  -24.3624   -9.4206   21.9182 C   0  0  0  0  0  0
  -23.6300   -8.2240   22.0755 C   0  0  0  0  0  0
  -22.4278   -8.0280   21.3547 C   0  0  0  0  0  0
  -21.9915   -9.0255   20.4647 C   0  0  0  0  0  0
  -22.7246  -10.2136   20.3053 C   0  0  0  0  0  0
  -21.6852   -6.0730   22.5278 C   0  0  0  0  0  0
  -21.4013   -6.5633   23.8212 C   0  0  0  0  0  0
  -21.3660   -5.6785   24.9171 C   0  0  0  0  0  0
  -21.6050   -4.3049   24.7221 C   0  0  0  0  0  0
  -21.8819   -3.8141   23.4342 C   0  0  0  0  0  0
  -21.9191   -4.6957   22.3398 C   0  0  0  0  0  0
  -22.7805  -13.5206   21.1888 C   0  0  0  0  0  0
  -22.1659   -4.2134   21.0979 F   0  0  0  0  0  0
  -21.5632   -3.4532   25.7736 F   0  0  0  0  0  0
  -29.9232  -13.8148   20.3680 N   0  0  0  0  0  0
  -26.2883  -12.9435   20.3208 N   0  0  0  0  0  0
  -25.9339  -11.6565   20.5714 N   0  0  0  0  0  0
  -22.0431  -12.8214   22.0443 N   0  0  0  0  0  0
  -25.4097  -15.1930   20.4073 N   0  0  0  0  0  0
  -31.6260  -15.2528   20.1064 O   0  0  0  0  0  0
  -21.6642   -6.8880   21.4241 O   0  0  0  0  0  0
  -22.3505  -14.5508   20.6713 O   0  0  0  0  0  0
  -24.6563  -31.8313   23.1760 C   0  0  0  0  0  0
  -25.9278  -32.4626   23.8201 C   0  0  1  0  0  0
  -27.2251  -27.0114   20.1674 C   0  0  0  0  0  0
  -25.5975  -33.8439   24.2113 N   0  0  0  0  0  0
  -23.4665  -30.4444   21.5242 C   0  0  2  0  0  0
  -24.9189  -28.8446   20.1111 C   0  0  0  0  0  0
  -22.7634  -29.4484   22.4820 C   0  0  0  0  0  0
  -18.0314  -28.1402   22.8471 C   0  0  0  0  0  0
  -24.1496  -36.7225   23.2648 C   0  0  0  0  0  0
  -26.0304  -30.6644   21.3932 C   0  0  0  0  0  0
  -26.1007  -29.2626   20.7358 C   0  0  0  0  0  0
  -27.2508  -28.3656   20.7400 C   0  0  0  0  0  0
  -26.0127  -26.7222   19.5033 C   0  0  0  0  0  0
  -24.8950  -27.5922   19.4765 C   0  0  0  0  0  0
  -23.7007  -29.7620   20.1486 C   0  0  0  0  0  0
  -25.4134  -36.2994   24.0307 C   0  0  1  0  0  0
  -20.5935  -28.3746   23.1205 C   0  0  2  0  0  0
  -20.6795  -26.9438   22.5401 C   0  0  0  0  0  0
  -19.5767  -26.6379   21.5212 C   0  0  0  0  0  0
  -18.1951  -26.7936   22.1625 C   0  0  0  0  0  0
  -19.1574  -28.8894   23.2822 C   0  0  0  0  0  0
  -18.9487  -30.1485   23.8854 C   0  0  0  0  0  0
  -17.6484  -30.6597   24.0553 C   0  0  0  0  0  0
  -25.9098  -34.9371   23.5028 C   0  0  0  0  0  0
  -16.5373  -29.9085   23.6342 C   0  0  0  0  0  0
  -16.7298  -28.6504   23.0360 C   0  0  0  0  0  0
  -26.4548  -31.6542   25.0705 C   0  0  0  0  0  0
  -25.3696  -31.3766   26.1379 C   0  0  0  0  0  0
  -27.0433  -30.2920   24.6384 C   0  0  0  0  0  0
  -27.6059  -32.4330   25.7496 C   0  0  0  0  0  0
  -27.5571  -37.1778   24.8471 C   0  0  0  0  0  0
  -21.4311  -29.3046   22.3565 N   0  0  0  0  0  0
  -26.4288  -37.3719   23.9404 N   0  0  0  0  0  0
  -24.7382  -31.0047   22.0854 N   0  0  0  0  0  0
  -23.4220  -28.8061   23.3040 O   0  0  0  0  0  0
  -28.2578  -25.9630   20.2336 O   0  0  0  0  0  0
  -26.5696  -34.8895   22.4617 O   0  0  0  0  0  0
  -23.5653  -32.1249   23.6906 O   0  0  0  0  0  0
  -29.7451  -20.5761   21.3349 C   0  0  0  0  0  0
  -29.1938  -20.4605   19.2134 C   0  0  0  0  0  0
  -29.6072  -18.9338   21.5297 C   0  0  0  0  0  0
  -29.0518  -18.7985   19.3019 C   0  0  0  0  0  0
  -29.0815  -22.9874   20.3339 C   0  0  0  0  0  0
  -28.0136  -24.3702   20.1044 C   0  0  0  0  0  0
  -28.8609  -21.3772   20.3858 N   0  0  0  0  0  0
  -29.5087  -16.2440   20.5605 N   0  0  0  0  0  0
  -29.8539  -17.9947   20.3438 N   0  3  0  0  0  0
  -31.4806  -12.9230   19.1826 H   0  0  0  0  0  0
  -30.5162  -11.7765   20.0678 H   0  0  0  0  0  0
  -29.8923  -11.7476   17.6336 H   0  0  0  0  0  0
  -29.5932  -13.4670   17.6652 H   0  0  0  0  0  0
  -28.0021  -11.2730   19.0207 H   0  0  0  0  0  0
  -27.4109  -12.4037   17.8311 H   0  0  0  0  0  0
  -27.5725  -14.2436   19.3795 H   0  0  0  0  0  0
  -28.8053  -12.3586   21.4478 H   0  0  0  0  0  0
  -28.3346  -14.0127   21.7518 H   0  0  0  0  0  0
  -25.2761   -9.5679   22.4766 H   0  0  0  0  0  0
  -23.9999   -7.4632   22.7481 H   0  0  0  0  0  0
  -21.0839   -8.8775   19.8967 H   0  0  0  0  0  0
  -22.3695  -10.9674   19.6167 H   0  0  0  0  0  0
  -21.2006   -7.6144   23.9711 H   0  0  0  0  0  0
  -21.1485   -6.0515   25.9077 H   0  0  0  0  0  0
  -22.0600   -2.7603   23.2841 H   0  0  0  0  0  0
  -22.4030  -11.9880   22.4855 H   0  0  0  0  0  0
  -21.1051  -13.1258   22.2626 H   0  0  0  0  0  0
  -24.6212  -15.8261   20.4876 H   0  0  0  0  0  0
  -26.2065  -15.6156   19.9516 H   0  0  0  0  0  0
  -26.7354  -32.5185   23.0926 H   0  0  0  0  0  0
  -25.0074  -33.9522   25.0229 H   0  0  0  0  0  0
  -22.7759  -31.2741   21.3579 H   0  0  0  0  0  0
  -23.3759  -35.9557   23.3307 H   0  0  0  0  0  0
  -24.3571  -36.8868   22.2063 H   0  0  0  0  0  0
  -23.7257  -37.6421   23.6693 H   0  0  0  0  0  0
  -26.2006  -31.4133   20.6183 H   0  0  0  0  0  0
  -26.8945  -30.7175   22.0445 H   0  0  0  0  0  0
  -28.1484  -28.6838   21.2511 H   0  0  0  0  0  0
  -25.8970  -25.7640   19.0191 H   0  0  0  0  0  0
  -23.9951  -27.2649   18.9738 H   0  0  0  0  0  0
  -23.8481  -30.5306   19.3892 H   0  0  0  0  0  0
  -22.8127  -29.2104   19.8355 H   0  0  0  0  0  0
  -25.1331  -36.1799   25.0800 H   0  0  0  0  0  0
  -21.0012  -28.3341   24.1332 H   0  0  0  0  0  0
  -20.5679  -26.2369   23.3633 H   0  0  0  0  0  0
  -21.6660  -26.7430   22.1206 H   0  0  0  0  0  0
  -19.6932  -25.6277   21.1272 H   0  0  0  0  0  0
  -19.6698  -27.3163   20.6717 H   0  0  0  0  0  0
  -17.4220  -26.6673   21.4028 H   0  0  0  0  0  0
  -18.0354  -26.0085   22.9029 H   0  0  0  0  0  0
  -19.7965  -30.7307   24.2208 H   0  0  0  0  0  0
  -17.5038  -31.6273   24.5158 H   0  0  0  0  0  0
  -15.5371  -30.2973   23.7689 H   0  0  0  0  0  0
  -15.8698  -28.0806   22.7101 H   0  0  0  0  0  0
  -24.5870  -30.7130   25.7678 H   0  0  0  0  0  0
  -24.8894  -32.2962   26.4734 H   0  0  0  0  0  0
  -25.7951  -30.8965   27.0203 H   0  0  0  0  0  0
  -26.3083  -29.6611   24.1375 H   0  0  0  0  0  0
  -27.3973  -29.7263   25.5012 H   0  0  0  0  0  0
  -27.9017  -30.4114   23.9773 H   0  0  0  0  0  0
  -27.2639  -33.3653   26.1995 H   0  0  0  0  0  0
  -28.3906  -32.6858   25.0355 H   0  0  0  0  0  0
  -28.0690  -31.8511   26.5474 H   0  0  0  0  0  0
  -28.2595  -38.0066   24.7494 H   0  0  0  0  0  0
  -28.1058  -36.2594   24.6327 H   0  0  0  0  0  0
  -27.2287  -37.1461   25.8875 H   0  0  0  0  0  0
  -20.9562  -29.8736   21.6696 H   0  0  0  0  0  0
  -26.0142  -38.2791   24.1374 H   0  0  0  0  0  0
  -30.7892  -20.7944   21.0979 H   0  0  0  0  0  0
  -29.5993  -21.0151   22.3230 H   0  0  0  0  0  0
  -28.5656  -20.7881   18.3837 H   0  0  0  0  0  0
  -30.2107  -20.6856   18.8847 H   0  0  0  0  0  0
  -28.6085  -18.7227   21.9138 H   0  0  0  0  0  0
  -30.2892  -18.6250   22.3220 H   0  0  0  0  0  0
  -29.2989  -18.3852   18.3238 H   0  0  0  0  0  0
  -27.9980  -18.5607   19.4491 H   0  0  0  0  0  0
  -29.5117  -23.1963   21.3141 H   0  0  0  0  0  0
  -29.9208  -23.1405   19.6547 H   0  0  0  0  0  0
  -27.1649  -24.1836   20.7620 H   0  0  0  0  0  0
  -27.6101  -24.2408   19.1002 H   0  0  0  0  0  0
  -28.5457  -16.0417   20.7741 H   0  0  0  0  0  0
  -30.8306  -18.0676   20.0971 H   0  0  0  0  0  0
  1 25  1  0  0  0
  1 30  2  0  0  0
  1 78  1  0  0  0
  2  3  1  0  0  0
  2 25  1  0  0  0
  2 80  1  0  0  0
  2 81  1  0  0  0
  3  4  1  0  0  0
  3 82  1  0  0  0
  3 83  1  0  0  0
  4  5  1  0  0  0
  4 84  1  0  0  0
  4 85  1  0  0  0
  5  6  1  0  0  0
  5 26  1  0  0  0
  5 86  1  0  0  0
  6 25  1  0  0  0
  6 87  1  0  0  0
  6 88  1  0  0  0
  7  8  2  0  0  0
  7 26  1  0  0  0
  7 29  1  0  0  0
  8  9  1  0  0  0
  8 22  1  0  0  0
  9 10  1  0  0  0
  9 27  2  0  0  0
 10 11  2  0  0  0
 10 15  1  0  0  0
 11 12  1  0  0  0
 11 89  1  0  0  0
 12 13  2  0  0  0
 12 90  1  0  0  0
 13 14  1  0  0  0
 13 31  1  0  0  0
 14 15  2  0  0  0
 14 91  1  0  0  0
 15 92  1  0  0  0
 16 17  2  0  0  0
 16 21  1  0  0  0
 16 31  1  0  0  0
 17 18  1  0  0  0
 17 93  1  0  0  0
 18 19  2  0  0  0
 18 94  1  0  0  0
 19 20  1  0  0  0
 19 24  1  0  0  0
 20 21  2  0  0  0
 20 95  1  0  0  0
 21 23  1  0  0  0
 22 28  1  0  0  0
 22 32  2  0  0  0
 26 27  1  0  0  0
 28 96  1  0  0  0
 28 97  1  0  0  0
 29 98  1  0  0  0
 29 99  1  0  0  0
 33 34  1  0  0  0
 33 66  1  0  0  0
 33 70  2  0  0  0
 34 36  1  0  0  0
 34 59  1  0  0  0
 34100  1  0  0  0
 35 44  2  0  0  0
 35 45  1  0  0  0
 35 68  1  0  0  0
 36 56  1  0  0  0
 36101  1  0  0  0
 37 39  1  0  0  0
 37 47  1  0  0  0
 37 66  1  0  0  0
 37102  1  0  0  0
 38 43  2  0  0  0
 38 46  1  0  0  0
 38 47  1  0  0  0
 39 64  1  0  0  0
 39 67  2  0  0  0
 40 52  1  0  0  0
 40 53  2  0  0  0
 40 58  1  0  0  0
 41103  1  0  0  0
 41104  1  0  0  0
 41105  1  0  0  0
 41 48  1  0  0  0
 42 43  1  0  0  0
 42 66  1  0  0  0
 42106  1  0  0  0
 42107  1  0  0  0
 43 44  1  0  0  0
 44108  1  0  0  0
 45 46  2  0  0  0
 45109  1  0  0  0
 46110  1  0  0  0
 47111  1  0  0  0
 47112  1  0  0  0
 48 56  1  0  0  0
 48 65  1  0  0  0
 48113  1  0  0  0
 49 50  1  0  0  0
 49 53  1  0  0  0
 49 64  1  0  0  0
 49114  1  0  0  0
 50 51  1  0  0  0
 50115  1  0  0  0
 50116  1  0  0  0
 51 52  1  0  0  0
 51117  1  0  0  0
 51118  1  0  0  0
 52119  1  0  0  0
 52120  1  0  0  0
 53 54  1  0  0  0
 54 55  2  0  0  0
 54121  1  0  0  0
 55 57  1  0  0  0
 55122  1  0  0  0
 56 69  2  0  0  0
 57 58  2  0  0  0
 57123  1  0  0  0
 58124  1  0  0  0
 59 60  1  0  0  0
 59 61  1  0  0  0
 59 62  1  0  0  0
 60125  1  0  0  0
 60126  1  0  0  0
 60127  1  0  0  0
 61128  1  0  0  0
 61129  1  0  0  0
 61130  1  0  0  0
 62131  1  0  0  0
 62132  1  0  0  0
 62133  1  0  0  0
 63 65  1  0  0  0
 63134  1  0  0  0
 63135  1  0  0  0
 63136  1  0  0  0
 64137  1  0  0  0
 65138  1  0  0  0
 68 76  1  0  0  0
 71 73  1  0  0  0
 71 77  1  0  0  0
 71139  1  0  0  0
 71140  1  0  0  0
 72 74  1  0  0  0
 72 77  1  0  0  0
 72141  1  0  0  0
 72142  1  0  0  0
 73 79  1  0  0  0
 73143  1  0  0  0
 73144  1  0  0  0
 74 79  1  0  0  0
 74145  1  0  0  0
 74146  1  0  0  0
 75 76  1  0  0  0
 75 77  1  0  0  0
 75147  1  0  0  0
 75148  1  0  0  0
 76149  1  0  0  0
 76150  1  0  0  0
 78151  1  0  0  0
 78 79  1  0  0  0
 79152  1  0  0  0
M  CHG  1  79   1
M  ISO  4   1 100  68 101  76 101  78 100
M  END
> <chiral flag>
0

> <version>
0

> <s_m_source_file>
/data/baiqing/PycharmProjects/Reinvent-master-3.2/result/LINK_invent/BTK/process_docking_weight1_custom_sum_contain_oxygen_bond_distance_aromatic_linkinvent_7_9_3/rearranged_h_0123.sdf

> <i_m_source_file_index>
42

> <r_mmod_Potential_Energy-OPLS-2005>
830.433532714844

> <r_mmod_Stretch_Energy-OPLS-2005>
448.760467529297

> <r_mmod_Bend_Energy-OPLS-2005>
413.567047119141

> <r_mmod_Torsional_Energy-OPLS-2005>
213.456420898438

> <r_mmod_Improper_Torsional_Energy-OPLS-2005>
4.18658685684204

> <r_mmod_Van_der_Waal_Energy-OPLS-2005>
120.880348205566

> <r_mmod_Electrostatic_Energy-OPLS-2005>
-230.221633911133

> <r_mmod_Solvation_Energy-OPLS-2005>
-478.592956542969

> <b_mmod_Minimization_Converged-OPLS-2005>
0

> <r_mmod_RMS_Derivative-OPLS-2005>
1.02417755126953

$$$$
42
                    3D
 Structure written by MMmdl.
175184  0  0  1  0            999 V2000
  -30.5734  -14.7809   20.4710 C   0  0  0  0  0  0
  -30.4441  -12.4830   19.4669 C   0  0  0  0  0  0
  -29.5091  -12.4993   18.2332 C   0  0  0  0  0  0
  -28.0342  -12.3229   18.6512 C   0  0  0  0  0  0
  -27.6375  -13.2261   19.8489 C   0  0  2  0  0  0
  -28.6886  -13.1610   20.9788 C   0  0  0  0  0  0
  -25.2489  -13.8160   20.5685 C   0  0  0  0  0  0
  -24.1791  -13.0410   20.9196 C   0  0  0  0  0  0
  -24.6369  -11.6887   20.8754 C   0  0  0  0  0  0
  -23.9028  -10.4265   21.0388 C   0  0  0  0  0  0
  -24.3585   -9.4183   21.9169 C   0  0  0  0  0  0
  -23.6269   -8.2208   22.0746 C   0  0  0  0  0  0
  -22.4271   -8.0232   21.3528 C   0  0  0  0  0  0
  -21.9878   -9.0191   20.4632 C   0  0  0  0  0  0
  -22.7193  -10.2081   20.3041 C   0  0  0  0  0  0
  -21.6838   -6.0707   22.5265 C   0  0  0  0  0  0
  -21.4027   -6.5619   23.8192 C   0  0  0  0  0  0
  -21.3673   -5.6780   24.9156 C   0  0  0  0  0  0
  -21.6056   -4.3037   24.7198 C   0  0  0  0  0  0
  -21.8829   -3.8123   23.4327 C   0  0  0  0  0  0
  -21.9193   -4.6932   22.3379 C   0  0  0  0  0  0
  -22.7808  -13.5180   21.1833 C   0  0  0  0  0  0
  -22.1650   -4.2126   21.0955 F   0  0  0  0  0  0
  -21.5630   -3.4532   25.7716 F   0  0  0  0  0  0
  -29.9783  -13.5409   20.3885 N   0  0  0  0  0  0
  -26.2917  -12.9360   20.3288 N   0  0  0  0  0  0
  -25.9311  -11.6520   20.5804 N   0  0  0  0  0  0
  -22.0467  -12.8190   22.0421 N   0  0  0  0  0  0
  -25.4120  -15.1883   20.4046 N   0  0  0  0  0  0
  -31.7722  -14.9122   20.2103 O   0  0  0  0  0  0
  -21.6636   -6.8831   21.4220 O   0  0  0  0  0  0
  -22.3478  -14.5465   20.6644 O   0  0  0  0  0  0
  -24.6315  -31.8542   23.1913 C   0  0  0  0  0  0
  -25.9123  -32.4756   23.8291 C   0  0  1  0  0  0
  -27.2326  -27.2525   20.1266 C   0  0  0  0  0  0
  -25.5909  -33.8558   24.2220 N   0  0  0  0  0  0
  -23.4310  -30.4695   21.5363 C   0  0  2  0  0  0
  -24.8793  -28.9085   20.1019 C   0  0  0  0  0  0
  -22.7502  -29.4591   22.4910 C   0  0  0  0  0  0
  -18.0297  -28.1391   22.8486 C   0  0  0  0  0  0
  -24.1492  -36.7282   23.2649 C   0  0  0  0  0  0
  -25.9756  -30.7592   21.3737 C   0  0  0  0  0  0
  -26.0468  -29.3804   20.7144 C   0  0  0  0  0  0
  -27.2207  -28.5633   20.7148 C   0  0  0  0  0  0
  -26.0437  -26.8391   19.4871 C   0  0  0  0  0  0
  -24.8844  -27.6476   19.4764 C   0  0  0  0  0  0
  -23.6479  -29.7952   20.1539 C   0  0  0  0  0  0
  -25.4125  -36.3083   24.0332 C   0  0  1  0  0  0
  -20.5903  -28.3711   23.1266 C   0  0  2  0  0  0
  -20.6800  -26.9430   22.5415 C   0  0  0  0  0  0
  -19.5779  -26.6389   21.5224 C   0  0  0  0  0  0
  -18.1945  -26.7938   22.1618 C   0  0  0  0  0  0
  -19.1548  -28.8866   23.2869 C   0  0  0  0  0  0
  -18.9484  -30.1463   23.8895 C   0  0  0  0  0  0
  -17.6483  -30.6599   24.0564 C   0  0  0  0  0  0
  -25.9064  -34.9454   23.5081 C   0  0  0  0  0  0
  -16.5368  -29.9107   23.6331 C   0  0  0  0  0  0
  -16.7278  -28.6518   23.0357 C   0  0  0  0  0  0
  -26.4467  -31.6609   25.0709 C   0  0  0  0  0  0
  -25.3657  -31.3783   26.1406 C   0  0  0  0  0  0
  -27.0334  -30.3033   24.6212 C   0  0  0  0  0  0
  -27.6005  -32.4372   25.7475 C   0  0  0  0  0  0
  -27.5582  -37.1798   24.8461 C   0  0  0  0  0  0
  -21.4215  -29.3043   22.3651 N   0  0  0  0  0  0
  -26.4296  -37.3790   23.9410 N   0  0  0  0  0  0
  -24.6989  -31.0475   22.0897 N   0  0  0  0  0  0
  -23.4191  -28.8164   23.3048 O   0  0  0  0  0  0
  -28.3388  -26.3825   20.2636 O   0  0  0  0  0  0
  -26.5656  -34.8935   22.4667 O   0  0  0  0  0  0
  -23.5448  -32.1376   23.7186 O   0  0  0  0  0  0
  -29.3461  -23.8952   17.7088 C   0  0  0  0  0  0
  -28.7864  -25.0406   18.3093 C   0  0  0  0  0  0
  -28.7120  -23.8233   20.4048 C   0  0  0  0  0  0
  -29.6580  -22.7201   18.4409 C   0  0  0  0  0  0
  -29.2559  -22.5991   19.8065 C   0  0  0  0  0  0
  -28.5209  -25.0837   19.6874 C   0  0  0  0  0  0
  -30.4432  -21.4194   16.3120 C   0  0  0  0  0  0
  -32.0811  -22.2105   18.0440 C   0  0  0  0  0  0
  -31.5124  -20.4234   15.8134 C   0  0  0  0  0  0
  -30.6361  -21.7115   17.8143 C   0  0  1  0  0  0
  -33.1721  -21.2654   17.4836 C   0  0  1  0  0  0
  -33.8768  -20.2832   19.7890 C   0  0  0  0  0  0
  -29.6599  -21.2737   20.6362 C   0  0  0  0  0  0
  -33.4326  -20.0003   18.3435 C   0  0  0  0  0  0
  -29.9212  -17.3605   21.0362 C   0  0  0  0  0  0
  -29.6396  -18.5820   19.9947 C   0  0  0  0  0  0
  -29.7373  -15.8748   20.6579 N   0  0  0  0  0  0
  -32.8851  -20.9247   16.0657 N   0  3  0  0  0  0
  -28.9637  -19.9103   20.4427 N   0  3  0  0  0  0
  -31.4802  -12.6378   19.1618 H   0  0  0  0  0  0
  -30.4171  -11.5087   19.9594 H   0  0  0  0  0  0
  -29.7923  -11.7100   17.5372 H   0  0  0  0  0  0
  -29.6277  -13.4398   17.6940 H   0  0  0  0  0  0
  -27.8919  -11.2753   18.9189 H   0  0  0  0  0  0
  -27.3702  -12.4978   17.8031 H   0  0  0  0  0  0
  -27.6232  -14.2452   19.4596 H   0  0  0  0  0  0
  -28.7415  -12.1598   21.4073 H   0  0  0  0  0  0
  -28.4241  -13.8258   21.8033 H   0  0  0  0  0  0
  -25.2723   -9.5693   22.4742 H   0  0  0  0  0  0
  -23.9971   -7.4630   22.7498 H   0  0  0  0  0  0
  -21.0787   -8.8693   19.8969 H   0  0  0  0  0  0
  -22.3602  -10.9604   19.6155 H   0  0  0  0  0  0
  -21.2046   -7.6132   23.9694 H   0  0  0  0  0  0
  -21.1499   -6.0502   25.9058 H   0  0  0  0  0  0
  -22.0618   -2.7576   23.2822 H   0  0  0  0  0  0
  -22.4059  -11.9825   22.4783 H   0  0  0  0  0  0
  -21.1114  -13.1260   22.2697 H   0  0  0  0  0  0
  -24.6268  -15.8228   20.5021 H   0  0  0  0  0  0
  -26.2431  -15.6380   20.0448 H   0  0  0  0  0  0
  -26.7182  -32.5378   23.1022 H   0  0  0  0  0  0
  -25.0044  -33.9710   25.0347 H   0  0  0  0  0  0
  -22.7290  -31.2916   21.3856 H   0  0  0  0  0  0
  -23.3780  -35.9585   23.3296 H   0  0  0  0  0  0
  -24.3585  -36.8919   22.2066 H   0  0  0  0  0  0
  -23.7199  -37.6459   23.6680 H   0  0  0  0  0  0
  -26.1205  -31.5177   20.6039 H   0  0  0  0  0  0
  -26.8507  -30.8059   22.0102 H   0  0  0  0  0  0
  -28.1134  -28.9124   21.2135 H   0  0  0  0  0  0
  -25.9927  -25.8611   19.0301 H   0  0  0  0  0  0
  -23.9888  -27.2788   18.9958 H   0  0  0  0  0  0
  -23.7653  -30.5690   19.3946 H   0  0  0  0  0  0
  -22.7662  -29.2269   19.8537 H   0  0  0  0  0  0
  -25.1306  -36.1943   25.0826 H   0  0  0  0  0  0
  -20.9988  -28.3303   24.1393 H   0  0  0  0  0  0
  -20.5735  -26.2326   23.3623 H   0  0  0  0  0  0
  -21.6664  -26.7479   22.1187 H   0  0  0  0  0  0
  -19.6961  -25.6302   21.1260 H   0  0  0  0  0  0
  -19.6726  -27.3196   20.6753 H   0  0  0  0  0  0
  -17.4230  -26.6684   21.4002 H   0  0  0  0  0  0
  -18.0330  -26.0073   22.9004 H   0  0  0  0  0  0
  -19.7958  -30.7271   24.2260 H   0  0  0  0  0  0
  -17.5047  -31.6277   24.5177 H   0  0  0  0  0  0
  -15.5373  -30.3018   23.7669 H   0  0  0  0  0  0
  -15.8666  -28.0840   22.7086 H   0  0  0  0  0  0
  -24.5805  -30.7189   25.7694 H   0  0  0  0  0  0
  -24.8885  -32.2976   26.4815 H   0  0  0  0  0  0
  -25.7922  -30.8928   27.0192 H   0  0  0  0  0  0
  -26.2941  -29.6775   24.1204 H   0  0  0  0  0  0
  -27.3992  -29.7307   25.4743 H   0  0  0  0  0  0
  -27.8814  -30.4334   23.9486 H   0  0  0  0  0  0
  -27.2601  -33.3687   26.2007 H   0  0  0  0  0  0
  -28.3812  -32.6917   25.0297 H   0  0  0  0  0  0
  -28.0669  -31.8539   26.5418 H   0  0  0  0  0  0
  -28.2584  -38.0114   24.7541 H   0  0  0  0  0  0
  -28.1096  -36.2644   24.6248 H   0  0  0  0  0  0
  -27.2307  -37.1388   25.8866 H   0  0  0  0  0  0
  -20.9423  -29.8713   21.6784 H   0  0  0  0  0  0
  -26.0180  -38.2865   24.1414 H   0  0  0  0  0  0
  -29.6435  -23.9926   16.6770 H   0  0  0  0  0  0
  -28.6772  -25.9415   17.7213 H   0  0  0  0  0  0
  -28.5377  -23.8266   21.4719 H   0  0  0  0  0  0
  -29.4492  -21.0148   16.1291 H   0  0  0  0  0  0
  -30.5239  -22.3275   15.7172 H   0  0  0  0  0  0
  -32.2503  -22.4044   19.1010 H   0  0  0  0  0  0
  -32.1918  -23.1860   17.5675 H   0  0  0  0  0  0
  -31.3845  -20.2446   14.7457 H   0  0  0  0  0  0
  -31.3856  -19.4539   16.2992 H   0  0  0  0  0  0
  -30.5204  -20.7523   18.3080 H   0  0  0  0  0  0
  -34.1076  -21.8296   17.4731 H   0  0  0  0  0  0
  -34.1124  -19.3537   20.3105 H   0  0  0  0  0  0
  -33.0997  -20.7799   20.3679 H   0  0  0  0  0  0
  -34.7676  -20.9124   19.8193 H   0  0  0  0  0  0
  -29.4995  -21.5303   21.6838 H   0  0  0  0  0  0
  -30.7385  -21.1252   20.5705 H   0  0  0  0  0  0
  -34.2144  -19.4045   17.8659 H   0  0  0  0  0  0
  -32.5519  -19.3607   18.3685 H   0  0  0  0  0  0
  -29.2580  -17.5057   21.8888 H   0  0  0  0  0  0
  -30.9259  -17.4830   21.4434 H   0  0  0  0  0  0
  -28.9764  -18.1818   19.2268 H   0  0  0  0  0  0
  -30.5688  -18.8117   19.4779 H   0  0  0  0  0  0
  -28.7722  -15.5844   20.7229 H   0  0  0  0  0  0
  -33.0272  -21.7457   15.4976 H   0  0  0  0  0  0
  -33.5536  -20.2401   15.7464 H   0  0  0  0  0  0
  -28.2345  -20.0872   19.7725 H   0  0  0  0  0  0
  -28.4775  -19.7175   21.3023 H   0  0  0  0  0  0
  1 25  1  0  0  0
  1 30  2  0  0  0
  1 87  1  0  0  0
  2  3  1  0  0  0
  2 25  1  0  0  0
  2 90  1  0  0  0
  2 91  1  0  0  0
  3  4  1  0  0  0
  3 92  1  0  0  0
  3 93  1  0  0  0
  4  5  1  0  0  0
  4 94  1  0  0  0
  4 95  1  0  0  0
  5  6  1  0  0  0
  5 26  1  0  0  0
  5 96  1  0  0  0
  6 25  1  0  0  0
  6 97  1  0  0  0
  6 98  1  0  0  0
  7  8  2  0  0  0
  7 26  1  0  0  0
  7 29  1  0  0  0
  8  9  1  0  0  0
  8 22  1  0  0  0
  9 10  1  0  0  0
  9 27  2  0  0  0
 10 11  2  0  0  0
 10 15  1  0  0  0
 11 12  1  0  0  0
 11 99  1  0  0  0
 12 13  2  0  0  0
 12100  1  0  0  0
 13 14  1  0  0  0
 13 31  1  0  0  0
 14 15  2  0  0  0
 14101  1  0  0  0
 15102  1  0  0  0
 16 17  2  0  0  0
 16 21  1  0  0  0
 16 31  1  0  0  0
 17 18  1  0  0  0
 17103  1  0  0  0
 18 19  2  0  0  0
 18104  1  0  0  0
 19 20  1  0  0  0
 19 24  1  0  0  0
 20 21  2  0  0  0
 20105  1  0  0  0
 21 23  1  0  0  0
 22 28  1  0  0  0
 22 32  2  0  0  0
 26 27  1  0  0  0
 28106  1  0  0  0
 28107  1  0  0  0
 29108  1  0  0  0
 29109  1  0  0  0
 33 34  1  0  0  0
 33 66  1  0  0  0
 33 70  2  0  0  0
 34 36  1  0  0  0
 34 59  1  0  0  0
 34110  1  0  0  0
 35 44  2  0  0  0
 35 45  1  0  0  0
 35 68  1  0  0  0
 36 56  1  0  0  0
 36111  1  0  0  0
 37 39  1  0  0  0
 37 47  1  0  0  0
 37 66  1  0  0  0
 37112  1  0  0  0
 38 43  2  0  0  0
 38 46  1  0  0  0
 38 47  1  0  0  0
 39 64  1  0  0  0
 39 67  2  0  0  0
 40 52  1  0  0  0
 40 53  2  0  0  0
 40 58  1  0  0  0
 41113  1  0  0  0
 41114  1  0  0  0
 41115  1  0  0  0
 41 48  1  0  0  0
 42 43  1  0  0  0
 42 66  1  0  0  0
 42116  1  0  0  0
 42117  1  0  0  0
 43 44  1  0  0  0
 44118  1  0  0  0
 45 46  2  0  0  0
 45119  1  0  0  0
 46120  1  0  0  0
 47121  1  0  0  0
 47122  1  0  0  0
 48 56  1  0  0  0
 48 65  1  0  0  0
 48123  1  0  0  0
 49 50  1  0  0  0
 49 53  1  0  0  0
 49 64  1  0  0  0
 49124  1  0  0  0
 50 51  1  0  0  0
 50125  1  0  0  0
 50126  1  0  0  0
 51 52  1  0  0  0
 51127  1  0  0  0
 51128  1  0  0  0
 52129  1  0  0  0
 52130  1  0  0  0
 53 54  1  0  0  0
 54 55  2  0  0  0
 54131  1  0  0  0
 55 57  1  0  0  0
 55132  1  0  0  0
 56 69  2  0  0  0
 57 58  2  0  0  0
 57133  1  0  0  0
 58134  1  0  0  0
 59 60  1  0  0  0
 59 61  1  0  0  0
 59 62  1  0  0  0
 60135  1  0  0  0
 60136  1  0  0  0
 60137  1  0  0  0
 61138  1  0  0  0
 61139  1  0  0  0
 61140  1  0  0  0
 62141  1  0  0  0
 62142  1  0  0  0
 62143  1  0  0  0
 63 65  1  0  0  0
 63144  1  0  0  0
 63145  1  0  0  0
 63146  1  0  0  0
 64147  1  0  0  0
 65148  1  0  0  0
 68 76  1  0  0  0
 71 72  2  0  0  0
 71 74  1  0  0  0
 71149  1  0  0  0
 72 76  1  0  0  0
 72150  1  0  0  0
 73 75  1  0  0  0
 73 76  2  0  0  0
 73151  1  0  0  0
 74 75  2  0  0  0
 74 80  1  0  0  0
 75 83  1  0  0  0
 77 79  1  0  0  0
 77 80  1  0  0  0
 77152  1  0  0  0
 77153  1  0  0  0
 78 80  1  0  0  0
 78 81  1  0  0  0
 78154  1  0  0  0
 78155  1  0  0  0
 79 88  1  0  0  0
 79156  1  0  0  0
 79157  1  0  0  0
 80158  1  0  0  0
 81 84  1  0  0  0
 81 88  1  0  0  0
 81159  1  0  0  0
 82 84  1  0  0  0
 82160  1  0  0  0
 82161  1  0  0  0
 82162  1  0  0  0
 83 89  1  0  0  0
 83163  1  0  0  0
 83164  1  0  0  0
 84165  1  0  0  0
 84166  1  0  0  0
 85 86  1  0  0  0
 85 87  1  0  0  0
 85167  1  0  0  0
 85168  1  0  0  0
 86 89  1  0  0  0
 86169  1  0  0  0
 86170  1  0  0  0
 87171  1  0  0  0
 88172  1  0  0  0
 88173  1  0  0  0
 89174  1  0  0  0
 89175  1  0  0  0
M  CHG  2  88   1  89   1
M  ISO  4   1 100  68 101  76 101  87 100
M  END
> <chiral flag>
0

> <version>
0

> <s_m_source_file>
/data/baiqing/PycharmProjects/Reinvent-master-3.2/result/LINK_invent/BTK/process_docking_weight1_custom_sum_contain_oxygen_bond_distance_aromatic_linkinvent_7_9_3/rearranged_h_0123.sdf

> <i_m_source_file_index>
43

> <r_mmod_Potential_Energy-OPLS-2005>
-100.730712890625

> <r_mmod_Stretch_Energy-OPLS-2005>
138.567138671875

> <r_mmod_Bend_Energy-OPLS-2005>
215.685684204102

> <r_mmod_Torsional_Energy-OPLS-2005>
299.048950195312

> <r_mmod_Improper_Torsional_Energy-OPLS-2005>
9.36835193634033

> <r_mmod_Van_der_Waal_Energy-OPLS-2005>
131.424392700195

> <r_mmod_Electrostatic_Energy-OPLS-2005>
-23.538049697876

> <r_mmod_Solvation_Energy-OPLS-2005>
-972.270141601562

> <b_mmod_Minimization_Converged-OPLS-2005>
0

> <r_mmod_RMS_Derivative-OPLS-2005>
3.21208143234253

$$$$
43
                    3D
 Structure written by MMmdl.
171180  0  0  1  0            999 V2000
  -30.6551  -14.6449   20.4202 C   0  0  0  0  0  0
  -30.4219  -12.3865   19.4373 C   0  0  0  0  0  0
  -29.4918  -12.4714   18.2109 C   0  0  0  0  0  0
  -28.0184  -12.3151   18.6414 C   0  0  0  0  0  0
  -27.6443  -13.2183   19.8482 C   0  0  2  0  0  0
  -28.6996  -13.1281   20.9718 C   0  0  0  0  0  0
  -25.2587  -13.8177   20.5737 C   0  0  0  0  0  0
  -24.1837  -13.0414   20.9222 C   0  0  0  0  0  0
  -24.6406  -11.6910   20.8771 C   0  0  0  0  0  0
  -23.9057  -10.4290   21.0433 C   0  0  0  0  0  0
  -24.3604   -9.4202   21.9208 C   0  0  0  0  0  0
  -23.6282   -8.2240   22.0764 C   0  0  0  0  0  0
  -22.4279   -8.0281   21.3547 C   0  0  0  0  0  0
  -21.9908   -9.0252   20.4660 C   0  0  0  0  0  0
  -22.7231  -10.2136   20.3080 C   0  0  0  0  0  0
  -21.6854   -6.0740   22.5276 C   0  0  0  0  0  0
  -21.4013   -6.5648   23.8209 C   0  0  0  0  0  0
  -21.3655   -5.6802   24.9172 C   0  0  0  0  0  0
  -21.6044   -4.3067   24.7225 C   0  0  0  0  0  0
  -21.8818   -3.8152   23.4353 C   0  0  0  0  0  0
  -21.9190   -4.6964   22.3404 C   0  0  0  0  0  0
  -22.7875  -13.5252   21.1834 C   0  0  0  0  0  0
  -22.1665   -4.2159   21.0978 F   0  0  0  0  0  0
  -21.5621   -3.4542   25.7733 F   0  0  0  0  0  0
  -29.9948  -13.4485   20.3688 N   0  0  0  0  0  0
  -26.2967  -12.9352   20.3339 N   0  0  0  0  0  0
  -25.9333  -11.6507   20.5807 N   0  0  0  0  0  0
  -22.0487  -12.8254   22.0391 N   0  0  0  0  0  0
  -25.4287  -15.1874   20.4149 N   0  0  0  0  0  0
  -31.8568  -14.7025   20.1697 O   0  0  0  0  0  0
  -21.6641   -6.8885   21.4248 O   0  0  0  0  0  0
  -22.3581  -14.5540   20.6670 O   0  0  0  0  0  0
  -24.6175  -31.8663   23.2029 C   0  0  0  0  0  0
  -25.9067  -32.4813   23.8340 C   0  0  1  0  0  0
  -27.2172  -27.3318   20.1151 C   0  0  0  0  0  0
  -25.5853  -33.8599   24.2251 N   0  0  0  0  0  0
  -23.4127  -30.4916   21.5432 C   0  0  2  0  0  0
  -24.8629  -28.9533   20.1018 C   0  0  0  0  0  0
  -22.7488  -29.4644   22.4920 C   0  0  0  0  0  0
  -18.0304  -28.1400   22.8385 C   0  0  0  0  0  0
  -24.1467  -36.7287   23.2636 C   0  0  0  0  0  0
  -25.9536  -30.7993   21.3699 C   0  0  0  0  0  0
  -26.0309  -29.4253   20.7166 C   0  0  0  0  0  0
  -27.2166  -28.6293   20.7101 C   0  0  0  0  0  0
  -26.0323  -26.9211   19.4634 C   0  0  0  0  0  0
  -24.8667  -27.7055   19.4626 C   0  0  0  0  0  0
  -23.6278  -29.8311   20.1527 C   0  0  0  0  0  0
  -25.4104  -36.3094   24.0317 C   0  0  1  0  0  0
  -20.5872  -28.3685   23.1331 C   0  0  2  0  0  0
  -20.6571  -26.9277   22.5774 C   0  0  0  0  0  0
  -19.5862  -26.6575   21.5172 C   0  0  0  0  0  0
  -18.2028  -26.7913   22.1515 C   0  0  0  0  0  0
  -19.1510  -28.8881   23.2820 C   0  0  0  0  0  0
  -18.9404  -30.1485   23.8801 C   0  0  0  0  0  0
  -17.6398  -30.6518   24.0559 C   0  0  0  0  0  0
  -25.9049  -34.9474   23.5132 C   0  0  0  0  0  0
  -16.5314  -29.8975   23.6323 C   0  0  0  0  0  0
  -16.7275  -28.6472   23.0205 C   0  0  0  0  0  0
  -26.4468  -31.6604   25.0694 C   0  0  0  0  0  0
  -25.3714  -31.3708   26.1411 C   0  0  0  0  0  0
  -27.0299  -30.3029   24.6119 C   0  0  0  0  0  0
  -27.6035  -32.4323   25.7464 C   0  0  0  0  0  0
  -27.5576  -37.1799   24.8467 C   0  0  0  0  0  0
  -21.4210  -29.2878   22.3530 N   0  0  0  0  0  0
  -26.4286  -37.3783   23.9423 N   0  0  0  0  0  0
  -24.6800  -31.0697   22.0963 N   0  0  0  0  0  0
  -23.4237  -28.8278   23.3075 O   0  0  0  0  0  0
  -28.3048  -26.4420   20.1607 O   0  0  0  0  0  0
  -26.5632  -34.8968   22.4693 O   0  0  0  0  0  0
  -23.5344  -32.1422   23.7384 O   0  0  0  0  0  0
  -28.0659  -18.7631   21.8138 C   0  0  0  0  0  0
  -29.1899  -20.1928   19.8061 C   0  0  0  0  0  0
  -27.6860  -20.1234   21.6767 C   0  0  0  0  0  0
  -28.2953  -20.9202   20.6557 C   0  0  0  0  0  0
  -28.9374  -18.1271   20.9235 C   0  0  0  0  0  0
  -25.5728  -19.5401   23.0674 C   0  0  0  0  0  0
  -27.0143  -21.4737   23.7656 C   0  0  0  0  0  0
  -24.3870  -20.1404   23.8376 C   0  0  0  0  0  0
  -25.7927  -22.0643   24.5035 C   0  0  0  0  0  0
  -26.5353  -20.6412   22.5589 C   0  0  0  0  0  0
  -26.7363  -22.4097   19.2863 C   0  0  0  0  0  0
  -29.1544  -16.5855   21.1388 C   0  0  0  0  0  0
  -28.7390  -23.7187   20.2803 C   0  0  0  0  0  0
  -27.9940  -25.0890   20.6925 C   0  0  0  0  0  0
  -27.8071  -22.4208   20.3902 C   0  0  2  0  0  0
  -29.5042  -18.8511   19.9207 N   0  0  0  0  0  0
  -29.9310  -15.7744   20.1752 N   0  0  0  0  0  0
  -24.8640  -20.9986   24.9465 N   0  3  0  0  0  0
  -31.4630  -12.4896   19.1167 H   0  0  0  0  0  0
  -30.3471  -11.4117   19.9188 H   0  0  0  0  0  0
  -29.7515  -11.6959   17.4883 H   0  0  0  0  0  0
  -29.6230  -13.4288   17.7049 H   0  0  0  0  0  0
  -27.8701  -11.2678   18.9051 H   0  0  0  0  0  0
  -27.3510  -12.5085   17.7993 H   0  0  0  0  0  0
  -27.6473  -14.2422   19.4705 H   0  0  0  0  0  0
  -28.7284  -12.1284   21.4071 H   0  0  0  0  0  0
  -28.4656  -13.8152   21.7857 H   0  0  0  0  0  0
  -25.2745   -9.5692   22.4787 H   0  0  0  0  0  0
  -23.9992   -7.4650   22.7489 H   0  0  0  0  0  0
  -21.0841   -8.8778   19.8972 H   0  0  0  0  0  0
  -22.3690  -10.9678   19.6197 H   0  0  0  0  0  0
  -21.2014   -7.6156   23.9718 H   0  0  0  0  0  0
  -21.1474   -6.0531   25.9075 H   0  0  0  0  0  0
  -22.0600   -2.7616   23.2841 H   0  0  0  0  0  0
  -22.4078  -11.9901   22.4779 H   0  0  0  0  0  0
  -21.1102  -13.1309   22.2573 H   0  0  0  0  0  0
  -24.6602  -15.8372   20.5336 H   0  0  0  0  0  0
  -26.2690  -15.6238   20.0593 H   0  0  0  0  0  0
  -26.7177  -32.5506   23.1138 H   0  0  0  0  0  0
  -24.9987  -33.9710   25.0389 H   0  0  0  0  0  0
  -22.6944  -31.3046   21.4073 H   0  0  0  0  0  0
  -23.3754  -35.9597   23.3304 H   0  0  0  0  0  0
  -24.3581  -36.8908   22.2056 H   0  0  0  0  0  0
  -23.7180  -37.6466   23.6679 H   0  0  0  0  0  0
  -26.0727  -31.5622   20.5975 H   0  0  0  0  0  0
  -26.8409  -30.8607   21.9892 H   0  0  0  0  0  0
  -28.1149  -28.9828   21.1976 H   0  0  0  0  0  0
  -25.9901  -25.9659   18.9596 H   0  0  0  0  0  0
  -23.9811  -27.3426   18.9592 H   0  0  0  0  0  0
  -23.7338  -30.6041   19.3886 H   0  0  0  0  0  0
  -22.7471  -29.2581   19.8546 H   0  0  0  0  0  0
  -25.1293  -36.1952   25.0801 H   0  0  0  0  0  0
  -20.9956  -28.3401   24.1472 H   0  0  0  0  0  0
  -21.6522  -26.6679   22.2244 H   0  0  0  0  0  0
  -20.4489  -26.2397   23.3998 H   0  0  0  0  0  0
  -19.7018  -25.6598   21.0916 H   0  0  0  0  0  0
  -19.7015  -27.3698   20.6992 H   0  0  0  0  0  0
  -17.4340  -26.6370   21.3894 H   0  0  0  0  0  0
  -18.0766  -26.0127   22.9039 H   0  0  0  0  0  0
  -19.7890  -30.7386   24.1985 H   0  0  0  0  0  0
  -17.4928  -31.6177   24.5194 H   0  0  0  0  0  0
  -15.5288  -30.2835   23.7688 H   0  0  0  0  0  0
  -15.8737  -28.0748   22.6823 H   0  0  0  0  0  0
  -24.5938  -30.6990   25.7759 H   0  0  0  0  0  0
  -24.8851  -32.2843   26.4818 H   0  0  0  0  0  0
  -25.8038  -30.8942   27.0199 H   0  0  0  0  0  0
  -26.2845  -29.6807   24.1153 H   0  0  0  0  0  0
  -27.3994  -29.7243   25.4585 H   0  0  0  0  0  0
  -27.8725  -30.4309   23.9326 H   0  0  0  0  0  0
  -27.2669  -33.3635   26.2008 H   0  0  0  0  0  0
  -28.3872  -32.6826   25.0321 H   0  0  0  0  0  0
  -28.0683  -31.8476   26.5395 H   0  0  0  0  0  0
  -28.2592  -38.0091   24.7550 H   0  0  0  0  0  0
  -28.1056  -36.2633   24.6271 H   0  0  0  0  0  0
  -27.2312  -37.1447   25.8863 H   0  0  0  0  0  0
  -20.9469  -29.8233   21.6405 H   0  0  0  0  0  0
  -26.0171  -38.2854   24.1435 H   0  0  0  0  0  0
  -27.6462  -18.1320   22.5821 H   0  0  0  0  0  0
  -29.6106  -20.6913   18.9495 H   0  0  0  0  0  0
  -25.2045  -18.9533   22.2244 H   0  0  0  0  0  0
  -26.0896  -18.8583   23.7391 H   0  0  0  0  0  0
  -27.6177  -20.8600   24.4384 H   0  0  0  0  0  0
  -27.6760  -22.2792   23.4406 H   0  0  0  0  0  0
  -23.7690  -19.3364   24.2430 H   0  0  0  0  0  0
  -23.7453  -20.7134   23.1668 H   0  0  0  0  0  0
  -25.2555  -22.7450   23.8407 H   0  0  0  0  0  0
  -26.1110  -22.6432   25.3677 H   0  0  0  0  0  0
  -25.9096  -21.2670   21.9202 H   0  0  0  0  0  0
  -26.2346  -23.3753   19.1897 H   0  0  0  0  0  0
  -25.9702  -21.6647   19.5068 H   0  0  0  0  0  0
  -27.1631  -22.1670   18.3146 H   0  0  0  0  0  0
  -28.1613  -16.1388   21.1891 H   0  0  0  0  0  0
  -29.5803  -16.4585   22.1349 H   0  0  0  0  0  0
  -29.5832  -23.5987   20.9615 H   0  0  0  0  0  0
  -29.1786  -23.7961   19.2850 H   0  0  0  0  0  0
  -26.9370  -24.8895   20.5657 H   0  0  0  0  0  0
  -28.0858  -25.1863   21.7752 H   0  0  0  0  0  0
  -27.2710  -22.6974   21.2881 H   0  0  0  0  0  0
  -30.4164  -16.3949   19.5412 H   0  0  0  0  0  0
  -25.3269  -20.4207   25.6325 H   0  0  0  0  0  0
  -24.0633  -21.4207   25.3928 H   0  0  0  0  0  0
  1 25  1  0  0  0
  1 30  2  0  0  0
  1 87  1  0  0  0
  2  3  1  0  0  0
  2 25  1  0  0  0
  2 89  1  0  0  0
  2 90  1  0  0  0
  3  4  1  0  0  0
  3 91  1  0  0  0
  3 92  1  0  0  0
  4  5  1  0  0  0
  4 93  1  0  0  0
  4 94  1  0  0  0
  5  6  1  0  0  0
  5 26  1  0  0  0
  5 95  1  0  0  0
  6 25  1  0  0  0
  6 96  1  0  0  0
  6 97  1  0  0  0
  7  8  2  0  0  0
  7 26  1  0  0  0
  7 29  1  0  0  0
  8  9  1  0  0  0
  8 22  1  0  0  0
  9 10  1  0  0  0
  9 27  2  0  0  0
 10 11  2  0  0  0
 10 15  1  0  0  0
 11 12  1  0  0  0
 11 98  1  0  0  0
 12 13  2  0  0  0
 12 99  1  0  0  0
 13 14  1  0  0  0
 13 31  1  0  0  0
 14 15  2  0  0  0
 14100  1  0  0  0
 15101  1  0  0  0
 16 17  2  0  0  0
 16 21  1  0  0  0
 16 31  1  0  0  0
 17 18  1  0  0  0
 17102  1  0  0  0
 18 19  2  0  0  0
 18103  1  0  0  0
 19 20  1  0  0  0
 19 24  1  0  0  0
 20 21  2  0  0  0
 20104  1  0  0  0
 21 23  1  0  0  0
 22 28  1  0  0  0
 22 32  2  0  0  0
 26 27  1  0  0  0
 28105  1  0  0  0
 28106  1  0  0  0
 29107  1  0  0  0
 29108  1  0  0  0
 33 34  1  0  0  0
 33 66  1  0  0  0
 33 70  2  0  0  0
 34 36  1  0  0  0
 34 59  1  0  0  0
 34109  1  0  0  0
 35 44  2  0  0  0
 35 45  1  0  0  0
 35 68  1  0  0  0
 36 56  1  0  0  0
 36110  1  0  0  0
 37 39  1  0  0  0
 37 47  1  0  0  0
 37 66  1  0  0  0
 37111  1  0  0  0
 38 43  2  0  0  0
 38 46  1  0  0  0
 38 47  1  0  0  0
 39 64  1  0  0  0
 39 67  2  0  0  0
 40 52  1  0  0  0
 40 53  2  0  0  0
 40 58  1  0  0  0
 41112  1  0  0  0
 41113  1  0  0  0
 41114  1  0  0  0
 41 48  1  0  0  0
 42 43  1  0  0  0
 42 66  1  0  0  0
 42115  1  0  0  0
 42116  1  0  0  0
 43 44  1  0  0  0
 44117  1  0  0  0
 45 46  2  0  0  0
 45118  1  0  0  0
 46119  1  0  0  0
 47120  1  0  0  0
 47121  1  0  0  0
 48 56  1  0  0  0
 48 65  1  0  0  0
 48122  1  0  0  0
 49 50  1  0  0  0
 49 53  1  0  0  0
 49 64  1  0  0  0
 49123  1  0  0  0
 50 51  1  0  0  0
 50124  1  0  0  0
 50125  1  0  0  0
 51 52  1  0  0  0
 51126  1  0  0  0
 51127  1  0  0  0
 52128  1  0  0  0
 52129  1  0  0  0
 53 54  1  0  0  0
 54 55  2  0  0  0
 54130  1  0  0  0
 55 57  1  0  0  0
 55131  1  0  0  0
 56 69  2  0  0  0
 57 58  2  0  0  0
 57132  1  0  0  0
 58133  1  0  0  0
 59 60  1  0  0  0
 59 61  1  0  0  0
 59 62  1  0  0  0
 60134  1  0  0  0
 60135  1  0  0  0
 60136  1  0  0  0
 61137  1  0  0  0
 61138  1  0  0  0
 61139  1  0  0  0
 62140  1  0  0  0
 62141  1  0  0  0
 62142  1  0  0  0
 63 65  1  0  0  0
 63143  1  0  0  0
 63144  1  0  0  0
 63145  1  0  0  0
 64146  1  0  0  0
 65147  1  0  0  0
 68 84  1  0  0  0
 71 73  2  0  0  0
 71 75  1  0  0  0
 71148  1  0  0  0
 72 74  2  0  0  0
 72 86  1  0  0  0
 72149  1  0  0  0
 73 74  1  0  0  0
 73 80  1  0  0  0
 74 85  1  0  0  0
 75 82  1  0  0  0
 75 86  2  0  0  0
 76 78  1  0  0  0
 76 80  1  0  0  0
 76150  1  0  0  0
 76151  1  0  0  0
 77 79  1  0  0  0
 77 80  1  0  0  0
 77152  1  0  0  0
 77153  1  0  0  0
 78 88  1  0  0  0
 78154  1  0  0  0
 78155  1  0  0  0
 79 88  1  0  0  0
 79156  1  0  0  0
 79157  1  0  0  0
 80158  1  0  0  0
 81159  1  0  0  0
 81160  1  0  0  0
 81161  1  0  0  0
 81 85  1  0  0  0
 82 87  1  0  0  0
 82162  1  0  0  0
 82163  1  0  0  0
 83 84  1  0  0  0
 83 85  1  0  0  0
 83164  1  0  0  0
 83165  1  0  0  0
 84166  1  0  0  0
 84167  1  0  0  0
 85168  1  0  0  0
 87169  1  0  0  0
 88170  1  0  0  0
 88171  1  0  0  0
M  CHG  1  88   1
M  ISO  4   1 100  68 101  84 101  87 100
M  END
> <chiral flag>
0

> <version>
0

> <s_m_source_file>
/data/baiqing/PycharmProjects/Reinvent-master-3.2/result/LINK_invent/BTK/process_docking_weight1_custom_sum_contain_oxygen_bond_distance_aromatic_linkinvent_7_9_3/rearranged_h_0123.sdf

> <i_m_source_file_index>
44

> <r_mmod_Potential_Energy-OPLS-2005>
-214.935440063477

> <r_mmod_Stretch_Energy-OPLS-2005>
89.6091003417969

> <r_mmod_Bend_Energy-OPLS-2005>
188.661422729492

> <r_mmod_Torsional_Energy-OPLS-2005>
322.908081054688

> <r_mmod_Improper_Torsional_Energy-OPLS-2005>
24.5979862213135

> <r_mmod_Van_der_Waal_Energy-OPLS-2005>
157.343460083008

> <r_mmod_Electrostatic_Energy-OPLS-2005>
-545.499816894531

> <r_mmod_Solvation_Energy-OPLS-2005>
-509.496795654297

> <b_mmod_Minimization_Converged-OPLS-2005>
0

> <r_mmod_RMS_Derivative-OPLS-2005>
8.08734607696533

$$$$
44
                    3D
 Structure written by MMmdl.
160169  0  0  1  0            999 V2000
  -30.5164  -15.1229   20.3224 C   0  0  0  0  0  0
  -30.4458  -12.7011   19.4803 C   0  0  0  0  0  0
  -29.5211  -12.4682   18.2630 C   0  0  0  0  0  0
  -28.0607  -12.2507   18.7048 C   0  0  0  0  0  0
  -27.6109  -13.2257   19.8221 C   0  0  2  0  0  0
  -28.6704  -13.3992   20.9292 C   0  0  0  0  0  0
  -25.2424  -13.8105   20.5802 C   0  0  0  0  0  0
  -24.1729  -13.0363   20.9290 C   0  0  0  0  0  0
  -24.6340  -11.6852   20.8821 C   0  0  0  0  0  0
  -23.9030  -10.4245   21.0443 C   0  0  0  0  0  0
  -24.3592   -9.4163   21.9209 C   0  0  0  0  0  0
  -23.6272   -8.2200   22.0760 C   0  0  0  0  0  0
  -22.4257   -8.0251   21.3542 C   0  0  0  0  0  0
  -21.9892   -9.0225   20.4647 C   0  0  0  0  0  0
  -22.7217  -10.2104   20.3071 C   0  0  0  0  0  0
  -21.6840   -6.0721   22.5279 C   0  0  0  0  0  0
  -21.4004   -6.5630   23.8211 C   0  0  0  0  0  0
  -21.3656   -5.6787   24.9176 C   0  0  0  0  0  0
  -21.6044   -4.3050   24.7229 C   0  0  0  0  0  0
  -21.8820   -3.8138   23.4351 C   0  0  0  0  0  0
  -21.9189   -4.6952   22.3405 C   0  0  0  0  0  0
  -22.7758  -13.5168   21.1907 C   0  0  0  0  0  0
  -22.1660   -4.2138   21.0984 F   0  0  0  0  0  0
  -21.5632   -3.4537   25.7743 F   0  0  0  0  0  0
  -29.9034  -13.8540   20.2634 N   0  0  0  0  0  0
  -26.2827  -12.9292   20.3340 N   0  0  0  0  0  0
  -25.9268  -11.6454   20.5845 N   0  0  0  0  0  0
  -22.0392  -12.8175   22.0459 N   0  0  0  0  0  0
  -25.4039  -15.1830   20.4229 N   0  0  0  0  0  0
  -31.7530  -15.0984   20.3193 O   0  0  0  0  0  0
  -21.6619   -6.8855   21.4237 O   0  0  0  0  0  0
  -22.3467  -14.5478   20.6736 O   0  0  0  0  0  0
  -24.6504  -31.8367   23.1815 C   0  0  0  0  0  0
  -25.9242  -32.4657   23.8233 C   0  0  1  0  0  0
  -27.2253  -27.0644   20.1641 C   0  0  0  0  0  0
  -25.5961  -33.8466   24.2146 N   0  0  0  0  0  0
  -23.4587  -30.4525   21.5281 C   0  0  2  0  0  0
  -24.9118  -28.8656   20.1108 C   0  0  0  0  0  0
  -22.7606  -29.4506   22.4830 C   0  0  0  0  0  0
  -18.0312  -28.1400   22.8474 C   0  0  0  0  0  0
  -24.1492  -36.7238   23.2644 C   0  0  0  0  0  0
  -26.0196  -30.6877   21.3916 C   0  0  0  0  0  0
  -26.0914  -29.2914   20.7343 C   0  0  0  0  0  0
  -27.2462  -28.4091   20.7404 C   0  0  0  0  0  0
  -26.0170  -26.7584   19.4979 C   0  0  0  0  0  0
  -24.8920  -27.6150   19.4751 C   0  0  0  0  0  0
  -23.6906  -29.7758   20.1503 C   0  0  0  0  0  0
  -25.4128  -36.3008   24.0310 C   0  0  1  0  0  0
  -20.5929  -28.3733   23.1217 C   0  0  2  0  0  0
  -20.6793  -26.9428   22.5404 C   0  0  0  0  0  0
  -19.5766  -26.6379   21.5213 C   0  0  0  0  0  0
  -18.1948  -26.7937   22.1623 C   0  0  0  0  0  0
  -19.1570  -28.8886   23.2836 C   0  0  0  0  0  0
  -18.9484  -30.1480   23.8865 C   0  0  0  0  0  0
  -17.6479  -30.6594   24.0557 C   0  0  0  0  0  0
  -25.9083  -34.9387   23.5041 C   0  0  0  0  0  0
  -16.5370  -29.9084   23.6340 C   0  0  0  0  0  0
  -16.7295  -28.6504   23.0359 C   0  0  0  0  0  0
  -26.4539  -31.6554   25.0707 C   0  0  0  0  0  0
  -25.3701  -31.3765   26.1387 C   0  0  0  0  0  0
  -27.0419  -30.2940   24.6346 C   0  0  0  0  0  0
  -27.6051  -32.4339   25.7502 C   0  0  0  0  0  0
  -27.5573  -37.1775   24.8466 C   0  0  0  0  0  0
  -21.4289  -29.3046   22.3580 N   0  0  0  0  0  0
  -26.4284  -37.3730   23.9408 N   0  0  0  0  0  0
  -24.7297  -31.0154   22.0884 N   0  0  0  0  0  0
  -23.4212  -28.8065   23.3017 O   0  0  0  0  0  0
  -28.2609  -26.0354   20.2447 O   0  0  0  0  0  0
  -26.5679  -34.8899   22.4627 O   0  0  0  0  0  0
  -23.5604  -32.1274   23.6988 O   0  0  0  0  0  0
  -29.2778  -20.5069   21.5529 C   0  0  0  0  0  0
  -29.7279  -20.4976   19.2432 C   0  0  0  0  0  0
  -28.5082  -21.9540   21.4098 C   0  0  0  0  0  0
  -28.9555  -21.9386   19.0883 C   0  0  0  0  0  0
  -28.7056  -17.3767   18.0846 C   0  0  0  0  0  0
  -28.7128  -15.8979   17.8953 C   0  0  0  0  0  0
  -29.3004  -19.4218   20.3628 C   0  0  1  0  0  0
  -28.9044  -23.0235   20.2756 C   0  0  1  0  0  0
  -28.6587  -16.4719   19.3083 C   0  0  0  0  0  0
  -30.1723  -17.9175   20.5919 C   0  0  0  0  0  0
  -27.9795  -24.4822   20.0502 C   0  0  0  0  0  0
  -29.8023  -16.3966   20.1739 N   0  0  0  0  0  0
  -31.4614  -12.8977   19.1330 H   0  0  0  0  0  0
  -30.5086  -11.8055   20.1005 H   0  0  0  0  0  0
  -29.8656  -11.6027   17.6954 H   0  0  0  0  0  0
  -29.5816  -13.3077   17.5755 H   0  0  0  0  0  0
  -27.9879  -11.2264   19.0721 H   0  0  0  0  0  0
  -27.3888  -12.3129   17.8479 H   0  0  0  0  0  0
  -27.5013  -14.1759   19.3227 H   0  0  0  0  0  0
  -28.8266  -12.4723   21.4827 H   0  0  0  0  0  0
  -28.3436  -14.1482   21.6525 H   0  0  0  0  0  0
  -25.2733   -9.5641   22.4791 H   0  0  0  0  0  0
  -23.9978   -7.4586   22.7474 H   0  0  0  0  0  0
  -21.0826   -8.8745   19.8949 H   0  0  0  0  0  0
  -22.3681  -10.9652   19.6187 H   0  0  0  0  0  0
  -21.1991   -7.6138   23.9709 H   0  0  0  0  0  0
  -21.1479   -6.0520   25.9078 H   0  0  0  0  0  0
  -22.0604   -2.7601   23.2856 H   0  0  0  0  0  0
  -22.4002  -11.9841   22.4861 H   0  0  0  0  0  0
  -21.1008  -13.1205   22.2651 H   0  0  0  0  0  0
  -24.6347  -15.8328   20.5432 H   0  0  0  0  0  0
  -26.2559  -15.6288   20.1146 H   0  0  0  0  0  0
  -26.7310  -32.5241   23.0957 H   0  0  0  0  0  0
  -25.0075  -33.9568   25.0272 H   0  0  0  0  0  0
  -22.7651  -31.2804   21.3669 H   0  0  0  0  0  0
  -23.3762  -35.9561   23.3287 H   0  0  0  0  0  0
  -24.3574  -36.8895   22.2063 H   0  0  0  0  0  0
  -23.7241  -37.6423   23.6701 H   0  0  0  0  0  0
  -26.1839  -31.4378   20.6169 H   0  0  0  0  0  0
  -26.8860  -30.7404   22.0391 H   0  0  0  0  0  0
  -28.1417  -28.7314   21.2531 H   0  0  0  0  0  0
  -25.9056  -25.8025   19.0089 H   0  0  0  0  0  0
  -23.9933  -27.2830   18.9735 H   0  0  0  0  0  0
  -23.8331  -30.5477   19.3932 H   0  0  0  0  0  0
  -22.8042  -29.2211   19.8375 H   0  0  0  0  0  0
  -25.1320  -36.1823   25.0801 H   0  0  0  0  0  0
  -21.0019  -28.3329   24.1339 H   0  0  0  0  0  0
  -20.5681  -26.2349   23.3631 H   0  0  0  0  0  0
  -21.6657  -26.7422   22.1205 H   0  0  0  0  0  0
  -19.6927  -25.6282   21.1264 H   0  0  0  0  0  0
  -19.6703  -27.3172   20.6729 H   0  0  0  0  0  0
  -17.4216  -26.6680   21.4028 H   0  0  0  0  0  0
  -18.0346  -26.0088   22.9028 H   0  0  0  0  0  0
  -19.7959  -30.7306   24.2219 H   0  0  0  0  0  0
  -17.5031  -31.6271   24.5165 H   0  0  0  0  0  0
  -15.5368  -30.2975   23.7683 H   0  0  0  0  0  0
  -15.8695  -28.0811   22.7092 H   0  0  0  0  0  0
  -24.5893  -30.7101   25.7703 H   0  0  0  0  0  0
  -24.8877  -32.2954   26.4729 H   0  0  0  0  0  0
  -25.7965  -30.8992   27.0219 H   0  0  0  0  0  0
  -26.3058  -29.6643   24.1337 H   0  0  0  0  0  0
  -27.3986  -29.7265   25.4953 H   0  0  0  0  0  0
  -27.8984  -30.4157   23.9712 H   0  0  0  0  0  0
  -27.2630  -33.3667   26.1997 H   0  0  0  0  0  0
  -28.3906  -32.6856   25.0364 H   0  0  0  0  0  0
  -28.0670  -31.8520   26.5489 H   0  0  0  0  0  0
  -28.2577  -38.0084   24.7513 H   0  0  0  0  0  0
  -28.1081  -36.2611   24.6292 H   0  0  0  0  0  0
  -27.2290  -37.1419   25.8868 H   0  0  0  0  0  0
  -20.9516  -29.8747   21.6737 H   0  0  0  0  0  0
  -26.0142  -38.2793   24.1414 H   0  0  0  0  0  0
  -28.8631  -20.0079   22.4296 H   0  0  0  0  0  0
  -30.3126  -20.7186   21.8269 H   0  0  0  0  0  0
  -30.7889  -20.7125   19.3793 H   0  0  0  0  0  0
  -29.6761  -20.0157   18.2694 H   0  0  0  0  0  0
  -28.5849  -22.4628   22.3714 H   0  0  0  0  0  0
  -27.4442  -21.7394   21.2993 H   0  0  0  0  0  0
  -27.9258  -21.7182   18.8027 H   0  0  0  0  0  0
  -29.3773  -22.4404   18.2166 H   0  0  0  0  0  0
  -27.7980  -17.9161   17.8198 H   0  0  0  0  0  0
  -29.6372  -17.8730   17.8253 H   0  0  0  0  0  0
  -29.6488  -15.4903   17.5213 H   0  0  0  0  0  0
  -27.8114  -15.4578   17.4727 H   0  0  0  0  0  0
  -28.2583  -19.1541   20.1858 H   0  0  0  0  0  0
  -29.9316  -23.3384   20.4624 H   0  0  0  0  0  0
  -27.7001  -16.4560   19.8172 H   0  0  0  0  0  0
  -30.3169  -17.8398   21.6698 H   0  0  0  0  0  0
  -31.1811  -18.0830   20.2121 H   0  0  0  0  0  0
  -27.0488  -24.3049   20.5898 H   0  0  0  0  0  0
  -27.6855  -24.4268   19.0022 H   0  0  0  0  0  0
  1 25  1  0  0  0
  1 30  2  0  0  0
  1 82  1  0  0  0
  2  3  1  0  0  0
  2 25  1  0  0  0
  2 83  1  0  0  0
  2 84  1  0  0  0
  3  4  1  0  0  0
  3 85  1  0  0  0
  3 86  1  0  0  0
  4  5  1  0  0  0
  4 87  1  0  0  0
  4 88  1  0  0  0
  5  6  1  0  0  0
  5 26  1  0  0  0
  5 89  1  0  0  0
  6 25  1  0  0  0
  6 90  1  0  0  0
  6 91  1  0  0  0
  7  8  2  0  0  0
  7 26  1  0  0  0
  7 29  1  0  0  0
  8  9  1  0  0  0
  8 22  1  0  0  0
  9 10  1  0  0  0
  9 27  2  0  0  0
 10 11  2  0  0  0
 10 15  1  0  0  0
 11 12  1  0  0  0
 11 92  1  0  0  0
 12 13  2  0  0  0
 12 93  1  0  0  0
 13 14  1  0  0  0
 13 31  1  0  0  0
 14 15  2  0  0  0
 14 94  1  0  0  0
 15 95  1  0  0  0
 16 17  2  0  0  0
 16 21  1  0  0  0
 16 31  1  0  0  0
 17 18  1  0  0  0
 17 96  1  0  0  0
 18 19  2  0  0  0
 18 97  1  0  0  0
 19 20  1  0  0  0
 19 24  1  0  0  0
 20 21  2  0  0  0
 20 98  1  0  0  0
 21 23  1  0  0  0
 22 28  1  0  0  0
 22 32  2  0  0  0
 26 27  1  0  0  0
 28 99  1  0  0  0
 28100  1  0  0  0
 29101  1  0  0  0
 29102  1  0  0  0
 33 34  1  0  0  0
 33 66  1  0  0  0
 33 70  2  0  0  0
 34 36  1  0  0  0
 34 59  1  0  0  0
 34103  1  0  0  0
 35 44  2  0  0  0
 35 45  1  0  0  0
 35 68  1  0  0  0
 36 56  1  0  0  0
 36104  1  0  0  0
 37 39  1  0  0  0
 37 47  1  0  0  0
 37 66  1  0  0  0
 37105  1  0  0  0
 38 43  2  0  0  0
 38 46  1  0  0  0
 38 47  1  0  0  0
 39 64  1  0  0  0
 39 67  2  0  0  0
 40 52  1  0  0  0
 40 53  2  0  0  0
 40 58  1  0  0  0
 41106  1  0  0  0
 41107  1  0  0  0
 41108  1  0  0  0
 41 48  1  0  0  0
 42 43  1  0  0  0
 42 66  1  0  0  0
 42109  1  0  0  0
 42110  1  0  0  0
 43 44  1  0  0  0
 44111  1  0  0  0
 45 46  2  0  0  0
 45112  1  0  0  0
 46113  1  0  0  0
 47114  1  0  0  0
 47115  1  0  0  0
 48 56  1  0  0  0
 48 65  1  0  0  0
 48116  1  0  0  0
 49 50  1  0  0  0
 49 53  1  0  0  0
 49 64  1  0  0  0
 49117  1  0  0  0
 50 51  1  0  0  0
 50118  1  0  0  0
 50119  1  0  0  0
 51 52  1  0  0  0
 51120  1  0  0  0
 51121  1  0  0  0
 52122  1  0  0  0
 52123  1  0  0  0
 53 54  1  0  0  0
 54 55  2  0  0  0
 54124  1  0  0  0
 55 57  1  0  0  0
 55125  1  0  0  0
 56 69  2  0  0  0
 57 58  2  0  0  0
 57126  1  0  0  0
 58127  1  0  0  0
 59 60  1  0  0  0
 59 61  1  0  0  0
 59 62  1  0  0  0
 60128  1  0  0  0
 60129  1  0  0  0
 60130  1  0  0  0
 61131  1  0  0  0
 61132  1  0  0  0
 61133  1  0  0  0
 62134  1  0  0  0
 62135  1  0  0  0
 62136  1  0  0  0
 63 65  1  0  0  0
 63137  1  0  0  0
 63138  1  0  0  0
 63139  1  0  0  0
 64140  1  0  0  0
 65141  1  0  0  0
 68 81  1  0  0  0
 71 73  1  0  0  0
 71 77  1  0  0  0
 71142  1  0  0  0
 71143  1  0  0  0
 72 74  1  0  0  0
 72 77  1  0  0  0
 72144  1  0  0  0
 72145  1  0  0  0
 73 78  1  0  0  0
 73146  1  0  0  0
 73147  1  0  0  0
 74 78  1  0  0  0
 74148  1  0  0  0
 74149  1  0  0  0
 75 76  1  0  0  0
 75 79  1  0  0  0
 75150  1  0  0  0
 75151  1  0  0  0
 76 79  1  0  0  0
 76152  1  0  0  0
 76153  1  0  0  0
 77 80  1  0  0  0
 77154  1  0  0  0
 78 81  1  0  0  0
 78155  1  0  0  0
 79 82  1  0  0  0
 79156  1  0  0  0
 80 82  1  0  0  0
 80157  1  0  0  0
 80158  1  0  0  0
 81159  1  0  0  0
 81160  1  0  0  0
M  ISO  4   1 100  68 101  81 101  82 100
M  END
> <chiral flag>
0

> <version>
0

> <s_m_source_file>
/data/baiqing/PycharmProjects/Reinvent-master-3.2/result/LINK_invent/BTK/process_docking_weight1_custom_sum_contain_oxygen_bond_distance_aromatic_linkinvent_7_9_3/rearranged_h_0123.sdf

> <i_m_source_file_index>
45

> <r_mmod_Potential_Energy-OPLS-2005>
1125.55554199219

> <r_mmod_Stretch_Energy-OPLS-2005>
366.845489501953

> <r_mmod_Bend_Energy-OPLS-2005>
363.950317382812

> <r_mmod_Torsional_Energy-OPLS-2005>
425.574645996094

> <r_mmod_Improper_Torsional_Energy-OPLS-2005>
4.67848014831543

> <r_mmod_Van_der_Waal_Energy-OPLS-2005>
118.702224731445

> <r_mmod_Electrostatic_Energy-OPLS-2005>
-272.851531982422

> <r_mmod_Solvation_Energy-OPLS-2005>
-194.828964233398

> <b_mmod_Minimization_Converged-OPLS-2005>
0

> <r_mmod_RMS_Derivative-OPLS-2005>
0.14073334634304

$$$$
45
                    3D
 Structure written by MMmdl.
157165  0  0  1  0            999 V2000
  -30.7133  -14.5159   20.4797 C   0  0  0  0  0  0
  -30.4133  -12.3098   19.4506 C   0  0  0  0  0  0
  -29.5023  -12.4829   18.2187 C   0  0  0  0  0  0
  -28.0227  -12.3458   18.6263 C   0  0  0  0  0  0
  -27.6543  -13.2185   19.8579 C   0  0  2  0  0  0
  -28.6970  -13.0826   20.9923 C   0  0  0  0  0  0
  -25.2564  -13.8185   20.5681 C   0  0  0  0  0  0
  -24.1830  -13.0447   20.9191 C   0  0  0  0  0  0
  -24.6405  -11.6919   20.8742 C   0  0  0  0  0  0
  -23.9078  -10.4295   21.0410 C   0  0  0  0  0  0
  -24.3626   -9.4210   21.9185 C   0  0  0  0  0  0
  -23.6293   -8.2245   22.0759 C   0  0  0  0  0  0
  -22.4275   -8.0289   21.3551 C   0  0  0  0  0  0
  -21.9915   -9.0270   20.4655 C   0  0  0  0  0  0
  -22.7248  -10.2145   20.3058 C   0  0  0  0  0  0
  -21.6856   -6.0741   22.5280 C   0  0  0  0  0  0
  -21.4016   -6.5638   23.8220 C   0  0  0  0  0  0
  -21.3662   -5.6785   24.9180 C   0  0  0  0  0  0
  -21.6044   -4.3048   24.7224 C   0  0  0  0  0  0
  -21.8813   -3.8146   23.4337 C   0  0  0  0  0  0
  -21.9193   -4.6964   22.3404 C   0  0  0  0  0  0
  -22.7849  -13.5245   21.1840 C   0  0  0  0  0  0
  -22.1658   -4.2150   21.0975 F   0  0  0  0  0  0
  -21.5634   -3.4530   25.7737 F   0  0  0  0  0  0
  -30.0234  -13.3457   20.4220 N   0  0  0  0  0  0
  -26.3000  -12.9381   20.3295 N   0  0  0  0  0  0
  -25.9337  -11.6531   20.5752 N   0  0  0  0  0  0
  -22.0469  -12.8260   22.0394 N   0  0  0  0  0  0
  -25.4241  -15.1911   20.4109 N   0  0  0  0  0  0
  -31.9045  -14.5831   20.1714 O   0  0  0  0  0  0
  -21.6630   -6.8888   21.4252 O   0  0  0  0  0  0
  -22.3551  -14.5553   20.6676 O   0  0  0  0  0  0
  -24.6158  -31.8674   23.2096 C   0  0  0  0  0  0
  -25.9052  -32.4823   23.8389 C   0  0  1  0  0  0
  -27.2314  -27.4165   20.1113 C   0  0  0  0  0  0
  -25.5914  -33.8618   24.2333 N   0  0  0  0  0  0
  -23.4064  -30.4894   21.5506 C   0  0  2  0  0  0
  -24.8541  -28.9522   20.1170 C   0  0  0  0  0  0
  -22.7430  -29.4651   22.4990 C   0  0  0  0  0  0
  -18.0280  -28.1381   22.8502 C   0  0  0  0  0  0
  -24.1485  -36.7304   23.2640 C   0  0  0  0  0  0
  -25.9362  -30.8243   21.3702 C   0  0  0  0  0  0
  -26.0120  -29.4550   20.7234 C   0  0  0  0  0  0
  -27.2062  -28.6922   20.7245 C   0  0  0  0  0  0
  -26.0658  -26.9413   19.4783 C   0  0  0  0  0  0
  -24.8757  -27.6927   19.4917 C   0  0  0  0  0  0
  -23.6167  -29.8220   20.1644 C   0  0  0  0  0  0
  -25.4108  -36.3113   24.0343 C   0  0  1  0  0  0
  -20.5873  -28.3664   23.1322 C   0  0  2  0  0  0
  -20.6769  -26.9397   22.5424 C   0  0  0  0  0  0
  -19.5744  -26.6384   21.5225 C   0  0  0  0  0  0
  -18.1921  -26.7928   22.1632 C   0  0  0  0  0  0
  -19.1536  -28.8841   23.2906 C   0  0  0  0  0  0
  -18.9461  -30.1452   23.8910 C   0  0  0  0  0  0
  -17.6461  -30.6579   24.0582 C   0  0  0  0  0  0
  -25.9037  -34.9477   23.5130 C   0  0  0  0  0  0
  -16.5349  -29.9088   23.6336 C   0  0  0  0  0  0
  -16.7273  -28.6515   23.0336 C   0  0  0  0  0  0
  -26.4469  -31.6602   25.0715 C   0  0  0  0  0  0
  -25.3749  -31.3709   26.1471 C   0  0  0  0  0  0
  -27.0305  -30.3051   24.6098 C   0  0  0  0  0  0
  -27.6053  -32.4309   25.7467 C   0  0  0  0  0  0
  -27.5588  -37.1808   24.8469 C   0  0  0  0  0  0
  -21.4152  -29.3020   22.3719 N   0  0  0  0  0  0
  -26.4295  -37.3795   23.9415 N   0  0  0  0  0  0
  -24.6706  -31.0757   22.1014 N   0  0  0  0  0  0
  -23.4197  -28.8198   23.3038 O   0  0  0  0  0  0
  -28.3707  -26.6387   20.0734 O   0  0  0  0  0  0
  -26.5586  -34.8924   22.4685 O   0  0  0  0  0  0
  -23.5346  -32.1408   23.7490 O   0  0  0  0  0  0
  -30.7111  -19.0486   21.3421 C   0  0  0  0  0  0
  -28.6815  -18.8260   20.0460 C   0  0  0  0  0  0
  -30.3695  -20.3873   21.6425 C   0  0  0  0  0  0
  -28.3484  -20.1734   20.3349 C   0  0  0  0  0  0
  -29.8967  -18.2588   20.5001 C   0  0  0  0  0  0
  -29.2123  -20.9939   21.1061 C   0  0  0  0  0  0
  -30.2651  -16.8631   18.4087 C   0  0  0  0  0  0
  -27.7000  -24.4407   21.1902 C   0  0  0  0  0  0
  -28.2638  -23.1763   20.4821 C   0  0  0  0  0  0
  -28.5589  -25.7426   21.1870 C   0  0  0  0  0  0
  -30.4411  -16.9245   19.9421 C   0  0  2  0  0  0
  -29.9780  -15.6526   20.5522 N   0  0  0  0  0  0
  -28.9966  -22.3373   21.3967 O   0  0  0  0  0  0
  -31.4630  -12.3761   19.1583 H   0  0  0  0  0  0
  -30.2896  -11.3180   19.8880 H   0  0  0  0  0  0
  -29.7531  -11.7430   17.4572 H   0  0  0  0  0  0
  -29.6725  -13.4600   17.7645 H   0  0  0  0  0  0
  -27.8425  -11.2939   18.8500 H   0  0  0  0  0  0
  -27.3736  -12.5900   17.7839 H   0  0  0  0  0  0
  -27.6729  -14.2511   19.5100 H   0  0  0  0  0  0
  -28.6742  -12.0823   21.4255 H   0  0  0  0  0  0
  -28.4740  -13.7748   21.8071 H   0  0  0  0  0  0
  -25.2773   -9.5681   22.4756 H   0  0  0  0  0  0
  -23.9995   -7.4643   22.7488 H   0  0  0  0  0  0
  -21.0839   -8.8807   19.8968 H   0  0  0  0  0  0
  -22.3720  -10.9688   19.6160 H   0  0  0  0  0  0
  -21.2006   -7.6148   23.9732 H   0  0  0  0  0  0
  -21.1493   -6.0508   25.9089 H   0  0  0  0  0  0
  -22.0591   -2.7606   23.2835 H   0  0  0  0  0  0
  -22.4052  -11.9922   22.4804 H   0  0  0  0  0  0
  -21.1102  -13.1335   22.2588 H   0  0  0  0  0  0
  -24.6524  -15.8384   20.5298 H   0  0  0  0  0  0
  -26.2673  -15.6395   20.0777 H   0  0  0  0  0  0
  -26.7133  -32.5521   23.1158 H   0  0  0  0  0  0
  -25.0118  -33.9780   25.0513 H   0  0  0  0  0  0
  -22.6957  -31.3066   21.4128 H   0  0  0  0  0  0
  -23.3752  -35.9634   23.3303 H   0  0  0  0  0  0
  -24.3586  -36.8893   22.2052 H   0  0  0  0  0  0
  -23.7218  -37.6505   23.6637 H   0  0  0  0  0  0
  -26.0500  -31.5853   20.5966 H   0  0  0  0  0  0
  -26.8246  -30.8788   21.9876 H   0  0  0  0  0  0
  -28.1006  -29.0776   21.1940 H   0  0  0  0  0  0
  -26.0762  -25.9837   18.9772 H   0  0  0  0  0  0
  -23.9918  -27.3029   19.0074 H   0  0  0  0  0  0
  -23.7300  -30.5960   19.4043 H   0  0  0  0  0  0
  -22.7402  -29.2429   19.8695 H   0  0  0  0  0  0
  -25.1286  -36.1986   25.0837 H   0  0  0  0  0  0
  -20.9983  -28.3228   24.1439 H   0  0  0  0  0  0
  -20.5673  -26.2269   23.3605 H   0  0  0  0  0  0
  -21.6646  -26.7444   22.1219 H   0  0  0  0  0  0
  -19.6904  -25.6304   21.1235 H   0  0  0  0  0  0
  -19.6690  -27.3203   20.6765 H   0  0  0  0  0  0
  -17.4199  -26.6693   21.4020 H   0  0  0  0  0  0
  -18.0310  -26.0054   22.9010 H   0  0  0  0  0  0
  -19.7934  -30.7286   24.2267 H   0  0  0  0  0  0
  -17.5009  -31.6255   24.5195 H   0  0  0  0  0  0
  -15.5349  -30.2981   23.7667 H   0  0  0  0  0  0
  -15.8678  -28.0850   22.7014 H   0  0  0  0  0  0
  -24.5924  -30.7053   25.7816 H   0  0  0  0  0  0
  -24.8942  -32.2864   26.4934 H   0  0  0  0  0  0
  -25.8104  -30.8873   27.0228 H   0  0  0  0  0  0
  -26.2858  -29.6797   24.1167 H   0  0  0  0  0  0
  -27.4095  -29.7293   25.4554 H   0  0  0  0  0  0
  -27.8678  -30.4366   23.9238 H   0  0  0  0  0  0
  -27.2699  -33.3599   26.2086 H   0  0  0  0  0  0
  -28.3836  -32.6878   25.0273 H   0  0  0  0  0  0
  -28.0758  -31.8410   26.5339 H   0  0  0  0  0  0
  -28.2627  -38.0091   24.7531 H   0  0  0  0  0  0
  -28.1064  -36.2628   24.6284 H   0  0  0  0  0  0
  -27.2312  -37.1448   25.8873 H   0  0  0  0  0  0
  -20.9312  -29.8731   21.6930 H   0  0  0  0  0  0
  -26.0185  -38.2876   24.1410 H   0  0  0  0  0  0
  -31.6469  -18.6525   21.7125 H   0  0  0  0  0  0
  -28.0200  -18.2577   19.4086 H   0  0  0  0  0  0
  -31.0405  -20.9749   22.2536 H   0  0  0  0  0  0
  -27.4226  -20.5530   19.9324 H   0  0  0  0  0  0
  -30.6945  -17.7446   17.9324 H   0  0  0  0  0  0
  -29.2183  -16.8012   18.1135 H   0  0  0  0  0  0
  -30.7706  -15.9986   17.9783 H   0  0  0  0  0  0
  -27.5002  -24.1684   22.2274 H   0  0  0  0  0  0
  -26.7162  -24.6625   20.7805 H   0  0  0  0  0  0
  -28.9014  -23.4568   19.6423 H   0  0  0  0  0  0
  -27.4116  -22.6475   20.0611 H   0  0  0  0  0  0
  -29.6155  -25.4805   21.2474 H   0  0  0  0  0  0
  -28.3521  -26.2981   22.1039 H   0  0  0  0  0  0
  -31.5186  -16.9924   20.1114 H   0  0  0  0  0  0
  -28.9988  -15.5659   20.7693 H   0  0  0  0  0  0
  1 25  1  0  0  0
  1 30  2  0  0  0
  1 82  1  0  0  0
  2  3  1  0  0  0
  2 25  1  0  0  0
  2 84  1  0  0  0
  2 85  1  0  0  0
  3  4  1  0  0  0
  3 86  1  0  0  0
  3 87  1  0  0  0
  4  5  1  0  0  0
  4 88  1  0  0  0
  4 89  1  0  0  0
  5  6  1  0  0  0
  5 26  1  0  0  0
  5 90  1  0  0  0
  6 25  1  0  0  0
  6 91  1  0  0  0
  6 92  1  0  0  0
  7  8  2  0  0  0
  7 26  1  0  0  0
  7 29  1  0  0  0
  8  9  1  0  0  0
  8 22  1  0  0  0
  9 10  1  0  0  0
  9 27  2  0  0  0
 10 11  2  0  0  0
 10 15  1  0  0  0
 11 12  1  0  0  0
 11 93  1  0  0  0
 12 13  2  0  0  0
 12 94  1  0  0  0
 13 14  1  0  0  0
 13 31  1  0  0  0
 14 15  2  0  0  0
 14 95  1  0  0  0
 15 96  1  0  0  0
 16 17  2  0  0  0
 16 21  1  0  0  0
 16 31  1  0  0  0
 17 18  1  0  0  0
 17 97  1  0  0  0
 18 19  2  0  0  0
 18 98  1  0  0  0
 19 20  1  0  0  0
 19 24  1  0  0  0
 20 21  2  0  0  0
 20 99  1  0  0  0
 21 23  1  0  0  0
 22 28  1  0  0  0
 22 32  2  0  0  0
 26 27  1  0  0  0
 28100  1  0  0  0
 28101  1  0  0  0
 29102  1  0  0  0
 29103  1  0  0  0
 33 34  1  0  0  0
 33 66  1  0  0  0
 33 70  2  0  0  0
 34 36  1  0  0  0
 34 59  1  0  0  0
 34104  1  0  0  0
 35 44  2  0  0  0
 35 45  1  0  0  0
 35 68  1  0  0  0
 36 56  1  0  0  0
 36105  1  0  0  0
 37 39  1  0  0  0
 37 47  1  0  0  0
 37 66  1  0  0  0
 37106  1  0  0  0
 38 43  2  0  0  0
 38 46  1  0  0  0
 38 47  1  0  0  0
 39 64  1  0  0  0
 39 67  2  0  0  0
 40 52  1  0  0  0
 40 53  2  0  0  0
 40 58  1  0  0  0
 41107  1  0  0  0
 41108  1  0  0  0
 41109  1  0  0  0
 41 48  1  0  0  0
 42 43  1  0  0  0
 42 66  1  0  0  0
 42110  1  0  0  0
 42111  1  0  0  0
 43 44  1  0  0  0
 44112  1  0  0  0
 45 46  2  0  0  0
 45113  1  0  0  0
 46114  1  0  0  0
 47115  1  0  0  0
 47116  1  0  0  0
 48 56  1  0  0  0
 48 65  1  0  0  0
 48117  1  0  0  0
 49 50  1  0  0  0
 49 53  1  0  0  0
 49 64  1  0  0  0
 49118  1  0  0  0
 50 51  1  0  0  0
 50119  1  0  0  0
 50120  1  0  0  0
 51 52  1  0  0  0
 51121  1  0  0  0
 51122  1  0  0  0
 52123  1  0  0  0
 52124  1  0  0  0
 53 54  1  0  0  0
 54 55  2  0  0  0
 54125  1  0  0  0
 55 57  1  0  0  0
 55126  1  0  0  0
 56 69  2  0  0  0
 57 58  2  0  0  0
 57127  1  0  0  0
 58128  1  0  0  0
 59 60  1  0  0  0
 59 61  1  0  0  0
 59 62  1  0  0  0
 60129  1  0  0  0
 60130  1  0  0  0
 60131  1  0  0  0
 61132  1  0  0  0
 61133  1  0  0  0
 61134  1  0  0  0
 62135  1  0  0  0
 62136  1  0  0  0
 62137  1  0  0  0
 63 65  1  0  0  0
 63138  1  0  0  0
 63139  1  0  0  0
 63140  1  0  0  0
 64141  1  0  0  0
 65142  1  0  0  0
 68 80  1  0  0  0
 71 73  2  0  0  0
 71 75  1  0  0  0
 71143  1  0  0  0
 72 74  1  0  0  0
 72 75  2  0  0  0
 72144  1  0  0  0
 73 76  1  0  0  0
 73145  1  0  0  0
 74 76  2  0  0  0
 74146  1  0  0  0
 75 81  1  0  0  0
 76 83  1  0  0  0
 77147  1  0  0  0
 77148  1  0  0  0
 77149  1  0  0  0
 77 81  1  0  0  0
 78 79  1  0  0  0
 78 80  1  0  0  0
 78150  1  0  0  0
 78151  1  0  0  0
 79 83  1  0  0  0
 79152  1  0  0  0
 79153  1  0  0  0
 80154  1  0  0  0
 80155  1  0  0  0
 81 82  1  0  0  0
 81156  1  0  0  0
 82157  1  0  0  0
M  ISO  4   1 100  68 101  80 101  82 100
M  END
> <chiral flag>
0

> <version>
0

> <s_m_source_file>
/data/baiqing/PycharmProjects/Reinvent-master-3.2/result/LINK_invent/BTK/process_docking_weight1_custom_sum_contain_oxygen_bond_distance_aromatic_linkinvent_7_9_3/rearranged_h_0123.sdf

> <i_m_source_file_index>
46

> <r_mmod_Potential_Energy-OPLS-2005>
-19.3370246887207

> <r_mmod_Stretch_Energy-OPLS-2005>
42.8777008056641

> <r_mmod_Bend_Energy-OPLS-2005>
113.759605407715

> <r_mmod_Torsional_Energy-OPLS-2005>
261.479919433594

> <r_mmod_Improper_Torsional_Energy-OPLS-2005>
10.622935295105

> <r_mmod_Van_der_Waal_Energy-OPLS-2005>
149.69367980957

> <r_mmod_Electrostatic_Energy-OPLS-2005>
-415.202026367188

> <r_mmod_Solvation_Energy-OPLS-2005>
-206.71955871582

> <b_mmod_Minimization_Converged-OPLS-2005>
0

> <r_mmod_RMS_Derivative-OPLS-2005>
2.025146484375

$$$$
46
                    3D
 Structure written by MMmdl.
160168  0  0  1  0            999 V2000
  -30.5230  -15.0255   20.4034 C   0  0  0  0  0  0
  -30.4401  -12.6394   19.5071 C   0  0  0  0  0  0
  -29.5231  -12.5367   18.2649 C   0  0  0  0  0  0
  -28.0593  -12.3107   18.6854 C   0  0  0  0  0  0
  -27.6255  -13.2536   19.8374 C   0  0  2  0  0  0
  -28.6689  -13.3199   20.9732 C   0  0  0  0  0  0
  -25.2436  -13.8201   20.5737 C   0  0  0  0  0  0
  -24.1765  -13.0429   20.9266 C   0  0  0  0  0  0
  -24.6391  -11.6916   20.8781 C   0  0  0  0  0  0
  -23.9078  -10.4286   21.0420 C   0  0  0  0  0  0
  -24.3628   -9.4200   21.9196 C   0  0  0  0  0  0
  -23.6299   -8.2236   22.0754 C   0  0  0  0  0  0
  -22.4281   -8.0276   21.3545 C   0  0  0  0  0  0
  -21.9922   -9.0250   20.4647 C   0  0  0  0  0  0
  -22.7253  -10.2129   20.3064 C   0  0  0  0  0  0
  -21.6851   -6.0734   22.5278 C   0  0  0  0  0  0
  -21.4014   -6.5638   23.8209 C   0  0  0  0  0  0
  -21.3662   -5.6793   24.9173 C   0  0  0  0  0  0
  -21.6049   -4.3056   24.7229 C   0  0  0  0  0  0
  -21.8817   -3.8147   23.4350 C   0  0  0  0  0  0
  -21.9194   -4.6963   22.3404 C   0  0  0  0  0  0
  -22.7789  -13.5198   21.1906 C   0  0  0  0  0  0
  -22.1661   -4.2148   21.0981 F   0  0  0  0  0  0
  -21.5633   -3.4541   25.7742 F   0  0  0  0  0  0
  -29.9332  -13.7547   20.3647 N   0  0  0  0  0  0
  -26.2868  -12.9452   20.3268 N   0  0  0  0  0  0
  -25.9327  -11.6578   20.5763 N   0  0  0  0  0  0
  -22.0441  -12.8177   22.0453 N   0  0  0  0  0  0
  -25.4095  -15.1919   20.4103 N   0  0  0  0  0  0
  -31.7308  -15.0732   20.1461 O   0  0  0  0  0  0
  -21.6645   -6.8876   21.4238 O   0  0  0  0  0  0
  -22.3482  -14.5507   20.6744 O   0  0  0  0  0  0
  -24.6501  -31.8393   23.1854 C   0  0  0  0  0  0
  -25.9245  -32.4673   23.8261 C   0  0  1  0  0  0
  -27.2093  -27.0699   20.1594 C   0  0  0  0  0  0
  -25.5972  -33.8482   24.2167 N   0  0  0  0  0  0
  -23.4570  -30.4590   21.5325 C   0  0  2  0  0  0
  -24.9075  -28.8795   20.1124 C   0  0  0  0  0  0
  -22.7603  -29.4527   22.4839 C   0  0  0  0  0  0
  -18.0312  -28.1396   22.8473 C   0  0  0  0  0  0
  -24.1490  -36.7242   23.2643 C   0  0  0  0  0  0
  -26.0197  -30.6895   21.3995 C   0  0  0  0  0  0
  -26.0886  -29.2954   20.7411 C   0  0  0  0  0  0
  -27.2404  -28.4077   20.7486 C   0  0  0  0  0  0
  -26.0092  -26.7918   19.4651 C   0  0  0  0  0  0
  -24.8846  -27.6428   19.4570 C   0  0  0  0  0  0
  -23.6880  -29.7897   20.1530 C   0  0  0  0  0  0
  -25.4127  -36.3022   24.0309 C   0  0  1  0  0  0
  -20.5930  -28.3733   23.1209 C   0  0  2  0  0  0
  -20.6794  -26.9428   22.5395 C   0  0  0  0  0  0
  -19.5767  -26.6378   21.5206 C   0  0  0  0  0  0
  -18.1950  -26.7932   22.1618 C   0  0  0  0  0  0
  -19.1572  -28.8884   23.2832 C   0  0  0  0  0  0
  -18.9486  -30.1477   23.8862 C   0  0  0  0  0  0
  -17.6481  -30.6591   24.0554 C   0  0  0  0  0  0
  -25.9086  -34.9397   23.5050 C   0  0  0  0  0  0
  -16.5371  -29.9081   23.6336 C   0  0  0  0  0  0
  -16.7296  -28.6498   23.0361 C   0  0  0  0  0  0
  -26.4536  -31.6569   25.0734 C   0  0  0  0  0  0
  -25.3688  -31.3775   26.1404 C   0  0  0  0  0  0
  -27.0423  -30.2956   24.6382 C   0  0  0  0  0  0
  -27.6055  -32.4350   25.7518 C   0  0  0  0  0  0
  -27.5573  -37.1780   24.8465 C   0  0  0  0  0  0
  -21.4289  -29.3051   22.3579 N   0  0  0  0  0  0
  -26.4286  -37.3740   23.9404 N   0  0  0  0  0  0
  -24.7292  -31.0185   22.0931 N   0  0  0  0  0  0
  -23.4212  -28.8071   23.3014 O   0  0  0  0  0  0
  -28.2174  -26.0135   20.2127 O   0  0  0  0  0  0
  -26.5676  -34.8901   22.4631 O   0  0  0  0  0  0
  -23.5599  -32.1312   23.7020 O   0  0  0  0  0  0
  -29.9090  -22.9794   19.8229 C   0  0  0  0  0  0
  -28.2338  -21.8322   20.5919 C   0  0  0  0  0  0
  -30.2424  -21.6161   19.7846 C   0  0  0  0  0  0
  -29.1610  -20.7888   20.2844 C   0  0  0  0  0  0
  -32.7481  -21.6482   20.0408 C   0  0  0  0  0  0
  -31.6972  -21.4084   17.7465 C   0  0  0  0  0  0
  -30.0959  -17.8071   20.4514 C   0  0  0  0  0  0
  -27.7597  -24.5529   20.4753 C   0  0  0  0  0  0
  -31.5579  -21.0984   19.2438 C   0  0  0  0  0  0
  -28.9624  -19.0981   20.3632 C   0  0  2  0  0  0
  -28.6266  -23.2067   20.3062 N   0  0  0  0  0  0
  -29.7512  -16.2335   20.5233 N   0  0  0  0  0  0
  -28.0309  -18.7779   19.2769 N   0  3  0  0  0  0
  -31.4705  -12.8056   19.1907 H   0  0  0  0  0  0
  -30.4504  -11.6995   20.0608 H   0  0  0  0  0  0
  -29.8563  -11.7267   17.6153 H   0  0  0  0  0  0
  -29.5974  -13.4522   17.6765 H   0  0  0  0  0  0
  -27.9658  -11.2725   19.0056 H   0  0  0  0  0  0
  -27.3949  -12.4269   17.8284 H   0  0  0  0  0  0
  -27.5760  -14.2474   19.3914 H   0  0  0  0  0  0
  -28.7767  -12.3536   21.4674 H   0  0  0  0  0  0
  -28.3557  -14.0271   21.7430 H   0  0  0  0  0  0
  -25.2766   -9.5678   22.4783 H   0  0  0  0  0  0
  -24.0011   -7.4621   22.7466 H   0  0  0  0  0  0
  -21.0859   -8.8767   19.8942 H   0  0  0  0  0  0
  -22.3707  -10.9674   19.6180 H   0  0  0  0  0  0
  -21.1999   -7.6145   23.9709 H   0  0  0  0  0  0
  -21.1490   -6.0527   25.9075 H   0  0  0  0  0  0
  -22.0595   -2.7611   23.2848 H   0  0  0  0  0  0
  -22.4064  -11.9836   22.4832 H   0  0  0  0  0  0
  -21.1052  -13.1174   22.2655 H   0  0  0  0  0  0
  -24.6324  -15.8375   20.4979 H   0  0  0  0  0  0
  -26.2311  -15.6073   19.9977 H   0  0  0  0  0  0
  -26.7312  -32.5253   23.0985 H   0  0  0  0  0  0
  -25.0086  -33.9589   25.0292 H   0  0  0  0  0  0
  -22.7632  -31.2876   21.3752 H   0  0  0  0  0  0
  -23.3766  -35.9561   23.3294 H   0  0  0  0  0  0
  -24.3573  -36.8894   22.2062 H   0  0  0  0  0  0
  -23.7236  -37.6425   23.6696 H   0  0  0  0  0  0
  -26.1887  -31.4406   20.6266 H   0  0  0  0  0  0
  -26.8845  -30.7377   22.0494 H   0  0  0  0  0  0
  -28.1356  -28.7185   21.2689 H   0  0  0  0  0  0
  -25.9002  -25.8716   18.9136 H   0  0  0  0  0  0
  -23.9911  -27.3268   18.9360 H   0  0  0  0  0  0
  -23.8329  -30.5646   19.3993 H   0  0  0  0  0  0
  -22.8002  -29.2380   19.8381 H   0  0  0  0  0  0
  -25.1319  -36.1845   25.0802 H   0  0  0  0  0  0
  -21.0019  -28.3331   24.1332 H   0  0  0  0  0  0
  -20.5680  -26.2350   23.3625 H   0  0  0  0  0  0
  -21.6660  -26.7421   22.1201 H   0  0  0  0  0  0
  -19.6927  -25.6279   21.1264 H   0  0  0  0  0  0
  -19.6703  -27.3161   20.6715 H   0  0  0  0  0  0
  -17.4216  -26.6674   21.4024 H   0  0  0  0  0  0
  -18.0354  -26.0079   22.9021 H   0  0  0  0  0  0
  -19.7963  -30.7302   24.2217 H   0  0  0  0  0  0
  -17.5034  -31.6269   24.5162 H   0  0  0  0  0  0
  -15.5371  -30.2971   23.7682 H   0  0  0  0  0  0
  -15.8697  -28.0804   22.7096 H   0  0  0  0  0  0
  -24.5874  -30.7128   25.7701 H   0  0  0  0  0  0
  -24.8868  -32.2964   26.4754 H   0  0  0  0  0  0
  -25.7937  -30.8983   27.0235 H   0  0  0  0  0  0
  -26.3074  -29.6654   24.1363 H   0  0  0  0  0  0
  -27.3977  -29.7288   25.4998 H   0  0  0  0  0  0
  -27.9004  -30.4172   23.9768 H   0  0  0  0  0  0
  -27.2647  -33.3677   26.2021 H   0  0  0  0  0  0
  -28.3899  -32.6871   25.0370 H   0  0  0  0  0  0
  -28.0690  -31.8531   26.5495 H   0  0  0  0  0  0
  -28.2583  -38.0083   24.7516 H   0  0  0  0  0  0
  -28.1081  -36.2615   24.6294 H   0  0  0  0  0  0
  -27.2291  -37.1425   25.8867 H   0  0  0  0  0  0
  -20.9515  -29.8768   21.6751 H   0  0  0  0  0  0
  -26.0152  -38.2807   24.1410 H   0  0  0  0  0  0
  -30.4928  -23.8343   19.5067 H   0  0  0  0  0  0
  -27.2349  -21.7046   20.9880 H   0  0  0  0  0  0
  -32.6680  -21.3886   21.0971 H   0  0  0  0  0  0
  -32.8132  -22.7343   19.9678 H   0  0  0  0  0  0
  -33.6880  -21.2357   19.6718 H   0  0  0  0  0  0
  -30.8770  -20.9744   17.1743 H   0  0  0  0  0  0
  -32.6262  -21.0021   17.3444 H   0  0  0  0  0  0
  -31.6985  -22.4827   17.5591 H   0  0  0  0  0  0
  -30.7328  -18.0102   21.3124 H   0  0  0  0  0  0
  -30.7596  -17.9035   19.5926 H   0  0  0  0  0  0
  -27.4225  -24.5487   21.5123 H   0  0  0  0  0  0
  -26.8694  -24.3478   19.8879 H   0  0  0  0  0  0
  -31.5667  -20.0165   19.3567 H   0  0  0  0  0  0
  -28.3792  -18.9818   21.2779 H   0  0  0  0  0  0
  -28.7842  -16.0372   20.7305 H   0  0  0  0  0  0
  -27.7135  -17.8309   19.3433 H   0  0  0  0  0  0
  -28.4795  -18.9116   18.3894 H   0  0  0  0  0  0
  -27.2369  -19.3894   19.3238 H   0  0  0  0  0  0
  1 25  1  0  0  0
  1 30  2  0  0  0
  1 82  1  0  0  0
  2  3  1  0  0  0
  2 25  1  0  0  0
  2 84  1  0  0  0
  2 85  1  0  0  0
  3  4  1  0  0  0
  3 86  1  0  0  0
  3 87  1  0  0  0
  4  5  1  0  0  0
  4 88  1  0  0  0
  4 89  1  0  0  0
  5  6  1  0  0  0
  5 26  1  0  0  0
  5 90  1  0  0  0
  6 25  1  0  0  0
  6 91  1  0  0  0
  6 92  1  0  0  0
  7  8  2  0  0  0
  7 26  1  0  0  0
  7 29  1  0  0  0
  8  9  1  0  0  0
  8 22  1  0  0  0
  9 10  1  0  0  0
  9 27  2  0  0  0
 10 11  2  0  0  0
 10 15  1  0  0  0
 11 12  1  0  0  0
 11 93  1  0  0  0
 12 13  2  0  0  0
 12 94  1  0  0  0
 13 14  1  0  0  0
 13 31  1  0  0  0
 14 15  2  0  0  0
 14 95  1  0  0  0
 15 96  1  0  0  0
 16 17  2  0  0  0
 16 21  1  0  0  0
 16 31  1  0  0  0
 17 18  1  0  0  0
 17 97  1  0  0  0
 18 19  2  0  0  0
 18 98  1  0  0  0
 19 20  1  0  0  0
 19 24  1  0  0  0
 20 21  2  0  0  0
 20 99  1  0  0  0
 21 23  1  0  0  0
 22 28  1  0  0  0
 22 32  2  0  0  0
 26 27  1  0  0  0
 28100  1  0  0  0
 28101  1  0  0  0
 29102  1  0  0  0
 29103  1  0  0  0
 33 34  1  0  0  0
 33 66  1  0  0  0
 33 70  2  0  0  0
 34 36  1  0  0  0
 34 59  1  0  0  0
 34104  1  0  0  0
 35 44  2  0  0  0
 35 45  1  0  0  0
 35 68  1  0  0  0
 36 56  1  0  0  0
 36105  1  0  0  0
 37 39  1  0  0  0
 37 47  1  0  0  0
 37 66  1  0  0  0
 37106  1  0  0  0
 38 43  2  0  0  0
 38 46  1  0  0  0
 38 47  1  0  0  0
 39 64  1  0  0  0
 39 67  2  0  0  0
 40 52  1  0  0  0
 40 53  2  0  0  0
 40 58  1  0  0  0
 41107  1  0  0  0
 41108  1  0  0  0
 41109  1  0  0  0
 41 48  1  0  0  0
 42 43  1  0  0  0
 42 66  1  0  0  0
 42110  1  0  0  0
 42111  1  0  0  0
 43 44  1  0  0  0
 44112  1  0  0  0
 45 46  2  0  0  0
 45113  1  0  0  0
 46114  1  0  0  0
 47115  1  0  0  0
 47116  1  0  0  0
 48 56  1  0  0  0
 48 65  1  0  0  0
 48117  1  0  0  0
 49 50  1  0  0  0
 49 53  1  0  0  0
 49 64  1  0  0  0
 49118  1  0  0  0
 50 51  1  0  0  0
 50119  1  0  0  0
 50120  1  0  0  0
 51 52  1  0  0  0
 51121  1  0  0  0
 51122  1  0  0  0
 52123  1  0  0  0
 52124  1  0  0  0
 53 54  1  0  0  0
 54 55  2  0  0  0
 54125  1  0  0  0
 55 57  1  0  0  0
 55126  1  0  0  0
 56 69  2  0  0  0
 57 58  2  0  0  0
 57127  1  0  0  0
 58128  1  0  0  0
 59 60  1  0  0  0
 59 61  1  0  0  0
 59 62  1  0  0  0
 60129  1  0  0  0
 60130  1  0  0  0
 60131  1  0  0  0
 61132  1  0  0  0
 61133  1  0  0  0
 61134  1  0  0  0
 62135  1  0  0  0
 62136  1  0  0  0
 62137  1  0  0  0
 63 65  1  0  0  0
 63138  1  0  0  0
 63139  1  0  0  0
 63140  1  0  0  0
 64141  1  0  0  0
 65142  1  0  0  0
 68 78  1  0  0  0
 71 73  2  0  0  0
 71 81  1  0  0  0
 71143  1  0  0  0
 72 74  2  0  0  0
 72 81  1  0  0  0
 72144  1  0  0  0
 73 74  1  0  0  0
 73 79  1  0  0  0
 74 80  1  0  0  0
 75145  1  0  0  0
 75146  1  0  0  0
 75147  1  0  0  0
 75 79  1  0  0  0
 76 79  1  0  0  0
 76148  1  0  0  0
 76149  1  0  0  0
 76150  1  0  0  0
 77 80  1  0  0  0
 77 82  1  0  0  0
 77151  1  0  0  0
 77152  1  0  0  0
 78 81  1  0  0  0
 78153  1  0  0  0
 78154  1  0  0  0
 79155  1  0  0  0
 80 83  1  0  0  0
 80156  1  0  0  0
 82157  1  0  0  0
 83158  1  0  0  0
 83159  1  0  0  0
 83160  1  0  0  0
M  CHG  1  83   1
M  ISO  4   1 100  68 101  78 101  82 100
M  END
> <chiral flag>
0

> <version>
0

> <s_m_source_file>
/data/baiqing/PycharmProjects/Reinvent-master-3.2/result/LINK_invent/BTK/process_docking_weight1_custom_sum_contain_oxygen_bond_distance_aromatic_linkinvent_7_9_3/rearranged_h_0123.sdf

> <i_m_source_file_index>
47

> <r_mmod_Potential_Energy-OPLS-2005>
304.473388671875

> <r_mmod_Stretch_Energy-OPLS-2005>
326.149291992188

> <r_mmod_Bend_Energy-OPLS-2005>
308.758880615234

> <r_mmod_Torsional_Energy-OPLS-2005>
242.299774169922

> <r_mmod_Improper_Torsional_Energy-OPLS-2005>
5.09372758865356

> <r_mmod_Van_der_Waal_Energy-OPLS-2005>
107.922340393066

> <r_mmod_Electrostatic_Energy-OPLS-2005>
-411.597198486328

> <r_mmod_Solvation_Energy-OPLS-2005>
-531.606323242188

> <b_mmod_Minimization_Converged-OPLS-2005>
0

> <r_mmod_RMS_Derivative-OPLS-2005>
0.92551326751709

$$$$
47
                    3D
 Structure written by MMmdl.
165173  0  0  1  0            999 V2000
  -30.5898  -14.8162   20.4573 C   0  0  0  0  0  0
  -30.4261  -12.4957   19.5108 C   0  0  0  0  0  0
  -29.5168  -12.5196   18.2639 C   0  0  0  0  0  0
  -28.0487  -12.3103   18.6750 C   0  0  0  0  0  0
  -27.6326  -13.2336   19.8503 C   0  0  2  0  0  0
  -28.6667  -13.2186   21.0001 C   0  0  0  0  0  0
  -25.2492  -13.8193   20.5650 C   0  0  0  0  0  0
  -24.1712  -13.0408   20.9144 C   0  0  0  0  0  0
  -24.6329  -11.6921   20.8734 C   0  0  0  0  0  0
  -23.9018  -10.4257   21.0413 C   0  0  0  0  0  0
  -24.3593   -9.4184   21.9183 C   0  0  0  0  0  0
  -23.6250   -8.2247   22.0815 C   0  0  0  0  0  0
  -22.4261   -8.0275   21.3592 C   0  0  0  0  0  0
  -21.9865   -9.0235   20.4707 C   0  0  0  0  0  0
  -22.7215  -10.2102   20.3050 C   0  0  0  0  0  0
  -21.6850   -6.0727   22.5271 C   0  0  0  0  0  0
  -21.4038   -6.5625   23.8201 C   0  0  0  0  0  0
  -21.3653   -5.6782   24.9149 C   0  0  0  0  0  0
  -21.6007   -4.3051   24.7208 C   0  0  0  0  0  0
  -21.8821   -3.8147   23.4326 C   0  0  0  0  0  0
  -21.9170   -4.6950   22.3380 C   0  0  0  0  0  0
  -22.7751  -13.5274   21.1731 C   0  0  0  0  0  0
  -22.1638   -4.2139   21.0961 F   0  0  0  0  0  0
  -21.5606   -3.4529   25.7719 F   0  0  0  0  0  0
  -29.9685  -13.5777   20.4268 N   0  0  0  0  0  0
  -26.2882  -12.9376   20.3283 N   0  0  0  0  0  0
  -25.9256  -11.6519   20.5762 N   0  0  0  0  0  0
  -22.0386  -12.8340   22.0355 N   0  0  0  0  0  0
  -25.4225  -15.1868   20.4111 N   0  0  0  0  0  0
  -31.7560  -14.8749   20.0615 O   0  0  0  0  0  0
  -21.6648   -6.8883   21.4251 O   0  0  0  0  0  0
  -22.3465  -14.5531   20.6542 O   0  0  0  0  0  0
  -24.6265  -31.8436   23.1982 C   0  0  0  0  0  0
  -25.9164  -32.4612   23.8218 C   0  0  1  0  0  0
  -27.2536  -27.1982   20.2228 C   0  0  0  0  0  0
  -25.5993  -33.8406   24.2100 N   0  0  0  0  0  0
  -23.4261  -30.4694   21.5243 C   0  0  2  0  0  0
  -24.9041  -28.9037   20.1127 C   0  0  0  0  0  0
  -22.7498  -29.4562   22.4769 C   0  0  0  0  0  0
  -18.0320  -28.1362   22.8483 C   0  0  0  0  0  0
  -24.1520  -36.7217   23.2631 C   0  0  0  0  0  0
  -25.9716  -30.7444   21.3939 C   0  0  0  0  0  0
  -26.0605  -29.3595   20.7540 C   0  0  0  0  0  0
  -27.2262  -28.5145   20.8112 C   0  0  0  0  0  0
  -26.0819  -26.8480   19.4963 C   0  0  0  0  0  0
  -24.9257  -27.6604   19.4683 C   0  0  0  0  0  0
  -23.6639  -29.7831   20.1481 C   0  0  0  0  0  0
  -25.4148  -36.2891   24.0240 C   0  0  1  0  0  0
  -20.5917  -28.3696   23.1243 C   0  0  2  0  0  0
  -20.6778  -26.9388   22.5426 C   0  0  0  0  0  0
  -19.5739  -26.6349   21.5221 C   0  0  0  0  0  0
  -18.1940  -26.7917   22.1630 C   0  0  0  0  0  0
  -19.1560  -28.8842   23.2867 C   0  0  0  0  0  0
  -18.9488  -30.1468   23.8844 C   0  0  0  0  0  0
  -17.6475  -30.6575   24.0558 C   0  0  0  0  0  0
  -25.9072  -34.9293   23.4951 C   0  0  0  0  0  0
  -16.5376  -29.9048   23.6359 C   0  0  0  0  0  0
  -16.7300  -28.6481   23.0352 C   0  0  0  0  0  0
  -26.4581  -31.6517   25.0640 C   0  0  0  0  0  0
  -25.3835  -31.3801   26.1386 C   0  0  0  0  0  0
  -27.0451  -30.2888   24.6291 C   0  0  0  0  0  0
  -27.6015  -32.4326   25.7548 C   0  0  0  0  0  0
  -27.5532  -37.1770   24.8431 C   0  0  0  0  0  0
  -21.4183  -29.3061   22.3573 N   0  0  0  0  0  0
  -26.4240  -37.3647   23.9371 N   0  0  0  0  0  0
  -24.6881  -31.0417   22.0915 N   0  0  0  0  0  0
  -23.4235  -28.8078   23.2816 O   0  0  0  0  0  0
  -28.3228  -26.2503   20.4238 O   0  0  0  0  0  0
  -26.5580  -34.8848   22.4478 O   0  0  0  0  0  0
  -23.5457  -32.1213   23.7351 O   0  0  0  0  0  0
  -28.5664  -21.2392   21.9093 C   0  0  0  0  0  0
  -29.8043  -22.6298   19.9031 C   0  0  0  0  0  0
  -28.3087  -22.6583   21.7260 C   0  0  0  0  0  0
  -30.1304  -21.2336   20.1478 C   0  0  0  0  0  0
  -28.8352  -23.4078   20.6200 C   0  0  0  0  0  0
  -29.4086  -20.3953   21.0886 C   0  0  0  0  0  0
  -27.3981  -23.3687   22.7244 C   0  0  0  0  0  0
  -31.1072  -19.9280   18.1592 C   0  0  0  0  0  0
  -29.2094  -18.3613   22.8015 C   0  0  0  0  0  0
  -31.7284  -17.6718   21.0770 C   0  0  0  0  0  0
  -31.3753  -20.7243   19.4308 C   0  0  0  0  0  0
  -28.1807  -24.7840   20.0067 C   0  0  0  0  0  0
  -29.3661  -18.7294   21.2952 C   0  0  2  0  0  0
  -30.2796  -17.5064   20.6090 C   0  0  2  0  0  0
  -29.8800  -15.9931   20.7765 N   0  0  0  0  0  0
  -31.4691  -12.5967   19.2131 H   0  0  0  0  0  0
  -30.3785  -11.5243   20.0107 H   0  0  0  0  0  0
  -29.8290  -11.7560   17.5486 H   0  0  0  0  0  0
  -29.6150  -13.4796   17.7586 H   0  0  0  0  0  0
  -27.9272  -11.2645   18.9674 H   0  0  0  0  0  0
  -27.3877  -12.4598   17.8219 H   0  0  0  0  0  0
  -27.6227  -14.2460   19.4444 H   0  0  0  0  0  0
  -28.7028  -12.2365   21.4747 H   0  0  0  0  0  0
  -28.3795  -13.9216   21.7852 H   0  0  0  0  0  0
  -25.2752   -9.5631   22.4775 H   0  0  0  0  0  0
  -23.9911   -7.4653   22.7554 H   0  0  0  0  0  0
  -21.0779   -8.8730   19.9061 H   0  0  0  0  0  0
  -22.3641  -10.9613   19.6143 H   0  0  0  0  0  0
  -21.2118   -7.6161   23.9695 H   0  0  0  0  0  0
  -21.1452   -6.0526   25.9031 H   0  0  0  0  0  0
  -22.0626   -2.7623   23.2812 H   0  0  0  0  0  0
  -22.3992  -12.0004   22.4756 H   0  0  0  0  0  0
  -21.1046  -13.1474   22.2617 H   0  0  0  0  0  0
  -24.6653  -15.8495   20.5217 H   0  0  0  0  0  0
  -26.2738  -15.6247   20.0899 H   0  0  0  0  0  0
  -26.7172  -32.5298   23.0900 H   0  0  0  0  0  0
  -25.0256  -33.9479   25.0325 H   0  0  0  0  0  0
  -22.7257  -31.2926   21.3582 H   0  0  0  0  0  0
  -23.3687  -35.9640   23.3255 H   0  0  0  0  0  0
  -24.3611  -36.8921   22.2063 H   0  0  0  0  0  0
  -23.7453  -37.6463   23.6729 H   0  0  0  0  0  0
  -26.1157  -31.4947   20.6161 H   0  0  0  0  0  0
  -26.8444  -30.8047   22.0294 H   0  0  0  0  0  0
  -28.0754  -28.8470   21.3904 H   0  0  0  0  0  0
  -26.0043  -25.9108   18.9707 H   0  0  0  0  0  0
  -24.0398  -27.3208   18.9487 H   0  0  0  0  0  0
  -23.7962  -30.5326   19.3672 H   0  0  0  0  0  0
  -22.7912  -29.2042   19.8390 H   0  0  0  0  0  0
  -25.1380  -36.1567   25.0714 H   0  0  0  0  0  0
  -21.0062  -28.3300   24.1341 H   0  0  0  0  0  0
  -20.5675  -26.2292   23.3647 H   0  0  0  0  0  0
  -21.6641  -26.7380   22.1204 H   0  0  0  0  0  0
  -19.6905  -25.6256   21.1244 H   0  0  0  0  0  0
  -19.6676  -27.3165   20.6749 H   0  0  0  0  0  0
  -17.4219  -26.6673   21.4039 H   0  0  0  0  0  0
  -18.0344  -26.0048   22.9002 H   0  0  0  0  0  0
  -19.7958  -30.7328   24.2146 H   0  0  0  0  0  0
  -17.5027  -31.6267   24.5159 H   0  0  0  0  0  0
  -15.5366  -30.2928   23.7742 H   0  0  0  0  0  0
  -15.8700  -28.0815   22.7046 H   0  0  0  0  0  0
  -24.5897  -30.7242   25.7816 H   0  0  0  0  0  0
  -24.9201  -32.3079   26.4777 H   0  0  0  0  0  0
  -25.8174  -30.9016   27.0186 H   0  0  0  0  0  0
  -26.3079  -29.6608   24.1262 H   0  0  0  0  0  0
  -27.4005  -29.7204   25.4921 H   0  0  0  0  0  0
  -27.9041  -30.4068   23.9651 H   0  0  0  0  0  0
  -27.2404  -33.3545   26.2182 H   0  0  0  0  0  0
  -28.3932  -32.7074   25.0526 H   0  0  0  0  0  0
  -28.0598  -31.8440   26.5539 H   0  0  0  0  0  0
  -28.2463  -38.0126   24.7384 H   0  0  0  0  0  0
  -28.1068  -36.2615   24.6286 H   0  0  0  0  0  0
  -27.2195  -37.1480   25.8818 H   0  0  0  0  0  0
  -20.9322  -29.8842   21.6852 H   0  0  0  0  0  0
  -25.9990  -38.2630   24.1467 H   0  0  0  0  0  0
  -28.0588  -20.7795   22.7452 H   0  0  0  0  0  0
  -30.3319  -23.1363   19.1018 H   0  0  0  0  0  0
  -27.4612  -22.9389   23.7294 H   0  0  0  0  0  0
  -26.3645  -23.3113   22.3920 H   0  0  0  0  0  0
  -27.6689  -24.4242   22.8146 H   0  0  0  0  0  0
  -31.9967  -19.3652   17.8742 H   0  0  0  0  0  0
  -30.8805  -20.6342   17.3636 H   0  0  0  0  0  0
  -30.2699  -19.2379   18.2372 H   0  0  0  0  0  0
  -30.0265  -18.7510   23.4088 H   0  0  0  0  0  0
  -29.1806  -17.2825   22.9986 H   0  0  0  0  0  0
  -28.2722  -18.7395   23.2023 H   0  0  0  0  0  0
  -31.8483  -18.4913   21.7819 H   0  0  0  0  0  0
  -32.3734  -17.8437   20.2173 H   0  0  0  0  0  0
  -32.0831  -16.7912   21.6095 H   0  0  0  0  0  0
  -32.0265  -20.2195   20.1356 H   0  0  0  0  0  0
  -31.9724  -21.5892   19.1263 H   0  0  0  0  0  0
  -27.1224  -24.5525   20.0420 H   0  0  0  0  0  0
  -28.4498  -24.7890   18.9524 H   0  0  0  0  0  0
  -28.3922  -18.5336   20.8456 H   0  0  0  0  0  0
  -30.2728  -17.6224   19.5248 H   0  0  0  0  0  0
  -28.9383  -15.8400   21.1178 H   0  0  0  0  0  0
  1 25  1  0  0  0
  1 30  2  0  0  0
  1 85  1  0  0  0
  2  3  1  0  0  0
  2 25  1  0  0  0
  2 86  1  0  0  0
  2 87  1  0  0  0
  3  4  1  0  0  0
  3 88  1  0  0  0
  3 89  1  0  0  0
  4  5  1  0  0  0
  4 90  1  0  0  0
  4 91  1  0  0  0
  5  6  1  0  0  0
  5 26  1  0  0  0
  5 92  1  0  0  0
  6 25  1  0  0  0
  6 93  1  0  0  0
  6 94  1  0  0  0
  7  8  2  0  0  0
  7 26  1  0  0  0
  7 29  1  0  0  0
  8  9  1  0  0  0
  8 22  1  0  0  0
  9 10  1  0  0  0
  9 27  2  0  0  0
 10 11  2  0  0  0
 10 15  1  0  0  0
 11 12  1  0  0  0
 11 95  1  0  0  0
 12 13  2  0  0  0
 12 96  1  0  0  0
 13 14  1  0  0  0
 13 31  1  0  0  0
 14 15  2  0  0  0
 14 97  1  0  0  0
 15 98  1  0  0  0
 16 17  2  0  0  0
 16 21  1  0  0  0
 16 31  1  0  0  0
 17 18  1  0  0  0
 17 99  1  0  0  0
 18 19  2  0  0  0
 18100  1  0  0  0
 19 20  1  0  0  0
 19 24  1  0  0  0
 20 21  2  0  0  0
 20101  1  0  0  0
 21 23  1  0  0  0
 22 28  1  0  0  0
 22 32  2  0  0  0
 26 27  1  0  0  0
 28102  1  0  0  0
 28103  1  0  0  0
 29104  1  0  0  0
 29105  1  0  0  0
 33 34  1  0  0  0
 33 66  1  0  0  0
 33 70  2  0  0  0
 34 36  1  0  0  0
 34 59  1  0  0  0
 34106  1  0  0  0
 35 44  2  0  0  0
 35 45  1  0  0  0
 35 68  1  0  0  0
 36 56  1  0  0  0
 36107  1  0  0  0
 37 39  1  0  0  0
 37 47  1  0  0  0
 37 66  1  0  0  0
 37108  1  0  0  0
 38 43  2  0  0  0
 38 46  1  0  0  0
 38 47  1  0  0  0
 39 64  1  0  0  0
 39 67  2  0  0  0
 40 52  1  0  0  0
 40 53  2  0  0  0
 40 58  1  0  0  0
 41109  1  0  0  0
 41110  1  0  0  0
 41111  1  0  0  0
 41 48  1  0  0  0
 42 43  1  0  0  0
 42 66  1  0  0  0
 42112  1  0  0  0
 42113  1  0  0  0
 43 44  1  0  0  0
 44114  1  0  0  0
 45 46  2  0  0  0
 45115  1  0  0  0
 46116  1  0  0  0
 47117  1  0  0  0
 47118  1  0  0  0
 48 56  1  0  0  0
 48 65  1  0  0  0
 48119  1  0  0  0
 49 50  1  0  0  0
 49 53  1  0  0  0
 49 64  1  0  0  0
 49120  1  0  0  0
 50 51  1  0  0  0
 50121  1  0  0  0
 50122  1  0  0  0
 51 52  1  0  0  0
 51123  1  0  0  0
 51124  1  0  0  0
 52125  1  0  0  0
 52126  1  0  0  0
 53 54  1  0  0  0
 54 55  2  0  0  0
 54127  1  0  0  0
 55 57  1  0  0  0
 55128  1  0  0  0
 56 69  2  0  0  0
 57 58  2  0  0  0
 57129  1  0  0  0
 58130  1  0  0  0
 59 60  1  0  0  0
 59 61  1  0  0  0
 59 62  1  0  0  0
 60131  1  0  0  0
 60132  1  0  0  0
 60133  1  0  0  0
 61134  1  0  0  0
 61135  1  0  0  0
 61136  1  0  0  0
 62137  1  0  0  0
 62138  1  0  0  0
 62139  1  0  0  0
 63 65  1  0  0  0
 63140  1  0  0  0
 63141  1  0  0  0
 63142  1  0  0  0
 64143  1  0  0  0
 65144  1  0  0  0
 68 82  1  0  0  0
 71 73  2  0  0  0
 71 76  1  0  0  0
 71145  1  0  0  0
 72 74  1  0  0  0
 72 75  2  0  0  0
 72146  1  0  0  0
 73 75  1  0  0  0
 73 77  1  0  0  0
 74 76  2  0  0  0
 74 81  1  0  0  0
 75 82  1  0  0  0
 76 83  1  0  0  0
 77147  1  0  0  0
 77148  1  0  0  0
 77149  1  0  0  0
 78 81  1  0  0  0
 78150  1  0  0  0
 78151  1  0  0  0
 78152  1  0  0  0
 79153  1  0  0  0
 79154  1  0  0  0
 79155  1  0  0  0
 79 83  1  0  0  0
 80156  1  0  0  0
 80157  1  0  0  0
 80158  1  0  0  0
 80 84  1  0  0  0
 81159  1  0  0  0
 81160  1  0  0  0
 82161  1  0  0  0
 82162  1  0  0  0
 83 84  1  0  0  0
 83163  1  0  0  0
 84 85  1  0  0  0
 84164  1  0  0  0
 85165  1  0  0  0
M  ISO  4   1 100  68 101  82 101  85 100
M  END
> <chiral flag>
0

> <version>
0

> <s_m_source_file>
/data/baiqing/PycharmProjects/Reinvent-master-3.2/result/LINK_invent/BTK/process_docking_weight1_custom_sum_contain_oxygen_bond_distance_aromatic_linkinvent_7_9_3/rearranged_h_0123.sdf

> <i_m_source_file_index>
48

> <r_mmod_Potential_Energy-OPLS-2005>
479.653656005859

> <r_mmod_Stretch_Energy-OPLS-2005>
221.00666809082

> <r_mmod_Bend_Energy-OPLS-2005>
280.766418457031

> <r_mmod_Torsional_Energy-OPLS-2005>
268.257904052734

> <r_mmod_Improper_Torsional_Energy-OPLS-2005>
6.67827224731445

> <r_mmod_Van_der_Waal_Energy-OPLS-2005>
150.121994018555

> <r_mmod_Electrostatic_Energy-OPLS-2005>
-387.12548828125

> <r_mmod_Solvation_Energy-OPLS-2005>
-198.022338867188

> <b_mmod_Minimization_Converged-OPLS-2005>
0

> <r_mmod_RMS_Derivative-OPLS-2005>
11.8923416137695

$$$$
48
                    3D
 Structure written by MMmdl.
165173  0  0  1  0            999 V2000
  -30.5442  -14.9228   20.4600 C   0  0  0  0  0  0
  -30.4351  -12.5743   19.5117 C   0  0  0  0  0  0
  -29.5240  -12.5420   18.2625 C   0  0  0  0  0  0
  -28.0519  -12.3396   18.6660 C   0  0  0  0  0  0
  -27.6316  -13.2506   19.8495 C   0  0  2  0  0  0
  -28.6694  -13.2526   20.9929 C   0  0  0  0  0  0
  -25.2467  -13.8239   20.5735 C   0  0  0  0  0  0
  -24.1787  -13.0464   20.9259 C   0  0  0  0  0  0
  -24.6401  -11.6949   20.8759 C   0  0  0  0  0  0
  -23.9078  -10.4316   21.0406 C   0  0  0  0  0  0
  -24.3621   -9.4232   21.9175 C   0  0  0  0  0  0
  -23.6300   -8.2259   22.0744 C   0  0  0  0  0  0
  -22.4270   -8.0302   21.3551 C   0  0  0  0  0  0
  -21.9911   -9.0272   20.4640 C   0  0  0  0  0  0
  -22.7240  -10.2150   20.3065 C   0  0  0  0  0  0
  -21.6857   -6.0751   22.5278 C   0  0  0  0  0  0
  -21.4002   -6.5649   23.8211 C   0  0  0  0  0  0
  -21.3670   -5.6795   24.9174 C   0  0  0  0  0  0
  -21.6066   -4.3062   24.7215 C   0  0  0  0  0  0
  -21.8819   -3.8159   23.4323 C   0  0  0  0  0  0
  -21.9187   -4.6975   22.3388 C   0  0  0  0  0  0
  -22.7810  -13.5220   21.1928 C   0  0  0  0  0  0
  -22.1661   -4.2175   21.0957 F   0  0  0  0  0  0
  -21.5633   -3.4539   25.7714 F   0  0  0  0  0  0
  -29.9491  -13.6658   20.4045 N   0  0  0  0  0  0
  -26.2883  -12.9470   20.3284 N   0  0  0  0  0  0
  -25.9323  -11.6597   20.5746 N   0  0  0  0  0  0
  -22.0463  -12.8192   22.0477 N   0  0  0  0  0  0
  -25.4141  -15.1967   20.4108 N   0  0  0  0  0  0
  -31.7405  -14.9995   20.1602 O   0  0  0  0  0  0
  -21.6644   -6.8892   21.4238 O   0  0  0  0  0  0
  -22.3495  -14.5521   20.6769 O   0  0  0  0  0  0
  -24.6440  -31.8449   23.1908 C   0  0  0  0  0  0
  -25.9218  -32.4707   23.8299 C   0  0  1  0  0  0
  -27.2056  -27.1197   20.1634 C   0  0  0  0  0  0
  -25.5974  -33.8503   24.2201 N   0  0  0  0  0  0
  -23.4474  -30.4668   21.5347 C   0  0  2  0  0  0
  -24.8985  -28.8944   20.1162 C   0  0  0  0  0  0
  -22.7552  -29.4558   22.4828 C   0  0  0  0  0  0
  -18.0296  -28.1420   22.8491 C   0  0  0  0  0  0
  -24.1478  -36.7247   23.2634 C   0  0  0  0  0  0
  -26.0055  -30.7150   21.3945 C   0  0  0  0  0  0
  -26.0756  -29.3219   20.7416 C   0  0  0  0  0  0
  -27.2330  -28.4501   20.7504 C   0  0  0  0  0  0
  -26.0108  -26.8126   19.4836 C   0  0  0  0  0  0
  -24.8791  -27.6521   19.4689 C   0  0  0  0  0  0
  -23.6787  -29.7998   20.1543 C   0  0  0  0  0  0
  -25.4121  -36.3023   24.0296 C   0  0  1  0  0  0
  -20.5905  -28.3736   23.1237 C   0  0  2  0  0  0
  -20.6791  -26.9427   22.5411 C   0  0  0  0  0  0
  -19.5766  -26.6388   21.5229 C   0  0  0  0  0  0
  -18.1941  -26.7959   22.1626 C   0  0  0  0  0  0
  -19.1551  -28.8898   23.2871 C   0  0  0  0  0  0
  -18.9466  -30.1488   23.8888 C   0  0  0  0  0  0
  -17.6462  -30.6616   24.0564 C   0  0  0  0  0  0
  -25.9069  -34.9402   23.5048 C   0  0  0  0  0  0
  -16.5361  -29.9105   23.6343 C   0  0  0  0  0  0
  -16.7279  -28.6523   23.0371 C   0  0  0  0  0  0
  -26.4543  -31.6597   25.0757 C   0  0  0  0  0  0
  -25.3716  -31.3794   26.1439 C   0  0  0  0  0  0
  -27.0410  -30.2988   24.6356 C   0  0  0  0  0  0
  -27.6045  -32.4399   25.7555 C   0  0  0  0  0  0
  -27.5561  -37.1778   24.8462 C   0  0  0  0  0  0
  -21.4238  -29.3062   22.3593 N   0  0  0  0  0  0
  -26.4270  -37.3746   23.9407 N   0  0  0  0  0  0
  -24.7179  -31.0299   22.0959 N   0  0  0  0  0  0
  -23.4205  -28.8077   23.2962 O   0  0  0  0  0  0
  -28.2547  -26.1247   20.1766 O   0  0  0  0  0  0
  -26.5622  -34.8892   22.4604 O   0  0  0  0  0  0
  -23.5559  -32.1316   23.7147 O   0  0  0  0  0  0
  -28.1132  -20.9646   18.4687 C   0  0  0  0  0  0
  -28.3497  -22.0923   17.4821 C   0  0  0  0  0  0
  -28.5456  -23.2245   19.6192 C   0  0  1  0  0  0
  -28.3573  -21.5207   19.9022 C   0  0  2  0  0  0
  -27.8810  -23.3545   18.1956 C   0  0  1  0  0  0
  -28.3962  -24.5828   17.4124 C   0  0  0  0  0  0
  -25.5940  -23.7344   16.9346 C   0  0  0  0  0  0
  -28.0327  -24.5982   20.4975 C   0  0  0  0  0  0
  -26.3079  -23.3118   18.2318 C   0  0  0  0  0  0
  -30.1357  -17.6407   20.5757 C   0  0  0  0  0  0
  -29.0181  -18.9067   20.5792 C   0  0  0  0  0  0
  -29.7724  -16.1008   20.6529 N   0  0  0  0  0  0
  -29.3793  -20.4640   20.4989 N   0  3  0  0  0  0
  -31.4731  -12.7254   19.2124 H   0  0  0  0  0  0
  -30.4119  -11.6150   20.0319 H   0  0  0  0  0  0
  -29.8415  -11.7491   17.5825 H   0  0  0  0  0  0
  -29.6315  -13.4800   17.7156 H   0  0  0  0  0  0
  -27.9279  -11.2922   18.9423 H   0  0  0  0  0  0
  -27.3973  -12.5129   17.8101 H   0  0  0  0  0  0
  -27.6009  -14.2622   19.4441 H   0  0  0  0  0  0
  -28.7543  -12.2692   21.4581 H   0  0  0  0  0  0
  -28.3713  -13.9397   21.7857 H   0  0  0  0  0  0
  -25.2764   -9.5707   22.4743 H   0  0  0  0  0  0
  -24.0028   -7.4646   22.7437 H   0  0  0  0  0  0
  -21.0861   -8.8789   19.8915 H   0  0  0  0  0  0
  -22.3710  -10.9692   19.6173 H   0  0  0  0  0  0
  -21.1986   -7.6158   23.9722 H   0  0  0  0  0  0
  -21.1497   -6.0520   25.9080 H   0  0  0  0  0  0
  -22.0583   -2.7625   23.2805 H   0  0  0  0  0  0
  -22.4047  -11.9826   22.4825 H   0  0  0  0  0  0
  -21.1077  -13.1204   22.2672 H   0  0  0  0  0  0
  -24.6410  -15.8458   20.5054 H   0  0  0  0  0  0
  -26.2495  -15.6289   20.0376 H   0  0  0  0  0  0
  -26.7270  -32.5339   23.1019 H   0  0  0  0  0  0
  -25.0180  -33.9639   25.0391 H   0  0  0  0  0  0
  -22.7513  -31.2941   21.3796 H   0  0  0  0  0  0
  -23.3743  -35.9578   23.3302 H   0  0  0  0  0  0
  -24.3553  -36.8889   22.2048 H   0  0  0  0  0  0
  -23.7235  -37.6434   23.6689 H   0  0  0  0  0  0
  -26.1570  -31.4639   20.6172 H   0  0  0  0  0  0
  -26.8775  -30.7754   22.0349 H   0  0  0  0  0  0
  -28.1308  -28.7685   21.2627 H   0  0  0  0  0  0
  -25.9339  -25.8949   18.9398 H   0  0  0  0  0  0
  -23.9880  -27.3278   18.9508 H   0  0  0  0  0  0
  -23.8190  -30.5745   19.4002 H   0  0  0  0  0  0
  -22.7947  -29.2435   19.8395 H   0  0  0  0  0  0
  -25.1308  -36.1837   25.0782 H   0  0  0  0  0  0
  -21.0010  -28.3331   24.1365 H   0  0  0  0  0  0
  -20.5724  -26.2317   23.3620 H   0  0  0  0  0  0
  -21.6647  -26.7474   22.1177 H   0  0  0  0  0  0
  -19.6915  -25.6295   21.1272 H   0  0  0  0  0  0
  -19.6726  -27.3179   20.6745 H   0  0  0  0  0  0
  -17.4208  -26.6712   21.4023 H   0  0  0  0  0  0
  -18.0340  -26.0115   22.9028 H   0  0  0  0  0  0
  -19.7936  -30.7329   24.2237 H   0  0  0  0  0  0
  -17.5013  -31.6290   24.5176 H   0  0  0  0  0  0
  -15.5358  -30.3017   23.7688 H   0  0  0  0  0  0
  -15.8671  -28.0855   22.7110 H   0  0  0  0  0  0
  -24.5885  -30.7176   25.7733 H   0  0  0  0  0  0
  -24.8938  -32.2989   26.4824 H   0  0  0  0  0  0
  -25.7979  -30.8970   27.0244 H   0  0  0  0  0  0
  -26.3038  -29.6731   24.1314 H   0  0  0  0  0  0
  -27.3932  -29.7299   25.4968 H   0  0  0  0  0  0
  -27.8984  -30.4206   23.9740 H   0  0  0  0  0  0
  -27.2587  -33.3709   26.2059 H   0  0  0  0  0  0
  -28.3883  -32.6962   25.0420 H   0  0  0  0  0  0
  -28.0676  -31.8603   26.5544 H   0  0  0  0  0  0
  -28.2556  -38.0088   24.7486 H   0  0  0  0  0  0
  -28.1060  -36.2606   24.6307 H   0  0  0  0  0  0
  -27.2267  -37.1446   25.8859 H   0  0  0  0  0  0
  -20.9420  -29.8765   21.6785 H   0  0  0  0  0  0
  -26.0123  -38.2794   24.1465 H   0  0  0  0  0  0
  -28.7782  -20.1515   18.1735 H   0  0  0  0  0  0
  -27.1060  -20.5550   18.3837 H   0  0  0  0  0  0
  -27.8443  -21.9163   16.5324 H   0  0  0  0  0  0
  -29.4165  -22.1567   17.2588 H   0  0  0  0  0  0
  -29.6212  -23.3603   19.4937 H   0  0  0  0  0  0
  -27.4347  -21.4031   20.4745 H   0  0  0  0  0  0
  -29.4726  -24.7169   17.5201 H   0  0  0  0  0  0
  -27.9183  -25.5050   17.7373 H   0  0  0  0  0  0
  -28.1942  -24.4814   16.3443 H   0  0  0  0  0  0
  -24.5198  -23.5643   17.0202 H   0  0  0  0  0  0
  -25.9421  -23.1739   16.0670 H   0  0  0  0  0  0
  -25.7325  -24.7942   16.7271 H   0  0  0  0  0  0
  -28.5193  -24.4822   21.4665 H   0  0  0  0  0  0
  -26.9844  -24.4730   20.7602 H   0  0  0  0  0  0
  -25.8954  -23.8918   19.0468 H   0  0  0  0  0  0
  -25.9373  -22.3204   18.4813 H   0  0  0  0  0  0
  -30.8289  -17.8186   21.3989 H   0  0  0  0  0  0
  -30.7391  -17.7527   19.6749 H   0  0  0  0  0  0
  -28.4202  -18.7945   21.4837 H   0  0  0  0  0  0
  -28.3146  -18.6896   19.7786 H   0  0  0  0  0  0
  -28.8039  -15.9132   20.8673 H   0  0  0  0  0  0
  -29.6217  -20.7567   21.4324 H   0  0  0  0  0  0
  -30.2265  -20.5464   19.9615 H   0  0  0  0  0  0
  1 25  1  0  0  0
  1 30  2  0  0  0
  1 82  1  0  0  0
  2  3  1  0  0  0
  2 25  1  0  0  0
  2 84  1  0  0  0
  2 85  1  0  0  0
  3  4  1  0  0  0
  3 86  1  0  0  0
  3 87  1  0  0  0
  4  5  1  0  0  0
  4 88  1  0  0  0
  4 89  1  0  0  0
  5  6  1  0  0  0
  5 26  1  0  0  0
  5 90  1  0  0  0
  6 25  1  0  0  0
  6 91  1  0  0  0
  6 92  1  0  0  0
  7  8  2  0  0  0
  7 26  1  0  0  0
  7 29  1  0  0  0
  8  9  1  0  0  0
  8 22  1  0  0  0
  9 10  1  0  0  0
  9 27  2  0  0  0
 10 11  2  0  0  0
 10 15  1  0  0  0
 11 12  1  0  0  0
 11 93  1  0  0  0
 12 13  2  0  0  0
 12 94  1  0  0  0
 13 14  1  0  0  0
 13 31  1  0  0  0
 14 15  2  0  0  0
 14 95  1  0  0  0
 15 96  1  0  0  0
 16 17  2  0  0  0
 16 21  1  0  0  0
 16 31  1  0  0  0
 17 18  1  0  0  0
 17 97  1  0  0  0
 18 19  2  0  0  0
 18 98  1  0  0  0
 19 20  1  0  0  0
 19 24  1  0  0  0
 20 21  2  0  0  0
 20 99  1  0  0  0
 21 23  1  0  0  0
 22 28  1  0  0  0
 22 32  2  0  0  0
 26 27  1  0  0  0
 28100  1  0  0  0
 28101  1  0  0  0
 29102  1  0  0  0
 29103  1  0  0  0
 33 34  1  0  0  0
 33 66  1  0  0  0
 33 70  2  0  0  0
 34 36  1  0  0  0
 34 59  1  0  0  0
 34104  1  0  0  0
 35 44  2  0  0  0
 35 45  1  0  0  0
 35 68  1  0  0  0
 36 56  1  0  0  0
 36105  1  0  0  0
 37 39  1  0  0  0
 37 47  1  0  0  0
 37 66  1  0  0  0
 37106  1  0  0  0
 38 43  2  0  0  0
 38 46  1  0  0  0
 38 47  1  0  0  0
 39 64  1  0  0  0
 39 67  2  0  0  0
 40 52  1  0  0  0
 40 53  2  0  0  0
 40 58  1  0  0  0
 41107  1  0  0  0
 41108  1  0  0  0
 41109  1  0  0  0
 41 48  1  0  0  0
 42 43  1  0  0  0
 42 66  1  0  0  0
 42110  1  0  0  0
 42111  1  0  0  0
 43 44  1  0  0  0
 44112  1  0  0  0
 45 46  2  0  0  0
 45113  1  0  0  0
 46114  1  0  0  0
 47115  1  0  0  0
 47116  1  0  0  0
 48 56  1  0  0  0
 48 65  1  0  0  0
 48117  1  0  0  0
 49 50  1  0  0  0
 49 53  1  0  0  0
 49 64  1  0  0  0
 49118  1  0  0  0
 50 51  1  0  0  0
 50119  1  0  0  0
 50120  1  0  0  0
 51 52  1  0  0  0
 51121  1  0  0  0
 51122  1  0  0  0
 52123  1  0  0  0
 52124  1  0  0  0
 53 54  1  0  0  0
 54 55  2  0  0  0
 54125  1  0  0  0
 55 57  1  0  0  0
 55126  1  0  0  0
 56 69  2  0  0  0
 57 58  2  0  0  0
 57127  1  0  0  0
 58128  1  0  0  0
 59 60  1  0  0  0
 59 61  1  0  0  0
 59 62  1  0  0  0
 60129  1  0  0  0
 60130  1  0  0  0
 60131  1  0  0  0
 61132  1  0  0  0
 61133  1  0  0  0
 61134  1  0  0  0
 62135  1  0  0  0
 62136  1  0  0  0
 62137  1  0  0  0
 63 65  1  0  0  0
 63138  1  0  0  0
 63139  1  0  0  0
 63140  1  0  0  0
 64141  1  0  0  0
 65142  1  0  0  0
 68 78  1  0  0  0
 71 72  1  0  0  0
 71 74  1  0  0  0
 71143  1  0  0  0
 71144  1  0  0  0
 72 75  1  0  0  0
 72145  1  0  0  0
 72146  1  0  0  0
 73 74  1  0  0  0
 73 75  1  0  0  0
 73 78  1  0  0  0
 73147  1  0  0  0
 74 83  1  0  0  0
 74148  1  0  0  0
 75 76  1  0  0  0
 75 79  1  0  0  0
 76149  1  0  0  0
 76150  1  0  0  0
 76151  1  0  0  0
 77 79  1  0  0  0
 77152  1  0  0  0
 77153  1  0  0  0
 77154  1  0  0  0
 78155  1  0  0  0
 78156  1  0  0  0
 79157  1  0  0  0
 79158  1  0  0  0
 80 81  1  0  0  0
 80 82  1  0  0  0
 80159  1  0  0  0
 80160  1  0  0  0
 81 83  1  0  0  0
 81161  1  0  0  0
 81162  1  0  0  0
 82163  1  0  0  0
 83164  1  0  0  0
 83165  1  0  0  0
M  CHG  1  83   1
M  ISO  4   1 100  68 101  78 101  82 100
M  END
> <chiral flag>
0

> <version>
0

> <s_m_source_file>
/data/baiqing/PycharmProjects/Reinvent-master-3.2/result/LINK_invent/BTK/process_docking_weight1_custom_sum_contain_oxygen_bond_distance_aromatic_linkinvent_7_9_3/rearranged_h_0123.sdf

> <i_m_source_file_index>
49

> <r_mmod_Potential_Energy-OPLS-2005>
502.102691650391

> <r_mmod_Stretch_Energy-OPLS-2005>
306.983062744141

> <r_mmod_Bend_Energy-OPLS-2005>
343.190704345703

> <r_mmod_Torsional_Energy-OPLS-2005>
299.686248779297

> <r_mmod_Improper_Torsional_Energy-OPLS-2005>
4.23613691329956

> <r_mmod_Van_der_Waal_Energy-OPLS-2005>
128.72444152832

> <r_mmod_Electrostatic_Energy-OPLS-2005>
-283.508636474609

> <r_mmod_Solvation_Energy-OPLS-2005>
-483.965942382812

> <b_mmod_Minimization_Converged-OPLS-2005>
0

> <r_mmod_RMS_Derivative-OPLS-2005>
2.99774146080017

$$$$
49
                    3D
 Structure written by MMmdl.
176185  0  0  1  0            999 V2000
  -30.7633  -14.3529   20.6921 C   0  0  0  0  0  0
  -30.4200  -12.2807   19.3997 C   0  0  0  0  0  0
  -29.4926  -12.5177   18.1934 C   0  0  0  0  0  0
  -28.0144  -12.3784   18.6043 C   0  0  0  0  0  0
  -27.6671  -13.1968   19.8774 C   0  0  2  0  0  0
  -28.7000  -12.9321   20.9940 C   0  0  0  0  0  0
  -25.2605  -13.8130   20.5656 C   0  0  0  0  0  0
  -24.1845  -13.0410   20.9147 C   0  0  0  0  0  0
  -24.6384  -11.6869   20.8701 C   0  0  0  0  0  0
  -23.9033  -10.4270   21.0377 C   0  0  0  0  0  0
  -24.3593   -9.4215   21.9172 C   0  0  0  0  0  0
  -23.6299   -8.2232   22.0750 C   0  0  0  0  0  0
  -22.4283   -8.0246   21.3525 C   0  0  0  0  0  0
  -21.9896   -9.0215   20.4632 C   0  0  0  0  0  0
  -22.7197  -10.2112   20.3045 C   0  0  0  0  0  0
  -21.6854   -6.0719   22.5283 C   0  0  0  0  0  0
  -21.4000   -6.5631   23.8211 C   0  0  0  0  0  0
  -21.3674   -5.6781   24.9179 C   0  0  0  0  0  0
  -21.6072   -4.3048   24.7216 C   0  0  0  0  0  0
  -21.8822   -3.8136   23.4337 C   0  0  0  0  0  0
  -21.9193   -4.6951   22.3399 C   0  0  0  0  0  0
  -22.7878  -13.5217   21.1827 C   0  0  0  0  0  0
  -22.1666   -4.2142   21.0970 F   0  0  0  0  0  0
  -21.5649   -3.4533   25.7731 F   0  0  0  0  0  0
  -30.0477  -13.2241   20.4635 N   0  0  0  0  0  0
  -26.3041  -12.9280   20.3341 N   0  0  0  0  0  0
  -25.9303  -11.6439   20.5706 N   0  0  0  0  0  0
  -22.0518  -12.8217   22.0379 N   0  0  0  0  0  0
  -25.4326  -15.1859   20.4092 N   0  0  0  0  0  0
  -31.7890  -14.6536   20.0754 O   0  0  0  0  0  0
  -21.6646   -6.8852   21.4228 O   0  0  0  0  0  0
  -22.3554  -14.5520   20.6684 O   0  0  0  0  0  0
  -24.6066  -31.8711   23.2120 C   0  0  0  0  0  0
  -25.8982  -32.4842   23.8399 C   0  0  1  0  0  0
  -27.2505  -27.4889   20.1002 C   0  0  0  0  0  0
  -25.5859  -33.8640   24.2340 N   0  0  0  0  0  0
  -23.3929  -30.4911   21.5494 C   0  0  2  0  0  0
  -24.8439  -28.9581   20.1139 C   0  0  0  0  0  0
  -22.7368  -29.4661   22.5006 C   0  0  0  0  0  0
  -18.0261  -28.1384   22.8491 C   0  0  0  0  0  0
  -24.1483  -36.7329   23.2638 C   0  0  0  0  0  0
  -25.9116  -30.8529   21.3555 C   0  0  0  0  0  0
  -25.9912  -29.4857   20.7159 C   0  0  0  0  0  0
  -27.1894  -28.7503   20.7198 C   0  0  0  0  0  0
  -26.0904  -26.9574   19.4911 C   0  0  0  0  0  0
  -24.8845  -27.6898   19.5028 C   0  0  0  0  0  0
  -23.5998  -29.8161   20.1641 C   0  0  0  0  0  0
  -25.4104  -36.3129   24.0342 C   0  0  1  0  0  0
  -20.5844  -28.3656   23.1335 C   0  0  2  0  0  0
  -20.6752  -26.9399   22.5425 C   0  0  0  0  0  0
  -19.5737  -26.6389   21.5214 C   0  0  0  0  0  0
  -18.1912  -26.7930   22.1620 C   0  0  0  0  0  0
  -19.1510  -28.8835   23.2909 C   0  0  0  0  0  0
  -18.9447  -30.1446   23.8916 C   0  0  0  0  0  0
  -17.6449  -30.6588   24.0571 C   0  0  0  0  0  0
  -25.9018  -34.9488   23.5143 C   0  0  0  0  0  0
  -16.5339  -29.9093   23.6327 C   0  0  0  0  0  0
  -16.7252  -28.6513   23.0343 C   0  0  0  0  0  0
  -26.4443  -31.6604   25.0705 C   0  0  0  0  0  0
  -25.3734  -31.3683   26.1470 C   0  0  0  0  0  0
  -27.0271  -30.3061   24.6025 C   0  0  0  0  0  0
  -27.6027  -32.4315   25.7460 C   0  0  0  0  0  0
  -27.5583  -37.1818   24.8465 C   0  0  0  0  0  0
  -21.4106  -29.3020   22.3745 N   0  0  0  0  0  0
  -26.4300  -37.3805   23.9405 N   0  0  0  0  0  0
  -24.6547  -31.0853   22.0990 N   0  0  0  0  0  0
  -23.4167  -28.8221   23.3040 O   0  0  0  0  0  0
  -28.4602  -26.8458   20.1565 O   0  0  0  0  0  0
  -26.5592  -34.8932   22.4712 O   0  0  0  0  0  0
  -23.5274  -32.1437   23.7548 O   0  0  0  0  0  0
  -28.3266  -20.3266   23.4524 C   0  0  0  0  0  0
  -28.7510  -21.6688   23.4193 C   0  0  0  0  0  0
  -29.0708  -19.3305   22.7911 C   0  0  0  0  0  0
  -30.7039  -20.9989   22.1178 C   0  0  0  0  0  0
  -29.9380  -22.0077   22.7397 C   0  0  0  0  0  0
  -30.2622  -19.6629   22.1042 C   0  0  0  0  0  0
  -30.7247  -24.9444   16.8824 C   0  0  0  0  0  0
  -30.7620  -24.4785   18.3508 C   0  0  0  0  0  0
  -31.5172  -26.2471   16.6789 C   0  0  0  0  0  0
  -31.1206  -26.8833   19.0325 C   0  0  0  0  0  0
  -30.3095  -25.5839   19.3437 C   0  0  2  0  0  0
  -30.3711  -23.4541   22.6024 C   0  0  0  0  0  0
  -30.6641  -25.1611   20.8072 C   0  0  0  0  0  0
  -28.7804  -25.8496   19.2098 C   0  0  0  0  0  0
  -30.8218  -16.4328   22.0515 C   0  0  0  0  0  0
  -30.4588  -17.5167   21.0214 C   0  0  0  0  0  0
  -30.2816  -15.1360   21.6625 N   0  0  0  0  0  0
  -31.0546  -27.2954   17.6109 N   0  3  0  0  0  0
  -29.9883  -23.9237   21.2585 N   0  3  0  0  0  0
  -31.0272  -18.7687   21.3892 O   0  0  0  0  0  0
  -31.4656  -12.3808   19.1024 H   0  0  0  0  0  0
  -30.3102  -11.2567   19.7619 H   0  0  0  0  0  0
  -29.7281  -11.8090   17.3981 H   0  0  0  0  0  0
  -29.6715  -13.5112   17.7793 H   0  0  0  0  0  0
  -27.8145  -11.3198   18.7819 H   0  0  0  0  0  0
  -27.3695  -12.6753   17.7762 H   0  0  0  0  0  0
  -27.7268  -14.2516   19.6124 H   0  0  0  0  0  0
  -28.6551  -11.8873   21.3032 H   0  0  0  0  0  0
  -28.4383  -13.4991   21.8873 H   0  0  0  0  0  0
  -25.2732   -9.5723   22.4746 H   0  0  0  0  0  0
  -24.0038   -7.4628   22.7467 H   0  0  0  0  0  0
  -21.0844   -8.8684   19.8937 H   0  0  0  0  0  0
  -22.3620  -10.9634   19.6159 H   0  0  0  0  0  0
  -21.1964   -7.6140   23.9701 H   0  0  0  0  0  0
  -21.1520   -6.0522   25.9088 H   0  0  0  0  0  0
  -22.0599   -2.7598   23.2834 H   0  0  0  0  0  0
  -22.4108  -11.9879   22.4795 H   0  0  0  0  0  0
  -21.1126  -13.1245   22.2528 H   0  0  0  0  0  0
  -24.6690  -15.8426   20.5290 H   0  0  0  0  0  0
  -26.2927  -15.6270   20.1089 H   0  0  0  0  0  0
  -26.7065  -32.5582   23.1180 H   0  0  0  0  0  0
  -25.0006  -33.9813   25.0482 H   0  0  0  0  0  0
  -22.6786  -31.3047   21.4083 H   0  0  0  0  0  0
  -23.3741  -35.9667   23.3317 H   0  0  0  0  0  0
  -24.3577  -36.8929   22.2049 H   0  0  0  0  0  0
  -23.7241  -37.6542   23.6644 H   0  0  0  0  0  0
  -26.0061  -31.6130   20.5780 H   0  0  0  0  0  0
  -26.8056  -30.9205   21.9629 H   0  0  0  0  0  0
  -28.0747  -29.1545   21.1903 H   0  0  0  0  0  0
  -26.1032  -25.9849   19.0203 H   0  0  0  0  0  0
  -24.0009  -27.2756   19.0367 H   0  0  0  0  0  0
  -23.6987  -30.5862   19.3980 H   0  0  0  0  0  0
  -22.7284  -29.2256   19.8755 H   0  0  0  0  0  0
  -25.1282  -36.2005   25.0837 H   0  0  0  0  0  0
  -20.9935  -28.3226   24.1452 H   0  0  0  0  0  0
  -20.5656  -26.2266   23.3608 H   0  0  0  0  0  0
  -21.6627  -26.7453   22.1216 H   0  0  0  0  0  0
  -19.6901  -25.6305   21.1231 H   0  0  0  0  0  0
  -19.6685  -27.3212   20.6756 H   0  0  0  0  0  0
  -17.4187  -26.6683   21.4016 H   0  0  0  0  0  0
  -18.0309  -26.0067   22.9009 H   0  0  0  0  0  0
  -19.7926  -30.7255   24.2291 H   0  0  0  0  0  0
  -17.5010  -31.6269   24.5172 H   0  0  0  0  0  0
  -15.5342  -30.3006   23.7648 H   0  0  0  0  0  0
  -15.8646  -28.0843   22.7043 H   0  0  0  0  0  0
  -24.5880  -30.7067   25.7803 H   0  0  0  0  0  0
  -24.8955  -32.2835   26.4973 H   0  0  0  0  0  0
  -25.8096  -30.8803   27.0195 H   0  0  0  0  0  0
  -26.2799  -29.6828   24.1103 H   0  0  0  0  0  0
  -27.4105  -29.7280   25.4442 H   0  0  0  0  0  0
  -27.8595  -30.4411   23.9116 H   0  0  0  0  0  0
  -27.2646  -33.3586   26.2094 H   0  0  0  0  0  0
  -28.3797  -32.6925   25.0266 H   0  0  0  0  0  0
  -28.0742  -31.8414   26.5326 H   0  0  0  0  0  0
  -28.2610  -38.0105   24.7511 H   0  0  0  0  0  0
  -28.1070  -36.2642   24.6296 H   0  0  0  0  0  0
  -27.2301  -37.1473   25.8867 H   0  0  0  0  0  0
  -20.9266  -29.8727   21.6955 H   0  0  0  0  0  0
  -26.0196  -38.2889   24.1399 H   0  0  0  0  0  0
  -27.4202  -20.0537   23.9737 H   0  0  0  0  0  0
  -28.1549  -22.4296   23.9052 H   0  0  0  0  0  0
  -28.6986  -18.3176   22.8239 H   0  0  0  0  0  0
  -31.6200  -21.2561   21.6028 H   0  0  0  0  0  0
  -29.6952  -25.0838   16.5519 H   0  0  0  0  0  0
  -31.1370  -24.1651   16.2414 H   0  0  0  0  0  0
  -31.7817  -24.1689   18.5881 H   0  0  0  0  0  0
  -30.1423  -23.5862   18.4550 H   0  0  0  0  0  0
  -31.4109  -26.6002   15.6527 H   0  0  0  0  0  0
  -32.5815  -26.0698   16.8396 H   0  0  0  0  0  0
  -32.1736  -26.7299   19.2793 H   0  0  0  0  0  0
  -30.7881  -27.7150   19.6571 H   0  0  0  0  0  0
  -31.4520  -23.5126   22.7480 H   0  0  0  0  0  0
  -29.9122  -24.0758   23.3722 H   0  0  0  0  0  0
  -30.4335  -25.9673   21.5076 H   0  0  0  0  0  0
  -31.7413  -25.0033   20.8895 H   0  0  0  0  0  0
  -28.1990  -24.9483   19.4055 H   0  0  0  0  0  0
  -28.5184  -26.1920   18.2086 H   0  0  0  0  0  0
  -30.4274  -16.6937   23.0341 H   0  0  0  0  0  0
  -31.9065  -16.3649   22.1643 H   0  0  0  0  0  0
  -29.3813  -17.5794   20.8595 H   0  0  0  0  0  0
  -30.8749  -17.2565   20.0493 H   0  0  0  0  0  0
  -29.4490  -14.8174   22.1361 H   0  0  0  0  0  0
  -30.1179  -27.5762   17.3705 H   0  0  0  0  0  0
  -31.6377  -28.1087   17.4893 H   0  0  0  0  0  0
  -28.9878  -24.0433   21.2563 H   0  0  0  0  0  0
  -30.2140  -23.1764   20.6240 H   0  0  0  0  0  0
  1 25  1  0  0  0
  1 30  2  0  0  0
  1 87  1  0  0  0
  2  3  1  0  0  0
  2 25  1  0  0  0
  2 91  1  0  0  0
  2 92  1  0  0  0
  3  4  1  0  0  0
  3 93  1  0  0  0
  3 94  1  0  0  0
  4  5  1  0  0  0
  4 95  1  0  0  0
  4 96  1  0  0  0
  5  6  1  0  0  0
  5 26  1  0  0  0
  5 97  1  0  0  0
  6 25  1  0  0  0
  6 98  1  0  0  0
  6 99  1  0  0  0
  7  8  2  0  0  0
  7 26  1  0  0  0
  7 29  1  0  0  0
  8  9  1  0  0  0
  8 22  1  0  0  0
  9 10  1  0  0  0
  9 27  2  0  0  0
 10 11  2  0  0  0
 10 15  1  0  0  0
 11 12  1  0  0  0
 11100  1  0  0  0
 12 13  2  0  0  0
 12101  1  0  0  0
 13 14  1  0  0  0
 13 31  1  0  0  0
 14 15  2  0  0  0
 14102  1  0  0  0
 15103  1  0  0  0
 16 17  2  0  0  0
 16 21  1  0  0  0
 16 31  1  0  0  0
 17 18  1  0  0  0
 17104  1  0  0  0
 18 19  2  0  0  0
 18105  1  0  0  0
 19 20  1  0  0  0
 19 24  1  0  0  0
 20 21  2  0  0  0
 20106  1  0  0  0
 21 23  1  0  0  0
 22 28  1  0  0  0
 22 32  2  0  0  0
 26 27  1  0  0  0
 28107  1  0  0  0
 28108  1  0  0  0
 29109  1  0  0  0
 29110  1  0  0  0
 33 34  1  0  0  0
 33 66  1  0  0  0
 33 70  2  0  0  0
 34 36  1  0  0  0
 34 59  1  0  0  0
 34111  1  0  0  0
 35 44  2  0  0  0
 35 45  1  0  0  0
 35 68  1  0  0  0
 36 56  1  0  0  0
 36112  1  0  0  0
 37 39  1  0  0  0
 37 47  1  0  0  0
 37 66  1  0  0  0
 37113  1  0  0  0
 38 43  2  0  0  0
 38 46  1  0  0  0
 38 47  1  0  0  0
 39 64  1  0  0  0
 39 67  2  0  0  0
 40 52  1  0  0  0
 40 53  2  0  0  0
 40 58  1  0  0  0
 41114  1  0  0  0
 41115  1  0  0  0
 41116  1  0  0  0
 41 48  1  0  0  0
 42 43  1  0  0  0
 42 66  1  0  0  0
 42117  1  0  0  0
 42118  1  0  0  0
 43 44  1  0  0  0
 44119  1  0  0  0
 45 46  2  0  0  0
 45120  1  0  0  0
 46121  1  0  0  0
 47122  1  0  0  0
 47123  1  0  0  0
 48 56  1  0  0  0
 48 65  1  0  0  0
 48124  1  0  0  0
 49 50  1  0  0  0
 49 53  1  0  0  0
 49 64  1  0  0  0
 49125  1  0  0  0
 50 51  1  0  0  0
 50126  1  0  0  0
 50127  1  0  0  0
 51 52  1  0  0  0
 51128  1  0  0  0
 51129  1  0  0  0
 52130  1  0  0  0
 52131  1  0  0  0
 53 54  1  0  0  0
 54 55  2  0  0  0
 54132  1  0  0  0
 55 57  1  0  0  0
 55133  1  0  0  0
 56 69  2  0  0  0
 57 58  2  0  0  0
 57134  1  0  0  0
 58135  1  0  0  0
 59 60  1  0  0  0
 59 61  1  0  0  0
 59 62  1  0  0  0
 60136  1  0  0  0
 60137  1  0  0  0
 60138  1  0  0  0
 61139  1  0  0  0
 61140  1  0  0  0
 61141  1  0  0  0
 62142  1  0  0  0
 62143  1  0  0  0
 62144  1  0  0  0
 63 65  1  0  0  0
 63145  1  0  0  0
 63146  1  0  0  0
 63147  1  0  0  0
 64148  1  0  0  0
 65149  1  0  0  0
 68 84  1  0  0  0
 71 72  2  0  0  0
 71 73  1  0  0  0
 71150  1  0  0  0
 72 75  1  0  0  0
 72151  1  0  0  0
 73 76  2  0  0  0
 73152  1  0  0  0
 74 75  2  0  0  0
 74 76  1  0  0  0
 74153  1  0  0  0
 75 82  1  0  0  0
 76 90  1  0  0  0
 77 78  1  0  0  0
 77 79  1  0  0  0
 77154  1  0  0  0
 77155  1  0  0  0
 78 81  1  0  0  0
 78156  1  0  0  0
 78157  1  0  0  0
 79 88  1  0  0  0
 79158  1  0  0  0
 79159  1  0  0  0
 80 81  1  0  0  0
 80 88  1  0  0  0
 80160  1  0  0  0
 80161  1  0  0  0
 81 83  1  0  0  0
 81 84  1  0  0  0
 82 89  1  0  0  0
 82162  1  0  0  0
 82163  1  0  0  0
 83 89  1  0  0  0
 83164  1  0  0  0
 83165  1  0  0  0
 84166  1  0  0  0
 84167  1  0  0  0
 85 86  1  0  0  0
 85 87  1  0  0  0
 85168  1  0  0  0
 85169  1  0  0  0
 86 90  1  0  0  0
 86170  1  0  0  0
 86171  1  0  0  0
 87172  1  0  0  0
 88173  1  0  0  0
 88174  1  0  0  0
 89175  1  0  0  0
 89176  1  0  0  0
M  CHG  2  88   1  89   1
M  ISO  4   1 100  68 101  84 101  87 100
M  END
> <chiral flag>
0

> <version>
0

> <s_m_source_file>
/data/baiqing/PycharmProjects/Reinvent-master-3.2/result/LINK_invent/BTK/process_docking_weight1_custom_sum_contain_oxygen_bond_distance_aromatic_linkinvent_7_9_3/rearranged_h_0123.sdf

> <i_m_source_file_index>
50

> <r_mmod_Potential_Energy-OPLS-2005>
-453.808380126953

> <r_mmod_Stretch_Energy-OPLS-2005>
35.3969345092773

> <r_mmod_Bend_Energy-OPLS-2005>
111.625106811523

> <r_mmod_Torsional_Energy-OPLS-2005>
242.357360839844

> <r_mmod_Improper_Torsional_Energy-OPLS-2005>
1.79325556755066

> <r_mmod_Van_der_Waal_Energy-OPLS-2005>
162.49169921875

> <r_mmod_Electrostatic_Energy-OPLS-2005>
-56.6815795898438

> <r_mmod_Solvation_Energy-OPLS-2005>
-960.177612304688

> <b_mmod_Minimization_Converged-OPLS-2005>
0

> <r_mmod_RMS_Derivative-OPLS-2005>
2.55374789237976

$$$$
50
                    3D
 Structure written by MMmdl.
163171  0  0  1  0            999 V2000
  -30.6784  -14.5735   20.5844 C   0  0  0  0  0  0
  -30.4207  -12.3804   19.4456 C   0  0  0  0  0  0
  -29.4946  -12.5185   18.2196 C   0  0  0  0  0  0
  -28.0201  -12.3574   18.6324 C   0  0  0  0  0  0
  -27.6489  -13.2207   19.8673 C   0  0  2  0  0  0
  -28.6882  -13.0635   20.9989 C   0  0  0  0  0  0
  -25.2512  -13.8161   20.5705 C   0  0  0  0  0  0
  -24.1791  -13.0410   20.9216 C   0  0  0  0  0  0
  -24.6377  -11.6896   20.8743 C   0  0  0  0  0  0
  -23.9049  -10.4264   21.0398 C   0  0  0  0  0  0
  -24.3609   -9.4181   21.9179 C   0  0  0  0  0  0
  -23.6284   -8.2222   22.0746 C   0  0  0  0  0  0
  -22.4266   -8.0263   21.3533 C   0  0  0  0  0  0
  -21.9898   -9.0228   20.4633 C   0  0  0  0  0  0
  -22.7223  -10.2111   20.3041 C   0  0  0  0  0  0
  -21.6839   -6.0723   22.5281 C   0  0  0  0  0  0
  -21.4003   -6.5626   23.8213 C   0  0  0  0  0  0
  -21.3663   -5.6783   24.9182 C   0  0  0  0  0  0
  -21.6063   -4.3046   24.7232 C   0  0  0  0  0  0
  -21.8809   -3.8134   23.4347 C   0  0  0  0  0  0
  -21.9184   -4.6953   22.3404 C   0  0  0  0  0  0
  -22.7817  -13.5208   21.1881 C   0  0  0  0  0  0
  -22.1657   -4.2141   21.0981 F   0  0  0  0  0  0
  -21.5637   -3.4534   25.7744 F   0  0  0  0  0  0
  -30.0095  -13.3899   20.4419 N   0  0  0  0  0  0
  -26.2955  -12.9366   20.3345 N   0  0  0  0  0  0
  -25.9304  -11.6512   20.5755 N   0  0  0  0  0  0
  -22.0470  -12.8189   22.0431 N   0  0  0  0  0  0
  -25.4162  -15.1888   20.4149 N   0  0  0  0  0  0
  -31.7992  -14.7476   20.0997 O   0  0  0  0  0  0
  -21.6619   -6.8870   21.4244 O   0  0  0  0  0  0
  -22.3491  -14.5506   20.6733 O   0  0  0  0  0  0
  -24.6221  -31.8621   23.2056 C   0  0  0  0  0  0
  -25.9083  -32.4789   23.8369 C   0  0  1  0  0  0
  -27.2190  -27.3391   20.1347 C   0  0  0  0  0  0
  -25.5907  -33.8587   24.2286 N   0  0  0  0  0  0
  -23.4140  -30.4876   21.5465 C   0  0  2  0  0  0
  -24.8622  -28.9446   20.1083 C   0  0  0  0  0  0
  -22.7465  -29.4636   22.4951 C   0  0  0  0  0  0
  -18.0298  -28.1336   22.8564 C   0  0  0  0  0  0
  -24.1489  -36.7304   23.2636 C   0  0  0  0  0  0
  -25.9521  -30.8007   21.3727 C   0  0  0  0  0  0
  -26.0265  -29.4294   20.7187 C   0  0  0  0  0  0
  -27.2082  -28.6372   20.7213 C   0  0  0  0  0  0
  -26.0438  -26.9109   19.4782 C   0  0  0  0  0  0
  -24.8720  -27.6905   19.4767 C   0  0  0  0  0  0
  -23.6270  -29.8189   20.1616 C   0  0  0  0  0  0
  -25.4109  -36.3084   24.0325 C   0  0  1  0  0  0
  -20.5917  -28.3651   23.1303 C   0  0  2  0  0  0
  -20.6825  -26.9403   22.5335 C   0  0  0  0  0  0
  -19.5718  -26.6424   21.5216 C   0  0  0  0  0  0
  -18.1960  -26.7829   22.1800 C   0  0  0  0  0  0
  -19.1570  -28.8817   23.2917 C   0  0  0  0  0  0
  -18.9510  -30.1439   23.8891 C   0  0  0  0  0  0
  -17.6516  -30.6609   24.0519 C   0  0  0  0  0  0
  -25.9034  -34.9453   23.5105 C   0  0  0  0  0  0
  -16.5395  -29.9103   23.6334 C   0  0  0  0  0  0
  -16.7298  -28.6477   23.0446 C   0  0  0  0  0  0
  -26.4474  -31.6593   25.0732 C   0  0  0  0  0  0
  -25.3721  -31.3722   26.1469 C   0  0  0  0  0  0
  -27.0313  -30.3017   24.6167 C   0  0  0  0  0  0
  -27.6029  -32.4330   25.7500 C   0  0  0  0  0  0
  -27.5573  -37.1807   24.8461 C   0  0  0  0  0  0
  -21.4183  -29.3064   22.3743 N   0  0  0  0  0  0
  -26.4289  -37.3771   23.9402 N   0  0  0  0  0  0
  -24.6810  -31.0662   22.0987 N   0  0  0  0  0  0
  -23.4219  -28.8140   23.2992 O   0  0  0  0  0  0
  -28.3453  -26.5147   20.1899 O   0  0  0  0  0  0
  -26.5601  -34.8903   22.4666 O   0  0  0  0  0  0
  -23.5394  -32.1418   23.7384 O   0  0  0  0  0  0
  -27.4427  -19.2844   21.5290 C   0  0  0  0  0  0
  -28.4542  -23.0423   22.0267 C   0  0  0  0  0  0
  -29.5432  -22.8665   19.7657 C   0  0  0  0  0  0
  -28.6541  -24.5780   21.7669 C   0  0  0  0  0  0
  -28.8831  -24.2101   19.2869 C   0  0  0  0  0  0
  -28.7221  -22.0784   20.8210 C   0  0  1  0  0  0
  -28.1699  -25.0606   20.3824 C   0  0  1  0  0  0
  -29.7213  -18.1856   21.2069 C   0  0  0  0  0  0
  -29.3210  -16.7367   20.6864 C   0  0  0  0  0  0
  -28.8041  -19.4436   20.8327 C   0  0  2  0  0  0
  -26.4248  -18.8002   20.8309 N   0  0  0  0  0  0
  -30.0778  -15.5836   21.2732 N   0  0  0  0  0  0
  -29.3720  -20.7773   21.2634 N   0  3  0  0  0  0
  -27.3116  -19.6065   22.7102 O   0  0  0  0  0  0
  -31.4640  -12.4940   19.1452 H   0  0  0  0  0  0
  -30.3430  -11.3798   19.8758 H   0  0  0  0  0  0
  -29.7545  -11.7768   17.4630 H   0  0  0  0  0  0
  -29.6437  -13.4944   17.7554 H   0  0  0  0  0  0
  -27.8540  -11.3029   18.8585 H   0  0  0  0  0  0
  -27.3625  -12.5964   17.7943 H   0  0  0  0  0  0
  -27.6688  -14.2607   19.5415 H   0  0  0  0  0  0
  -28.6872  -12.0416   21.3826 H   0  0  0  0  0  0
  -28.4319  -13.7009   21.8467 H   0  0  0  0  0  0
  -25.2755   -9.5669   22.4750 H   0  0  0  0  0  0
  -23.9993   -7.4609   22.7461 H   0  0  0  0  0  0
  -21.0826   -8.8738   19.8934 H   0  0  0  0  0  0
  -22.3673  -10.9647   19.6151 H   0  0  0  0  0  0
  -21.1977   -7.6134   23.9718 H   0  0  0  0  0  0
  -21.1511   -6.0516   25.9089 H   0  0  0  0  0  0
  -22.0584   -2.7599   23.2852 H   0  0  0  0  0  0
  -22.4087  -11.9884   22.4870 H   0  0  0  0  0  0
  -21.1082  -13.1193   22.2573 H   0  0  0  0  0  0
  -24.6466  -15.8379   20.5365 H   0  0  0  0  0  0
  -26.2741  -15.6356   20.1232 H   0  0  0  0  0  0
  -26.7154  -32.5483   23.1125 H   0  0  0  0  0  0
  -25.0068  -33.9732   25.0439 H   0  0  0  0  0  0
  -22.7085  -31.3089   21.4033 H   0  0  0  0  0  0
  -23.3731  -35.9659   23.3300 H   0  0  0  0  0  0
  -24.3589  -36.8923   22.2055 H   0  0  0  0  0  0
  -23.7268  -37.6514   23.6658 H   0  0  0  0  0  0
  -26.0746  -31.5637   20.6031 H   0  0  0  0  0  0
  -26.8356  -30.8537   21.9969 H   0  0  0  0  0  0
  -28.0996  -29.0016   21.2104 H   0  0  0  0  0  0
  -26.0165  -25.9630   18.9624 H   0  0  0  0  0  0
  -23.9836  -27.3202   18.9821 H   0  0  0  0  0  0
  -23.7427  -30.5935   19.4032 H   0  0  0  0  0  0
  -22.7497  -29.2427   19.8592 H   0  0  0  0  0  0
  -25.1293  -36.1930   25.0820 H   0  0  0  0  0  0
  -21.0031  -28.3173   24.1418 H   0  0  0  0  0  0
  -21.6645  -26.7494   22.0982 H   0  0  0  0  0  0
  -20.5804  -26.2235   23.3504 H   0  0  0  0  0  0
  -19.6898  -25.6395   21.1146 H   0  0  0  0  0  0
  -19.6542  -27.3335   20.6808 H   0  0  0  0  0  0
  -17.4118  -26.6408   21.4341 H   0  0  0  0  0  0
  -18.0573  -26.0014   22.9284 H   0  0  0  0  0  0
  -19.8009  -30.7249   24.2238 H   0  0  0  0  0  0
  -17.5103  -31.6326   24.5050 H   0  0  0  0  0  0
  -15.5403  -30.3033   23.7646 H   0  0  0  0  0  0
  -15.8683  -28.0760   22.7287 H   0  0  0  0  0  0
  -24.5882  -30.7078   25.7798 H   0  0  0  0  0  0
  -24.8926  -32.2899   26.4898 H   0  0  0  0  0  0
  -25.8062  -30.8897   27.0239 H   0  0  0  0  0  0
  -26.2884  -29.6775   24.1178 H   0  0  0  0  0  0
  -27.4008  -29.7249   25.4657 H   0  0  0  0  0  0
  -27.8758  -30.4295   23.9383 H   0  0  0  0  0  0
  -27.2616  -33.3610   26.2089 H   0  0  0  0  0  0
  -28.3830  -32.6923   25.0332 H   0  0  0  0  0  0
  -28.0711  -31.8463   26.5412 H   0  0  0  0  0  0
  -28.2583  -38.0104   24.7498 H   0  0  0  0  0  0
  -28.1071  -36.2636   24.6298 H   0  0  0  0  0  0
  -27.2293  -37.1477   25.8862 H   0  0  0  0  0  0
  -20.9309  -29.8887   21.7084 H   0  0  0  0  0  0
  -26.0163  -38.2842   24.1391 H   0  0  0  0  0  0
  -27.4349  -22.8725   22.3814 H   0  0  0  0  0  0
  -29.0889  -22.7734   22.8704 H   0  0  0  0  0  0
  -30.5195  -23.0993   20.1948 H   0  0  0  0  0  0
  -29.7511  -22.2363   18.9007 H   0  0  0  0  0  0
  -29.7129  -24.8266   21.8675 H   0  0  0  0  0  0
  -28.1466  -25.1403   22.5525 H   0  0  0  0  0  0
  -28.1577  -23.9991   18.5010 H   0  0  0  0  0  0
  -29.6557  -24.8122   18.8073 H   0  0  0  0  0  0
  -27.7573  -21.8485   20.3661 H   0  0  0  0  0  0
  -27.1161  -24.7866   20.3650 H   0  0  0  0  0  0
  -30.7330  -18.3887   20.8555 H   0  0  0  0  0  0
  -29.8003  -18.1399   22.2941 H   0  0  0  0  0  0
  -29.3966  -16.7069   19.5980 H   0  0  0  0  0  0
  -28.2711  -16.5532   20.9171 H   0  0  0  0  0  0
  -28.6719  -19.4742   19.7495 H   0  0  0  0  0  0
  -26.5251  -18.5636   19.8535 H   0  0  0  0  0  0
  -25.5242  -18.6882   21.2737 H   0  0  0  0  0  0
  -30.7171  -15.9232   21.9786 H   0  0  0  0  0  0
  -29.2657  -20.7471   22.2660 H   0  0  0  0  0  0
  -30.3535  -20.8090   21.0528 H   0  0  0  0  0  0
  1 25  1  0  0  0
  1 30  2  0  0  0
  1 82  1  0  0  0
  2  3  1  0  0  0
  2 25  1  0  0  0
  2 85  1  0  0  0
  2 86  1  0  0  0
  3  4  1  0  0  0
  3 87  1  0  0  0
  3 88  1  0  0  0
  4  5  1  0  0  0
  4 89  1  0  0  0
  4 90  1  0  0  0
  5  6  1  0  0  0
  5 26  1  0  0  0
  5 91  1  0  0  0
  6 25  1  0  0  0
  6 92  1  0  0  0
  6 93  1  0  0  0
  7  8  2  0  0  0
  7 26  1  0  0  0
  7 29  1  0  0  0
  8  9  1  0  0  0
  8 22  1  0  0  0
  9 10  1  0  0  0
  9 27  2  0  0  0
 10 11  2  0  0  0
 10 15  1  0  0  0
 11 12  1  0  0  0
 11 94  1  0  0  0
 12 13  2  0  0  0
 12 95  1  0  0  0
 13 14  1  0  0  0
 13 31  1  0  0  0
 14 15  2  0  0  0
 14 96  1  0  0  0
 15 97  1  0  0  0
 16 17  2  0  0  0
 16 21  1  0  0  0
 16 31  1  0  0  0
 17 18  1  0  0  0
 17 98  1  0  0  0
 18 19  2  0  0  0
 18 99  1  0  0  0
 19 20  1  0  0  0
 19 24  1  0  0  0
 20 21  2  0  0  0
 20100  1  0  0  0
 21 23  1  0  0  0
 22 28  1  0  0  0
 22 32  2  0  0  0
 26 27  1  0  0  0
 28101  1  0  0  0
 28102  1  0  0  0
 29103  1  0  0  0
 29104  1  0  0  0
 33 34  1  0  0  0
 33 66  1  0  0  0
 33 70  2  0  0  0
 34 36  1  0  0  0
 34 59  1  0  0  0
 34105  1  0  0  0
 35 44  2  0  0  0
 35 45  1  0  0  0
 35 68  1  0  0  0
 36 56  1  0  0  0
 36106  1  0  0  0
 37 39  1  0  0  0
 37 47  1  0  0  0
 37 66  1  0  0  0
 37107  1  0  0  0
 38 43  2  0  0  0
 38 46  1  0  0  0
 38 47  1  0  0  0
 39 64  1  0  0  0
 39 67  2  0  0  0
 40 52  1  0  0  0
 40 53  2  0  0  0
 40 58  1  0  0  0
 41108  1  0  0  0
 41109  1  0  0  0
 41110  1  0  0  0
 41 48  1  0  0  0
 42 43  1  0  0  0
 42 66  1  0  0  0
 42111  1  0  0  0
 42112  1  0  0  0
 43 44  1  0  0  0
 44113  1  0  0  0
 45 46  2  0  0  0
 45114  1  0  0  0
 46115  1  0  0  0
 47116  1  0  0  0
 47117  1  0  0  0
 48 56  1  0  0  0
 48 65  1  0  0  0
 48118  1  0  0  0
 49 50  1  0  0  0
 49 53  1  0  0  0
 49 64  1  0  0  0
 49119  1  0  0  0
 50 51  1  0  0  0
 50120  1  0  0  0
 50121  1  0  0  0
 51 52  1  0  0  0
 51122  1  0  0  0
 51123  1  0  0  0
 52124  1  0  0  0
 52125  1  0  0  0
 53 54  1  0  0  0
 54 55  2  0  0  0
 54126  1  0  0  0
 55 57  1  0  0  0
 55127  1  0  0  0
 56 69  2  0  0  0
 57 58  2  0  0  0
 57128  1  0  0  0
 58129  1  0  0  0
 59 60  1  0  0  0
 59 61  1  0  0  0
 59 62  1  0  0  0
 60130  1  0  0  0
 60131  1  0  0  0
 60132  1  0  0  0
 61133  1  0  0  0
 61134  1  0  0  0
 61135  1  0  0  0
 62136  1  0  0  0
 62137  1  0  0  0
 62138  1  0  0  0
 63 65  1  0  0  0
 63139  1  0  0  0
 63140  1  0  0  0
 63141  1  0  0  0
 64142  1  0  0  0
 65143  1  0  0  0
 68 77  1  0  0  0
 71 80  1  0  0  0
 71 81  1  0  0  0
 71 84  2  0  0  0
 72 74  1  0  0  0
 72 76  1  0  0  0
 72144  1  0  0  0
 72145  1  0  0  0
 73 75  1  0  0  0
 73 76  1  0  0  0
 73146  1  0  0  0
 73147  1  0  0  0
 74 77  1  0  0  0
 74148  1  0  0  0
 74149  1  0  0  0
 75 77  1  0  0  0
 75150  1  0  0  0
 75151  1  0  0  0
 76 83  1  0  0  0
 76152  1  0  0  0
 77153  1  0  0  0
 78 79  1  0  0  0
 78154  1  0  0  0
 78155  1  0  0  0
 78 80  1  0  0  0
 79 82  1  0  0  0
 79156  1  0  0  0
 79157  1  0  0  0
 80 83  1  0  0  0
 80158  1  0  0  0
 81159  1  0  0  0
 81160  1  0  0  0
 82161  1  0  0  0
 83162  1  0  0  0
 83163  1  0  0  0
M  CHG  1  83   1
M  ISO  4   1 100  68 101  77 101  82 100
M  END
> <chiral flag>
0

> <version>
0

> <s_m_source_file>
/data/baiqing/PycharmProjects/Reinvent-master-3.2/result/LINK_invent/BTK/process_docking_weight1_custom_sum_contain_oxygen_bond_distance_aromatic_linkinvent_7_9_3/rearranged_h_0123.sdf

> <i_m_source_file_index>
51

> <r_mmod_Potential_Energy-OPLS-2005>
-234.144058227539

> <r_mmod_Stretch_Energy-OPLS-2005>
69.8762512207031

> <r_mmod_Bend_Energy-OPLS-2005>
138.605560302734

> <r_mmod_Torsional_Energy-OPLS-2005>
330.290344238281

> <r_mmod_Improper_Torsional_Energy-OPLS-2005>
5.96265077590942

> <r_mmod_Van_der_Waal_Energy-OPLS-2005>
125.526382446289

> <r_mmod_Electrostatic_Energy-OPLS-2005>
-446.48779296875

> <r_mmod_Solvation_Energy-OPLS-2005>
-493.066711425781

> <b_mmod_Minimization_Converged-OPLS-2005>
0

> <r_mmod_RMS_Derivative-OPLS-2005>
3.33010840415955

$$$$
51
                    3D
 Structure written by MMmdl.
173181  0  0  1  0            999 V2000
  -30.4015  -14.5431   19.8765 C   0  0  0  0  0  0
  -30.4088  -12.1902   19.4837 C   0  0  0  0  0  0
  -29.3054  -11.9226   18.4272 C   0  0  0  0  0  0
  -27.8895  -11.8666   19.0851 C   0  0  0  0  0  0
  -27.6243  -13.0314   20.1019 C   0  0  2  0  0  0
  -28.8109  -13.1357   21.0773 C   0  0  0  0  0  0
  -24.6049  -14.6661   20.6717 C   0  0  0  0  0  0
  -24.0474  -14.1538   20.8435 C   0  0  0  0  0  0
  -25.4133  -12.3468   20.8228 C   0  0  0  0  0  0
  -24.6847  -10.5931   20.8418 C   0  0  0  0  0  0
  -24.7222   -9.6443   21.9573 C   0  0  0  0  0  0
  -23.8612   -8.4824   22.2013 C   0  0  0  0  0  0
  -22.7098   -8.1666   21.4224 C   0  0  0  0  0  0
  -22.5306   -9.0536   20.3656 C   0  0  0  0  0  0
  -23.5297  -10.0343   20.0631 C   0  0  0  0  0  0
  -21.8013   -6.1621   22.5661 C   0  0  0  0  0  0
  -21.4901   -6.6049   23.8675 C   0  0  0  0  0  0
  -21.3843   -5.6900   24.9373 C   0  0  0  0  0  0
  -21.5916   -4.3203   24.7180 C   0  0  0  0  0  0
  -21.8617   -3.8545   23.4219 C   0  0  0  0  0  0
  -21.9462   -4.7676   22.3401 C   0  0  0  0  0  0
  -22.3972  -14.3769   20.9125 C   0  0  0  0  0  0
  -22.1787   -4.2758   21.0961 F   0  0  0  0  0  0
  -21.5299   -3.4525   25.7553 F   0  0  0  0  0  0
  -30.0172  -13.3340   20.2931 N   0  0  0  0  0  0
  -26.1193  -13.2788   20.7827 N   0  0  0  0  0  0
  -26.3650  -12.2089   21.4514 N   0  0  0  0  0  0
  -21.5357  -13.7656   21.7584 N   0  0  0  0  0  0
  -24.3136  -16.0501   20.3174 N   0  0  0  0  0  0
  -31.5955  -14.8707   19.8825 O   0  0  0  0  0  0
  -21.8418   -7.0654   21.5097 O   0  0  0  0  0  0
  -21.8704  -15.0388   20.0623 O   0  0  0  0  0  0
  -24.6988  -31.7858   23.1388 C   0  0  0  0  0  0
  -25.9500  -32.4398   23.7998 C   0  0  1  0  0  0
  -26.8072  -26.3168   20.4869 C   0  0  0  0  0  0
  -25.6010  -33.8250   24.1868 N   0  0  0  0  0  0
  -23.5122  -30.4029   21.4971 C   0  0  2  0  0  0
  -24.9065  -28.7030   20.1110 C   0  0  0  0  0  0
  -22.7772  -29.4219   22.4487 C   0  0  0  0  0  0
  -18.0217  -28.1453   22.8357 C   0  0  0  0  0  0
  -24.1431  -36.7161   23.2640 C   0  0  0  0  0  0
  -26.0876  -30.3923   21.4668 C   0  0  0  0  0  0
  -26.0672  -28.9243   20.8562 C   0  0  0  0  0  0
  -27.0074  -27.7531   21.0162 C   0  0  0  0  0  0
  -25.7513  -26.4179   19.5389 C   0  0  0  0  0  0
  -24.8240  -27.4902   19.3997 C   0  0  0  0  0  0
  -23.7682  -29.7377   20.1134 C   0  0  0  0  0  0
  -25.4085  -36.2921   24.0278 C   0  0  1  0  0  0
  -20.5919  -28.3827   23.1016 C   0  0  2  0  0  0
  -20.6794  -26.9474   22.5369 C   0  0  0  0  0  0
  -19.5817  -26.6354   21.5180 C   0  0  0  0  0  0
  -18.1924  -26.7939   22.1531 C   0  0  0  0  0  0
  -19.1512  -28.8930   23.2680 C   0  0  0  0  0  0
  -18.9469  -30.1490   23.8772 C   0  0  0  0  0  0
  -17.6506  -30.6660   24.0494 C   0  0  0  0  0  0
  -25.9087  -34.9286   23.4912 C   0  0  0  0  0  0
  -16.5351  -29.9177   23.6375 C   0  0  0  0  0  0
  -16.7207  -28.6589   23.0363 C   0  0  0  0  0  0
  -26.4561  -31.6570   25.0770 C   0  0  0  0  0  0
  -25.3567  -31.4001   26.1372 C   0  0  0  0  0  0
  -27.0604  -30.2892   24.6962 C   0  0  0  0  0  0
  -27.5988  -32.4480   25.7586 C   0  0  0  0  0  0
  -27.5553  -37.1753   24.8473 C   0  0  0  0  0  0
  -21.4399  -29.3089   22.3344 N   0  0  0  0  0  0
  -26.4225  -37.3728   23.9438 N   0  0  0  0  0  0
  -24.7925  -30.9045   22.0827 N   0  0  0  0  0  0
  -23.4112  -28.7719   23.2842 O   0  0  0  0  0  0
  -27.3801  -24.8454   20.8083 O   0  0  0  0  0  0
  -26.5821  -34.8892   22.4590 O   0  0  0  0  0  0
  -23.6001  -32.1151   23.6152 O   0  0  0  0  0  0
  -23.6313  -12.4579   22.0563 C   0  0  0  0  0  0
  -23.7080  -12.5423   19.4746 C   0  0  0  0  0  0
  -26.5193  -15.2575   19.7285 C   0  0  0  0  0  0
  -25.0965  -13.9800   22.8554 C   0  0  0  0  0  0
  -26.3707  -15.4736   21.7626 C   0  0  0  0  0  0
  -25.3009  -13.8523   18.6817 C   0  0  0  0  0  0
  -24.9341  -12.7716   26.4896 C   0  0  0  0  0  0
  -22.7223  -12.8898   25.2589 C   0  0  0  0  0  0
  -24.8601  -14.1991   24.3594 C   0  0  0  0  0  0
  -26.6497  -17.4711   22.0482 C   0  0  0  0  0  0
  -27.2180  -14.8877   17.1903 C   0  0  0  0  0  0
  -28.8314  -15.0486   17.7649 C   0  0  0  0  0  0
  -26.9080  -21.0441   21.6217 C   0  0  0  0  0  0
  -26.8232  -23.0025   20.8025 C   0  0  0  0  0  0
  -24.2809  -12.9377   25.1067 C   0  0  0  0  0  0
  -26.0753  -13.8494   17.4607 N   0  0  0  0  0  0
  -29.3672  -15.2063   19.2126 N   0  0  0  0  0  0
  -26.5013  -19.2142   21.3074 N   0  3  0  0  0  0
  -31.3806  -12.3418   19.0193 H   0  0  0  0  0  0
  -30.5088  -11.3383   20.1586 H   0  0  0  0  0  0
  -29.5166  -10.9383   18.0155 H   0  0  0  0  0  0
  -29.3018  -12.5254   17.5259 H   0  0  0  0  0  0
  -27.8145  -10.9351   19.6441 H   0  0  0  0  0  0
  -27.1130  -11.7562   18.3219 H   0  0  0  0  0  0
  -27.7933  -13.5919   19.2447 H   0  0  0  0  0  0
  -28.9070  -12.2278   21.6691 H   0  0  0  0  0  0
  -28.6951  -13.9487   21.8008 H   0  0  0  0  0  0
  -25.4836   -9.8424   22.6979 H   0  0  0  0  0  0
  -24.0836   -7.8599   23.0506 H   0  0  0  0  0  0
  -21.7288   -8.8633   19.6679 H   0  0  0  0  0  0
  -23.4433  -10.2668   19.0207 H   0  0  0  0  0  0
  -21.3550   -7.6586   24.0553 H   0  0  0  0  0  0
  -21.1618   -6.0409   25.9296 H   0  0  0  0  0  0
  -21.9970   -2.7974   23.2509 H   0  0  0  0  0  0
  -21.8858  -13.1946   22.5172 H   0  0  0  0  0  0
  -20.5482  -13.8209   21.5792 H   0  0  0  0  0  0
  -23.3307  -16.0993   20.0584 H   0  0  0  0  0  0
  -24.9515  -16.3940   19.6074 H   0  0  0  0  0  0
  -26.7650  -32.4804   23.0793 H   0  0  0  0  0  0
  -25.0026  -33.9303   24.9916 H   0  0  0  0  0  0
  -22.8466  -31.2470   21.3339 H   0  0  0  0  0  0
  -23.3770  -35.9441   23.3223 H   0  0  0  0  0  0
  -24.3468  -36.8918   22.2082 H   0  0  0  0  0  0
  -23.7092  -37.6244   23.6787 H   0  0  0  0  0  0
  -26.3587  -31.0599   20.6477 H   0  0  0  0  0  0
  -26.9202  -30.4334   22.1513 H   0  0  0  0  0  0
  -27.8183  -27.8914   21.7187 H   0  0  0  0  0  0
  -25.4968  -25.5160   18.9915 H   0  0  0  0  0  0
  -23.9767  -27.3417   18.7448 H   0  0  0  0  0  0
  -24.0280  -30.5147   19.3947 H   0  0  0  0  0  0
  -22.8425  -29.2975   19.7360 H   0  0  0  0  0  0
  -25.1296  -36.1694   25.0791 H   0  0  0  0  0  0
  -20.9958  -28.3517   24.1156 H   0  0  0  0  0  0
  -20.5627  -26.2481   23.3659 H   0  0  0  0  0  0
  -21.6648  -26.7430   22.1215 H   0  0  0  0  0  0
  -19.7054  -25.6226   21.1342 H   0  0  0  0  0  0
  -19.6818  -27.3024   20.6594 H   0  0  0  0  0  0
  -17.4216  -26.6460   21.3929 H   0  0  0  0  0  0
  -18.0363  -26.0148   22.9004 H   0  0  0  0  0  0
  -19.7938  -30.7282   24.2132 H   0  0  0  0  0  0
  -17.5063  -31.6311   24.5145 H   0  0  0  0  0  0
  -15.5360  -30.3092   23.7861 H   0  0  0  0  0  0
  -15.8509  -28.0930   22.7279 H   0  0  0  0  0  0
  -24.5641  -30.7509   25.7644 H   0  0  0  0  0  0
  -24.8906  -32.3306   26.4649 H   0  0  0  0  0  0
  -25.7619  -30.9196   27.0294 H   0  0  0  0  0  0
  -26.3453  -29.6344   24.2011 H   0  0  0  0  0  0
  -27.3961  -29.7541   25.5850 H   0  0  0  0  0  0
  -27.9411  -30.3965   24.0625 H   0  0  0  0  0  0
  -27.2532  -33.3924   26.1824 H   0  0  0  0  0  0
  -28.3954  -32.6804   25.0494 H   0  0  0  0  0  0
  -28.0521  -31.8871   26.5797 H   0  0  0  0  0  0
  -28.2541  -38.0086   24.7575 H   0  0  0  0  0  0
  -28.1072  -36.2610   24.6216 H   0  0  0  0  0  0
  -27.2297  -37.1323   25.8884 H   0  0  0  0  0  0
  -20.9703  -29.8718   21.6421 H   0  0  0  0  0  0
  -26.0048  -38.2786   24.1446 H   0  0  0  0  0  0
  -22.9630  -11.8289   22.6210 H   0  0  0  0  0  0
  -23.0233  -12.0730   18.7945 H   0  0  0  0  0  0
  -26.9980  -16.0969   19.2470 H   0  0  0  0  0  0
  -24.5484  -11.8840   27.0047 H   0  0  0  0  0  0
  -24.7551  -13.6443   27.1222 H   0  0  0  0  0  0
  -26.0121  -12.6308   26.3951 H   0  0  0  0  0  0
  -22.3664  -12.4499   26.1931 H   0  0  0  0  0  0
  -22.2384  -12.3125   24.4751 H   0  0  0  0  0  0
  -22.2663  -13.8732   25.2356 H   0  0  0  0  0  0
  -24.1730  -15.0382   24.4683 H   0  0  0  0  0  0
  -25.7881  -14.5585   24.8149 H   0  0  0  0  0  0
  -27.6707  -17.5547   22.4173 H   0  0  0  0  0  0
  -26.0366  -17.6376   22.9255 H   0  0  0  0  0  0
  -27.3876  -14.8137   16.1134 H   0  0  0  0  0  0
  -26.7316  -15.8627   17.2611 H   0  0  0  0  0  0
  -29.0931  -16.0378   17.4117 H   0  0  0  0  0  0
  -29.5352  -14.4576   17.1879 H   0  0  0  0  0  0
  -26.2815  -21.1943   22.5030 H   0  0  0  0  0  0
  -27.9000  -20.9782   22.0691 H   0  0  0  0  0  0
  -25.7372  -23.1370   20.7723 H   0  0  0  0  0  0
  -27.0833  -22.7822   19.7698 H   0  0  0  0  0  0
  -24.5769  -12.0298   24.5711 H   0  0  0  0  0  0
  -25.6427  -13.4226   16.6419 H   0  0  0  0  0  0
  -28.6015  -15.3018   19.8691 H   0  0  0  0  0  0
  -25.5009  -19.2786   21.2283 H   0  0  0  0  0  0
  -26.8093  -19.0963   20.3619 H   0  0  0  0  0  0
  1 25  1  0  0  0
  1 30  2  0  0  0
  1 87  1  0  0  0
  2  3  1  0  0  0
  2 25  1  0  0  0
  2 89  1  0  0  0
  2 90  1  0  0  0
  3  4  1  0  0  0
  3 91  1  0  0  0
  3 92  1  0  0  0
  4  5  1  0  0  0
  4 93  1  0  0  0
  4 94  1  0  0  0
  5  6  1  0  0  0
  5 26  1  0  0  0
  5 95  1  0  0  0
  6 25  1  0  0  0
  6 96  1  0  0  0
  6 97  1  0  0  0
  7  8  2  0  0  0
  7 26  1  0  0  0
  7 29  1  0  0  0
  8  9  1  0  0  0
  8 22  1  0  0  0
  9 10  1  0  0  0
  9 27  2  0  0  0
 10 11  2  0  0  0
 10 15  1  0  0  0
 11 12  1  0  0  0
 11 98  1  0  0  0
 12 13  2  0  0  0
 12 99  1  0  0  0
 13 14  1  0  0  0
 13 31  1  0  0  0
 14 15  2  0  0  0
 14100  1  0  0  0
 15101  1  0  0  0
 16 17  2  0  0  0
 16 21  1  0  0  0
 16 31  1  0  0  0
 17 18  1  0  0  0
 17102  1  0  0  0
 18 19  2  0  0  0
 18103  1  0  0  0
 19 20  1  0  0  0
 19 24  1  0  0  0
 20 21  2  0  0  0
 20104  1  0  0  0
 21 23  1  0  0  0
 22 28  1  0  0  0
 22 32  2  0  0  0
 26 27  1  0  0  0
 28105  1  0  0  0
 28106  1  0  0  0
 29107  1  0  0  0
 29108  1  0  0  0
 33 34  1  0  0  0
 33 66  1  0  0  0
 33 70  2  0  0  0
 34 36  1  0  0  0
 34 59  1  0  0  0
 34109  1  0  0  0
 35 44  2  0  0  0
 35 45  1  0  0  0
 35 68  1  0  0  0
 36 56  1  0  0  0
 36110  1  0  0  0
 37 39  1  0  0  0
 37 47  1  0  0  0
 37 66  1  0  0  0
 37111  1  0  0  0
 38 43  2  0  0  0
 38 46  1  0  0  0
 38 47  1  0  0  0
 39 64  1  0  0  0
 39 67  2  0  0  0
 40 52  1  0  0  0
 40 53  2  0  0  0
 40 58  1  0  0  0
 41112  1  0  0  0
 41113  1  0  0  0
 41114  1  0  0  0
 41 48  1  0  0  0
 42 43  1  0  0  0
 42 66  1  0  0  0
 42115  1  0  0  0
 42116  1  0  0  0
 43 44  1  0  0  0
 44117  1  0  0  0
 45 46  2  0  0  0
 45118  1  0  0  0
 46119  1  0  0  0
 47120  1  0  0  0
 47121  1  0  0  0
 48 56  1  0  0  0
 48 65  1  0  0  0
 48122  1  0  0  0
 49 50  1  0  0  0
 49 53  1  0  0  0
 49 64  1  0  0  0
 49123  1  0  0  0
 50 51  1  0  0  0
 50124  1  0  0  0
 50125  1  0  0  0
 51 52  1  0  0  0
 51126  1  0  0  0
 51127  1  0  0  0
 52128  1  0  0  0
 52129  1  0  0  0
 53 54  1  0  0  0
 54 55  2  0  0  0
 54130  1  0  0  0
 55 57  1  0  0  0
 55131  1  0  0  0
 56 69  2  0  0  0
 57 58  2  0  0  0
 57132  1  0  0  0
 58133  1  0  0  0
 59 60  1  0  0  0
 59 61  1  0  0  0
 59 62  1  0  0  0
 60134  1  0  0  0
 60135  1  0  0  0
 60136  1  0  0  0
 61137  1  0  0  0
 61138  1  0  0  0
 61139  1  0  0  0
 62140  1  0  0  0
 62141  1  0  0  0
 62142  1  0  0  0
 63 65  1  0  0  0
 63143  1  0  0  0
 63144  1  0  0  0
 63145  1  0  0  0
 64146  1  0  0  0
 65147  1  0  0  0
 68 84  1  0  0  0
 71 72  2  0  0  0
 71 74  1  0  0  0
 71148  1  0  0  0
 72 76  1  0  0  0
 72149  1  0  0  0
 73 75  1  0  0  0
 73 76  2  0  0  0
 73150  1  0  0  0
 74 75  2  0  0  0
 74 79  1  0  0  0
 75 80  1  0  0  0
 76 86  1  0  0  0
 77151  1  0  0  0
 77152  1  0  0  0
 77153  1  0  0  0
 77 85  1  0  0  0
 78 85  1  0  0  0
 78154  1  0  0  0
 78155  1  0  0  0
 78156  1  0  0  0
 79 85  1  0  0  0
 79157  1  0  0  0
 79158  1  0  0  0
 80 88  1  0  0  0
 80159  1  0  0  0
 80160  1  0  0  0
 81 82  1  0  0  0
 81 86  1  0  0  0
 81161  1  0  0  0
 81162  1  0  0  0
 82 87  1  0  0  0
 82163  1  0  0  0
 82164  1  0  0  0
 83 84  1  0  0  0
 83 88  1  0  0  0
 83165  1  0  0  0
 83166  1  0  0  0
 84167  1  0  0  0
 84168  1  0  0  0
 85169  1  0  0  0
 86170  1  0  0  0
 87171  1  0  0  0
 88172  1  0  0  0
 88173  1  0  0  0
M  CHG  1  88   1
M  ISO  4   1 100  68 101  84 101  87 100
M  END
> <chiral flag>
0

> <version>
0

> <s_m_source_file>
/data/baiqing/PycharmProjects/Reinvent-master-3.2/result/LINK_invent/BTK/process_docking_weight1_custom_sum_contain_oxygen_bond_distance_aromatic_linkinvent_7_9_3/rearranged_h_0123.sdf

> <i_m_source_file_index>
52

> <r_mmod_Potential_Energy-OPLS-2005>
23095.9140625

> <r_mmod_Stretch_Energy-OPLS-2005>
14321.43359375

> <r_mmod_Bend_Energy-OPLS-2005>
1715.02661132812

> <r_mmod_Torsional_Energy-OPLS-2005>
638.329284667969

> <r_mmod_Improper_Torsional_Energy-OPLS-2005>
56.1706657409668

> <r_mmod_Van_der_Waal_Energy-OPLS-2005>
4816.50537109375

> <r_mmod_Electrostatic_Energy-OPLS-2005>
-378.713623046875

> <r_mmod_Solvation_Energy-OPLS-2005>
-469.274444580078

> <b_mmod_Minimization_Converged-OPLS-2005>
0

> <r_mmod_RMS_Derivative-OPLS-2005>
28.4916610717773

$$$$
52
                    3D
 Structure written by MMmdl.
163172  0  0  1  0            999 V2000
  -30.6933  -14.6423   20.4777 C   0  0  0  0  0  0
  -30.4151  -12.3963   19.4632 C   0  0  0  0  0  0
  -29.5005  -12.4943   18.2256 C   0  0  0  0  0  0
  -28.0257  -12.3376   18.6410 C   0  0  0  0  0  0
  -27.6431  -13.2338   19.8503 C   0  0  2  0  0  0
  -28.6900  -13.1564   20.9839 C   0  0  0  0  0  0
  -25.2512  -13.8221   20.5709 C   0  0  0  0  0  0
  -24.1799  -13.0454   20.9202 C   0  0  0  0  0  0
  -24.6392  -11.6934   20.8744 C   0  0  0  0  0  0
  -23.9074  -10.4301   21.0402 C   0  0  0  0  0  0
  -24.3625   -9.4217   21.9181 C   0  0  0  0  0  0
  -23.6297   -8.2251   22.0755 C   0  0  0  0  0  0
  -22.4278   -8.0286   21.3547 C   0  0  0  0  0  0
  -21.9913   -9.0262   20.4653 C   0  0  0  0  0  0
  -22.7244  -10.2138   20.3057 C   0  0  0  0  0  0
  -21.6856   -6.0740   22.5278 C   0  0  0  0  0  0
  -21.4020   -6.5639   23.8214 C   0  0  0  0  0  0
  -21.3662   -5.6793   24.9175 C   0  0  0  0  0  0
  -21.6041   -4.3055   24.7229 C   0  0  0  0  0  0
  -21.8817   -3.8149   23.4347 C   0  0  0  0  0  0
  -21.9192   -4.6966   22.3403 C   0  0  0  0  0  0
  -22.7816  -13.5232   21.1861 C   0  0  0  0  0  0
  -22.1659   -4.2152   21.0978 F   0  0  0  0  0  0
  -21.5629   -3.4536   25.7742 F   0  0  0  0  0  0
  -29.9996  -13.4627   20.3984 N   0  0  0  0  0  0
  -26.2947  -12.9435   20.3299 N   0  0  0  0  0  0
  -25.9325  -11.6575   20.5755 N   0  0  0  0  0  0
  -22.0464  -12.8222   22.0419 N   0  0  0  0  0  0
  -25.4204  -15.1951   20.4156 N   0  0  0  0  0  0
  -31.8808  -14.6858   20.1513 O   0  0  0  0  0  0
  -21.6642   -6.8882   21.4241 O   0  0  0  0  0  0
  -22.3494  -14.5527   20.6702 O   0  0  0  0  0  0
  -24.6272  -31.8608   23.2038 C   0  0  0  0  0  0
  -25.9123  -32.4778   23.8365 C   0  0  1  0  0  0
  -27.2104  -27.3077   20.1211 C   0  0  0  0  0  0
  -25.5937  -33.8579   24.2286 N   0  0  0  0  0  0
  -23.4202  -30.4875   21.5467 C   0  0  2  0  0  0
  -24.8652  -28.9474   20.1090 C   0  0  0  0  0  0
  -22.7486  -29.4637   22.4932 C   0  0  0  0  0  0
  -18.0293  -28.1382   22.8490 C   0  0  0  0  0  0
  -24.1490  -36.7299   23.2632 C   0  0  0  0  0  0
  -25.9636  -30.7876   21.3788 C   0  0  0  0  0  0
  -26.0355  -29.4149   20.7214 C   0  0  0  0  0  0
  -27.2126  -28.6061   20.7212 C   0  0  0  0  0  0
  -26.0267  -26.9160   19.4540 C   0  0  0  0  0  0
  -24.8639  -27.7037   19.4648 C   0  0  0  0  0  0
  -23.6352  -29.8290   20.1598 C   0  0  0  0  0  0
  -25.4106  -36.3078   24.0328 C   0  0  1  0  0  0
  -20.5893  -28.3693   23.1276 C   0  0  2  0  0  0
  -20.6782  -26.9416   22.5406 C   0  0  0  0  0  0
  -19.5751  -26.6384   21.5215 C   0  0  0  0  0  0
  -18.1933  -26.7923   22.1633 C   0  0  0  0  0  0
  -19.1544  -28.8853   23.2880 C   0  0  0  0  0  0
  -18.9466  -30.1455   23.8898 C   0  0  0  0  0  0
  -17.6464  -30.6583   24.0562 C   0  0  0  0  0  0
  -25.9051  -34.9450   23.5106 C   0  0  0  0  0  0
  -16.5356  -29.9082   23.6323 C   0  0  0  0  0  0
  -16.7280  -28.6498   23.0348 C   0  0  0  0  0  0
  -26.4493  -31.6578   25.0736 C   0  0  0  0  0  0
  -25.3723  -31.3743   26.1466 C   0  0  0  0  0  0
  -27.0316  -30.2987   24.6199 C   0  0  0  0  0  0
  -27.6054  -32.4308   25.7508 C   0  0  0  0  0  0
  -27.5581  -37.1795   24.8453 C   0  0  0  0  0  0
  -21.4197  -29.3052   22.3673 N   0  0  0  0  0  0
  -26.4277  -37.3780   23.9422 N   0  0  0  0  0  0
  -24.6892  -31.0622   22.0993 N   0  0  0  0  0  0
  -23.4210  -28.8169   23.3004 O   0  0  0  0  0  0
  -28.2966  -26.4158   20.1740 O   0  0  0  0  0  0
  -26.5620  -34.8919   22.4673 O   0  0  0  0  0  0
  -23.5434  -32.1416   23.7360 O   0  0  0  0  0  0
  -30.7877  -19.7468   20.5477 C   0  0  0  0  0  0
  -30.0099  -18.5520   20.6215 C   0  0  0  0  0  0
  -28.1139  -19.9234   20.6035 C   0  0  0  0  0  0
  -28.9078  -21.1292   20.5410 C   0  0  0  0  0  0
  -25.9415  -20.0702   23.1794 C   0  0  0  0  0  0
  -24.6794  -19.7323   22.4220 C   0  0  0  0  0  0
  -26.0237  -19.3072   21.8760 C   0  0  0  0  0  0
  -25.9999  -19.3001   19.3467 C   0  0  0  0  0  0
  -30.7273  -17.1555   20.6911 C   0  0  0  0  0  0
  -28.9721  -23.7824   20.3250 C   0  0  0  0  0  0
  -27.9690  -25.0083   20.5371 C   0  0  0  0  0  0
  -26.5836  -19.9482   20.6131 C   0  0  2  0  0  0
  -30.2576  -21.0097   20.5057 N   0  0  0  0  0  0
  -28.6580  -18.6585   20.6401 N   0  0  0  0  0  0
  -28.3294  -22.4418   20.5330 N   0  0  0  0  0  0
  -30.0278  -15.8186   20.7174 N   0  0  0  0  0  0
  -31.4615  -12.4787   19.1642 H   0  0  0  0  0  0
  -30.3194  -11.4187   19.9382 H   0  0  0  0  0  0
  -29.7670  -11.7283   17.4962 H   0  0  0  0  0  0
  -29.6475  -13.4552   17.7293 H   0  0  0  0  0  0
  -27.8687  -11.2888   18.8959 H   0  0  0  0  0  0
  -27.3702  -12.5455   17.7943 H   0  0  0  0  0  0
  -27.6436  -14.2584   19.4770 H   0  0  0  0  0  0
  -28.7005  -12.1639   21.4368 H   0  0  0  0  0  0
  -28.4447  -13.8566   21.7839 H   0  0  0  0  0  0
  -25.2775   -9.5695   22.4751 H   0  0  0  0  0  0
  -24.0017   -7.4641   22.7467 H   0  0  0  0  0  0
  -21.0848   -8.8780   19.8955 H   0  0  0  0  0  0
  -22.3706  -10.9677   19.6164 H   0  0  0  0  0  0
  -21.2015   -7.6149   23.9720 H   0  0  0  0  0  0
  -21.1485   -6.0521   25.9078 H   0  0  0  0  0  0
  -22.0593   -2.7612   23.2842 H   0  0  0  0  0  0
  -22.4088  -11.9899   22.4832 H   0  0  0  0  0  0
  -21.1078  -13.1245   22.2618 H   0  0  0  0  0  0
  -24.6548  -15.8489   20.5356 H   0  0  0  0  0  0
  -26.2765  -15.6402   20.1116 H   0  0  0  0  0  0
  -26.7195  -32.5440   23.1118 H   0  0  0  0  0  0
  -25.0070  -33.9722   25.0422 H   0  0  0  0  0  0
  -22.7133  -31.3081   21.4069 H   0  0  0  0  0  0
  -23.3749  -35.9631   23.3262 H   0  0  0  0  0  0
  -24.3598  -36.8952   22.2055 H   0  0  0  0  0  0
  -23.7241  -37.6492   23.6675 H   0  0  0  0  0  0
  -26.0973  -31.5498   20.6099 H   0  0  0  0  0  0
  -26.8433  -30.8357   22.0086 H   0  0  0  0  0  0
  -28.1059  -28.9560   21.2196 H   0  0  0  0  0  0
  -25.9714  -25.9871   18.9076 H   0  0  0  0  0  0
  -23.9740  -27.3483   18.9637 H   0  0  0  0  0  0
  -23.7582  -30.6089   19.4075 H   0  0  0  0  0  0
  -22.7534  -29.2630   19.8537 H   0  0  0  0  0  0
  -25.1278  -36.1921   25.0817 H   0  0  0  0  0  0
  -20.9988  -28.3270   24.1396 H   0  0  0  0  0  0
  -20.5691  -26.2307   23.3612 H   0  0  0  0  0  0
  -21.6648  -26.7449   22.1193 H   0  0  0  0  0  0
  -19.6910  -25.6296   21.1244 H   0  0  0  0  0  0
  -19.6668  -27.3194   20.6742 H   0  0  0  0  0  0
  -17.4200  -26.6670   21.4039 H   0  0  0  0  0  0
  -18.0333  -26.0068   22.9033 H   0  0  0  0  0  0
  -19.7941  -30.7270   24.2268 H   0  0  0  0  0  0
  -17.5018  -31.6262   24.5167 H   0  0  0  0  0  0
  -15.5357  -30.2981   23.7640 H   0  0  0  0  0  0
  -15.8686  -28.0815   22.7056 H   0  0  0  0  0  0
  -24.5876  -30.7111   25.7808 H   0  0  0  0  0  0
  -24.8940  -32.2923   26.4890 H   0  0  0  0  0  0
  -25.8040  -30.8919   27.0245 H   0  0  0  0  0  0
  -26.2887  -29.6758   24.1202 H   0  0  0  0  0  0
  -27.3968  -29.7226   25.4712 H   0  0  0  0  0  0
  -27.8784  -30.4247   23.9447 H   0  0  0  0  0  0
  -27.2662  -33.3610   26.2081 H   0  0  0  0  0  0
  -28.3869  -32.6864   25.0340 H   0  0  0  0  0  0
  -28.0714  -31.8434   26.5432 H   0  0  0  0  0  0
  -28.2559  -38.0130   24.7546 H   0  0  0  0  0  0
  -28.1115  -36.2666   24.6204 H   0  0  0  0  0  0
  -27.2321  -37.1357   25.8859 H   0  0  0  0  0  0
  -20.9374  -29.8789   21.6896 H   0  0  0  0  0  0
  -26.0150  -38.2846   24.1445 H   0  0  0  0  0  0
  -31.8666  -19.6875   20.5274 H   0  0  0  0  0  0
  -26.1377  -19.5170   24.0960 H   0  0  0  0  0  0
  -26.2683  -21.1084   23.1837 H   0  0  0  0  0  0
  -24.1608  -20.5472   21.9203 H   0  0  0  0  0  0
  -24.0373  -18.9537   22.8294 H   0  0  0  0  0  0
  -26.2559  -18.2473   21.9692 H   0  0  0  0  0  0
  -26.3635  -19.7999   18.4486 H   0  0  0  0  0  0
  -24.9112  -19.3596   19.3401 H   0  0  0  0  0  0
  -26.2735  -18.2468   19.2754 H   0  0  0  0  0  0
  -31.3698  -17.1877   21.5723 H   0  0  0  0  0  0
  -31.4120  -17.1557   19.8408 H   0  0  0  0  0  0
  -29.8294  -23.8848   20.9917 H   0  0  0  0  0  0
  -29.3665  -23.8152   19.3085 H   0  0  0  0  0  0
  -27.7006  -25.0278   21.5943 H   0  0  0  0  0  0
  -27.0612  -24.6876   20.0360 H   0  0  0  0  0  0
  -26.2471  -20.9840   20.6121 H   0  0  0  0  0  0
  -27.3165  -22.4636   20.5830 H   0  0  0  0  0  0
  -29.0376  -15.8064   20.9078 H   0  0  0  0  0  0
  1 25  1  0  0  0
  1 30  2  0  0  0
  1 86  1  0  0  0
  2  3  1  0  0  0
  2 25  1  0  0  0
  2 87  1  0  0  0
  2 88  1  0  0  0
  3  4  1  0  0  0
  3 89  1  0  0  0
  3 90  1  0  0  0
  4  5  1  0  0  0
  4 91  1  0  0  0
  4 92  1  0  0  0
  5  6  1  0  0  0
  5 26  1  0  0  0
  5 93  1  0  0  0
  6 25  1  0  0  0
  6 94  1  0  0  0
  6 95  1  0  0  0
  7  8  2  0  0  0
  7 26  1  0  0  0
  7 29  1  0  0  0
  8  9  1  0  0  0
  8 22  1  0  0  0
  9 10  1  0  0  0
  9 27  2  0  0  0
 10 11  2  0  0  0
 10 15  1  0  0  0
 11 12  1  0  0  0
 11 96  1  0  0  0
 12 13  2  0  0  0
 12 97  1  0  0  0
 13 14  1  0  0  0
 13 31  1  0  0  0
 14 15  2  0  0  0
 14 98  1  0  0  0
 15 99  1  0  0  0
 16 17  2  0  0  0
 16 21  1  0  0  0
 16 31  1  0  0  0
 17 18  1  0  0  0
 17100  1  0  0  0
 18 19  2  0  0  0
 18101  1  0  0  0
 19 20  1  0  0  0
 19 24  1  0  0  0
 20 21  2  0  0  0
 20102  1  0  0  0
 21 23  1  0  0  0
 22 28  1  0  0  0
 22 32  2  0  0  0
 26 27  1  0  0  0
 28103  1  0  0  0
 28104  1  0  0  0
 29105  1  0  0  0
 29106  1  0  0  0
 33 34  1  0  0  0
 33 66  1  0  0  0
 33 70  2  0  0  0
 34 36  1  0  0  0
 34 59  1  0  0  0
 34107  1  0  0  0
 35 44  2  0  0  0
 35 45  1  0  0  0
 35 68  1  0  0  0
 36 56  1  0  0  0
 36108  1  0  0  0
 37 39  1  0  0  0
 37 47  1  0  0  0
 37 66  1  0  0  0
 37109  1  0  0  0
 38 43  2  0  0  0
 38 46  1  0  0  0
 38 47  1  0  0  0
 39 64  1  0  0  0
 39 67  2  0  0  0
 40 52  1  0  0  0
 40 53  2  0  0  0
 40 58  1  0  0  0
 41110  1  0  0  0
 41111  1  0  0  0
 41112  1  0  0  0
 41 48  1  0  0  0
 42 43  1  0  0  0
 42 66  1  0  0  0
 42113  1  0  0  0
 42114  1  0  0  0
 43 44  1  0  0  0
 44115  1  0  0  0
 45 46  2  0  0  0
 45116  1  0  0  0
 46117  1  0  0  0
 47118  1  0  0  0
 47119  1  0  0  0
 48 56  1  0  0  0
 48 65  1  0  0  0
 48120  1  0  0  0
 49 50  1  0  0  0
 49 53  1  0  0  0
 49 64  1  0  0  0
 49121  1  0  0  0
 50 51  1  0  0  0
 50122  1  0  0  0
 50123  1  0  0  0
 51 52  1  0  0  0
 51124  1  0  0  0
 51125  1  0  0  0
 52126  1  0  0  0
 52127  1  0  0  0
 53 54  1  0  0  0
 54 55  2  0  0  0
 54128  1  0  0  0
 55 57  1  0  0  0
 55129  1  0  0  0
 56 69  2  0  0  0
 57 58  2  0  0  0
 57130  1  0  0  0
 58131  1  0  0  0
 59 60  1  0  0  0
 59 61  1  0  0  0
 59 62  1  0  0  0
 60132  1  0  0  0
 60133  1  0  0  0
 60134  1  0  0  0
 61135  1  0  0  0
 61136  1  0  0  0
 61137  1  0  0  0
 62138  1  0  0  0
 62139  1  0  0  0
 62140  1  0  0  0
 63 65  1  0  0  0
 63141  1  0  0  0
 63142  1  0  0  0
 63143  1  0  0  0
 64144  1  0  0  0
 65145  1  0  0  0
 68 81  1  0  0  0
 71 72  2  0  0  0
 71 83  1  0  0  0
 71146  1  0  0  0
 72 79  1  0  0  0
 72 84  1  0  0  0
 73 74  1  0  0  0
 73 82  1  0  0  0
 73 84  2  0  0  0
 74 83  2  0  0  0
 74 85  1  0  0  0
 75 76  1  0  0  0
 75147  1  0  0  0
 75148  1  0  0  0
 75 77  1  0  0  0
 76 77  1  0  0  0
 76149  1  0  0  0
 76150  1  0  0  0
 77 82  1  0  0  0
 77151  1  0  0  0
 78152  1  0  0  0
 78153  1  0  0  0
 78154  1  0  0  0
 78 82  1  0  0  0
 79 86  1  0  0  0
 79155  1  0  0  0
 79156  1  0  0  0
 80 81  1  0  0  0
 80 85  1  0  0  0
 80157  1  0  0  0
 80158  1  0  0  0
 81159  1  0  0  0
 81160  1  0  0  0
 82161  1  0  0  0
 85162  1  0  0  0
 86163  1  0  0  0
M  ISO  4   1 100  68 101  81 101  86 100
M  END
> <chiral flag>
0

> <version>
0

> <s_m_source_file>
/data/baiqing/PycharmProjects/Reinvent-master-3.2/result/LINK_invent/BTK/process_docking_weight1_custom_sum_contain_oxygen_bond_distance_aromatic_linkinvent_7_9_3/rearranged_h_0123.sdf

> <i_m_source_file_index>
53

> <r_mmod_Potential_Energy-OPLS-2005>
80.7914581298828

> <r_mmod_Stretch_Energy-OPLS-2005>
85.0117645263672

> <r_mmod_Bend_Energy-OPLS-2005>
167.843505859375

> <r_mmod_Torsional_Energy-OPLS-2005>
229.303253173828

> <r_mmod_Improper_Torsional_Energy-OPLS-2005>
4.32428503036499

> <r_mmod_Van_der_Waal_Energy-OPLS-2005>
148.204345703125

> <r_mmod_Electrostatic_Energy-OPLS-2005>
-390.120666503906

> <r_mmod_Solvation_Energy-OPLS-2005>
-223.217269897461

> <b_mmod_Minimization_Converged-OPLS-2005>
0

> <r_mmod_RMS_Derivative-OPLS-2005>
0.975842475891113

$$$$
53
                    3D
 Structure written by MMmdl.
175184  0  0  1  0            999 V2000
  -30.7793  -14.3660   20.6096 C   0  0  0  0  0  0
  -30.4110  -12.2590   19.4058 C   0  0  0  0  0  0
  -29.4871  -12.5054   18.1968 C   0  0  0  0  0  0
  -28.0095  -12.3749   18.6095 C   0  0  0  0  0  0
  -27.6678  -13.2012   19.8797 C   0  0  2  0  0  0
  -28.7069  -12.9429   20.9921 C   0  0  0  0  0  0
  -25.2580  -13.8083   20.5571 C   0  0  0  0  0  0
  -24.1842  -13.0388   20.9098 C   0  0  0  0  0  0
  -24.6407  -11.6849   20.8705 C   0  0  0  0  0  0
  -23.9054  -10.4258   21.0375 C   0  0  0  0  0  0
  -24.3601   -9.4184   21.9183 C   0  0  0  0  0  0
  -23.6280   -8.2220   22.0768 C   0  0  0  0  0  0
  -22.4260   -8.0267   21.3563 C   0  0  0  0  0  0
  -21.9880   -9.0218   20.4664 C   0  0  0  0  0  0
  -22.7199  -10.2101   20.3047 C   0  0  0  0  0  0
  -21.6843   -6.0725   22.5278 C   0  0  0  0  0  0
  -21.4008   -6.5633   23.8214 C   0  0  0  0  0  0
  -21.3653   -5.6791   24.9176 C   0  0  0  0  0  0
  -21.6044   -4.3051   24.7226 C   0  0  0  0  0  0
  -21.8809   -3.8141   23.4350 C   0  0  0  0  0  0
  -21.9201   -4.6965   22.3406 C   0  0  0  0  0  0
  -22.7857  -13.5195   21.1792 C   0  0  0  0  0  0
  -22.1671   -4.2138   21.0991 F   0  0  0  0  0  0
  -21.5634   -3.4548   25.7750 F   0  0  0  0  0  0
  -30.0476  -13.2315   20.4479 N   0  0  0  0  0  0
  -26.3070  -12.9277   20.3395 N   0  0  0  0  0  0
  -25.9348  -11.6437   20.5780 N   0  0  0  0  0  0
  -22.0497  -12.8223   22.0374 N   0  0  0  0  0  0
  -25.4219  -15.1780   20.3901 N   0  0  0  0  0  0
  -31.8715  -14.5549   20.0751 O   0  0  0  0  0  0
  -21.6630   -6.8862   21.4240 O   0  0  0  0  0  0
  -22.3541  -14.5514   20.6673 O   0  0  0  0  0  0
  -24.6100  -31.8721   23.2176 C   0  0  0  0  0  0
  -25.9034  -32.4835   23.8418 C   0  0  1  0  0  0
  -27.2007  -27.4459   20.0726 C   0  0  0  0  0  0
  -25.5893  -33.8633   24.2313 N   0  0  0  0  0  0
  -23.3908  -30.5026   21.5609 C   0  0  2  0  0  0
  -24.8289  -28.9824   20.1148 C   0  0  0  0  0  0
  -22.7323  -29.4681   22.5021 C   0  0  0  0  0  0
  -18.0223  -28.1345   22.8390 C   0  0  0  0  0  0
  -24.1485  -36.7317   23.2631 C   0  0  0  0  0  0
  -25.9245  -30.8329   21.3792 C   0  0  0  0  0  0
  -25.9921  -29.4731   20.7231 C   0  0  0  0  0  0
  -27.1794  -28.7070   20.7109 C   0  0  0  0  0  0
  -26.0304  -27.0029   19.4194 C   0  0  0  0  0  0
  -24.8406  -27.7406   19.4660 C   0  0  0  0  0  0
  -23.5947  -29.8509   20.1703 C   0  0  0  0  0  0
  -25.4110  -36.3112   24.0331 C   0  0  1  0  0  0
  -20.5783  -28.3659   23.1344 C   0  0  2  0  0  0
  -20.6674  -26.9391   22.5518 C   0  0  0  0  0  0
  -19.5763  -26.6357   21.5214 C   0  0  0  0  0  0
  -18.1893  -26.7916   22.1470 C   0  0  0  0  0  0
  -19.1448  -28.8806   23.2873 C   0  0  0  0  0  0
  -18.9359  -30.1375   23.8907 C   0  0  0  0  0  0
  -17.6360  -30.6499   24.0540 C   0  0  0  0  0  0
  -25.9045  -34.9484   23.5112 C   0  0  0  0  0  0
  -16.5269  -29.9033   23.6274 C   0  0  0  0  0  0
  -16.7203  -28.6485   23.0192 C   0  0  0  0  0  0
  -26.4471  -31.6611   25.0739 C   0  0  0  0  0  0
  -25.3716  -31.3735   26.1470 C   0  0  0  0  0  0
  -27.0305  -30.3052   24.6116 C   0  0  0  0  0  0
  -27.6030  -32.4332   25.7509 C   0  0  0  0  0  0
  -27.5570  -37.1823   24.8471 C   0  0  0  0  0  0
  -21.4050  -29.2987   22.3709 N   0  0  0  0  0  0
  -26.4288  -37.3801   23.9413 N   0  0  0  0  0  0
  -24.6603  -31.0830   22.1098 N   0  0  0  0  0  0
  -23.4101  -28.8249   23.3088 O   0  0  0  0  0  0
  -28.3724  -26.7236   20.0006 O   0  0  0  0  0  0
  -26.5600  -34.8932   22.4661 O   0  0  0  0  0  0
  -23.5314  -32.1496   23.7585 O   0  0  0  0  0  0
  -28.7506  -17.8903   21.6920 C   0  0  0  0  0  0
  -27.6181  -18.6759   21.4406 C   0  0  0  0  0  0
  -27.3995  -16.3654   23.0188 C   0  0  0  0  0  0
  -28.6293  -16.6963   22.4266 C   0  0  0  0  0  0
  -26.3481  -18.2903   21.9224 C   0  0  0  0  0  0
  -26.2579  -17.1657   22.7876 C   0  0  0  0  0  0
  -27.2353  -21.9177   19.3005 C   0  0  0  0  0  0
  -25.2687  -23.1320   20.3038 C   0  0  0  0  0  0
  -28.2000  -22.9452   19.9359 C   0  0  0  0  0  0
  -26.2333  -24.1486   20.9230 C   0  0  0  0  0  0
  -25.9428  -21.7628   20.1356 C   0  0  1  0  0  0
  -27.5200  -24.3225   20.0761 C   0  0  1  0  0  0
  -24.9570  -16.7589   23.4610 C   0  0  0  0  0  0
  -29.8008  -15.7357   22.4563 C   0  0  0  0  0  0
  -25.1183  -19.0740   21.4586 C   0  0  0  0  0  0
  -24.9311  -20.7309   19.5667 C   0  0  0  0  0  0
  -28.4356  -25.4402   20.6480 C   0  0  0  0  0  0
  -30.1426  -15.4360   21.0744 N   0  0  0  0  0  0
  -25.1788  -19.3359   20.0001 N   0  3  0  0  0  0
  -31.4600  -12.3186   19.1058 H   0  0  0  0  0  0
  -30.2793  -11.2422   19.7795 H   0  0  0  0  0  0
  -29.7188  -11.7982   17.3985 H   0  0  0  0  0  0
  -29.6634  -13.5020   17.7863 H   0  0  0  0  0  0
  -27.8091  -11.3196   18.7957 H   0  0  0  0  0  0
  -27.3586  -12.6682   17.7850 H   0  0  0  0  0  0
  -27.7236  -14.2579   19.6102 H   0  0  0  0  0  0
  -28.6630  -11.9011   21.3182 H   0  0  0  0  0  0
  -28.4559  -13.5263   21.8735 H   0  0  0  0  0  0
  -25.2741   -9.5672   22.4773 H   0  0  0  0  0  0
  -23.9997   -7.4615   22.7496 H   0  0  0  0  0  0
  -21.0801   -8.8697   19.8989 H   0  0  0  0  0  0
  -22.3629  -10.9632   19.6171 H   0  0  0  0  0  0
  -21.1971   -7.6145   23.9689 H   0  0  0  0  0  0
  -21.1506   -6.0552   25.9081 H   0  0  0  0  0  0
  -22.0601   -2.7602   23.2858 H   0  0  0  0  0  0
  -22.4110  -11.9896   22.4775 H   0  0  0  0  0  0
  -21.1136  -13.1268   22.2581 H   0  0  0  0  0  0
  -24.6601  -15.8152   20.5809 H   0  0  0  0  0  0
  -26.3234  -15.6293   20.3057 H   0  0  0  0  0  0
  -26.7050  -32.5562   23.1130 H   0  0  0  0  0  0
  -25.0097  -33.9841   25.0492 H   0  0  0  0  0  0
  -22.6780  -31.3188   21.4344 H   0  0  0  0  0  0
  -23.3741  -35.9652   23.3317 H   0  0  0  0  0  0
  -24.3568  -36.8929   22.2037 H   0  0  0  0  0  0
  -23.7260  -37.6534   23.6644 H   0  0  0  0  0  0
  -26.0419  -31.5995   20.6136 H   0  0  0  0  0  0
  -26.8105  -30.8738   21.9994 H   0  0  0  0  0  0
  -28.0775  -29.0801   21.1823 H   0  0  0  0  0  0
  -25.9978  -26.1011   18.8364 H   0  0  0  0  0  0
  -23.9553  -27.3731   18.9636 H   0  0  0  0  0  0
  -23.7051  -30.6365   19.4229 H   0  0  0  0  0  0
  -22.7159  -29.2773   19.8686 H   0  0  0  0  0  0
  -25.1283  -36.1957   25.0825 H   0  0  0  0  0  0
  -20.9896  -28.3255   24.1449 H   0  0  0  0  0  0
  -21.6583  -26.7400   22.1475 H   0  0  0  0  0  0
  -20.5358  -26.2272   23.3685 H   0  0  0  0  0  0
  -19.6942  -25.6226   21.1358 H   0  0  0  0  0  0
  -19.6821  -27.3087   20.6711 H   0  0  0  0  0  0
  -17.4249  -26.6797   21.3732 H   0  0  0  0  0  0
  -18.0194  -25.9951   22.8725 H   0  0  0  0  0  0
  -19.7834  -30.7140   24.2353 H   0  0  0  0  0  0
  -17.4901  -31.6174   24.5141 H   0  0  0  0  0  0
  -15.5266  -30.2946   23.7571 H   0  0  0  0  0  0
  -15.8610  -28.0853   22.6808 H   0  0  0  0  0  0
  -24.5861  -30.7119   25.7787 H   0  0  0  0  0  0
  -24.8950  -32.2921   26.4903 H   0  0  0  0  0  0
  -25.8061  -30.8887   27.0218 H   0  0  0  0  0  0
  -26.2870  -29.6817   24.1128 H   0  0  0  0  0  0
  -27.4033  -29.7280   25.4584 H   0  0  0  0  0  0
  -27.8713  -30.4378   23.9297 H   0  0  0  0  0  0
  -27.2618  -33.3599   26.2120 H   0  0  0  0  0  0
  -28.3828  -32.6944   25.0343 H   0  0  0  0  0  0
  -28.0683  -31.8431   26.5413 H   0  0  0  0  0  0
  -28.2597  -38.0106   24.7483 H   0  0  0  0  0  0
  -28.1057  -36.2644   24.6323 H   0  0  0  0  0  0
  -27.2293  -37.1492   25.8876 H   0  0  0  0  0  0
  -20.9187  -29.8504   21.6787 H   0  0  0  0  0  0
  -26.0166  -38.2868   24.1431 H   0  0  0  0  0  0
  -29.7011  -18.1720   21.2556 H   0  0  0  0  0  0
  -27.7457  -19.5560   20.8335 H   0  0  0  0  0  0
  -27.3205  -15.4593   23.6055 H   0  0  0  0  0  0
  -27.7485  -20.9647   19.1901 H   0  0  0  0  0  0
  -26.9884  -22.2329   18.2851 H   0  0  0  0  0  0
  -24.8988  -23.4961   19.3421 H   0  0  0  0  0  0
  -24.3965  -23.0325   20.9539 H   0  0  0  0  0  0
  -29.0911  -23.0351   19.3130 H   0  0  0  0  0  0
  -28.5401  -22.5885   20.9113 H   0  0  0  0  0  0
  -26.5051  -23.8212   21.9276 H   0  0  0  0  0  0
  -25.7052  -25.0883   21.0691 H   0  0  0  0  0  0
  -26.2600  -21.4614   21.1313 H   0  0  0  0  0  0
  -27.2873  -24.5882   19.0474 H   0  0  0  0  0  0
  -24.4241  -17.6295   23.8464 H   0  0  0  0  0  0
  -25.1517  -16.0989   24.3058 H   0  0  0  0  0  0
  -24.3076  -16.2189   22.7716 H   0  0  0  0  0  0
  -29.5962  -14.8504   23.0560 H   0  0  0  0  0  0
  -30.6540  -16.2244   22.9304 H   0  0  0  0  0  0
  -25.0235  -19.9776   22.0584 H   0  0  0  0  0  0
  -24.2019  -18.5116   21.6385 H   0  0  0  0  0  0
  -24.9350  -20.7759   18.4754 H   0  0  0  0  0  0
  -23.9111  -20.9851   19.8589 H   0  0  0  0  0  0
  -29.4703  -25.1194   20.5277 H   0  0  0  0  0  0
  -28.2924  -25.5550   21.7243 H   0  0  0  0  0  0
  -30.5215  -16.2596   20.6314 H   0  0  0  0  0  0
  -26.0677  -19.0206   19.6510 H   0  0  0  0  0  0
  -24.4763  -18.7560   19.5700 H   0  0  0  0  0  0
  1 25  1  0  0  0
  1 30  2  0  0  0
  1 88  1  0  0  0
  2  3  1  0  0  0
  2 25  1  0  0  0
  2 90  1  0  0  0
  2 91  1  0  0  0
  3  4  1  0  0  0
  3 92  1  0  0  0
  3 93  1  0  0  0
  4  5  1  0  0  0
  4 94  1  0  0  0
  4 95  1  0  0  0
  5  6  1  0  0  0
  5 26  1  0  0  0
  5 96  1  0  0  0
  6 25  1  0  0  0
  6 97  1  0  0  0
  6 98  1  0  0  0
  7  8  2  0  0  0
  7 26  1  0  0  0
  7 29  1  0  0  0
  8  9  1  0  0  0
  8 22  1  0  0  0
  9 10  1  0  0  0
  9 27  2  0  0  0
 10 11  2  0  0  0
 10 15  1  0  0  0
 11 12  1  0  0  0
 11 99  1  0  0  0
 12 13  2  0  0  0
 12100  1  0  0  0
 13 14  1  0  0  0
 13 31  1  0  0  0
 14 15  2  0  0  0
 14101  1  0  0  0
 15102  1  0  0  0
 16 17  2  0  0  0
 16 21  1  0  0  0
 16 31  1  0  0  0
 17 18  1  0  0  0
 17103  1  0  0  0
 18 19  2  0  0  0
 18104  1  0  0  0
 19 20  1  0  0  0
 19 24  1  0  0  0
 20 21  2  0  0  0
 20105  1  0  0  0
 21 23  1  0  0  0
 22 28  1  0  0  0
 22 32  2  0  0  0
 26 27  1  0  0  0
 28106  1  0  0  0
 28107  1  0  0  0
 29108  1  0  0  0
 29109  1  0  0  0
 33 34  1  0  0  0
 33 66  1  0  0  0
 33 70  2  0  0  0
 34 36  1  0  0  0
 34 59  1  0  0  0
 34110  1  0  0  0
 35 44  2  0  0  0
 35 45  1  0  0  0
 35 68  1  0  0  0
 36 56  1  0  0  0
 36111  1  0  0  0
 37 39  1  0  0  0
 37 47  1  0  0  0
 37 66  1  0  0  0
 37112  1  0  0  0
 38 43  2  0  0  0
 38 46  1  0  0  0
 38 47  1  0  0  0
 39 64  1  0  0  0
 39 67  2  0  0  0
 40 52  1  0  0  0
 40 53  2  0  0  0
 40 58  1  0  0  0
 41113  1  0  0  0
 41114  1  0  0  0
 41115  1  0  0  0
 41 48  1  0  0  0
 42 43  1  0  0  0
 42 66  1  0  0  0
 42116  1  0  0  0
 42117  1  0  0  0
 43 44  1  0  0  0
 44118  1  0  0  0
 45 46  2  0  0  0
 45119  1  0  0  0
 46120  1  0  0  0
 47121  1  0  0  0
 47122  1  0  0  0
 48 56  1  0  0  0
 48 65  1  0  0  0
 48123  1  0  0  0
 49 50  1  0  0  0
 49 53  1  0  0  0
 49 64  1  0  0  0
 49124  1  0  0  0
 50 51  1  0  0  0
 50125  1  0  0  0
 50126  1  0  0  0
 51 52  1  0  0  0
 51127  1  0  0  0
 51128  1  0  0  0
 52129  1  0  0  0
 52130  1  0  0  0
 53 54  1  0  0  0
 54 55  2  0  0  0
 54131  1  0  0  0
 55 57  1  0  0  0
 55132  1  0  0  0
 56 69  2  0  0  0
 57 58  2  0  0  0
 57133  1  0  0  0
 58134  1  0  0  0
 59 60  1  0  0  0
 59 61  1  0  0  0
 59 62  1  0  0  0
 60135  1  0  0  0
 60136  1  0  0  0
 60137  1  0  0  0
 61138  1  0  0  0
 61139  1  0  0  0
 61140  1  0  0  0
 62141  1  0  0  0
 62142  1  0  0  0
 62143  1  0  0  0
 63 65  1  0  0  0
 63144  1  0  0  0
 63145  1  0  0  0
 63146  1  0  0  0
 64147  1  0  0  0
 65148  1  0  0  0
 68 87  1  0  0  0
 71 72  2  0  0  0
 71 74  1  0  0  0
 71149  1  0  0  0
 72 75  1  0  0  0
 72150  1  0  0  0
 73 74  2  0  0  0
 73 76  1  0  0  0
 73151  1  0  0  0
 74 84  1  0  0  0
 75 76  2  0  0  0
 75 85  1  0  0  0
 76 83  1  0  0  0
 77 79  1  0  0  0
 77 81  1  0  0  0
 77152  1  0  0  0
 77153  1  0  0  0
 78 80  1  0  0  0
 78 81  1  0  0  0
 78154  1  0  0  0
 78155  1  0  0  0
 79 82  1  0  0  0
 79156  1  0  0  0
 79157  1  0  0  0
 80 82  1  0  0  0
 80158  1  0  0  0
 80159  1  0  0  0
 81 86  1  0  0  0
 81160  1  0  0  0
 82 87  1  0  0  0
 82161  1  0  0  0
 83162  1  0  0  0
 83163  1  0  0  0
 83164  1  0  0  0
 84 88  1  0  0  0
 84165  1  0  0  0
 84166  1  0  0  0
 85 89  1  0  0  0
 85167  1  0  0  0
 85168  1  0  0  0
 86 89  1  0  0  0
 86169  1  0  0  0
 86170  1  0  0  0
 87171  1  0  0  0
 87172  1  0  0  0
 88173  1  0  0  0
 89174  1  0  0  0
 89175  1  0  0  0
M  CHG  1  89   1
M  ISO  4   1 100  68 101  87 101  88 100
M  END
> <chiral flag>
0

> <version>
0

> <s_m_source_file>
/data/baiqing/PycharmProjects/Reinvent-master-3.2/result/LINK_invent/BTK/process_docking_weight1_custom_sum_contain_oxygen_bond_distance_aromatic_linkinvent_7_9_3/rearranged_h_0123.sdf

> <i_m_source_file_index>
54

> <r_mmod_Potential_Energy-OPLS-2005>
-129.953079223633

> <r_mmod_Stretch_Energy-OPLS-2005>
35.5495986938477

> <r_mmod_Bend_Energy-OPLS-2005>
127.374671936035

> <r_mmod_Torsional_Energy-OPLS-2005>
324.240386962891

> <r_mmod_Improper_Torsional_Energy-OPLS-2005>
14.2549257278442

> <r_mmod_Van_der_Waal_Energy-OPLS-2005>
152.733108520508

> <r_mmod_Electrostatic_Energy-OPLS-2005>
-346.385925292969

> <r_mmod_Solvation_Energy-OPLS-2005>
-450.123809814453

> <b_mmod_Minimization_Converged-OPLS-2005>
0

> <r_mmod_RMS_Derivative-OPLS-2005>
4.92240619659424

$$$$
54
                    3D
 Structure written by MMmdl.
156164  0  0  1  0            999 V2000
  -30.4642  -15.2067   20.3350 C   0  0  0  0  0  0
  -30.4356  -12.7539   19.5292 C   0  0  0  0  0  0
  -29.5309  -12.5746   18.2859 C   0  0  0  0  0  0
  -28.0829  -12.2957   18.7188 C   0  0  0  0  0  0
  -27.6177  -13.2676   19.8328 C   0  0  2  0  0  0
  -28.6548  -13.4265   20.9691 C   0  0  0  0  0  0
  -25.2433  -13.8242   20.5709 C   0  0  0  0  0  0
  -24.1740  -13.0442   20.9220 C   0  0  0  0  0  0
  -24.6377  -11.6954   20.8763 C   0  0  0  0  0  0
  -23.9080  -10.4309   21.0422 C   0  0  0  0  0  0
  -24.3636   -9.4208   21.9177 C   0  0  0  0  0  0
  -23.6302   -8.2244   22.0758 C   0  0  0  0  0  0
  -22.4283   -8.0283   21.3558 C   0  0  0  0  0  0
  -21.9919   -9.0247   20.4655 C   0  0  0  0  0  0
  -22.7253  -10.2126   20.3069 C   0  0  0  0  0  0
  -21.6858   -6.0743   22.5283 C   0  0  0  0  0  0
  -21.4013   -6.5640   23.8221 C   0  0  0  0  0  0
  -21.3666   -5.6793   24.9179 C   0  0  0  0  0  0
  -21.6043   -4.3050   24.7221 C   0  0  0  0  0  0
  -21.8822   -3.8152   23.4337 C   0  0  0  0  0  0
  -21.9189   -4.6975   22.3397 C   0  0  0  0  0  0
  -22.7770  -13.5221   21.1885 C   0  0  0  0  0  0
  -22.1668   -4.2156   21.0974 F   0  0  0  0  0  0
  -21.5645   -3.4538   25.7735 F   0  0  0  0  0  0
  -29.9004  -13.9036   20.3434 N   0  0  0  0  0  0
  -26.2851  -12.9479   20.3292 N   0  0  0  0  0  0
  -25.9335  -11.6600   20.5774 N   0  0  0  0  0  0
  -22.0430  -12.8191   22.0436 N   0  0  0  0  0  0
  -25.4077  -15.1952   20.4091 N   0  0  0  0  0  0
  -31.6736  -15.2168   20.0709 O   0  0  0  0  0  0
  -21.6650   -6.8877   21.4242 O   0  0  0  0  0  0
  -22.3445  -14.5506   20.6729 O   0  0  0  0  0  0
  -24.6643  -31.8256   23.1723 C   0  0  0  0  0  0
  -25.9325  -32.4621   23.8160 C   0  0  1  0  0  0
  -27.2218  -26.9321   20.1470 C   0  0  0  0  0  0
  -25.5978  -33.8420   24.2046 N   0  0  0  0  0  0
  -23.4747  -30.4405   21.5272 C   0  0  2  0  0  0
  -24.9229  -28.8343   20.1181 C   0  0  0  0  0  0
  -22.7691  -29.4424   22.4821 C   0  0  0  0  0  0
  -18.0321  -28.1387   22.8479 C   0  0  0  0  0  0
  -24.1472  -36.7166   23.2650 C   0  0  0  0  0  0
  -26.0509  -30.6399   21.3934 C   0  0  0  0  0  0
  -26.1205  -29.2320   20.7270 C   0  0  0  0  0  0
  -27.2634  -28.3079   20.7088 C   0  0  0  0  0  0
  -25.9615  -26.6786   19.5483 C   0  0  0  0  0  0
  -24.8674  -27.5733   19.5165 C   0  0  0  0  0  0
  -23.7102  -29.7617   20.1541 C   0  0  0  0  0  0
  -25.4125  -36.2959   24.0290 C   0  0  1  0  0  0
  -20.5957  -28.3690   23.1226 C   0  0  2  0  0  0
  -20.6786  -26.9370   22.5423 C   0  0  0  0  0  0
  -19.5757  -26.6352   21.5235 C   0  0  0  0  0  0
  -18.1935  -26.7930   22.1619 C   0  0  0  0  0  0
  -19.1587  -28.8868   23.2839 C   0  0  0  0  0  0
  -18.9496  -30.1482   23.8836 C   0  0  0  0  0  0
  -17.6482  -30.6594   24.0538 C   0  0  0  0  0  0
  -25.9104  -34.9356   23.4982 C   0  0  0  0  0  0
  -16.5374  -29.9066   23.6365 C   0  0  0  0  0  0
  -16.7298  -28.6489   23.0386 C   0  0  0  0  0  0
  -26.4550  -31.6593   25.0692 C   0  0  0  0  0  0
  -25.3650  -31.3919   26.1337 C   0  0  0  0  0  0
  -27.0413  -30.2939   24.6456 C   0  0  0  0  0  0
  -27.6029  -32.4420   25.7500 C   0  0  0  0  0  0
  -27.5565  -37.1731   24.8457 C   0  0  0  0  0  0
  -21.4353  -29.2993   22.3591 N   0  0  0  0  0  0
  -26.4252  -37.3710   23.9437 N   0  0  0  0  0  0
  -24.7524  -30.9953   22.0836 N   0  0  0  0  0  0
  -23.4272  -28.7989   23.3031 O   0  0  0  0  0  0
  -28.2323  -25.8212   20.2297 O   0  0  0  0  0  0
  -26.5739  -34.8905   22.4594 O   0  0  0  0  0  0
  -23.5721  -32.1170   23.6874 O   0  0  0  0  0  0
  -28.1413  -24.3504   19.7821 C   0  0  0  0  0  0
  -29.9426  -21.2212   18.5615 C   0  0  0  0  0  0
  -30.6125  -22.5704   18.2388 C   0  0  0  0  0  0
  -30.4561  -23.2645   20.6570 C   0  0  0  0  0  0
  -28.9574  -22.9174   20.4445 C   0  0  2  0  0  0
  -29.0028  -21.2312   19.7972 C   0  0  2  0  0  0
  -29.1753  -19.5927   20.5353 C   0  0  0  0  0  0
  -29.8884  -18.0553   19.9616 C   0  0  0  0  0  0
  -27.4491  -24.0801   18.7608 N   0  0  0  0  0  0
  -29.6990  -16.4657   20.4160 N   0  0  0  0  0  0
  -31.2930  -23.1434   19.4267 N   0  3  0  0  0  0
  -31.4653  -12.9238   19.2146 H   0  0  0  0  0  0
  -30.4632  -11.8367   20.1181 H   0  0  0  0  0  0
  -29.8972  -11.7664   17.6532 H   0  0  0  0  0  0
  -29.5614  -13.4808   17.6822 H   0  0  0  0  0  0
  -28.0455  -11.2670   19.0834 H   0  0  0  0  0  0
  -27.4111  -12.3407   17.8616 H   0  0  0  0  0  0
  -27.5398  -14.2363   19.3399 H   0  0  0  0  0  0
  -28.8017  -12.4924   21.5135 H   0  0  0  0  0  0
  -28.3032  -14.1540   21.7028 H   0  0  0  0  0  0
  -25.2782   -9.5698   22.4757 H   0  0  0  0  0  0
  -24.0031   -7.4623   22.7455 H   0  0  0  0  0  0
  -21.0879   -8.8758   19.8922 H   0  0  0  0  0  0
  -22.3714  -10.9666   19.6190 H   0  0  0  0  0  0
  -21.1995   -7.6146   23.9720 H   0  0  0  0  0  0
  -21.1503   -6.0530   25.9082 H   0  0  0  0  0  0
  -22.0587   -2.7611   23.2836 H   0  0  0  0  0  0
  -22.4090  -11.9877   22.4836 H   0  0  0  0  0  0
  -21.1041  -13.1210   22.2654 H   0  0  0  0  0  0
  -24.6270  -15.8415   20.4678 H   0  0  0  0  0  0
  -26.2565  -15.6355   20.0785 H   0  0  0  0  0  0
  -26.7377  -32.5158   23.0864 H   0  0  0  0  0  0
  -25.0040  -33.9487   25.0137 H   0  0  0  0  0  0
  -22.7818  -31.2697   21.3627 H   0  0  0  0  0  0
  -23.3776  -35.9452   23.3269 H   0  0  0  0  0  0
  -24.3531  -36.8869   22.2070 H   0  0  0  0  0  0
  -23.7184  -37.6313   23.6747 H   0  0  0  0  0  0
  -26.2309  -31.3851   20.6171 H   0  0  0  0  0  0
  -26.9122  -30.6968   22.0488 H   0  0  0  0  0  0
  -28.1738  -28.6240   21.1966 H   0  0  0  0  0  0
  -25.7392  -25.6994   19.1604 H   0  0  0  0  0  0
  -23.9381  -27.2391   19.0746 H   0  0  0  0  0  0
  -23.8636  -30.5294   19.3950 H   0  0  0  0  0  0
  -22.8174  -29.2173   19.8402 H   0  0  0  0  0  0
  -25.1335  -36.1718   25.0779 H   0  0  0  0  0  0
  -21.0028  -28.3277   24.1364 H   0  0  0  0  0  0
  -20.5668  -26.2289   23.3654 H   0  0  0  0  0  0
  -21.6645  -26.7343   22.1236 H   0  0  0  0  0  0
  -19.6899  -25.6262   21.1284 H   0  0  0  0  0  0
  -19.6737  -27.3148   20.6762 H   0  0  0  0  0  0
  -17.4229  -26.6725   21.4001 H   0  0  0  0  0  0
  -18.0274  -26.0081   22.9004 H   0  0  0  0  0  0
  -19.7967  -30.7324   24.2170 H   0  0  0  0  0  0
  -17.5033  -31.6275   24.5115 H   0  0  0  0  0  0
  -15.5371  -30.2935   23.7738 H   0  0  0  0  0  0
  -15.8699  -28.0786   22.7134 H   0  0  0  0  0  0
  -24.5806  -30.7291   25.7669 H   0  0  0  0  0  0
  -24.8857  -32.3158   26.4578 H   0  0  0  0  0  0
  -25.7832  -30.9205   27.0225 H   0  0  0  0  0  0
  -26.3070  -29.6659   24.1385 H   0  0  0  0  0  0
  -27.3813  -29.7304   25.5152 H   0  0  0  0  0  0
  -27.9075  -30.4093   23.9939 H   0  0  0  0  0  0
  -27.2548  -33.3731   26.1984 H   0  0  0  0  0  0
  -28.3876  -32.6987   25.0376 H   0  0  0  0  0  0
  -28.0637  -31.8617   26.5496 H   0  0  0  0  0  0
  -28.2559  -38.0052   24.7539 H   0  0  0  0  0  0
  -28.1089  -36.2581   24.6233 H   0  0  0  0  0  0
  -27.2292  -37.1313   25.8862 H   0  0  0  0  0  0
  -20.9609  -29.8652   21.6691 H   0  0  0  0  0  0
  -26.0083  -38.2740   24.1549 H   0  0  0  0  0  0
  -30.7329  -20.4828   18.7048 H   0  0  0  0  0  0
  -29.3921  -20.8833   17.6793 H   0  0  0  0  0  0
  -29.8844  -23.2808   17.8483 H   0  0  0  0  0  0
  -31.3330  -22.4314   17.4298 H   0  0  0  0  0  0
  -30.8729  -22.5856   21.4025 H   0  0  0  0  0  0
  -30.5665  -24.2623   21.0854 H   0  0  0  0  0  0
  -28.5102  -22.8172   21.4336 H   0  0  0  0  0  0
  -27.9958  -21.1622   19.3846 H   0  0  0  0  0  0
  -28.1474  -19.3181   20.7779 H   0  0  0  0  0  0
  -29.6200  -19.7473   21.5185 H   0  0  0  0  0  0
  -30.9682  -18.2188   19.9679 H   0  0  0  0  0  0
  -29.6420  -18.0250   18.8958 H   0  0  0  0  0  0
  -27.4719  -23.0874   18.5466 H   0  0  0  0  0  0
  -28.7434  -16.2613   20.6683 H   0  0  0  0  0  0
  -31.6788  -24.0438   19.1819 H   0  0  0  0  0  0
  -32.0839  -22.5527   19.6392 H   0  0  0  0  0  0
  1 25  1  0  0  0
  1 30  2  0  0  0
  1 80  1  0  0  0
  2  3  1  0  0  0
  2 25  1  0  0  0
  2 82  1  0  0  0
  2 83  1  0  0  0
  3  4  1  0  0  0
  3 84  1  0  0  0
  3 85  1  0  0  0
  4  5  1  0  0  0
  4 86  1  0  0  0
  4 87  1  0  0  0
  5  6  1  0  0  0
  5 26  1  0  0  0
  5 88  1  0  0  0
  6 25  1  0  0  0
  6 89  1  0  0  0
  6 90  1  0  0  0
  7  8  2  0  0  0
  7 26  1  0  0  0
  7 29  1  0  0  0
  8  9  1  0  0  0
  8 22  1  0  0  0
  9 10  1  0  0  0
  9 27  2  0  0  0
 10 11  2  0  0  0
 10 15  1  0  0  0
 11 12  1  0  0  0
 11 91  1  0  0  0
 12 13  2  0  0  0
 12 92  1  0  0  0
 13 14  1  0  0  0
 13 31  1  0  0  0
 14 15  2  0  0  0
 14 93  1  0  0  0
 15 94  1  0  0  0
 16 17  2  0  0  0
 16 21  1  0  0  0
 16 31  1  0  0  0
 17 18  1  0  0  0
 17 95  1  0  0  0
 18 19  2  0  0  0
 18 96  1  0  0  0
 19 20  1  0  0  0
 19 24  1  0  0  0
 20 21  2  0  0  0
 20 97  1  0  0  0
 21 23  1  0  0  0
 22 28  1  0  0  0
 22 32  2  0  0  0
 26 27  1  0  0  0
 28 98  1  0  0  0
 28 99  1  0  0  0
 29100  1  0  0  0
 29101  1  0  0  0
 33 34  1  0  0  0
 33 66  1  0  0  0
 33 70  2  0  0  0
 34 36  1  0  0  0
 34 59  1  0  0  0
 34102  1  0  0  0
 35 44  2  0  0  0
 35 45  1  0  0  0
 35 68  1  0  0  0
 36 56  1  0  0  0
 36103  1  0  0  0
 37 39  1  0  0  0
 37 47  1  0  0  0
 37 66  1  0  0  0
 37104  1  0  0  0
 38 43  2  0  0  0
 38 46  1  0  0  0
 38 47  1  0  0  0
 39 64  1  0  0  0
 39 67  2  0  0  0
 40 52  1  0  0  0
 40 53  2  0  0  0
 40 58  1  0  0  0
 41105  1  0  0  0
 41106  1  0  0  0
 41107  1  0  0  0
 41 48  1  0  0  0
 42 43  1  0  0  0
 42 66  1  0  0  0
 42108  1  0  0  0
 42109  1  0  0  0
 43 44  1  0  0  0
 44110  1  0  0  0
 45 46  2  0  0  0
 45111  1  0  0  0
 46112  1  0  0  0
 47113  1  0  0  0
 47114  1  0  0  0
 48 56  1  0  0  0
 48 65  1  0  0  0
 48115  1  0  0  0
 49 50  1  0  0  0
 49 53  1  0  0  0
 49 64  1  0  0  0
 49116  1  0  0  0
 50 51  1  0  0  0
 50117  1  0  0  0
 50118  1  0  0  0
 51 52  1  0  0  0
 51119  1  0  0  0
 51120  1  0  0  0
 52121  1  0  0  0
 52122  1  0  0  0
 53 54  1  0  0  0
 54 55  2  0  0  0
 54123  1  0  0  0
 55 57  1  0  0  0
 55124  1  0  0  0
 56 69  2  0  0  0
 57 58  2  0  0  0
 57125  1  0  0  0
 58126  1  0  0  0
 59 60  1  0  0  0
 59 61  1  0  0  0
 59 62  1  0  0  0
 60127  1  0  0  0
 60128  1  0  0  0
 60129  1  0  0  0
 61130  1  0  0  0
 61131  1  0  0  0
 61132  1  0  0  0
 62133  1  0  0  0
 62134  1  0  0  0
 62135  1  0  0  0
 63 65  1  0  0  0
 63136  1  0  0  0
 63137  1  0  0  0
 63138  1  0  0  0
 64139  1  0  0  0
 65140  1  0  0  0
 68 71  1  0  0  0
 71 79  2  0  0  0
 71 75  1  0  0  0
 72 73  1  0  0  0
 72 76  1  0  0  0
 72141  1  0  0  0
 72142  1  0  0  0
 73 81  1  0  0  0
 73143  1  0  0  0
 73144  1  0  0  0
 74 75  1  0  0  0
 74 81  1  0  0  0
 74145  1  0  0  0
 74146  1  0  0  0
 75 76  1  0  0  0
 75147  1  0  0  0
 76 77  1  0  0  0
 76148  1  0  0  0
 77 78  1  0  0  0
 77149  1  0  0  0
 77150  1  0  0  0
 78 80  1  0  0  0
 78151  1  0  0  0
 78152  1  0  0  0
 79153  1  0  0  0
 80154  1  0  0  0
 81155  1  0  0  0
 81156  1  0  0  0
M  CHG  1  81   1
M  ISO  4   1 100  68 101  71 101  80 100
M  END
> <chiral flag>
0

> <version>
0

> <s_m_source_file>
/data/baiqing/PycharmProjects/Reinvent-master-3.2/result/LINK_invent/BTK/process_docking_weight1_custom_sum_contain_oxygen_bond_distance_aromatic_linkinvent_7_9_3/rearranged_h_0123.sdf

> <i_m_source_file_index>
55

> <r_mmod_Potential_Energy-OPLS-2005>
1151.7607421875

> <r_mmod_Stretch_Energy-OPLS-2005>
615.545227050781

> <r_mmod_Bend_Energy-OPLS-2005>
435.441345214844

> <r_mmod_Torsional_Energy-OPLS-2005>
284.766021728516

> <r_mmod_Improper_Torsional_Energy-OPLS-2005>
5.43411779403687

> <r_mmod_Van_der_Waal_Energy-OPLS-2005>
126.04280090332

> <r_mmod_Electrostatic_Energy-OPLS-2005>
-242.944259643555

> <r_mmod_Solvation_Energy-OPLS-2005>
-492.426300048828

> <b_mmod_Minimization_Converged-OPLS-2005>
0

> <r_mmod_RMS_Derivative-OPLS-2005>
5.3938455581665

$$$$
55
                    3D
 Structure written by MMmdl.
166174  0  0  1  0            999 V2000
  -30.6670  -14.5697   20.5360 C   0  0  0  0  0  0
  -30.4368  -12.3606   19.4449 C   0  0  0  0  0  0
  -29.5067  -12.5034   18.2207 C   0  0  0  0  0  0
  -28.0290  -12.3485   18.6327 C   0  0  0  0  0  0
  -27.6596  -13.2106   19.8693 C   0  0  2  0  0  0
  -28.7030  -13.0477   20.9977 C   0  0  0  0  0  0
  -25.2576  -13.8163   20.5665 C   0  0  0  0  0  0
  -24.1838  -13.0446   20.9185 C   0  0  0  0  0  0
  -24.6402  -11.6910   20.8732 C   0  0  0  0  0  0
  -23.9067  -10.4297   21.0391 C   0  0  0  0  0  0
  -24.3616   -9.4216   21.9170 C   0  0  0  0  0  0
  -23.6296   -8.2248   22.0746 C   0  0  0  0  0  0
  -22.4270   -8.0283   21.3545 C   0  0  0  0  0  0
  -21.9912   -9.0253   20.4640 C   0  0  0  0  0  0
  -22.7236  -10.2134   20.3048 C   0  0  0  0  0  0
  -21.6851   -6.0735   22.5270 C   0  0  0  0  0  0
  -21.4013   -6.5636   23.8206 C   0  0  0  0  0  0
  -21.3667   -5.6788   24.9168 C   0  0  0  0  0  0
  -21.6044   -4.3051   24.7215 C   0  0  0  0  0  0
  -21.8829   -3.8148   23.4337 C   0  0  0  0  0  0
  -21.9198   -4.6966   22.3394 C   0  0  0  0  0  0
  -22.7859  -13.5240   21.1855 C   0  0  0  0  0  0
  -22.1661   -4.2155   21.0973 F   0  0  0  0  0  0
  -21.5640   -3.4535   25.7730 F   0  0  0  0  0  0
  -30.0254  -13.3678   20.4384 N   0  0  0  0  0  0
  -26.3025  -12.9342   20.3349 N   0  0  0  0  0  0
  -25.9336  -11.6504   20.5763 N   0  0  0  0  0  0
  -22.0506  -12.8217   22.0398 N   0  0  0  0  0  0
  -25.4309  -15.1879   20.4039 N   0  0  0  0  0  0
  -31.8096  -14.7404   20.1033 O   0  0  0  0  0  0
  -21.6645   -6.8872   21.4229 O   0  0  0  0  0  0
  -22.3546  -14.5554   20.6705 O   0  0  0  0  0  0
  -24.6192  -31.8644   23.2040 C   0  0  0  0  0  0
  -25.9056  -32.4799   23.8361 C   0  0  1  0  0  0
  -27.2255  -27.3800   20.1108 C   0  0  0  0  0  0
  -25.5896  -33.8595   24.2292 N   0  0  0  0  0  0
  -23.4104  -30.4866   21.5449 C   0  0  2  0  0  0
  -24.8561  -28.9434   20.1103 C   0  0  0  0  0  0
  -22.7443  -29.4653   22.4947 C   0  0  0  0  0  0
  -18.0278  -28.1375   22.8489 C   0  0  0  0  0  0
  -24.1508  -36.7320   23.2636 C   0  0  0  0  0  0
  -25.9442  -30.8133   21.3630 C   0  0  0  0  0  0
  -26.0190  -29.4453   20.7082 C   0  0  0  0  0  0
  -27.2092  -28.6739   20.6976 C   0  0  0  0  0  0
  -26.0475  -26.9050   19.5008 C   0  0  0  0  0  0
  -24.8698  -27.6784   19.4979 C   0  0  0  0  0  0
  -23.6209  -29.8158   20.1619 C   0  0  0  0  0  0
  -25.4112  -36.3087   24.0327 C   0  0  1  0  0  0
  -20.5869  -28.3671   23.1316 C   0  0  2  0  0  0
  -20.6770  -26.9400   22.5428 C   0  0  0  0  0  0
  -19.5752  -26.6374   21.5225 C   0  0  0  0  0  0
  -18.1912  -26.7917   22.1612 C   0  0  0  0  0  0
  -19.1514  -28.8826   23.2906 C   0  0  0  0  0  0
  -18.9456  -30.1428   23.8918 C   0  0  0  0  0  0
  -17.6456  -30.6579   24.0557 C   0  0  0  0  0  0
  -25.9048  -34.9456   23.5111 C   0  0  0  0  0  0
  -16.5352  -29.9069   23.6339 C   0  0  0  0  0  0
  -16.7262  -28.6493   23.0354 C   0  0  0  0  0  0
  -26.4455  -31.6587   25.0722 C   0  0  0  0  0  0
  -25.3692  -31.3670   26.1454 C   0  0  0  0  0  0
  -27.0279  -30.3021   24.6107 C   0  0  0  0  0  0
  -27.6044  -32.4295   25.7443 C   0  0  0  0  0  0
  -27.5570  -37.1800   24.8455 C   0  0  0  0  0  0
  -21.4155  -29.3052   22.3715 N   0  0  0  0  0  0
  -26.4290  -37.3774   23.9397 N   0  0  0  0  0  0
  -24.6765  -31.0710   22.0948 N   0  0  0  0  0  0
  -23.4184  -28.8188   23.3001 O   0  0  0  0  0  0
  -28.3723  -26.6008   20.1118 O   0  0  0  0  0  0
  -26.5640  -34.8926   22.4704 O   0  0  0  0  0  0
  -23.5375  -32.1396   23.7428 O   0  0  0  0  0  0
  -28.6148  -22.6815   20.4392 C   0  0  0  0  0  0
  -27.9978  -23.9055   18.6947 C   0  0  0  0  0  0
  -28.3389  -24.0292   20.0086 C   0  0  0  0  0  0
  -28.4256  -21.7789   19.4088 C   0  0  0  0  0  0
  -27.4280  -25.2804   22.0449 C   0  0  0  0  0  0
  -28.1844  -23.0843   15.8586 C   0  0  0  0  0  0
  -26.1767  -21.8905   16.8816 C   0  0  0  0  0  0
  -28.4423  -20.2275   19.3552 C   0  0  0  0  0  0
  -30.2386  -17.0732   20.9428 C   0  0  0  0  0  0
  -29.1608  -17.9607   20.2160 C   0  0  0  0  0  0
  -28.3936  -25.3297   20.8403 C   0  0  2  0  0  0
  -27.6948  -22.1170   16.9582 C   0  0  0  0  0  0
  -28.0632  -22.5700   18.3052 N   0  0  0  0  0  0
  -29.9157  -15.6145   20.9674 N   0  0  0  0  0  0
  -29.3718  -19.4536   20.2475 N   0  3  0  0  0  0
  -31.4794  -12.4781   19.1416 H   0  0  0  0  0  0
  -30.3643  -11.3608   19.8751 H   0  0  0  0  0  0
  -29.7652  -11.7564   17.4693 H   0  0  0  0  0  0
  -29.6591  -13.4774   17.7501 H   0  0  0  0  0  0
  -27.8566  -11.2937   18.8516 H   0  0  0  0  0  0
  -27.3780  -12.5966   17.7931 H   0  0  0  0  0  0
  -27.6863  -14.2503   19.5424 H   0  0  0  0  0  0
  -28.7003  -12.0264   21.3817 H   0  0  0  0  0  0
  -28.4548  -13.6809   21.8507 H   0  0  0  0  0  0
  -25.2766   -9.5693   22.4741 H   0  0  0  0  0  0
  -24.0015   -7.4636   22.7459 H   0  0  0  0  0  0
  -21.0856   -8.8774   19.8930 H   0  0  0  0  0  0
  -22.3704  -10.9674   19.6159 H   0  0  0  0  0  0
  -21.1996   -7.6141   23.9710 H   0  0  0  0  0  0
  -21.1478   -6.0513   25.9070 H   0  0  0  0  0  0
  -22.0605   -2.7610   23.2833 H   0  0  0  0  0  0
  -22.4126  -11.9874   22.4776 H   0  0  0  0  0  0
  -21.1124  -13.1223   22.2608 H   0  0  0  0  0  0
  -24.6592  -15.8412   20.4881 H   0  0  0  0  0  0
  -26.2758  -15.6170   20.0492 H   0  0  0  0  0  0
  -26.7114  -32.5489   23.1111 H   0  0  0  0  0  0
  -25.0013  -33.9746   25.0403 H   0  0  0  0  0  0
  -22.7026  -31.3055   21.3992 H   0  0  0  0  0  0
  -23.3756  -35.9672   23.3317 H   0  0  0  0  0  0
  -24.3583  -36.8949   22.2048 H   0  0  0  0  0  0
  -23.7285  -37.6534   23.6678 H   0  0  0  0  0  0
  -26.0700  -31.5738   20.5915 H   0  0  0  0  0  0
  -26.8278  -30.8653   21.9870 H   0  0  0  0  0  0
  -28.1100  -29.0531   21.1617 H   0  0  0  0  0  0
  -26.0357  -25.9285   19.0423 H   0  0  0  0  0  0
  -23.9791  -27.2875   19.0257 H   0  0  0  0  0  0
  -23.7279  -30.5900   19.4028 H   0  0  0  0  0  0
  -22.7432  -29.2352   19.8672 H   0  0  0  0  0  0
  -25.1287  -36.1942   25.0818 H   0  0  0  0  0  0
  -20.9967  -28.3242   24.1434 H   0  0  0  0  0  0
  -20.5692  -26.2254   23.3611 H   0  0  0  0  0  0
  -21.6624  -26.7454   22.1180 H   0  0  0  0  0  0
  -19.6929  -25.6296   21.1216 H   0  0  0  0  0  0
  -19.6691  -27.3213   20.6792 H   0  0  0  0  0  0
  -17.4195  -26.6694   21.4018 H   0  0  0  0  0  0
  -18.0301  -26.0056   22.9005 H   0  0  0  0  0  0
  -19.7932  -30.7237   24.2286 H   0  0  0  0  0  0
  -17.5017  -31.6265   24.5147 H   0  0  0  0  0  0
  -15.5344  -30.2971   23.7656 H   0  0  0  0  0  0
  -15.8674  -28.0814   22.7062 H   0  0  0  0  0  0
  -24.5920  -30.6967   25.7771 H   0  0  0  0  0  0
  -24.8808  -32.2802   26.4881 H   0  0  0  0  0  0
  -25.7991  -30.8848   27.0238 H   0  0  0  0  0  0
  -26.2818  -29.6770   24.1193 H   0  0  0  0  0  0
  -27.4094  -29.7255   25.4541 H   0  0  0  0  0  0
  -27.8629  -30.4340   23.9209 H   0  0  0  0  0  0
  -27.2735  -33.3645   26.1952 H   0  0  0  0  0  0
  -28.3834  -32.6762   25.0229 H   0  0  0  0  0  0
  -28.0727  -31.8456   26.5380 H   0  0  0  0  0  0
  -28.2572  -38.0116   24.7516 H   0  0  0  0  0  0
  -28.1054  -36.2635   24.6238 H   0  0  0  0  0  0
  -27.2281  -37.1416   25.8856 H   0  0  0  0  0  0
  -20.9305  -29.8766   21.6938 H   0  0  0  0  0  0
  -26.0173  -38.2848   24.1410 H   0  0  0  0  0  0
  -28.8875  -22.3958   21.4447 H   0  0  0  0  0  0
  -27.6974  -24.6741   17.9956 H   0  0  0  0  0  0
  -27.5234  -26.1768   22.6566 H   0  0  0  0  0  0
  -27.6435  -24.4208   22.6804 H   0  0  0  0  0  0
  -26.3881  -25.2012   21.7314 H   0  0  0  0  0  0
  -28.1234  -22.6162   14.8761 H   0  0  0  0  0  0
  -29.2243  -23.3743   16.0107 H   0  0  0  0  0  0
  -27.5910  -23.9978   15.8147 H   0  0  0  0  0  0
  -25.8756  -21.4956   15.9102 H   0  0  0  0  0  0
  -25.6277  -22.8193   17.0428 H   0  0  0  0  0  0
  -25.8482  -21.1780   17.6386 H   0  0  0  0  0  0
  -28.6798  -19.8899   18.3465 H   0  0  0  0  0  0
  -27.4262  -19.8734   19.5343 H   0  0  0  0  0  0
  -30.3478  -17.4043   21.9772 H   0  0  0  0  0  0
  -31.2118  -17.2363   20.4762 H   0  0  0  0  0  0
  -28.1807  -17.7519   20.6477 H   0  0  0  0  0  0
  -29.1035  -17.6411   19.1753 H   0  0  0  0  0  0
  -29.3951  -25.3094   21.2713 H   0  0  0  0  0  0
  -28.1953  -21.1715   16.7553 H   0  0  0  0  0  0
  -29.0085  -15.3617   21.3324 H   0  0  0  0  0  0
  -29.2608  -19.7720   21.1960 H   0  0  0  0  0  0
  -30.3143  -19.6599   19.9613 H   0  0  0  0  0  0
  1 25  1  0  0  0
  1 30  2  0  0  0
  1 84  1  0  0  0
  2  3  1  0  0  0
  2 25  1  0  0  0
  2 86  1  0  0  0
  2 87  1  0  0  0
  3  4  1  0  0  0
  3 88  1  0  0  0
  3 89  1  0  0  0
  4  5  1  0  0  0
  4 90  1  0  0  0
  4 91  1  0  0  0
  5  6  1  0  0  0
  5 26  1  0  0  0
  5 92  1  0  0  0
  6 25  1  0  0  0
  6 93  1  0  0  0
  6 94  1  0  0  0
  7  8  2  0  0  0
  7 26  1  0  0  0
  7 29  1  0  0  0
  8  9  1  0  0  0
  8 22  1  0  0  0
  9 10  1  0  0  0
  9 27  2  0  0  0
 10 11  2  0  0  0
 10 15  1  0  0  0
 11 12  1  0  0  0
 11 95  1  0  0  0
 12 13  2  0  0  0
 12 96  1  0  0  0
 13 14  1  0  0  0
 13 31  1  0  0  0
 14 15  2  0  0  0
 14 97  1  0  0  0
 15 98  1  0  0  0
 16 17  2  0  0  0
 16 21  1  0  0  0
 16 31  1  0  0  0
 17 18  1  0  0  0
 17 99  1  0  0  0
 18 19  2  0  0  0
 18100  1  0  0  0
 19 20  1  0  0  0
 19 24  1  0  0  0
 20 21  2  0  0  0
 20101  1  0  0  0
 21 23  1  0  0  0
 22 28  1  0  0  0
 22 32  2  0  0  0
 26 27  1  0  0  0
 28102  1  0  0  0
 28103  1  0  0  0
 29104  1  0  0  0
 29105  1  0  0  0
 33 34  1  0  0  0
 33 66  1  0  0  0
 33 70  2  0  0  0
 34 36  1  0  0  0
 34 59  1  0  0  0
 34106  1  0  0  0
 35 44  2  0  0  0
 35 45  1  0  0  0
 35 68  1  0  0  0
 36 56  1  0  0  0
 36107  1  0  0  0
 37 39  1  0  0  0
 37 47  1  0  0  0
 37 66  1  0  0  0
 37108  1  0  0  0
 38 43  2  0  0  0
 38 46  1  0  0  0
 38 47  1  0  0  0
 39 64  1  0  0  0
 39 67  2  0  0  0
 40 52  1  0  0  0
 40 53  2  0  0  0
 40 58  1  0  0  0
 41109  1  0  0  0
 41110  1  0  0  0
 41111  1  0  0  0
 41 48  1  0  0  0
 42 43  1  0  0  0
 42 66  1  0  0  0
 42112  1  0  0  0
 42113  1  0  0  0
 43 44  1  0  0  0
 44114  1  0  0  0
 45 46  2  0  0  0
 45115  1  0  0  0
 46116  1  0  0  0
 47117  1  0  0  0
 47118  1  0  0  0
 48 56  1  0  0  0
 48 65  1  0  0  0
 48119  1  0  0  0
 49 50  1  0  0  0
 49 53  1  0  0  0
 49 64  1  0  0  0
 49120  1  0  0  0
 50 51  1  0  0  0
 50121  1  0  0  0
 50122  1  0  0  0
 51 52  1  0  0  0
 51123  1  0  0  0
 51124  1  0  0  0
 52125  1  0  0  0
 52126  1  0  0  0
 53 54  1  0  0  0
 54 55  2  0  0  0
 54127  1  0  0  0
 55 57  1  0  0  0
 55128  1  0  0  0
 56 69  2  0  0  0
 57 58  2  0  0  0
 57129  1  0  0  0
 58130  1  0  0  0
 59 60  1  0  0  0
 59 61  1  0  0  0
 59 62  1  0  0  0
 60131  1  0  0  0
 60132  1  0  0  0
 60133  1  0  0  0
 61134  1  0  0  0
 61135  1  0  0  0
 61136  1  0  0  0
 62137  1  0  0  0
 62138  1  0  0  0
 62139  1  0  0  0
 63 65  1  0  0  0
 63140  1  0  0  0
 63141  1  0  0  0
 63142  1  0  0  0
 64143  1  0  0  0
 65144  1  0  0  0
 68 81  1  0  0  0
 71 73  1  0  0  0
 71 74  2  0  0  0
 71145  1  0  0  0
 72 73  2  0  0  0
 72 83  1  0  0  0
 72146  1  0  0  0
 73 81  1  0  0  0
 74 78  1  0  0  0
 74 83  1  0  0  0
 75147  1  0  0  0
 75148  1  0  0  0
 75149  1  0  0  0
 75 81  1  0  0  0
 76150  1  0  0  0
 76151  1  0  0  0
 76152  1  0  0  0
 76 82  1  0  0  0
 77 82  1  0  0  0
 77153  1  0  0  0
 77154  1  0  0  0
 77155  1  0  0  0
 78 85  1  0  0  0
 78156  1  0  0  0
 78157  1  0  0  0
 79 80  1  0  0  0
 79 84  1  0  0  0
 79158  1  0  0  0
 79159  1  0  0  0
 80 85  1  0  0  0
 80160  1  0  0  0
 80161  1  0  0  0
 81162  1  0  0  0
 82 83  1  0  0  0
 82163  1  0  0  0
 84164  1  0  0  0
 85165  1  0  0  0
 85166  1  0  0  0
M  CHG  1  85   1
M  ISO  4   1 100  68 101  81 101  84 100
M  END
> <chiral flag>
0

> <version>
0

> <s_m_source_file>
/data/baiqing/PycharmProjects/Reinvent-master-3.2/result/LINK_invent/BTK/process_docking_weight1_custom_sum_contain_oxygen_bond_distance_aromatic_linkinvent_7_9_3/rearranged_h_0123.sdf

> <i_m_source_file_index>
56

> <r_mmod_Potential_Energy-OPLS-2005>
-262.37158203125

> <r_mmod_Stretch_Energy-OPLS-2005>
57.1500282287598

> <r_mmod_Bend_Energy-OPLS-2005>
122.68236541748

> <r_mmod_Torsional_Energy-OPLS-2005>
250.289703369141

> <r_mmod_Improper_Torsional_Energy-OPLS-2005>
4.59594917297363

> <r_mmod_Van_der_Waal_Energy-OPLS-2005>
119.301162719727

> <r_mmod_Electrostatic_Energy-OPLS-2005>
-359.15771484375

> <r_mmod_Solvation_Energy-OPLS-2005>
-483.533355712891

> <b_mmod_Minimization_Converged-OPLS-2005>
0

> <r_mmod_RMS_Derivative-OPLS-2005>
3.83104109764099

$$$$
56
                    3D
 Structure written by MMmdl.
166175  0  0  1  0            999 V2000
  -30.7523  -14.4167   20.6208 C   0  0  0  0  0  0
  -30.4114  -12.2922   19.4185 C   0  0  0  0  0  0
  -29.4870  -12.5049   18.2044 C   0  0  0  0  0  0
  -28.0114  -12.3655   18.6211 C   0  0  0  0  0  0
  -27.6623  -13.2082   19.8760 C   0  0  2  0  0  0
  -28.7023  -12.9894   20.9995 C   0  0  0  0  0  0
  -25.2588  -13.8171   20.5688 C   0  0  0  0  0  0
  -24.1848  -13.0442   20.9203 C   0  0  0  0  0  0
  -24.6406  -11.6909   20.8763 C   0  0  0  0  0  0
  -23.9074  -10.4292   21.0429 C   0  0  0  0  0  0
  -24.3627   -9.4200   21.9201 C   0  0  0  0  0  0
  -23.6299   -8.2239   22.0763 C   0  0  0  0  0  0
  -22.4280   -8.0285   21.3552 C   0  0  0  0  0  0
  -21.9926   -9.0263   20.4650 C   0  0  0  0  0  0
  -22.7259  -10.2135   20.3063 C   0  0  0  0  0  0
  -21.6844   -6.0746   22.5287 C   0  0  0  0  0  0
  -21.4006   -6.5648   23.8224 C   0  0  0  0  0  0
  -21.3654   -5.6802   24.9186 C   0  0  0  0  0  0
  -21.6045   -4.3064   24.7237 C   0  0  0  0  0  0
  -21.8814   -3.8156   23.4356 C   0  0  0  0  0  0
  -21.9191   -4.6971   22.3409 C   0  0  0  0  0  0
  -22.7866  -13.5240   21.1851 C   0  0  0  0  0  0
  -22.1659   -4.2158   21.0987 F   0  0  0  0  0  0
  -21.5630   -3.4542   25.7747 F   0  0  0  0  0  0
  -30.0389  -13.2725   20.4509 N   0  0  0  0  0  0
  -26.3024  -12.9341   20.3365 N   0  0  0  0  0  0
  -25.9327  -11.6499   20.5782 N   0  0  0  0  0  0
  -22.0492  -12.8228   22.0397 N   0  0  0  0  0  0
  -25.4307  -15.1876   20.4062 N   0  0  0  0  0  0
  -31.8329  -14.6159   20.0613 O   0  0  0  0  0  0
  -21.6633   -6.8890   21.4251 O   0  0  0  0  0  0
  -22.3564  -14.5555   20.6710 O   0  0  0  0  0  0
  -24.6158  -31.8711   23.2119 C   0  0  0  0  0  0
  -25.9049  -32.4845   23.8402 C   0  0  1  0  0  0
  -27.2165  -27.4190   20.0974 C   0  0  0  0  0  0
  -25.5901  -33.8636   24.2335 N   0  0  0  0  0  0
  -23.4018  -30.4980   21.5563 C   0  0  2  0  0  0
  -24.8438  -28.9662   20.1170 C   0  0  0  0  0  0
  -22.7422  -29.4689   22.5020 C   0  0  0  0  0  0
  -18.0286  -28.1363   22.8505 C   0  0  0  0  0  0
  -24.1493  -36.7312   23.2644 C   0  0  0  0  0  0
  -25.9358  -30.8267   21.3745 C   0  0  0  0  0  0
  -26.0080  -29.4628   20.7185 C   0  0  0  0  0  0
  -27.1978  -28.6959   20.7084 C   0  0  0  0  0  0
  -26.0414  -26.9611   19.4637 C   0  0  0  0  0  0
  -24.8561  -27.7138   19.4857 C   0  0  0  0  0  0
  -23.6091  -29.8365   20.1696 C   0  0  0  0  0  0
  -25.4114  -36.3113   24.0337 C   0  0  1  0  0  0
  -20.5876  -28.3666   23.1317 C   0  0  2  0  0  0
  -20.6781  -26.9407   22.5408 C   0  0  0  0  0  0
  -19.5748  -26.6387   21.5217 C   0  0  0  0  0  0
  -18.1930  -26.7914   22.1627 C   0  0  0  0  0  0
  -19.1532  -28.8831   23.2908 C   0  0  0  0  0  0
  -18.9448  -30.1431   23.8924 C   0  0  0  0  0  0
  -17.6445  -30.6577   24.0556 C   0  0  0  0  0  0
  -25.9043  -34.9487   23.5126 C   0  0  0  0  0  0
  -16.5339  -29.9076   23.6318 C   0  0  0  0  0  0
  -16.7269  -28.6484   23.0365 C   0  0  0  0  0  0
  -26.4455  -31.6624   25.0737 C   0  0  0  0  0  0
  -25.3692  -31.3687   26.1457 C   0  0  0  0  0  0
  -27.0323  -30.3082   24.6125 C   0  0  0  0  0  0
  -27.6039  -32.4353   25.7480 C   0  0  0  0  0  0
  -27.5591  -37.1808   24.8461 C   0  0  0  0  0  0
  -21.4160  -29.3036   22.3731 N   0  0  0  0  0  0
  -26.4307  -37.3797   23.9397 N   0  0  0  0  0  0
  -24.6698  -31.0798   22.1044 N   0  0  0  0  0  0
  -23.4197  -28.8223   23.3051 O   0  0  0  0  0  0
  -28.3729  -26.6655   20.0798 O   0  0  0  0  0  0
  -26.5624  -34.8935   22.4702 O   0  0  0  0  0  0
  -23.5356  -32.1474   23.7521 O   0  0  0  0  0  0
  -26.5910  -21.0762   17.0188 C   0  0  0  0  0  0
  -27.0803  -19.7671   17.1088 C   0  0  0  0  0  0
  -26.9132  -22.0129   18.0138 C   0  0  0  0  0  0
  -27.8686  -19.3870   18.2112 C   0  0  0  0  0  0
  -28.1538  -20.3072   19.2580 C   0  0  0  0  0  0
  -27.7124  -21.6619   19.1329 C   0  0  0  0  0  0
  -28.3960  -17.9652   18.2574 C   0  0  0  0  0  0
  -28.9454  -19.8223   20.4905 C   0  0  0  0  0  0
  -29.5480  -17.7989   19.2521 C   0  0  0  0  0  0
  -28.0934  -22.7453   20.1654 C   0  0  0  0  0  0
  -27.8560  -24.2105   19.6995 C   0  0  0  0  0  0
  -30.8421  -16.6664   21.6707 C   0  0  0  0  0  0
  -29.9220  -17.9172   21.7727 C   0  0  0  0  0  0
  -28.3155  -25.3404   20.6578 C   0  0  0  0  0  0
  -30.1876  -15.3758   21.3764 N   0  0  0  0  0  0
  -29.1322  -18.3381   20.5682 N   0  3  1  0  0  0
  -31.4577  -12.3723   19.1173 H   0  0  0  0  0  0
  -30.2971  -11.2810   19.8113 H   0  0  0  0  0  0
  -29.7214  -11.7818   17.4219 H   0  0  0  0  0  0
  -29.6599  -13.4913   17.7722 H   0  0  0  0  0  0
  -27.8263  -11.3097   18.8239 H   0  0  0  0  0  0
  -27.3568  -12.6333   17.7909 H   0  0  0  0  0  0
  -27.7087  -14.2553   19.5762 H   0  0  0  0  0  0
  -28.6688  -11.9563   21.3490 H   0  0  0  0  0  0
  -28.4614  -13.5990   21.8709 H   0  0  0  0  0  0
  -25.2765   -9.5666   22.4785 H   0  0  0  0  0  0
  -23.9999   -7.4625   22.7480 H   0  0  0  0  0  0
  -21.0859   -8.8792   19.8948 H   0  0  0  0  0  0
  -22.3735  -10.9685   19.6173 H   0  0  0  0  0  0
  -21.1990   -7.6152   23.9733 H   0  0  0  0  0  0
  -21.1480   -6.0528   25.9092 H   0  0  0  0  0  0
  -22.0596   -2.7615   23.2857 H   0  0  0  0  0  0
  -22.4080  -11.9863   22.4751 H   0  0  0  0  0  0
  -21.1107  -13.1260   22.2592 H   0  0  0  0  0  0
  -24.6581  -15.8392   20.4936 H   0  0  0  0  0  0
  -26.2679  -15.6107   20.0312 H   0  0  0  0  0  0
  -26.7128  -32.5532   23.1180 H   0  0  0  0  0  0
  -24.9992  -33.9780   25.0440 H   0  0  0  0  0  0
  -22.6894  -31.3150   21.4220 H   0  0  0  0  0  0
  -23.3770  -35.9631   23.3310 H   0  0  0  0  0  0
  -24.3574  -36.8922   22.2051 H   0  0  0  0  0  0
  -23.7246  -37.6514   23.6668 H   0  0  0  0  0  0
  -26.0618  -31.5946   20.6093 H   0  0  0  0  0  0
  -26.8196  -30.8674   21.9997 H   0  0  0  0  0  0
  -28.0959  -29.0739   21.1781 H   0  0  0  0  0  0
  -26.0229  -26.0435   18.9058 H   0  0  0  0  0  0
  -23.9695  -27.3354   18.9945 H   0  0  0  0  0  0
  -23.7164  -30.6136   19.4117 H   0  0  0  0  0  0
  -22.7304  -29.2595   19.8750 H   0  0  0  0  0  0
  -25.1306  -36.1983   25.0835 H   0  0  0  0  0  0
  -20.9949  -28.3243   24.1444 H   0  0  0  0  0  0
  -20.5716  -26.2272   23.3591 H   0  0  0  0  0  0
  -21.6654  -26.7476   22.1175 H   0  0  0  0  0  0
  -19.6904  -25.6309   21.1228 H   0  0  0  0  0  0
  -19.6684  -27.3223   20.6764 H   0  0  0  0  0  0
  -17.4204  -26.6686   21.4021 H   0  0  0  0  0  0
  -18.0300  -26.0041   22.8998 H   0  0  0  0  0  0
  -19.7923  -30.7228   24.2331 H   0  0  0  0  0  0
  -17.5010  -31.6265   24.5149 H   0  0  0  0  0  0
  -15.5343  -30.2979   23.7640 H   0  0  0  0  0  0
  -15.8666  -28.0799   22.7084 H   0  0  0  0  0  0
  -24.5876  -30.7057   25.7743 H   0  0  0  0  0  0
  -24.8853  -32.2809   26.4952 H   0  0  0  0  0  0
  -25.7998  -30.8795   27.0199 H   0  0  0  0  0  0
  -26.2891  -29.6808   24.1183 H   0  0  0  0  0  0
  -27.4123  -29.7348   25.4585 H   0  0  0  0  0  0
  -27.8709  -30.4435   23.9285 H   0  0  0  0  0  0
  -27.2702  -33.3679   26.2038 H   0  0  0  0  0  0
  -28.3832  -32.6864   25.0275 H   0  0  0  0  0  0
  -28.0727  -31.8480   26.5382 H   0  0  0  0  0  0
  -28.2611  -38.0112   24.7559 H   0  0  0  0  0  0
  -28.1095  -36.2642   24.6261 H   0  0  0  0  0  0
  -27.2289  -37.1427   25.8860 H   0  0  0  0  0  0
  -20.9335  -29.8730   21.6923 H   0  0  0  0  0  0
  -26.0200  -38.2883   24.1385 H   0  0  0  0  0  0
  -25.9810  -21.3707   16.1752 H   0  0  0  0  0  0
  -26.8434  -19.0546   16.3289 H   0  0  0  0  0  0
  -26.5282  -23.0116   17.8763 H   0  0  0  0  0  0
  -28.7318  -17.6682   17.2628 H   0  0  0  0  0  0
  -27.5692  -17.2996   18.5149 H   0  0  0  0  0  0
  -28.4351  -20.1623   21.3928 H   0  0  0  0  0  0
  -29.9221  -20.3098   20.4703 H   0  0  0  0  0  0
  -30.4453  -18.3124   18.9041 H   0  0  0  0  0  0
  -29.7846  -16.7405   19.2783 H   0  0  0  0  0  0
  -29.1465  -22.6282   20.4228 H   0  0  0  0  0  0
  -27.5244  -22.5637   21.0777 H   0  0  0  0  0  0
  -26.7856  -24.3039   19.5592 H   0  0  0  0  0  0
  -28.3373  -24.3627   18.7327 H   0  0  0  0  0  0
  -31.3592  -16.5460   22.6244 H   0  0  0  0  0  0
  -31.6350  -16.8882   20.9535 H   0  0  0  0  0  0
  -30.5676  -18.7450   22.0711 H   0  0  0  0  0  0
  -29.2268  -17.7915   22.6038 H   0  0  0  0  0  0
  -29.3274  -25.1097   20.9903 H   0  0  0  0  0  0
  -27.7035  -25.3468   21.5610 H   0  0  0  0  0  0
  -29.3158  -15.1547   21.8362 H   0  0  0  0  0  0
  -28.2104  -17.9598   20.7215 H   0  0  0  0  0  0
  1 25  1  0  0  0
  1 30  2  0  0  0
  1 85  1  0  0  0
  2  3  1  0  0  0
  2 25  1  0  0  0
  2 87  1  0  0  0
  2 88  1  0  0  0
  3  4  1  0  0  0
  3 89  1  0  0  0
  3 90  1  0  0  0
  4  5  1  0  0  0
  4 91  1  0  0  0
  4 92  1  0  0  0
  5  6  1  0  0  0
  5 26  1  0  0  0
  5 93  1  0  0  0
  6 25  1  0  0  0
  6 94  1  0  0  0
  6 95  1  0  0  0
  7  8  2  0  0  0
  7 26  1  0  0  0
  7 29  1  0  0  0
  8  9  1  0  0  0
  8 22  1  0  0  0
  9 10  1  0  0  0
  9 27  2  0  0  0
 10 11  2  0  0  0
 10 15  1  0  0  0
 11 12  1  0  0  0
 11 96  1  0  0  0
 12 13  2  0  0  0
 12 97  1  0  0  0
 13 14  1  0  0  0
 13 31  1  0  0  0
 14 15  2  0  0  0
 14 98  1  0  0  0
 15 99  1  0  0  0
 16 17  2  0  0  0
 16 21  1  0  0  0
 16 31  1  0  0  0
 17 18  1  0  0  0
 17100  1  0  0  0
 18 19  2  0  0  0
 18101  1  0  0  0
 19 20  1  0  0  0
 19 24  1  0  0  0
 20 21  2  0  0  0
 20102  1  0  0  0
 21 23  1  0  0  0
 22 28  1  0  0  0
 22 32  2  0  0  0
 26 27  1  0  0  0
 28103  1  0  0  0
 28104  1  0  0  0
 29105  1  0  0  0
 29106  1  0  0  0
 33 34  1  0  0  0
 33 66  1  0  0  0
 33 70  2  0  0  0
 34 36  1  0  0  0
 34 59  1  0  0  0
 34107  1  0  0  0
 35 44  2  0  0  0
 35 45  1  0  0  0
 35 68  1  0  0  0
 36 56  1  0  0  0
 36108  1  0  0  0
 37 39  1  0  0  0
 37 47  1  0  0  0
 37 66  1  0  0  0
 37109  1  0  0  0
 38 43  2  0  0  0
 38 46  1  0  0  0
 38 47  1  0  0  0
 39 64  1  0  0  0
 39 67  2  0  0  0
 40 52  1  0  0  0
 40 53  2  0  0  0
 40 58  1  0  0  0
 41110  1  0  0  0
 41111  1  0  0  0
 41112  1  0  0  0
 41 48  1  0  0  0
 42 43  1  0  0  0
 42 66  1  0  0  0
 42113  1  0  0  0
 42114  1  0  0  0
 43 44  1  0  0  0
 44115  1  0  0  0
 45 46  2  0  0  0
 45116  1  0  0  0
 46117  1  0  0  0
 47118  1  0  0  0
 47119  1  0  0  0
 48 56  1  0  0  0
 48 65  1  0  0  0
 48120  1  0  0  0
 49 50  1  0  0  0
 49 53  1  0  0  0
 49 64  1  0  0  0
 49121  1  0  0  0
 50 51  1  0  0  0
 50122  1  0  0  0
 50123  1  0  0  0
 51 52  1  0  0  0
 51124  1  0  0  0
 51125  1  0  0  0
 52126  1  0  0  0
 52127  1  0  0  0
 53 54  1  0  0  0
 54 55  2  0  0  0
 54128  1  0  0  0
 55 57  1  0  0  0
 55129  1  0  0  0
 56 69  2  0  0  0
 57 58  2  0  0  0
 57130  1  0  0  0
 58131  1  0  0  0
 59 60  1  0  0  0
 59 61  1  0  0  0
 59 62  1  0  0  0
 60132  1  0  0  0
 60133  1  0  0  0
 60134  1  0  0  0
 61135  1  0  0  0
 61136  1  0  0  0
 61137  1  0  0  0
 62138  1  0  0  0
 62139  1  0  0  0
 62140  1  0  0  0
 63 65  1  0  0  0
 63141  1  0  0  0
 63142  1  0  0  0
 63143  1  0  0  0
 64144  1  0  0  0
 65145  1  0  0  0
 68 84  1  0  0  0
 71 72  2  0  0  0
 71 73  1  0  0  0
 71146  1  0  0  0
 72 74  1  0  0  0
 72147  1  0  0  0
 73 76  2  0  0  0
 73148  1  0  0  0
 74 75  2  0  0  0
 74 77  1  0  0  0
 75 76  1  0  0  0
 75 78  1  0  0  0
 76 80  1  0  0  0
 77 79  1  0  0  0
 77149  1  0  0  0
 77150  1  0  0  0
 78 86  1  0  0  0
 78151  1  0  0  0
 78152  1  0  0  0
 79 86  1  0  0  0
 79153  1  0  0  0
 79154  1  0  0  0
 80 81  1  0  0  0
 80155  1  0  0  0
 80156  1  0  0  0
 81 84  1  0  0  0
 81157  1  0  0  0
 81158  1  0  0  0
 82 83  1  0  0  0
 82 85  1  0  0  0
 82159  1  0  0  0
 82160  1  0  0  0
 83161  1  0  0  0
 83162  1  0  0  0
 83 86  1  0  0  0
 84163  1  0  0  0
 84164  1  0  0  0
 85165  1  0  0  0
 86166  1  0  0  0
M  CHG  1  86   1
M  ISO  4   1 100  68 101  84 101  85 100
M  END
> <chiral flag>
0

> <version>
0

> <s_m_source_file>
/data/baiqing/PycharmProjects/Reinvent-master-3.2/result/LINK_invent/BTK/process_docking_weight1_custom_sum_contain_oxygen_bond_distance_aromatic_linkinvent_7_9_3/rearranged_h_0123.sdf

> <i_m_source_file_index>
57

> <r_mmod_Potential_Energy-OPLS-2005>
-163.032211303711

> <r_mmod_Stretch_Energy-OPLS-2005>
43.9248962402344

> <r_mmod_Bend_Energy-OPLS-2005>
114.348197937012

> <r_mmod_Torsional_Energy-OPLS-2005>
268.50390625

> <r_mmod_Improper_Torsional_Energy-OPLS-2005>
2.5833694934845

> <r_mmod_Van_der_Waal_Energy-OPLS-2005>
167.368194580078

> <r_mmod_Electrostatic_Energy-OPLS-2005>
-311.618927001953

> <r_mmod_Solvation_Energy-OPLS-2005>
-459.404937744141

> <b_mmod_Minimization_Converged-OPLS-2005>
0

> <r_mmod_RMS_Derivative-OPLS-2005>
2.02716302871704

$$$$
57
                    3D
 Structure written by MMmdl.
185194  0  0  1  0            999 V2000
  -30.7115  -14.5349   20.5295 C   0  0  0  0  0  0
  -30.4157  -12.3407   19.4245 C   0  0  0  0  0  0
  -29.4831  -12.4837   18.2050 C   0  0  0  0  0  0
  -28.0119  -12.3149   18.6306 C   0  0  0  0  0  0
  -27.6422  -13.1864   19.8563 C   0  0  2  0  0  0
  -28.6964  -13.0638   20.9822 C   0  0  0  0  0  0
  -25.2544  -13.8088   20.5687 C   0  0  0  0  0  0
  -24.1800  -13.0384   20.9212 C   0  0  0  0  0  0
  -24.6348  -11.6855   20.8784 C   0  0  0  0  0  0
  -23.9026  -10.4255   21.0440 C   0  0  0  0  0  0
  -24.3589   -9.4171   21.9204 C   0  0  0  0  0  0
  -23.6264   -8.2211   22.0763 C   0  0  0  0  0  0
  -22.4254   -8.0264   21.3547 C   0  0  0  0  0  0
  -21.9888   -9.0241   20.4645 C   0  0  0  0  0  0
  -22.7210  -10.2122   20.3068 C   0  0  0  0  0  0
  -21.6840   -6.0727   22.5278 C   0  0  0  0  0  0
  -21.4011   -6.5637   23.8212 C   0  0  0  0  0  0
  -21.3653   -5.6792   24.9173 C   0  0  0  0  0  0
  -21.6041   -4.3052   24.7227 C   0  0  0  0  0  0
  -21.8824   -3.8145   23.4349 C   0  0  0  0  0  0
  -21.9189   -4.6959   22.3401 C   0  0  0  0  0  0
  -22.7842  -13.5213   21.1868 C   0  0  0  0  0  0
  -22.1662   -4.2143   21.0978 F   0  0  0  0  0  0
  -21.5623   -3.4543   25.7742 F   0  0  0  0  0  0
  -30.0165  -13.3650   20.4046 N   0  0  0  0  0  0
  -26.2935  -12.9195   20.3340 N   0  0  0  0  0  0
  -25.9263  -11.6392   20.5816 N   0  0  0  0  0  0
  -22.0479  -12.8205   22.0422 N   0  0  0  0  0  0
  -25.4238  -15.1796   20.4047 N   0  0  0  0  0  0
  -31.8828  -14.6431   20.1560 O   0  0  0  0  0  0
  -21.6616   -6.8868   21.4240 O   0  0  0  0  0  0
  -22.3544  -14.5524   20.6709 O   0  0  0  0  0  0
  -24.6158  -31.8695   23.2112 C   0  0  0  0  0  0
  -25.9035  -32.4830   23.8418 C   0  0  1  0  0  0
  -27.2266  -27.4203   20.0969 C   0  0  0  0  0  0
  -25.5874  -33.8628   24.2341 N   0  0  0  0  0  0
  -23.4042  -30.4953   21.5535 C   0  0  2  0  0  0
  -24.8476  -28.9593   20.1190 C   0  0  0  0  0  0
  -22.7398  -29.4696   22.5007 C   0  0  0  0  0  0
  -18.0274  -28.1375   22.8530 C   0  0  0  0  0  0
  -24.1480  -36.7337   23.2645 C   0  0  0  0  0  0
  -25.9362  -30.8332   21.3640 C   0  0  0  0  0  0
  -26.0122  -29.4678   20.7064 C   0  0  0  0  0  0
  -27.2084  -28.7117   20.6780 C   0  0  0  0  0  0
  -26.0356  -26.9228   19.5221 C   0  0  0  0  0  0
  -24.8553  -27.6884   19.5207 C   0  0  0  0  0  0
  -23.6117  -29.8293   20.1694 C   0  0  0  0  0  0
  -25.4106  -36.3128   24.0344 C   0  0  1  0  0  0
  -20.5872  -28.3678   23.1338 C   0  0  2  0  0  0
  -20.6776  -26.9419   22.5442 C   0  0  0  0  0  0
  -19.5740  -26.6400   21.5246 C   0  0  0  0  0  0
  -18.1914  -26.7931   22.1647 C   0  0  0  0  0  0
  -19.1525  -28.8839   23.2928 C   0  0  0  0  0  0
  -18.9447  -30.1452   23.8924 C   0  0  0  0  0  0
  -17.6450  -30.6590   24.0586 C   0  0  0  0  0  0
  -25.9037  -34.9485   23.5154 C   0  0  0  0  0  0
  -16.5341  -29.9103   23.6322 C   0  0  0  0  0  0
  -16.7266  -28.6516   23.0356 C   0  0  0  0  0  0
  -26.4469  -31.6593   25.0733 C   0  0  0  0  0  0
  -25.3755  -31.3689   26.1503 C   0  0  0  0  0  0
  -27.0317  -30.3026   24.6127 C   0  0  0  0  0  0
  -27.6041  -32.4352   25.7469 C   0  0  0  0  0  0
  -27.5594  -37.1817   24.8463 C   0  0  0  0  0  0
  -21.4127  -29.3044   22.3724 N   0  0  0  0  0  0
  -26.4300  -37.3806   23.9416 N   0  0  0  0  0  0
  -24.6713  -31.0790   22.1018 N   0  0  0  0  0  0
  -23.4155  -28.8249   23.3075 O   0  0  0  0  0  0
  -28.3985  -26.6844   20.0898 O   0  0  0  0  0  0
  -26.5608  -34.8924   22.4720 O   0  0  0  0  0  0
  -23.5349  -32.1456   23.7501 O   0  0  0  0  0  0
  -29.6227  -20.8553   19.8469 C   0  0  0  0  0  0
  -29.7132  -22.2941   21.5349 C   0  0  0  0  0  0
  -29.7275  -22.2512   20.1699 C   0  0  0  0  0  0
  -29.5956  -20.0997   20.9953 C   0  0  0  0  0  0
  -29.2001  -17.8031   19.9241 C   0  0  0  0  0  0
  -30.8086  -17.9406   21.7566 C   0  0  0  0  0  0
  -29.0047  -16.2888   20.1824 C   0  0  0  0  0  0
  -30.5915  -16.4439   22.1055 C   0  0  0  0  0  0
  -29.5267  -18.5894   21.1987 C   0  0  0  0  0  0
  -26.9877  -21.1659   23.5107 C   0  0  0  0  0  0
  -32.1540  -22.0012   16.4623 C   0  0  0  0  0  0
  -28.6444  -25.2039   17.7614 C   0  0  0  0  0  0
  -30.8796  -21.0817   24.1538 C   0  0  0  0  0  0
  -28.3522  -21.4391   24.1661 C   0  0  0  0  0  0
  -31.7776  -22.4949   17.8669 C   0  0  0  0  0  0
  -28.3050  -25.2560   20.3018 C   0  0  0  0  0  0
  -29.8926  -23.4535   19.2236 C   0  0  2  0  0  0
  -28.6158  -24.3563   19.0600 C   0  0  2  0  0  0
  -29.5433  -20.7251   23.4855 C   0  0  1  0  0  0
  -29.6072  -21.0109   22.0513 N   0  0  0  0  0  0
  -30.0427  -15.6245   21.0041 N   0  0  0  0  0  0
  -30.3793  -22.9774   17.9092 N   0  3  0  0  0  0
  -31.4571  -12.4379   19.1135 H   0  0  0  0  0  0
  -30.3250  -11.3459   19.8629 H   0  0  0  0  0  0
  -29.7356  -11.7397   17.4485 H   0  0  0  0  0  0
  -29.6247  -13.4587   17.7354 H   0  0  0  0  0  0
  -27.8551  -11.2621   18.8690 H   0  0  0  0  0  0
  -27.3465  -12.5383   17.7955 H   0  0  0  0  0  0
  -27.6281  -14.2012   19.4847 H   0  0  0  0  0  0
  -28.6965  -12.0559   21.3981 H   0  0  0  0  0  0
  -28.4533  -13.7296   21.8115 H   0  0  0  0  0  0
  -25.2744   -9.5641   22.4770 H   0  0  0  0  0  0
  -23.9970   -7.4604   22.7484 H   0  0  0  0  0  0
  -21.0824   -8.8762   19.8946 H   0  0  0  0  0  0
  -22.3679  -10.9671   19.6182 H   0  0  0  0  0  0
  -21.2011   -7.6147   23.9710 H   0  0  0  0  0  0
  -21.1467   -6.0525   25.9074 H   0  0  0  0  0  0
  -22.0611   -2.7610   23.2850 H   0  0  0  0  0  0
  -22.4101  -11.9854   22.4783 H   0  0  0  0  0  0
  -21.1108  -13.1239   22.2642 H   0  0  0  0  0  0
  -24.6564  -15.8336   20.5129 H   0  0  0  0  0  0
  -26.2712  -15.6168   20.0684 H   0  0  0  0  0  0
  -26.7099  -32.5551   23.1176 H   0  0  0  0  0  0
  -24.9941  -33.9775   25.0427 H   0  0  0  0  0  0
  -22.6951  -31.3141   21.4154 H   0  0  0  0  0  0
  -23.3743  -35.9665   23.3294 H   0  0  0  0  0  0
  -24.3566  -36.8990   22.2064 H   0  0  0  0  0  0
  -23.7218  -37.6528   23.6675 H   0  0  0  0  0  0
  -26.0488  -31.6027   20.5985 H   0  0  0  0  0  0
  -26.8225  -30.8867   21.9841 H   0  0  0  0  0  0
  -28.1150  -29.1084   21.1137 H   0  0  0  0  0  0
  -26.0072  -25.9447   19.0673 H   0  0  0  0  0  0
  -23.9567  -27.2943   19.0681 H   0  0  0  0  0  0
  -23.7216  -30.6060   19.4125 H   0  0  0  0  0  0
  -22.7321  -29.2529   19.8766 H   0  0  0  0  0  0
  -25.1278  -36.2004   25.0837 H   0  0  0  0  0  0
  -20.9975  -28.3273   24.1449 H   0  0  0  0  0  0
  -20.5728  -26.2292   23.3636 H   0  0  0  0  0  0
  -21.6642  -26.7492   22.1204 H   0  0  0  0  0  0
  -19.6911  -25.6324   21.1251 H   0  0  0  0  0  0
  -19.6663  -27.3231   20.6795 H   0  0  0  0  0  0
  -17.4210  -26.6737   21.4019 H   0  0  0  0  0  0
  -18.0254  -26.0043   22.8997 H   0  0  0  0  0  0
  -19.7922  -30.7283   24.2280 H   0  0  0  0  0  0
  -17.5001  -31.6260   24.5220 H   0  0  0  0  0  0
  -15.5338  -30.3021   23.7619 H   0  0  0  0  0  0
  -15.8664  -28.0849   22.7040 H   0  0  0  0  0  0
  -24.5889  -30.7077   25.7843 H   0  0  0  0  0  0
  -24.8976  -32.2848   26.4996 H   0  0  0  0  0  0
  -25.8126  -30.8813   27.0227 H   0  0  0  0  0  0
  -26.2866  -29.6730   24.1236 H   0  0  0  0  0  0
  -27.4142  -29.7300   25.4585 H   0  0  0  0  0  0
  -27.8672  -30.4322   23.9243 H   0  0  0  0  0  0
  -27.2621  -33.3630   26.2065 H   0  0  0  0  0  0
  -28.3790  -32.6969   25.0252 H   0  0  0  0  0  0
  -28.0766  -31.8496   26.5360 H   0  0  0  0  0  0
  -28.2617  -38.0111   24.7530 H   0  0  0  0  0  0
  -28.1098  -36.2652   24.6271 H   0  0  0  0  0  0
  -27.2325  -37.1461   25.8868 H   0  0  0  0  0  0
  -20.9270  -29.8722   21.6912 H   0  0  0  0  0  0
  -26.0209  -38.2895   24.1403 H   0  0  0  0  0  0
  -29.6046  -20.4240   18.8554 H   0  0  0  0  0  0
  -29.7745  -23.1398   22.2071 H   0  0  0  0  0  0
  -28.2903  -18.2028   19.4730 H   0  0  0  0  0  0
  -29.9918  -17.9499   19.1869 H   0  0  0  0  0  0
  -31.6205  -18.0386   21.0345 H   0  0  0  0  0  0
  -31.1451  -18.4620   22.6512 H   0  0  0  0  0  0
  -28.9427  -15.8205   19.1994 H   0  0  0  0  0  0
  -28.0482  -16.1396   20.6801 H   0  0  0  0  0  0
  -29.8903  -16.3754   22.9377 H   0  0  0  0  0  0
  -31.5264  -16.0185   22.4774 H   0  0  0  0  0  0
  -28.7156  -18.3934   21.9012 H   0  0  0  0  0  0
  -26.1931  -21.7044   24.0291 H   0  0  0  0  0  0
  -26.7416  -20.1044   23.5387 H   0  0  0  0  0  0
  -26.9704  -21.4847   22.4678 H   0  0  0  0  0  0
  -33.1766  -21.6223   16.4447 H   0  0  0  0  0  0
  -32.0892  -22.8015   15.7247 H   0  0  0  0  0  0
  -31.4987  -21.1916   16.1392 H   0  0  0  0  0  0
  -27.7494  -25.8141   17.6632 H   0  0  0  0  0  0
  -28.6804  -24.5968   16.8563 H   0  0  0  0  0  0
  -29.4961  -25.8844   17.7497 H   0  0  0  0  0  0
  -30.8791  -20.8050   25.2081 H   0  0  0  0  0  0
  -31.0894  -22.1499   24.0927 H   0  0  0  0  0  0
  -31.7081  -20.5576   23.6760 H   0  0  0  0  0  0
  -28.3061  -21.1357   25.2126 H   0  0  0  0  0  0
  -28.5245  -22.5160   24.1803 H   0  0  0  0  0  0
  -32.4512  -23.2974   18.1723 H   0  0  0  0  0  0
  -31.9185  -21.6822   18.5812 H   0  0  0  0  0  0
  -29.0108  -25.0320   21.1000 H   0  0  0  0  0  0
  -27.3395  -24.9752   20.7266 H   0  0  0  0  0  0
  -30.6823  -24.0856   19.6355 H   0  0  0  0  0  0
  -27.7734  -23.6712   18.9470 H   0  0  0  0  0  0
  -29.3871  -19.6572   23.6218 H   0  0  0  0  0  0
  -29.7618  -22.2491   17.5922 H   0  0  0  0  0  0
  -30.2927  -23.7550   17.2755 H   0  0  0  0  0  0
  1 25  1  0  0  0
  1 30  2  0  0  0
  1 91  1  0  0  0
  2  3  1  0  0  0
  2 25  1  0  0  0
  2 93  1  0  0  0
  2 94  1  0  0  0
  3  4  1  0  0  0
  3 95  1  0  0  0
  3 96  1  0  0  0
  4  5  1  0  0  0
  4 97  1  0  0  0
  4 98  1  0  0  0
  5  6  1  0  0  0
  5 26  1  0  0  0
  5 99  1  0  0  0
  6 25  1  0  0  0
  6100  1  0  0  0
  6101  1  0  0  0
  7  8  2  0  0  0
  7 26  1  0  0  0
  7 29  1  0  0  0
  8  9  1  0  0  0
  8 22  1  0  0  0
  9 10  1  0  0  0
  9 27  2  0  0  0
 10 11  2  0  0  0
 10 15  1  0  0  0
 11 12  1  0  0  0
 11102  1  0  0  0
 12 13  2  0  0  0
 12103  1  0  0  0
 13 14  1  0  0  0
 13 31  1  0  0  0
 14 15  2  0  0  0
 14104  1  0  0  0
 15105  1  0  0  0
 16 17  2  0  0  0
 16 21  1  0  0  0
 16 31  1  0  0  0
 17 18  1  0  0  0
 17106  1  0  0  0
 18 19  2  0  0  0
 18107  1  0  0  0
 19 20  1  0  0  0
 19 24  1  0  0  0
 20 21  2  0  0  0
 20108  1  0  0  0
 21 23  1  0  0  0
 22 28  1  0  0  0
 22 32  2  0  0  0
 26 27  1  0  0  0
 28109  1  0  0  0
 28110  1  0  0  0
 29111  1  0  0  0
 29112  1  0  0  0
 33 34  1  0  0  0
 33 66  1  0  0  0
 33 70  2  0  0  0
 34 36  1  0  0  0
 34 59  1  0  0  0
 34113  1  0  0  0
 35 44  2  0  0  0
 35 45  1  0  0  0
 35 68  1  0  0  0
 36 56  1  0  0  0
 36114  1  0  0  0
 37 39  1  0  0  0
 37 47  1  0  0  0
 37 66  1  0  0  0
 37115  1  0  0  0
 38 43  2  0  0  0
 38 46  1  0  0  0
 38 47  1  0  0  0
 39 64  1  0  0  0
 39 67  2  0  0  0
 40 52  1  0  0  0
 40 53  2  0  0  0
 40 58  1  0  0  0
 41116  1  0  0  0
 41117  1  0  0  0
 41118  1  0  0  0
 41 48  1  0  0  0
 42 43  1  0  0  0
 42 66  1  0  0  0
 42119  1  0  0  0
 42120  1  0  0  0
 43 44  1  0  0  0
 44121  1  0  0  0
 45 46  2  0  0  0
 45122  1  0  0  0
 46123  1  0  0  0
 47124  1  0  0  0
 47125  1  0  0  0
 48 56  1  0  0  0
 48 65  1  0  0  0
 48126  1  0  0  0
 49 50  1  0  0  0
 49 53  1  0  0  0
 49 64  1  0  0  0
 49127  1  0  0  0
 50 51  1  0  0  0
 50128  1  0  0  0
 50129  1  0  0  0
 51 52  1  0  0  0
 51130  1  0  0  0
 51131  1  0  0  0
 52132  1  0  0  0
 52133  1  0  0  0
 53 54  1  0  0  0
 54 55  2  0  0  0
 54134  1  0  0  0
 55 57  1  0  0  0
 55135  1  0  0  0
 56 69  2  0  0  0
 57 58  2  0  0  0
 57136  1  0  0  0
 58137  1  0  0  0
 59 60  1  0  0  0
 59 61  1  0  0  0
 59 62  1  0  0  0
 60138  1  0  0  0
 60139  1  0  0  0
 60140  1  0  0  0
 61141  1  0  0  0
 61142  1  0  0  0
 61143  1  0  0  0
 62144  1  0  0  0
 62145  1  0  0  0
 62146  1  0  0  0
 63 65  1  0  0  0
 63147  1  0  0  0
 63148  1  0  0  0
 63149  1  0  0  0
 64150  1  0  0  0
 65151  1  0  0  0
 68 86  1  0  0  0
 71 73  1  0  0  0
 71 74  2  0  0  0
 71152  1  0  0  0
 72 73  2  0  0  0
 72 90  1  0  0  0
 72153  1  0  0  0
 73 87  1  0  0  0
 74 90  1  0  0  0
 74 79  1  0  0  0
 75 77  1  0  0  0
 75 79  1  0  0  0
 75154  1  0  0  0
 75155  1  0  0  0
 76 78  1  0  0  0
 76 79  1  0  0  0
 76156  1  0  0  0
 76157  1  0  0  0
 77 91  1  0  0  0
 77158  1  0  0  0
 77159  1  0  0  0
 78 91  1  0  0  0
 78160  1  0  0  0
 78161  1  0  0  0
 79162  1  0  0  0
 80 84  1  0  0  0
 80163  1  0  0  0
 80164  1  0  0  0
 80165  1  0  0  0
 81 85  1  0  0  0
 81166  1  0  0  0
 81167  1  0  0  0
 81168  1  0  0  0
 82169  1  0  0  0
 82170  1  0  0  0
 82171  1  0  0  0
 82 88  1  0  0  0
 83172  1  0  0  0
 83173  1  0  0  0
 83174  1  0  0  0
 83 89  1  0  0  0
 84 89  1  0  0  0
 84175  1  0  0  0
 84176  1  0  0  0
 85 92  1  0  0  0
 85177  1  0  0  0
 85178  1  0  0  0
 86 88  1  0  0  0
 86179  1  0  0  0
 86180  1  0  0  0
 87 88  1  0  0  0
 87 92  1  0  0  0
 87181  1  0  0  0
 88182  1  0  0  0
 89 90  1  0  0  0
 89183  1  0  0  0
 92184  1  0  0  0
 92185  1  0  0  0
M  CHG  1  92   1
M  ISO  4   1 100  68 101  86 101  91 100
M  END
> <chiral flag>
0

> <version>
0

> <s_m_source_file>
/data/baiqing/PycharmProjects/Reinvent-master-3.2/result/LINK_invent/BTK/process_docking_weight1_custom_sum_contain_oxygen_bond_distance_aromatic_linkinvent_7_9_3/rearranged_h_0123.sdf

> <i_m_source_file_index>
58

> <r_mmod_Potential_Energy-OPLS-2005>
55.5019035339355

> <r_mmod_Stretch_Energy-OPLS-2005>
47.4305686950684

> <r_mmod_Bend_Energy-OPLS-2005>
120.768020629883

> <r_mmod_Torsional_Energy-OPLS-2005>
392.981414794922

> <r_mmod_Improper_Torsional_Energy-OPLS-2005>
3.31253385543823

> <r_mmod_Van_der_Waal_Energy-OPLS-2005>
133.43473815918

> <r_mmod_Electrostatic_Energy-OPLS-2005>
-255.587341308594

> <r_mmod_Solvation_Energy-OPLS-2005>
-409.281463623047

> <b_mmod_Minimization_Converged-OPLS-2005>
0

> <r_mmod_RMS_Derivative-OPLS-2005>
2.04936337471008

$$$$
58
                    3D
 Structure written by MMmdl.
175183  0  0  1  0            999 V2000
  -30.7503  -14.4594   20.5581 C   0  0  0  0  0  0
  -30.4074  -12.2965   19.4290 C   0  0  0  0  0  0
  -29.5058  -12.5238   18.2023 C   0  0  0  0  0  0
  -28.0127  -12.4458   18.5895 C   0  0  0  0  0  0
  -27.6620  -13.2434   19.8764 C   0  0  2  0  0  0
  -28.7101  -13.0195   20.9904 C   0  0  0  0  0  0
  -25.2585  -13.8253   20.5851 C   0  0  0  0  0  0
  -24.1848  -13.0429   20.9286 C   0  0  0  0  0  0
  -24.6455  -11.6942   20.8719 C   0  0  0  0  0  0
  -23.9069  -10.4282   21.0271 C   0  0  0  0  0  0
  -24.3613   -9.4222   21.9066 C   0  0  0  0  0  0
  -23.6329   -8.2245   22.0666 C   0  0  0  0  0  0
  -22.4306   -8.0267   21.3467 C   0  0  0  0  0  0
  -21.9919   -9.0200   20.4564 C   0  0  0  0  0  0
  -22.7227  -10.2108   20.2950 C   0  0  0  0  0  0
  -21.6850   -6.0757   22.5260 C   0  0  0  0  0  0
  -21.4014   -6.5635   23.8198 C   0  0  0  0  0  0
  -21.3654   -5.6761   24.9133 C   0  0  0  0  0  0
  -21.6062   -4.3021   24.7154 C   0  0  0  0  0  0
  -21.8824   -3.8147   23.4251 C   0  0  0  0  0  0
  -21.9190   -4.6998   22.3337 C   0  0  0  0  0  0
  -22.7840  -13.5220   21.1877 C   0  0  0  0  0  0
  -22.1639   -4.2197   21.0906 F   0  0  0  0  0  0
  -21.5631   -3.4498   25.7645 F   0  0  0  0  0  0
  -30.0415  -13.3044   20.4379 N   0  0  0  0  0  0
  -26.3046  -12.9509   20.3423 N   0  0  0  0  0  0
  -25.9412  -11.6616   20.5710 N   0  0  0  0  0  0
  -22.0463  -12.8186   22.0433 N   0  0  0  0  0  0
  -25.4139  -15.1951   20.4259 N   0  0  0  0  0  0
  -31.8761  -14.5935   20.0769 O   0  0  0  0  0  0
  -21.6616   -6.8915   21.4240 O   0  0  0  0  0  0
  -22.3479  -14.5437   20.6642 O   0  0  0  0  0  0
  -24.6125  -31.8749   23.2154 C   0  0  0  0  0  0
  -25.9006  -32.4919   23.8491 C   0  0  1  0  0  0
  -27.2122  -27.4028   20.0896 C   0  0  0  0  0  0
  -25.5887  -33.8729   24.2403 N   0  0  0  0  0  0
  -23.4031  -30.4983   21.5524 C   0  0  2  0  0  0
  -24.8644  -28.9799   20.1084 C   0  0  0  0  0  0
  -22.7427  -29.4587   22.4904 C   0  0  0  0  0  0
  -18.0193  -28.1427   22.8533 C   0  0  0  0  0  0
  -24.1478  -36.7351   23.2635 C   0  0  0  0  0  0
  -25.9433  -30.8169   21.3888 C   0  0  0  0  0  0
  -26.0247  -29.4538   20.7304 C   0  0  0  0  0  0
  -27.2085  -28.6691   20.7237 C   0  0  0  0  0  0
  -26.0617  -27.0060   19.3840 C   0  0  0  0  0  0
  -24.8845  -27.7627   19.4145 C   0  0  0  0  0  0
  -23.6317  -29.8515   20.1631 C   0  0  0  0  0  0
  -25.4120  -36.3232   24.0356 C   0  0  1  0  0  0
  -20.5808  -28.3659   23.1303 C   0  0  2  0  0  0
  -20.6610  -26.9412   22.5442 C   0  0  0  0  0  0
  -19.5630  -26.6832   21.5121 C   0  0  0  0  0  0
  -18.1826  -26.7960   22.1739 C   0  0  0  0  0  0
  -19.1460  -28.8899   23.2867 C   0  0  0  0  0  0
  -18.9406  -30.1473   23.8908 C   0  0  0  0  0  0
  -17.6431  -30.6671   24.0562 C   0  0  0  0  0  0
  -25.9045  -34.9578   23.5202 C   0  0  0  0  0  0
  -16.5320  -29.9204   23.6328 C   0  0  0  0  0  0
  -16.7187  -28.6597   23.0414 C   0  0  0  0  0  0
  -26.4471  -31.6698   25.0828 C   0  0  0  0  0  0
  -25.3704  -31.3668   26.1514 C   0  0  0  0  0  0
  -27.0227  -30.3139   24.6187 C   0  0  0  0  0  0
  -27.6161  -32.4312   25.7602 C   0  0  0  0  0  0
  -27.5590  -37.1834   24.8463 C   0  0  0  0  0  0
  -21.4158  -29.2980   22.3688 N   0  0  0  0  0  0
  -26.4320  -37.3899   23.9413 N   0  0  0  0  0  0
  -24.6705  -31.0728   22.1124 N   0  0  0  0  0  0
  -23.4187  -28.8013   23.2851 O   0  0  0  0  0  0
  -28.3010  -26.5520   20.1366 O   0  0  0  0  0  0
  -26.5582  -34.9035   22.4723 O   0  0  0  0  0  0
  -23.5293  -32.1591   23.7419 O   0  0  0  0  0  0
  -26.2256  -23.1051   18.1305 C   0  0  0  0  0  0
  -27.3656  -22.7144   17.4171 C   0  0  0  0  0  0
  -26.3854  -23.7458   19.3826 C   0  0  0  0  0  0
  -27.7160  -24.0728   19.7833 C   0  0  0  0  0  0
  -28.7133  -23.2409   19.2168 C   0  0  0  0  0  0
  -23.0908  -22.6892   19.4867 C   0  0  0  0  0  0
  -22.8646  -25.0723   20.3474 C   0  0  0  0  0  0
  -29.8837  -20.2419   19.0185 C   0  0  0  0  0  0
  -25.1718  -24.0035   20.2895 C   0  0  0  0  0  0
  -28.0619  -25.2456   20.7544 C   0  0  0  0  0  0
  -30.7322  -16.8724   20.9898 C   0  0  0  0  0  0
  -29.9770  -18.0428   21.6647 C   0  0  0  0  0  0
  -30.0474  -20.6038   21.5885 C   0  0  0  0  0  0
  -23.7800  -24.0742   19.6005 C   0  0  0  0  0  0
  -29.4437  -21.1229   20.2320 C   0  0  1  0  0  0
  -28.5810  -22.7182   17.9849 N   0  0  0  0  0  0
  -29.6630  -22.5875   20.0307 N   0  0  0  0  0  0
  -30.1242  -15.5316   21.0844 N   0  0  0  0  0  0
  -30.7559  -19.3024   21.4889 N   0  3  0  0  0  0
  -31.4618  -12.3466   19.1497 H   0  0  0  0  0  0
  -30.2518  -11.2930   19.8335 H   0  0  0  0  0  0
  -29.7301  -11.7799   17.4374 H   0  0  0  0  0  0
  -29.7367  -13.4948   17.7633 H   0  0  0  0  0  0
  -27.7764  -11.3961   18.7195 H   0  0  0  0  0  0
  -27.3879  -12.8064   17.7718 H   0  0  0  0  0  0
  -27.6921  -14.2951   19.5945 H   0  0  0  0  0  0
  -28.6870  -11.9776   21.3158 H   0  0  0  0  0  0
  -28.4975  -13.6157   21.8774 H   0  0  0  0  0  0
  -25.2740   -9.5777   22.4613 H   0  0  0  0  0  0
  -24.0032   -7.4640   22.7408 H   0  0  0  0  0  0
  -21.0820   -8.8688   19.8887 H   0  0  0  0  0  0
  -22.3614  -10.9593   19.6010 H   0  0  0  0  0  0
  -21.1991   -7.6128   23.9744 H   0  0  0  0  0  0
  -21.1503   -6.0434   25.9055 H   0  0  0  0  0  0
  -22.0638   -2.7634   23.2675 H   0  0  0  0  0  0
  -22.4064  -11.9889   22.4911 H   0  0  0  0  0  0
  -21.1004  -13.1070   22.2465 H   0  0  0  0  0  0
  -24.6313  -15.8321   20.5164 H   0  0  0  0  0  0
  -26.2353  -15.6351   20.0323 H   0  0  0  0  0  0
  -26.7004  -32.5681   23.1187 H   0  0  0  0  0  0
  -24.9910  -33.9896   25.0469 H   0  0  0  0  0  0
  -22.6888  -31.3139   21.4104 H   0  0  0  0  0  0
  -23.3861  -35.9569   23.3360 H   0  0  0  0  0  0
  -24.3468  -36.8920   22.2020 H   0  0  0  0  0  0
  -23.7111  -37.6553   23.6562 H   0  0  0  0  0  0
  -26.0559  -31.5818   20.6171 H   0  0  0  0  0  0
  -26.8239  -30.8633   22.0173 H   0  0  0  0  0  0
  -28.0990  -29.0121   21.2338 H   0  0  0  0  0  0
  -26.0780  -26.1177   18.7803 H   0  0  0  0  0  0
  -24.0078  -27.4352   18.8743 H   0  0  0  0  0  0
  -23.7578  -30.6416   19.4194 H   0  0  0  0  0  0
  -22.7641  -29.2791   19.8368 H   0  0  0  0  0  0
  -25.1286  -36.2142   25.0850 H   0  0  0  0  0  0
  -20.9733  -28.3104   24.1442 H   0  0  0  0  0  0
  -20.5367  -26.2257   23.3569 H   0  0  0  0  0  0
  -21.6507  -26.7303   22.1379 H   0  0  0  0  0  0
  -19.6940  -25.7149   21.0338 H   0  0  0  0  0  0
  -19.6498  -27.4276   20.7183 H   0  0  0  0  0  0
  -17.3933  -26.6455   21.4315 H   0  0  0  0  0  0
  -18.0410  -26.0185   22.9285 H   0  0  0  0  0  0
  -19.7913  -30.7189   24.2368 H   0  0  0  0  0  0
  -17.4994  -31.6293   24.5300 H   0  0  0  0  0  0
  -15.5344  -30.3165   23.7735 H   0  0  0  0  0  0
  -15.8523  -28.1052   22.7115 H   0  0  0  0  0  0
  -24.5978  -30.6949   25.7729 H   0  0  0  0  0  0
  -24.8756  -32.2733   26.5049 H   0  0  0  0  0  0
  -25.8058  -30.8759   27.0227 H   0  0  0  0  0  0
  -26.2706  -29.6991   24.1237 H   0  0  0  0  0  0
  -27.3955  -29.7328   25.4626 H   0  0  0  0  0  0
  -27.8638  -30.4480   23.9384 H   0  0  0  0  0  0
  -27.2971  -33.3605   26.2352 H   0  0  0  0  0  0
  -28.4013  -32.6836   25.0449 H   0  0  0  0  0  0
  -28.0821  -31.8263   26.5405 H   0  0  0  0  0  0
  -28.2672  -38.0091   24.7574 H   0  0  0  0  0  0
  -28.1043  -36.2633   24.6274 H   0  0  0  0  0  0
  -27.2243  -37.1479   25.8851 H   0  0  0  0  0  0
  -20.9266  -29.8908   21.7147 H   0  0  0  0  0  0
  -26.0311  -38.3007   24.1509 H   0  0  0  0  0  0
  -25.2620  -22.9210   17.6845 H   0  0  0  0  0  0
  -27.2969  -22.2746   16.4310 H   0  0  0  0  0  0
  -22.0657  -22.8028   19.1291 H   0  0  0  0  0  0
  -23.0345  -22.1877   20.4528 H   0  0  0  0  0  0
  -23.6042  -22.0016   18.8086 H   0  0  0  0  0  0
  -22.4159  -24.6231   21.2385 H   0  0  0  0  0  0
  -22.0529  -25.4404   19.7166 H   0  0  0  0  0  0
  -23.4201  -25.9560   20.6635 H   0  0  0  0  0  0
  -29.7521  -19.1792   19.2098 H   0  0  0  0  0  0
  -30.9251  -20.4173   18.7533 H   0  0  0  0  0  0
  -29.2759  -20.3924   18.1265 H   0  0  0  0  0  0
  -25.3411  -24.9364   20.8157 H   0  0  0  0  0  0
  -25.1506  -23.2490   21.0831 H   0  0  0  0  0  0
  -28.9650  -25.0003   21.3124 H   0  0  0  0  0  0
  -27.3003  -25.3450   21.5243 H   0  0  0  0  0  0
  -31.7254  -16.8135   21.4352 H   0  0  0  0  0  0
  -30.8735  -17.1008   19.9297 H   0  0  0  0  0  0
  -29.8437  -17.8412   22.7284 H   0  0  0  0  0  0
  -28.9856  -18.1574   21.2234 H   0  0  0  0  0  0
  -29.2861  -20.5573   22.3727 H   0  0  0  0  0  0
  -30.8016  -21.3121   21.9347 H   0  0  0  0  0  0
  -23.9241  -24.4898   18.6003 H   0  0  0  0  0  0
  -28.3599  -20.9965   20.3130 H   0  0  0  0  0  0
  -29.8167  -23.0794   20.9050 H   0  0  0  0  0  0
  -29.1744  -15.4236   21.4051 H   0  0  0  0  0  0
  -31.1545  -19.3047   20.5620 H   0  0  0  0  0  0
  -31.5087  -19.2954   22.1585 H   0  0  0  0  0  0
  1 25  1  0  0  0
  1 30  2  0  0  0
  1 88  1  0  0  0
  2  3  1  0  0  0
  2 25  1  0  0  0
  2 90  1  0  0  0
  2 91  1  0  0  0
  3  4  1  0  0  0
  3 92  1  0  0  0
  3 93  1  0  0  0
  4  5  1  0  0  0
  4 94  1  0  0  0
  4 95  1  0  0  0
  5  6  1  0  0  0
  5 26  1  0  0  0
  5 96  1  0  0  0
  6 25  1  0  0  0
  6 97  1  0  0  0
  6 98  1  0  0  0
  7  8  2  0  0  0
  7 26  1  0  0  0
  7 29  1  0  0  0
  8  9  1  0  0  0
  8 22  1  0  0  0
  9 10  1  0  0  0
  9 27  2  0  0  0
 10 11  2  0  0  0
 10 15  1  0  0  0
 11 12  1  0  0  0
 11 99  1  0  0  0
 12 13  2  0  0  0
 12100  1  0  0  0
 13 14  1  0  0  0
 13 31  1  0  0  0
 14 15  2  0  0  0
 14101  1  0  0  0
 15102  1  0  0  0
 16 17  2  0  0  0
 16 21  1  0  0  0
 16 31  1  0  0  0
 17 18  1  0  0  0
 17103  1  0  0  0
 18 19  2  0  0  0
 18104  1  0  0  0
 19 20  1  0  0  0
 19 24  1  0  0  0
 20 21  2  0  0  0
 20105  1  0  0  0
 21 23  1  0  0  0
 22 28  1  0  0  0
 22 32  2  0  0  0
 26 27  1  0  0  0
 28106  1  0  0  0
 28107  1  0  0  0
 29108  1  0  0  0
 29109  1  0  0  0
 33 34  1  0  0  0
 33 66  1  0  0  0
 33 70  2  0  0  0
 34 36  1  0  0  0
 34 59  1  0  0  0
 34110  1  0  0  0
 35 44  2  0  0  0
 35 45  1  0  0  0
 35 68  1  0  0  0
 36 56  1  0  0  0
 36111  1  0  0  0
 37 39  1  0  0  0
 37 47  1  0  0  0
 37 66  1  0  0  0
 37112  1  0  0  0
 38 43  2  0  0  0
 38 46  1  0  0  0
 38 47  1  0  0  0
 39 64  1  0  0  0
 39 67  2  0  0  0
 40 52  1  0  0  0
 40 53  2  0  0  0
 40 58  1  0  0  0
 41113  1  0  0  0
 41114  1  0  0  0
 41115  1  0  0  0
 41 48  1  0  0  0
 42 43  1  0  0  0
 42 66  1  0  0  0
 42116  1  0  0  0
 42117  1  0  0  0
 43 44  1  0  0  0
 44118  1  0  0  0
 45 46  2  0  0  0
 45119  1  0  0  0
 46120  1  0  0  0
 47121  1  0  0  0
 47122  1  0  0  0
 48 56  1  0  0  0
 48 65  1  0  0  0
 48123  1  0  0  0
 49 50  1  0  0  0
 49 53  1  0  0  0
 49 64  1  0  0  0
 49124  1  0  0  0
 50 51  1  0  0  0
 50125  1  0  0  0
 50126  1  0  0  0
 51 52  1  0  0  0
 51127  1  0  0  0
 51128  1  0  0  0
 52129  1  0  0  0
 52130  1  0  0  0
 53 54  1  0  0  0
 54 55  2  0  0  0
 54131  1  0  0  0
 55 57  1  0  0  0
 55132  1  0  0  0
 56 69  2  0  0  0
 57 58  2  0  0  0
 57133  1  0  0  0
 58134  1  0  0  0
 59 60  1  0  0  0
 59 61  1  0  0  0
 59 62  1  0  0  0
 60135  1  0  0  0
 60136  1  0  0  0
 60137  1  0  0  0
 61138  1  0  0  0
 61139  1  0  0  0
 61140  1  0  0  0
 62141  1  0  0  0
 62142  1  0  0  0
 62143  1  0  0  0
 63 65  1  0  0  0
 63144  1  0  0  0
 63145  1  0  0  0
 63146  1  0  0  0
 64147  1  0  0  0
 65148  1  0  0  0
 68 80  1  0  0  0
 71 72  2  0  0  0
 71 73  1  0  0  0
 71149  1  0  0  0
 72 86  1  0  0  0
 72150  1  0  0  0
 73 74  2  0  0  0
 73 79  1  0  0  0
 74 75  1  0  0  0
 74 80  1  0  0  0
 75 86  2  0  0  0
 75 87  1  0  0  0
 76151  1  0  0  0
 76152  1  0  0  0
 76153  1  0  0  0
 76 84  1  0  0  0
 77 84  1  0  0  0
 77154  1  0  0  0
 77155  1  0  0  0
 77156  1  0  0  0
 78157  1  0  0  0
 78158  1  0  0  0
 78159  1  0  0  0
 78 85  1  0  0  0
 79 84  1  0  0  0
 79160  1  0  0  0
 79161  1  0  0  0
 80162  1  0  0  0
 80163  1  0  0  0
 81 82  1  0  0  0
 81 88  1  0  0  0
 81164  1  0  0  0
 81165  1  0  0  0
 82 89  1  0  0  0
 82166  1  0  0  0
 82167  1  0  0  0
 83 85  1  0  0  0
 83 89  1  0  0  0
 83168  1  0  0  0
 83169  1  0  0  0
 84170  1  0  0  0
 85 87  1  0  0  0
 85171  1  0  0  0
 87172  1  0  0  0
 88173  1  0  0  0
 89174  1  0  0  0
 89175  1  0  0  0
M  CHG  1  89   1
M  ISO  4   1 100  68 101  80 101  88 100
M  END
> <chiral flag>
0

> <version>
0

> <s_m_source_file>
/data/baiqing/PycharmProjects/Reinvent-master-3.2/result/LINK_invent/BTK/process_docking_weight1_custom_sum_contain_oxygen_bond_distance_aromatic_linkinvent_7_9_3/rearranged_h_0123.sdf

> <i_m_source_file_index>
59

> <r_mmod_Potential_Energy-OPLS-2005>
-222.578002929688

> <r_mmod_Stretch_Energy-OPLS-2005>
54.8795394897461

> <r_mmod_Bend_Energy-OPLS-2005>
123.384994506836

> <r_mmod_Torsional_Energy-OPLS-2005>
381.809661865234

> <r_mmod_Improper_Torsional_Energy-OPLS-2005>
12.765079498291

> <r_mmod_Van_der_Waal_Energy-OPLS-2005>
172.917037963867

> <r_mmod_Electrostatic_Energy-OPLS-2005>
-485.213409423828

> <r_mmod_Solvation_Energy-OPLS-2005>
-508.199310302734

> <b_mmod_Minimization_Converged-OPLS-2005>
0

> <r_mmod_RMS_Derivative-OPLS-2005>
9.22633457183838

$$$$
59
                    3D
 Structure written by MMmdl.
166175  0  0  1  0            999 V2000
  -30.3033  -15.9740   20.5711 C   0  0  0  0  0  0
  -30.4199  -13.3660   19.6332 C   0  0  0  0  0  0
  -29.5908  -12.8018   18.4224 C   0  0  0  0  0  0
  -28.2009  -12.3422   18.8702 C   0  0  0  0  0  0
  -27.6137  -13.3631   19.8639 C   0  0  2  0  0  0
  -28.5956  -13.8120   20.9971 C   0  0  0  0  0  0
  -25.2318  -13.8365   20.5861 C   0  0  0  0  0  0
  -24.1721  -13.0441   20.9278 C   0  0  0  0  0  0
  -24.6499  -11.6973   20.8760 C   0  0  0  0  0  0
  -23.9188  -10.4301   21.0367 C   0  0  0  0  0  0
  -24.3679   -9.4224   21.9174 C   0  0  0  0  0  0
  -23.6319   -8.2280   22.0769 C   0  0  0  0  0  0
  -22.4306   -8.0318   21.3545 C   0  0  0  0  0  0
  -21.9961   -9.0306   20.4647 C   0  0  0  0  0  0
  -22.7338  -10.2159   20.3039 C   0  0  0  0  0  0
  -21.6879   -6.0738   22.5266 C   0  0  0  0  0  0
  -21.4040   -6.5645   23.8199 C   0  0  0  0  0  0
  -21.3670   -5.6804   24.9167 C   0  0  0  0  0  0
  -21.6035   -4.3060   24.7219 C   0  0  0  0  0  0
  -21.8828   -3.8145   23.4345 C   0  0  0  0  0  0
  -21.9201   -4.6960   22.3396 C   0  0  0  0  0  0
  -22.7714  -13.5151   21.1890 C   0  0  0  0  0  0
  -22.1658   -4.2138   21.0975 F   0  0  0  0  0  0
  -21.5622   -3.4544   25.7732 F   0  0  0  0  0  0
  -29.7513  -14.5672   20.3961 N   0  0  0  0  0  0
  -26.2895  -12.9814   20.3486 N   0  0  0  0  0  0
  -25.9503  -11.6804   20.5776 N   0  0  0  0  0  0
  -22.0383  -12.8125   22.0440 N   0  0  0  0  0  0
  -25.3847  -15.2113   20.4308 N   0  0  0  0  0  0
  -31.5218  -15.8254   20.3290 O   0  0  0  0  0  0
  -21.6675   -6.8896   21.4231 O   0  0  0  0  0  0
  -22.3359  -14.5431   20.6731 O   0  0  0  0  0  0
  -24.8122  -31.6376   23.5160 C   0  0  0  0  0  0
  -26.0495  -32.3974   24.0093 C   0  0  1  0  0  0
  -26.8939  -26.5619   19.1419 C   0  0  0  0  0  0
  -25.6477  -33.8134   24.2237 N   0  0  0  0  0  0
  -23.7607  -30.4087   21.7365 C   0  0  2  0  0  0
  -25.2943  -28.7759   19.3551 C   0  0  0  0  0  0
  -22.6750  -29.5413   22.5535 C   0  0  0  0  0  0
  -17.9996  -28.1501   22.8247 C   0  0  0  0  0  0
  -24.1572  -36.6870   23.2472 C   0  0  0  0  0  0
  -26.1923  -29.0761   23.1793 C   0  0  0  0  0  0
  -26.4856  -28.0929   20.1376 C   0  0  0  0  0  0
  -27.5377  -27.7318   19.3892 C   0  0  0  0  0  0
  -25.6558  -26.5859   18.4458 C   0  0  0  0  0  0
  -24.8360  -27.7415   18.5519 C   0  0  0  0  0  0
  -24.1626  -29.9658   20.0197 C   0  0  0  0  0  0
  -25.4223  -36.2619   24.0090 C   0  0  1  0  0  0
  -20.5431  -28.4379   23.0320 C   0  0  2  0  0  0
  -20.6632  -26.9901   22.4974 C   0  0  0  0  0  0
  -19.5541  -26.6379   21.5044 C   0  0  0  0  0  0
  -18.1730  -26.7965   22.1534 C   0  0  0  0  0  0
  -19.1162  -28.9221   23.2321 C   0  0  0  0  0  0
  -18.9152  -30.1702   23.8567 C   0  0  0  0  0  0
  -17.6161  -30.6675   24.0531 C   0  0  0  0  0  0
  -25.9299  -34.8948   23.4849 C   0  0  0  0  0  0
  -16.5075  -29.9057   23.6433 C   0  0  0  0  0  0
  -16.6983  -28.6478   23.0402 C   0  0  0  0  0  0
  -26.5433  -31.8120   25.3875 C   0  0  0  0  0  0
  -25.3760  -31.5477   26.3661 C   0  0  0  0  0  0
  -27.3564  -30.5250   25.4183 C   0  0  0  0  0  0
  -27.5741  -32.7897   25.9740 C   0  0  0  0  0  0
  -27.5523  -37.1650   24.8439 C   0  0  0  0  0  0
  -21.3797  -29.3888   22.2587 N   0  0  0  0  0  0
  -26.4291  -37.3461   23.9293 N   0  0  0  0  0  0
  -24.9367  -30.4246   22.9244 N   0  0  0  0  0  0
  -23.0988  -28.8865   23.5169 O   0  0  0  0  0  0
  -26.9117  -25.6744   20.1707 O   0  0  0  0  0  0
  -26.5898  -34.8397   22.4463 O   0  0  0  0  0  0
  -23.6936  -32.1635   23.7155 O   0  0  0  0  0  0
  -26.6256  -29.8766   21.2737 C   0  0  0  0  0  0
  -28.0821  -28.8158   21.7055 C   0  0  0  0  0  0
  -24.9534  -28.2503   21.6542 C   0  0  0  0  0  0
  -26.8536  -26.5817   22.6015 C   0  0  0  0  0  0
  -28.0979  -27.0821   22.0460 C   0  0  0  0  0  0
  -25.5253  -26.8339   22.0468 C   0  0  0  0  0  0
  -31.4210  -24.5889   22.3612 C   0  0  0  0  0  0
  -30.5201  -25.8165   22.2044 C   0  0  0  0  0  0
  -30.5740  -23.3180   22.4826 C   0  0  0  0  0  0
  -29.1339  -25.4304   21.6716 C   0  0  1  0  0  0
  -29.4466  -23.3323   21.4368 C   0  0  1  0  0  0
  -29.9897  -23.3862   19.9913 C   0  0  0  0  0  0
  -25.6047  -25.6553   20.9939 C   0  0  0  0  0  0
  -29.0658  -21.2661   21.3538 C   0  0  0  0  0  0
  -29.9088  -19.3627   20.9780 C   0  0  0  0  0  0
  -29.6596  -17.4688   20.8375 N   0  0  0  0  0  0
  -31.3852  -13.6755   19.2337 H   0  0  0  0  0  0
  -30.6630  -12.5571   20.3256 H   0  0  0  0  0  0
  -30.1267  -11.9810   17.9429 H   0  0  0  0  0  0
  -29.4941  -13.5798   17.6653 H   0  0  0  0  0  0
  -28.3129  -11.3811   19.3743 H   0  0  0  0  0  0
  -27.5395  -12.1801   18.0185 H   0  0  0  0  0  0
  -27.4526  -14.2566   19.2568 H   0  0  0  0  0  0
  -28.9145  -12.9714   21.6201 H   0  0  0  0  0  0
  -28.0685  -14.4858   21.6730 H   0  0  0  0  0  0
  -25.2797   -9.5701   22.4778 H   0  0  0  0  0  0
  -24.0006   -7.4673   22.7510 H   0  0  0  0  0  0
  -21.0893   -8.8852   19.8942 H   0  0  0  0  0  0
  -22.3800  -10.9706   19.6153 H   0  0  0  0  0  0
  -21.2055   -7.6155   23.9709 H   0  0  0  0  0  0
  -21.1474   -6.0522   25.9067 H   0  0  0  0  0  0
  -22.0591   -2.7601   23.2860 H   0  0  0  0  0  0
  -22.4034  -11.9812   22.4834 H   0  0  0  0  0  0
  -21.0989  -13.1120   22.2630 H   0  0  0  0  0  0
  -24.6122  -15.8598   20.5456 H   0  0  0  0  0  0
  -26.2341  -15.6599   20.1101 H   0  0  0  0  0  0
  -26.8437  -32.3322   23.2578 H   0  0  0  0  0  0
  -25.0562  -33.9624   25.0288 H   0  0  0  0  0  0
  -23.2788  -31.3763   21.5873 H   0  0  0  0  0  0
  -23.3880  -35.9128   23.3041 H   0  0  0  0  0  0
  -24.3706  -36.8631   22.1896 H   0  0  0  0  0  0
  -23.7285  -37.6018   23.6634 H   0  0  0  0  0  0
  -27.1139  -29.3965   23.5698 H   0  0  0  0  0  0
  -25.7908  -28.4022   23.9473 H   0  0  0  0  0  0
  -28.5537  -27.6348   19.7352 H   0  0  0  0  0  0
  -25.2064  -25.6695   18.0876 H   0  0  0  0  0  0
  -23.8525  -27.7698   18.1015 H   0  0  0  0  0  0
  -24.4830  -30.9035   19.5626 H   0  0  0  0  0  0
  -23.2085  -29.7554   19.5341 H   0  0  0  0  0  0
  -25.1399  -36.1373   25.0577 H   0  0  0  0  0  0
  -20.8911  -28.3974   24.0679 H   0  0  0  0  0  0
  -20.5823  -26.3034   23.3409 H   0  0  0  0  0  0
  -21.6468  -26.8072   22.0650 H   0  0  0  0  0  0
  -19.6853  -25.6195   21.1349 H   0  0  0  0  0  0
  -19.6317  -27.2938   20.6348 H   0  0  0  0  0  0
  -17.3977  -26.6533   21.3990 H   0  0  0  0  0  0
  -18.0261  -26.0190   22.9046 H   0  0  0  0  0  0
  -19.7653  -30.7564   24.1771 H   0  0  0  0  0  0
  -17.4696  -31.6304   24.5235 H   0  0  0  0  0  0
  -15.5059  -30.2881   23.7994 H   0  0  0  0  0  0
  -15.8336  -28.0733   22.7371 H   0  0  0  0  0  0
  -24.7626  -30.6935   26.0755 H   0  0  0  0  0  0
  -24.7159  -32.4118   26.4544 H   0  0  0  0  0  0
  -25.7486  -31.3368   27.3692 H   0  0  0  0  0  0
  -26.7561  -29.6235   25.4918 H   0  0  0  0  0  0
  -27.8513  -30.4201   26.3856 H   0  0  0  0  0  0
  -28.2094  -30.5198   24.7342 H   0  0  0  0  0  0
  -27.1436  -33.7621   26.2108 H   0  0  0  0  0  0
  -28.4006  -32.9658   25.2860 H   0  0  0  0  0  0
  -27.9970  -32.4596   26.9228 H   0  0  0  0  0  0
  -28.2457  -38.0021   24.7530 H   0  0  0  0  0  0
  -28.1142  -36.2543   24.6315 H   0  0  0  0  0  0
  -27.2201  -37.1268   25.8835 H   0  0  0  0  0  0
  -20.9703  -29.8817   21.4765 H   0  0  0  0  0  0
  -26.0007  -38.2479   24.1284 H   0  0  0  0  0  0
  -26.5998  -30.8621   20.8235 H   0  0  0  0  0  0
  -29.0333  -29.2381   21.4102 H   0  0  0  0  0  0
  -23.9785  -28.0682   21.2206 H   0  0  0  0  0  0
  -26.9829  -25.5510   22.9046 H   0  0  0  0  0  0
  -32.0712  -24.7005   23.2304 H   0  0  0  0  0  0
  -32.0820  -24.5009   21.4978 H   0  0  0  0  0  0
  -30.9903  -26.5588   21.5535 H   0  0  0  0  0  0
  -30.4045  -26.2973   23.1748 H   0  0  0  0  0  0
  -30.1219  -23.2899   23.4782 H   0  0  0  0  0  0
  -31.2114  -22.4370   22.3942 H   0  0  0  0  0  0
  -29.1990  -25.6550   20.6083 H   0  0  0  0  0  0
  -30.6487  -24.2362   19.8049 H   0  0  0  0  0  0
  -29.1566  -23.4711   19.2910 H   0  0  0  0  0  0
  -30.5451  -22.4858   19.7290 H   0  0  0  0  0  0
  -24.6762  -25.6277   20.4250 H   0  0  0  0  0  0
  -25.5720  -24.7029   21.5279 H   0  0  0  0  0  0
  -28.2015  -21.2511   20.6892 H   0  0  0  0  0  0
  -28.6150  -21.1092   22.3329 H   0  0  0  0  0  0
  -30.7525  -19.3738   21.6698 H   0  0  0  0  0  0
  -30.3770  -19.5405   20.0106 H   0  0  0  0  0  0
  -28.6703  -17.2949   20.9553 H   0  0  0  0  0  0
  1 25  1  0  0  0
  1 30  2  0  0  0
  1 86  1  0  0  0
  2  3  1  0  0  0
  2 25  1  0  0  0
  2 87  1  0  0  0
  2 88  1  0  0  0
  3  4  1  0  0  0
  3 89  1  0  0  0
  3 90  1  0  0  0
  4  5  1  0  0  0
  4 91  1  0  0  0
  4 92  1  0  0  0
  5  6  1  0  0  0
  5 26  1  0  0  0
  5 93  1  0  0  0
  6 25  1  0  0  0
  6 94  1  0  0  0
  6 95  1  0  0  0
  7  8  2  0  0  0
  7 26  1  0  0  0
  7 29  1  0  0  0
  8  9  1  0  0  0
  8 22  1  0  0  0
  9 10  1  0  0  0
  9 27  2  0  0  0
 10 11  2  0  0  0
 10 15  1  0  0  0
 11 12  1  0  0  0
 11 96  1  0  0  0
 12 13  2  0  0  0
 12 97  1  0  0  0
 13 14  1  0  0  0
 13 31  1  0  0  0
 14 15  2  0  0  0
 14 98  1  0  0  0
 15 99  1  0  0  0
 16 17  2  0  0  0
 16 21  1  0  0  0
 16 31  1  0  0  0
 17 18  1  0  0  0
 17100  1  0  0  0
 18 19  2  0  0  0
 18101  1  0  0  0
 19 20  1  0  0  0
 19 24  1  0  0  0
 20 21  2  0  0  0
 20102  1  0  0  0
 21 23  1  0  0  0
 22 28  1  0  0  0
 22 32  2  0  0  0
 26 27  1  0  0  0
 28103  1  0  0  0
 28104  1  0  0  0
 29105  1  0  0  0
 29106  1  0  0  0
 33 34  1  0  0  0
 33 66  1  0  0  0
 33 70  2  0  0  0
 34 36  1  0  0  0
 34 59  1  0  0  0
 34107  1  0  0  0
 35 44  2  0  0  0
 35 45  1  0  0  0
 35 68  1  0  0  0
 36 56  1  0  0  0
 36108  1  0  0  0
 37 39  1  0  0  0
 37 47  1  0  0  0
 37 66  1  0  0  0
 37109  1  0  0  0
 38 43  2  0  0  0
 38 46  1  0  0  0
 38 47  1  0  0  0
 39 64  1  0  0  0
 39 67  2  0  0  0
 40 52  1  0  0  0
 40 53  2  0  0  0
 40 58  1  0  0  0
 41110  1  0  0  0
 41111  1  0  0  0
 41112  1  0  0  0
 41 48  1  0  0  0
 42 43  1  0  0  0
 42 66  1  0  0  0
 42113  1  0  0  0
 42114  1  0  0  0
 43 44  1  0  0  0
 44115  1  0  0  0
 45 46  2  0  0  0
 45116  1  0  0  0
 46117  1  0  0  0
 47118  1  0  0  0
 47119  1  0  0  0
 48 56  1  0  0  0
 48 65  1  0  0  0
 48120  1  0  0  0
 49 50  1  0  0  0
 49 53  1  0  0  0
 49 64  1  0  0  0
 49121  1  0  0  0
 50 51  1  0  0  0
 50122  1  0  0  0
 50123  1  0  0  0
 51 52  1  0  0  0
 51124  1  0  0  0
 51125  1  0  0  0
 52126  1  0  0  0
 52127  1  0  0  0
 53 54  1  0  0  0
 54 55  2  0  0  0
 54128  1  0  0  0
 55 57  1  0  0  0
 55129  1  0  0  0
 56 69  2  0  0  0
 57 58  2  0  0  0
 57130  1  0  0  0
 58131  1  0  0  0
 59 60  1  0  0  0
 59 61  1  0  0  0
 59 62  1  0  0  0
 60132  1  0  0  0
 60133  1  0  0  0
 60134  1  0  0  0
 61135  1  0  0  0
 61136  1  0  0  0
 61137  1  0  0  0
 62138  1  0  0  0
 62139  1  0  0  0
 62140  1  0  0  0
 63 65  1  0  0  0
 63141  1  0  0  0
 63142  1  0  0  0
 63143  1  0  0  0
 64144  1  0  0  0
 65145  1  0  0  0
 68 83  1  0  0  0
 71 72  2  0  0  0
 71 73  1  0  0  0
 71146  1  0  0  0
 72 75  1  0  0  0
 72147  1  0  0  0
 73 76  2  0  0  0
 73148  1  0  0  0
 74 75  2  0  0  0
 74 76  1  0  0  0
 74149  1  0  0  0
 75 80  1  0  0  0
 76 83  1  0  0  0
 77 78  1  0  0  0
 77 79  1  0  0  0
 77150  1  0  0  0
 77151  1  0  0  0
 78 80  1  0  0  0
 78152  1  0  0  0
 78153  1  0  0  0
 79 81  1  0  0  0
 79154  1  0  0  0
 79155  1  0  0  0
 80 81  1  0  0  0
 80156  1  0  0  0
 81 82  1  0  0  0
 81 84  1  0  0  0
 82157  1  0  0  0
 82158  1  0  0  0
 82159  1  0  0  0
 83160  1  0  0  0
 83161  1  0  0  0
 84 85  1  0  0  0
 84162  1  0  0  0
 84163  1  0  0  0
 85 86  1  0  0  0
 85164  1  0  0  0
 85165  1  0  0  0
 86166  1  0  0  0
M  ISO  4   1 100  68 101  83 101  86 100
M  END
> <chiral flag>
0

> <version>
0

> <s_m_source_file>
/data/baiqing/PycharmProjects/Reinvent-master-3.2/result/LINK_invent/BTK/process_docking_weight1_custom_sum_contain_oxygen_bond_distance_aromatic_linkinvent_7_9_3/rearranged_h_0123.sdf

> <i_m_source_file_index>
60

> <r_mmod_Potential_Energy-OPLS-2005>
17623.615234375

> <r_mmod_Stretch_Energy-OPLS-2005>
9104.0751953125

> <r_mmod_Bend_Energy-OPLS-2005>
1562.35083007812

> <r_mmod_Torsional_Energy-OPLS-2005>
772.523681640625

> <r_mmod_Improper_Torsional_Energy-OPLS-2005>
75.2516098022461

> <r_mmod_Van_der_Waal_Energy-OPLS-2005>
3366.94116210938

> <r_mmod_Electrostatic_Energy-OPLS-2005>
-360.925994873047

> <r_mmod_Solvation_Energy-OPLS-2005>
-198.935668945312

> <b_mmod_Minimization_Converged-OPLS-2005>
0

> <r_mmod_RMS_Derivative-OPLS-2005>
12.466703414917

$$$$
60
                    3D
 Structure written by MMmdl.
174182  0  0  1  0            999 V2000
  -30.6761  -14.4736   20.5124 C   0  0  0  0  0  0
  -30.4400  -12.2743   19.4333 C   0  0  0  0  0  0
  -29.5021  -12.3946   18.2122 C   0  0  0  0  0  0
  -28.0138  -12.3322   18.6226 C   0  0  0  0  0  0
  -27.6654  -13.1810   19.8758 C   0  0  2  0  0  0
  -28.7122  -12.9721   20.9931 C   0  0  0  0  0  0
  -25.2638  -13.8083   20.5688 C   0  0  0  0  0  0
  -24.1852  -13.0409   20.9174 C   0  0  0  0  0  0
  -24.6357  -11.6867   20.8751 C   0  0  0  0  0  0
  -23.9003  -10.4283   21.0418 C   0  0  0  0  0  0
  -24.3563   -9.4196   21.9190 C   0  0  0  0  0  0
  -23.6264   -8.2221   22.0748 C   0  0  0  0  0  0
  -22.4250   -8.0260   21.3531 C   0  0  0  0  0  0
  -21.9874   -9.0235   20.4634 C   0  0  0  0  0  0
  -22.7179  -10.2130   20.3054 C   0  0  0  0  0  0
  -21.6844   -6.0728   22.5282 C   0  0  0  0  0  0
  -21.4013   -6.5636   23.8210 C   0  0  0  0  0  0
  -21.3654   -5.6781   24.9171 C   0  0  0  0  0  0
  -21.6046   -4.3049   24.7216 C   0  0  0  0  0  0
  -21.8823   -3.8143   23.4341 C   0  0  0  0  0  0
  -21.9194   -4.6963   22.3394 C   0  0  0  0  0  0
  -22.7886  -13.5257   21.1831 C   0  0  0  0  0  0
  -22.1662   -4.2144   21.0970 F   0  0  0  0  0  0
  -21.5619   -3.4535   25.7728 F   0  0  0  0  0  0
  -30.0393  -13.2761   20.4297 N   0  0  0  0  0  0
  -26.3049  -12.9197   20.3406 N   0  0  0  0  0  0
  -25.9291  -11.6398   20.5835 N   0  0  0  0  0  0
  -22.0502  -12.8276   22.0389 N   0  0  0  0  0  0
  -25.4416  -15.1782   20.4082 N   0  0  0  0  0  0
  -31.8286  -14.6655   20.1172 O   0  0  0  0  0  0
  -21.6613   -6.8864   21.4235 O   0  0  0  0  0  0
  -22.3600  -14.5572   20.6679 O   0  0  0  0  0  0
  -24.6112  -31.8697   23.2145 C   0  0  0  0  0  0
  -25.9029  -32.4828   23.8412 C   0  0  1  0  0  0
  -27.2430  -27.4697   20.0790 C   0  0  0  0  0  0
  -25.5907  -33.8629   24.2338 N   0  0  0  0  0  0
  -23.3961  -30.4952   21.5541 C   0  0  2  0  0  0
  -24.8415  -28.9630   20.1199 C   0  0  0  0  0  0
  -22.7390  -29.4672   22.5018 C   0  0  0  0  0  0
  -18.0259  -28.1373   22.8482 C   0  0  0  0  0  0
  -24.1484  -36.7329   23.2638 C   0  0  0  0  0  0
  -25.9222  -30.8406   21.3681 C   0  0  0  0  0  0
  -25.9970  -29.4744   20.7234 C   0  0  0  0  0  0
  -27.1922  -28.7258   20.7195 C   0  0  0  0  0  0
  -26.0671  -26.9659   19.4733 C   0  0  0  0  0  0
  -24.8690  -27.7022   19.5006 C   0  0  0  0  0  0
  -23.6035  -29.8289   20.1675 C   0  0  0  0  0  0
  -25.4106  -36.3127   24.0341 C   0  0  1  0  0  0
  -20.5848  -28.3651   23.1336 C   0  0  2  0  0  0
  -20.6753  -26.9392   22.5421 C   0  0  0  0  0  0
  -19.5734  -26.6381   21.5213 C   0  0  0  0  0  0
  -18.1909  -26.7916   22.1621 C   0  0  0  0  0  0
  -19.1509  -28.8829   23.2899 C   0  0  0  0  0  0
  -18.9438  -30.1437   23.8901 C   0  0  0  0  0  0
  -17.6444  -30.6576   24.0568 C   0  0  0  0  0  0
  -25.9035  -34.9485   23.5135 C   0  0  0  0  0  0
  -16.5334  -29.9081   23.6330 C   0  0  0  0  0  0
  -16.7252  -28.6508   23.0333 C   0  0  0  0  0  0
  -26.4472  -31.6606   25.0732 C   0  0  0  0  0  0
  -25.3761  -31.3702   26.1493 C   0  0  0  0  0  0
  -27.0296  -30.3052   24.6095 C   0  0  0  0  0  0
  -27.6043  -32.4326   25.7490 C   0  0  0  0  0  0
  -27.5581  -37.1823   24.8462 C   0  0  0  0  0  0
  -21.4121  -29.3027   22.3759 N   0  0  0  0  0  0
  -26.4290  -37.3814   23.9408 N   0  0  0  0  0  0
  -24.6609  -31.0834   22.1033 N   0  0  0  0  0  0
  -23.4185  -28.8210   23.3042 O   0  0  0  0  0  0
  -28.4421  -26.7895   20.0654 O   0  0  0  0  0  0
  -26.5591  -34.8930   22.4690 O   0  0  0  0  0  0
  -23.5323  -32.1423   23.7575 O   0  0  0  0  0  0
  -27.8945  -18.9626   19.2526 C   0  0  0  0  0  0
  -30.1713  -19.8908   18.8992 C   0  0  0  0  0  0
  -27.2323  -20.1244   18.5071 C   0  0  0  0  0  0
  -29.5857  -21.1161   18.1574 C   0  0  0  0  0  0
  -29.2742  -18.6758   18.6388 C   0  0  1  0  0  0
  -28.0905  -21.4188   18.4888 C   0  0  1  0  0  0
  -29.0361  -16.2465   18.1564 C   0  0  0  0  0  0
  -27.4018  -22.1381   16.0957 C   0  0  0  0  0  0
  -25.9863  -22.8163   18.0214 C   0  0  0  0  0  0
  -28.3549  -24.5485   19.0411 C   0  0  0  0  0  0
  -28.2444  -23.8700   17.6609 C   0  0  0  0  0  0
  -30.0297  -16.9238   20.4747 C   0  0  0  0  0  0
  -28.7503  -26.0296   18.8998 C   0  0  0  0  0  0
  -29.8567  -17.2722   18.9591 C   0  0  2  0  0  0
  -27.4489  -22.5403   17.5914 C   0  0  0  0  0  0
  -29.8570  -15.4979   20.8017 N   0  0  0  0  0  0
  -31.4801  -12.3879   19.1229 H   0  0  0  0  0  0
  -30.3689  -11.2773   19.8687 H   0  0  0  0  0  0
  -29.7138  -11.5773   17.5216 H   0  0  0  0  0  0
  -29.7144  -13.2954   17.6444 H   0  0  0  0  0  0
  -27.7883  -11.2838   18.8201 H   0  0  0  0  0  0
  -27.3792  -12.6223   17.7847 H   0  0  0  0  0  0
  -27.7046  -14.2219   19.5738 H   0  0  0  0  0  0
  -28.6888  -11.9402   21.3473 H   0  0  0  0  0  0
  -28.4853  -13.5855   21.8668 H   0  0  0  0  0  0
  -25.2706   -9.5689   22.4764 H   0  0  0  0  0  0
  -23.9989   -7.4604   22.7462 H   0  0  0  0  0  0
  -21.0810   -8.8741   19.8937 H   0  0  0  0  0  0
  -22.3633  -10.9667   19.6158 H   0  0  0  0  0  0
  -21.2014   -7.6145   23.9721 H   0  0  0  0  0  0
  -21.1465   -6.0502   25.9068 H   0  0  0  0  0  0
  -22.0614   -2.7611   23.2831 H   0  0  0  0  0  0
  -22.4100  -11.9940   22.4801 H   0  0  0  0  0  0
  -21.1122  -13.1326   22.2561 H   0  0  0  0  0  0
  -24.6774  -15.8366   20.5081 H   0  0  0  0  0  0
  -26.2981  -15.6137   20.0926 H   0  0  0  0  0  0
  -26.7110  -32.5555   23.1189 H   0  0  0  0  0  0
  -25.0088  -33.9783   25.0507 H   0  0  0  0  0  0
  -22.6825  -31.3107   21.4194 H   0  0  0  0  0  0
  -23.3742  -35.9666   23.3304 H   0  0  0  0  0  0
  -24.3578  -36.8926   22.2049 H   0  0  0  0  0  0
  -23.7226  -37.6537   23.6639 H   0  0  0  0  0  0
  -26.0338  -31.6053   20.5980 H   0  0  0  0  0  0
  -26.8106  -30.8943   21.9843 H   0  0  0  0  0  0
  -28.0843  -29.1214   21.1852 H   0  0  0  0  0  0
  -26.0555  -26.0146   18.9650 H   0  0  0  0  0  0
  -23.9827  -27.3027   19.0273 H   0  0  0  0  0  0
  -23.7131  -30.6031   19.4077 H   0  0  0  0  0  0
  -22.7273  -29.2499   19.8709 H   0  0  0  0  0  0
  -25.1282  -36.2001   25.0836 H   0  0  0  0  0  0
  -20.9925  -28.3211   24.1460 H   0  0  0  0  0  0
  -20.5652  -26.2256   23.3601 H   0  0  0  0  0  0
  -21.6627  -26.7435   22.1215 H   0  0  0  0  0  0
  -19.6890  -25.6297   21.1224 H   0  0  0  0  0  0
  -19.6676  -27.3211   20.6759 H   0  0  0  0  0  0
  -17.4179  -26.6663   21.4019 H   0  0  0  0  0  0
  -18.0304  -26.0056   22.9013 H   0  0  0  0  0  0
  -19.7921  -30.7244   24.2270 H   0  0  0  0  0  0
  -17.5007  -31.6255   24.5170 H   0  0  0  0  0  0
  -15.5338  -30.2984   23.7653 H   0  0  0  0  0  0
  -15.8653  -28.0843   22.7021 H   0  0  0  0  0  0
  -24.5925  -30.7047   25.7850 H   0  0  0  0  0  0
  -24.8967  -32.2853   26.4982 H   0  0  0  0  0  0
  -25.8139  -30.8854   27.0226 H   0  0  0  0  0  0
  -26.2821  -29.6816   24.1168 H   0  0  0  0  0  0
  -27.4088  -29.7288   25.4544 H   0  0  0  0  0  0
  -27.8655  -30.4368   23.9217 H   0  0  0  0  0  0
  -27.2653  -33.3611   26.2094 H   0  0  0  0  0  0
  -28.3841  -32.6899   25.0313 H   0  0  0  0  0  0
  -28.0722  -31.8434   26.5385 H   0  0  0  0  0  0
  -28.2616  -38.0110   24.7521 H   0  0  0  0  0  0
  -28.1059  -36.2642   24.6274 H   0  0  0  0  0  0
  -27.2302  -37.1461   25.8867 H   0  0  0  0  0  0
  -20.9275  -29.8775   21.7006 H   0  0  0  0  0  0
  -26.0188  -38.2896   24.1406 H   0  0  0  0  0  0
  -27.2381  -18.0958   19.1960 H   0  0  0  0  0  0
  -27.9890  -19.2083   20.3110 H   0  0  0  0  0  0
  -30.2500  -20.0890   19.9691 H   0  0  0  0  0  0
  -31.1836  -19.6967   18.5420 H   0  0  0  0  0  0
  -26.2654  -20.3169   18.9720 H   0  0  0  0  0  0
  -27.0185  -19.7860   17.4946 H   0  0  0  0  0  0
  -29.7051  -20.9382   17.0895 H   0  0  0  0  0  0
  -30.2024  -21.9853   18.3843 H   0  0  0  0  0  0
  -29.1395  -18.6709   17.5552 H   0  0  0  0  0  0
  -28.0850  -21.7829   19.5170 H   0  0  0  0  0  0
  -28.9376  -16.5299   17.1082 H   0  0  0  0  0  0
  -28.0320  -16.1258   18.5548 H   0  0  0  0  0  0
  -29.5261  -15.2843   18.1513 H   0  0  0  0  0  0
  -26.8096  -21.2422   15.9139 H   0  0  0  0  0  0
  -28.3930  -21.9697   15.6777 H   0  0  0  0  0  0
  -26.9463  -22.9259   15.4935 H   0  0  0  0  0  0
  -25.3171  -22.0035   17.7380 H   0  0  0  0  0  0
  -25.5914  -23.7162   17.5478 H   0  0  0  0  0  0
  -25.8876  -22.9427   19.0996 H   0  0  0  0  0  0
  -29.0839  -24.0324   19.6649 H   0  0  0  0  0  0
  -27.4143  -24.4745   19.5790 H   0  0  0  0  0  0
  -29.2458  -23.7406   17.2488 H   0  0  0  0  0  0
  -27.7599  -24.5712   16.9801 H   0  0  0  0  0  0
  -29.2920  -17.4609   21.0684 H   0  0  0  0  0  0
  -31.0026  -17.2723   20.8264 H   0  0  0  0  0  0
  -28.2868  -26.4888   18.0239 H   0  0  0  0  0  0
  -29.8243  -26.0971   18.7245 H   0  0  0  0  0  0
  -30.8569  -17.2389   18.5224 H   0  0  0  0  0  0
  -28.9359  -15.2311   21.1139 H   0  0  0  0  0  0
  1 25  1  0  0  0
  1 30  2  0  0  0
  1 86  1  0  0  0
  2  3  1  0  0  0
  2 25  1  0  0  0
  2 87  1  0  0  0
  2 88  1  0  0  0
  3  4  1  0  0  0
  3 89  1  0  0  0
  3 90  1  0  0  0
  4  5  1  0  0  0
  4 91  1  0  0  0
  4 92  1  0  0  0
  5  6  1  0  0  0
  5 26  1  0  0  0
  5 93  1  0  0  0
  6 25  1  0  0  0
  6 94  1  0  0  0
  6 95  1  0  0  0
  7  8  2  0  0  0
  7 26  1  0  0  0
  7 29  1  0  0  0
  8  9  1  0  0  0
  8 22  1  0  0  0
  9 10  1  0  0  0
  9 27  2  0  0  0
 10 11  2  0  0  0
 10 15  1  0  0  0
 11 12  1  0  0  0
 11 96  1  0  0  0
 12 13  2  0  0  0
 12 97  1  0  0  0
 13 14  1  0  0  0
 13 31  1  0  0  0
 14 15  2  0  0  0
 14 98  1  0  0  0
 15 99  1  0  0  0
 16 17  2  0  0  0
 16 21  1  0  0  0
 16 31  1  0  0  0
 17 18  1  0  0  0
 17100  1  0  0  0
 18 19  2  0  0  0
 18101  1  0  0  0
 19 20  1  0  0  0
 19 24  1  0  0  0
 20 21  2  0  0  0
 20102  1  0  0  0
 21 23  1  0  0  0
 22 28  1  0  0  0
 22 32  2  0  0  0
 26 27  1  0  0  0
 28103  1  0  0  0
 28104  1  0  0  0
 29105  1  0  0  0
 29106  1  0  0  0
 33 34  1  0  0  0
 33 66  1  0  0  0
 33 70  2  0  0  0
 34 36  1  0  0  0
 34 59  1  0  0  0
 34107  1  0  0  0
 35 44  2  0  0  0
 35 45  1  0  0  0
 35 68  1  0  0  0
 36 56  1  0  0  0
 36108  1  0  0  0
 37 39  1  0  0  0
 37 47  1  0  0  0
 37 66  1  0  0  0
 37109  1  0  0  0
 38 43  2  0  0  0
 38 46  1  0  0  0
 38 47  1  0  0  0
 39 64  1  0  0  0
 39 67  2  0  0  0
 40 52  1  0  0  0
 40 53  2  0  0  0
 40 58  1  0  0  0
 41110  1  0  0  0
 41111  1  0  0  0
 41112  1  0  0  0
 41 48  1  0  0  0
 42 43  1  0  0  0
 42 66  1  0  0  0
 42113  1  0  0  0
 42114  1  0  0  0
 43 44  1  0  0  0
 44115  1  0  0  0
 45 46  2  0  0  0
 45116  1  0  0  0
 46117  1  0  0  0
 47118  1  0  0  0
 47119  1  0  0  0
 48 56  1  0  0  0
 48 65  1  0  0  0
 48120  1  0  0  0
 49 50  1  0  0  0
 49 53  1  0  0  0
 49 64  1  0  0  0
 49121  1  0  0  0
 50 51  1  0  0  0
 50122  1  0  0  0
 50123  1  0  0  0
 51 52  1  0  0  0
 51124  1  0  0  0
 51125  1  0  0  0
 52126  1  0  0  0
 52127  1  0  0  0
 53 54  1  0  0  0
 54 55  2  0  0  0
 54128  1  0  0  0
 55 57  1  0  0  0
 55129  1  0  0  0
 56 69  2  0  0  0
 57 58  2  0  0  0
 57130  1  0  0  0
 58131  1  0  0  0
 59 60  1  0  0  0
 59 61  1  0  0  0
 59 62  1  0  0  0
 60132  1  0  0  0
 60133  1  0  0  0
 60134  1  0  0  0
 61135  1  0  0  0
 61136  1  0  0  0
 61137  1  0  0  0
 62138  1  0  0  0
 62139  1  0  0  0
 62140  1  0  0  0
 63 65  1  0  0  0
 63141  1  0  0  0
 63142  1  0  0  0
 63143  1  0  0  0
 64144  1  0  0  0
 65145  1  0  0  0
 68 83  1  0  0  0
 71 73  1  0  0  0
 71146  1  0  0  0
 71147  1  0  0  0
 71 75  1  0  0  0
 72 74  1  0  0  0
 72 75  1  0  0  0
 72148  1  0  0  0
 72149  1  0  0  0
 73150  1  0  0  0
 73151  1  0  0  0
 73 76  1  0  0  0
 74 76  1  0  0  0
 74152  1  0  0  0
 74153  1  0  0  0
 75 84  1  0  0  0
 75154  1  0  0  0
 76 85  1  0  0  0
 76155  1  0  0  0
 77156  1  0  0  0
 77157  1  0  0  0
 77158  1  0  0  0
 77 84  1  0  0  0
 78159  1  0  0  0
 78160  1  0  0  0
 78161  1  0  0  0
 78 85  1  0  0  0
 79 85  1  0  0  0
 79162  1  0  0  0
 79163  1  0  0  0
 79164  1  0  0  0
 80 81  1  0  0  0
 80 83  1  0  0  0
 80165  1  0  0  0
 80166  1  0  0  0
 81 85  1  0  0  0
 81167  1  0  0  0
 81168  1  0  0  0
 82 84  1  0  0  0
 82 86  1  0  0  0
 82169  1  0  0  0
 82170  1  0  0  0
 83171  1  0  0  0
 83172  1  0  0  0
 84173  1  0  0  0
 86174  1  0  0  0
M  ISO  4   1 100  68 101  83 101  86 100
M  END
> <chiral flag>
0

> <version>
0

> <s_m_source_file>
/data/baiqing/PycharmProjects/Reinvent-master-3.2/result/LINK_invent/BTK/process_docking_weight1_custom_sum_contain_oxygen_bond_distance_aromatic_linkinvent_7_9_3/rearranged_h_0123.sdf

> <i_m_source_file_index>
61

> <r_mmod_Potential_Energy-OPLS-2005>
8.08130073547363

> <r_mmod_Stretch_Energy-OPLS-2005>
38.5451698303223

> <r_mmod_Bend_Energy-OPLS-2005>
123.01237487793

> <r_mmod_Torsional_Energy-OPLS-2005>
275.163635253906

> <r_mmod_Improper_Torsional_Energy-OPLS-2005>
6.77485656738281

> <r_mmod_Van_der_Waal_Energy-OPLS-2005>
155.584487915039

> <r_mmod_Electrostatic_Energy-OPLS-2005>
-419.217254638672

> <r_mmod_Solvation_Energy-OPLS-2005>
-187.241760253906

> <b_mmod_Minimization_Converged-OPLS-2005>
0

> <r_mmod_RMS_Derivative-OPLS-2005>
1.72264683246613

$$$$
61
                    3D
 Structure written by MMmdl.
178187  0  0  1  0            999 V2000
  -30.8422  -14.2598   20.7753 C   0  0  0  0  0  0
  -30.4085  -12.2909   19.3610 C   0  0  0  0  0  0
  -29.4681  -12.5430   18.1737 C   0  0  0  0  0  0
  -28.0006  -12.3816   18.6040 C   0  0  0  0  0  0
  -27.6651  -13.2042   19.8736 C   0  0  2  0  0  0
  -28.7037  -12.9540   20.9879 C   0  0  0  0  0  0
  -25.2601  -13.8164   20.5670 C   0  0  0  0  0  0
  -24.1847  -13.0442   20.9162 C   0  0  0  0  0  0
  -24.6398  -11.6906   20.8720 C   0  0  0  0  0  0
  -23.9064  -10.4293   21.0397 C   0  0  0  0  0  0
  -24.3613   -9.4210   21.9180 C   0  0  0  0  0  0
  -23.6289   -8.2246   22.0755 C   0  0  0  0  0  0
  -22.4271   -8.0281   21.3545 C   0  0  0  0  0  0
  -21.9906   -9.0254   20.4647 C   0  0  0  0  0  0
  -22.7236  -10.2133   20.3049 C   0  0  0  0  0  0
  -21.6854   -6.0735   22.5278 C   0  0  0  0  0  0
  -21.4014   -6.5640   23.8212 C   0  0  0  0  0  0
  -21.3658   -5.6790   24.9173 C   0  0  0  0  0  0
  -21.6042   -4.3054   24.7223 C   0  0  0  0  0  0
  -21.8819   -3.8146   23.4345 C   0  0  0  0  0  0
  -21.9194   -4.6962   22.3402 C   0  0  0  0  0  0
  -22.7868  -13.5240   21.1836 C   0  0  0  0  0  0
  -22.1662   -4.2149   21.0978 F   0  0  0  0  0  0
  -21.5628   -3.4539   25.7738 F   0  0  0  0  0  0
  -30.0552  -13.2071   20.4522 N   0  0  0  0  0  0
  -26.3042  -12.9333   20.3362 N   0  0  0  0  0  0
  -25.9324  -11.6490   20.5746 N   0  0  0  0  0  0
  -22.0510  -12.8229   22.0394 N   0  0  0  0  0  0
  -25.4333  -15.1882   20.4087 N   0  0  0  0  0  0
  -31.7575  -14.6822   20.0617 O   0  0  0  0  0  0
  -21.6638   -6.8878   21.4241 O   0  0  0  0  0  0
  -22.3552  -14.5551   20.6698 O   0  0  0  0  0  0
  -24.6111  -31.8704   23.2133 C   0  0  0  0  0  0
  -25.9020  -32.4837   23.8413 C   0  0  1  0  0  0
  -27.2401  -27.4720   20.0649 C   0  0  0  0  0  0
  -25.5888  -33.8637   24.2341 N   0  0  0  0  0  0
  -23.3963  -30.4948   21.5538 C   0  0  2  0  0  0
  -24.8398  -28.9638   20.1159 C   0  0  0  0  0  0
  -22.7383  -29.4670   22.5016 C   0  0  0  0  0  0
  -18.0263  -28.1375   22.8492 C   0  0  0  0  0  0
  -24.1484  -36.7316   23.2640 C   0  0  0  0  0  0
  -25.9223  -30.8427   21.3632 C   0  0  0  0  0  0
  -25.9976  -29.4800   20.7094 C   0  0  0  0  0  0
  -27.1947  -28.7353   20.6912 C   0  0  0  0  0  0
  -26.0532  -26.9481   19.4998 C   0  0  0  0  0  0
  -24.8591  -27.6926   19.5175 C   0  0  0  0  0  0
  -23.6014  -29.8277   20.1674 C   0  0  0  0  0  0
  -25.4108  -36.3123   24.0340 C   0  0  1  0  0  0
  -20.5850  -28.3650   23.1332 C   0  0  2  0  0  0
  -20.6752  -26.9391   22.5427 C   0  0  0  0  0  0
  -19.5738  -26.6383   21.5215 C   0  0  0  0  0  0
  -18.1909  -26.7927   22.1612 C   0  0  0  0  0  0
  -19.1512  -28.8828   23.2913 C   0  0  0  0  0  0
  -18.9448  -30.1437   23.8919 C   0  0  0  0  0  0
  -17.6451  -30.6581   24.0572 C   0  0  0  0  0  0
  -25.9030  -34.9486   23.5138 C   0  0  0  0  0  0
  -16.5341  -29.9089   23.6328 C   0  0  0  0  0  0
  -16.7254  -28.6507   23.0344 C   0  0  0  0  0  0
  -26.4459  -31.6611   25.0732 C   0  0  0  0  0  0
  -25.3738  -31.3707   26.1490 C   0  0  0  0  0  0
  -27.0283  -30.3058   24.6094 C   0  0  0  0  0  0
  -27.6044  -32.4323   25.7487 C   0  0  0  0  0  0
  -27.5584  -37.1815   24.8463 C   0  0  0  0  0  0
  -21.4116  -29.3027   22.3750 N   0  0  0  0  0  0
  -26.4295  -37.3805   23.9408 N   0  0  0  0  0  0
  -24.6614  -31.0829   22.1022 N   0  0  0  0  0  0
  -23.4171  -28.8215   23.3047 O   0  0  0  0  0  0
  -28.4407  -26.7990   20.0715 O   0  0  0  0  0  0
  -26.5594  -34.8931   22.4700 O   0  0  0  0  0  0
  -23.5316  -32.1446   23.7550 O   0  0  0  0  0  0
  -31.6093  -23.8589   20.7402 C   0  0  0  0  0  0
  -29.4056  -22.6724   21.0802 C   0  0  0  0  0  0
  -30.1330  -17.4461   22.9241 C   0  0  0  0  0  0
  -32.5682  -17.6419   23.5684 C   0  0  0  0  0  0
  -30.8642  -25.0930   20.2058 C   0  0  0  0  0  0
  -28.6563  -23.8998   20.5424 C   0  0  0  0  0  0
  -30.0545  -18.9723   22.7660 C   0  0  0  0  0  0
  -32.4980  -19.1685   23.4194 C   0  0  0  0  0  0
  -30.7480  -23.0609   21.7389 C   0  0  1  0  0  0
  -31.5583  -16.9236   22.6522 C   0  0  1  0  0  0
  -29.5232  -24.7035   19.5541 C   0  0  1  0  0  0
  -31.0695  -19.6966   23.6767 C   0  0  1  0  0  0
  -31.5645  -21.9457   24.7896 C   0  0  0  0  0  0
  -31.5016  -21.8170   22.2488 C   0  0  0  0  0  0
  -31.6787  -15.3987   22.8309 C   0  0  0  0  0  0
  -28.7703  -25.9216   18.9944 C   0  0  0  0  0  0
  -30.9434  -21.2377   23.5723 C   0  0  1  0  0  0
  -30.7071  -14.6401   22.0500 N   0  0  0  0  0  0
  -31.4487  -12.4008   19.0479 H   0  0  0  0  0  0
  -30.3120  -11.2613   19.7088 H   0  0  0  0  0  0
  -29.6967  -11.8545   17.3592 H   0  0  0  0  0  0
  -29.6302  -13.5483   17.7817 H   0  0  0  0  0  0
  -27.8198  -11.3220   18.7885 H   0  0  0  0  0  0
  -27.3366  -12.6657   17.7868 H   0  0  0  0  0  0
  -27.7228  -14.2576   19.5984 H   0  0  0  0  0  0
  -28.6479  -11.9225   21.3380 H   0  0  0  0  0  0
  -28.4554  -13.5767   21.8479 H   0  0  0  0  0  0
  -25.2760   -9.5686   22.4754 H   0  0  0  0  0  0
  -23.9999   -7.4636   22.7475 H   0  0  0  0  0  0
  -21.0837   -8.8771   19.8953 H   0  0  0  0  0  0
  -22.3699  -10.9667   19.6152 H   0  0  0  0  0  0
  -21.2006   -7.6148   23.9715 H   0  0  0  0  0  0
  -21.1479   -6.0522   25.9075 H   0  0  0  0  0  0
  -22.0600   -2.7608   23.2846 H   0  0  0  0  0  0
  -22.4117  -11.9879   22.4767 H   0  0  0  0  0  0
  -21.1128  -13.1255   22.2603 H   0  0  0  0  0  0
  -24.6731  -15.8497   20.5239 H   0  0  0  0  0  0
  -26.2986  -15.6257   20.1161 H   0  0  0  0  0  0
  -26.7094  -32.5548   23.1181 H   0  0  0  0  0  0
  -25.0050  -33.9814   25.0491 H   0  0  0  0  0  0
  -22.6837  -31.3107   21.4176 H   0  0  0  0  0  0
  -23.3748  -35.9647   23.3316 H   0  0  0  0  0  0
  -24.3579  -36.8919   22.2052 H   0  0  0  0  0  0
  -23.7232  -37.6523   23.6644 H   0  0  0  0  0  0
  -26.0341  -31.6114   20.5975 H   0  0  0  0  0  0
  -26.8107  -30.8928   21.9809 H   0  0  0  0  0  0
  -28.0915  -29.1344   21.1443 H   0  0  0  0  0  0
  -26.0159  -25.9628   19.0615 H   0  0  0  0  0  0
  -23.9623  -27.2796   19.0765 H   0  0  0  0  0  0
  -23.7067  -30.6028   19.4076 H   0  0  0  0  0  0
  -22.7254  -29.2465   19.8734 H   0  0  0  0  0  0
  -25.1289  -36.1996   25.0834 H   0  0  0  0  0  0
  -20.9942  -28.3213   24.1450 H   0  0  0  0  0  0
  -20.5640  -26.2264   23.3613 H   0  0  0  0  0  0
  -21.6629  -26.7430   22.1231 H   0  0  0  0  0  0
  -19.6900  -25.6297   21.1234 H   0  0  0  0  0  0
  -19.6689  -27.3205   20.6757 H   0  0  0  0  0  0
  -17.4193  -26.6696   21.3998 H   0  0  0  0  0  0
  -18.0287  -26.0053   22.8986 H   0  0  0  0  0  0
  -19.7925  -30.7250   24.2291 H   0  0  0  0  0  0
  -17.5008  -31.6264   24.5169 H   0  0  0  0  0  0
  -15.5344  -30.3003   23.7640 H   0  0  0  0  0  0
  -15.8649  -28.0842   22.7038 H   0  0  0  0  0  0
  -24.5923  -30.7035   25.7836 H   0  0  0  0  0  0
  -24.8913  -32.2855   26.4942 H   0  0  0  0  0  0
  -25.8105  -30.8886   27.0245 H   0  0  0  0  0  0
  -26.2819  -29.6829   24.1149 H   0  0  0  0  0  0
  -27.4060  -29.7287   25.4546 H   0  0  0  0  0  0
  -27.8653  -30.4382   23.9233 H   0  0  0  0  0  0
  -27.2669  -33.3609   26.2101 H   0  0  0  0  0  0
  -28.3831  -32.6905   25.0297 H   0  0  0  0  0  0
  -28.0735  -31.8426   26.5372 H   0  0  0  0  0  0
  -28.2615  -38.0100   24.7509 H   0  0  0  0  0  0
  -28.1068  -36.2639   24.6287 H   0  0  0  0  0  0
  -27.2305  -37.1464   25.8867 H   0  0  0  0  0  0
  -20.9264  -29.8764   21.6993 H   0  0  0  0  0  0
  -26.0190  -38.2886   24.1410 H   0  0  0  0  0  0
  -32.5368  -24.1777   21.2186 H   0  0  0  0  0  0
  -31.8998  -23.2180   19.9063 H   0  0  0  0  0  0
  -29.5847  -21.9739   20.2615 H   0  0  0  0  0  0
  -28.7646  -22.1474   21.7885 H   0  0  0  0  0  0
  -29.4198  -16.9835   22.2406 H   0  0  0  0  0  0
  -29.8201  -17.1645   23.9305 H   0  0  0  0  0  0
  -32.3795  -17.3731   24.6090 H   0  0  0  0  0  0
  -33.5807  -17.3027   23.3453 H   0  0  0  0  0  0
  -31.4922  -25.6149   19.4824 H   0  0  0  0  0  0
  -30.6910  -25.7947   21.0234 H   0  0  0  0  0  0
  -28.3581  -24.5341   21.3785 H   0  0  0  0  0  0
  -27.7336  -23.5811   20.0559 H   0  0  0  0  0  0
  -29.0418  -19.3050   22.9982 H   0  0  0  0  0  0
  -30.2248  -19.2301   21.7208 H   0  0  0  0  0  0
  -32.8342  -19.4384   22.4182 H   0  0  0  0  0  0
  -33.2025  -19.6287   24.1127 H   0  0  0  0  0  0
  -30.5437  -23.7145   22.5883 H   0  0  0  0  0  0
  -31.8131  -17.1623   21.6179 H   0  0  0  0  0  0
  -29.7481  -24.0540   18.7063 H   0  0  0  0  0  0
  -30.8051  -19.4247   24.7004 H   0  0  0  0  0  0
  -31.1349  -21.5792   25.7226 H   0  0  0  0  0  0
  -31.3862  -23.0207   24.7539 H   0  0  0  0  0  0
  -32.6429  -21.7954   24.8407 H   0  0  0  0  0  0
  -32.5575  -22.0525   22.3900 H   0  0  0  0  0  0
  -31.4871  -21.0694   21.4561 H   0  0  0  0  0  0
  -31.5325  -15.1369   23.8795 H   0  0  0  0  0  0
  -32.6887  -15.0698   22.5783 H   0  0  0  0  0  0
  -27.9280  -25.5739   18.4019 H   0  0  0  0  0  0
  -29.4101  -26.4651   18.2984 H   0  0  0  0  0  0
  -29.8764  -21.4552   23.6202 H   0  0  0  0  0  0
  -29.9611  -14.1946   22.5639 H   0  0  0  0  0  0
  1 25  1  0  0  0
  1 30  2  0  0  0
  1 88  1  0  0  0
  2  3  1  0  0  0
  2 25  1  0  0  0
  2 89  1  0  0  0
  2 90  1  0  0  0
  3  4  1  0  0  0
  3 91  1  0  0  0
  3 92  1  0  0  0
  4  5  1  0  0  0
  4 93  1  0  0  0
  4 94  1  0  0  0
  5  6  1  0  0  0
  5 26  1  0  0  0
  5 95  1  0  0  0
  6 25  1  0  0  0
  6 96  1  0  0  0
  6 97  1  0  0  0
  7  8  2  0  0  0
  7 26  1  0  0  0
  7 29  1  0  0  0
  8  9  1  0  0  0
  8 22  1  0  0  0
  9 10  1  0  0  0
  9 27  2  0  0  0
 10 11  2  0  0  0
 10 15  1  0  0  0
 11 12  1  0  0  0
 11 98  1  0  0  0
 12 13  2  0  0  0
 12 99  1  0  0  0
 13 14  1  0  0  0
 13 31  1  0  0  0
 14 15  2  0  0  0
 14100  1  0  0  0
 15101  1  0  0  0
 16 17  2  0  0  0
 16 21  1  0  0  0
 16 31  1  0  0  0
 17 18  1  0  0  0
 17102  1  0  0  0
 18 19  2  0  0  0
 18103  1  0  0  0
 19 20  1  0  0  0
 19 24  1  0  0  0
 20 21  2  0  0  0
 20104  1  0  0  0
 21 23  1  0  0  0
 22 28  1  0  0  0
 22 32  2  0  0  0
 26 27  1  0  0  0
 28105  1  0  0  0
 28106  1  0  0  0
 29107  1  0  0  0
 29108  1  0  0  0
 33 34  1  0  0  0
 33 66  1  0  0  0
 33 70  2  0  0  0
 34 36  1  0  0  0
 34 59  1  0  0  0
 34109  1  0  0  0
 35 44  2  0  0  0
 35 45  1  0  0  0
 35 68  1  0  0  0
 36 56  1  0  0  0
 36110  1  0  0  0
 37 39  1  0  0  0
 37 47  1  0  0  0
 37 66  1  0  0  0
 37111  1  0  0  0
 38 43  2  0  0  0
 38 46  1  0  0  0
 38 47  1  0  0  0
 39 64  1  0  0  0
 39 67  2  0  0  0
 40 52  1  0  0  0
 40 53  2  0  0  0
 40 58  1  0  0  0
 41112  1  0  0  0
 41113  1  0  0  0
 41114  1  0  0  0
 41 48  1  0  0  0
 42 43  1  0  0  0
 42 66  1  0  0  0
 42115  1  0  0  0
 42116  1  0  0  0
 43 44  1  0  0  0
 44117  1  0  0  0
 45 46  2  0  0  0
 45118  1  0  0  0
 46119  1  0  0  0
 47120  1  0  0  0
 47121  1  0  0  0
 48 56  1  0  0  0
 48 65  1  0  0  0
 48122  1  0  0  0
 49 50  1  0  0  0
 49 53  1  0  0  0
 49 64  1  0  0  0
 49123  1  0  0  0
 50 51  1  0  0  0
 50124  1  0  0  0
 50125  1  0  0  0
 51 52  1  0  0  0
 51126  1  0  0  0
 51127  1  0  0  0
 52128  1  0  0  0
 52129  1  0  0  0
 53 54  1  0  0  0
 54 55  2  0  0  0
 54130  1  0  0  0
 55 57  1  0  0  0
 55131  1  0  0  0
 56 69  2  0  0  0
 57 58  2  0  0  0
 57132  1  0  0  0
 58133  1  0  0  0
 59 60  1  0  0  0
 59 61  1  0  0  0
 59 62  1  0  0  0
 60134  1  0  0  0
 60135  1  0  0  0
 60136  1  0  0  0
 61137  1  0  0  0
 61138  1  0  0  0
 61139  1  0  0  0
 62140  1  0  0  0
 62141  1  0  0  0
 62142  1  0  0  0
 63 65  1  0  0  0
 63143  1  0  0  0
 63144  1  0  0  0
 63145  1  0  0  0
 64146  1  0  0  0
 65147  1  0  0  0
 68 86  1  0  0  0
 71 75  1  0  0  0
 71 79  1  0  0  0
 71148  1  0  0  0
 71149  1  0  0  0
 72 76  1  0  0  0
 72 79  1  0  0  0
 72150  1  0  0  0
 72151  1  0  0  0
 73 77  1  0  0  0
 73 80  1  0  0  0
 73152  1  0  0  0
 73153  1  0  0  0
 74 78  1  0  0  0
 74 80  1  0  0  0
 74154  1  0  0  0
 74155  1  0  0  0
 75 81  1  0  0  0
 75156  1  0  0  0
 75157  1  0  0  0
 76 81  1  0  0  0
 76158  1  0  0  0
 76159  1  0  0  0
 77160  1  0  0  0
 77161  1  0  0  0
 77 82  1  0  0  0
 78 82  1  0  0  0
 78162  1  0  0  0
 78163  1  0  0  0
 79 84  1  0  0  0
 79164  1  0  0  0
 80 85  1  0  0  0
 80165  1  0  0  0
 81 86  1  0  0  0
 81166  1  0  0  0
 82 87  1  0  0  0
 82167  1  0  0  0
 83168  1  0  0  0
 83169  1  0  0  0
 83170  1  0  0  0
 83 87  1  0  0  0
 84 87  1  0  0  0
 84171  1  0  0  0
 84172  1  0  0  0
 85 88  1  0  0  0
 85173  1  0  0  0
 85174  1  0  0  0
 86175  1  0  0  0
 86176  1  0  0  0
 87177  1  0  0  0
 88178  1  0  0  0
M  ISO  4   1 100  68 101  86 101  88 100
M  END
> <chiral flag>
0

> <version>
0

> <s_m_source_file>
/data/baiqing/PycharmProjects/Reinvent-master-3.2/result/LINK_invent/BTK/process_docking_weight1_custom_sum_contain_oxygen_bond_distance_aromatic_linkinvent_7_9_3/rearranged_h_0123.sdf

> <i_m_source_file_index>
62

> <r_mmod_Potential_Energy-OPLS-2005>
-7.10619163513184

> <r_mmod_Stretch_Energy-OPLS-2005>
31.7924747467041

> <r_mmod_Bend_Energy-OPLS-2005>
103.867935180664

> <r_mmod_Torsional_Energy-OPLS-2005>
271.091064453125

> <r_mmod_Improper_Torsional_Energy-OPLS-2005>
5.53136014938354

> <r_mmod_Van_der_Waal_Energy-OPLS-2005>
143.197998046875

> <r_mmod_Electrostatic_Energy-OPLS-2005>
-389.174621582031

> <r_mmod_Solvation_Energy-OPLS-2005>
-183.917846679688

> <b_mmod_Minimization_Converged-OPLS-2005>
0

> <r_mmod_RMS_Derivative-OPLS-2005>
0.548412561416626

$$$$
62
                    3D
 Structure written by MMmdl.
173182  0  0  1  0            999 V2000
  -30.5362  -15.0181   20.4447 C   0  0  0  0  0  0
  -30.4484  -12.6523   19.4794 C   0  0  0  0  0  0
  -29.5187  -12.5260   18.2513 C   0  0  0  0  0  0
  -28.0614  -12.2930   18.6854 C   0  0  0  0  0  0
  -27.6234  -13.2489   19.8238 C   0  0  2  0  0  0
  -28.6714  -13.3289   20.9535 C   0  0  0  0  0  0
  -25.2460  -13.8213   20.5715 C   0  0  0  0  0  0
  -24.1806  -13.0442   20.9263 C   0  0  0  0  0  0
  -24.6404  -11.6931   20.8772 C   0  0  0  0  0  0
  -23.9095  -10.4292   21.0410 C   0  0  0  0  0  0
  -24.3643   -9.4199   21.9181 C   0  0  0  0  0  0
  -23.6318   -8.2228   22.0744 C   0  0  0  0  0  0
  -22.4288   -8.0273   21.3550 C   0  0  0  0  0  0
  -21.9931   -9.0244   20.4642 C   0  0  0  0  0  0
  -22.7258  -10.2123   20.3052 C   0  0  0  0  0  0
  -21.6864   -6.0733   22.5285 C   0  0  0  0  0  0
  -21.4002   -6.5638   23.8214 C   0  0  0  0  0  0
  -21.3674   -5.6786   24.9184 C   0  0  0  0  0  0
  -21.6061   -4.3055   24.7222 C   0  0  0  0  0  0
  -21.8830   -3.8151   23.4343 C   0  0  0  0  0  0
  -21.9199   -4.6974   22.3396 C   0  0  0  0  0  0
  -22.7819  -13.5218   21.1901 C   0  0  0  0  0  0
  -22.1673   -4.2174   21.0977 F   0  0  0  0  0  0
  -21.5642   -3.4517   25.7725 F   0  0  0  0  0  0
  -29.9321  -13.7611   20.3352 N   0  0  0  0  0  0
  -26.2882  -12.9434   20.3213 N   0  0  0  0  0  0
  -25.9334  -11.6590   20.5736 N   0  0  0  0  0  0
  -22.0461  -12.8184   22.0446 N   0  0  0  0  0  0
  -25.4154  -15.1929   20.4130 N   0  0  0  0  0  0
  -31.7614  -15.0503   20.2752 O   0  0  0  0  0  0
  -21.6666   -6.8865   21.4237 O   0  0  0  0  0  0
  -22.3501  -14.5501   20.6736 O   0  0  0  0  0  0
  -24.6430  -31.8430   23.1826 C   0  0  0  0  0  0
  -25.9214  -32.4658   23.8258 C   0  0  1  0  0  0
  -27.2145  -27.0993   20.1595 C   0  0  0  0  0  0
  -25.5991  -33.8478   24.2173 N   0  0  0  0  0  0
  -23.4458  -30.4592   21.5307 C   0  0  2  0  0  0
  -24.8957  -28.8749   20.1074 C   0  0  0  0  0  0
  -22.7535  -29.4553   22.4853 C   0  0  0  0  0  0
  -18.0283  -28.1373   22.8455 C   0  0  0  0  0  0
  -24.1495  -36.7234   23.2637 C   0  0  0  0  0  0
  -26.0012  -30.6996   21.3877 C   0  0  0  0  0  0
  -26.0692  -29.3077   20.7323 C   0  0  0  0  0  0
  -27.2229  -28.4352   20.7471 C   0  0  0  0  0  0
  -26.0137  -26.7807   19.4851 C   0  0  0  0  0  0
  -24.8805  -27.6241   19.4720 C   0  0  0  0  0  0
  -23.6701  -29.7777   20.1522 C   0  0  0  0  0  0
  -25.4125  -36.3006   24.0305 C   0  0  1  0  0  0
  -20.5881  -28.3717   23.1203 C   0  0  2  0  0  0
  -20.6779  -26.9431   22.5391 C   0  0  0  0  0  0
  -19.5777  -26.6375   21.5178 C   0  0  0  0  0  0
  -18.1946  -26.7928   22.1583 C   0  0  0  0  0  0
  -19.1538  -28.8867   23.2819 C   0  0  0  0  0  0
  -18.9481  -30.1450   23.8876 C   0  0  0  0  0  0
  -17.6487  -30.6599   24.0541 C   0  0  0  0  0  0
  -25.9087  -34.9395   23.5039 C   0  0  0  0  0  0
  -16.5365  -29.9097   23.6325 C   0  0  0  0  0  0
  -16.7271  -28.6485   23.0396 C   0  0  0  0  0  0
  -26.4562  -31.6527   25.0707 C   0  0  0  0  0  0
  -25.3767  -31.3767   26.1419 C   0  0  0  0  0  0
  -27.0444  -30.2914   24.6315 C   0  0  0  0  0  0
  -27.6066  -32.4327   25.7512 C   0  0  0  0  0  0
  -27.5578  -37.1748   24.8460 C   0  0  0  0  0  0
  -21.4233  -29.3053   22.3580 N   0  0  0  0  0  0
  -26.4278  -37.3727   23.9434 N   0  0  0  0  0  0
  -24.7152  -31.0246   22.0874 N   0  0  0  0  0  0
  -23.4172  -28.8124   23.3025 O   0  0  0  0  0  0
  -28.2641  -26.1000   20.2745 O   0  0  0  0  0  0
  -26.5673  -34.8899   22.4621 O   0  0  0  0  0  0
  -23.5536  -32.1374   23.6989 O   0  0  0  0  0  0
  -30.4282  -19.0639   22.8182 C   0  0  0  0  0  0
  -30.4754  -17.8373   22.1295 C   0  0  0  0  0  0
  -29.8587  -20.2372   22.2657 C   0  0  0  0  0  0
  -29.3880  -20.2167   20.9204 C   0  0  0  0  0  0
  -29.8998  -17.6894   20.8583 C   0  0  0  0  0  0
  -31.3411  -22.4796   25.3029 C   0  0  0  0  0  0
  -31.9046  -21.9737   23.9755 C   0  0  0  0  0  0
  -30.3782  -23.3379   24.4713 C   0  0  1  0  0  0
  -28.5618  -24.5581   18.4159 C   0  0  0  0  0  0
  -30.2934  -26.7031   22.6726 C   0  0  0  0  0  0
  -29.6274  -21.3851   23.2534 C   0  0  0  0  0  0
  -28.7819  -21.5953   20.1844 C   0  0  0  0  0  0
  -30.7507  -24.7983   24.1836 C   0  0  0  0  0  0
  -28.9048  -23.2461   20.6320 C   0  0  0  0  0  0
  -28.1472  -24.5777   19.8902 C   0  0  2  0  0  0
  -29.3872  -18.9154   20.2969 N   0  0  0  0  0  0
  -30.6620  -22.4320   23.3365 N   0  0  0  0  0  0
  -29.7495  -16.2209   20.3996 N   0  0  0  0  0  0
  -29.8511  -25.3877   23.1763 N   0  3  0  0  0  0
  -31.4657  -12.8477   19.1449 H   0  0  0  0  0  0
  -30.4878  -11.7196   20.0422 H   0  0  0  0  0  0
  -29.8467  -11.7061   17.6110 H   0  0  0  0  0  0
  -29.5861  -13.4318   17.6463 H   0  0  0  0  0  0
  -27.9906  -11.2602   19.0296 H   0  0  0  0  0  0
  -27.3896  -12.3754   17.8303 H   0  0  0  0  0  0
  -27.5634  -14.2356   19.3682 H   0  0  0  0  0  0
  -28.7853  -12.3689   21.4595 H   0  0  0  0  0  0
  -28.3571  -14.0547   21.7050 H   0  0  0  0  0  0
  -25.2791   -9.5684   22.4761 H   0  0  0  0  0  0
  -24.0062   -7.4615   22.7422 H   0  0  0  0  0  0
  -21.0884   -8.8752   19.8906 H   0  0  0  0  0  0
  -22.3728  -10.9674   19.6169 H   0  0  0  0  0  0
  -21.1962   -7.6142   23.9726 H   0  0  0  0  0  0
  -21.1503   -6.0509   25.9088 H   0  0  0  0  0  0
  -22.0595   -2.7613   23.2835 H   0  0  0  0  0  0
  -22.4122  -11.9901   22.4905 H   0  0  0  0  0  0
  -21.1039  -13.1147   22.2564 H   0  0  0  0  0  0
  -24.6430  -15.8426   20.5129 H   0  0  0  0  0  0
  -26.2475  -15.6315   20.0412 H   0  0  0  0  0  0
  -26.7269  -32.5266   23.0968 H   0  0  0  0  0  0
  -25.0197  -33.9660   25.0357 H   0  0  0  0  0  0
  -22.7487  -31.2842   21.3718 H   0  0  0  0  0  0
  -23.3787  -35.9532   23.3253 H   0  0  0  0  0  0
  -24.3569  -36.8939   22.2060 H   0  0  0  0  0  0
  -23.7225  -37.6400   23.6720 H   0  0  0  0  0  0
  -26.1621  -31.4456   20.6069 H   0  0  0  0  0  0
  -26.8660  -30.7536   22.0351 H   0  0  0  0  0  0
  -28.1017  -28.7660   21.2823 H   0  0  0  0  0  0
  -25.9130  -25.8275   18.9906 H   0  0  0  0  0  0
  -23.9794  -27.2866   18.9836 H   0  0  0  0  0  0
  -23.8027  -30.5534   19.3967 H   0  0  0  0  0  0
  -22.7832  -29.2189   19.8374 H   0  0  0  0  0  0
  -25.1281  -36.1821   25.0784 H   0  0  0  0  0  0
  -20.9958  -28.3350   24.1323 H   0  0  0  0  0  0
  -20.5649  -26.2363   23.3624 H   0  0  0  0  0  0
  -21.6659  -26.7447   22.1206 H   0  0  0  0  0  0
  -19.6981  -25.6277   21.1248 H   0  0  0  0  0  0
  -19.6746  -27.3148   20.6683 H   0  0  0  0  0  0
  -17.4224  -26.6643   21.3983 H   0  0  0  0  0  0
  -18.0380  -26.0059   22.8961 H   0  0  0  0  0  0
  -19.7975  -30.7221   24.2283 H   0  0  0  0  0  0
  -17.5072  -31.6280   24.5141 H   0  0  0  0  0  0
  -15.5383  -30.3014   23.7676 H   0  0  0  0  0  0
  -15.8648  -28.0766   22.7219 H   0  0  0  0  0  0
  -24.5906  -30.7139   25.7775 H   0  0  0  0  0  0
  -24.9028  -32.2991   26.4786 H   0  0  0  0  0  0
  -25.8061  -30.8994   27.0238 H   0  0  0  0  0  0
  -26.3062  -29.6619   24.1314 H   0  0  0  0  0  0
  -27.4055  -29.7203   25.4885 H   0  0  0  0  0  0
  -27.8979  -30.4147   23.9637 H   0  0  0  0  0  0
  -27.2604  -33.3632   26.2012 H   0  0  0  0  0  0
  -28.3917  -32.6887   25.0391 H   0  0  0  0  0  0
  -28.0689  -31.8546   26.5520 H   0  0  0  0  0  0
  -28.2514  -38.0113   24.7538 H   0  0  0  0  0  0
  -28.1150  -36.2639   24.6211 H   0  0  0  0  0  0
  -27.2316  -37.1269   25.8866 H   0  0  0  0  0  0
  -20.9453  -29.8789   21.6759 H   0  0  0  0  0  0
  -26.0141  -38.2781   24.1494 H   0  0  0  0  0  0
  -30.7741  -19.0728   23.8425 H   0  0  0  0  0  0
  -30.8782  -16.9789   22.6496 H   0  0  0  0  0  0
  -32.0509  -23.0476   25.9061 H   0  0  0  0  0  0
  -30.8498  -21.7026   25.8923 H   0  0  0  0  0  0
  -32.0705  -20.8985   23.8985 H   0  0  0  0  0  0
  -32.7528  -22.5589   23.6145 H   0  0  0  0  0  0
  -29.3458  -23.2257   24.8118 H   0  0  0  0  0  0
  -29.6171  -24.8177   18.3174 H   0  0  0  0  0  0
  -27.9960  -25.2739   17.8251 H   0  0  0  0  0  0
  -28.4129  -23.5745   17.9683 H   0  0  0  0  0  0
  -29.5610  -27.1227   21.9915 H   0  0  0  0  0  0
  -31.2320  -26.6149   22.1228 H   0  0  0  0  0  0
  -30.4148  -27.4230   23.4813 H   0  0  0  0  0  0
  -29.4971  -20.9310   24.2373 H   0  0  0  0  0  0
  -28.6525  -21.8239   23.0563 H   0  0  0  0  0  0
  -27.7181  -21.3970   20.0624 H   0  0  0  0  0  0
  -29.1815  -21.5470   19.1724 H   0  0  0  0  0  0
  -31.7875  -24.8882   23.8597 H   0  0  0  0  0  0
  -30.6640  -25.3899   25.0969 H   0  0  0  0  0  0
  -29.9716  -23.4703   20.6640 H   0  0  0  0  0  0
  -28.5622  -23.3174   21.6568 H   0  0  0  0  0  0
  -27.0873  -24.3292   19.9433 H   0  0  0  0  0  0
  -28.8172  -16.0206   20.0782 H   0  0  0  0  0  0
  -29.8155  -24.7472   22.4013 H   0  0  0  0  0  0
  -28.9268  -25.4696   23.5695 H   0  0  0  0  0  0
  1 25  1  0  0  0
  1 30  2  0  0  0
  1 88  1  0  0  0
  2  3  1  0  0  0
  2 25  1  0  0  0
  2 90  1  0  0  0
  2 91  1  0  0  0
  3  4  1  0  0  0
  3 92  1  0  0  0
  3 93  1  0  0  0
  4  5  1  0  0  0
  4 94  1  0  0  0
  4 95  1  0  0  0
  5  6  1  0  0  0
  5 26  1  0  0  0
  5 96  1  0  0  0
  6 25  1  0  0  0
  6 97  1  0  0  0
  6 98  1  0  0  0
  7  8  2  0  0  0
  7 26  1  0  0  0
  7 29  1  0  0  0
  8  9  1  0  0  0
  8 22  1  0  0  0
  9 10  1  0  0  0
  9 27  2  0  0  0
 10 11  2  0  0  0
 10 15  1  0  0  0
 11 12  1  0  0  0
 11 99  1  0  0  0
 12 13  2  0  0  0
 12100  1  0  0  0
 13 14  1  0  0  0
 13 31  1  0  0  0
 14 15  2  0  0  0
 14101  1  0  0  0
 15102  1  0  0  0
 16 17  2  0  0  0
 16 21  1  0  0  0
 16 31  1  0  0  0
 17 18  1  0  0  0
 17103  1  0  0  0
 18 19  2  0  0  0
 18104  1  0  0  0
 19 20  1  0  0  0
 19 24  1  0  0  0
 20 21  2  0  0  0
 20105  1  0  0  0
 21 23  1  0  0  0
 22 28  1  0  0  0
 22 32  2  0  0  0
 26 27  1  0  0  0
 28106  1  0  0  0
 28107  1  0  0  0
 29108  1  0  0  0
 29109  1  0  0  0
 33 34  1  0  0  0
 33 66  1  0  0  0
 33 70  2  0  0  0
 34 36  1  0  0  0
 34 59  1  0  0  0
 34110  1  0  0  0
 35 44  2  0  0  0
 35 45  1  0  0  0
 35 68  1  0  0  0
 36 56  1  0  0  0
 36111  1  0  0  0
 37 39  1  0  0  0
 37 47  1  0  0  0
 37 66  1  0  0  0
 37112  1  0  0  0
 38 43  2  0  0  0
 38 46  1  0  0  0
 38 47  1  0  0  0
 39 64  1  0  0  0
 39 67  2  0  0  0
 40 52  1  0  0  0
 40 53  2  0  0  0
 40 58  1  0  0  0
 41113  1  0  0  0
 41114  1  0  0  0
 41115  1  0  0  0
 41 48  1  0  0  0
 42 43  1  0  0  0
 42 66  1  0  0  0
 42116  1  0  0  0
 42117  1  0  0  0
 43 44  1  0  0  0
 44118  1  0  0  0
 45 46  2  0  0  0
 45119  1  0  0  0
 46120  1  0  0  0
 47121  1  0  0  0
 47122  1  0  0  0
 48 56  1  0  0  0
 48 65  1  0  0  0
 48123  1  0  0  0
 49 50  1  0  0  0
 49 53  1  0  0  0
 49 64  1  0  0  0
 49124  1  0  0  0
 50 51  1  0  0  0
 50125  1  0  0  0
 50126  1  0  0  0
 51 52  1  0  0  0
 51127  1  0  0  0
 51128  1  0  0  0
 52129  1  0  0  0
 52130  1  0  0  0
 53 54  1  0  0  0
 54 55  2  0  0  0
 54131  1  0  0  0
 55 57  1  0  0  0
 55132  1  0  0  0
 56 69  2  0  0  0
 57 58  2  0  0  0
 57133  1  0  0  0
 58134  1  0  0  0
 59 60  1  0  0  0
 59 61  1  0  0  0
 59 62  1  0  0  0
 60135  1  0  0  0
 60136  1  0  0  0
 60137  1  0  0  0
 61138  1  0  0  0
 61139  1  0  0  0
 61140  1  0  0  0
 62141  1  0  0  0
 62142  1  0  0  0
 62143  1  0  0  0
 63 65  1  0  0  0
 63144  1  0  0  0
 63145  1  0  0  0
 63146  1  0  0  0
 64147  1  0  0  0
 65148  1  0  0  0
 68 85  1  0  0  0
 71 72  2  0  0  0
 71 73  1  0  0  0
 71149  1  0  0  0
 72 75  1  0  0  0
 72150  1  0  0  0
 73 74  2  0  0  0
 73 81  1  0  0  0
 74 82  1  0  0  0
 74 86  1  0  0  0
 75 86  2  0  0  0
 75 88  1  0  0  0
 76 77  1  0  0  0
 76 78  1  0  0  0
 76151  1  0  0  0
 76152  1  0  0  0
 77 87  1  0  0  0
 77153  1  0  0  0
 77154  1  0  0  0
 78 83  1  0  0  0
 78 87  1  0  0  0
 78155  1  0  0  0
 79156  1  0  0  0
 79157  1  0  0  0
 79158  1  0  0  0
 79 85  1  0  0  0
 80 89  1  0  0  0
 80159  1  0  0  0
 80160  1  0  0  0
 80161  1  0  0  0
 81 87  1  0  0  0
 81162  1  0  0  0
 81163  1  0  0  0
 82 84  1  0  0  0
 82164  1  0  0  0
 82165  1  0  0  0
 83 89  1  0  0  0
 83166  1  0  0  0
 83167  1  0  0  0
 84 85  1  0  0  0
 84168  1  0  0  0
 84169  1  0  0  0
 85170  1  0  0  0
 88171  1  0  0  0
 89172  1  0  0  0
 89173  1  0  0  0
M  CHG  1  89   1
M  ISO  4   1 100  68 101  85 101  88 100
M  END
> <chiral flag>
0

> <version>
0

> <s_m_source_file>
/data/baiqing/PycharmProjects/Reinvent-master-3.2/result/LINK_invent/BTK/process_docking_weight1_custom_sum_contain_oxygen_bond_distance_aromatic_linkinvent_7_9_3/rearranged_h_0123.sdf

> <i_m_source_file_index>
63

> <r_mmod_Potential_Energy-OPLS-2005>
330.380126953125

> <r_mmod_Stretch_Energy-OPLS-2005>
315.341583251953

> <r_mmod_Bend_Energy-OPLS-2005>
306.840515136719

> <r_mmod_Torsional_Energy-OPLS-2005>
274.222106933594

> <r_mmod_Improper_Torsional_Energy-OPLS-2005>
11.2067708969116

> <r_mmod_Van_der_Waal_Energy-OPLS-2005>
129.089111328125

> <r_mmod_Electrostatic_Energy-OPLS-2005>
-493.269378662109

> <r_mmod_Solvation_Energy-OPLS-2005>
-454.612121582031

> <b_mmod_Minimization_Converged-OPLS-2005>
0

> <r_mmod_RMS_Derivative-OPLS-2005>
4.78044843673706

$$$$
63
                    3D
 Structure written by MMmdl.
175183  0  0  1  0            999 V2000
  -30.7856  -14.2380   20.7551 C   0  0  0  0  0  0
  -30.4450  -12.2574   19.3281 C   0  0  0  0  0  0
  -29.4794  -12.5127   18.1552 C   0  0  0  0  0  0
  -28.0072  -12.3688   18.5877 C   0  0  0  0  0  0
  -27.6871  -13.1648   19.8777 C   0  0  2  0  0  0
  -28.7270  -12.8140   20.9637 C   0  0  0  0  0  0
  -25.2859  -13.8091   20.5807 C   0  0  0  0  0  0
  -24.2028  -13.0436   20.9280 C   0  0  0  0  0  0
  -24.6456  -11.6862   20.8742 C   0  0  0  0  0  0
  -23.9034  -10.4292   21.0419 C   0  0  0  0  0  0
  -24.3598   -9.4200   21.9183 C   0  0  0  0  0  0
  -23.6297   -8.2213   22.0742 C   0  0  0  0  0  0
  -22.4291   -8.0238   21.3514 C   0  0  0  0  0  0
  -21.9906   -9.0226   20.4647 C   0  0  0  0  0  0
  -22.7206  -10.2130   20.3067 C   0  0  0  0  0  0
  -21.6848   -6.0720   22.5259 C   0  0  0  0  0  0
  -21.4002   -6.5636   23.8192 C   0  0  0  0  0  0
  -21.3678   -5.6803   24.9169 C   0  0  0  0  0  0
  -21.6071   -4.3057   24.7237 C   0  0  0  0  0  0
  -21.8826   -3.8143   23.4353 C   0  0  0  0  0  0
  -21.9195   -4.6947   22.3409 C   0  0  0  0  0  0
  -22.8056  -13.5276   21.1907 C   0  0  0  0  0  0
  -22.1648   -4.2121   21.0980 F   0  0  0  0  0  0
  -21.5672   -3.4560   25.7761 F   0  0  0  0  0  0
  -30.0829  -13.1224   20.4515 N   0  0  0  0  0  0
  -26.3198  -12.9149   20.3373 N   0  0  0  0  0  0
  -25.9358  -11.6352   20.5696 N   0  0  0  0  0  0
  -22.0632  -12.8229   22.0376 N   0  0  0  0  0  0
  -25.4743  -15.1833   20.4242 N   0  0  0  0  0  0
  -31.6769  -14.7329   20.0586 O   0  0  0  0  0  0
  -21.6643   -6.8836   21.4204 O   0  0  0  0  0  0
  -22.3813  -14.5625   20.6763 O   0  0  0  0  0  0
  -24.6090  -31.8746   23.2243 C   0  0  0  0  0  0
  -25.9016  -32.4864   23.8477 C   0  0  1  0  0  0
  -27.2257  -27.4715   20.0763 C   0  0  0  0  0  0
  -25.5867  -33.8661   24.2385 N   0  0  0  0  0  0
  -23.3945  -30.5057   21.5602 C   0  0  2  0  0  0
  -24.8352  -28.9842   20.1165 C   0  0  0  0  0  0
  -22.7368  -29.4700   22.5020 C   0  0  0  0  0  0
  -18.0247  -28.1370   22.8534 C   0  0  0  0  0  0
  -24.1471  -36.7354   23.2629 C   0  0  0  0  0  0
  -25.9195  -30.8468   21.3741 C   0  0  0  0  0  0
  -25.9924  -29.4804   20.7280 C   0  0  0  0  0  0
  -27.1855  -28.7242   20.7206 C   0  0  0  0  0  0
  -26.0575  -27.0170   19.4217 C   0  0  0  0  0  0
  -24.8598  -27.7464   19.4629 C   0  0  0  0  0  0
  -23.6004  -29.8524   20.1702 C   0  0  0  0  0  0
  -25.4091  -36.3138   24.0335 C   0  0  1  0  0  0
  -20.5815  -28.3719   23.1344 C   0  0  2  0  0  0
  -20.6723  -26.9452   22.5441 C   0  0  0  0  0  0
  -19.5723  -26.6409   21.5228 C   0  0  0  0  0  0
  -18.1894  -26.7922   22.1639 C   0  0  0  0  0  0
  -19.1477  -28.8864   23.2939 C   0  0  0  0  0  0
  -18.9432  -30.1466   23.8960 C   0  0  0  0  0  0
  -17.6419  -30.6601   24.0548 C   0  0  0  0  0  0
  -25.9013  -34.9494   23.5166 C   0  0  0  0  0  0
  -16.5314  -29.9111   23.6303 C   0  0  0  0  0  0
  -16.7229  -28.6489   23.0412 C   0  0  0  0  0  0
  -26.4469  -31.6620   25.0778 C   0  0  0  0  0  0
  -25.3748  -31.3694   26.1545 C   0  0  0  0  0  0
  -27.0281  -30.3060   24.6110 C   0  0  0  0  0  0
  -27.6063  -32.4307   25.7529 C   0  0  0  0  0  0
  -27.5561  -37.1847   24.8469 C   0  0  0  0  0  0
  -21.4081  -29.3140   22.3813 N   0  0  0  0  0  0
  -26.4275  -37.3824   23.9405 N   0  0  0  0  0  0
  -24.6593  -31.0876   22.1124 N   0  0  0  0  0  0
  -23.4158  -28.8183   23.2999 O   0  0  0  0  0  0
  -28.4045  -26.7569   20.1088 O   0  0  0  0  0  0
  -26.5589  -34.8948   22.4724 O   0  0  0  0  0  0
  -23.5308  -32.1459   23.7686 O   0  0  0  0  0  0
  -25.4846  -22.4538   21.1406 C   0  0  0  0  0  0
  -25.8997  -20.3572   19.4230 C   0  0  0  0  0  0
  -25.1562  -21.1601   21.5921 C   0  0  0  0  0  0
  -25.4832  -20.0747   20.7380 C   0  0  0  0  0  0
  -26.0583  -22.6004   19.8657 C   0  0  0  0  0  0
  -20.7489  -21.5354   22.0648 C   0  0  0  0  0  0
  -24.4792  -20.9886   22.9501 C   0  0  0  0  0  0
  -25.6305  -18.6383   21.2173 C   0  0  0  0  0  0
  -30.0241  -16.0786   22.2083 C   0  0  0  0  0  0
  -27.5527  -24.4287   20.3044 C   0  0  0  0  0  0
  -22.9682  -20.6757   22.8255 C   0  0  0  0  0  0
  -27.1306  -18.2854   21.0969 C   0  0  0  0  0  0
  -28.8512  -16.4701   21.2558 C   0  0  0  0  0  0
  -28.4378  -25.4454   19.5466 C   0  0  0  0  0  0
  -26.1917  -21.5947   18.9936 N   0  0  0  0  0  0
  -26.5873  -23.7951   19.4115 N   0  0  0  0  0  0
  -30.4491  -14.7084   21.9569 N   0  0  0  0  0  0
  -22.1942  -21.7937   22.2327 N   0  3  0  0  0  0
  -27.5391  -17.0081   21.7189 N   0  3  0  0  0  0
  -31.4752  -12.4217   19.0072 H   0  0  0  0  0  0
  -30.4018  -11.2138   19.6434 H   0  0  0  0  0  0
  -29.6990  -11.8177   17.3422 H   0  0  0  0  0  0
  -29.6490  -13.5118   17.7533 H   0  0  0  0  0  0
  -27.8124  -11.3091   18.7557 H   0  0  0  0  0  0
  -27.3484  -12.6767   17.7743 H   0  0  0  0  0  0
  -27.7760  -14.2259   19.6454 H   0  0  0  0  0  0
  -28.6812  -11.7445   21.1850 H   0  0  0  0  0  0
  -28.4629  -13.2968   21.9044 H   0  0  0  0  0  0
  -25.2744   -9.5699   22.4757 H   0  0  0  0  0  0
  -24.0032   -7.4618   22.7468 H   0  0  0  0  0  0
  -21.0834   -8.8734   19.8965 H   0  0  0  0  0  0
  -22.3626  -10.9671   19.6194 H   0  0  0  0  0  0
  -21.1924   -7.6135   23.9671 H   0  0  0  0  0  0
  -21.1530   -6.0546   25.9073 H   0  0  0  0  0  0
  -22.0592   -2.7599   23.2871 H   0  0  0  0  0  0
  -22.4202  -11.9816   22.4655 H   0  0  0  0  0  0
  -21.1252  -13.1243   22.2580 H   0  0  0  0  0  0
  -24.5650  -15.6362   20.4275 H   0  0  0  0  0  0
  -25.9252  -15.3557   19.5316 H   0  0  0  0  0  0
  -26.7080  -32.5632   23.1252 H   0  0  0  0  0  0
  -25.0013  -33.9854   25.0523 H   0  0  0  0  0  0
  -22.6784  -31.3190   21.4354 H   0  0  0  0  0  0
  -23.3715  -35.9711   23.3324 H   0  0  0  0  0  0
  -24.3584  -36.8948   22.2036 H   0  0  0  0  0  0
  -23.7250  -37.6587   23.6638 H   0  0  0  0  0  0
  -26.0185  -31.6123   20.6043 H   0  0  0  0  0  0
  -26.8140  -30.9137   21.9796 H   0  0  0  0  0  0
  -28.0726  -29.1004   21.2114 H   0  0  0  0  0  0
  -26.0372  -26.1131   18.8405 H   0  0  0  0  0  0
  -23.9801  -27.3717   18.9579 H   0  0  0  0  0  0
  -23.7074  -30.6364   19.4162 H   0  0  0  0  0  0
  -22.7215  -29.2786   19.8749 H   0  0  0  0  0  0
  -25.1241  -36.2015   25.0828 H   0  0  0  0  0  0
  -20.9917  -28.3278   24.1468 H   0  0  0  0  0  0
  -20.5664  -26.2323   23.3647 H   0  0  0  0  0  0
  -21.6584  -26.7552   22.1176 H   0  0  0  0  0  0
  -19.6873  -25.6313   21.1233 H   0  0  0  0  0  0
  -19.6625  -27.3233   20.6772 H   0  0  0  0  0  0
  -17.4149  -26.6729   21.4046 H   0  0  0  0  0  0
  -18.0306  -25.9997   22.8974 H   0  0  0  0  0  0
  -19.7889  -30.7279   24.2357 H   0  0  0  0  0  0
  -17.4967  -31.6293   24.5107 H   0  0  0  0  0  0
  -15.5323  -30.3081   23.7555 H   0  0  0  0  0  0
  -15.8618  -28.0775   22.7232 H   0  0  0  0  0  0
  -24.5929  -30.7029   25.7888 H   0  0  0  0  0  0
  -24.8926  -32.2832   26.4997 H   0  0  0  0  0  0
  -25.8112  -30.8871   27.0287 H   0  0  0  0  0  0
  -26.2820  -29.6864   24.1138 H   0  0  0  0  0  0
  -27.4030  -29.7234   25.4519 H   0  0  0  0  0  0
  -27.8655  -30.4372   23.9269 H   0  0  0  0  0  0
  -27.2701  -33.3582   26.2151 H   0  0  0  0  0  0
  -28.3849  -32.6907   25.0349 H   0  0  0  0  0  0
  -28.0779  -31.8416   26.5395 H   0  0  0  0  0  0
  -28.2595  -38.0117   24.7475 H   0  0  0  0  0  0
  -28.1028  -36.2654   24.6318 H   0  0  0  0  0  0
  -27.2314  -37.1529   25.8884 H   0  0  0  0  0  0
  -20.9241  -29.8990   21.7164 H   0  0  0  0  0  0
  -26.0163  -38.2902   24.1431 H   0  0  0  0  0  0
  -25.3370  -23.3161   21.7807 H   0  0  0  0  0  0
  -26.1341  -19.5628   18.7295 H   0  0  0  0  0  0
  -20.5729  -20.6700   21.4265 H   0  0  0  0  0  0
  -20.2696  -22.3954   21.5961 H   0  0  0  0  0  0
  -20.2581  -21.3633   23.0243 H   0  0  0  0  0  0
  -24.6151  -21.8933   23.5457 H   0  0  0  0  0  0
  -24.9817  -20.2103   23.5249 H   0  0  0  0  0  0
  -25.0285  -17.9851   20.5861 H   0  0  0  0  0  0
  -25.2794  -18.4976   22.2360 H   0  0  0  0  0  0
  -29.7396  -16.1673   23.2585 H   0  0  0  0  0  0
  -30.9024  -16.7175   22.0709 H   0  0  0  0  0  0
  -27.0199  -24.9128   21.1246 H   0  0  0  0  0  0
  -28.1849  -23.6624   20.7530 H   0  0  0  0  0  0
  -22.5599  -20.4448   23.8120 H   0  0  0  0  0  0
  -22.8335  -19.7800   22.2178 H   0  0  0  0  0  0
  -27.7240  -19.0889   21.5404 H   0  0  0  0  0  0
  -27.4136  -18.2405   20.0450 H   0  0  0  0  0  0
  -29.1618  -17.4761   21.5314 H   0  0  0  0  0  0
  -28.2753  -15.6590   21.7025 H   0  0  0  0  0  0
  -29.4719  -25.1055   19.5929 H   0  0  0  0  0  0
  -28.2054  -25.4937   18.4806 H   0  0  0  0  0  0
  -26.9159  -23.7254   18.4559 H   0  0  0  0  0  0
  -29.9621  -14.0211   22.5130 H   0  0  0  0  0  0
  -22.2940  -22.6091   22.8143 H   0  0  0  0  0  0
  -22.5753  -22.0218   21.3288 H   0  0  0  0  0  0
  -26.8349  -16.3211   21.4619 H   0  0  0  0  0  0
  -27.5274  -17.0966   22.7227 H   0  0  0  0  0  0
  1 25  1  0  0  0
  1 30  2  0  0  0
  1 87  1  0  0  0
  2  3  1  0  0  0
  2 25  1  0  0  0
  2 90  1  0  0  0
  2 91  1  0  0  0
  3  4  1  0  0  0
  3 92  1  0  0  0
  3 93  1  0  0  0
  4  5  1  0  0  0
  4 94  1  0  0  0
  4 95  1  0  0  0
  5  6  1  0  0  0
  5 26  1  0  0  0
  5 96  1  0  0  0
  6 25  1  0  0  0
  6 97  1  0  0  0
  6 98  1  0  0  0
  7  8  2  0  0  0
  7 26  1  0  0  0
  7 29  1  0  0  0
  8  9  1  0  0  0
  8 22  1  0  0  0
  9 10  1  0  0  0
  9 27  2  0  0  0
 10 11  2  0  0  0
 10 15  1  0  0  0
 11 12  1  0  0  0
 11 99  1  0  0  0
 12 13  2  0  0  0
 12100  1  0  0  0
 13 14  1  0  0  0
 13 31  1  0  0  0
 14 15  2  0  0  0
 14101  1  0  0  0
 15102  1  0  0  0
 16 17  2  0  0  0
 16 21  1  0  0  0
 16 31  1  0  0  0
 17 18  1  0  0  0
 17103  1  0  0  0
 18 19  2  0  0  0
 18104  1  0  0  0
 19 20  1  0  0  0
 19 24  1  0  0  0
 20 21  2  0  0  0
 20105  1  0  0  0
 21 23  1  0  0  0
 22 28  1  0  0  0
 22 32  2  0  0  0
 26 27  1  0  0  0
 28106  1  0  0  0
 28107  1  0  0  0
 29108  1  0  0  0
 29109  1  0  0  0
 33 34  1  0  0  0
 33 66  1  0  0  0
 33 70  2  0  0  0
 34 36  1  0  0  0
 34 59  1  0  0  0
 34110  1  0  0  0
 35 44  2  0  0  0
 35 45  1  0  0  0
 35 68  1  0  0  0
 36 56  1  0  0  0
 36111  1  0  0  0
 37 39  1  0  0  0
 37 47  1  0  0  0
 37 66  1  0  0  0
 37112  1  0  0  0
 38 43  2  0  0  0
 38 46  1  0  0  0
 38 47  1  0  0  0
 39 64  1  0  0  0
 39 67  2  0  0  0
 40 52  1  0  0  0
 40 53  2  0  0  0
 40 58  1  0  0  0
 41113  1  0  0  0
 41114  1  0  0  0
 41115  1  0  0  0
 41 48  1  0  0  0
 42 43  1  0  0  0
 42 66  1  0  0  0
 42116  1  0  0  0
 42117  1  0  0  0
 43 44  1  0  0  0
 44118  1  0  0  0
 45 46  2  0  0  0
 45119  1  0  0  0
 46120  1  0  0  0
 47121  1  0  0  0
 47122  1  0  0  0
 48 56  1  0  0  0
 48 65  1  0  0  0
 48123  1  0  0  0
 49 50  1  0  0  0
 49 53  1  0  0  0
 49 64  1  0  0  0
 49124  1  0  0  0
 50 51  1  0  0  0
 50125  1  0  0  0
 50126  1  0  0  0
 51 52  1  0  0  0
 51127  1  0  0  0
 51128  1  0  0  0
 52129  1  0  0  0
 52130  1  0  0  0
 53 54  1  0  0  0
 54 55  2  0  0  0
 54131  1  0  0  0
 55 57  1  0  0  0
 55132  1  0  0  0
 56 69  2  0  0  0
 57 58  2  0  0  0
 57133  1  0  0  0
 58134  1  0  0  0
 59 60  1  0  0  0
 59 61  1  0  0  0
 59 62  1  0  0  0
 60135  1  0  0  0
 60136  1  0  0  0
 60137  1  0  0  0
 61138  1  0  0  0
 61139  1  0  0  0
 61140  1  0  0  0
 62141  1  0  0  0
 62142  1  0  0  0
 62143  1  0  0  0
 63 65  1  0  0  0
 63144  1  0  0  0
 63145  1  0  0  0
 63146  1  0  0  0
 64147  1  0  0  0
 65148  1  0  0  0
 68 84  1  0  0  0
 71 73  2  0  0  0
 71 75  1  0  0  0
 71149  1  0  0  0
 72 74  2  0  0  0
 72 85  1  0  0  0
 72150  1  0  0  0
 73 74  1  0  0  0
 73 77  1  0  0  0
 74 78  1  0  0  0
 75 85  2  0  0  0
 75 86  1  0  0  0
 76 88  1  0  0  0
 76151  1  0  0  0
 76152  1  0  0  0
 76153  1  0  0  0
 77 81  1  0  0  0
 77154  1  0  0  0
 77155  1  0  0  0
 78 82  1  0  0  0
 78156  1  0  0  0
 78157  1  0  0  0
 79 83  1  0  0  0
 79 87  1  0  0  0
 79158  1  0  0  0
 79159  1  0  0  0
 80 84  1  0  0  0
 80 86  1  0  0  0
 80160  1  0  0  0
 80161  1  0  0  0
 81 88  1  0  0  0
 81162  1  0  0  0
 81163  1  0  0  0
 82 89  1  0  0  0
 82164  1  0  0  0
 82165  1  0  0  0
 83 89  1  0  0  0
 83166  1  0  0  0
 83167  1  0  0  0
 84168  1  0  0  0
 84169  1  0  0  0
 86170  1  0  0  0
 87171  1  0  0  0
 88172  1  0  0  0
 88173  1  0  0  0
 89174  1  0  0  0
 89175  1  0  0  0
M  CHG  2  88   1  89   1
M  ISO  4   1 100  68 101  84 101  87 100
M  END
> <chiral flag>
0

> <version>
0

> <s_m_source_file>
/data/baiqing/PycharmProjects/Reinvent-master-3.2/result/LINK_invent/BTK/process_docking_weight1_custom_sum_contain_oxygen_bond_distance_aromatic_linkinvent_7_9_3/rearranged_h_0123.sdf

> <i_m_source_file_index>
64

> <r_mmod_Potential_Energy-OPLS-2005>
-395.612915039062

> <r_mmod_Stretch_Energy-OPLS-2005>
34.5526657104492

> <r_mmod_Bend_Energy-OPLS-2005>
323.621246337891

> <r_mmod_Torsional_Energy-OPLS-2005>
310.993041992188

> <r_mmod_Improper_Torsional_Energy-OPLS-2005>
17.5093269348145

> <r_mmod_Van_der_Waal_Energy-OPLS-2005>
179.511856079102

> <r_mmod_Electrostatic_Energy-OPLS-2005>
-329.188171386719

> <r_mmod_Solvation_Energy-OPLS-2005>
-950.009033203125

> <b_mmod_Minimization_Converged-OPLS-2005>
0

> <r_mmod_RMS_Derivative-OPLS-2005>
4.95563793182373

$$$$
64
                    3D
 Structure written by MMmdl.
161170  0  0  1  0            999 V2000
  -30.6517  -14.6996   20.4934 C   0  0  0  0  0  0
  -30.4286  -12.4294   19.4758 C   0  0  0  0  0  0
  -29.5067  -12.4949   18.2387 C   0  0  0  0  0  0
  -28.0327  -12.3289   18.6503 C   0  0  0  0  0  0
  -27.6468  -13.2274   19.8534 C   0  0  2  0  0  0
  -28.6923  -13.1557   20.9888 C   0  0  0  0  0  0
  -25.2552  -13.8190   20.5696 C   0  0  0  0  0  0
  -24.1821  -13.0440   20.9210 C   0  0  0  0  0  0
  -24.6404  -11.6923   20.8739 C   0  0  0  0  0  0
  -23.9068  -10.4292   21.0415 C   0  0  0  0  0  0
  -24.3613   -9.4205   21.9197 C   0  0  0  0  0  0
  -23.6284   -8.2239   22.0772 C   0  0  0  0  0  0
  -22.4282   -8.0276   21.3541 C   0  0  0  0  0  0
  -21.9909   -9.0255   20.4652 C   0  0  0  0  0  0
  -22.7237  -10.2127   20.3059 C   0  0  0  0  0  0
  -21.6838   -6.0734   22.5276 C   0  0  0  0  0  0
  -21.4022   -6.5642   23.8209 C   0  0  0  0  0  0
  -21.3661   -5.6785   24.9172 C   0  0  0  0  0  0
  -21.6040   -4.3055   24.7215 C   0  0  0  0  0  0
  -21.8813   -3.8145   23.4342 C   0  0  0  0  0  0
  -21.9199   -4.6968   22.3397 C   0  0  0  0  0  0
  -22.7832  -13.5254   21.1815 C   0  0  0  0  0  0
  -22.1660   -4.2151   21.0975 F   0  0  0  0  0  0
  -21.5624   -3.4544   25.7732 F   0  0  0  0  0  0
  -30.0008  -13.4931   20.4119 N   0  0  0  0  0  0
  -26.2966  -12.9377   20.3301 N   0  0  0  0  0  0
  -25.9340  -11.6524   20.5774 N   0  0  0  0  0  0
  -22.0466  -12.8246   22.0384 N   0  0  0  0  0  0
  -25.4271  -15.1909   20.4140 N   0  0  0  0  0  0
  -31.8331  -14.7954   20.1488 O   0  0  0  0  0  0
  -21.6636   -6.8885   21.4233 O   0  0  0  0  0  0
  -22.3508  -14.5539   20.6667 O   0  0  0  0  0  0
  -24.6265  -31.8589   23.2041 C   0  0  0  0  0  0
  -25.9107  -32.4768   23.8379 C   0  0  1  0  0  0
  -27.2143  -27.2738   20.1276 C   0  0  0  0  0  0
  -25.5960  -33.8578   24.2300 N   0  0  0  0  0  0
  -23.4219  -30.4856   21.5434 C   0  0  2  0  0  0
  -24.8744  -28.9389   20.1012 C   0  0  0  0  0  0
  -22.7467  -29.4725   22.4902 C   0  0  0  0  0  0
  -18.0346  -28.1537   22.8276 C   0  0  0  0  0  0
  -24.1514  -36.7259   23.2643 C   0  0  0  0  0  0
  -25.9662  -30.7756   21.3853 C   0  0  0  0  0  0
  -26.0391  -29.4039   20.7199 C   0  0  0  0  0  0
  -27.2087  -28.5779   20.7295 C   0  0  0  0  0  0
  -26.0325  -26.8984   19.4429 C   0  0  0  0  0  0
  -24.8800  -27.7014   19.4441 C   0  0  0  0  0  0
  -23.6403  -29.8183   20.1595 C   0  0  0  0  0  0
  -25.4148  -36.3050   24.0319 C   0  0  1  0  0  0
  -20.5934  -28.3702   23.1281 C   0  0  2  0  0  0
  -20.6856  -26.9453   22.5372 C   0  0  0  0  0  0
  -19.5898  -26.6580   21.5001 C   0  0  0  0  0  0
  -18.2028  -26.8115   22.1316 C   0  0  0  0  0  0
  -19.1594  -28.8878   23.2933 C   0  0  0  0  0  0
  -18.9531  -30.1364   23.9276 C   0  0  0  0  0  0
  -17.6489  -30.6496   24.0852 C   0  0  0  0  0  0
  -25.9069  -34.9433   23.5095 C   0  0  0  0  0  0
  -16.5414  -29.9120   23.6294 C   0  0  0  0  0  0
  -16.7324  -28.6693   23.0012 C   0  0  0  0  0  0
  -26.4494  -31.6579   25.0744 C   0  0  0  0  0  0
  -25.3745  -31.3683   26.1471 C   0  0  0  0  0  0
  -27.0273  -30.3011   24.6146 C   0  0  0  0  0  0
  -27.6048  -32.4330   25.7490 C   0  0  0  0  0  0
  -27.5584  -37.1795   24.8480 C   0  0  0  0  0  0
  -21.4206  -29.3008   22.3607 N   0  0  0  0  0  0
  -26.4314  -37.3759   23.9391 N   0  0  0  0  0  0
  -24.6918  -31.0524   22.1023 N   0  0  0  0  0  0
  -23.4215  -28.8379   23.3052 O   0  0  0  0  0  0
  -28.3095  -26.3841   20.2582 O   0  0  0  0  0  0
  -26.5617  -34.8888   22.4662 O   0  0  0  0  0  0
  -23.5425  -32.1451   23.7328 O   0  0  0  0  0  0
  -27.1176  -20.3236   19.6980 C   0  0  0  0  0  0
  -26.0252  -21.0802   19.9369 C   0  0  0  0  0  0
  -28.2630  -20.9409   20.2900 C   0  0  0  0  0  0
  -27.8596  -22.2863   20.5372 C   0  0  0  0  0  0
  -25.5498  -23.0812   21.3152 C   0  0  0  0  0  0
  -26.2233  -24.2668   22.0344 C   0  0  0  0  0  0
  -28.3943  -23.7153   20.9538 C   0  0  1  0  0  0
  -29.5392  -20.0314   20.4834 C   0  0  0  0  0  0
  -28.2692  -24.9251   19.8737 C   0  0  0  0  0  0
  -29.2526  -18.4248   20.4749 C   0  0  0  0  0  0
  -30.3659  -17.2951   20.7367 C   0  0  0  0  0  0
  -26.4624  -22.1998   20.5903 N   0  0  0  0  0  0
  -29.9171  -15.8341   20.7659 N   0  0  0  0  0  0
  -27.6861  -24.0987   22.2003 N   0  3  0  0  0  0
  -31.4701  -12.5398   19.1710 H   0  0  0  0  0  0
  -30.3601  -11.4519   19.9590 H   0  0  0  0  0  0
  -29.7814  -11.7213   17.5196 H   0  0  0  0  0  0
  -29.6382  -13.4484   17.7251 H   0  0  0  0  0  0
  -27.8819  -11.2796   18.9118 H   0  0  0  0  0  0
  -27.3744  -12.5266   17.8019 H   0  0  0  0  0  0
  -27.6437  -14.2492   19.4726 H   0  0  0  0  0  0
  -28.7190  -12.1578   21.4296 H   0  0  0  0  0  0
  -28.4300  -13.8379   21.7983 H   0  0  0  0  0  0
  -25.2753   -9.5675   22.4794 H   0  0  0  0  0  0
  -23.9984   -7.4627   22.7501 H   0  0  0  0  0  0
  -21.0836   -8.8763   19.8959 H   0  0  0  0  0  0
  -22.3694  -10.9667   19.6178 H   0  0  0  0  0  0
  -21.2018   -7.6156   23.9710 H   0  0  0  0  0  0
  -21.1485   -6.0529   25.9068 H   0  0  0  0  0  0
  -22.0601   -2.7619   23.2835 H   0  0  0  0  0  0
  -22.4053  -11.9904   22.4763 H   0  0  0  0  0  0
  -21.1097  -13.1290   22.2580 H   0  0  0  0  0  0
  -24.6684  -15.8540   20.5385 H   0  0  0  0  0  0
  -26.2829  -15.6269   20.0912 H   0  0  0  0  0  0
  -26.7132  -32.5380   23.1052 H   0  0  0  0  0  0
  -25.0029  -33.9791   25.0378 H   0  0  0  0  0  0
  -22.7235  -31.3135   21.4020 H   0  0  0  0  0  0
  -23.3748  -35.9614   23.3284 H   0  0  0  0  0  0
  -24.3575  -36.8891   22.2056 H   0  0  0  0  0  0
  -23.7262  -37.6459   23.6663 H   0  0  0  0  0  0
  -26.1031  -31.5499   20.6240 H   0  0  0  0  0  0
  -26.8373  -30.8163   22.0326 H   0  0  0  0  0  0
  -28.0852  -28.9284   21.2536 H   0  0  0  0  0  0
  -25.9404  -25.9653   18.9074 H   0  0  0  0  0  0
  -23.9898  -27.3604   18.9356 H   0  0  0  0  0  0
  -23.7631  -30.5971   19.4089 H   0  0  0  0  0  0
  -22.7552  -29.2597   19.8448 H   0  0  0  0  0  0
  -25.1316  -36.1898   25.0806 H   0  0  0  0  0  0
  -21.0129  -28.3225   24.1337 H   0  0  0  0  0  0
  -20.5855  -26.2175   23.3438 H   0  0  0  0  0  0
  -21.6731  -26.7609   22.1264 H   0  0  0  0  0  0
  -19.7026  -25.6498   21.1098 H   0  0  0  0  0  0
  -19.7019  -27.3380   20.6518 H   0  0  0  0  0  0
  -17.4465  -26.7020   21.3513 H   0  0  0  0  0  0
  -18.0336  -26.0138   22.8523 H   0  0  0  0  0  0
  -19.7990  -30.6964   24.3115 H   0  0  0  0  0  0
  -17.4890  -31.6015   24.5760 H   0  0  0  0  0  0
  -15.5389  -30.3030   23.7545 H   0  0  0  0  0  0
  -15.8709  -28.1256   22.6403 H   0  0  0  0  0  0
  -24.6038  -30.6883   25.7817 H   0  0  0  0  0  0
  -24.8823  -32.2811   26.4850 H   0  0  0  0  0  0
  -25.8176  -30.8974   27.0256 H   0  0  0  0  0  0
  -26.2799  -29.6829   24.1181 H   0  0  0  0  0  0
  -27.3913  -29.7231   25.4635 H   0  0  0  0  0  0
  -27.8694  -30.4236   23.9335 H   0  0  0  0  0  0
  -27.2652  -33.3654   26.1985 H   0  0  0  0  0  0
  -28.3870  -32.6854   25.0326 H   0  0  0  0  0  0
  -28.0631  -31.8514   26.5473 H   0  0  0  0  0  0
  -28.2625  -38.0077   24.7461 H   0  0  0  0  0  0
  -28.1056  -36.2591   24.6369 H   0  0  0  0  0  0
  -27.2270  -37.1484   25.8883 H   0  0  0  0  0  0
  -20.9407  -29.8284   21.6391 H   0  0  0  0  0  0
  -26.0166  -38.2841   24.1324 H   0  0  0  0  0  0
  -27.0523  -19.3356   19.2665 H   0  0  0  0  0  0
  -24.9738  -20.8688   19.7837 H   0  0  0  0  0  0
  -24.7481  -23.4158   20.6602 H   0  0  0  0  0  0
  -25.0669  -22.4580   22.0672 H   0  0  0  0  0  0
  -25.7555  -24.4165   23.0092 H   0  0  0  0  0  0
  -26.0280  -25.1844   21.4883 H   0  0  0  0  0  0
  -29.4471  -23.6249   21.2178 H   0  0  0  0  0  0
  -30.0233  -20.3110   21.4187 H   0  0  0  0  0  0
  -30.2512  -20.2745   19.6952 H   0  0  0  0  0  0
  -29.1059  -24.7956   19.1876 H   0  0  0  0  0  0
  -27.4155  -24.6937   19.2492 H   0  0  0  0  0  0
  -28.8326  -18.1758   19.5010 H   0  0  0  0  0  0
  -28.4523  -18.2564   21.1948 H   0  0  0  0  0  0
  -30.8661  -17.5175   21.6790 H   0  0  0  0  0  0
  -31.1320  -17.3901   19.9668 H   0  0  0  0  0  0
  -28.9480  -15.6723   20.9978 H   0  0  0  0  0  0
  -28.0661  -24.9511   22.5852 H   0  0  0  0  0  0
  -27.8470  -23.3737   22.8769 H   0  0  0  0  0  0
  1 25  1  0  0  0
  1 30  2  0  0  0
  1 83  1  0  0  0
  2  3  1  0  0  0
  2 25  1  0  0  0
  2 85  1  0  0  0
  2 86  1  0  0  0
  3  4  1  0  0  0
  3 87  1  0  0  0
  3 88  1  0  0  0
  4  5  1  0  0  0
  4 89  1  0  0  0
  4 90  1  0  0  0
  5  6  1  0  0  0
  5 26  1  0  0  0
  5 91  1  0  0  0
  6 25  1  0  0  0
  6 92  1  0  0  0
  6 93  1  0  0  0
  7  8  2  0  0  0
  7 26  1  0  0  0
  7 29  1  0  0  0
  8  9  1  0  0  0
  8 22  1  0  0  0
  9 10  1  0  0  0
  9 27  2  0  0  0
 10 11  2  0  0  0
 10 15  1  0  0  0
 11 12  1  0  0  0
 11 94  1  0  0  0
 12 13  2  0  0  0
 12 95  1  0  0  0
 13 14  1  0  0  0
 13 31  1  0  0  0
 14 15  2  0  0  0
 14 96  1  0  0  0
 15 97  1  0  0  0
 16 17  2  0  0  0
 16 21  1  0  0  0
 16 31  1  0  0  0
 17 18  1  0  0  0
 17 98  1  0  0  0
 18 19  2  0  0  0
 18 99  1  0  0  0
 19 20  1  0  0  0
 19 24  1  0  0  0
 20 21  2  0  0  0
 20100  1  0  0  0
 21 23  1  0  0  0
 22 28  1  0  0  0
 22 32  2  0  0  0
 26 27  1  0  0  0
 28101  1  0  0  0
 28102  1  0  0  0
 29103  1  0  0  0
 29104  1  0  0  0
 33 34  1  0  0  0
 33 66  1  0  0  0
 33 70  2  0  0  0
 34 36  1  0  0  0
 34 59  1  0  0  0
 34105  1  0  0  0
 35 44  2  0  0  0
 35 45  1  0  0  0
 35 68  1  0  0  0
 36 56  1  0  0  0
 36106  1  0  0  0
 37 39  1  0  0  0
 37 47  1  0  0  0
 37 66  1  0  0  0
 37107  1  0  0  0
 38 43  2  0  0  0
 38 46  1  0  0  0
 38 47  1  0  0  0
 39 64  1  0  0  0
 39 67  2  0  0  0
 40 52  1  0  0  0
 40 53  2  0  0  0
 40 58  1  0  0  0
 41108  1  0  0  0
 41109  1  0  0  0
 41110  1  0  0  0
 41 48  1  0  0  0
 42 43  1  0  0  0
 42 66  1  0  0  0
 42111  1  0  0  0
 42112  1  0  0  0
 43 44  1  0  0  0
 44113  1  0  0  0
 45 46  2  0  0  0
 45114  1  0  0  0
 46115  1  0  0  0
 47116  1  0  0  0
 47117  1  0  0  0
 48 56  1  0  0  0
 48 65  1  0  0  0
 48118  1  0  0  0
 49 50  1  0  0  0
 49 53  1  0  0  0
 49 64  1  0  0  0
 49119  1  0  0  0
 50 51  1  0  0  0
 50120  1  0  0  0
 50121  1  0  0  0
 51 52  1  0  0  0
 51122  1  0  0  0
 51123  1  0  0  0
 52124  1  0  0  0
 52125  1  0  0  0
 53 54  1  0  0  0
 54 55  2  0  0  0
 54126  1  0  0  0
 55 57  1  0  0  0
 55127  1  0  0  0
 56 69  2  0  0  0
 57 58  2  0  0  0
 57128  1  0  0  0
 58129  1  0  0  0
 59 60  1  0  0  0
 59 61  1  0  0  0
 59 62  1  0  0  0
 60130  1  0  0  0
 60131  1  0  0  0
 60132  1  0  0  0
 61133  1  0  0  0
 61134  1  0  0  0
 61135  1  0  0  0
 62136  1  0  0  0
 62137  1  0  0  0
 62138  1  0  0  0
 63 65  1  0  0  0
 63139  1  0  0  0
 63140  1  0  0  0
 63141  1  0  0  0
 64142  1  0  0  0
 65143  1  0  0  0
 68 79  1  0  0  0
 71 72  2  0  0  0
 71 73  1  0  0  0
 71144  1  0  0  0
 72 82  1  0  0  0
 72145  1  0  0  0
 73 74  2  0  0  0
 73 78  1  0  0  0
 74 77  1  0  0  0
 74 82  1  0  0  0
 75 76  1  0  0  0
 75 82  1  0  0  0
 75146  1  0  0  0
 75147  1  0  0  0
 76 84  1  0  0  0
 76148  1  0  0  0
 76149  1  0  0  0
 77 79  1  0  0  0
 77 84  1  0  0  0
 77150  1  0  0  0
 78 80  1  0  0  0
 78151  1  0  0  0
 78152  1  0  0  0
 79153  1  0  0  0
 79154  1  0  0  0
 80 81  1  0  0  0
 80155  1  0  0  0
 80156  1  0  0  0
 81 83  1  0  0  0
 81157  1  0  0  0
 81158  1  0  0  0
 83159  1  0  0  0
 84160  1  0  0  0
 84161  1  0  0  0
M  CHG  1  84   1
M  ISO  4   1 100  68 101  79 101  83 100
M  END
> <chiral flag>
0

> <version>
0

> <s_m_source_file>
/data/baiqing/PycharmProjects/Reinvent-master-3.2/result/LINK_invent/BTK/process_docking_weight1_custom_sum_contain_oxygen_bond_distance_aromatic_linkinvent_7_9_3/rearranged_h_0123.sdf

> <i_m_source_file_index>
65

> <r_mmod_Potential_Energy-OPLS-2005>
31.5859489440918

> <r_mmod_Stretch_Energy-OPLS-2005>
126.259857177734

> <r_mmod_Bend_Energy-OPLS-2005>
195.423309326172

> <r_mmod_Torsional_Energy-OPLS-2005>
285.536041259766

> <r_mmod_Improper_Torsional_Energy-OPLS-2005>
5.81148147583008

> <r_mmod_Van_der_Waal_Energy-OPLS-2005>
128.365570068359

> <r_mmod_Electrostatic_Energy-OPLS-2005>
-338.26171875

> <r_mmod_Solvation_Energy-OPLS-2005>
-448.795288085938

> <b_mmod_Minimization_Converged-OPLS-2005>
0

> <r_mmod_RMS_Derivative-OPLS-2005>
8.4705924987793

$$$$
65
                    3D
 Structure written by MMmdl.
170179  0  0  1  0            999 V2000
  -30.6111  -14.5966   20.5096 C   0  0  0  0  0  0
  -30.4481  -12.3637   19.4369 C   0  0  0  0  0  0
  -29.5110  -12.5130   18.2177 C   0  0  0  0  0  0
  -28.0268  -12.3657   18.6214 C   0  0  0  0  0  0
  -27.6530  -13.2061   19.8728 C   0  0  2  0  0  0
  -28.7055  -13.0108   20.9869 C   0  0  0  0  0  0
  -25.2522  -13.8017   20.5830 C   0  0  0  0  0  0
  -24.1769  -13.0291   20.9215 C   0  0  0  0  0  0
  -24.6400  -11.6802   20.8708 C   0  0  0  0  0  0
  -23.9087  -10.4223   21.0367 C   0  0  0  0  0  0
  -24.3663   -9.4179   21.9149 C   0  0  0  0  0  0
  -23.6351   -8.2217   22.0749 C   0  0  0  0  0  0
  -22.4329   -8.0263   21.3538 C   0  0  0  0  0  0
  -21.9939   -9.0225   20.4645 C   0  0  0  0  0  0
  -22.7267  -10.2086   20.3029 C   0  0  0  0  0  0
  -21.6866   -6.0765   22.5278 C   0  0  0  0  0  0
  -21.3995   -6.5651   23.8205 C   0  0  0  0  0  0
  -21.3670   -5.6788   24.9153 C   0  0  0  0  0  0
  -21.6055   -4.3058   24.7194 C   0  0  0  0  0  0
  -21.8843   -3.8179   23.4307 C   0  0  0  0  0  0
  -21.9218   -4.7005   22.3380 C   0  0  0  0  0  0
  -22.7828  -13.5138   21.1908 C   0  0  0  0  0  0
  -22.1727   -4.2221   21.0963 F   0  0  0  0  0  0
  -21.5629   -3.4515   25.7699 F   0  0  0  0  0  0
  -30.0217  -13.3648   20.4281 N   0  0  0  0  0  0
  -26.2991  -12.9257   20.3393 N   0  0  0  0  0  0
  -25.9322  -11.6409   20.5721 N   0  0  0  0  0  0
  -22.0536  -12.8084   22.0485 N   0  0  0  0  0  0
  -25.3985  -15.1731   20.4573 N   0  0  0  0  0  0
  -31.7745  -14.7991   20.1597 O   0  0  0  0  0  0
  -21.6655   -6.8899   21.4252 O   0  0  0  0  0  0
  -22.3534  -14.5480   20.6838 O   0  0  0  0  0  0
  -24.6198  -31.8608   23.2079 C   0  0  0  0  0  0
  -25.9065  -32.4802   23.8363 C   0  0  1  0  0  0
  -27.2307  -27.3697   20.0914 C   0  0  0  0  0  0
  -25.5896  -33.8592   24.2281 N   0  0  0  0  0  0
  -23.4088  -30.4865   21.5495 C   0  0  2  0  0  0
  -24.8531  -28.9450   20.1148 C   0  0  0  0  0  0
  -22.7425  -29.4616   22.4960 C   0  0  0  0  0  0
  -18.0273  -28.1411   22.8469 C   0  0  0  0  0  0
  -24.1499  -36.7308   23.2629 C   0  0  0  0  0  0
  -25.9448  -30.8072   21.3702 C   0  0  0  0  0  0
  -26.0205  -29.4363   20.7161 C   0  0  0  0  0  0
  -27.2080  -28.6554   20.7013 C   0  0  0  0  0  0
  -26.0366  -26.9155   19.4811 C   0  0  0  0  0  0
  -24.8592  -27.6859   19.4970 C   0  0  0  0  0  0
  -23.6206  -29.8227   20.1641 C   0  0  0  0  0  0
  -25.4120  -36.3075   24.0320 C   0  0  1  0  0  0
  -20.5859  -28.3678   23.1308 C   0  0  2  0  0  0
  -20.6777  -26.9415   22.5405 C   0  0  0  0  0  0
  -19.5766  -26.6399   21.5192 C   0  0  0  0  0  0
  -18.1939  -26.7951   22.1603 C   0  0  0  0  0  0
  -19.1519  -28.8860   23.2886 C   0  0  0  0  0  0
  -18.9452  -30.1469   23.8894 C   0  0  0  0  0  0
  -17.6457  -30.6609   24.0561 C   0  0  0  0  0  0
  -25.9047  -34.9458   23.5102 C   0  0  0  0  0  0
  -16.5347  -29.9109   23.6341 C   0  0  0  0  0  0
  -16.7256  -28.6541   23.0327 C   0  0  0  0  0  0
  -26.4464  -31.6606   25.0720 C   0  0  0  0  0  0
  -25.3704  -31.3736   26.1452 C   0  0  0  0  0  0
  -27.0289  -30.3039   24.6140 C   0  0  0  0  0  0
  -27.6038  -32.4315   25.7500 C   0  0  0  0  0  0
  -27.5581  -37.1809   24.8451 C   0  0  0  0  0  0
  -21.4141  -29.3037   22.3706 N   0  0  0  0  0  0
  -26.4290  -37.3774   23.9410 N   0  0  0  0  0  0
  -24.6769  -31.0656   22.1013 N   0  0  0  0  0  0
  -23.4158  -28.8136   23.3006 O   0  0  0  0  0  0
  -28.3853  -26.5829   20.1035 O   0  0  0  0  0  0
  -26.5597  -34.8917   22.4653 O   0  0  0  0  0  0
  -23.5381  -32.1364   23.7448 O   0  0  0  0  0  0
  -32.4194  -21.2126   20.8332 C   0  0  0  0  0  0
  -31.4350  -22.2018   20.6662 C   0  0  0  0  0  0
  -29.8792  -20.4715   19.9757 C   0  0  0  0  0  0
  -30.8573  -19.4346   20.1490 C   0  0  0  0  0  0
  -32.1536  -19.8504   20.5681 C   0  0  0  0  0  0
  -30.1485  -21.8571   20.2052 C   0  0  0  0  0  0
  -28.3554  -17.6243   20.9813 C   0  0  0  0  0  0
  -27.6455  -17.7132   19.6006 C   0  0  0  0  0  0
  -29.9051  -17.7789   18.4061 C   0  0  0  0  0  0
  -30.5667  -17.9214   19.8038 C   0  0  2  0  0  0
  -29.8127  -17.0992   20.9137 C   0  0  2  0  0  0
  -28.4828  -17.1805   18.4146 C   0  0  2  0  0  0
  -33.3156  -18.8772   20.6988 C   0  0  0  0  0  0
  -28.2531  -25.1616   19.7798 C   0  0  0  0  0  0
  -29.4576  -24.2334   20.1440 C   0  0  0  0  0  0
  -29.7399  -15.6022   20.7966 N   0  0  0  0  0  0
  -27.8025  -17.3847   17.1197 N   0  3  0  0  0  0
  -29.1642  -22.8184   19.9566 O   0  0  0  0  0  0
  -31.4880  -12.5083   19.1329 H   0  0  0  0  0  0
  -30.3921  -11.3541   19.8540 H   0  0  0  0  0  0
  -29.7681  -11.7824   17.4474 H   0  0  0  0  0  0
  -29.6609  -13.4954   17.7703 H   0  0  0  0  0  0
  -27.8338  -11.3098   18.8138 H   0  0  0  0  0  0
  -27.3885  -12.6429   17.7815 H   0  0  0  0  0  0
  -27.6600  -14.2475   19.5628 H   0  0  0  0  0  0
  -28.7095  -11.9674   21.3076 H   0  0  0  0  0  0
  -28.4638  -13.5939   21.8778 H   0  0  0  0  0  0
  -25.2821   -9.5698   22.4688 H   0  0  0  0  0  0
  -24.0094   -7.4610   22.7466 H   0  0  0  0  0  0
  -21.0872   -8.8775   19.8945 H   0  0  0  0  0  0
  -22.3770  -10.9635   19.6144 H   0  0  0  0  0  0
  -21.1973   -7.6153   23.9716 H   0  0  0  0  0  0
  -21.1476   -6.0505   25.9047 H   0  0  0  0  0  0
  -22.0623   -2.7657   23.2742 H   0  0  0  0  0  0
  -22.4240  -11.9704   22.4709 H   0  0  0  0  0  0
  -21.1165  -13.1050   22.2832 H   0  0  0  0  0  0
  -24.5996  -15.7725   20.6366 H   0  0  0  0  0  0
  -26.2526  -15.6815   20.2825 H   0  0  0  0  0  0
  -26.7117  -32.5476   23.1104 H   0  0  0  0  0  0
  -25.0064  -33.9754   25.0432 H   0  0  0  0  0  0
  -22.7014  -31.3062   21.4113 H   0  0  0  0  0  0
  -23.3749  -35.9645   23.3259 H   0  0  0  0  0  0
  -24.3592  -36.8961   22.2047 H   0  0  0  0  0  0
  -23.7284  -37.6517   23.6668 H   0  0  0  0  0  0
  -26.0597  -31.5739   20.6013 H   0  0  0  0  0  0
  -26.8323  -30.8612   21.9915 H   0  0  0  0  0  0
  -28.1067  -29.0244   21.1756 H   0  0  0  0  0  0
  -25.9861  -25.9616   18.9794 H   0  0  0  0  0  0
  -23.9627  -27.3062   19.0256 H   0  0  0  0  0  0
  -23.7393  -30.5999   19.4089 H   0  0  0  0  0  0
  -22.7425  -29.2525   19.8586 H   0  0  0  0  0  0
  -25.1313  -36.1895   25.0812 H   0  0  0  0  0  0
  -20.9947  -28.3257   24.1427 H   0  0  0  0  0  0
  -20.5689  -26.2282   23.3583 H   0  0  0  0  0  0
  -21.6657  -26.7483   22.1193 H   0  0  0  0  0  0
  -19.6938  -25.6299   21.1253 H   0  0  0  0  0  0
  -19.6739  -27.3186   20.6702 H   0  0  0  0  0  0
  -17.4199  -26.6641   21.4021 H   0  0  0  0  0  0
  -18.0379  -26.0119   22.9032 H   0  0  0  0  0  0
  -19.7928  -30.7284   24.2267 H   0  0  0  0  0  0
  -17.5018  -31.6294   24.5155 H   0  0  0  0  0  0
  -15.5354  -30.3011   23.7703 H   0  0  0  0  0  0
  -15.8649  -28.0886   22.7025 H   0  0  0  0  0  0
  -24.5881  -30.7088   25.7770 H   0  0  0  0  0  0
  -24.8899  -32.2910   26.4870 H   0  0  0  0  0  0
  -25.8039  -30.8910   27.0222 H   0  0  0  0  0  0
  -26.2844  -29.6840   24.1147 H   0  0  0  0  0  0
  -27.3965  -29.7263   25.4631 H   0  0  0  0  0  0
  -27.8722  -30.4345   23.9357 H   0  0  0  0  0  0
  -27.2655  -33.3598   26.2120 H   0  0  0  0  0  0
  -28.3851  -32.6901   25.0336 H   0  0  0  0  0  0
  -28.0695  -31.8399   26.5396 H   0  0  0  0  0  0
  -28.2569  -38.0134   24.7518 H   0  0  0  0  0  0
  -28.1110  -36.2666   24.6245 H   0  0  0  0  0  0
  -27.2290  -37.1418   25.8850 H   0  0  0  0  0  0
  -20.9281  -29.8769   21.6961 H   0  0  0  0  0  0
  -26.0152  -38.2828   24.1445 H   0  0  0  0  0  0
  -33.4063  -21.5250   21.1454 H   0  0  0  0  0  0
  -31.7055  -23.2280   20.8730 H   0  0  0  0  0  0
  -28.8972  -20.2129   19.6177 H   0  0  0  0  0  0
  -27.7600  -17.0296   21.6731 H   0  0  0  0  0  0
  -28.3586  -18.6237   21.4186 H   0  0  0  0  0  0
  -27.3479  -18.7452   19.4166 H   0  0  0  0  0  0
  -26.7006  -17.1808   19.6336 H   0  0  0  0  0  0
  -30.5298  -17.1317   17.7910 H   0  0  0  0  0  0
  -29.9092  -18.7413   17.8971 H   0  0  0  0  0  0
  -31.5327  -17.4338   19.7011 H   0  0  0  0  0  0
  -30.3021  -17.2982   21.8682 H   0  0  0  0  0  0
  -28.5820  -16.1012   18.5227 H   0  0  0  0  0  0
  -34.2052  -19.3685   21.0950 H   0  0  0  0  0  0
  -33.5904  -18.4763   19.7230 H   0  0  0  0  0  0
  -33.0671  -18.0514   21.3660 H   0  0  0  0  0  0
  -27.3816  -24.7512   20.2923 H   0  0  0  0  0  0
  -28.0658  -25.0627   18.7101 H   0  0  0  0  0  0
  -29.7362  -24.4037   21.1837 H   0  0  0  0  0  0
  -30.3057  -24.5180   19.5199 H   0  0  0  0  0  0
  -28.8228  -15.2360   21.0039 H   0  0  0  0  0  0
  -27.6272  -18.3585   16.9491 H   0  0  0  0  0  0
  -26.9226  -16.9005   17.0896 H   0  0  0  0  0  0
  -28.3624  -17.0307   16.3624 H   0  0  0  0  0  0
  1 25  1  0  0  0
  1 30  2  0  0  0
  1 86  1  0  0  0
  2  3  1  0  0  0
  2 25  1  0  0  0
  2 89  1  0  0  0
  2 90  1  0  0  0
  3  4  1  0  0  0
  3 91  1  0  0  0
  3 92  1  0  0  0
  4  5  1  0  0  0
  4 93  1  0  0  0
  4 94  1  0  0  0
  5  6  1  0  0  0
  5 26  1  0  0  0
  5 95  1  0  0  0
  6 25  1  0  0  0
  6 96  1  0  0  0
  6 97  1  0  0  0
  7  8  2  0  0  0
  7 26  1  0  0  0
  7 29  1  0  0  0
  8  9  1  0  0  0
  8 22  1  0  0  0
  9 10  1  0  0  0
  9 27  2  0  0  0
 10 11  2  0  0  0
 10 15  1  0  0  0
 11 12  1  0  0  0
 11 98  1  0  0  0
 12 13  2  0  0  0
 12 99  1  0  0  0
 13 14  1  0  0  0
 13 31  1  0  0  0
 14 15  2  0  0  0
 14100  1  0  0  0
 15101  1  0  0  0
 16 17  2  0  0  0
 16 21  1  0  0  0
 16 31  1  0  0  0
 17 18  1  0  0  0
 17102  1  0  0  0
 18 19  2  0  0  0
 18103  1  0  0  0
 19 20  1  0  0  0
 19 24  1  0  0  0
 20 21  2  0  0  0
 20104  1  0  0  0
 21 23  1  0  0  0
 22 28  1  0  0  0
 22 32  2  0  0  0
 26 27  1  0  0  0
 28105  1  0  0  0
 28106  1  0  0  0
 29107  1  0  0  0
 29108  1  0  0  0
 33 34  1  0  0  0
 33 66  1  0  0  0
 33 70  2  0  0  0
 34 36  1  0  0  0
 34 59  1  0  0  0
 34109  1  0  0  0
 35 44  2  0  0  0
 35 45  1  0  0  0
 35 68  1  0  0  0
 36 56  1  0  0  0
 36110  1  0  0  0
 37 39  1  0  0  0
 37 47  1  0  0  0
 37 66  1  0  0  0
 37111  1  0  0  0
 38 43  2  0  0  0
 38 46  1  0  0  0
 38 47  1  0  0  0
 39 64  1  0  0  0
 39 67  2  0  0  0
 40 52  1  0  0  0
 40 53  2  0  0  0
 40 58  1  0  0  0
 41112  1  0  0  0
 41113  1  0  0  0
 41114  1  0  0  0
 41 48  1  0  0  0
 42 43  1  0  0  0
 42 66  1  0  0  0
 42115  1  0  0  0
 42116  1  0  0  0
 43 44  1  0  0  0
 44117  1  0  0  0
 45 46  2  0  0  0
 45118  1  0  0  0
 46119  1  0  0  0
 47120  1  0  0  0
 47121  1  0  0  0
 48 56  1  0  0  0
 48 65  1  0  0  0
 48122  1  0  0  0
 49 50  1  0  0  0
 49 53  1  0  0  0
 49 64  1  0  0  0
 49123  1  0  0  0
 50 51  1  0  0  0
 50124  1  0  0  0
 50125  1  0  0  0
 51 52  1  0  0  0
 51126  1  0  0  0
 51127  1  0  0  0
 52128  1  0  0  0
 52129  1  0  0  0
 53 54  1  0  0  0
 54 55  2  0  0  0
 54130  1  0  0  0
 55 57  1  0  0  0
 55131  1  0  0  0
 56 69  2  0  0  0
 57 58  2  0  0  0
 57132  1  0  0  0
 58133  1  0  0  0
 59 60  1  0  0  0
 59 61  1  0  0  0
 59 62  1  0  0  0
 60134  1  0  0  0
 60135  1  0  0  0
 60136  1  0  0  0
 61137  1  0  0  0
 61138  1  0  0  0
 61139  1  0  0  0
 62140  1  0  0  0
 62141  1  0  0  0
 62142  1  0  0  0
 63 65  1  0  0  0
 63143  1  0  0  0
 63144  1  0  0  0
 63145  1  0  0  0
 64146  1  0  0  0
 65147  1  0  0  0
 68 84  1  0  0  0
 71 72  2  0  0  0
 71 75  1  0  0  0
 71148  1  0  0  0
 72 76  1  0  0  0
 72149  1  0  0  0
 73 74  1  0  0  0
 73 76  2  0  0  0
 73150  1  0  0  0
 74 75  2  0  0  0
 74 80  1  0  0  0
 75 83  1  0  0  0
 76 88  1  0  0  0
 77 78  1  0  0  0
 77 81  1  0  0  0
 77151  1  0  0  0
 77152  1  0  0  0
 78 82  1  0  0  0
 78153  1  0  0  0
 78154  1  0  0  0
 79 80  1  0  0  0
 79 82  1  0  0  0
 79155  1  0  0  0
 79156  1  0  0  0
 80 81  1  0  0  0
 80157  1  0  0  0
 81 86  1  0  0  0
 81158  1  0  0  0
 82 87  1  0  0  0
 82159  1  0  0  0
 83160  1  0  0  0
 83161  1  0  0  0
 83162  1  0  0  0
 84 85  1  0  0  0
 84163  1  0  0  0
 84164  1  0  0  0
 85 88  1  0  0  0
 85165  1  0  0  0
 85166  1  0  0  0
 86167  1  0  0  0
 87168  1  0  0  0
 87169  1  0  0  0
 87170  1  0  0  0
M  CHG  1  87   1
M  ISO  4   1 100  68 101  84 101  86 100
M  END
> <chiral flag>
0

> <version>
0

> <s_m_source_file>
/data/baiqing/PycharmProjects/Reinvent-master-3.2/result/LINK_invent/BTK/process_docking_weight1_custom_sum_contain_oxygen_bond_distance_aromatic_linkinvent_7_9_3/rearranged_h_0123.sdf

> <i_m_source_file_index>
66

> <r_mmod_Potential_Energy-OPLS-2005>
-198.351943969727

> <r_mmod_Stretch_Energy-OPLS-2005>
66.6716461181641

> <r_mmod_Bend_Energy-OPLS-2005>
143.291656494141

> <r_mmod_Torsional_Energy-OPLS-2005>
243.291564941406

> <r_mmod_Improper_Torsional_Energy-OPLS-2005>
5.07213878631592

> <r_mmod_Van_der_Waal_Energy-OPLS-2005>
159.377807617188

> <r_mmod_Electrostatic_Energy-OPLS-2005>
-347.236297607422

> <r_mmod_Solvation_Energy-OPLS-2005>
-501.572692871094

> <b_mmod_Minimization_Converged-OPLS-2005>
0

> <r_mmod_RMS_Derivative-OPLS-2005>
4.3261547088623

$$$$
66
                    3D
 Structure written by MMmdl.
165173  0  0  1  0            999 V2000
  -30.7558  -14.4294   20.6300 C   0  0  0  0  0  0
  -30.4117  -12.3062   19.4170 C   0  0  0  0  0  0
  -29.4856  -12.5114   18.2034 C   0  0  0  0  0  0
  -28.0107  -12.3672   18.6206 C   0  0  0  0  0  0
  -27.6611  -13.2101   19.8758 C   0  0  2  0  0  0
  -28.7013  -12.9982   20.9987 C   0  0  0  0  0  0
  -25.2581  -13.8173   20.5684 C   0  0  0  0  0  0
  -24.1833  -13.0446   20.9173 C   0  0  0  0  0  0
  -24.6390  -11.6913   20.8733 C   0  0  0  0  0  0
  -23.9054  -10.4299   21.0404 C   0  0  0  0  0  0
  -24.3608   -9.4216   21.9181 C   0  0  0  0  0  0
  -23.6291   -8.2248   22.0754 C   0  0  0  0  0  0
  -22.4274   -8.0282   21.3542 C   0  0  0  0  0  0
  -21.9907   -9.0251   20.4642 C   0  0  0  0  0  0
  -22.7230  -10.2135   20.3050 C   0  0  0  0  0  0
  -21.6852   -6.0734   22.5279 C   0  0  0  0  0  0
  -21.4013   -6.5638   23.8212 C   0  0  0  0  0  0
  -21.3659   -5.6792   24.9174 C   0  0  0  0  0  0
  -21.6045   -4.3056   24.7224 C   0  0  0  0  0  0
  -21.8819   -3.8147   23.4347 C   0  0  0  0  0  0
  -21.9194   -4.6962   22.3402 C   0  0  0  0  0  0
  -22.7856  -13.5244   21.1843 C   0  0  0  0  0  0
  -22.1662   -4.2149   21.0979 F   0  0  0  0  0  0
  -21.5631   -3.4540   25.7737 F   0  0  0  0  0  0
  -30.0368  -13.2879   20.4493 N   0  0  0  0  0  0
  -26.3021  -12.9349   20.3378 N   0  0  0  0  0  0
  -25.9319  -11.6504   20.5769 N   0  0  0  0  0  0
  -22.0494  -12.8229   22.0392 N   0  0  0  0  0  0
  -25.4320  -15.1890   20.4098 N   0  0  0  0  0  0
  -31.8234  -14.6373   20.0475 O   0  0  0  0  0  0
  -21.6640   -6.8879   21.4243 O   0  0  0  0  0  0
  -22.3545  -14.5559   20.6705 O   0  0  0  0  0  0
  -24.6156  -31.8682   23.2100 C   0  0  0  0  0  0
  -25.9049  -32.4822   23.8391 C   0  0  1  0  0  0
  -27.2281  -27.4234   20.0937 C   0  0  0  0  0  0
  -25.5900  -33.8620   24.2321 N   0  0  0  0  0  0
  -23.4030  -30.4931   21.5511 C   0  0  2  0  0  0
  -24.8472  -28.9616   20.1114 C   0  0  0  0  0  0
  -22.7412  -29.4662   22.4984 C   0  0  0  0  0  0
  -18.0271  -28.1376   22.8488 C   0  0  0  0  0  0
  -24.1486  -36.7310   23.2639 C   0  0  0  0  0  0
  -25.9338  -30.8283   21.3667 C   0  0  0  0  0  0
  -26.0082  -29.4640   20.7108 C   0  0  0  0  0  0
  -27.2006  -28.7026   20.6987 C   0  0  0  0  0  0
  -26.0497  -26.9496   19.4699 C   0  0  0  0  0  0
  -24.8634  -27.7040   19.4878 C   0  0  0  0  0  0
  -23.6102  -29.8286   20.1643 C   0  0  0  0  0  0
  -25.4109  -36.3110   24.0337 C   0  0  1  0  0  0
  -20.5864  -28.3662   23.1314 C   0  0  2  0  0  0
  -20.6761  -26.9400   22.5412 C   0  0  0  0  0  0
  -19.5740  -26.6387   21.5209 C   0  0  0  0  0  0
  -18.1918  -26.7921   22.1621 C   0  0  0  0  0  0
  -19.1522  -28.8835   23.2897 C   0  0  0  0  0  0
  -18.9455  -30.1440   23.8912 C   0  0  0  0  0  0
  -17.6460  -30.6580   24.0570 C   0  0  0  0  0  0
  -25.9039  -34.9476   23.5127 C   0  0  0  0  0  0
  -16.5348  -29.9090   23.6331 C   0  0  0  0  0  0
  -16.7261  -28.6508   23.0345 C   0  0  0  0  0  0
  -26.4471  -31.6604   25.0725 C   0  0  0  0  0  0
  -25.3728  -31.3715   26.1470 C   0  0  0  0  0  0
  -27.0308  -30.3047   24.6105 C   0  0  0  0  0  0
  -27.6039  -32.4332   25.7487 C   0  0  0  0  0  0
  -27.5582  -37.1809   24.8466 C   0  0  0  0  0  0
  -21.4139  -29.3037   22.3725 N   0  0  0  0  0  0
  -26.4293  -37.3794   23.9411 N   0  0  0  0  0  0
  -24.6690  -31.0774   22.1004 N   0  0  0  0  0  0
  -23.4185  -28.8205   23.3027 O   0  0  0  0  0  0
  -28.3945  -26.6791   20.1310 O   0  0  0  0  0  0
  -26.5604  -34.8928   22.4690 O   0  0  0  0  0  0
  -23.5348  -32.1444   23.7486 O   0  0  0  0  0  0
  -29.1980  -18.3769   22.1669 C   0  0  0  0  0  0
  -31.6129  -18.9426   21.5666 C   0  0  0  0  0  0
  -28.8256  -19.8569   21.8949 C   0  0  0  0  0  0
  -31.1797  -20.3954   21.2825 C   0  0  0  0  0  0
  -30.4752  -17.8985   21.4281 C   0  0  1  0  0  0
  -30.0164  -20.7894   22.2061 C   0  0  1  0  0  0
  -28.8494  -22.6363   23.5082 C   0  0  0  0  0  0
  -30.9804  -16.5254   21.9600 C   0  0  0  0  0  0
  -29.2848  -24.5322   20.9596 C   0  0  0  0  0  0
  -29.1389  -22.9805   20.9944 C   0  0  0  0  0  0
  -28.2836  -25.2452   20.0274 C   0  0  0  0  0  0
  -29.7232  -22.3228   22.2746 C   0  0  2  0  0  0
  -30.2487  -15.3413   21.4799 N   0  0  0  0  0  0
  -31.4563  -12.3919   19.1124 H   0  0  0  0  0  0
  -30.3045  -11.2948   19.8125 H   0  0  0  0  0  0
  -29.7241  -11.7897   17.4210 H   0  0  0  0  0  0
  -29.6530  -13.4996   17.7717 H   0  0  0  0  0  0
  -27.8257  -11.3110   18.8206 H   0  0  0  0  0  0
  -27.3560  -12.6371   17.7913 H   0  0  0  0  0  0
  -27.7058  -14.2576   19.5767 H   0  0  0  0  0  0
  -28.6719  -11.9669   21.3529 H   0  0  0  0  0  0
  -28.4542  -13.6100   21.8665 H   0  0  0  0  0  0
  -25.2754   -9.5695   22.4754 H   0  0  0  0  0  0
  -24.0002   -7.4641   22.7474 H   0  0  0  0  0  0
  -21.0840   -8.8767   19.8943 H   0  0  0  0  0  0
  -22.3692  -10.9670   19.6156 H   0  0  0  0  0  0
  -21.2000   -7.6145   23.9714 H   0  0  0  0  0  0
  -21.1482   -6.0522   25.9076 H   0  0  0  0  0  0
  -22.0597   -2.7610   23.2847 H   0  0  0  0  0  0
  -22.4106  -11.9876   22.4763 H   0  0  0  0  0  0
  -21.1112  -13.1252   22.2599 H   0  0  0  0  0  0
  -24.6708  -15.8498   20.5209 H   0  0  0  0  0  0
  -26.2945  -15.6254   20.1082 H   0  0  0  0  0  0
  -26.7116  -32.5526   23.1151 H   0  0  0  0  0  0
  -25.0052  -33.9781   25.0466 H   0  0  0  0  0  0
  -22.6922  -31.3105   21.4133 H   0  0  0  0  0  0
  -23.3753  -35.9636   23.3304 H   0  0  0  0  0  0
  -24.3579  -36.8921   22.2052 H   0  0  0  0  0  0
  -23.7230  -37.6511   23.6651 H   0  0  0  0  0  0
  -26.0507  -31.5940   20.5987 H   0  0  0  0  0  0
  -26.8203  -30.8774   21.9871 H   0  0  0  0  0  0
  -28.0953  -29.0838   21.1705 H   0  0  0  0  0  0
  -26.0261  -25.9979   18.9595 H   0  0  0  0  0  0
  -23.9734  -27.3156   19.0121 H   0  0  0  0  0  0
  -23.7182  -30.6057   19.4067 H   0  0  0  0  0  0
  -22.7330  -29.2502   19.8681 H   0  0  0  0  0  0
  -25.1280  -36.1975   25.0829 H   0  0  0  0  0  0
  -20.9951  -28.3225   24.1436 H   0  0  0  0  0  0
  -20.5667  -26.2269   23.3596 H   0  0  0  0  0  0
  -21.6633  -26.7444   22.1201 H   0  0  0  0  0  0
  -19.6907  -25.6307   21.1221 H   0  0  0  0  0  0
  -19.6681  -27.3214   20.6753 H   0  0  0  0  0  0
  -17.4189  -26.6676   21.4022 H   0  0  0  0  0  0
  -18.0318  -26.0053   22.9007 H   0  0  0  0  0  0
  -19.7936  -30.7251   24.2283 H   0  0  0  0  0  0
  -17.5019  -31.6262   24.5171 H   0  0  0  0  0  0
  -15.5350  -30.2998   23.7646 H   0  0  0  0  0  0
  -15.8658  -28.0836   22.7047 H   0  0  0  0  0  0
  -24.5885  -30.7084   25.7801 H   0  0  0  0  0  0
  -24.8945  -32.2880   26.4937 H   0  0  0  0  0  0
  -25.8069  -30.8862   27.0221 H   0  0  0  0  0  0
  -26.2861  -29.6810   24.1149 H   0  0  0  0  0  0
  -27.4081  -29.7276   25.4557 H   0  0  0  0  0  0
  -27.8687  -30.4373   23.9255 H   0  0  0  0  0  0
  -27.2650  -33.3626   26.2076 H   0  0  0  0  0  0
  -28.3838  -32.6908   25.0308 H   0  0  0  0  0  0
  -28.0719  -31.8456   26.5396 H   0  0  0  0  0  0
  -28.2596  -38.0110   24.7521 H   0  0  0  0  0  0
  -28.1082  -36.2643   24.6279 H   0  0  0  0  0  0
  -27.2303  -37.1442   25.8869 H   0  0  0  0  0  0
  -20.9295  -29.8773   21.6961 H   0  0  0  0  0  0
  -26.0187  -38.2873   24.1412 H   0  0  0  0  0  0
  -28.3579  -17.7317   21.9065 H   0  0  0  0  0  0
  -29.3414  -18.2583   23.2420 H   0  0  0  0  0  0
  -32.0250  -18.8947   22.5759 H   0  0  0  0  0  0
  -32.4335  -18.6775   20.8981 H   0  0  0  0  0  0
  -27.9630  -20.1205   22.5065 H   0  0  0  0  0  0
  -28.5139  -19.9808   20.8571 H   0  0  0  0  0  0
  -30.8937  -20.5059   20.2356 H   0  0  0  0  0  0
  -32.0303  -21.0597   21.4419 H   0  0  0  0  0  0
  -30.2459  -17.8090   20.3650 H   0  0  0  0  0  0
  -30.3502  -20.5322   23.2134 H   0  0  0  0  0  0
  -29.2529  -22.1739   24.4095 H   0  0  0  0  0  0
  -27.8290  -22.2737   23.3819 H   0  0  0  0  0  0
  -28.7892  -23.7040   23.7129 H   0  0  0  0  0  0
  -30.9448  -16.5190   23.0501 H   0  0  0  0  0  0
  -32.0417  -16.4217   21.7257 H   0  0  0  0  0  0
  -30.3058  -24.7960   20.6821 H   0  0  0  0  0  0
  -29.1374  -24.9457   21.9555 H   0  0  0  0  0  0
  -29.6243  -22.5700   20.1085 H   0  0  0  0  0  0
  -28.0877  -22.7026   20.9070 H   0  0  0  0  0  0
  -27.2959  -24.8936   20.3256 H   0  0  0  0  0  0
  -28.4390  -24.9435   18.9914 H   0  0  0  0  0  0
  -30.6886  -22.7989   22.4565 H   0  0  0  0  0  0
  -29.3631  -15.1260   21.9137 H   0  0  0  0  0  0
  1 25  1  0  0  0
  1 30  2  0  0  0
  1 83  1  0  0  0
  2  3  1  0  0  0
  2 25  1  0  0  0
  2 84  1  0  0  0
  2 85  1  0  0  0
  3  4  1  0  0  0
  3 86  1  0  0  0
  3 87  1  0  0  0
  4  5  1  0  0  0
  4 88  1  0  0  0
  4 89  1  0  0  0
  5  6  1  0  0  0
  5 26  1  0  0  0
  5 90  1  0  0  0
  6 25  1  0  0  0
  6 91  1  0  0  0
  6 92  1  0  0  0
  7  8  2  0  0  0
  7 26  1  0  0  0
  7 29  1  0  0  0
  8  9  1  0  0  0
  8 22  1  0  0  0
  9 10  1  0  0  0
  9 27  2  0  0  0
 10 11  2  0  0  0
 10 15  1  0  0  0
 11 12  1  0  0  0
 11 93  1  0  0  0
 12 13  2  0  0  0
 12 94  1  0  0  0
 13 14  1  0  0  0
 13 31  1  0  0  0
 14 15  2  0  0  0
 14 95  1  0  0  0
 15 96  1  0  0  0
 16 17  2  0  0  0
 16 21  1  0  0  0
 16 31  1  0  0  0
 17 18  1  0  0  0
 17 97  1  0  0  0
 18 19  2  0  0  0
 18 98  1  0  0  0
 19 20  1  0  0  0
 19 24  1  0  0  0
 20 21  2  0  0  0
 20 99  1  0  0  0
 21 23  1  0  0  0
 22 28  1  0  0  0
 22 32  2  0  0  0
 26 27  1  0  0  0
 28100  1  0  0  0
 28101  1  0  0  0
 29102  1  0  0  0
 29103  1  0  0  0
 33 34  1  0  0  0
 33 66  1  0  0  0
 33 70  2  0  0  0
 34 36  1  0  0  0
 34 59  1  0  0  0
 34104  1  0  0  0
 35 44  2  0  0  0
 35 45  1  0  0  0
 35 68  1  0  0  0
 36 56  1  0  0  0
 36105  1  0  0  0
 37 39  1  0  0  0
 37 47  1  0  0  0
 37 66  1  0  0  0
 37106  1  0  0  0
 38 43  2  0  0  0
 38 46  1  0  0  0
 38 47  1  0  0  0
 39 64  1  0  0  0
 39 67  2  0  0  0
 40 52  1  0  0  0
 40 53  2  0  0  0
 40 58  1  0  0  0
 41107  1  0  0  0
 41108  1  0  0  0
 41109  1  0  0  0
 41 48  1  0  0  0
 42 43  1  0  0  0
 42 66  1  0  0  0
 42110  1  0  0  0
 42111  1  0  0  0
 43 44  1  0  0  0
 44112  1  0  0  0
 45 46  2  0  0  0
 45113  1  0  0  0
 46114  1  0  0  0
 47115  1  0  0  0
 47116  1  0  0  0
 48 56  1  0  0  0
 48 65  1  0  0  0
 48117  1  0  0  0
 49 50  1  0  0  0
 49 53  1  0  0  0
 49 64  1  0  0  0
 49118  1  0  0  0
 50 51  1  0  0  0
 50119  1  0  0  0
 50120  1  0  0  0
 51 52  1  0  0  0
 51121  1  0  0  0
 51122  1  0  0  0
 52123  1  0  0  0
 52124  1  0  0  0
 53 54  1  0  0  0
 54 55  2  0  0  0
 54125  1  0  0  0
 55 57  1  0  0  0
 55126  1  0  0  0
 56 69  2  0  0  0
 57 58  2  0  0  0
 57127  1  0  0  0
 58128  1  0  0  0
 59 60  1  0  0  0
 59 61  1  0  0  0
 59 62  1  0  0  0
 60129  1  0  0  0
 60130  1  0  0  0
 60131  1  0  0  0
 61132  1  0  0  0
 61133  1  0  0  0
 61134  1  0  0  0
 62135  1  0  0  0
 62136  1  0  0  0
 62137  1  0  0  0
 63 65  1  0  0  0
 63138  1  0  0  0
 63139  1  0  0  0
 63140  1  0  0  0
 64141  1  0  0  0
 65142  1  0  0  0
 68 81  1  0  0  0
 71 73  1  0  0  0
 71 75  1  0  0  0
 71143  1  0  0  0
 71144  1  0  0  0
 72 74  1  0  0  0
 72 75  1  0  0  0
 72145  1  0  0  0
 72146  1  0  0  0
 73147  1  0  0  0
 73148  1  0  0  0
 73 76  1  0  0  0
 74 76  1  0  0  0
 74149  1  0  0  0
 74150  1  0  0  0
 75 78  1  0  0  0
 75151  1  0  0  0
 76 82  1  0  0  0
 76152  1  0  0  0
 77153  1  0  0  0
 77154  1  0  0  0
 77155  1  0  0  0
 77 82  1  0  0  0
 78 83  1  0  0  0
 78156  1  0  0  0
 78157  1  0  0  0
 79 80  1  0  0  0
 79 81  1  0  0  0
 79158  1  0  0  0
 79159  1  0  0  0
 80 82  1  0  0  0
 80160  1  0  0  0
 80161  1  0  0  0
 81162  1  0  0  0
 81163  1  0  0  0
 82164  1  0  0  0
 83165  1  0  0  0
M  ISO  4   1 100  68 101  81 101  83 100
M  END
> <chiral flag>
0

> <version>
0

> <s_m_source_file>
/data/baiqing/PycharmProjects/Reinvent-master-3.2/result/LINK_invent/BTK/process_docking_weight1_custom_sum_contain_oxygen_bond_distance_aromatic_linkinvent_7_9_3/rearranged_h_0123.sdf

> <i_m_source_file_index>
67

> <r_mmod_Potential_Energy-OPLS-2005>
-36.1684722900391

> <r_mmod_Stretch_Energy-OPLS-2005>
38.8215866088867

> <r_mmod_Bend_Energy-OPLS-2005>
109.189025878906

> <r_mmod_Torsional_Energy-OPLS-2005>
239.813842773438

> <r_mmod_Improper_Torsional_Energy-OPLS-2005>
1.79136681556702

> <r_mmod_Van_der_Waal_Energy-OPLS-2005>
144.034423828125

> <r_mmod_Electrostatic_Energy-OPLS-2005>
-390.339141845703

> <r_mmod_Solvation_Energy-OPLS-2005>
-191.306060791016

> <b_mmod_Minimization_Converged-OPLS-2005>
0

> <r_mmod_RMS_Derivative-OPLS-2005>
0.705249905586243

$$$$
67
                    3D
 Structure written by MMmdl.
174183  0  0  1  0            999 V2000
  -29.9075  -14.2890   21.1051 C   0  0  0  0  0  0
  -30.5092  -12.4711   19.4219 C   0  0  0  0  0  0
  -29.6019  -12.5992   18.1505 C   0  0  0  0  0  0
  -28.1008  -12.2948   18.3855 C   0  0  0  0  0  0
  -27.6994  -12.9066   19.7097 C   0  0  2  0  0  0
  -28.6080  -12.3042   20.7751 C   0  0  0  0  0  0
  -25.4217  -13.7716   19.9391 C   0  0  0  0  0  0
  -24.3802  -13.3668   20.6476 C   0  0  0  0  0  0
  -24.5615  -11.8981   20.8213 C   0  0  0  0  0  0
  -23.7970  -10.6306   21.1068 C   0  0  0  0  0  0
  -24.3048   -9.5852   21.9368 C   0  0  0  0  0  0
  -23.6323   -8.3403   22.0748 C   0  0  0  0  0  0
  -22.4341   -8.0967   21.3626 C   0  0  0  0  0  0
  -21.9681   -9.0977   20.4887 C   0  0  0  0  0  0
  -22.6358  -10.3361   20.3621 C   0  0  0  0  0  0
  -21.7152   -6.0966   22.5202 C   0  0  0  0  0  0
  -21.4234   -6.5797   23.8150 C   0  0  0  0  0  0
  -21.3712   -5.6905   24.9086 C   0  0  0  0  0  0
  -21.6029   -4.3162   24.7144 C   0  0  0  0  0  0
  -21.8807   -3.8273   23.4263 C   0  0  0  0  0  0
  -21.9293   -4.7129   22.3334 C   0  0  0  0  0  0
  -23.6507  -14.5997   21.2866 C   0  0  0  0  0  0
  -22.1713   -4.2259   21.0932 F   0  0  0  0  0  0
  -21.5563   -3.4631   25.7648 F   0  0  0  0  0  0
  -29.8222  -13.0304   20.6142 N   0  0  0  0  0  0
  -26.3298  -12.7781   20.0333 N   0  0  0  0  0  0
  -25.8226  -11.6256   20.4979 N   0  0  0  0  0  0
  -23.9518  -15.5123   23.2120 N   0  0  0  0  0  0
  -25.7160  -15.0154   19.4053 N   0  0  0  0  0  0
  -30.9285  -14.9317   20.7281 O   0  0  0  0  0  0
  -21.7166   -6.9175   21.4140 O   0  0  0  0  0  0
  -22.7363  -14.7621   20.4345 O   0  0  0  0  0  0
  -24.6668  -31.8237   23.1783 C   0  0  0  0  0  0
  -25.9382  -32.4559   23.8158 C   0  0  1  0  0  0
  -26.7285  -26.6882   20.3332 C   0  0  0  0  0  0
  -25.6063  -33.8400   24.2059 N   0  0  0  0  0  0
  -23.4608  -30.4700   21.5329 C   0  0  2  0  0  0
  -24.8411  -28.8742   20.0664 C   0  0  0  0  0  0
  -22.7620  -29.4477   22.4692 C   0  0  0  0  0  0
  -18.0311  -28.1422   22.8445 C   0  0  0  0  0  0
  -24.1497  -36.7213   23.2634 C   0  0  0  0  0  0
  -26.0356  -30.5505   21.4412 C   0  0  0  0  0  0
  -26.0160  -29.1367   20.7801 C   0  0  0  0  0  0
  -26.9941  -28.0453   20.8970 C   0  0  0  0  0  0
  -25.6861  -26.6755   19.4179 C   0  0  0  0  0  0
  -24.7301  -27.6933   19.3308 C   0  0  0  0  0  0
  -23.6812  -29.8523   20.1291 C   0  0  0  0  0  0
  -25.4153  -36.2970   24.0275 C   0  0  1  0  0  0
  -20.5932  -28.3769   23.1152 C   0  0  2  0  0  0
  -20.6801  -26.9445   22.5390 C   0  0  0  0  0  0
  -19.5769  -26.6371   21.5214 C   0  0  0  0  0  0
  -18.1949  -26.7955   22.1610 C   0  0  0  0  0  0
  -19.1570  -28.8916   23.2790 C   0  0  0  0  0  0
  -18.9476  -30.1503   23.8837 C   0  0  0  0  0  0
  -17.6468  -30.6602   24.0560 C   0  0  0  0  0  0
  -25.9128  -34.9354   23.4977 C   0  0  0  0  0  0
  -16.5361  -29.9085   23.6352 C   0  0  0  0  0  0
  -16.7292  -28.6513   23.0354 C   0  0  0  0  0  0
  -26.4577  -31.6559   25.0741 C   0  0  0  0  0  0
  -25.3640  -31.3884   26.1361 C   0  0  0  0  0  0
  -27.0494  -30.2898   24.6619 C   0  0  0  0  0  0
  -27.6075  -32.4384   25.7522 C   0  0  0  0  0  0
  -27.5585  -37.1776   24.8458 C   0  0  0  0  0  0
  -21.4294  -29.3058   22.3479 N   0  0  0  0  0  0
  -26.4289  -37.3724   23.9395 N   0  0  0  0  0  0
  -24.7475  -30.9842   22.0983 N   0  0  0  0  0  0
  -23.4217  -28.7986   23.2855 O   0  0  0  0  0  0
  -27.2036  -25.2970   20.6060 O   0  0  0  0  0  0
  -26.5722  -34.8895   22.4565 O   0  0  0  0  0  0
  -23.5751  -32.1317   23.6861 O   0  0  0  0  0  0
  -24.1560  -13.3500   23.2837 C   0  0  0  0  0  0
  -22.2255  -14.1923   23.1436 C   0  0  0  0  0  0
  -25.4813  -16.2288   21.7752 C   0  0  0  0  0  0
  -25.7878  -14.4616   22.5693 C   0  0  0  0  0  0
  -22.0615  -16.1383   22.3244 C   0  0  0  0  0  0
  -23.7661  -17.1315   21.6717 C   0  0  0  0  0  0
  -25.3861  -21.2434   22.2144 C   0  0  0  0  0  0
  -24.8192  -21.2441   20.0155 C   0  0  0  0  0  0
  -26.3994  -22.6270   21.9436 C   0  0  0  0  0  0
  -25.8179  -22.6383   19.7428 C   0  0  0  0  0  0
  -25.0222  -20.0073   21.1410 C   0  0  2  0  0  0
  -26.2160  -23.8642   20.8174 C   0  0  2  0  0  0
  -18.0147  -14.5339   23.5804 C   0  0  0  0  0  0
  -20.7400  -16.8825   22.2343 C   0  0  0  0  0  0
  -27.4507  -14.2259   22.7212 C   0  0  0  0  0  0
  -19.6141  -16.3704   23.1455 C   0  0  0  0  0  0
  -23.9124  -18.7133   21.3941 N   0  0  0  0  0  0
  -28.7263  -14.7635   21.8324 N   0  0  0  0  0  0
  -19.1729  -15.0050   22.7978 N   0  3  0  0  0  0
  -31.4630  -12.9705   19.2433 H   0  0  0  0  0  0
  -30.7641  -11.4261   19.6019 H   0  0  0  0  0  0
  -29.9891  -11.9774   17.3417 H   0  0  0  0  0  0
  -29.6781  -13.6275   17.7916 H   0  0  0  0  0  0
  -27.9277  -11.2174   18.3919 H   0  0  0  0  0  0
  -27.4991  -12.7011   17.5695 H   0  0  0  0  0  0
  -27.8803  -13.9692   19.5712 H   0  0  0  0  0  0
  -28.7691  -11.2508   20.5386 H   0  0  0  0  0  0
  -28.2322  -12.1768   21.7710 H   0  0  0  0  0  0
  -25.2333   -9.7445   22.4679 H   0  0  0  0  0  0
  -24.0532   -7.5811   22.7192 H   0  0  0  0  0  0
  -21.0773   -8.9182   19.9017 H   0  0  0  0  0  0
  -22.2551  -11.0736   19.6703 H   0  0  0  0  0  0
  -21.2336   -7.6325   23.9696 H   0  0  0  0  0  0
  -21.1483   -6.0632   25.8989 H   0  0  0  0  0  0
  -22.0497   -2.7726   23.2741 H   0  0  0  0  0  0
  -24.7172  -15.1772   23.7759 H   0  0  0  0  0  0
  -23.3100  -16.2114   23.5530 H   0  0  0  0  0  0
  -25.0441  -15.7716   19.3531 H   0  0  0  0  0  0
  -26.5883  -15.2337   18.9418 H   0  0  0  0  0  0
  -26.7404  -32.4950   23.0798 H   0  0  0  0  0  0
  -25.0173  -33.9493   25.0175 H   0  0  0  0  0  0
  -22.7734  -31.3098   21.4044 H   0  0  0  0  0  0
  -23.3791  -35.9506   23.3246 H   0  0  0  0  0  0
  -24.3560  -36.8923   22.2057 H   0  0  0  0  0  0
  -23.7214  -37.6370   23.6726 H   0  0  0  0  0  0
  -26.2690  -31.2772   20.6616 H   0  0  0  0  0  0
  -26.8897  -30.5680   22.1045 H   0  0  0  0  0  0
  -27.8362  -28.1799   21.5624 H   0  0  0  0  0  0
  -25.4709  -25.7605   18.8853 H   0  0  0  0  0  0
  -23.8530  -27.5266   18.7197 H   0  0  0  0  0  0
  -23.8846  -30.6483   19.4121 H   0  0  0  0  0  0
  -22.7659  -29.3692   19.7811 H   0  0  0  0  0  0
  -25.1338  -36.1768   25.0762 H   0  0  0  0  0  0
  -21.0031  -28.3428   24.1270 H   0  0  0  0  0  0
  -20.5740  -26.2376   23.3637 H   0  0  0  0  0  0
  -21.6651  -26.7457   22.1153 H   0  0  0  0  0  0
  -19.6935  -25.6267   21.1283 H   0  0  0  0  0  0
  -19.6727  -27.3148   20.6720 H   0  0  0  0  0  0
  -17.4223  -26.6679   21.4020 H   0  0  0  0  0  0
  -18.0343  -26.0132   22.9035 H   0  0  0  0  0  0
  -19.7950  -30.7334   24.2182 H   0  0  0  0  0  0
  -17.5018  -31.6281   24.5171 H   0  0  0  0  0  0
  -15.5359  -30.2963   23.7727 H   0  0  0  0  0  0
  -15.8686  -28.0829   22.7083 H   0  0  0  0  0  0
  -24.5821  -30.7243   25.7657 H   0  0  0  0  0  0
  -24.8820  -32.3114   26.4599 H   0  0  0  0  0  0
  -25.7788  -30.9154   27.0267 H   0  0  0  0  0  0
  -26.3183  -29.6529   24.1637 H   0  0  0  0  0  0
  -27.3950  -29.7339   25.5347 H   0  0  0  0  0  0
  -27.9166  -30.4060   24.0116 H   0  0  0  0  0  0
  -27.2672  -33.3763   26.1935 H   0  0  0  0  0  0
  -28.3959  -32.6835   25.0384 H   0  0  0  0  0  0
  -28.0666  -31.8617   26.5568 H   0  0  0  0  0  0
  -28.2563  -38.0113   24.7545 H   0  0  0  0  0  0
  -28.1122  -36.2646   24.6231 H   0  0  0  0  0  0
  -27.2306  -37.1348   25.8860 H   0  0  0  0  0  0
  -20.9508  -29.8817   21.6690 H   0  0  0  0  0  0
  -26.0140  -38.2778   24.1403 H   0  0  0  0  0  0
  -24.3044  -12.3885   23.7563 H   0  0  0  0  0  0
  -21.3784  -13.6494   23.5333 H   0  0  0  0  0  0
  -26.3551  -16.7910   21.4817 H   0  0  0  0  0  0
  -24.4315  -21.6488   22.5574 H   0  0  0  0  0  0
  -25.7909  -20.7462   23.0974 H   0  0  0  0  0  0
  -24.7512  -20.7473   19.0480 H   0  0  0  0  0  0
  -23.8142  -21.6400   20.1706 H   0  0  0  0  0  0
  -27.4043  -22.2281   21.7898 H   0  0  0  0  0  0
  -26.4693  -23.1247   22.9105 H   0  0  0  0  0  0
  -25.3770  -23.1464   18.8839 H   0  0  0  0  0  0
  -26.7656  -22.2517   19.3630 H   0  0  0  0  0  0
  -25.9636  -19.5091   20.9003 H   0  0  0  0  0  0
  -25.2597  -24.3153   21.0839 H   0  0  0  0  0  0
  -17.8875  -13.4581   23.4607 H   0  0  0  0  0  0
  -17.1008  -15.0249   23.2443 H   0  0  0  0  0  0
  -18.1450  -14.7404   24.6436 H   0  0  0  0  0  0
  -20.4128  -16.8801   21.1933 H   0  0  0  0  0  0
  -20.9418  -17.9261   22.4791 H   0  0  0  0  0  0
  -27.6243  -13.2879   23.2379 H   0  0  0  0  0  0
  -27.6037  -14.8758   23.5829 H   0  0  0  0  0  0
  -18.7595  -17.0452   23.0612 H   0  0  0  0  0  0
  -19.9356  -16.4037   24.1889 H   0  0  0  0  0  0
  -22.9784  -19.1148   21.3906 H   0  0  0  0  0  0
  -28.8367  -15.7560   21.9791 H   0  0  0  0  0  0
  -18.9365  -14.9599   21.8192 H   0  0  0  0  0  0
  -19.9447  -14.3765   22.9515 H   0  0  0  0  0  0
  1 25  1  0  0  0
  1 30  2  0  0  0
  1 88  1  0  0  0
  2  3  1  0  0  0
  2 25  1  0  0  0
  2 90  1  0  0  0
  2 91  1  0  0  0
  3  4  1  0  0  0
  3 92  1  0  0  0
  3 93  1  0  0  0
  4  5  1  0  0  0
  4 94  1  0  0  0
  4 95  1  0  0  0
  5  6  1  0  0  0
  5 26  1  0  0  0
  5 96  1  0  0  0
  6 25  1  0  0  0
  6 97  1  0  0  0
  6 98  1  0  0  0
  7  8  2  0  0  0
  7 26  1  0  0  0
  7 29  1  0  0  0
  8  9  1  0  0  0
  8 22  1  0  0  0
  9 10  1  0  0  0
  9 27  2  0  0  0
 10 11  2  0  0  0
 10 15  1  0  0  0
 11 12  1  0  0  0
 11 99  1  0  0  0
 12 13  2  0  0  0
 12100  1  0  0  0
 13 14  1  0  0  0
 13 31  1  0  0  0
 14 15  2  0  0  0
 14101  1  0  0  0
 15102  1  0  0  0
 16 17  2  0  0  0
 16 21  1  0  0  0
 16 31  1  0  0  0
 17 18  1  0  0  0
 17103  1  0  0  0
 18 19  2  0  0  0
 18104  1  0  0  0
 19 20  1  0  0  0
 19 24  1  0  0  0
 20 21  2  0  0  0
 20105  1  0  0  0
 21 23  1  0  0  0
 22 28  1  0  0  0
 22 32  2  0  0  0
 26 27  1  0  0  0
 28106  1  0  0  0
 28107  1  0  0  0
 29108  1  0  0  0
 29109  1  0  0  0
 33 34  1  0  0  0
 33 66  1  0  0  0
 33 70  2  0  0  0
 34 36  1  0  0  0
 34 59  1  0  0  0
 34110  1  0  0  0
 35 44  2  0  0  0
 35 45  1  0  0  0
 35 68  1  0  0  0
 36 56  1  0  0  0
 36111  1  0  0  0
 37 39  1  0  0  0
 37 47  1  0  0  0
 37 66  1  0  0  0
 37112  1  0  0  0
 38 43  2  0  0  0
 38 46  1  0  0  0
 38 47  1  0  0  0
 39 64  1  0  0  0
 39 67  2  0  0  0
 40 52  1  0  0  0
 40 53  2  0  0  0
 40 58  1  0  0  0
 41113  1  0  0  0
 41114  1  0  0  0
 41115  1  0  0  0
 41 48  1  0  0  0
 42 43  1  0  0  0
 42 66  1  0  0  0
 42116  1  0  0  0
 42117  1  0  0  0
 43 44  1  0  0  0
 44118  1  0  0  0
 45 46  2  0  0  0
 45119  1  0  0  0
 46120  1  0  0  0
 47121  1  0  0  0
 47122  1  0  0  0
 48 56  1  0  0  0
 48 65  1  0  0  0
 48123  1  0  0  0
 49 50  1  0  0  0
 49 53  1  0  0  0
 49 64  1  0  0  0
 49124  1  0  0  0
 50 51  1  0  0  0
 50125  1  0  0  0
 50126  1  0  0  0
 51 52  1  0  0  0
 51127  1  0  0  0
 51128  1  0  0  0
 52129  1  0  0  0
 52130  1  0  0  0
 53 54  1  0  0  0
 54 55  2  0  0  0
 54131  1  0  0  0
 55 57  1  0  0  0
 55132  1  0  0  0
 56 69  2  0  0  0
 57 58  2  0  0  0
 57133  1  0  0  0
 58134  1  0  0  0
 59 60  1  0  0  0
 59 61  1  0  0  0
 59 62  1  0  0  0
 60135  1  0  0  0
 60136  1  0  0  0
 60137  1  0  0  0
 61138  1  0  0  0
 61139  1  0  0  0
 61140  1  0  0  0
 62141  1  0  0  0
 62142  1  0  0  0
 62143  1  0  0  0
 63 65  1  0  0  0
 63144  1  0  0  0
 63145  1  0  0  0
 63146  1  0  0  0
 64147  1  0  0  0
 65148  1  0  0  0
 68 82  1  0  0  0
 71 72  2  0  0  0
 71 74  1  0  0  0
 71149  1  0  0  0
 72 75  1  0  0  0
 72150  1  0  0  0
 73 74  2  0  0  0
 73 76  1  0  0  0
 73151  1  0  0  0
 74 85  1  0  0  0
 75 76  2  0  0  0
 75 84  1  0  0  0
 76 87  1  0  0  0
 77 79  1  0  0  0
 77 81  1  0  0  0
 77152  1  0  0  0
 77153  1  0  0  0
 78 80  1  0  0  0
 78 81  1  0  0  0
 78154  1  0  0  0
 78155  1  0  0  0
 79 82  1  0  0  0
 79156  1  0  0  0
 79157  1  0  0  0
 80 82  1  0  0  0
 80158  1  0  0  0
 80159  1  0  0  0
 81 87  1  0  0  0
 81160  1  0  0  0
 82161  1  0  0  0
 83 89  1  0  0  0
 83162  1  0  0  0
 83163  1  0  0  0
 83164  1  0  0  0
 84 86  1  0  0  0
 84165  1  0  0  0
 84166  1  0  0  0
 85 88  1  0  0  0
 85167  1  0  0  0
 85168  1  0  0  0
 86 89  1  0  0  0
 86169  1  0  0  0
 86170  1  0  0  0
 87171  1  0  0  0
 88172  1  0  0  0
 89173  1  0  0  0
 89174  1  0  0  0
M  CHG  1  89   1
M  ISO  4   1 100  68 101  82 101  88 100
M  END
> <chiral flag>
0

> <version>
0

> <s_m_source_file>
/data/baiqing/PycharmProjects/Reinvent-master-3.2/result/LINK_invent/BTK/process_docking_weight1_custom_sum_contain_oxygen_bond_distance_aromatic_linkinvent_7_9_3/rearranged_h_0123.sdf

> <i_m_source_file_index>
68

> <r_mmod_Potential_Energy-OPLS-2005>
13432.3271484375

> <r_mmod_Stretch_Energy-OPLS-2005>
7269.81005859375

> <r_mmod_Bend_Energy-OPLS-2005>
866.502990722656

> <r_mmod_Torsional_Energy-OPLS-2005>
393.116271972656

> <r_mmod_Improper_Torsional_Energy-OPLS-2005>
22.5541248321533

> <r_mmod_Van_der_Waal_Energy-OPLS-2005>
3147.52490234375

> <r_mmod_Electrostatic_Energy-OPLS-2005>
-366.518524169922

> <r_mmod_Solvation_Energy-OPLS-2005>
-483.068908691406

> <b_mmod_Minimization_Converged-OPLS-2005>
0

> <r_mmod_RMS_Derivative-OPLS-2005>
5.12001132965088

$$$$
68
                    3D
 Structure written by MMmdl.
163171  0  0  1  0            999 V2000
  -30.6349  -14.5561   20.5696 C   0  0  0  0  0  0
  -30.4428  -12.3663   19.4124 C   0  0  0  0  0  0
  -29.4956  -12.5075   18.2010 C   0  0  0  0  0  0
  -28.0175  -12.3548   18.6202 C   0  0  0  0  0  0
  -27.6558  -13.2031   19.8679 C   0  0  2  0  0  0
  -28.7032  -12.9935   20.9821 C   0  0  0  0  0  0
  -25.2566  -13.8143   20.5680 C   0  0  0  0  0  0
  -24.1827  -13.0424   20.9205 C   0  0  0  0  0  0
  -24.6378  -11.6891   20.8750 C   0  0  0  0  0  0
  -23.9045  -10.4279   21.0416 C   0  0  0  0  0  0
  -24.3595   -9.4196   21.9191 C   0  0  0  0  0  0
  -23.6277   -8.2230   22.0759 C   0  0  0  0  0  0
  -22.4263   -8.0261   21.3542 C   0  0  0  0  0  0
  -21.9889   -9.0242   20.4653 C   0  0  0  0  0  0
  -22.7219  -10.2123   20.3069 C   0  0  0  0  0  0
  -21.6844   -6.0721   22.5279 C   0  0  0  0  0  0
  -21.4002   -6.5632   23.8207 C   0  0  0  0  0  0
  -21.3661   -5.6792   24.9174 C   0  0  0  0  0  0
  -21.6050   -4.3054   24.7232 C   0  0  0  0  0  0
  -21.8820   -3.8140   23.4353 C   0  0  0  0  0  0
  -21.9192   -4.6951   22.3405 C   0  0  0  0  0  0
  -22.7849  -13.5229   21.1852 C   0  0  0  0  0  0
  -22.1660   -4.2130   21.0984 F   0  0  0  0  0  0
  -21.5637   -3.4544   25.7748 F   0  0  0  0  0  0
  -30.0178  -13.3481   20.4222 N   0  0  0  0  0  0
  -26.2987  -12.9304   20.3336 N   0  0  0  0  0  0
  -25.9296  -11.6473   20.5762 N   0  0  0  0  0  0
  -22.0485  -12.8230   22.0413 N   0  0  0  0  0  0
  -25.4291  -15.1862   20.4082 N   0  0  0  0  0  0
  -31.7861  -14.7707   20.1830 O   0  0  0  0  0  0
  -21.6637   -6.8854   21.4236 O   0  0  0  0  0  0
  -22.3535  -14.5535   20.6691 O   0  0  0  0  0  0
  -24.6218  -31.8652   23.2047 C   0  0  0  0  0  0
  -25.9087  -32.4815   23.8360 C   0  0  1  0  0  0
  -27.2278  -27.3805   20.1163 C   0  0  0  0  0  0
  -25.5935  -33.8609   24.2305 N   0  0  0  0  0  0
  -23.4110  -30.4902   21.5463 C   0  0  2  0  0  0
  -24.8560  -28.9470   20.1189 C   0  0  0  0  0  0
  -22.7436  -29.4676   22.4950 C   0  0  0  0  0  0
  -18.0282  -28.1389   22.8500 C   0  0  0  0  0  0
  -24.1474  -36.7284   23.2636 C   0  0  0  0  0  0
  -25.9454  -30.8192   21.3601 C   0  0  0  0  0  0
  -26.0227  -29.4491   20.7084 C   0  0  0  0  0  0
  -27.2159  -28.6786   20.6926 C   0  0  0  0  0  0
  -26.0364  -26.9042   19.5297 C   0  0  0  0  0  0
  -24.8593  -27.6743   19.5250 C   0  0  0  0  0  0
  -23.6228  -29.8224   20.1625 C   0  0  0  0  0  0
  -25.4100  -36.3104   24.0341 C   0  0  1  0  0  0
  -20.5882  -28.3685   23.1291 C   0  0  2  0  0  0
  -20.6771  -26.9415   22.5414 C   0  0  0  0  0  0
  -19.5746  -26.6395   21.5214 C   0  0  0  0  0  0
  -18.1921  -26.7941   22.1630 C   0  0  0  0  0  0
  -19.1536  -28.8849   23.2896 C   0  0  0  0  0  0
  -18.9475  -30.1448   23.8913 C   0  0  0  0  0  0
  -17.6480  -30.6595   24.0577 C   0  0  0  0  0  0
  -25.9040  -34.9482   23.5110 C   0  0  0  0  0  0
  -16.5362  -29.9109   23.6335 C   0  0  0  0  0  0
  -16.7270  -28.6523   23.0356 C   0  0  0  0  0  0
  -26.4492  -31.6599   25.0699 C   0  0  0  0  0  0
  -25.3751  -31.3740   26.1449 C   0  0  0  0  0  0
  -27.0319  -30.3042   24.6084 C   0  0  0  0  0  0
  -27.6057  -32.4317   25.7486 C   0  0  0  0  0  0
  -27.5569  -37.1793   24.8479 C   0  0  0  0  0  0
  -21.4156  -29.3068   22.3698 N   0  0  0  0  0  0
  -26.4276  -37.3802   23.9429 N   0  0  0  0  0  0
  -24.6787  -31.0722   22.0966 N   0  0  0  0  0  0
  -23.4195  -28.8197   23.2993 O   0  0  0  0  0  0
  -28.3741  -26.5949   20.1033 O   0  0  0  0  0  0
  -26.5603  -34.8950   22.4673 O   0  0  0  0  0  0
  -23.5396  -32.1412   23.7422 O   0  0  0  0  0  0
  -31.8489  -20.4489   22.3059 C   0  0  0  0  0  0
  -31.4147  -21.4493   21.2470 C   0  0  0  0  0  0
  -30.5653  -19.6679   22.5673 C   0  0  0  0  0  0
  -30.3738  -20.6809   20.4091 C   0  0  2  0  0  0
  -27.5333  -23.7762   18.7165 C   0  0  0  0  0  0
  -29.3009  -21.6350   19.7644 C   0  0  0  0  0  0
  -30.1425  -16.8953   21.5733 C   0  0  0  0  0  0
  -29.9796  -18.1332   20.6067 C   0  0  0  0  0  0
  -28.2755  -25.2563   20.6776 C   0  0  0  0  0  0
  -28.6399  -24.0331   19.7546 C   0  0  2  0  0  0
  -29.8339  -15.5410   21.0457 N   0  0  0  0  0  0
  -29.8905  -19.5141   21.2486 N   0  3  1  0  0  0
  -28.9207  -22.8216   20.5184 O   0  0  0  0  0  0
  -31.4767  -12.5213   19.0996 H   0  0  0  0  0  0
  -30.3995  -11.3577   19.8256 H   0  0  0  0  0  0
  -29.7443  -11.7640   17.4425 H   0  0  0  0  0  0
  -29.6421  -13.4816   17.7317 H   0  0  0  0  0  0
  -27.8389  -11.2998   18.8291 H   0  0  0  0  0  0
  -27.3620  -12.6150   17.7878 H   0  0  0  0  0  0
  -27.6927  -14.2476   19.5595 H   0  0  0  0  0  0
  -28.7093  -11.9505   21.3037 H   0  0  0  0  0  0
  -28.4565  -13.5703   21.8743 H   0  0  0  0  0  0
  -25.2740   -9.5673   22.4760 H   0  0  0  0  0  0
  -23.9991   -7.4622   22.7472 H   0  0  0  0  0  0
  -21.0823   -8.8766   19.8952 H   0  0  0  0  0  0
  -22.3683  -10.9664   19.6177 H   0  0  0  0  0  0
  -21.1980   -7.6138   23.9699 H   0  0  0  0  0  0
  -21.1485   -6.0527   25.9074 H   0  0  0  0  0  0
  -22.0596   -2.7599   23.2871 H   0  0  0  0  0  0
  -22.4095  -11.9899   22.4825 H   0  0  0  0  0  0
  -21.1098  -13.1251   22.2609 H   0  0  0  0  0  0
  -24.6604  -15.8382   20.5208 H   0  0  0  0  0  0
  -26.2645  -15.6220   20.0390 H   0  0  0  0  0  0
  -26.7157  -32.5514   23.1117 H   0  0  0  0  0  0
  -25.0142  -33.9758   25.0493 H   0  0  0  0  0  0
  -22.7032  -31.3097   21.4046 H   0  0  0  0  0  0
  -23.3757  -35.9597   23.3320 H   0  0  0  0  0  0
  -24.3558  -36.8871   22.2044 H   0  0  0  0  0  0
  -23.7210  -37.6484   23.6640 H   0  0  0  0  0  0
  -26.0567  -31.5802   20.5863 H   0  0  0  0  0  0
  -26.8341  -30.8751   21.9779 H   0  0  0  0  0  0
  -28.1180  -29.0687   21.1430 H   0  0  0  0  0  0
  -25.9971  -25.9284   19.0782 H   0  0  0  0  0  0
  -23.9617  -27.2729   19.0759 H   0  0  0  0  0  0
  -23.7440  -30.5992   19.4065 H   0  0  0  0  0  0
  -22.7436  -29.2520   19.8576 H   0  0  0  0  0  0
  -25.1276  -36.1946   25.0834 H   0  0  0  0  0  0
  -20.9977  -28.3253   24.1408 H   0  0  0  0  0  0
  -20.5666  -26.2298   23.3607 H   0  0  0  0  0  0
  -21.6635  -26.7446   22.1206 H   0  0  0  0  0  0
  -19.6906  -25.6311   21.1231 H   0  0  0  0  0  0
  -19.6677  -27.3217   20.6754 H   0  0  0  0  0  0
  -17.4194  -26.6693   21.4034 H   0  0  0  0  0  0
  -18.0316  -26.0075   22.9020 H   0  0  0  0  0  0
  -19.7953  -30.7259   24.2286 H   0  0  0  0  0  0
  -17.5047  -31.6278   24.5180 H   0  0  0  0  0  0
  -15.5369  -30.3027   23.7657 H   0  0  0  0  0  0
  -15.8668  -28.0858   22.7060 H   0  0  0  0  0  0
  -24.5915  -30.7094   25.7805 H   0  0  0  0  0  0
  -24.8963  -32.2914   26.4881 H   0  0  0  0  0  0
  -25.8096  -30.8931   27.0221 H   0  0  0  0  0  0
  -26.2857  -29.6801   24.1154 H   0  0  0  0  0  0
  -27.4111  -29.7280   25.4533 H   0  0  0  0  0  0
  -27.8686  -30.4367   23.9222 H   0  0  0  0  0  0
  -27.2662  -33.3602   26.2093 H   0  0  0  0  0  0
  -28.3868  -32.6895   25.0321 H   0  0  0  0  0  0
  -28.0727  -31.8425   26.5386 H   0  0  0  0  0  0
  -28.2613  -38.0069   24.7518 H   0  0  0  0  0  0
  -28.1036  -36.2605   24.6308 H   0  0  0  0  0  0
  -27.2290  -37.1439   25.8883 H   0  0  0  0  0  0
  -20.9304  -29.8819   21.6950 H   0  0  0  0  0  0
  -26.0160  -38.2875   24.1451 H   0  0  0  0  0  0
  -32.2385  -20.9281   23.2050 H   0  0  0  0  0  0
  -32.6169  -19.7830   21.9113 H   0  0  0  0  0  0
  -32.2478  -21.8187   20.6475 H   0  0  0  0  0  0
  -30.9679  -22.3108   21.7455 H   0  0  0  0  0  0
  -29.9095  -20.2749   23.1933 H   0  0  0  0  0  0
  -30.7552  -18.7616   23.1357 H   0  0  0  0  0  0
  -30.9216  -20.2459   19.5724 H   0  0  0  0  0  0
  -27.7519  -22.9396   18.0560 H   0  0  0  0  0  0
  -27.4168  -24.6421   18.0655 H   0  0  0  0  0  0
  -26.5766  -23.5767   19.2002 H   0  0  0  0  0  0
  -28.4149  -21.0722   19.4680 H   0  0  0  0  0  0
  -29.7505  -21.9821   18.8322 H   0  0  0  0  0  0
  -29.4690  -17.0206   22.4211 H   0  0  0  0  0  0
  -31.1548  -16.8773   21.9820 H   0  0  0  0  0  0
  -29.0855  -18.0078   19.9946 H   0  0  0  0  0  0
  -30.8209  -18.1016   19.9147 H   0  0  0  0  0  0
  -27.3041  -25.0911   21.1467 H   0  0  0  0  0  0
  -28.9863  -25.2562   21.5058 H   0  0  0  0  0  0
  -29.5593  -24.2894   19.2266 H   0  0  0  0  0  0
  -28.8895  -15.2326   21.2217 H   0  0  0  0  0  0
  -28.9080  -19.6560   21.4402 H   0  0  0  0  0  0
  1 25  1  0  0  0
  1 30  2  0  0  0
  1 81  1  0  0  0
  2  3  1  0  0  0
  2 25  1  0  0  0
  2 84  1  0  0  0
  2 85  1  0  0  0
  3  4  1  0  0  0
  3 86  1  0  0  0
  3 87  1  0  0  0
  4  5  1  0  0  0
  4 88  1  0  0  0
  4 89  1  0  0  0
  5  6  1  0  0  0
  5 26  1  0  0  0
  5 90  1  0  0  0
  6 25  1  0  0  0
  6 91  1  0  0  0
  6 92  1  0  0  0
  7  8  2  0  0  0
  7 26  1  0  0  0
  7 29  1  0  0  0
  8  9  1  0  0  0
  8 22  1  0  0  0
  9 10  1  0  0  0
  9 27  2  0  0  0
 10 11  2  0  0  0
 10 15  1  0  0  0
 11 12  1  0  0  0
 11 93  1  0  0  0
 12 13  2  0  0  0
 12 94  1  0  0  0
 13 14  1  0  0  0
 13 31  1  0  0  0
 14 15  2  0  0  0
 14 95  1  0  0  0
 15 96  1  0  0  0
 16 17  2  0  0  0
 16 21  1  0  0  0
 16 31  1  0  0  0
 17 18  1  0  0  0
 17 97  1  0  0  0
 18 19  2  0  0  0
 18 98  1  0  0  0
 19 20  1  0  0  0
 19 24  1  0  0  0
 20 21  2  0  0  0
 20 99  1  0  0  0
 21 23  1  0  0  0
 22 28  1  0  0  0
 22 32  2  0  0  0
 26 27  1  0  0  0
 28100  1  0  0  0
 28101  1  0  0  0
 29102  1  0  0  0
 29103  1  0  0  0
 33 34  1  0  0  0
 33 66  1  0  0  0
 33 70  2  0  0  0
 34 36  1  0  0  0
 34 59  1  0  0  0
 34104  1  0  0  0
 35 44  2  0  0  0
 35 45  1  0  0  0
 35 68  1  0  0  0
 36 56  1  0  0  0
 36105  1  0  0  0
 37 39  1  0  0  0
 37 47  1  0  0  0
 37 66  1  0  0  0
 37106  1  0  0  0
 38 43  2  0  0  0
 38 46  1  0  0  0
 38 47  1  0  0  0
 39 64  1  0  0  0
 39 67  2  0  0  0
 40 52  1  0  0  0
 40 53  2  0  0  0
 40 58  1  0  0  0
 41107  1  0  0  0
 41108  1  0  0  0
 41109  1  0  0  0
 41 48  1  0  0  0
 42 43  1  0  0  0
 42 66  1  0  0  0
 42110  1  0  0  0
 42111  1  0  0  0
 43 44  1  0  0  0
 44112  1  0  0  0
 45 46  2  0  0  0
 45113  1  0  0  0
 46114  1  0  0  0
 47115  1  0  0  0
 47116  1  0  0  0
 48 56  1  0  0  0
 48 65  1  0  0  0
 48117  1  0  0  0
 49 50  1  0  0  0
 49 53  1  0  0  0
 49 64  1  0  0  0
 49118  1  0  0  0
 50 51  1  0  0  0
 50119  1  0  0  0
 50120  1  0  0  0
 51 52  1  0  0  0
 51121  1  0  0  0
 51122  1  0  0  0
 52123  1  0  0  0
 52124  1  0  0  0
 53 54  1  0  0  0
 54 55  2  0  0  0
 54125  1  0  0  0
 55 57  1  0  0  0
 55126  1  0  0  0
 56 69  2  0  0  0
 57 58  2  0  0  0
 57127  1  0  0  0
 58128  1  0  0  0
 59 60  1  0  0  0
 59 61  1  0  0  0
 59 62  1  0  0  0
 60129  1  0  0  0
 60130  1  0  0  0
 60131  1  0  0  0
 61132  1  0  0  0
 61133  1  0  0  0
 61134  1  0  0  0
 62135  1  0  0  0
 62136  1  0  0  0
 62137  1  0  0  0
 63 65  1  0  0  0
 63138  1  0  0  0
 63139  1  0  0  0
 63140  1  0  0  0
 64141  1  0  0  0
 65142  1  0  0  0
 68 79  1  0  0  0
 71 72  1  0  0  0
 71 73  1  0  0  0
 71143  1  0  0  0
 71144  1  0  0  0
 72 74  1  0  0  0
 72145  1  0  0  0
 72146  1  0  0  0
 73 82  1  0  0  0
 73147  1  0  0  0
 73148  1  0  0  0
 74 76  1  0  0  0
 74 82  1  0  0  0
 74149  1  0  0  0
 75150  1  0  0  0
 75151  1  0  0  0
 75152  1  0  0  0
 75 80  1  0  0  0
 76 83  1  0  0  0
 76153  1  0  0  0
 76154  1  0  0  0
 77 78  1  0  0  0
 77 81  1  0  0  0
 77155  1  0  0  0
 77156  1  0  0  0
 78157  1  0  0  0
 78158  1  0  0  0
 78 82  1  0  0  0
 79 80  1  0  0  0
 79159  1  0  0  0
 79160  1  0  0  0
 80 83  1  0  0  0
 80161  1  0  0  0
 81162  1  0  0  0
 82163  1  0  0  0
M  CHG  1  82   1
M  ISO  4   1 100  68 101  79 101  81 100
M  END
> <chiral flag>
0

> <version>
0

> <s_m_source_file>
/data/baiqing/PycharmProjects/Reinvent-master-3.2/result/LINK_invent/BTK/process_docking_weight1_custom_sum_contain_oxygen_bond_distance_aromatic_linkinvent_7_9_3/rearranged_h_0123.sdf

> <i_m_source_file_index>
69

> <r_mmod_Potential_Energy-OPLS-2005>
3.64382767677307

> <r_mmod_Stretch_Energy-OPLS-2005>
60.4073944091797

> <r_mmod_Bend_Energy-OPLS-2005>
158.701599121094

> <r_mmod_Torsional_Energy-OPLS-2005>
305.451538085938

> <r_mmod_Improper_Torsional_Energy-OPLS-2005>
3.51599359512329

> <r_mmod_Van_der_Waal_Energy-OPLS-2005>
133.483383178711

> <r_mmod_Electrostatic_Energy-OPLS-2005>
-250.585922241211

> <r_mmod_Solvation_Energy-OPLS-2005>
-433.499145507812

> <b_mmod_Minimization_Converged-OPLS-2005>
0

> <r_mmod_RMS_Derivative-OPLS-2005>
1.88826942443848

$$$$
69
                    3D
 Structure written by MMmdl.
176184  0  0  1  0            999 V2000
  -30.8184  -14.3345   20.6982 C   0  0  0  0  0  0
  -30.4150  -12.2911   19.3832 C   0  0  0  0  0  0
  -29.4738  -12.5163   18.1864 C   0  0  0  0  0  0
  -28.0056  -12.3667   18.6190 C   0  0  0  0  0  0
  -27.6702  -13.2027   19.8799 C   0  0  2  0  0  0
  -28.7144  -12.9682   20.9976 C   0  0  0  0  0  0
  -25.2641  -13.8154   20.5673 C   0  0  0  0  0  0
  -24.1877  -13.0441   20.9145 C   0  0  0  0  0  0
  -24.6414  -11.6900   20.8726 C   0  0  0  0  0  0
  -23.9073  -10.4292   21.0417 C   0  0  0  0  0  0
  -24.3621   -9.4206   21.9199 C   0  0  0  0  0  0
  -23.6290   -8.2255   22.0776 C   0  0  0  0  0  0
  -22.4266   -8.0297   21.3566 C   0  0  0  0  0  0
  -21.9925   -9.0255   20.4648 C   0  0  0  0  0  0
  -22.7268  -10.2131   20.3048 C   0  0  0  0  0  0
  -21.6847   -6.0755   22.5286 C   0  0  0  0  0  0
  -21.3994   -6.5647   23.8210 C   0  0  0  0  0  0
  -21.3626   -5.6788   24.9171 C   0  0  0  0  0  0
  -21.6034   -4.3065   24.7217 C   0  0  0  0  0  0
  -21.8828   -3.8158   23.4336 C   0  0  0  0  0  0
  -21.9193   -4.6979   22.3396 C   0  0  0  0  0  0
  -22.7900  -13.5264   21.1808 C   0  0  0  0  0  0
  -22.1675   -4.2167   21.0983 F   0  0  0  0  0  0
  -21.5616   -3.4547   25.7727 F   0  0  0  0  0  0
  -30.0607  -13.2348   20.4540 N   0  0  0  0  0  0
  -26.3102  -12.9319   20.3418 N   0  0  0  0  0  0
  -25.9347  -11.6483   20.5791 N   0  0  0  0  0  0
  -22.0504  -12.8232   22.0324 N   0  0  0  0  0  0
  -25.4361  -15.1865   20.4068 N   0  0  0  0  0  0
  -31.7917  -14.6575   20.0115 O   0  0  0  0  0  0
  -21.6640   -6.8895   21.4253 O   0  0  0  0  0  0
  -22.3602  -14.5604   20.6714 O   0  0  0  0  0  0
  -24.6157  -31.8712   23.2150 C   0  0  0  0  0  0
  -25.9093  -32.4818   23.8409 C   0  0  1  0  0  0
  -27.2346  -27.4677   20.0617 C   0  0  0  0  0  0
  -25.5999  -33.8607   24.2383 N   0  0  0  0  0  0
  -23.3952  -30.5002   21.5570 C   0  0  2  0  0  0
  -24.8356  -28.9660   20.1230 C   0  0  0  0  0  0
  -22.7381  -29.4712   22.5038 C   0  0  0  0  0  0
  -18.0258  -28.1384   22.8474 C   0  0  0  0  0  0
  -24.1461  -36.7227   23.2624 C   0  0  0  0  0  0
  -25.9208  -30.8458   21.3595 C   0  0  0  0  0  0
  -25.9984  -29.4799   20.7105 C   0  0  0  0  0  0
  -27.1978  -28.7355   20.6818 C   0  0  0  0  0  0
  -26.0404  -26.9512   19.5021 C   0  0  0  0  0  0
  -24.8490  -27.6950   19.5258 C   0  0  0  0  0  0
  -23.5983  -29.8319   20.1719 C   0  0  0  0  0  0
  -25.4076  -36.3074   24.0351 C   0  0  1  0  0  0
  -20.5840  -28.3670   23.1303 C   0  0  2  0  0  0
  -20.6738  -26.9406   22.5417 C   0  0  0  0  0  0
  -19.5743  -26.6395   21.5193 C   0  0  0  0  0  0
  -18.1900  -26.7945   22.1551 C   0  0  0  0  0  0
  -19.1505  -28.8840   23.2887 C   0  0  0  0  0  0
  -18.9454  -30.1439   23.8907 C   0  0  0  0  0  0
  -17.6460  -30.6582   24.0591 C   0  0  0  0  0  0
  -25.9053  -34.9460   23.5147 C   0  0  0  0  0  0
  -16.5353  -29.9086   23.6354 C   0  0  0  0  0  0
  -16.7250  -28.6501   23.0360 C   0  0  0  0  0  0
  -26.4545  -31.6547   25.0690 C   0  0  0  0  0  0
  -25.3834  -31.3525   26.1436 C   0  0  0  0  0  0
  -27.0417  -30.3026   24.5973 C   0  0  0  0  0  0
  -27.6110  -32.4252   25.7480 C   0  0  0  0  0  0
  -27.5586  -37.1715   24.8437 C   0  0  0  0  0  0
  -21.4119  -29.3055   22.3735 N   0  0  0  0  0  0
  -26.4214  -37.3813   23.9512 N   0  0  0  0  0  0
  -24.6624  -31.0841   22.1043 N   0  0  0  0  0  0
  -23.4160  -28.8281   23.3103 O   0  0  0  0  0  0
  -28.4356  -26.7908   20.0132 O   0  0  0  0  0  0
  -26.5560  -34.8926   22.4675 O   0  0  0  0  0  0
  -23.5372  -32.1480   23.7581 O   0  0  0  0  0  0
  -32.2913  -18.4242   22.3781 C   0  0  0  0  0  0
  -29.8630  -19.2630   21.1321 C   0  0  0  0  0  0
  -30.8311  -20.2766   21.7991 C   0  0  2  0  0  0
  -31.3224  -17.4038   21.7332 C   0  0  1  0  0  0
  -28.6068  -22.4720   22.3360 C   0  0  0  0  0  0
  -34.6958  -20.1017   21.8255 C   0  0  0  0  0  0
  -33.1658  -21.1434   23.5816 C   0  0  0  0  0  0
  -30.7284  -21.6819   21.1414 C   0  0  0  0  0  0
  -31.4050  -16.0204   22.4203 C   0  0  0  0  0  0
  -28.2592  -24.3601   19.7185 C   0  0  0  0  0  0
  -29.5265  -23.7076   20.2964 C   0  0  0  0  0  0
  -28.5739  -25.7235   19.0727 C   0  0  0  0  0  0
  -29.3339  -22.3359   20.9829 C   0  0  2  0  0  0
  -33.2918  -20.6625   22.1225 C   0  0  0  0  0  0
  -32.2144  -19.7375   21.7046 N   0  0  0  0  0  0
  -30.5281  -15.0029   21.8206 N   0  0  0  0  0  0
  -29.9504  -17.9400   21.7797 N   0  3  0  0  0  0
  -31.4538  -12.3878   19.0648 H   0  0  0  0  0  0
  -30.3175  -11.2693   19.7539 H   0  0  0  0  0  0
  -29.7001  -11.8011   17.3947 H   0  0  0  0  0  0
  -29.6365  -13.5088   17.7622 H   0  0  0  0  0  0
  -27.8226  -11.3100   18.8187 H   0  0  0  0  0  0
  -27.3395  -12.6394   17.7992 H   0  0  0  0  0  0
  -27.7249  -14.2522   19.5894 H   0  0  0  0  0  0
  -28.6691  -11.9349   21.3462 H   0  0  0  0  0  0
  -28.4707  -13.5796   21.8669 H   0  0  0  0  0  0
  -25.2755   -9.5670   22.4787 H   0  0  0  0  0  0
  -23.9971   -7.4649   22.7525 H   0  0  0  0  0  0
  -21.0855   -8.8782   19.8942 H   0  0  0  0  0  0
  -22.3757  -10.9666   19.6145 H   0  0  0  0  0  0
  -21.1986   -7.6150   23.9721 H   0  0  0  0  0  0
  -21.1417   -6.0518   25.9065 H   0  0  0  0  0  0
  -22.0624   -2.7618   23.2838 H   0  0  0  0  0  0
  -22.4110  -11.9841   22.4625 H   0  0  0  0  0  0
  -21.1117  -13.1254   22.2526 H   0  0  0  0  0  0
  -24.6635  -15.8368   20.5079 H   0  0  0  0  0  0
  -26.2846  -15.6249   20.0708 H   0  0  0  0  0  0
  -26.7162  -32.5539   23.1172 H   0  0  0  0  0  0
  -25.0346  -33.9796   25.0662 H   0  0  0  0  0  0
  -22.6826  -31.3156   21.4194 H   0  0  0  0  0  0
  -23.3836  -35.9437   23.3119 H   0  0  0  0  0  0
  -24.3610  -36.9007   22.2075 H   0  0  0  0  0  0
  -23.7042  -37.6297   23.6747 H   0  0  0  0  0  0
  -26.0188  -31.6108   20.5875 H   0  0  0  0  0  0
  -26.8139  -30.9064   21.9678 H   0  0  0  0  0  0
  -28.1042  -29.1433   21.1077 H   0  0  0  0  0  0
  -26.0047  -25.9767   19.0380 H   0  0  0  0  0  0
  -23.9520  -27.2827   19.0876 H   0  0  0  0  0  0
  -23.7067  -30.6080   19.4135 H   0  0  0  0  0  0
  -22.7197  -29.2563   19.8736 H   0  0  0  0  0  0
  -25.1222  -36.1880   25.0824 H   0  0  0  0  0  0
  -20.9913  -28.3259   24.1435 H   0  0  0  0  0  0
  -20.5598  -26.2314   23.3637 H   0  0  0  0  0  0
  -21.6624  -26.7441   22.1244 H   0  0  0  0  0  0
  -19.6925  -25.6305   21.1212 H   0  0  0  0  0  0
  -19.6708  -27.3224   20.6737 H   0  0  0  0  0  0
  -17.4205  -26.6793   21.3900 H   0  0  0  0  0  0
  -18.0234  -26.0023   22.8862 H   0  0  0  0  0  0
  -19.7935  -30.7241   24.2283 H   0  0  0  0  0  0
  -17.5024  -31.6263   24.5199 H   0  0  0  0  0  0
  -15.5360  -30.2998   23.7689 H   0  0  0  0  0  0
  -15.8642  -28.0842   22.7073 H   0  0  0  0  0  0
  -24.6158  -30.6709   25.7764 H   0  0  0  0  0  0
  -24.8871  -32.2607   26.4857 H   0  0  0  0  0  0
  -25.8268  -30.8766   27.0198 H   0  0  0  0  0  0
  -26.2933  -29.6680   24.1221 H   0  0  0  0  0  0
  -27.4493  -29.7324   25.4333 H   0  0  0  0  0  0
  -27.8614  -30.4409   23.8916 H   0  0  0  0  0  0
  -27.2757  -33.3579   26.2019 H   0  0  0  0  0  0
  -28.3977  -32.6737   25.0344 H   0  0  0  0  0  0
  -28.0722  -31.8380   26.5432 H   0  0  0  0  0  0
  -28.2405  -38.0207   24.7812 H   0  0  0  0  0  0
  -28.1279  -36.2773   24.5839 H   0  0  0  0  0  0
  -27.2382  -37.0828   25.8837 H   0  0  0  0  0  0
  -20.9319  -29.8744   21.6905 H   0  0  0  0  0  0
  -26.0067  -38.2817   24.1766 H   0  0  0  0  0  0
  -33.2954  -18.0090   22.2912 H   0  0  0  0  0  0
  -32.0891  -18.5210   23.4450 H   0  0  0  0  0  0
  -30.0837  -19.1668   20.0668 H   0  0  0  0  0  0
  -28.8299  -19.5991   21.2099 H   0  0  0  0  0  0
  -30.5597  -20.3769   22.8514 H   0  0  0  0  0  0
  -31.6067  -17.2873   20.6858 H   0  0  0  0  0  0
  -28.3031  -21.5001   22.7223 H   0  0  0  0  0  0
  -27.6973  -23.0659   22.2487 H   0  0  0  0  0  0
  -29.2414  -22.9480   23.0857 H   0  0  0  0  0  0
  -35.4375  -20.9012   21.8690 H   0  0  0  0  0  0
  -34.7526  -19.6695   20.8262 H   0  0  0  0  0  0
  -35.0114  -19.3471   22.5463 H   0  0  0  0  0  0
  -33.9682  -21.8430   23.8200 H   0  0  0  0  0  0
  -33.2275  -20.3271   24.3004 H   0  0  0  0  0  0
  -32.2317  -21.6772   23.7567 H   0  0  0  0  0  0
  -31.1948  -21.6292   20.1567 H   0  0  0  0  0  0
  -31.3199  -22.3920   21.7183 H   0  0  0  0  0  0
  -31.1492  -16.1111   23.4763 H   0  0  0  0  0  0
  -32.4376  -15.6651   22.4001 H   0  0  0  0  0  0
  -27.4836  -24.4783   20.4758 H   0  0  0  0  0  0
  -27.8431  -23.6972   18.9574 H   0  0  0  0  0  0
  -30.0213  -24.3980   20.9808 H   0  0  0  0  0  0
  -30.2157  -23.5752   19.4604 H   0  0  0  0  0  0
  -27.9797  -25.8851   18.1715 H   0  0  0  0  0  0
  -29.6012  -25.7333   18.7099 H   0  0  0  0  0  0
  -28.7261  -21.7205   20.3193 H   0  0  0  0  0  0
  -33.2348  -21.5409   21.4810 H   0  0  0  0  0  0
  -29.7675  -14.6417   22.3789 H   0  0  0  0  0  0
  -29.3197  -17.3016   21.3235 H   0  0  0  0  0  0
  -29.6690  -18.0337   22.7410 H   0  0  0  0  0  0
  1 25  1  0  0  0
  1 30  2  0  0  0
  1 86  1  0  0  0
  2  3  1  0  0  0
  2 25  1  0  0  0
  2 88  1  0  0  0
  2 89  1  0  0  0
  3  4  1  0  0  0
  3 90  1  0  0  0
  3 91  1  0  0  0
  4  5  1  0  0  0
  4 92  1  0  0  0
  4 93  1  0  0  0
  5  6  1  0  0  0
  5 26  1  0  0  0
  5 94  1  0  0  0
  6 25  1  0  0  0
  6 95  1  0  0  0
  6 96  1  0  0  0
  7  8  2  0  0  0
  7 26  1  0  0  0
  7 29  1  0  0  0
  8  9  1  0  0  0
  8 22  1  0  0  0
  9 10  1  0  0  0
  9 27  2  0  0  0
 10 11  2  0  0  0
 10 15  1  0  0  0
 11 12  1  0  0  0
 11 97  1  0  0  0
 12 13  2  0  0  0
 12 98  1  0  0  0
 13 14  1  0  0  0
 13 31  1  0  0  0
 14 15  2  0  0  0
 14 99  1  0  0  0
 15100  1  0  0  0
 16 17  2  0  0  0
 16 21  1  0  0  0
 16 31  1  0  0  0
 17 18  1  0  0  0
 17101  1  0  0  0
 18 19  2  0  0  0
 18102  1  0  0  0
 19 20  1  0  0  0
 19 24  1  0  0  0
 20 21  2  0  0  0
 20103  1  0  0  0
 21 23  1  0  0  0
 22 28  1  0  0  0
 22 32  2  0  0  0
 26 27  1  0  0  0
 28104  1  0  0  0
 28105  1  0  0  0
 29106  1  0  0  0
 29107  1  0  0  0
 33 34  1  0  0  0
 33 66  1  0  0  0
 33 70  2  0  0  0
 34 36  1  0  0  0
 34 59  1  0  0  0
 34108  1  0  0  0
 35 44  2  0  0  0
 35 45  1  0  0  0
 35 68  1  0  0  0
 36 56  1  0  0  0
 36109  1  0  0  0
 37 39  1  0  0  0
 37 47  1  0  0  0
 37 66  1  0  0  0
 37110  1  0  0  0
 38 43  2  0  0  0
 38 46  1  0  0  0
 38 47  1  0  0  0
 39 64  1  0  0  0
 39 67  2  0  0  0
 40 52  1  0  0  0
 40 53  2  0  0  0
 40 58  1  0  0  0
 41111  1  0  0  0
 41112  1  0  0  0
 41113  1  0  0  0
 41 48  1  0  0  0
 42 43  1  0  0  0
 42 66  1  0  0  0
 42114  1  0  0  0
 42115  1  0  0  0
 43 44  1  0  0  0
 44116  1  0  0  0
 45 46  2  0  0  0
 45117  1  0  0  0
 46118  1  0  0  0
 47119  1  0  0  0
 47120  1  0  0  0
 48 56  1  0  0  0
 48 65  1  0  0  0
 48121  1  0  0  0
 49 50  1  0  0  0
 49 53  1  0  0  0
 49 64  1  0  0  0
 49122  1  0  0  0
 50 51  1  0  0  0
 50123  1  0  0  0
 50124  1  0  0  0
 51 52  1  0  0  0
 51125  1  0  0  0
 51126  1  0  0  0
 52127  1  0  0  0
 52128  1  0  0  0
 53 54  1  0  0  0
 54 55  2  0  0  0
 54129  1  0  0  0
 55 57  1  0  0  0
 55130  1  0  0  0
 56 69  2  0  0  0
 57 58  2  0  0  0
 57131  1  0  0  0
 58132  1  0  0  0
 59 60  1  0  0  0
 59 61  1  0  0  0
 59 62  1  0  0  0
 60133  1  0  0  0
 60134  1  0  0  0
 60135  1  0  0  0
 61136  1  0  0  0
 61137  1  0  0  0
 61138  1  0  0  0
 62139  1  0  0  0
 62140  1  0  0  0
 62141  1  0  0  0
 63 65  1  0  0  0
 63142  1  0  0  0
 63143  1  0  0  0
 63144  1  0  0  0
 64145  1  0  0  0
 65146  1  0  0  0
 68 82  1  0  0  0
 71 74  1  0  0  0
 71 85  1  0  0  0
 71147  1  0  0  0
 71148  1  0  0  0
 72 73  1  0  0  0
 72 87  1  0  0  0
 72149  1  0  0  0
 72150  1  0  0  0
 73 78  1  0  0  0
 73 85  1  0  0  0
 73151  1  0  0  0
 74 79  1  0  0  0
 74 87  1  0  0  0
 74152  1  0  0  0
 75153  1  0  0  0
 75154  1  0  0  0
 75155  1  0  0  0
 75 83  1  0  0  0
 76156  1  0  0  0
 76157  1  0  0  0
 76158  1  0  0  0
 76 84  1  0  0  0
 77 84  1  0  0  0
 77159  1  0  0  0
 77160  1  0  0  0
 77161  1  0  0  0
 78 83  1  0  0  0
 78162  1  0  0  0
 78163  1  0  0  0
 79 86  1  0  0  0
 79164  1  0  0  0
 79165  1  0  0  0
 80 81  1  0  0  0
 80 82  1  0  0  0
 80166  1  0  0  0
 80167  1  0  0  0
 81 83  1  0  0  0
 81168  1  0  0  0
 81169  1  0  0  0
 82170  1  0  0  0
 82171  1  0  0  0
 83172  1  0  0  0
 84 85  1  0  0  0
 84173  1  0  0  0
 86174  1  0  0  0
 87175  1  0  0  0
 87176  1  0  0  0
M  CHG  1  87   1
M  ISO  4   1 100  68 101  82 101  86 100
M  END
> <chiral flag>
0

> <version>
0

> <s_m_source_file>
/data/baiqing/PycharmProjects/Reinvent-master-3.2/result/LINK_invent/BTK/process_docking_weight1_custom_sum_contain_oxygen_bond_distance_aromatic_linkinvent_7_9_3/rearranged_h_0123.sdf

> <i_m_source_file_index>
70

> <r_mmod_Potential_Energy-OPLS-2005>
-226.53059387207

> <r_mmod_Stretch_Energy-OPLS-2005>
39.2972221374512

> <r_mmod_Bend_Energy-OPLS-2005>
113.948616027832

> <r_mmod_Torsional_Energy-OPLS-2005>
245.891372680664

> <r_mmod_Improper_Torsional_Energy-OPLS-2005>
2.98047494888306

> <r_mmod_Van_der_Waal_Energy-OPLS-2005>
159.790176391602

> <r_mmod_Electrostatic_Energy-OPLS-2005>
-349.440734863281

> <r_mmod_Solvation_Energy-OPLS-2005>
-447.274841308594

> <b_mmod_Minimization_Converged-OPLS-2005>
0

> <r_mmod_RMS_Derivative-OPLS-2005>
3.2950451374054

$$$$
70
                    3D
 Structure written by MMmdl.
165173  0  0  1  0            999 V2000
  -30.6814  -14.5376   20.4764 C   0  0  0  0  0  0
  -30.4034  -12.3231   19.4194 C   0  0  0  0  0  0
  -29.4787  -12.4862   18.1949 C   0  0  0  0  0  0
  -28.0020  -12.3565   18.6126 C   0  0  0  0  0  0
  -27.6468  -13.2188   19.8550 C   0  0  2  0  0  0
  -28.6967  -13.0577   20.9773 C   0  0  0  0  0  0
  -25.2541  -13.8197   20.5666 C   0  0  0  0  0  0
  -24.1816  -13.0440   20.9208 C   0  0  0  0  0  0
  -24.6392  -11.6931   20.8754 C   0  0  0  0  0  0
  -23.9074  -10.4299   21.0421 C   0  0  0  0  0  0
  -24.3634   -9.4213   21.9182 C   0  0  0  0  0  0
  -23.6311   -8.2243   22.0748 C   0  0  0  0  0  0
  -22.4290   -8.0287   21.3543 C   0  0  0  0  0  0
  -21.9929   -9.0262   20.4648 C   0  0  0  0  0  0
  -22.7255  -10.2145   20.3059 C   0  0  0  0  0  0
  -21.6851   -6.0746   22.5281 C   0  0  0  0  0  0
  -21.4010   -6.5645   23.8216 C   0  0  0  0  0  0
  -21.3658   -5.6802   24.9180 C   0  0  0  0  0  0
  -21.6037   -4.3064   24.7230 C   0  0  0  0  0  0
  -21.8822   -3.8156   23.4352 C   0  0  0  0  0  0
  -21.9190   -4.6972   22.3404 C   0  0  0  0  0  0
  -22.7835  -13.5214   21.1861 C   0  0  0  0  0  0
  -22.1661   -4.2165   21.0985 F   0  0  0  0  0  0
  -21.5625   -3.4546   25.7744 F   0  0  0  0  0  0
  -30.0122  -13.3526   20.3966 N   0  0  0  0  0  0
  -26.2957  -12.9372   20.3303 N   0  0  0  0  0  0
  -25.9314  -11.6520   20.5771 N   0  0  0  0  0  0
  -22.0500  -12.8195   22.0436 N   0  0  0  0  0  0
  -25.4228  -15.1900   20.4046 N   0  0  0  0  0  0
  -31.8559  -14.6456   20.1161 O   0  0  0  0  0  0
  -21.6638   -6.8897   21.4246 O   0  0  0  0  0  0
  -22.3515  -14.5523   20.6733 O   0  0  0  0  0  0
  -24.6205  -31.8658   23.2091 C   0  0  0  0  0  0
  -25.9062  -32.4804   23.8416 C   0  0  1  0  0  0
  -27.2180  -27.3682   20.0774 C   0  0  0  0  0  0
  -25.5904  -33.8610   24.2341 N   0  0  0  0  0  0
  -23.4126  -30.4883   21.5568 C   0  0  2  0  0  0
  -24.8529  -28.9547   20.1090 C   0  0  0  0  0  0
  -22.7454  -29.4640   22.5031 C   0  0  0  0  0  0
  -18.0262  -28.1350   22.8469 C   0  0  0  0  0  0
  -24.1487  -36.7316   23.2646 C   0  0  0  0  0  0
  -25.9485  -30.8054   21.3743 C   0  0  0  0  0  0
  -26.0241  -29.4395   20.7079 C   0  0  0  0  0  0
  -27.2131  -28.6592   20.6797 C   0  0  0  0  0  0
  -26.0340  -26.9340   19.4421 C   0  0  0  0  0  0
  -24.8592  -27.7068   19.4659 C   0  0  0  0  0  0
  -23.6183  -29.8288   20.1697 C   0  0  0  0  0  0
  -25.4106  -36.3117   24.0348 C   0  0  1  0  0  0
  -20.5858  -28.3666   23.1294 C   0  0  2  0  0  0
  -20.6761  -26.9405   22.5407 C   0  0  0  0  0  0
  -19.5753  -26.6366   21.5195 C   0  0  0  0  0  0
  -18.1924  -26.7882   22.1599 C   0  0  0  0  0  0
  -19.1514  -28.8822   23.2850 C   0  0  0  0  0  0
  -18.9449  -30.1408   23.8899 C   0  0  0  0  0  0
  -17.6470  -30.6573   24.0546 C   0  0  0  0  0  0
  -25.9041  -34.9477   23.5150 C   0  0  0  0  0  0
  -16.5351  -29.9084   23.6329 C   0  0  0  0  0  0
  -16.7252  -28.6474   23.0379 C   0  0  0  0  0  0
  -26.4447  -31.6590   25.0758 C   0  0  0  0  0  0
  -25.3741  -31.3759   26.1567 C   0  0  0  0  0  0
  -27.0204  -30.3002   24.6159 C   0  0  0  0  0  0
  -27.6132  -32.4244   25.7435 C   0  0  0  0  0  0
  -27.5596  -37.1791   24.8458 C   0  0  0  0  0  0
  -21.4179  -29.3023   22.3718 N   0  0  0  0  0  0
  -26.4293  -37.3806   23.9404 N   0  0  0  0  0  0
  -24.6804  -31.0681   22.1045 N   0  0  0  0  0  0
  -23.4192  -28.8181   23.3090 O   0  0  0  0  0  0
  -28.3374  -26.5375   20.0915 O   0  0  0  0  0  0
  -26.5640  -34.8942   22.4745 O   0  0  0  0  0  0
  -23.5372  -32.1431   23.7428 O   0  0  0  0  0  0
  -28.7041  -20.6605   21.3341 C   0  0  0  0  0  0
  -28.8207  -20.0894   18.9353 C   0  0  0  0  0  0
  -29.5737  -19.4100   21.6699 C   0  0  0  0  0  0
  -29.6600  -18.8180   19.2421 C   0  0  0  0  0  0
  -29.0013  -21.2703   19.9348 C   0  0  1  0  0  0
  -29.4758  -18.2180   20.6637 C   0  0  1  0  0  0
  -26.6703  -22.4510   19.9629 C   0  0  0  0  0  0
  -31.2297  -17.0960   22.2894 C   0  0  0  0  0  0
  -28.7394  -24.0168   19.5300 C   0  0  0  0  0  0
  -28.1145  -25.1314   20.4607 C   0  0  0  0  0  0
  -28.1363  -22.5383   19.4994 C   0  0  1  0  0  0
  -30.5006  -17.0224   20.9332 C   0  0  1  0  0  0
  -29.9543  -15.6417   20.7938 N   0  0  0  0  0  0
  -31.4492  -12.4026   19.1172 H   0  0  0  0  0  0
  -30.2912  -11.3277   19.8520 H   0  0  0  0  0  0
  -29.7151  -11.7373   17.4373 H   0  0  0  0  0  0
  -29.6441  -13.4567   17.7259 H   0  0  0  0  0  0
  -27.8105  -11.3047   18.8221 H   0  0  0  0  0  0
  -27.3513  -12.6204   17.7777 H   0  0  0  0  0  0
  -27.6714  -14.2554   19.5223 H   0  0  0  0  0  0
  -28.6848  -12.0426   21.3761 H   0  0  0  0  0  0
  -28.4735  -13.7176   21.8171 H   0  0  0  0  0  0
  -25.2780   -9.5673   22.4757 H   0  0  0  0  0  0
  -24.0022   -7.4627   22.7456 H   0  0  0  0  0  0
  -21.0855   -8.8785   19.8951 H   0  0  0  0  0  0
  -22.3712  -10.9688   19.6175 H   0  0  0  0  0  0
  -21.2008   -7.6159   23.9729 H   0  0  0  0  0  0
  -21.1465   -6.0530   25.9087 H   0  0  0  0  0  0
  -22.0600   -2.7621   23.2849 H   0  0  0  0  0  0
  -22.4157  -11.9865   22.4805 H   0  0  0  0  0  0
  -21.1109  -13.1181   22.2658 H   0  0  0  0  0  0
  -24.6516  -15.8423   20.5063 H   0  0  0  0  0  0
  -26.2680  -15.6299   20.0635 H   0  0  0  0  0  0
  -26.7131  -32.5491   23.1176 H   0  0  0  0  0  0
  -24.9969  -33.9741   25.0419 H   0  0  0  0  0  0
  -22.7021  -31.3067   21.4256 H   0  0  0  0  0  0
  -23.3785  -35.9614   23.3231 H   0  0  0  0  0  0
  -24.3575  -36.9028   22.2079 H   0  0  0  0  0  0
  -23.7165  -37.6455   23.6723 H   0  0  0  0  0  0
  -26.0660  -31.5754   20.6095 H   0  0  0  0  0  0
  -26.8322  -30.8549   21.9991 H   0  0  0  0  0  0
  -28.1190  -29.0275   21.1435 H   0  0  0  0  0  0
  -26.0158  -25.9907   18.9146 H   0  0  0  0  0  0
  -23.9679  -27.3410   18.9726 H   0  0  0  0  0  0
  -23.7255  -30.6138   19.4197 H   0  0  0  0  0  0
  -22.7343  -29.2583   19.8754 H   0  0  0  0  0  0
  -25.1260  -36.2027   25.0841 H   0  0  0  0  0  0
  -20.9870  -28.3261   24.1448 H   0  0  0  0  0  0
  -20.5654  -26.2297   23.3598 H   0  0  0  0  0  0
  -21.6646  -26.7460   22.1231 H   0  0  0  0  0  0
  -19.6953  -25.6271   21.1248 H   0  0  0  0  0  0
  -19.6700  -27.3164   20.6722 H   0  0  0  0  0  0
  -17.4190  -26.6581   21.4012 H   0  0  0  0  0  0
  -18.0340  -26.0003   22.8980 H   0  0  0  0  0  0
  -19.7940  -30.7154   24.2326 H   0  0  0  0  0  0
  -17.5065  -31.6279   24.5112 H   0  0  0  0  0  0
  -15.5359  -30.3020   23.7648 H   0  0  0  0  0  0
  -15.8625  -28.0799   22.7169 H   0  0  0  0  0  0
  -24.5712  -30.7364   25.7873 H   0  0  0  0  0  0
  -24.9176  -32.2949   26.5271 H   0  0  0  0  0  0
  -25.8051  -30.8641   27.0185 H   0  0  0  0  0  0
  -26.2699  -29.6764   24.1285 H   0  0  0  0  0  0
  -27.3971  -29.7255   25.4613 H   0  0  0  0  0  0
  -27.8578  -30.4217   23.9288 H   0  0  0  0  0  0
  -27.2967  -33.3708   26.1834 H   0  0  0  0  0  0
  -28.4018  -32.6480   25.0237 H   0  0  0  0  0  0
  -28.0679  -31.8411   26.5439 H   0  0  0  0  0  0
  -28.2614  -38.0093   24.7564 H   0  0  0  0  0  0
  -28.1091  -36.2623   24.6234 H   0  0  0  0  0  0
  -27.2320  -37.1448   25.8865 H   0  0  0  0  0  0
  -20.9376  -29.8731   21.6906 H   0  0  0  0  0  0
  -26.0205  -38.2897   24.1425 H   0  0  0  0  0  0
  -28.8404  -21.4198   22.1035 H   0  0  0  0  0  0
  -27.6583  -20.3587   21.3985 H   0  0  0  0  0  0
  -27.7656  -19.8132   18.8917 H   0  0  0  0  0  0
  -29.0887  -20.4210   17.9320 H   0  0  0  0  0  0
  -29.2887  -19.0479   22.6586 H   0  0  0  0  0  0
  -30.6093  -19.7382   21.7532 H   0  0  0  0  0  0
  -30.7108  -19.0698   19.0891 H   0  0  0  0  0  0
  -29.4277  -18.0545   18.4957 H   0  0  0  0  0  0
  -30.0536  -21.5615   19.9070 H   0  0  0  0  0  0
  -28.4602  -17.8232   20.7357 H   0  0  0  0  0  0
  -26.2633  -21.4488   19.8297 H   0  0  0  0  0  0
  -26.0388  -23.1287   19.3868 H   0  0  0  0  0  0
  -26.5717  -22.7046   21.0169 H   0  0  0  0  0  0
  -31.7752  -18.0305   22.4129 H   0  0  0  0  0  0
  -31.9807  -16.3091   22.3717 H   0  0  0  0  0  0
  -30.5358  -16.9811   23.1220 H   0  0  0  0  0  0
  -29.8191  -23.9754   19.6831 H   0  0  0  0  0  0
  -28.6353  -24.4039   18.5144 H   0  0  0  0  0  0
  -28.5321  -25.0021   21.4573 H   0  0  0  0  0  0
  -27.0545  -24.9379   20.5996 H   0  0  0  0  0  0
  -28.0635  -22.3851   18.4210 H   0  0  0  0  0  0
  -31.2857  -17.1264   20.1812 H   0  0  0  0  0  0
  -28.9774  -15.5006   20.9987 H   0  0  0  0  0  0
  1 25  1  0  0  0
  1 30  2  0  0  0
  1 83  1  0  0  0
  2  3  1  0  0  0
  2 25  1  0  0  0
  2 84  1  0  0  0
  2 85  1  0  0  0
  3  4  1  0  0  0
  3 86  1  0  0  0
  3 87  1  0  0  0
  4  5  1  0  0  0
  4 88  1  0  0  0
  4 89  1  0  0  0
  5  6  1  0  0  0
  5 26  1  0  0  0
  5 90  1  0  0  0
  6 25  1  0  0  0
  6 91  1  0  0  0
  6 92  1  0  0  0
  7  8  2  0  0  0
  7 26  1  0  0  0
  7 29  1  0  0  0
  8  9  1  0  0  0
  8 22  1  0  0  0
  9 10  1  0  0  0
  9 27  2  0  0  0
 10 11  2  0  0  0
 10 15  1  0  0  0
 11 12  1  0  0  0
 11 93  1  0  0  0
 12 13  2  0  0  0
 12 94  1  0  0  0
 13 14  1  0  0  0
 13 31  1  0  0  0
 14 15  2  0  0  0
 14 95  1  0  0  0
 15 96  1  0  0  0
 16 17  2  0  0  0
 16 21  1  0  0  0
 16 31  1  0  0  0
 17 18  1  0  0  0
 17 97  1  0  0  0
 18 19  2  0  0  0
 18 98  1  0  0  0
 19 20  1  0  0  0
 19 24  1  0  0  0
 20 21  2  0  0  0
 20 99  1  0  0  0
 21 23  1  0  0  0
 22 28  1  0  0  0
 22 32  2  0  0  0
 26 27  1  0  0  0
 28100  1  0  0  0
 28101  1  0  0  0
 29102  1  0  0  0
 29103  1  0  0  0
 33 34  1  0  0  0
 33 66  1  0  0  0
 33 70  2  0  0  0
 34 36  1  0  0  0
 34 59  1  0  0  0
 34104  1  0  0  0
 35 44  2  0  0  0
 35 45  1  0  0  0
 35 68  1  0  0  0
 36 56  1  0  0  0
 36105  1  0  0  0
 37 39  1  0  0  0
 37 47  1  0  0  0
 37 66  1  0  0  0
 37106  1  0  0  0
 38 43  2  0  0  0
 38 46  1  0  0  0
 38 47  1  0  0  0
 39 64  1  0  0  0
 39 67  2  0  0  0
 40 52  1  0  0  0
 40 53  2  0  0  0
 40 58  1  0  0  0
 41107  1  0  0  0
 41108  1  0  0  0
 41109  1  0  0  0
 41 48  1  0  0  0
 42 43  1  0  0  0
 42 66  1  0  0  0
 42110  1  0  0  0
 42111  1  0  0  0
 43 44  1  0  0  0
 44112  1  0  0  0
 45 46  2  0  0  0
 45113  1  0  0  0
 46114  1  0  0  0
 47115  1  0  0  0
 47116  1  0  0  0
 48 56  1  0  0  0
 48 65  1  0  0  0
 48117  1  0  0  0
 49 50  1  0  0  0
 49 53  1  0  0  0
 49 64  1  0  0  0
 49118  1  0  0  0
 50 51  1  0  0  0
 50119  1  0  0  0
 50120  1  0  0  0
 51 52  1  0  0  0
 51121  1  0  0  0
 51122  1  0  0  0
 52123  1  0  0  0
 52124  1  0  0  0
 53 54  1  0  0  0
 54 55  2  0  0  0
 54125  1  0  0  0
 55 57  1  0  0  0
 55126  1  0  0  0
 56 69  2  0  0  0
 57 58  2  0  0  0
 57127  1  0  0  0
 58128  1  0  0  0
 59 60  1  0  0  0
 59 61  1  0  0  0
 59 62  1  0  0  0
 60129  1  0  0  0
 60130  1  0  0  0
 60131  1  0  0  0
 61132  1  0  0  0
 61133  1  0  0  0
 61134  1  0  0  0
 62135  1  0  0  0
 62136  1  0  0  0
 62137  1  0  0  0
 63 65  1  0  0  0
 63138  1  0  0  0
 63139  1  0  0  0
 63140  1  0  0  0
 64141  1  0  0  0
 65142  1  0  0  0
 68 80  1  0  0  0
 71 73  1  0  0  0
 71143  1  0  0  0
 71144  1  0  0  0
 71 75  1  0  0  0
 72 74  1  0  0  0
 72 75  1  0  0  0
 72145  1  0  0  0
 72146  1  0  0  0
 73147  1  0  0  0
 73148  1  0  0  0
 73 76  1  0  0  0
 74 76  1  0  0  0
 74149  1  0  0  0
 74150  1  0  0  0
 75 81  1  0  0  0
 75151  1  0  0  0
 76 82  1  0  0  0
 76152  1  0  0  0
 77153  1  0  0  0
 77154  1  0  0  0
 77155  1  0  0  0
 77 81  1  0  0  0
 78156  1  0  0  0
 78157  1  0  0  0
 78158  1  0  0  0
 78 82  1  0  0  0
 79 80  1  0  0  0
 79 81  1  0  0  0
 79159  1  0  0  0
 79160  1  0  0  0
 80161  1  0  0  0
 80162  1  0  0  0
 81163  1  0  0  0
 82 83  1  0  0  0
 82164  1  0  0  0
 83165  1  0  0  0
M  ISO  4   1 100  68 101  80 101  83 100
M  END
> <chiral flag>
0

> <version>
0

> <s_m_source_file>
/data/baiqing/PycharmProjects/Reinvent-master-3.2/result/LINK_invent/BTK/process_docking_weight1_custom_sum_contain_oxygen_bond_distance_aromatic_linkinvent_7_9_3/rearranged_h_0123.sdf

> <i_m_source_file_index>
71

> <r_mmod_Potential_Energy-OPLS-2005>
110.098098754883

> <r_mmod_Stretch_Energy-OPLS-2005>
65.4254913330078

> <r_mmod_Bend_Energy-OPLS-2005>
143.212051391602

> <r_mmod_Torsional_Energy-OPLS-2005>
288.628875732422

> <r_mmod_Improper_Torsional_Energy-OPLS-2005>
4.03751134872437

> <r_mmod_Van_der_Waal_Energy-OPLS-2005>
143.423446655273

> <r_mmod_Electrostatic_Energy-OPLS-2005>
-376.436676025391

> <r_mmod_Solvation_Energy-OPLS-2005>
-188.545867919922

> <b_mmod_Minimization_Converged-OPLS-2005>
0

> <r_mmod_RMS_Derivative-OPLS-2005>
4.19019556045532

$$$$
71
                    3D
 Structure written by MMmdl.
154162  0  0  1  0            999 V2000
  -30.5694  -14.8676   20.4656 C   0  0  0  0  0  0
  -30.4405  -12.5369   19.5071 C   0  0  0  0  0  0
  -29.5233  -12.5294   18.2619 C   0  0  0  0  0  0
  -28.0529  -12.3244   18.6724 C   0  0  0  0  0  0
  -27.6372  -13.2429   19.8521 C   0  0  2  0  0  0
  -28.6765  -13.2280   20.9944 C   0  0  0  0  0  0
  -25.2484  -13.8211   20.5704 C   0  0  0  0  0  0
  -24.1793  -13.0438   20.9215 C   0  0  0  0  0  0
  -24.6405  -11.6931   20.8761 C   0  0  0  0  0  0
  -23.9083  -10.4302   21.0414 C   0  0  0  0  0  0
  -24.3622   -9.4206   21.9187 C   0  0  0  0  0  0
  -23.6292   -8.2243   22.0754 C   0  0  0  0  0  0
  -22.4275   -8.0285   21.3544 C   0  0  0  0  0  0
  -21.9909   -9.0274   20.4659 C   0  0  0  0  0  0
  -22.7249  -10.2148   20.3069 C   0  0  0  0  0  0
  -21.6850   -6.0738   22.5291 C   0  0  0  0  0  0
  -21.4000   -6.5638   23.8227 C   0  0  0  0  0  0
  -21.3663   -5.6791   24.9194 C   0  0  0  0  0  0
  -21.6043   -4.3056   24.7237 C   0  0  0  0  0  0
  -21.8809   -3.8145   23.4359 C   0  0  0  0  0  0
  -21.9188   -4.6964   22.3414 C   0  0  0  0  0  0
  -22.7807  -13.5216   21.1872 C   0  0  0  0  0  0
  -22.1673   -4.2147   21.0995 F   0  0  0  0  0  0
  -21.5635   -3.4546   25.7749 F   0  0  0  0  0  0
  -29.9690  -13.6170   20.4163 N   0  0  0  0  0  0
  -26.2918  -12.9435   20.3285 N   0  0  0  0  0  0
  -25.9331  -11.6567   20.5759 N   0  0  0  0  0  0
  -22.0457  -12.8194   22.0433 N   0  0  0  0  0  0
  -25.4141  -15.1938   20.4144 N   0  0  0  0  0  0
  -31.7515  -14.9629   20.1210 O   0  0  0  0  0  0
  -21.6638   -6.8882   21.4249 O   0  0  0  0  0  0
  -22.3492  -14.5524   20.6734 O   0  0  0  0  0  0
  -24.6398  -31.8505   23.1940 C   0  0  0  0  0  0
  -25.9188  -32.4729   23.8322 C   0  0  1  0  0  0
  -27.2112  -27.1850   20.1661 C   0  0  0  0  0  0
  -25.5966  -33.8533   24.2250 N   0  0  0  0  0  0
  -23.4415  -30.4719   21.5368 C   0  0  2  0  0  0
  -24.8939  -28.9112   20.1095 C   0  0  0  0  0  0
  -22.7552  -29.4580   22.4857 C   0  0  0  0  0  0
  -18.0299  -28.1389   22.8489 C   0  0  0  0  0  0
  -24.1484  -36.7254   23.2639 C   0  0  0  0  0  0
  -25.9946  -30.7422   21.3861 C   0  0  0  0  0  0
  -26.0690  -29.3576   20.7298 C   0  0  0  0  0  0
  -27.2352  -28.5108   20.7412 C   0  0  0  0  0  0
  -26.0223  -26.8360   19.4911 C   0  0  0  0  0  0
  -24.8813  -27.6621   19.4724 C   0  0  0  0  0  0
  -23.6676  -29.8065   20.1540 C   0  0  0  0  0  0
  -25.4115  -36.3049   24.0331 C   0  0  1  0  0  0
  -20.5909  -28.3717   23.1230 C   0  0  2  0  0  0
  -20.6772  -26.9417   22.5398 C   0  0  0  0  0  0
  -19.5752  -26.6384   21.5197 C   0  0  0  0  0  0
  -18.1938  -26.7935   22.1621 C   0  0  0  0  0  0
  -19.1555  -28.8870   23.2861 C   0  0  0  0  0  0
  -18.9471  -30.1461   23.8901 C   0  0  0  0  0  0
  -17.6466  -30.6590   24.0554 C   0  0  0  0  0  0
  -25.9063  -34.9424   23.5086 C   0  0  0  0  0  0
  -16.5359  -29.9087   23.6325 C   0  0  0  0  0  0
  -16.7284  -28.6495   23.0371 C   0  0  0  0  0  0
  -26.4535  -31.6573   25.0729 C   0  0  0  0  0  0
  -25.3726  -31.3748   26.1423 C   0  0  0  0  0  0
  -27.0377  -30.2980   24.6250 C   0  0  0  0  0  0
  -27.6085  -32.4314   25.7516 C   0  0  0  0  0  0
  -27.5576  -37.1788   24.8475 C   0  0  0  0  0  0
  -21.4245  -29.3056   22.3603 N   0  0  0  0  0  0
  -26.4290  -37.3750   23.9411 N   0  0  0  0  0  0
  -24.7112  -31.0403   22.0947 N   0  0  0  0  0  0
  -23.4213  -28.8111   23.2982 O   0  0  0  0  0  0
  -28.2369  -26.1893   20.2288 O   0  0  0  0  0  0
  -26.5626  -34.8905   22.4651 O   0  0  0  0  0  0
  -23.5532  -32.1356   23.7187 O   0  0  0  0  0  0
  -29.4730  -22.7459   21.4388 C   0  0  0  0  0  0
  -29.7407  -21.3202   21.4868 C   0  0  0  0  0  0
  -27.8060  -22.3687   19.8072 C   0  0  0  0  0  0
  -28.4690  -23.3488   20.6130 C   0  0  0  0  0  0
  -29.0276  -20.3331   20.7273 C   0  0  0  0  0  0
  -28.0460  -20.9308   19.8653 C   0  0  0  0  0  0
  -26.0948  -20.5029   18.5240 C   0  0  0  0  0  0
  -29.0660  -18.7205   21.0456 C   0  0  0  0  0  0
  -27.8481  -24.8439   20.8525 C   0  0  0  0  0  0
  -30.0584  -17.5428   20.4341 C   0  0  0  0  0  0
  -29.7939  -16.0211   20.7018 N   0  0  0  0  0  0
  -27.2806  -20.0337   19.1524 O   0  0  0  0  0  0
  -31.4783  -12.6792   19.2021 H   0  0  0  0  0  0
  -30.4119  -11.5728   20.0161 H   0  0  0  0  0  0
  -29.8318  -11.7469   17.5674 H   0  0  0  0  0  0
  -29.6266  -13.4750   17.7262 H   0  0  0  0  0  0
  -27.9346  -11.2793   18.9603 H   0  0  0  0  0  0
  -27.3968  -12.4819   17.8161 H   0  0  0  0  0  0
  -27.6148  -14.2540   19.4459 H   0  0  0  0  0  0
  -28.7386  -12.2410   21.4562 H   0  0  0  0  0  0
  -28.3844  -13.9183   21.7871 H   0  0  0  0  0  0
  -25.2756   -9.5686   22.4769 H   0  0  0  0  0  0
  -24.0001   -7.4635   22.7476 H   0  0  0  0  0  0
  -21.0825   -8.8820   19.8981 H   0  0  0  0  0  0
  -22.3701  -10.9702   19.6193 H   0  0  0  0  0  0
  -21.1978   -7.6140   23.9730 H   0  0  0  0  0  0
  -21.1497   -6.0526   25.9097 H   0  0  0  0  0  0
  -22.0571   -2.7600   23.2878 H   0  0  0  0  0  0
  -22.4092  -11.9876   22.4836 H   0  0  0  0  0  0
  -21.1059  -13.1183   22.2594 H   0  0  0  0  0  0
  -24.6405  -15.8402   20.5246 H   0  0  0  0  0  0
  -26.2572  -15.6432   20.0823 H   0  0  0  0  0  0
  -26.7255  -32.5376   23.1057 H   0  0  0  0  0  0
  -25.0119  -33.9663   25.0401 H   0  0  0  0  0  0
  -22.7410  -31.2962   21.3856 H   0  0  0  0  0  0
  -23.3758  -35.9572   23.3306 H   0  0  0  0  0  0
  -24.3566  -36.8870   22.2050 H   0  0  0  0  0  0
  -23.7216  -37.6450   23.6655 H   0  0  0  0  0  0
  -26.1391  -31.4997   20.6144 H   0  0  0  0  0  0
  -26.8680  -30.7970   22.0241 H   0  0  0  0  0  0
  -28.1305  -28.8443   21.2466 H   0  0  0  0  0  0
  -25.9524  -25.8760   18.9976 H   0  0  0  0  0  0
  -23.9862  -27.3188   18.9719 H   0  0  0  0  0  0
  -23.8021  -30.5835   19.4003 H   0  0  0  0  0  0
  -22.7844  -29.2456   19.8426 H   0  0  0  0  0  0
  -25.1286  -36.1900   25.0825 H   0  0  0  0  0  0
  -21.0022  -28.3308   24.1340 H   0  0  0  0  0  0
  -20.5630  -26.2333   23.3618 H   0  0  0  0  0  0
  -21.6640  -26.7402   22.1206 H   0  0  0  0  0  0
  -19.6903  -25.6288   21.1242 H   0  0  0  0  0  0
  -19.6682  -27.3179   20.6711 H   0  0  0  0  0  0
  -17.4193  -26.6686   21.4036 H   0  0  0  0  0  0
  -18.0348  -26.0074   22.9017 H   0  0  0  0  0  0
  -19.7944  -30.7266   24.2304 H   0  0  0  0  0  0
  -17.5016  -31.6275   24.5143 H   0  0  0  0  0  0
  -15.5363  -30.2984   23.7634 H   0  0  0  0  0  0
  -15.8687  -28.0790   22.7115 H   0  0  0  0  0  0
  -24.5926  -30.7069   25.7749 H   0  0  0  0  0  0
  -24.8883  -32.2918   26.4801 H   0  0  0  0  0  0
  -25.8023  -30.8967   27.0234 H   0  0  0  0  0  0
  -26.2972  -29.6730   24.1249 H   0  0  0  0  0  0
  -27.3999  -29.7254   25.4801 H   0  0  0  0  0  0
  -27.8876  -30.4235   23.9538 H   0  0  0  0  0  0
  -27.2710  -33.3633   26.2068 H   0  0  0  0  0  0
  -28.3925  -32.6849   25.0365 H   0  0  0  0  0  0
  -28.0715  -31.8439   26.5461 H   0  0  0  0  0  0
  -28.2603  -38.0075   24.7498 H   0  0  0  0  0  0
  -28.1066  -36.2607   24.6331 H   0  0  0  0  0  0
  -27.2291  -37.1457   25.8878 H   0  0  0  0  0  0
  -20.9448  -29.8793   21.6801 H   0  0  0  0  0  0
  -26.0175  -38.2824   24.1412 H   0  0  0  0  0  0
  -29.9992  -23.3831   22.1374 H   0  0  0  0  0  0
  -30.4640  -20.9721   22.2133 H   0  0  0  0  0  0
  -27.0083  -22.7532   19.1908 H   0  0  0  0  0  0
  -25.4560  -21.0511   19.2183 H   0  0  0  0  0  0
  -25.5185  -19.6522   18.1580 H   0  0  0  0  0  0
  -26.3278  -21.1406   17.6714 H   0  0  0  0  0  0
  -28.0498  -18.3717   20.8652 H   0  0  0  0  0  0
  -29.1598  -18.6573   22.1302 H   0  0  0  0  0  0
  -27.9532  -25.0140   21.9242 H   0  0  0  0  0  0
  -26.7746  -24.7017   20.7340 H   0  0  0  0  0  0
  -31.0799  -17.7629   20.7483 H   0  0  0  0  0  0
  -30.0604  -17.6571   19.3502 H   0  0  0  0  0  0
  -28.8484  -15.8093   20.9808 H   0  0  0  0  0  0
  1 25  1  0  0  0
  1 30  2  0  0  0
  1 81  1  0  0  0
  2  3  1  0  0  0
  2 25  1  0  0  0
  2 83  1  0  0  0
  2 84  1  0  0  0
  3  4  1  0  0  0
  3 85  1  0  0  0
  3 86  1  0  0  0
  4  5  1  0  0  0
  4 87  1  0  0  0
  4 88  1  0  0  0
  5  6  1  0  0  0
  5 26  1  0  0  0
  5 89  1  0  0  0
  6 25  1  0  0  0
  6 90  1  0  0  0
  6 91  1  0  0  0
  7  8  2  0  0  0
  7 26  1  0  0  0
  7 29  1  0  0  0
  8  9  1  0  0  0
  8 22  1  0  0  0
  9 10  1  0  0  0
  9 27  2  0  0  0
 10 11  2  0  0  0
 10 15  1  0  0  0
 11 12  1  0  0  0
 11 92  1  0  0  0
 12 13  2  0  0  0
 12 93  1  0  0  0
 13 14  1  0  0  0
 13 31  1  0  0  0
 14 15  2  0  0  0
 14 94  1  0  0  0
 15 95  1  0  0  0
 16 17  2  0  0  0
 16 21  1  0  0  0
 16 31  1  0  0  0
 17 18  1  0  0  0
 17 96  1  0  0  0
 18 19  2  0  0  0
 18 97  1  0  0  0
 19 20  1  0  0  0
 19 24  1  0  0  0
 20 21  2  0  0  0
 20 98  1  0  0  0
 21 23  1  0  0  0
 22 28  1  0  0  0
 22 32  2  0  0  0
 26 27  1  0  0  0
 28 99  1  0  0  0
 28100  1  0  0  0
 29101  1  0  0  0
 29102  1  0  0  0
 33 34  1  0  0  0
 33 66  1  0  0  0
 33 70  2  0  0  0
 34 36  1  0  0  0
 34 59  1  0  0  0
 34103  1  0  0  0
 35 44  2  0  0  0
 35 45  1  0  0  0
 35 68  1  0  0  0
 36 56  1  0  0  0
 36104  1  0  0  0
 37 39  1  0  0  0
 37 47  1  0  0  0
 37 66  1  0  0  0
 37105  1  0  0  0
 38 43  2  0  0  0
 38 46  1  0  0  0
 38 47  1  0  0  0
 39 64  1  0  0  0
 39 67  2  0  0  0
 40 52  1  0  0  0
 40 53  2  0  0  0
 40 58  1  0  0  0
 41106  1  0  0  0
 41107  1  0  0  0
 41108  1  0  0  0
 41 48  1  0  0  0
 42 43  1  0  0  0
 42 66  1  0  0  0
 42109  1  0  0  0
 42110  1  0  0  0
 43 44  1  0  0  0
 44111  1  0  0  0
 45 46  2  0  0  0
 45112  1  0  0  0
 46113  1  0  0  0
 47114  1  0  0  0
 47115  1  0  0  0
 48 56  1  0  0  0
 48 65  1  0  0  0
 48116  1  0  0  0
 49 50  1  0  0  0
 49 53  1  0  0  0
 49 64  1  0  0  0
 49117  1  0  0  0
 50 51  1  0  0  0
 50118  1  0  0  0
 50119  1  0  0  0
 51 52  1  0  0  0
 51120  1  0  0  0
 51121  1  0  0  0
 52122  1  0  0  0
 52123  1  0  0  0
 53 54  1  0  0  0
 54 55  2  0  0  0
 54124  1  0  0  0
 55 57  1  0  0  0
 55125  1  0  0  0
 56 69  2  0  0  0
 57 58  2  0  0  0
 57126  1  0  0  0
 58127  1  0  0  0
 59 60  1  0  0  0
 59 61  1  0  0  0
 59 62  1  0  0  0
 60128  1  0  0  0
 60129  1  0  0  0
 60130  1  0  0  0
 61131  1  0  0  0
 61132  1  0  0  0
 61133  1  0  0  0
 62134  1  0  0  0
 62135  1  0  0  0
 62136  1  0  0  0
 63 65  1  0  0  0
 63137  1  0  0  0
 63138  1  0  0  0
 63139  1  0  0  0
 64140  1  0  0  0
 65141  1  0  0  0
 68 79  1  0  0  0
 71 72  2  0  0  0
 71 74  1  0  0  0
 71142  1  0  0  0
 72 75  1  0  0  0
 72143  1  0  0  0
 73 74  2  0  0  0
 73 76  1  0  0  0
 73144  1  0  0  0
 74 79  1  0  0  0
 75 76  2  0  0  0
 75 78  1  0  0  0
 76 82  1  0  0  0
 77 82  1  0  0  0
 77145  1  0  0  0
 77146  1  0  0  0
 77147  1  0  0  0
 78 80  1  0  0  0
 78148  1  0  0  0
 78149  1  0  0  0
 79150  1  0  0  0
 79151  1  0  0  0
 80 81  1  0  0  0
 80152  1  0  0  0
 80153  1  0  0  0
 81154  1  0  0  0
M  ISO  4   1 100  68 101  79 101  81 100
M  END
> <chiral flag>
0

> <version>
0

> <s_m_source_file>
/data/baiqing/PycharmProjects/Reinvent-master-3.2/result/LINK_invent/BTK/process_docking_weight1_custom_sum_contain_oxygen_bond_distance_aromatic_linkinvent_7_9_3/rearranged_h_0123.sdf

> <i_m_source_file_index>
72

> <r_mmod_Potential_Energy-OPLS-2005>
373.744415283203

> <r_mmod_Stretch_Energy-OPLS-2005>
189.966278076172

> <r_mmod_Bend_Energy-OPLS-2005>
230.771224975586

> <r_mmod_Torsional_Energy-OPLS-2005>
249.987899780273

> <r_mmod_Improper_Torsional_Energy-OPLS-2005>
10.559624671936

> <r_mmod_Van_der_Waal_Energy-OPLS-2005>
140.260757446289

> <r_mmod_Electrostatic_Energy-OPLS-2005>
-382.054260253906

> <r_mmod_Solvation_Energy-OPLS-2005>
-216.247589111328

> <b_mmod_Minimization_Converged-OPLS-2005>
0

> <r_mmod_RMS_Derivative-OPLS-2005>
2.03438329696655

$$$$
72
                    3D
 Structure written by MMmdl.
169177  0  0  1  0            999 V2000
  -30.4939  -14.9469   20.4119 C   0  0  0  0  0  0
  -30.4250  -12.5650   19.5183 C   0  0  0  0  0  0
  -29.5232  -12.5494   18.2612 C   0  0  0  0  0  0
  -28.0550  -12.3212   18.6689 C   0  0  0  0  0  0
  -27.6286  -13.2419   19.8427 C   0  0  2  0  0  0
  -28.6597  -13.2477   20.9911 C   0  0  0  0  0  0
  -25.2451  -13.8147   20.5647 C   0  0  0  0  0  0
  -24.1786  -13.0403   20.9190 C   0  0  0  0  0  0
  -24.6386  -11.6882   20.8708 C   0  0  0  0  0  0
  -23.9065  -10.4264   21.0340 C   0  0  0  0  0  0
  -24.3619   -9.4205   21.9133 C   0  0  0  0  0  0
  -23.6294   -8.2241   22.0742 C   0  0  0  0  0  0
  -22.4289   -8.0273   21.3547 C   0  0  0  0  0  0
  -21.9906   -9.0219   20.4638 C   0  0  0  0  0  0
  -22.7222  -10.2104   20.3010 C   0  0  0  0  0  0
  -21.6868   -6.0714   22.5290 C   0  0  0  0  0  0
  -21.4013   -6.5626   23.8206 C   0  0  0  0  0  0
  -21.3686   -5.6784   24.9193 C   0  0  0  0  0  0
  -21.6074   -4.3044   24.7231 C   0  0  0  0  0  0
  -21.8806   -3.8135   23.4362 C   0  0  0  0  0  0
  -21.9190   -4.6939   22.3412 C   0  0  0  0  0  0
  -22.7821  -13.5185   21.1890 C   0  0  0  0  0  0
  -22.1659   -4.2112   21.0997 F   0  0  0  0  0  0
  -21.5648   -3.4536   25.7743 F   0  0  0  0  0  0
  -29.9456  -13.6624   20.4139 N   0  0  0  0  0  0
  -26.2861  -12.9382   20.3176 N   0  0  0  0  0  0
  -25.9302  -11.6507   20.5645 N   0  0  0  0  0  0
  -22.0482  -12.8164   22.0436 N   0  0  0  0  0  0
  -25.4102  -15.1889   20.4084 N   0  0  0  0  0  0
  -31.6669  -15.0604   20.0403 O   0  0  0  0  0  0
  -21.6673   -6.8859   21.4241 O   0  0  0  0  0  0
  -22.3515  -14.5513   20.6771 O   0  0  0  0  0  0
  -24.6454  -31.8439   23.1852 C   0  0  0  0  0  0
  -25.9212  -32.4688   23.8266 C   0  0  1  0  0  0
  -27.2168  -27.1372   20.1682 C   0  0  0  0  0  0
  -25.5949  -33.8501   24.2185 N   0  0  0  0  0  0
  -23.4497  -30.4611   21.5297 C   0  0  2  0  0  0
  -24.8985  -28.8789   20.1159 C   0  0  0  0  0  0
  -22.7579  -29.4548   22.4838 C   0  0  0  0  0  0
  -18.0316  -28.1411   22.8468 C   0  0  0  0  0  0
  -24.1488  -36.7255   23.2641 C   0  0  0  0  0  0
  -26.0037  -30.7194   21.3808 C   0  0  0  0  0  0
  -26.0761  -29.3270   20.7302 C   0  0  0  0  0  0
  -27.2409  -28.4747   20.7310 C   0  0  0  0  0  0
  -26.0149  -26.7792   19.5270 C   0  0  0  0  0  0
  -24.8797  -27.6182   19.4982 C   0  0  0  0  0  0
  -23.6776  -29.7833   20.1521 C   0  0  0  0  0  0
  -25.4120  -36.3028   24.0315 C   0  0  1  0  0  0
  -20.5927  -28.3740   23.1224 C   0  0  2  0  0  0
  -20.6796  -26.9441   22.5398 C   0  0  0  0  0  0
  -19.5770  -26.6392   21.5208 C   0  0  0  0  0  0
  -18.1953  -26.7952   22.1616 C   0  0  0  0  0  0
  -19.1569  -28.8889   23.2842 C   0  0  0  0  0  0
  -18.9485  -30.1483   23.8881 C   0  0  0  0  0  0
  -17.6477  -30.6602   24.0571 C   0  0  0  0  0  0
  -25.9076  -34.9399   23.5053 C   0  0  0  0  0  0
  -16.5367  -29.9099   23.6331 C   0  0  0  0  0  0
  -16.7296  -28.6516   23.0345 C   0  0  0  0  0  0
  -26.4530  -31.6555   25.0707 C   0  0  0  0  0  0
  -25.3708  -31.3741   26.1393 C   0  0  0  0  0  0
  -27.0396  -30.2955   24.6278 C   0  0  0  0  0  0
  -27.6059  -32.4317   25.7499 C   0  0  0  0  0  0
  -27.5576  -37.1781   24.8464 C   0  0  0  0  0  0
  -21.4265  -29.3061   22.3588 N   0  0  0  0  0  0
  -26.4274  -37.3742   23.9406 N   0  0  0  0  0  0
  -24.7185  -31.0306   22.0872 N   0  0  0  0  0  0
  -23.4212  -28.8109   23.3007 O   0  0  0  0  0  0
  -28.2825  -26.1736   20.1673 O   0  0  0  0  0  0
  -26.5664  -34.8906   22.4644 O   0  0  0  0  0  0
  -23.5560  -32.1303   23.7067 O   0  0  0  0  0  0
  -27.6842  -22.8491   18.7815 C   0  0  0  0  0  0
  -27.9502  -20.3135   19.1214 C   0  0  0  0  0  0
  -26.9561  -21.5031   19.0009 C   0  0  2  0  0  0
  -28.6212  -23.2583   19.9380 C   0  0  2  0  0  0
  -29.2490  -21.8570   20.6776 C   0  0  1  0  0  0
  -25.9174  -21.2719   17.8909 C   0  0  0  0  0  0
  -28.1084  -24.7069   20.6606 C   0  0  0  0  0  0
  -29.4330  -22.0820   22.1952 C   0  0  0  0  0  0
  -30.7066  -22.8686   22.5592 C   0  0  0  0  0  0
  -29.5640  -17.5733   20.0463 C   0  0  0  0  0  0
  -29.4130  -19.0311   20.8997 C   0  0  0  0  0  0
  -31.9900  -22.0297   22.4097 C   0  0  0  0  0  0
  -29.6685  -16.0900   20.6372 N   0  0  0  0  0  0
  -28.7117  -20.3887   20.3888 N   0  3  2  0  0  0
  -33.0985  -22.7453   22.9113 O   0  0  0  0  0  0
  -31.4712  -12.6850   19.2355 H   0  0  0  0  0  0
  -30.3699  -11.5982   20.0234 H   0  0  0  0  0  0
  -29.8449  -11.7654   17.5751 H   0  0  0  0  0  0
  -29.6281  -13.4947   17.7222 H   0  0  0  0  0  0
  -27.9625  -11.2787   18.9778 H   0  0  0  0  0  0
  -27.3958  -12.4499   17.8091 H   0  0  0  0  0  0
  -27.6023  -14.2512   19.4342 H   0  0  0  0  0  0
  -28.7309  -12.2652   21.4604 H   0  0  0  0  0  0
  -28.3547  -13.9403   21.7769 H   0  0  0  0  0  0
  -25.2706   -9.5729   22.4747 H   0  0  0  0  0  0
  -24.0019   -7.4651   22.7462 H   0  0  0  0  0  0
  -21.0848   -8.8691   19.8951 H   0  0  0  0  0  0
  -22.3597  -10.9638   19.6154 H   0  0  0  0  0  0
  -21.1991   -7.6125   23.9694 H   0  0  0  0  0  0
  -21.1539   -6.0530   25.9090 H   0  0  0  0  0  0
  -22.0555   -2.7585   23.2864 H   0  0  0  0  0  0
  -22.4086  -11.9833   22.4849 H   0  0  0  0  0  0
  -21.1095  -13.1153   22.2632 H   0  0  0  0  0  0
  -24.6263  -15.8241   20.5044 H   0  0  0  0  0  0
  -26.2412  -15.6302   20.0394 H   0  0  0  0  0  0
  -26.7289  -32.5313   23.1011 H   0  0  0  0  0  0
  -25.0070  -33.9598   25.0310 H   0  0  0  0  0  0
  -22.7529  -31.2859   21.3690 H   0  0  0  0  0  0
  -23.3750  -35.9586   23.3283 H   0  0  0  0  0  0
  -24.3573  -36.8910   22.2058 H   0  0  0  0  0  0
  -23.7239  -37.6444   23.6698 H   0  0  0  0  0  0
  -26.1549  -31.4671   20.6010 H   0  0  0  0  0  0
  -26.8765  -30.7774   22.0192 H   0  0  0  0  0  0
  -28.1468  -28.8154   21.2137 H   0  0  0  0  0  0
  -25.9451  -25.8094   19.0580 H   0  0  0  0  0  0
  -23.9817  -27.2666   19.0091 H   0  0  0  0  0  0
  -23.8205  -30.5531   19.3929 H   0  0  0  0  0  0
  -22.7930  -29.2247   19.8403 H   0  0  0  0  0  0
  -25.1309  -36.1846   25.0804 H   0  0  0  0  0  0
  -21.0029  -28.3340   24.1341 H   0  0  0  0  0  0
  -20.5689  -26.2361   23.3627 H   0  0  0  0  0  0
  -21.6662  -26.7449   22.1197 H   0  0  0  0  0  0
  -19.6934  -25.6296   21.1259 H   0  0  0  0  0  0
  -19.6713  -27.3184   20.6727 H   0  0  0  0  0  0
  -17.4226  -26.6700   21.4016 H   0  0  0  0  0  0
  -18.0347  -26.0106   22.9020 H   0  0  0  0  0  0
  -19.7956  -30.7300   24.2247 H   0  0  0  0  0  0
  -17.5032  -31.6268   24.5190 H   0  0  0  0  0  0
  -15.5372  -30.2994   23.7663 H   0  0  0  0  0  0
  -15.8699  -28.0838   22.7060 H   0  0  0  0  0  0
  -24.5894  -30.7090   25.7701 H   0  0  0  0  0  0
  -24.8885  -32.2920   26.4766 H   0  0  0  0  0  0
  -25.7977  -30.8943   27.0208 H   0  0  0  0  0  0
  -26.3006  -29.6664   24.1304 H   0  0  0  0  0  0
  -27.4034  -29.7267   25.4844 H   0  0  0  0  0  0
  -27.8902  -30.4192   23.9572 H   0  0  0  0  0  0
  -27.2655  -33.3627   26.2050 H   0  0  0  0  0  0
  -28.3895  -32.6869   25.0350 H   0  0  0  0  0  0
  -28.0715  -31.8465   26.5440 H   0  0  0  0  0  0
  -28.2575  -38.0090   24.7513 H   0  0  0  0  0  0
  -28.1082  -36.2621   24.6283 H   0  0  0  0  0  0
  -27.2297  -37.1415   25.8864 H   0  0  0  0  0  0
  -20.9486  -29.8759   21.6750 H   0  0  0  0  0  0
  -26.0144  -38.2807   24.1417 H   0  0  0  0  0  0
  -26.9520  -23.6379   18.6018 H   0  0  0  0  0  0
  -28.2689  -22.7803   17.8624 H   0  0  0  0  0  0
  -28.6249  -20.2713   18.2658 H   0  0  0  0  0  0
  -27.3730  -19.3878   19.1151 H   0  0  0  0  0  0
  -26.3910  -21.5744   19.9323 H   0  0  0  0  0  0
  -29.5129  -23.6358   19.4357 H   0  0  0  0  0  0
  -30.2479  -21.7710   20.2447 H   0  0  0  0  0  0
  -26.3849  -21.2180   16.9073 H   0  0  0  0  0  0
  -25.1857  -22.0820   17.8701 H   0  0  0  0  0  0
  -25.3591  -20.3471   18.0441 H   0  0  0  0  0  0
  -28.6308  -24.7480   21.6144 H   0  0  0  0  0  0
  -27.0660  -24.5850   20.9621 H   0  0  0  0  0  0
  -29.4766  -21.1335   22.7245 H   0  0  0  0  0  0
  -28.5541  -22.5816   22.6085 H   0  0  0  0  0  0
  -30.6224  -23.1837   23.6007 H   0  0  0  0  0  0
  -30.7715  -23.7804   21.9647 H   0  0  0  0  0  0
  -30.3906  -17.7059   19.3484 H   0  0  0  0  0  0
  -28.6931  -17.5276   19.3962 H   0  0  0  0  0  0
  -30.4231  -19.3044   21.1989 H   0  0  0  0  0  0
  -28.9146  -18.7891   21.8399 H   0  0  0  0  0  0
  -32.1859  -21.7681   21.3685 H   0  0  0  0  0  0
  -31.8899  -21.0931   22.9602 H   0  0  0  0  0  0
  -28.8013  -15.8049   21.0700 H   0  0  0  0  0  0
  -27.9318  -20.3881   21.0287 H   0  0  0  0  0  0
  -33.8722  -22.2003   22.7809 H   0  0  0  0  0  0
  1 25  1  0  0  0
  1 30  2  0  0  0
  1 83  1  0  0  0
  2  3  1  0  0  0
  2 25  1  0  0  0
  2 86  1  0  0  0
  2 87  1  0  0  0
  3  4  1  0  0  0
  3 88  1  0  0  0
  3 89  1  0  0  0
  4  5  1  0  0  0
  4 90  1  0  0  0
  4 91  1  0  0  0
  5  6  1  0  0  0
  5 26  1  0  0  0
  5 92  1  0  0  0
  6 25  1  0  0  0
  6 93  1  0  0  0
  6 94  1  0  0  0
  7  8  2  0  0  0
  7 26  1  0  0  0
  7 29  1  0  0  0
  8  9  1  0  0  0
  8 22  1  0  0  0
  9 10  1  0  0  0
  9 27  2  0  0  0
 10 11  2  0  0  0
 10 15  1  0  0  0
 11 12  1  0  0  0
 11 95  1  0  0  0
 12 13  2  0  0  0
 12 96  1  0  0  0
 13 14  1  0  0  0
 13 31  1  0  0  0
 14 15  2  0  0  0
 14 97  1  0  0  0
 15 98  1  0  0  0
 16 17  2  0  0  0
 16 21  1  0  0  0
 16 31  1  0  0  0
 17 18  1  0  0  0
 17 99  1  0  0  0
 18 19  2  0  0  0
 18100  1  0  0  0
 19 20  1  0  0  0
 19 24  1  0  0  0
 20 21  2  0  0  0
 20101  1  0  0  0
 21 23  1  0  0  0
 22 28  1  0  0  0
 22 32  2  0  0  0
 26 27  1  0  0  0
 28102  1  0  0  0
 28103  1  0  0  0
 29104  1  0  0  0
 29105  1  0  0  0
 33 34  1  0  0  0
 33 66  1  0  0  0
 33 70  2  0  0  0
 34 36  1  0  0  0
 34 59  1  0  0  0
 34106  1  0  0  0
 35 44  2  0  0  0
 35 45  1  0  0  0
 35 68  1  0  0  0
 36 56  1  0  0  0
 36107  1  0  0  0
 37 39  1  0  0  0
 37 47  1  0  0  0
 37 66  1  0  0  0
 37108  1  0  0  0
 38 43  2  0  0  0
 38 46  1  0  0  0
 38 47  1  0  0  0
 39 64  1  0  0  0
 39 67  2  0  0  0
 40 52  1  0  0  0
 40 53  2  0  0  0
 40 58  1  0  0  0
 41109  1  0  0  0
 41110  1  0  0  0
 41111  1  0  0  0
 41 48  1  0  0  0
 42 43  1  0  0  0
 42 66  1  0  0  0
 42112  1  0  0  0
 42113  1  0  0  0
 43 44  1  0  0  0
 44114  1  0  0  0
 45 46  2  0  0  0
 45115  1  0  0  0
 46116  1  0  0  0
 47117  1  0  0  0
 47118  1  0  0  0
 48 56  1  0  0  0
 48 65  1  0  0  0
 48119  1  0  0  0
 49 50  1  0  0  0
 49 53  1  0  0  0
 49 64  1  0  0  0
 49120  1  0  0  0
 50 51  1  0  0  0
 50121  1  0  0  0
 50122  1  0  0  0
 51 52  1  0  0  0
 51123  1  0  0  0
 51124  1  0  0  0
 52125  1  0  0  0
 52126  1  0  0  0
 53 54  1  0  0  0
 54 55  2  0  0  0
 54127  1  0  0  0
 55 57  1  0  0  0
 55128  1  0  0  0
 56 69  2  0  0  0
 57 58  2  0  0  0
 57129  1  0  0  0
 58130  1  0  0  0
 59 60  1  0  0  0
 59 61  1  0  0  0
 59 62  1  0  0  0
 60131  1  0  0  0
 60132  1  0  0  0
 60133  1  0  0  0
 61134  1  0  0  0
 61135  1  0  0  0
 61136  1  0  0  0
 62137  1  0  0  0
 62138  1  0  0  0
 62139  1  0  0  0
 63 65  1  0  0  0
 63140  1  0  0  0
 63141  1  0  0  0
 63142  1  0  0  0
 64143  1  0  0  0
 65144  1  0  0  0
 68 77  1  0  0  0
 71 73  1  0  0  0
 71 74  1  0  0  0
 71145  1  0  0  0
 71146  1  0  0  0
 72 73  1  0  0  0
 72 84  1  0  0  0
 72147  1  0  0  0
 72148  1  0  0  0
 73 76  1  0  0  0
 73149  1  0  0  0
 74 75  1  0  0  0
 74 77  1  0  0  0
 74150  1  0  0  0
 75 78  1  0  0  0
 75 84  1  0  0  0
 75151  1  0  0  0
 76152  1  0  0  0
 76153  1  0  0  0
 76154  1  0  0  0
 77155  1  0  0  0
 77156  1  0  0  0
 78 79  1  0  0  0
 78157  1  0  0  0
 78158  1  0  0  0
 79 82  1  0  0  0
 79159  1  0  0  0
 79160  1  0  0  0
 80 81  1  0  0  0
 80 83  1  0  0  0
 80161  1  0  0  0
 80162  1  0  0  0
 81163  1  0  0  0
 81164  1  0  0  0
 81 84  1  0  0  0
 82 85  1  0  0  0
 82165  1  0  0  0
 82166  1  0  0  0
 83167  1  0  0  0
 84168  1  0  0  0
 85169  1  0  0  0
M  CHG  1  84   1
M  ISO  4   1 100  68 101  77 101  83 100
M  END
> <chiral flag>
0

> <version>
0

> <s_m_source_file>
/data/baiqing/PycharmProjects/Reinvent-master-3.2/result/LINK_invent/BTK/process_docking_weight1_custom_sum_contain_oxygen_bond_distance_aromatic_linkinvent_7_9_3/rearranged_h_0123.sdf

> <i_m_source_file_index>
73

> <r_mmod_Potential_Energy-OPLS-2005>
534.04833984375

> <r_mmod_Stretch_Energy-OPLS-2005>
290.997283935547

> <r_mmod_Bend_Energy-OPLS-2005>
326.971069335938

> <r_mmod_Torsional_Energy-OPLS-2005>
336.691558837891

> <r_mmod_Improper_Torsional_Energy-OPLS-2005>
5.64306354522705

> <r_mmod_Van_der_Waal_Energy-OPLS-2005>
107.456886291504

> <r_mmod_Electrostatic_Energy-OPLS-2005>
-230.863052368164

> <r_mmod_Solvation_Energy-OPLS-2005>
-492.497161865234

> <b_mmod_Minimization_Converged-OPLS-2005>
0

> <r_mmod_RMS_Derivative-OPLS-2005>
4.40812826156616

$$$$
73
                    3D
 Structure written by MMmdl.
152160  0  0  1  0            999 V2000
  -30.6317  -14.6375   20.4949 C   0  0  0  0  0  0
  -30.4313  -12.3928   19.4514 C   0  0  0  0  0  0
  -29.5027  -12.5010   18.2221 C   0  0  0  0  0  0
  -28.0260  -12.3406   18.6353 C   0  0  0  0  0  0
  -27.6489  -13.2179   19.8590 C   0  0  2  0  0  0
  -28.6934  -13.0891   20.9898 C   0  0  0  0  0  0
  -25.2540  -13.8173   20.5678 C   0  0  0  0  0  0
  -24.1818  -13.0437   20.9203 C   0  0  0  0  0  0
  -24.6388  -11.6910   20.8750 C   0  0  0  0  0  0
  -23.9061  -10.4294   21.0417 C   0  0  0  0  0  0
  -24.3616   -9.4207   21.9189 C   0  0  0  0  0  0
  -23.6292   -8.2243   22.0756 C   0  0  0  0  0  0
  -22.4274   -8.0280   21.3546 C   0  0  0  0  0  0
  -21.9911   -9.0255   20.4650 C   0  0  0  0  0  0
  -22.7238  -10.2134   20.3061 C   0  0  0  0  0  0
  -21.6852   -6.0736   22.5281 C   0  0  0  0  0  0
  -21.4014   -6.5642   23.8213 C   0  0  0  0  0  0
  -21.3657   -5.6794   24.9175 C   0  0  0  0  0  0
  -21.6043   -4.3057   24.7227 C   0  0  0  0  0  0
  -21.8819   -3.8148   23.4348 C   0  0  0  0  0  0
  -21.9194   -4.6964   22.3404 C   0  0  0  0  0  0
  -22.7838  -13.5228   21.1861 C   0  0  0  0  0  0
  -22.1660   -4.2148   21.0981 F   0  0  0  0  0  0
  -21.5627   -3.4542   25.7742 F   0  0  0  0  0  0
  -30.0051  -13.4229   20.4192 N   0  0  0  0  0  0
  -26.2964  -12.9356   20.3305 N   0  0  0  0  0  0
  -25.9315  -11.6511   20.5762 N   0  0  0  0  0  0
  -22.0481  -12.8218   22.0415 N   0  0  0  0  0  0
  -25.4248  -15.1891   20.4061 N   0  0  0  0  0  0
  -31.8046  -14.7775   20.1379 O   0  0  0  0  0  0
  -21.6636   -6.8878   21.4243 O   0  0  0  0  0  0
  -22.3533  -14.5538   20.6711 O   0  0  0  0  0  0
  -24.6232  -31.8604   23.2018 C   0  0  0  0  0  0
  -25.9090  -32.4783   23.8342 C   0  0  1  0  0  0
  -27.2272  -27.3288   20.1255 C   0  0  0  0  0  0
  -25.5919  -33.8586   24.2274 N   0  0  0  0  0  0
  -23.4167  -30.4818   21.5436 C   0  0  2  0  0  0
  -24.8631  -28.9288   20.1157 C   0  0  0  0  0  0
  -22.7454  -29.4627   22.4940 C   0  0  0  0  0  0
  -18.0285  -28.1385   22.8493 C   0  0  0  0  0  0
  -24.1487  -36.7291   23.2638 C   0  0  0  0  0  0
  -25.9536  -30.7934   21.3704 C   0  0  0  0  0  0
  -26.0275  -29.4172   20.7218 C   0  0  0  0  0  0
  -27.2105  -28.6262   20.7207 C   0  0  0  0  0  0
  -26.0437  -26.8839   19.4978 C   0  0  0  0  0  0
  -24.8709  -27.6663   19.4978 C   0  0  0  0  0  0
  -23.6313  -29.8101   20.1603 C   0  0  0  0  0  0
  -25.4114  -36.3086   24.0331 C   0  0  1  0  0  0
  -20.5880  -28.3688   23.1290 C   0  0  2  0  0  0
  -20.6773  -26.9411   22.5416 C   0  0  0  0  0  0
  -19.5750  -26.6386   21.5216 C   0  0  0  0  0  0
  -18.1930  -26.7932   22.1626 C   0  0  0  0  0  0
  -19.1535  -28.8851   23.2891 C   0  0  0  0  0  0
  -18.9461  -30.1455   23.8905 C   0  0  0  0  0  0
  -17.6461  -30.6591   24.0567 C   0  0  0  0  0  0
  -25.9050  -34.9458   23.5102 C   0  0  0  0  0  0
  -16.5353  -29.9093   23.6329 C   0  0  0  0  0  0
  -16.7272  -28.6509   23.0353 C   0  0  0  0  0  0
  -26.4486  -31.6594   25.0709 C   0  0  0  0  0  0
  -25.3730  -31.3731   26.1442 C   0  0  0  0  0  0
  -27.0319  -30.3022   24.6144 C   0  0  0  0  0  0
  -27.6042  -32.4329   25.7488 C   0  0  0  0  0  0
  -27.5579  -37.1798   24.8467 C   0  0  0  0  0  0
  -21.4170  -29.3043   22.3680 N   0  0  0  0  0  0
  -26.4291  -37.3780   23.9411 N   0  0  0  0  0  0
  -24.6832  -31.0625   22.0961 N   0  0  0  0  0  0
  -23.4182  -28.8172   23.3019 O   0  0  0  0  0  0
  -28.3794  -26.5365   20.1135 O   0  0  0  0  0  0
  -26.5615  -34.8926   22.4666 O   0  0  0  0  0  0
  -23.5402  -32.1391   23.7358 O   0  0  0  0  0  0
  -28.9492  -22.9390   19.1560 C   0  0  0  0  0  0
  -28.9089  -24.3595   19.0801 C   0  0  0  0  0  0
  -27.9537  -23.1245   21.3175 C   0  0  0  0  0  0
  -28.4597  -22.2663   20.3026 C   0  0  0  0  0  0
  -28.3646  -25.1245   20.1361 C   0  0  0  0  0  0
  -28.2655  -20.6976   20.3574 C   0  0  0  0  0  0
  -30.2344  -17.1878   20.7200 C   0  0  0  0  0  0
  -29.0546  -18.2531   20.5748 C   0  0  0  0  0  0
  -27.9082  -24.4923   21.2483 N   0  0  0  0  0  0
  -29.8510  -15.7280   20.7777 N   0  0  0  0  0  0
  -29.4224  -19.7327   20.5475 N   0  3  0  0  0  0
  -31.4725  -12.5153   19.1474 H   0  0  0  0  0  0
  -30.3656  -11.4008   19.9006 H   0  0  0  0  0  0
  -29.7672  -11.7459   17.4807 H   0  0  0  0  0  0
  -29.6439  -13.4681   17.7367 H   0  0  0  0  0  0
  -27.8624  -11.2884   18.8710 H   0  0  0  0  0  0
  -27.3706  -12.5677   17.7934 H   0  0  0  0  0  0
  -27.6628  -14.2500   19.5085 H   0  0  0  0  0  0
  -28.7053  -12.0741   21.3898 H   0  0  0  0  0  0
  -28.4439  -13.7407   21.8289 H   0  0  0  0  0  0
  -25.2763   -9.5678   22.4760 H   0  0  0  0  0  0
  -24.0003   -7.4633   22.7472 H   0  0  0  0  0  0
  -21.0843   -8.8774   19.8954 H   0  0  0  0  0  0
  -22.3701  -10.9673   19.6169 H   0  0  0  0  0  0
  -21.2002   -7.6150   23.9714 H   0  0  0  0  0  0
  -21.1480   -6.0526   25.9077 H   0  0  0  0  0  0
  -22.0599   -2.7611   23.2848 H   0  0  0  0  0  0
  -22.4100  -11.9873   22.4789 H   0  0  0  0  0  0
  -21.1100  -13.1242   22.2630 H   0  0  0  0  0  0
  -24.6512  -15.8381   20.5015 H   0  0  0  0  0  0
  -26.2584  -15.6203   20.0294 H   0  0  0  0  0  0
  -26.7157  -32.5461   23.1093 H   0  0  0  0  0  0
  -25.0089  -33.9741   25.0434 H   0  0  0  0  0  0
  -22.7104  -31.3017   21.3981 H   0  0  0  0  0  0
  -23.3754  -35.9619   23.3307 H   0  0  0  0  0  0
  -24.3575  -36.8899   22.2049 H   0  0  0  0  0  0
  -23.7239  -37.6495   23.6654 H   0  0  0  0  0  0
  -26.0798  -31.5527   20.5971 H   0  0  0  0  0  0
  -26.8362  -30.8474   21.9965 H   0  0  0  0  0  0
  -28.1091  -28.9995   21.1915 H   0  0  0  0  0  0
  -26.0180  -25.9190   19.0112 H   0  0  0  0  0  0
  -23.9776  -27.2867   19.0207 H   0  0  0  0  0  0
  -23.7521  -30.5836   19.4011 H   0  0  0  0  0  0
  -22.7515  -29.2384   19.8588 H   0  0  0  0  0  0
  -25.1298  -36.1933   25.0824 H   0  0  0  0  0  0
  -20.9984  -28.3259   24.1405 H   0  0  0  0  0  0
  -20.5675  -26.2295   23.3612 H   0  0  0  0  0  0
  -21.6644  -26.7449   22.1205 H   0  0  0  0  0  0
  -19.6919  -25.6299   21.1242 H   0  0  0  0  0  0
  -19.6690  -27.3199   20.6746 H   0  0  0  0  0  0
  -17.4202  -26.6684   21.4025 H   0  0  0  0  0  0
  -18.0332  -26.0070   22.9017 H   0  0  0  0  0  0
  -19.7939  -30.7271   24.2275 H   0  0  0  0  0  0
  -17.5020  -31.6272   24.5167 H   0  0  0  0  0  0
  -15.5356  -30.3001   23.7650 H   0  0  0  0  0  0
  -15.8671  -28.0834   22.7063 H   0  0  0  0  0  0
  -24.5911  -30.7073   25.7776 H   0  0  0  0  0  0
  -24.8921  -32.2897   26.4865 H   0  0  0  0  0  0
  -25.8064  -30.8919   27.0218 H   0  0  0  0  0  0
  -26.2878  -29.6786   24.1173 H   0  0  0  0  0  0
  -27.4031  -29.7264   25.4630 H   0  0  0  0  0  0
  -27.8746  -30.4317   23.9348 H   0  0  0  0  0  0
  -27.2650  -33.3630   26.2063 H   0  0  0  0  0  0
  -28.3857  -32.6885   25.0322 H   0  0  0  0  0  0
  -28.0707  -31.8457   26.5406 H   0  0  0  0  0  0
  -28.2598  -38.0091   24.7504 H   0  0  0  0  0  0
  -28.1069  -36.2621   24.6305 H   0  0  0  0  0  0
  -27.2293  -37.1460   25.8869 H   0  0  0  0  0  0
  -20.9338  -29.8760   21.6891 H   0  0  0  0  0  0
  -26.0171  -38.2857   24.1410 H   0  0  0  0  0  0
  -29.3260  -22.3729   18.3163 H   0  0  0  0  0  0
  -29.2903  -24.8620   18.2020 H   0  0  0  0  0  0
  -27.5207  -22.6984   22.2107 H   0  0  0  0  0  0
  -27.7599  -20.4173   19.4321 H   0  0  0  0  0  0
  -27.5406  -20.4904   21.1461 H   0  0  0  0  0  0
  -30.8004  -17.4088   21.6256 H   0  0  0  0  0  0
  -30.9319  -17.3256   19.8925 H   0  0  0  0  0  0
  -28.3472  -18.1034   21.3915 H   0  0  0  0  0  0
  -28.5040  -18.0313   19.6596 H   0  0  0  0  0  0
  -28.8964  -15.5197   21.0297 H   0  0  0  0  0  0
  -29.8856  -19.9571   21.4129 H   0  0  0  0  0  0
  -30.0844  -19.8783   19.8035 H   0  0  0  0  0  0
  1 25  1  0  0  0
  1 30  2  0  0  0
  1 80  1  0  0  0
  2  3  1  0  0  0
  2 25  1  0  0  0
  2 82  1  0  0  0
  2 83  1  0  0  0
  3  4  1  0  0  0
  3 84  1  0  0  0
  3 85  1  0  0  0
  4  5  1  0  0  0
  4 86  1  0  0  0
  4 87  1  0  0  0
  5  6  1  0  0  0
  5 26  1  0  0  0
  5 88  1  0  0  0
  6 25  1  0  0  0
  6 89  1  0  0  0
  6 90  1  0  0  0
  7  8  2  0  0  0
  7 26  1  0  0  0
  7 29  1  0  0  0
  8  9  1  0  0  0
  8 22  1  0  0  0
  9 10  1  0  0  0
  9 27  2  0  0  0
 10 11  2  0  0  0
 10 15  1  0  0  0
 11 12  1  0  0  0
 11 91  1  0  0  0
 12 13  2  0  0  0
 12 92  1  0  0  0
 13 14  1  0  0  0
 13 31  1  0  0  0
 14 15  2  0  0  0
 14 93  1  0  0  0
 15 94  1  0  0  0
 16 17  2  0  0  0
 16 21  1  0  0  0
 16 31  1  0  0  0
 17 18  1  0  0  0
 17 95  1  0  0  0
 18 19  2  0  0  0
 18 96  1  0  0  0
 19 20  1  0  0  0
 19 24  1  0  0  0
 20 21  2  0  0  0
 20 97  1  0  0  0
 21 23  1  0  0  0
 22 28  1  0  0  0
 22 32  2  0  0  0
 26 27  1  0  0  0
 28 98  1  0  0  0
 28 99  1  0  0  0
 29100  1  0  0  0
 29101  1  0  0  0
 33 34  1  0  0  0
 33 66  1  0  0  0
 33 70  2  0  0  0
 34 36  1  0  0  0
 34 59  1  0  0  0
 34102  1  0  0  0
 35 44  2  0  0  0
 35 45  1  0  0  0
 35 68  1  0  0  0
 36 56  1  0  0  0
 36103  1  0  0  0
 37 39  1  0  0  0
 37 47  1  0  0  0
 37 66  1  0  0  0
 37104  1  0  0  0
 38 43  2  0  0  0
 38 46  1  0  0  0
 38 47  1  0  0  0
 39 64  1  0  0  0
 39 67  2  0  0  0
 40 52  1  0  0  0
 40 53  2  0  0  0
 40 58  1  0  0  0
 41105  1  0  0  0
 41106  1  0  0  0
 41107  1  0  0  0
 41 48  1  0  0  0
 42 43  1  0  0  0
 42 66  1  0  0  0
 42108  1  0  0  0
 42109  1  0  0  0
 43 44  1  0  0  0
 44110  1  0  0  0
 45 46  2  0  0  0
 45111  1  0  0  0
 46112  1  0  0  0
 47113  1  0  0  0
 47114  1  0  0  0
 48 56  1  0  0  0
 48 65  1  0  0  0
 48115  1  0  0  0
 49 50  1  0  0  0
 49 53  1  0  0  0
 49 64  1  0  0  0
 49116  1  0  0  0
 50 51  1  0  0  0
 50117  1  0  0  0
 50118  1  0  0  0
 51 52  1  0  0  0
 51119  1  0  0  0
 51120  1  0  0  0
 52121  1  0  0  0
 52122  1  0  0  0
 53 54  1  0  0  0
 54 55  2  0  0  0
 54123  1  0  0  0
 55 57  1  0  0  0
 55124  1  0  0  0
 56 69  2  0  0  0
 57 58  2  0  0  0
 57125  1  0  0  0
 58126  1  0  0  0
 59 60  1  0  0  0
 59 61  1  0  0  0
 59 62  1  0  0  0
 60127  1  0  0  0
 60128  1  0  0  0
 60129  1  0  0  0
 61130  1  0  0  0
 61131  1  0  0  0
 61132  1  0  0  0
 62133  1  0  0  0
 62134  1  0  0  0
 62135  1  0  0  0
 63 65  1  0  0  0
 63136  1  0  0  0
 63137  1  0  0  0
 63138  1  0  0  0
 64139  1  0  0  0
 65140  1  0  0  0
 68 75  1  0  0  0
 71 72  2  0  0  0
 71 74  1  0  0  0
 71141  1  0  0  0
 72 75  1  0  0  0
 72142  1  0  0  0
 73 74  2  0  0  0
 73 79  1  0  0  0
 73143  1  0  0  0
 74 76  1  0  0  0
 75 79  2  0  0  0
 76 81  1  0  0  0
 76144  1  0  0  0
 76145  1  0  0  0
 77 78  1  0  0  0
 77 80  1  0  0  0
 77146  1  0  0  0
 77147  1  0  0  0
 78 81  1  0  0  0
 78148  1  0  0  0
 78149  1  0  0  0
 80150  1  0  0  0
 81151  1  0  0  0
 81152  1  0  0  0
M  CHG  1  81   1
M  ISO  4   1 100  68 101  75 101  80 100
M  END
> <chiral flag>
0

> <version>
0

> <s_m_source_file>
/data/baiqing/PycharmProjects/Reinvent-master-3.2/result/LINK_invent/BTK/process_docking_weight1_custom_sum_contain_oxygen_bond_distance_aromatic_linkinvent_7_9_3/rearranged_h_0123.sdf

> <i_m_source_file_index>
74

> <r_mmod_Potential_Energy-OPLS-2005>
-334.120910644531

> <r_mmod_Stretch_Energy-OPLS-2005>
73.027946472168

> <r_mmod_Bend_Energy-OPLS-2005>
127.322509765625

> <r_mmod_Torsional_Energy-OPLS-2005>
202.323913574219

> <r_mmod_Improper_Torsional_Energy-OPLS-2005>
6.20112276077271

> <r_mmod_Van_der_Waal_Energy-OPLS-2005>
138.64274597168

> <r_mmod_Electrostatic_Energy-OPLS-2005>
-408.13037109375

> <r_mmod_Solvation_Energy-OPLS-2005>
-516.995727539062

> <b_mmod_Minimization_Converged-OPLS-2005>
0

> <r_mmod_RMS_Derivative-OPLS-2005>
0.704595685005188

$$$$
74
                    3D
 Structure written by MMmdl.
172180  0  0  1  0            999 V2000
  -30.7287  -14.4211   20.6290 C   0  0  0  0  0  0
  -30.4214  -12.3018   19.4048 C   0  0  0  0  0  0
  -29.4845  -12.5082   18.1963 C   0  0  0  0  0  0
  -28.0092  -12.3620   18.6187 C   0  0  0  0  0  0
  -27.6618  -13.2021   19.8757 C   0  0  2  0  0  0
  -28.7010  -12.9623   20.9934 C   0  0  0  0  0  0
  -25.2598  -13.8161   20.5683 C   0  0  0  0  0  0
  -24.1841  -13.0444   20.9178 C   0  0  0  0  0  0
  -24.6369  -11.6901   20.8731 C   0  0  0  0  0  0
  -23.9050  -10.4290   21.0403 C   0  0  0  0  0  0
  -24.3609   -9.4207   21.9179 C   0  0  0  0  0  0
  -23.6286   -8.2240   22.0745 C   0  0  0  0  0  0
  -22.4269   -8.0283   21.3554 C   0  0  0  0  0  0
  -21.9916   -9.0251   20.4650 C   0  0  0  0  0  0
  -22.7225  -10.2126   20.3056 C   0  0  0  0  0  0
  -21.6854   -6.0745   22.5277 C   0  0  0  0  0  0
  -21.4022   -6.5645   23.8215 C   0  0  0  0  0  0
  -21.3656   -5.6792   24.9166 C   0  0  0  0  0  0
  -21.6053   -4.3060   24.7224 C   0  0  0  0  0  0
  -21.8817   -3.8158   23.4347 C   0  0  0  0  0  0
  -21.9194   -4.6977   22.3397 C   0  0  0  0  0  0
  -22.7863  -13.5230   21.1829 C   0  0  0  0  0  0
  -22.1664   -4.2162   21.0972 F   0  0  0  0  0  0
  -21.5615   -3.4536   25.7741 F   0  0  0  0  0  0
  -30.0358  -13.2661   20.4459 N   0  0  0  0  0  0
  -26.3019  -12.9328   20.3383 N   0  0  0  0  0  0
  -25.9297  -11.6484   20.5779 N   0  0  0  0  0  0
  -22.0522  -12.8227   22.0390 N   0  0  0  0  0  0
  -25.4339  -15.1882   20.4108 N   0  0  0  0  0  0
  -31.8161  -14.6467   20.0907 O   0  0  0  0  0  0
  -21.6639   -6.8879   21.4232 O   0  0  0  0  0  0
  -22.3535  -14.5541   20.6675 O   0  0  0  0  0  0
  -24.6118  -31.8707   23.2132 C   0  0  0  0  0  0
  -25.9034  -32.4838   23.8410 C   0  0  1  0  0  0
  -27.2360  -27.4701   20.0676 C   0  0  0  0  0  0
  -25.5917  -33.8638   24.2342 N   0  0  0  0  0  0
  -23.3960  -30.4973   21.5533 C   0  0  2  0  0  0
  -24.8394  -28.9664   20.1198 C   0  0  0  0  0  0
  -22.7386  -29.4681   22.5000 C   0  0  0  0  0  0
  -18.0272  -28.1383   22.8482 C   0  0  0  0  0  0
  -24.1495  -36.7319   23.2637 C   0  0  0  0  0  0
  -25.9236  -30.8454   21.3612 C   0  0  0  0  0  0
  -25.9991  -29.4815   20.7118 C   0  0  0  0  0  0
  -27.1944  -28.7370   20.6881 C   0  0  0  0  0  0
  -26.0489  -26.9540   19.4911 C   0  0  0  0  0  0
  -24.8574  -27.6995   19.5150 C   0  0  0  0  0  0
  -23.6030  -29.8335   20.1680 C   0  0  0  0  0  0
  -25.4111  -36.3116   24.0339 C   0  0  1  0  0  0
  -20.5854  -28.3666   23.1340 C   0  0  2  0  0  0
  -20.6763  -26.9402   22.5432 C   0  0  0  0  0  0
  -19.5754  -26.6397   21.5220 C   0  0  0  0  0  0
  -18.1923  -26.7940   22.1615 C   0  0  0  0  0  0
  -19.1514  -28.8847   23.2912 C   0  0  0  0  0  0
  -18.9446  -30.1454   23.8922 C   0  0  0  0  0  0
  -17.6443  -30.6590   24.0575 C   0  0  0  0  0  0
  -25.9036  -34.9483   23.5125 C   0  0  0  0  0  0
  -16.5334  -29.9087   23.6320 C   0  0  0  0  0  0
  -16.7263  -28.6507   23.0332 C   0  0  0  0  0  0
  -26.4477  -31.6597   25.0717 C   0  0  0  0  0  0
  -25.3753  -31.3681   26.1475 C   0  0  0  0  0  0
  -27.0292  -30.3042   24.6042 C   0  0  0  0  0  0
  -27.6072  -32.4297   25.7465 C   0  0  0  0  0  0
  -27.5581  -37.1811   24.8467 C   0  0  0  0  0  0
  -21.4115  -29.3044   22.3745 N   0  0  0  0  0  0
  -26.4296  -37.3792   23.9408 N   0  0  0  0  0  0
  -24.6623  -31.0843   22.1012 N   0  0  0  0  0  0
  -23.4182  -28.8226   23.3029 O   0  0  0  0  0  0
  -28.4479  -26.8140   20.0420 O   0  0  0  0  0  0
  -26.5585  -34.8922   22.4682 O   0  0  0  0  0  0
  -23.5317  -32.1469   23.7544 O   0  0  0  0  0  0
  -29.3809  -18.6544   20.6563 C   0  0  0  0  0  0
  -28.2597  -19.4655   20.9765 C   0  0  0  0  0  0
  -29.5598  -17.7212   21.6320 C   0  0  0  0  0  0
  -27.7586  -18.9867   22.1643 C   0  0  0  0  0  0
  -26.5663  -19.4708   22.9350 C   0  0  0  0  0  0
  -26.3100  -20.4827   19.7076 C   0  0  0  0  0  0
  -27.0615  -16.5371   24.0739 C   0  0  0  0  0  0
  -28.9941  -17.9430   25.0389 C   0  0  0  0  0  0
  -30.6318  -16.6689   21.7186 C   0  0  0  0  0  0
  -28.0684  -24.4499   20.4397 C   0  0  0  0  0  0
  -28.0828  -21.9934   20.7785 C   0  0  0  0  0  0
  -28.5381  -25.5236   19.4437 C   0  0  0  0  0  0
  -27.7878  -20.6283   20.1158 C   0  0  1  0  0  0
  -28.4536  -17.1468   23.8381 C   0  0  0  0  0  0
  -28.5626  -17.9159   22.5875 N   0  0  0  0  0  0
  -30.1222  -15.3367   21.3966 N   0  0  0  0  0  0
  -27.9949  -23.1099   19.8154 N   0  3  0  0  0  0
  -31.4627  -12.4124   19.0997 H   0  0  0  0  0  0
  -30.3348  -11.2865   19.7931 H   0  0  0  0  0  0
  -29.7198  -11.7865   17.4134 H   0  0  0  0  0  0
  -29.6498  -13.4956   17.7621 H   0  0  0  0  0  0
  -27.8252  -11.3058   18.8218 H   0  0  0  0  0  0
  -27.3458  -12.6236   17.7929 H   0  0  0  0  0  0
  -27.7160  -14.2510   19.5812 H   0  0  0  0  0  0
  -28.6724  -11.9203   21.3187 H   0  0  0  0  0  0
  -28.4551  -13.5454   21.8805 H   0  0  0  0  0  0
  -25.2767   -9.5670   22.4729 H   0  0  0  0  0  0
  -24.0008   -7.4622   22.7458 H   0  0  0  0  0  0
  -21.0856   -8.8746   19.8962 H   0  0  0  0  0  0
  -22.3682  -10.9645   19.6158 H   0  0  0  0  0  0
  -21.2011   -7.6154   23.9718 H   0  0  0  0  0  0
  -21.1486   -6.0531   25.9072 H   0  0  0  0  0  0
  -22.0604   -2.7623   23.2835 H   0  0  0  0  0  0
  -22.4191  -11.9917   22.4792 H   0  0  0  0  0  0
  -21.1139  -13.1229   22.2602 H   0  0  0  0  0  0
  -24.6736  -15.8471   20.5409 H   0  0  0  0  0  0
  -26.3041  -15.6326   20.1454 H   0  0  0  0  0  0
  -26.7095  -32.5556   23.1165 H   0  0  0  0  0  0
  -25.0102  -33.9816   25.0512 H   0  0  0  0  0  0
  -22.6830  -31.3134   21.4161 H   0  0  0  0  0  0
  -23.3743  -35.9663   23.3311 H   0  0  0  0  0  0
  -24.3595  -36.8925   22.2050 H   0  0  0  0  0  0
  -23.7262  -37.6536   23.6637 H   0  0  0  0  0  0
  -26.0285  -31.6103   20.5914 H   0  0  0  0  0  0
  -26.8145  -30.9014   21.9745 H   0  0  0  0  0  0
  -28.0930  -29.1387   21.1373 H   0  0  0  0  0  0
  -26.0090  -25.9907   19.0074 H   0  0  0  0  0  0
  -23.9630  -27.2957   19.0607 H   0  0  0  0  0  0
  -23.7115  -30.6098   19.4096 H   0  0  0  0  0  0
  -22.7269  -29.2555   19.8698 H   0  0  0  0  0  0
  -25.1275  -36.1981   25.0825 H   0  0  0  0  0  0
  -20.9943  -28.3225   24.1470 H   0  0  0  0  0  0
  -20.5680  -26.2248   23.3597 H   0  0  0  0  0  0
  -21.6629  -26.7459   22.1223 H   0  0  0  0  0  0
  -19.6912  -25.6321   21.1230 H   0  0  0  0  0  0
  -19.6703  -27.3218   20.6760 H   0  0  0  0  0  0
  -17.4194  -26.6710   21.4005 H   0  0  0  0  0  0
  -18.0301  -26.0077   22.9001 H   0  0  0  0  0  0
  -19.7919  -30.7267   24.2291 H   0  0  0  0  0  0
  -17.4991  -31.6280   24.5174 H   0  0  0  0  0  0
  -15.5331  -30.2995   23.7644 H   0  0  0  0  0  0
  -15.8655  -28.0858   22.7011 H   0  0  0  0  0  0
  -24.5934  -30.7013   25.7815 H   0  0  0  0  0  0
  -24.8933  -32.2825   26.4932 H   0  0  0  0  0  0
  -25.8140  -30.8852   27.0217 H   0  0  0  0  0  0
  -26.2807  -29.6800   24.1133 H   0  0  0  0  0  0
  -27.4133  -29.7268   25.4464 H   0  0  0  0  0  0
  -27.8611  -30.4374   23.9117 H   0  0  0  0  0  0
  -27.2712  -33.3583   26.2079 H   0  0  0  0  0  0
  -28.3856  -32.6877   25.0272 H   0  0  0  0  0  0
  -28.0753  -31.8387   26.5341 H   0  0  0  0  0  0
  -28.2598  -38.0110   24.7501 H   0  0  0  0  0  0
  -28.1081  -36.2640   24.6295 H   0  0  0  0  0  0
  -27.2301  -37.1456   25.8873 H   0  0  0  0  0  0
  -20.9246  -29.8763   21.6983 H   0  0  0  0  0  0
  -26.0189  -38.2869   24.1407 H   0  0  0  0  0  0
  -30.0183  -18.7534   19.7878 H   0  0  0  0  0  0
  -26.3709  -20.5251   22.7584 H   0  0  0  0  0  0
  -26.6928  -19.3739   24.0095 H   0  0  0  0  0  0
  -25.6718  -18.9180   22.6431 H   0  0  0  0  0  0
  -25.6371  -20.5947   20.5561 H   0  0  0  0  0  0
  -26.1209  -19.5101   19.2530 H   0  0  0  0  0  0
  -26.0257  -21.2370   18.9752 H   0  0  0  0  0  0
  -27.1077  -15.7892   24.8652 H   0  0  0  0  0  0
  -26.6972  -16.0387   23.1762 H   0  0  0  0  0  0
  -26.3161  -17.2665   24.3800 H   0  0  0  0  0  0
  -29.0978  -17.3058   25.9170 H   0  0  0  0  0  0
  -28.3519  -18.7761   25.3147 H   0  0  0  0  0  0
  -29.9830  -18.3532   24.8235 H   0  0  0  0  0  0
  -31.0821  -16.6514   22.7127 H   0  0  0  0  0  0
  -31.4433  -16.9427   21.0419 H   0  0  0  0  0  0
  -27.0921  -24.7014   20.8554 H   0  0  0  0  0  0
  -28.7663  -24.4339   21.2777 H   0  0  0  0  0  0
  -29.0907  -21.9930   21.1957 H   0  0  0  0  0  0
  -27.4010  -22.1712   21.6106 H   0  0  0  0  0  0
  -28.0167  -25.4760   18.4872 H   0  0  0  0  0  0
  -29.5872  -25.3520   19.2007 H   0  0  0  0  0  0
  -28.3788  -20.5718   19.2014 H   0  0  0  0  0  0
  -29.1049  -16.2813   23.7442 H   0  0  0  0  0  0
  -29.2106  -15.1007   21.7515 H   0  0  0  0  0  0
  -28.7584  -23.0108   19.1627 H   0  0  0  0  0  0
  -27.1338  -23.0298   19.2955 H   0  0  0  0  0  0
  1 25  1  0  0  0
  1 30  2  0  0  0
  1 86  1  0  0  0
  2  3  1  0  0  0
  2 25  1  0  0  0
  2 88  1  0  0  0
  2 89  1  0  0  0
  3  4  1  0  0  0
  3 90  1  0  0  0
  3 91  1  0  0  0
  4  5  1  0  0  0
  4 92  1  0  0  0
  4 93  1  0  0  0
  5  6  1  0  0  0
  5 26  1  0  0  0
  5 94  1  0  0  0
  6 25  1  0  0  0
  6 95  1  0  0  0
  6 96  1  0  0  0
  7  8  2  0  0  0
  7 26  1  0  0  0
  7 29  1  0  0  0
  8  9  1  0  0  0
  8 22  1  0  0  0
  9 10  1  0  0  0
  9 27  2  0  0  0
 10 11  2  0  0  0
 10 15  1  0  0  0
 11 12  1  0  0  0
 11 97  1  0  0  0
 12 13  2  0  0  0
 12 98  1  0  0  0
 13 14  1  0  0  0
 13 31  1  0  0  0
 14 15  2  0  0  0
 14 99  1  0  0  0
 15100  1  0  0  0
 16 17  2  0  0  0
 16 21  1  0  0  0
 16 31  1  0  0  0
 17 18  1  0  0  0
 17101  1  0  0  0
 18 19  2  0  0  0
 18102  1  0  0  0
 19 20  1  0  0  0
 19 24  1  0  0  0
 20 21  2  0  0  0
 20103  1  0  0  0
 21 23  1  0  0  0
 22 28  1  0  0  0
 22 32  2  0  0  0
 26 27  1  0  0  0
 28104  1  0  0  0
 28105  1  0  0  0
 29106  1  0  0  0
 29107  1  0  0  0
 33 34  1  0  0  0
 33 66  1  0  0  0
 33 70  2  0  0  0
 34 36  1  0  0  0
 34 59  1  0  0  0
 34108  1  0  0  0
 35 44  2  0  0  0
 35 45  1  0  0  0
 35 68  1  0  0  0
 36 56  1  0  0  0
 36109  1  0  0  0
 37 39  1  0  0  0
 37 47  1  0  0  0
 37 66  1  0  0  0
 37110  1  0  0  0
 38 43  2  0  0  0
 38 46  1  0  0  0
 38 47  1  0  0  0
 39 64  1  0  0  0
 39 67  2  0  0  0
 40 52  1  0  0  0
 40 53  2  0  0  0
 40 58  1  0  0  0
 41111  1  0  0  0
 41112  1  0  0  0
 41113  1  0  0  0
 41 48  1  0  0  0
 42 43  1  0  0  0
 42 66  1  0  0  0
 42114  1  0  0  0
 42115  1  0  0  0
 43 44  1  0  0  0
 44116  1  0  0  0
 45 46  2  0  0  0
 45117  1  0  0  0
 46118  1  0  0  0
 47119  1  0  0  0
 47120  1  0  0  0
 48 56  1  0  0  0
 48 65  1  0  0  0
 48121  1  0  0  0
 49 50  1  0  0  0
 49 53  1  0  0  0
 49 64  1  0  0  0
 49122  1  0  0  0
 50 51  1  0  0  0
 50123  1  0  0  0
 50124  1  0  0  0
 51 52  1  0  0  0
 51125  1  0  0  0
 51126  1  0  0  0
 52127  1  0  0  0
 52128  1  0  0  0
 53 54  1  0  0  0
 54 55  2  0  0  0
 54129  1  0  0  0
 55 57  1  0  0  0
 55130  1  0  0  0
 56 69  2  0  0  0
 57 58  2  0  0  0
 57131  1  0  0  0
 58132  1  0  0  0
 59 60  1  0  0  0
 59 61  1  0  0  0
 59 62  1  0  0  0
 60133  1  0  0  0
 60134  1  0  0  0
 60135  1  0  0  0
 61136  1  0  0  0
 61137  1  0  0  0
 61138  1  0  0  0
 62139  1  0  0  0
 62140  1  0  0  0
 62141  1  0  0  0
 63 65  1  0  0  0
 63142  1  0  0  0
 63143  1  0  0  0
 63144  1  0  0  0
 64145  1  0  0  0
 65146  1  0  0  0
 68 82  1  0  0  0
 71 72  1  0  0  0
 71 73  2  0  0  0
 71147  1  0  0  0
 72 74  2  0  0  0
 72 83  1  0  0  0
 73 79  1  0  0  0
 73 85  1  0  0  0
 74 75  1  0  0  0
 74 85  1  0  0  0
 75148  1  0  0  0
 75149  1  0  0  0
 75150  1  0  0  0
 76151  1  0  0  0
 76152  1  0  0  0
 76153  1  0  0  0
 76 83  1  0  0  0
 77154  1  0  0  0
 77155  1  0  0  0
 77156  1  0  0  0
 77 84  1  0  0  0
 78 84  1  0  0  0
 78157  1  0  0  0
 78158  1  0  0  0
 78159  1  0  0  0
 79 86  1  0  0  0
 79160  1  0  0  0
 79161  1  0  0  0
 80 82  1  0  0  0
 80 87  1  0  0  0
 80162  1  0  0  0
 80163  1  0  0  0
 81 83  1  0  0  0
 81 87  1  0  0  0
 81164  1  0  0  0
 81165  1  0  0  0
 82166  1  0  0  0
 82167  1  0  0  0
 83168  1  0  0  0
 84 85  1  0  0  0
 84169  1  0  0  0
 86170  1  0  0  0
 87171  1  0  0  0
 87172  1  0  0  0
M  CHG  1  87   1
M  ISO  4   1 100  68 101  82 101  86 100
M  END
> <chiral flag>
0

> <version>
0

> <s_m_source_file>
/data/baiqing/PycharmProjects/Reinvent-master-3.2/result/LINK_invent/BTK/process_docking_weight1_custom_sum_contain_oxygen_bond_distance_aromatic_linkinvent_7_9_3/rearranged_h_0123.sdf

> <i_m_source_file_index>
75

> <r_mmod_Potential_Energy-OPLS-2005>
-300.000457763672

> <r_mmod_Stretch_Energy-OPLS-2005>
34.0962677001953

> <r_mmod_Bend_Energy-OPLS-2005>
106.556938171387

> <r_mmod_Torsional_Energy-OPLS-2005>
224.186721801758

> <r_mmod_Improper_Torsional_Energy-OPLS-2005>
1.99512088298798

> <r_mmod_Van_der_Waal_Energy-OPLS-2005>
130.838943481445

> <r_mmod_Electrostatic_Energy-OPLS-2005>
-372.259674072266

> <r_mmod_Solvation_Energy-OPLS-2005>
-434.550842285156

> <b_mmod_Minimization_Converged-OPLS-2005>
0

> <r_mmod_RMS_Derivative-OPLS-2005>
3.23989295959473

$$$$
75
                    3D
 Structure written by MMmdl.
170179  0  0  1  0            999 V2000
  -30.6905  -14.4435   20.6392 C   0  0  0  0  0  0
  -30.4352  -12.3108   19.4030 C   0  0  0  0  0  0
  -29.4950  -12.5333   18.1993 C   0  0  0  0  0  0
  -28.0157  -12.3888   18.6086 C   0  0  0  0  0  0
  -27.6704  -13.1994   19.8857 C   0  0  2  0  0  0
  -28.7103  -12.9198   20.9935 C   0  0  0  0  0  0
  -25.2631  -13.8143   20.5664 C   0  0  0  0  0  0
  -24.1856  -13.0438   20.9140 C   0  0  0  0  0  0
  -24.6395  -11.6899   20.8719 C   0  0  0  0  0  0
  -23.9046  -10.4293   21.0404 C   0  0  0  0  0  0
  -24.3597   -9.4216   21.9193 C   0  0  0  0  0  0
  -23.6274   -8.2252   22.0761 C   0  0  0  0  0  0
  -22.4266   -8.0284   21.3541 C   0  0  0  0  0  0
  -21.9885   -9.0259   20.4651 C   0  0  0  0  0  0
  -22.7211  -10.2140   20.3061 C   0  0  0  0  0  0
  -21.6854   -6.0734   22.5274 C   0  0  0  0  0  0
  -21.4025   -6.5644   23.8207 C   0  0  0  0  0  0
  -21.3655   -5.6796   24.9169 C   0  0  0  0  0  0
  -21.6039   -4.3056   24.7226 C   0  0  0  0  0  0
  -21.8823   -3.8141   23.4350 C   0  0  0  0  0  0
  -21.9193   -4.6958   22.3402 C   0  0  0  0  0  0
  -22.7886  -13.5267   21.1815 C   0  0  0  0  0  0
  -22.1667   -4.2134   21.0982 F   0  0  0  0  0  0
  -21.5606   -3.4555   25.7749 F   0  0  0  0  0  0
  -30.0517  -13.2517   20.4663 N   0  0  0  0  0  0
  -26.3071  -12.9294   20.3402 N   0  0  0  0  0  0
  -25.9326  -11.6463   20.5764 N   0  0  0  0  0  0
  -22.0504  -12.8279   22.0365 N   0  0  0  0  0  0
  -25.4391  -15.1856   20.4093 N   0  0  0  0  0  0
  -31.7388  -14.7441   20.0560 O   0  0  0  0  0  0
  -21.6629   -6.8882   21.4237 O   0  0  0  0  0  0
  -22.3587  -14.5586   20.6678 O   0  0  0  0  0  0
  -24.6145  -31.8665   23.2097 C   0  0  0  0  0  0
  -25.9034  -32.4814   23.8388 C   0  0  1  0  0  0
  -27.2410  -27.4262   20.0846 C   0  0  0  0  0  0
  -25.5894  -33.8612   24.2317 N   0  0  0  0  0  0
  -23.4022  -30.4901   21.5510 C   0  0  2  0  0  0
  -24.8486  -28.9539   20.1164 C   0  0  0  0  0  0
  -22.7400  -29.4641   22.4987 C   0  0  0  0  0  0
  -18.0265  -28.1359   22.8484 C   0  0  0  0  0  0
  -24.1483  -36.7309   23.2631 C   0  0  0  0  0  0
  -25.9325  -30.8288   21.3637 C   0  0  0  0  0  0
  -26.0104  -29.4626   20.7091 C   0  0  0  0  0  0
  -27.2066  -28.7064   20.6901 C   0  0  0  0  0  0
  -26.0533  -26.9344   19.4900 C   0  0  0  0  0  0
  -24.8650  -27.6886   19.5070 C   0  0  0  0  0  0
  -23.6111  -29.8213   20.1663 C   0  0  0  0  0  0
  -25.4103  -36.3099   24.0327 C   0  0  1  0  0  0
  -20.5852  -28.3642   23.1318 C   0  0  2  0  0  0
  -20.6746  -26.9377   22.5412 C   0  0  0  0  0  0
  -19.5734  -26.6368   21.5195 C   0  0  0  0  0  0
  -18.1912  -26.7912   22.1604 C   0  0  0  0  0  0
  -19.1512  -28.8816   23.2903 C   0  0  0  0  0  0
  -18.9443  -30.1423   23.8920 C   0  0  0  0  0  0
  -17.6443  -30.6570   24.0553 C   0  0  0  0  0  0
  -25.9031  -34.9466   23.5120 C   0  0  0  0  0  0
  -16.5338  -29.9071   23.6320 C   0  0  0  0  0  0
  -16.7251  -28.6480   23.0357 C   0  0  0  0  0  0
  -26.4465  -31.6592   25.0712 C   0  0  0  0  0  0
  -25.3744  -31.3706   26.1473 C   0  0  0  0  0  0
  -27.0268  -30.3030   24.6073 C   0  0  0  0  0  0
  -27.6060  -32.4290   25.7462 C   0  0  0  0  0  0
  -27.5579  -37.1798   24.8446 C   0  0  0  0  0  0
  -21.4121  -29.3024   22.3736 N   0  0  0  0  0  0
  -26.4285  -37.3786   23.9404 N   0  0  0  0  0  0
  -24.6681  -31.0757   22.1005 N   0  0  0  0  0  0
  -23.4171  -28.8166   23.3014 O   0  0  0  0  0  0
  -28.4247  -26.7057   20.0870 O   0  0  0  0  0  0
  -26.5593  -34.8914   22.4681 O   0  0  0  0  0  0
  -23.5337  -32.1414   23.7500 O   0  0  0  0  0  0
  -28.8425  -18.5717   21.9871 C   0  0  0  0  0  0
  -30.4827  -17.6291   20.7681 C   0  0  0  0  0  0
  -28.7978  -17.2327   22.2647 C   0  0  0  0  0  0
  -29.8453  -16.6503   21.4924 C   0  0  0  0  0  0
  -28.9430  -20.7993   19.8212 C   0  0  0  0  0  0
  -30.6297  -21.1316   21.6525 C   0  0  0  0  0  0
  -29.1903  -22.2603   19.3699 C   0  0  0  0  0  0
  -30.8320  -22.5797   21.1468 C   0  0  0  0  0  0
  -30.1633  -20.1709   20.5366 C   0  0  1  0  0  0
  -26.4962  -17.2697   23.3370 C   0  0  0  0  0  0
  -28.4777  -16.2819   24.5677 C   0  0  0  0  0  0
  -29.7074  -24.5878   20.1923 C   0  0  0  0  0  0
  -28.3556  -25.2816   19.8761 C   0  0  0  0  0  0
  -27.8329  -16.5241   23.1971 C   0  0  0  0  0  0
  -29.8502  -18.8355   21.0700 N   0  0  0  0  0  0
  -30.0941  -15.2470   21.5355 N   0  0  0  0  0  0
  -29.5990  -23.1252   20.5116 N   0  3  1  0  0  0
  -31.4758  -12.4345   19.0979 H   0  0  0  0  0  0
  -30.3511  -11.2867   19.7683 H   0  0  0  0  0  0
  -29.7301  -11.8277   17.4010 H   0  0  0  0  0  0
  -29.6622  -13.5296   17.7852 H   0  0  0  0  0  0
  -27.8169  -11.3295   18.7770 H   0  0  0  0  0  0
  -27.3676  -12.6929   17.7858 H   0  0  0  0  0  0
  -27.7322  -14.2567   19.6280 H   0  0  0  0  0  0
  -28.6841  -11.8648   21.2715 H   0  0  0  0  0  0
  -28.4463  -13.4518   21.9071 H   0  0  0  0  0  0
  -25.2750   -9.5695   22.4763 H   0  0  0  0  0  0
  -23.9979   -7.4655   22.7494 H   0  0  0  0  0  0
  -21.0803   -8.8788   19.8977 H   0  0  0  0  0  0
  -22.3672  -10.9681   19.6169 H   0  0  0  0  0  0
  -21.2039   -7.6157   23.9710 H   0  0  0  0  0  0
  -21.1465   -6.0530   25.9069 H   0  0  0  0  0  0
  -22.0606   -2.7596   23.2865 H   0  0  0  0  0  0
  -22.4083  -11.9919   22.4753 H   0  0  0  0  0  0
  -21.1137  -13.1345   22.2568 H   0  0  0  0  0  0
  -24.6833  -15.8493   20.5369 H   0  0  0  0  0  0
  -26.3115  -15.6243   20.1431 H   0  0  0  0  0  0
  -26.7099  -32.5522   23.1145 H   0  0  0  0  0  0
  -25.0046  -33.9775   25.0463 H   0  0  0  0  0  0
  -22.6909  -31.3067   21.4114 H   0  0  0  0  0  0
  -23.3743  -35.9643   23.3279 H   0  0  0  0  0  0
  -24.3585  -36.8942   22.2050 H   0  0  0  0  0  0
  -23.7236  -37.6506   23.6663 H   0  0  0  0  0  0
  -26.0445  -31.5958   20.5959 H   0  0  0  0  0  0
  -26.8210  -30.8837   21.9813 H   0  0  0  0  0  0
  -28.1039  -29.0979   21.1493 H   0  0  0  0  0  0
  -26.0189  -25.9745   18.9975 H   0  0  0  0  0  0
  -23.9701  -27.2916   19.0476 H   0  0  0  0  0  0
  -23.7183  -30.5952   19.4055 H   0  0  0  0  0  0
  -22.7349  -29.2412   19.8724 H   0  0  0  0  0  0
  -25.1278  -36.1959   25.0820 H   0  0  0  0  0  0
  -20.9944  -28.3199   24.1437 H   0  0  0  0  0  0
  -20.5605  -26.2248   23.3591 H   0  0  0  0  0  0
  -21.6627  -26.7395   22.1234 H   0  0  0  0  0  0
  -19.6894  -25.6281   21.1217 H   0  0  0  0  0  0
  -19.6684  -27.3183   20.6732 H   0  0  0  0  0  0
  -17.4180  -26.6658   21.4009 H   0  0  0  0  0  0
  -18.0315  -26.0044   22.8986 H   0  0  0  0  0  0
  -19.7919  -30.7225   24.2310 H   0  0  0  0  0  0
  -17.5002  -31.6265   24.5126 H   0  0  0  0  0  0
  -15.5339  -30.2984   23.7624 H   0  0  0  0  0  0
  -15.8648  -28.0798   22.7088 H   0  0  0  0  0  0
  -24.5904  -30.7062   25.7819 H   0  0  0  0  0  0
  -24.8957  -32.2869   26.4941 H   0  0  0  0  0  0
  -25.8109  -30.8858   27.0214 H   0  0  0  0  0  0
  -26.2789  -29.6809   24.1142 H   0  0  0  0  0  0
  -27.4050  -29.7251   25.4514 H   0  0  0  0  0  0
  -27.8626  -30.4338   23.9197 H   0  0  0  0  0  0
  -27.2713  -33.3605   26.2037 H   0  0  0  0  0  0
  -28.3874  -32.6810   25.0280 H   0  0  0  0  0  0
  -28.0708  -31.8398   26.5375 H   0  0  0  0  0  0
  -28.2577  -38.0114   24.7525 H   0  0  0  0  0  0
  -28.1093  -36.2652   24.6223 H   0  0  0  0  0  0
  -27.2301  -37.1389   25.8847 H   0  0  0  0  0  0
  -20.9261  -29.8791   21.7012 H   0  0  0  0  0  0
  -26.0166  -38.2852   24.1441 H   0  0  0  0  0  0
  -28.2236  -19.3750   22.3631 H   0  0  0  0  0  0
  -31.3102  -17.5829   20.0722 H   0  0  0  0  0  0
  -28.6747  -20.1899   18.9578 H   0  0  0  0  0  0
  -28.0729  -20.7828   20.4777 H   0  0  0  0  0  0
  -29.9080  -21.1410   22.4693 H   0  0  0  0  0  0
  -31.5621  -20.7635   22.0819 H   0  0  0  0  0  0
  -28.2788  -22.6449   18.9126 H   0  0  0  0  0  0
  -29.9577  -22.2875   18.5945 H   0  0  0  0  0  0
  -31.6565  -22.6128   20.4327 H   0  0  0  0  0  0
  -31.1278  -23.2092   21.9866 H   0  0  0  0  0  0
  -30.9721  -20.0609   19.8124 H   0  0  0  0  0  0
  -26.0137  -17.4020   22.3684 H   0  0  0  0  0  0
  -26.6263  -18.2548   23.7852 H   0  0  0  0  0  0
  -25.8041  -16.7127   23.9690 H   0  0  0  0  0  0
  -29.4005  -15.7086   24.4758 H   0  0  0  0  0  0
  -27.8088  -15.7231   25.2237 H   0  0  0  0  0  0
  -28.7194  -17.2241   25.0606 H   0  0  0  0  0  0
  -30.1276  -25.0879   21.0650 H   0  0  0  0  0  0
  -30.4169  -24.7517   19.3799 H   0  0  0  0  0  0
  -27.5791  -24.8649   20.5194 H   0  0  0  0  0  0
  -28.0767  -25.0712   18.8426 H   0  0  0  0  0  0
  -27.6073  -15.5545   22.7518 H   0  0  0  0  0  0
  -29.4334  -14.7380   22.1020 H   0  0  0  0  0  0
  -28.8731  -23.0530   21.2104 H   0  0  0  0  0  0
  1 25  1  0  0  0
  1 30  2  0  0  0
  1 86  1  0  0  0
  2  3  1  0  0  0
  2 25  1  0  0  0
  2 88  1  0  0  0
  2 89  1  0  0  0
  3  4  1  0  0  0
  3 90  1  0  0  0
  3 91  1  0  0  0
  4  5  1  0  0  0
  4 92  1  0  0  0
  4 93  1  0  0  0
  5  6  1  0  0  0
  5 26  1  0  0  0
  5 94  1  0  0  0
  6 25  1  0  0  0
  6 95  1  0  0  0
  6 96  1  0  0  0
  7  8  2  0  0  0
  7 26  1  0  0  0
  7 29  1  0  0  0
  8  9  1  0  0  0
  8 22  1  0  0  0
  9 10  1  0  0  0
  9 27  2  0  0  0
 10 11  2  0  0  0
 10 15  1  0  0  0
 11 12  1  0  0  0
 11 97  1  0  0  0
 12 13  2  0  0  0
 12 98  1  0  0  0
 13 14  1  0  0  0
 13 31  1  0  0  0
 14 15  2  0  0  0
 14 99  1  0  0  0
 15100  1  0  0  0
 16 17  2  0  0  0
 16 21  1  0  0  0
 16 31  1  0  0  0
 17 18  1  0  0  0
 17101  1  0  0  0
 18 19  2  0  0  0
 18102  1  0  0  0
 19 20  1  0  0  0
 19 24  1  0  0  0
 20 21  2  0  0  0
 20103  1  0  0  0
 21 23  1  0  0  0
 22 28  1  0  0  0
 22 32  2  0  0  0
 26 27  1  0  0  0
 28104  1  0  0  0
 28105  1  0  0  0
 29106  1  0  0  0
 29107  1  0  0  0
 33 34  1  0  0  0
 33 66  1  0  0  0
 33 70  2  0  0  0
 34 36  1  0  0  0
 34 59  1  0  0  0
 34108  1  0  0  0
 35 44  2  0  0  0
 35 45  1  0  0  0
 35 68  1  0  0  0
 36 56  1  0  0  0
 36109  1  0  0  0
 37 39  1  0  0  0
 37 47  1  0  0  0
 37 66  1  0  0  0
 37110  1  0  0  0
 38 43  2  0  0  0
 38 46  1  0  0  0
 38 47  1  0  0  0
 39 64  1  0  0  0
 39 67  2  0  0  0
 40 52  1  0  0  0
 40 53  2  0  0  0
 40 58  1  0  0  0
 41111  1  0  0  0
 41112  1  0  0  0
 41113  1  0  0  0
 41 48  1  0  0  0
 42 43  1  0  0  0
 42 66  1  0  0  0
 42114  1  0  0  0
 42115  1  0  0  0
 43 44  1  0  0  0
 44116  1  0  0  0
 45 46  2  0  0  0
 45117  1  0  0  0
 46118  1  0  0  0
 47119  1  0  0  0
 47120  1  0  0  0
 48 56  1  0  0  0
 48 65  1  0  0  0
 48121  1  0  0  0
 49 50  1  0  0  0
 49 53  1  0  0  0
 49 64  1  0  0  0
 49122  1  0  0  0
 50 51  1  0  0  0
 50123  1  0  0  0
 50124  1  0  0  0
 51 52  1  0  0  0
 51125  1  0  0  0
 51126  1  0  0  0
 52127  1  0  0  0
 52128  1  0  0  0
 53 54  1  0  0  0
 54 55  2  0  0  0
 54129  1  0  0  0
 55 57  1  0  0  0
 55130  1  0  0  0
 56 69  2  0  0  0
 57 58  2  0  0  0
 57131  1  0  0  0
 58132  1  0  0  0
 59 60  1  0  0  0
 59 61  1  0  0  0
 59 62  1  0  0  0
 60133  1  0  0  0
 60134  1  0  0  0
 60135  1  0  0  0
 61136  1  0  0  0
 61137  1  0  0  0
 61138  1  0  0  0
 62139  1  0  0  0
 62140  1  0  0  0
 62141  1  0  0  0
 63 65  1  0  0  0
 63142  1  0  0  0
 63143  1  0  0  0
 63144  1  0  0  0
 64145  1  0  0  0
 65146  1  0  0  0
 68 83  1  0  0  0
 71 73  2  0  0  0
 71 85  1  0  0  0
 71147  1  0  0  0
 72 74  2  0  0  0
 72 85  1  0  0  0
 72148  1  0  0  0
 73 74  1  0  0  0
 73 84  1  0  0  0
 74 86  1  0  0  0
 75 77  1  0  0  0
 75 79  1  0  0  0
 75149  1  0  0  0
 75150  1  0  0  0
 76 78  1  0  0  0
 76 79  1  0  0  0
 76151  1  0  0  0
 76152  1  0  0  0
 77 87  1  0  0  0
 77153  1  0  0  0
 77154  1  0  0  0
 78 87  1  0  0  0
 78155  1  0  0  0
 78156  1  0  0  0
 79 85  1  0  0  0
 79157  1  0  0  0
 80158  1  0  0  0
 80159  1  0  0  0
 80160  1  0  0  0
 80 84  1  0  0  0
 81 84  1  0  0  0
 81161  1  0  0  0
 81162  1  0  0  0
 81163  1  0  0  0
 82 83  1  0  0  0
 82164  1  0  0  0
 82165  1  0  0  0
 82 87  1  0  0  0
 83166  1  0  0  0
 83167  1  0  0  0
 84168  1  0  0  0
 86169  1  0  0  0
 87170  1  0  0  0
M  CHG  1  87   1
M  ISO  4   1 100  68 101  83 101  86 100
M  END
> <chiral flag>
0

> <version>
0

> <s_m_source_file>
/data/baiqing/PycharmProjects/Reinvent-master-3.2/result/LINK_invent/BTK/process_docking_weight1_custom_sum_contain_oxygen_bond_distance_aromatic_linkinvent_7_9_3/rearranged_h_0123.sdf

> <i_m_source_file_index>
76

> <r_mmod_Potential_Energy-OPLS-2005>
-146.190399169922

> <r_mmod_Stretch_Energy-OPLS-2005>
40.2240028381348

> <r_mmod_Bend_Energy-OPLS-2005>
116.011627197266

> <r_mmod_Torsional_Energy-OPLS-2005>
270.423034667969

> <r_mmod_Improper_Torsional_Energy-OPLS-2005>
3.73478507995605

> <r_mmod_Van_der_Waal_Energy-OPLS-2005>
125.57063293457

> <r_mmod_Electrostatic_Energy-OPLS-2005>
-275.42626953125

> <r_mmod_Solvation_Energy-OPLS-2005>
-437.889007568359

> <b_mmod_Minimization_Converged-OPLS-2005>
0

> <r_mmod_RMS_Derivative-OPLS-2005>
1.85298955440521

$$$$
76
                    3D
 Structure written by MMmdl.
170179  0  0  1  0            999 V2000
  -30.7323  -14.6299   20.5056 C   0  0  0  0  0  0
  -30.4063  -12.4027   19.4553 C   0  0  0  0  0  0
  -29.4884  -12.4966   18.2217 C   0  0  0  0  0  0
  -28.0190  -12.3151   18.6407 C   0  0  0  0  0  0
  -27.6356  -13.2079   19.8483 C   0  0  2  0  0  0
  -28.6897  -13.1425   20.9822 C   0  0  0  0  0  0
  -25.2486  -13.8128   20.5685 C   0  0  0  0  0  0
  -24.1773  -13.0399   20.9217 C   0  0  0  0  0  0
  -24.6351  -11.6876   20.8776 C   0  0  0  0  0  0
  -23.9031  -10.4273   21.0437 C   0  0  0  0  0  0
  -24.3600   -9.4186   21.9199 C   0  0  0  0  0  0
  -23.6281   -8.2219   22.0757 C   0  0  0  0  0  0
  -22.4264   -8.0264   21.3545 C   0  0  0  0  0  0
  -21.9899   -9.0237   20.4645 C   0  0  0  0  0  0
  -22.7219  -10.2121   20.3065 C   0  0  0  0  0  0
  -21.6844   -6.0727   22.5281 C   0  0  0  0  0  0
  -21.4009   -6.5636   23.8213 C   0  0  0  0  0  0
  -21.3657   -5.6794   24.9178 C   0  0  0  0  0  0
  -21.6045   -4.3055   24.7228 C   0  0  0  0  0  0
  -21.8821   -3.8141   23.4352 C   0  0  0  0  0  0
  -21.9188   -4.6957   22.3405 C   0  0  0  0  0  0
  -22.7797  -13.5200   21.1872 C   0  0  0  0  0  0
  -22.1661   -4.2143   21.0979 F   0  0  0  0  0  0
  -21.5630   -3.4545   25.7745 F   0  0  0  0  0  0
  -29.9954  -13.4721   20.3947 N   0  0  0  0  0  0
  -26.2897  -12.9293   20.3305 N   0  0  0  0  0  0
  -25.9270  -11.6462   20.5795 N   0  0  0  0  0  0
  -22.0442  -12.8200   22.0433 N   0  0  0  0  0  0
  -25.4129  -15.1850   20.4054 N   0  0  0  0  0  0
  -31.9201  -14.6044   20.1709 O   0  0  0  0  0  0
  -21.6624   -6.8868   21.4242 O   0  0  0  0  0  0
  -22.3494  -14.5509   20.6722 O   0  0  0  0  0  0
  -24.6218  -31.8636   23.2070 C   0  0  0  0  0  0
  -25.9085  -32.4801   23.8383 C   0  0  1  0  0  0
  -27.2227  -27.3551   20.1132 C   0  0  0  0  0  0
  -25.5919  -33.8602   24.2308 N   0  0  0  0  0  0
  -23.4135  -30.4888   21.5484 C   0  0  2  0  0  0
  -24.8591  -28.9517   20.1095 C   0  0  0  0  0  0
  -22.7453  -29.4642   22.4953 C   0  0  0  0  0  0
  -18.0280  -28.1382   22.8488 C   0  0  0  0  0  0
  -24.1489  -36.7304   23.2636 C   0  0  0  0  0  0
  -25.9512  -30.8044   21.3743 C   0  0  0  0  0  0
  -26.0246  -29.4357   20.7159 C   0  0  0  0  0  0
  -27.2081  -28.6468   20.7126 C   0  0  0  0  0  0
  -26.0374  -26.9227   19.4697 C   0  0  0  0  0  0
  -24.8655  -27.6989   19.4789 C   0  0  0  0  0  0
  -23.6254  -29.8270   20.1619 C   0  0  0  0  0  0
  -25.4113  -36.3099   24.0332 C   0  0  1  0  0  0
  -20.5880  -28.3684   23.1293 C   0  0  2  0  0  0
  -20.6773  -26.9412   22.5410 C   0  0  0  0  0  0
  -19.5749  -26.6385   21.5212 C   0  0  0  0  0  0
  -18.1930  -26.7927   22.1624 C   0  0  0  0  0  0
  -19.1531  -28.8849   23.2887 C   0  0  0  0  0  0
  -18.9456  -30.1452   23.8901 C   0  0  0  0  0  0
  -17.6458  -30.6585   24.0567 C   0  0  0  0  0  0
  -25.9047  -34.9466   23.5119 C   0  0  0  0  0  0
  -16.5351  -29.9085   23.6323 C   0  0  0  0  0  0
  -16.7270  -28.6502   23.0348 C   0  0  0  0  0  0
  -26.4480  -31.6595   25.0735 C   0  0  0  0  0  0
  -25.3726  -31.3724   26.1470 C   0  0  0  0  0  0
  -27.0313  -30.3023   24.6164 C   0  0  0  0  0  0
  -27.6046  -32.4321   25.7500 C   0  0  0  0  0  0
  -27.5582  -37.1810   24.8463 C   0  0  0  0  0  0
  -21.4172  -29.3044   22.3691 N   0  0  0  0  0  0
  -26.4296  -37.3789   23.9405 N   0  0  0  0  0  0
  -24.6807  -31.0682   22.1004 N   0  0  0  0  0  0
  -23.4195  -28.8174   23.3015 O   0  0  0  0  0  0
  -28.3520  -26.5338   20.1847 O   0  0  0  0  0  0
  -26.5612  -34.8923   22.4681 O   0  0  0  0  0  0
  -23.5390  -32.1422   23.7413 O   0  0  0  0  0  0
  -29.5579  -21.4309   20.8388 C   0  0  0  0  0  0
  -28.6362  -22.1371   18.9506 C   0  0  0  0  0  0
  -29.1354  -22.6185   20.1285 C   0  0  0  0  0  0
  -29.3558  -20.2923   20.0737 C   0  0  0  0  0  0
  -30.6493  -18.4139   21.3994 C   0  0  0  0  0  0
  -28.5068  -17.8435   20.5076 C   0  0  0  0  0  0
  -31.1329  -16.9268   21.3252 C   0  0  0  0  0  0
  -28.8624  -16.3252   20.3895 C   0  0  0  0  0  0
  -29.6946  -18.7907   20.2610 C   0  0  0  0  0  0
  -29.2518  -20.2947   16.5182 C   0  0  0  0  0  0
  -26.8726  -20.1561   17.4172 C   0  0  0  0  0  0
  -28.1752  -25.0965   19.9329 C   0  0  0  0  0  0
  -29.2615  -24.1198   20.5281 C   0  0  2  0  0  0
  -28.3646  -19.9654   17.7276 C   0  0  0  0  0  0
  -28.7632  -20.7546   18.8953 N   0  0  0  0  0  0
  -30.1790  -15.8473   20.8942 N   0  0  0  0  0  0
  -30.6072  -24.5864   20.1573 N   0  3  0  0  0  0
  -31.4489  -12.4785   19.1426 H   0  0  0  0  0  0
  -30.3148  -11.4245   19.9307 H   0  0  0  0  0  0
  -29.7643  -11.7405   17.4858 H   0  0  0  0  0  0
  -29.6186  -13.4631   17.7320 H   0  0  0  0  0  0
  -27.8736  -11.2645   18.8944 H   0  0  0  0  0  0
  -27.3582  -12.5195   17.7967 H   0  0  0  0  0  0
  -27.6127  -14.2112   19.4381 H   0  0  0  0  0  0
  -28.7154  -12.1437   21.4208 H   0  0  0  0  0  0
  -28.4416  -13.8169   21.8021 H   0  0  0  0  0  0
  -25.2754   -9.5660   22.4767 H   0  0  0  0  0  0
  -23.9993   -7.4608   22.7473 H   0  0  0  0  0  0
  -21.0832   -8.8760   19.8949 H   0  0  0  0  0  0
  -22.3690  -10.9662   19.6176 H   0  0  0  0  0  0
  -21.2002   -7.6147   23.9717 H   0  0  0  0  0  0
  -21.1479   -6.0523   25.9081 H   0  0  0  0  0  0
  -22.0600   -2.7602   23.2854 H   0  0  0  0  0  0
  -22.4078  -11.9867   22.4819 H   0  0  0  0  0  0
  -21.1058  -13.1217   22.2646 H   0  0  0  0  0  0
  -24.6407  -15.8323   20.5181 H   0  0  0  0  0  0
  -26.2586  -15.6314   20.0776 H   0  0  0  0  0  0
  -26.7153  -32.5482   23.1135 H   0  0  0  0  0  0
  -25.0078  -33.9762   25.0459 H   0  0  0  0  0  0
  -22.7053  -31.3082   21.4095 H   0  0  0  0  0  0
  -23.3753  -35.9635   23.3304 H   0  0  0  0  0  0
  -24.3581  -36.8917   22.2050 H   0  0  0  0  0  0
  -23.7238  -37.6507   23.6652 H   0  0  0  0  0  0
  -26.0812  -31.5694   20.6076 H   0  0  0  0  0  0
  -26.8329  -30.8507   22.0024 H   0  0  0  0  0  0
  -28.1007  -29.0118   21.2011 H   0  0  0  0  0  0
  -25.9806  -25.9746   18.9567 H   0  0  0  0  0  0
  -23.9733  -27.3261   18.9942 H   0  0  0  0  0  0
  -23.7422  -30.6057   19.4070 H   0  0  0  0  0  0
  -22.7461  -29.2551   19.8599 H   0  0  0  0  0  0
  -25.1289  -36.1965   25.0826 H   0  0  0  0  0  0
  -20.9973  -28.3259   24.1414 H   0  0  0  0  0  0
  -20.5681  -26.2296   23.3606 H   0  0  0  0  0  0
  -21.6644  -26.7451   22.1203 H   0  0  0  0  0  0
  -19.6916  -25.6295   21.1241 H   0  0  0  0  0  0
  -19.6687  -27.3196   20.6742 H   0  0  0  0  0  0
  -17.4199  -26.6670   21.4026 H   0  0  0  0  0  0
  -18.0334  -26.0066   22.9019 H   0  0  0  0  0  0
  -19.7933  -30.7266   24.2278 H   0  0  0  0  0  0
  -17.5012  -31.6265   24.5168 H   0  0  0  0  0  0
  -15.5351  -30.2992   23.7642 H   0  0  0  0  0  0
  -15.8670  -28.0824   22.7060 H   0  0  0  0  0  0
  -24.5896  -30.7075   25.7802 H   0  0  0  0  0  0
  -24.8920  -32.2887   26.4908 H   0  0  0  0  0  0
  -25.8059  -30.8894   27.0237 H   0  0  0  0  0  0
  -26.2877  -29.6792   24.1177 H   0  0  0  0  0  0
  -27.4006  -29.7256   25.4654 H   0  0  0  0  0  0
  -27.8752  -30.4315   23.9384 H   0  0  0  0  0  0
  -27.2659  -33.3611   26.2099 H   0  0  0  0  0  0
  -28.3843  -32.6901   25.0321 H   0  0  0  0  0  0
  -28.0732  -31.8438   26.5399 H   0  0  0  0  0  0
  -28.2603  -38.0106   24.7513 H   0  0  0  0  0  0
  -28.1078  -36.2637   24.6288 H   0  0  0  0  0  0
  -27.2302  -37.1459   25.8868 H   0  0  0  0  0  0
  -20.9339  -29.8780   21.6919 H   0  0  0  0  0  0
  -26.0184  -38.2869   24.1401 H   0  0  0  0  0  0
  -30.0181  -21.4169   21.8180 H   0  0  0  0  0  0
  -28.2168  -22.6651   18.1037 H   0  0  0  0  0  0
  -31.5238  -19.0655   21.3671 H   0  0  0  0  0  0
  -30.1773  -18.6083   22.3633 H   0  0  0  0  0  0
  -28.0919  -18.0437   21.4963 H   0  0  0  0  0  0
  -27.6892  -18.0619   19.8213 H   0  0  0  0  0  0
  -31.5564  -16.6458   22.2910 H   0  0  0  0  0  0
  -31.9778  -16.9482   20.6345 H   0  0  0  0  0  0
  -28.8047  -16.0622   19.3323 H   0  0  0  0  0  0
  -28.0738  -15.7897   20.9099 H   0  0  0  0  0  0
  -30.1895  -18.4725   19.3422 H   0  0  0  0  0  0
  -28.9968  -19.6658   15.6654 H   0  0  0  0  0  0
  -30.3033  -20.1215   16.7488 H   0  0  0  0  0  0
  -29.1454  -21.3340   16.2071 H   0  0  0  0  0  0
  -26.5540  -19.4929   16.6132 H   0  0  0  0  0  0
  -26.6474  -21.1772   17.1096 H   0  0  0  0  0  0
  -26.2610  -19.9289   18.2908 H   0  0  0  0  0  0
  -27.2196  -24.7606   20.3377 H   0  0  0  0  0  0
  -28.1241  -24.9643   18.8515 H   0  0  0  0  0  0
  -29.1913  -24.1713   21.6156 H   0  0  0  0  0  0
  -28.5095  -18.9087   17.9378 H   0  0  0  0  0  0
  -30.7429  -24.5356   19.1635 H   0  0  0  0  0  0
  -31.3058  -24.0203   20.6046 H   0  0  0  0  0  0
  -30.7313  -25.5408   20.4487 H   0  0  0  0  0  0
  1 25  1  0  0  0
  1 30  2  0  0  0
  1 86  1  0  0  0
  2  3  1  0  0  0
  2 25  1  0  0  0
  2 88  1  0  0  0
  2 89  1  0  0  0
  3  4  1  0  0  0
  3 90  1  0  0  0
  3 91  1  0  0  0
  4  5  1  0  0  0
  4 92  1  0  0  0
  4 93  1  0  0  0
  5  6  1  0  0  0
  5 26  1  0  0  0
  5 94  1  0  0  0
  6 25  1  0  0  0
  6 95  1  0  0  0
  6 96  1  0  0  0
  7  8  2  0  0  0
  7 26  1  0  0  0
  7 29  1  0  0  0
  8  9  1  0  0  0
  8 22  1  0  0  0
  9 10  1  0  0  0
  9 27  2  0  0  0
 10 11  2  0  0  0
 10 15  1  0  0  0
 11 12  1  0  0  0
 11 97  1  0  0  0
 12 13  2  0  0  0
 12 98  1  0  0  0
 13 14  1  0  0  0
 13 31  1  0  0  0
 14 15  2  0  0  0
 14 99  1  0  0  0
 15100  1  0  0  0
 16 17  2  0  0  0
 16 21  1  0  0  0
 16 31  1  0  0  0
 17 18  1  0  0  0
 17101  1  0  0  0
 18 19  2  0  0  0
 18102  1  0  0  0
 19 20  1  0  0  0
 19 24  1  0  0  0
 20 21  2  0  0  0
 20103  1  0  0  0
 21 23  1  0  0  0
 22 28  1  0  0  0
 22 32  2  0  0  0
 26 27  1  0  0  0
 28104  1  0  0  0
 28105  1  0  0  0
 29106  1  0  0  0
 29107  1  0  0  0
 33 34  1  0  0  0
 33 66  1  0  0  0
 33 70  2  0  0  0
 34 36  1  0  0  0
 34 59  1  0  0  0
 34108  1  0  0  0
 35 44  2  0  0  0
 35 45  1  0  0  0
 35 68  1  0  0  0
 36 56  1  0  0  0
 36109  1  0  0  0
 37 39  1  0  0  0
 37 47  1  0  0  0
 37 66  1  0  0  0
 37110  1  0  0  0
 38 43  2  0  0  0
 38 46  1  0  0  0
 38 47  1  0  0  0
 39 64  1  0  0  0
 39 67  2  0  0  0
 40 52  1  0  0  0
 40 53  2  0  0  0
 40 58  1  0  0  0
 41111  1  0  0  0
 41112  1  0  0  0
 41113  1  0  0  0
 41 48  1  0  0  0
 42 43  1  0  0  0
 42 66  1  0  0  0
 42114  1  0  0  0
 42115  1  0  0  0
 43 44  1  0  0  0
 44116  1  0  0  0
 45 46  2  0  0  0
 45117  1  0  0  0
 46118  1  0  0  0
 47119  1  0  0  0
 47120  1  0  0  0
 48 56  1  0  0  0
 48 65  1  0  0  0
 48121  1  0  0  0
 49 50  1  0  0  0
 49 53  1  0  0  0
 49 64  1  0  0  0
 49122  1  0  0  0
 50 51  1  0  0  0
 50123  1  0  0  0
 50124  1  0  0  0
 51 52  1  0  0  0
 51125  1  0  0  0
 51126  1  0  0  0
 52127  1  0  0  0
 52128  1  0  0  0
 53 54  1  0  0  0
 54 55  2  0  0  0
 54129  1  0  0  0
 55 57  1  0  0  0
 55130  1  0  0  0
 56 69  2  0  0  0
 57 58  2  0  0  0
 57131  1  0  0  0
 58132  1  0  0  0
 59 60  1  0  0  0
 59 61  1  0  0  0
 59 62  1  0  0  0
 60133  1  0  0  0
 60134  1  0  0  0
 60135  1  0  0  0
 61136  1  0  0  0
 61137  1  0  0  0
 61138  1  0  0  0
 62139  1  0  0  0
 62140  1  0  0  0
 62141  1  0  0  0
 63 65  1  0  0  0
 63142  1  0  0  0
 63143  1  0  0  0
 63144  1  0  0  0
 64145  1  0  0  0
 65146  1  0  0  0
 68 82  1  0  0  0
 71 73  1  0  0  0
 71 74  2  0  0  0
 71147  1  0  0  0
 72 73  2  0  0  0
 72 85  1  0  0  0
 72148  1  0  0  0
 73 83  1  0  0  0
 74 85  1  0  0  0
 74 79  1  0  0  0
 75 77  1  0  0  0
 75 79  1  0  0  0
 75149  1  0  0  0
 75150  1  0  0  0
 76 78  1  0  0  0
 76 79  1  0  0  0
 76151  1  0  0  0
 76152  1  0  0  0
 77 86  1  0  0  0
 77153  1  0  0  0
 77154  1  0  0  0
 78 86  1  0  0  0
 78155  1  0  0  0
 78156  1  0  0  0
 79157  1  0  0  0
 80158  1  0  0  0
 80159  1  0  0  0
 80160  1  0  0  0
 80 84  1  0  0  0
 81 84  1  0  0  0
 81161  1  0  0  0
 81162  1  0  0  0
 81163  1  0  0  0
 82 83  1  0  0  0
 82164  1  0  0  0
 82165  1  0  0  0
 83 87  1  0  0  0
 83166  1  0  0  0
 84 85  1  0  0  0
 84167  1  0  0  0
 87168  1  0  0  0
 87169  1  0  0  0
 87170  1  0  0  0
M  CHG  1  87   1
M  ISO  4   1 100  68 101  82 101  86 100
M  END
> <chiral flag>
0

> <version>
0

> <s_m_source_file>
/data/baiqing/PycharmProjects/Reinvent-master-3.2/result/LINK_invent/BTK/process_docking_weight1_custom_sum_contain_oxygen_bond_distance_aromatic_linkinvent_7_9_3/rearranged_h_0123.sdf

> <i_m_source_file_index>
77

> <r_mmod_Potential_Energy-OPLS-2005>
2.47890830039978

> <r_mmod_Stretch_Energy-OPLS-2005>
71.526725769043

> <r_mmod_Bend_Energy-OPLS-2005>
157.588745117188

> <r_mmod_Torsional_Energy-OPLS-2005>
334.915008544922

> <r_mmod_Improper_Torsional_Energy-OPLS-2005>
3.92942595481873

> <r_mmod_Van_der_Waal_Energy-OPLS-2005>
140.606781005859

> <r_mmod_Electrostatic_Energy-OPLS-2005>
-313.626983642578

> <r_mmod_Solvation_Energy-OPLS-2005>
-440.794586181641

> <b_mmod_Minimization_Converged-OPLS-2005>
0

> <r_mmod_RMS_Derivative-OPLS-2005>
0.974401116371155

$$$$
77
                    3D
 Structure written by MMmdl.
167175  0  0  1  0            999 V2000
  -30.7944  -14.3305   20.7306 C   0  0  0  0  0  0
  -30.4115  -12.2971   19.3807 C   0  0  0  0  0  0
  -29.4743  -12.5284   18.1821 C   0  0  0  0  0  0
  -28.0029  -12.3723   18.6051 C   0  0  0  0  0  0
  -27.6612  -13.2003   19.8706 C   0  0  2  0  0  0
  -28.6987  -12.9502   20.9870 C   0  0  0  0  0  0
  -25.2585  -13.8148   20.5656 C   0  0  0  0  0  0
  -24.1834  -13.0433   20.9158 C   0  0  0  0  0  0
  -24.6378  -11.6893   20.8715 C   0  0  0  0  0  0
  -23.9044  -10.4291   21.0394 C   0  0  0  0  0  0
  -24.3609   -9.4210   21.9171 C   0  0  0  0  0  0
  -23.6293   -8.2240   22.0747 C   0  0  0  0  0  0
  -22.4266   -8.0280   21.3546 C   0  0  0  0  0  0
  -21.9895   -9.0246   20.4643 C   0  0  0  0  0  0
  -22.7215  -10.2129   20.3049 C   0  0  0  0  0  0
  -21.6853   -6.0732   22.5286 C   0  0  0  0  0  0
  -21.4009   -6.5634   23.8219 C   0  0  0  0  0  0
  -21.3658   -5.6788   24.9179 C   0  0  0  0  0  0
  -21.6039   -4.3053   24.7224 C   0  0  0  0  0  0
  -21.8822   -3.8143   23.4347 C   0  0  0  0  0  0
  -21.9190   -4.6959   22.3402 C   0  0  0  0  0  0
  -22.7866  -13.5246   21.1836 C   0  0  0  0  0  0
  -22.1664   -4.2148   21.0980 F   0  0  0  0  0  0
  -21.5625   -3.4532   25.7735 F   0  0  0  0  0  0
  -30.0454  -13.2330   20.4541 N   0  0  0  0  0  0
  -26.3012  -12.9304   20.3323 N   0  0  0  0  0  0
  -25.9297  -11.6469   20.5725 N   0  0  0  0  0  0
  -22.0506  -12.8244   22.0393 N   0  0  0  0  0  0
  -25.4332  -15.1867   20.4076 N   0  0  0  0  0  0
  -31.7761  -14.6766   20.0663 O   0  0  0  0  0  0
  -21.6640   -6.8869   21.4246 O   0  0  0  0  0  0
  -22.3552  -14.5553   20.6684 O   0  0  0  0  0  0
  -24.6178  -31.8674   23.2149 C   0  0  0  0  0  0
  -25.9081  -32.4809   23.8432 C   0  0  1  0  0  0
  -27.2343  -27.4409   20.0674 C   0  0  0  0  0  0
  -25.5955  -33.8611   24.2365 N   0  0  0  0  0  0
  -23.4009  -30.4974   21.5529 C   0  0  2  0  0  0
  -24.8429  -28.9693   20.1115 C   0  0  0  0  0  0
  -22.7408  -29.4666   22.4969 C   0  0  0  0  0  0
  -18.0259  -28.1367   22.8475 C   0  0  0  0  0  0
  -24.1476  -36.7286   23.2623 C   0  0  0  0  0  0
  -25.9314  -30.8331   21.3666 C   0  0  0  0  0  0
  -26.0041  -29.4681   20.7136 C   0  0  0  0  0  0
  -27.1953  -28.7054   20.7003 C   0  0  0  0  0  0
  -26.0446  -26.9602   19.4656 C   0  0  0  0  0  0
  -24.8592  -27.7123   19.4886 C   0  0  0  0  0  0
  -23.6078  -29.8384   20.1642 C   0  0  0  0  0  0
  -25.4087  -36.3101   24.0357 C   0  0  1  0  0  0
  -20.5858  -28.3670   23.1301 C   0  0  2  0  0  0
  -20.6759  -26.9403   22.5409 C   0  0  0  0  0  0
  -19.5749  -26.6389   21.5191 C   0  0  0  0  0  0
  -18.1921  -26.7921   22.1598 C   0  0  0  0  0  0
  -19.1508  -28.8826   23.2888 C   0  0  0  0  0  0
  -18.9443  -30.1433   23.8900 C   0  0  0  0  0  0
  -17.6441  -30.6574   24.0558 C   0  0  0  0  0  0
  -25.9038  -34.9457   23.5144 C   0  0  0  0  0  0
  -16.5328  -29.9084   23.6327 C   0  0  0  0  0  0
  -16.7245  -28.6498   23.0344 C   0  0  0  0  0  0
  -26.4532  -31.6573   25.0721 C   0  0  0  0  0  0
  -25.3863  -31.3673   26.1524 C   0  0  0  0  0  0
  -27.0293  -30.2995   24.6065 C   0  0  0  0  0  0
  -27.6158  -32.4264   25.7419 C   0  0  0  0  0  0
  -27.5566  -37.1775   24.8459 C   0  0  0  0  0  0
  -21.4130  -29.3052   22.3726 N   0  0  0  0  0  0
  -26.4250  -37.3807   23.9453 N   0  0  0  0  0  0
  -24.6688  -31.0802   22.1040 N   0  0  0  0  0  0
  -23.4186  -28.8211   23.3002 O   0  0  0  0  0  0
  -28.4181  -26.7219   20.0885 O   0  0  0  0  0  0
  -26.5546  -34.8931   22.4677 O   0  0  0  0  0  0
  -23.5383  -32.1391   23.7579 O   0  0  0  0  0  0
  -29.9268  -22.3896   20.8313 C   0  0  0  0  0  0
  -27.7267  -22.4157   21.7360 C   0  0  0  0  0  0
  -29.0763  -21.7005   21.9067 C   0  0  1  0  0  0
  -29.4541  -23.8557   20.8896 C   0  0  1  0  0  0
  -28.9879  -20.1560   21.8185 C   0  0  0  0  0  0
  -31.3948  -15.7846   22.6589 C   0  0  0  0  0  0
  -30.2978  -19.4347   22.1978 C   0  0  0  0  0  0
  -31.4806  -17.2583   22.2075 C   0  0  0  0  0  0
  -28.6194  -25.6598   19.1455 C   0  0  0  0  0  0
  -29.7289  -24.6716   19.5873 C   0  0  1  0  0  0
  -30.9775  -25.4055   19.7205 N   0  0  0  0  0  0
  -30.4833  -14.9400   21.8824 N   0  0  0  0  0  0
  -28.0348  -23.7921   21.2971 N   0  3  0  0  0  0
  -30.1753  -17.9561   22.1815 N   0  3  0  0  0  0
  -31.4531  -12.4035   19.0730 H   0  0  0  0  0  0
  -30.3161  -11.2719   19.7429 H   0  0  0  0  0  0
  -29.7083  -11.8257   17.3809 H   0  0  0  0  0  0
  -29.6385  -13.5269   17.7734 H   0  0  0  0  0  0
  -27.8185  -11.3140   18.7922 H   0  0  0  0  0  0
  -27.3443  -12.6527   17.7825 H   0  0  0  0  0  0
  -27.7183  -14.2525   19.5905 H   0  0  0  0  0  0
  -28.6566  -11.9095   21.3129 H   0  0  0  0  0  0
  -28.4365  -13.5406   21.8651 H   0  0  0  0  0  0
  -25.2762   -9.5684   22.4729 H   0  0  0  0  0  0
  -24.0005   -7.4631   22.7466 H   0  0  0  0  0  0
  -21.0821   -8.8757   19.8958 H   0  0  0  0  0  0
  -22.3671  -10.9658   19.6151 H   0  0  0  0  0  0
  -21.2006   -7.6142   23.9720 H   0  0  0  0  0  0
  -21.1471   -6.0513   25.9079 H   0  0  0  0  0  0
  -22.0597   -2.7601   23.2844 H   0  0  0  0  0  0
  -22.4117  -11.9902   22.4781 H   0  0  0  0  0  0
  -21.1129  -13.1277   22.2607 H   0  0  0  0  0  0
  -24.6695  -15.8449   20.5188 H   0  0  0  0  0  0
  -26.2890  -15.6219   20.0862 H   0  0  0  0  0  0
  -26.7133  -32.5525   23.1188 H   0  0  0  0  0  0
  -25.0277  -33.9765   25.0624 H   0  0  0  0  0  0
  -22.6873  -31.3138   21.4201 H   0  0  0  0  0  0
  -23.3752  -35.9599   23.3266 H   0  0  0  0  0  0
  -24.3597  -36.8889   22.2035 H   0  0  0  0  0  0
  -23.7189  -37.6485   23.6621 H   0  0  0  0  0  0
  -26.0442  -31.6004   20.6001 H   0  0  0  0  0  0
  -26.8211  -30.8847   21.9826 H   0  0  0  0  0  0
  -28.0869  -29.0923   21.1751 H   0  0  0  0  0  0
  -25.9777  -26.0070   18.9693 H   0  0  0  0  0  0
  -23.9679  -27.3232   19.0142 H   0  0  0  0  0  0
  -23.7174  -30.6153   19.4060 H   0  0  0  0  0  0
  -22.7314  -29.2595   19.8660 H   0  0  0  0  0  0
  -25.1251  -36.1960   25.0843 H   0  0  0  0  0  0
  -20.9934  -28.3240   24.1427 H   0  0  0  0  0  0
  -20.5619  -26.2282   23.3606 H   0  0  0  0  0  0
  -21.6643  -26.7433   22.1230 H   0  0  0  0  0  0
  -19.6903  -25.6305   21.1203 H   0  0  0  0  0  0
  -19.6700  -27.3228   20.6748 H   0  0  0  0  0  0
  -17.4207  -26.6673   21.3980 H   0  0  0  0  0  0
  -18.0300  -26.0049   22.8973 H   0  0  0  0  0  0
  -19.7917  -30.7237   24.2287 H   0  0  0  0  0  0
  -17.5003  -31.6251   24.5170 H   0  0  0  0  0  0
  -15.5330  -30.2982   23.7651 H   0  0  0  0  0  0
  -15.8648  -28.0818   22.7059 H   0  0  0  0  0  0
  -24.6124  -30.6867   25.7958 H   0  0  0  0  0  0
  -24.8959  -32.2797   26.4916 H   0  0  0  0  0  0
  -25.8333  -30.8979   27.0298 H   0  0  0  0  0  0
  -26.2748  -29.6761   24.1244 H   0  0  0  0  0  0
  -27.4154  -29.7251   25.4497 H   0  0  0  0  0  0
  -27.8589  -30.4249   23.9105 H   0  0  0  0  0  0
  -27.2844  -33.3598   26.1987 H   0  0  0  0  0  0
  -28.3963  -32.6749   25.0207 H   0  0  0  0  0  0
  -28.0833  -31.8375   26.5323 H   0  0  0  0  0  0
  -28.2609  -38.0055   24.7569 H   0  0  0  0  0  0
  -28.1049  -36.2615   24.6209 H   0  0  0  0  0  0
  -27.2320  -37.1329   25.8867 H   0  0  0  0  0  0
  -20.9283  -29.8807   21.6984 H   0  0  0  0  0  0
  -26.0139  -38.2865   24.1551 H   0  0  0  0  0  0
  -29.7086  -21.9605   19.8513 H   0  0  0  0  0  0
  -30.9988  -22.2954   21.0038 H   0  0  0  0  0  0
  -27.1286  -22.4085   22.6484 H   0  0  0  0  0  0
  -27.1409  -21.9346   20.9517 H   0  0  0  0  0  0
  -29.4711  -21.9756   22.8881 H   0  0  0  0  0  0
  -29.9521  -24.3401   21.7316 H   0  0  0  0  0  0
  -28.6833  -19.8605   20.8137 H   0  0  0  0  0  0
  -28.1968  -19.8149   22.4877 H   0  0  0  0  0  0
  -31.0841  -15.7404   23.7032 H   0  0  0  0  0  0
  -32.3951  -15.3481   22.6378 H   0  0  0  0  0  0
  -30.6146  -19.7449   23.1957 H   0  0  0  0  0  0
  -31.0897  -19.7381   21.5113 H   0  0  0  0  0  0
  -31.9417  -17.3284   21.2222 H   0  0  0  0  0  0
  -32.1501  -17.7794   22.8934 H   0  0  0  0  0  0
  -27.7369  -25.0522   18.9767 H   0  0  0  0  0  0
  -28.8723  -26.0994   18.1794 H   0  0  0  0  0  0
  -29.8576  -23.9677   18.7629 H   0  0  0  0  0  0
  -31.1705  -25.8782   18.8432 H   0  0  0  0  0  0
  -31.7351  -24.7367   19.8129 H   0  0  0  0  0  0
  -29.6920  -14.5502   22.3747 H   0  0  0  0  0  0
  -27.8827  -24.4466   22.0493 H   0  0  0  0  0  0
  -27.4306  -24.0418   20.5323 H   0  0  0  0  0  0
  -29.6778  -17.6650   21.3573 H   0  0  0  0  0  0
  -29.6389  -17.6670   22.9831 H   0  0  0  0  0  0
  1 25  1  0  0  0
  1 30  2  0  0  0
  1 82  1  0  0  0
  2  3  1  0  0  0
  2 25  1  0  0  0
  2 85  1  0  0  0
  2 86  1  0  0  0
  3  4  1  0  0  0
  3 87  1  0  0  0
  3 88  1  0  0  0
  4  5  1  0  0  0
  4 89  1  0  0  0
  4 90  1  0  0  0
  5  6  1  0  0  0
  5 26  1  0  0  0
  5 91  1  0  0  0
  6 25  1  0  0  0
  6 92  1  0  0  0
  6 93  1  0  0  0
  7  8  2  0  0  0
  7 26  1  0  0  0
  7 29  1  0  0  0
  8  9  1  0  0  0
  8 22  1  0  0  0
  9 10  1  0  0  0
  9 27  2  0  0  0
 10 11  2  0  0  0
 10 15  1  0  0  0
 11 12  1  0  0  0
 11 94  1  0  0  0
 12 13  2  0  0  0
 12 95  1  0  0  0
 13 14  1  0  0  0
 13 31  1  0  0  0
 14 15  2  0  0  0
 14 96  1  0  0  0
 15 97  1  0  0  0
 16 17  2  0  0  0
 16 21  1  0  0  0
 16 31  1  0  0  0
 17 18  1  0  0  0
 17 98  1  0  0  0
 18 19  2  0  0  0
 18 99  1  0  0  0
 19 20  1  0  0  0
 19 24  1  0  0  0
 20 21  2  0  0  0
 20100  1  0  0  0
 21 23  1  0  0  0
 22 28  1  0  0  0
 22 32  2  0  0  0
 26 27  1  0  0  0
 28101  1  0  0  0
 28102  1  0  0  0
 29103  1  0  0  0
 29104  1  0  0  0
 33 34  1  0  0  0
 33 66  1  0  0  0
 33 70  2  0  0  0
 34 36  1  0  0  0
 34 59  1  0  0  0
 34105  1  0  0  0
 35 44  2  0  0  0
 35 45  1  0  0  0
 35 68  1  0  0  0
 36 56  1  0  0  0
 36106  1  0  0  0
 37 39  1  0  0  0
 37 47  1  0  0  0
 37 66  1  0  0  0
 37107  1  0  0  0
 38 43  2  0  0  0
 38 46  1  0  0  0
 38 47  1  0  0  0
 39 64  1  0  0  0
 39 67  2  0  0  0
 40 52  1  0  0  0
 40 53  2  0  0  0
 40 58  1  0  0  0
 41108  1  0  0  0
 41109  1  0  0  0
 41110  1  0  0  0
 41 48  1  0  0  0
 42 43  1  0  0  0
 42 66  1  0  0  0
 42111  1  0  0  0
 42112  1  0  0  0
 43 44  1  0  0  0
 44113  1  0  0  0
 45 46  2  0  0  0
 45114  1  0  0  0
 46115  1  0  0  0
 47116  1  0  0  0
 47117  1  0  0  0
 48 56  1  0  0  0
 48 65  1  0  0  0
 48118  1  0  0  0
 49 50  1  0  0  0
 49 53  1  0  0  0
 49 64  1  0  0  0
 49119  1  0  0  0
 50 51  1  0  0  0
 50120  1  0  0  0
 50121  1  0  0  0
 51 52  1  0  0  0
 51122  1  0  0  0
 51123  1  0  0  0
 52124  1  0  0  0
 52125  1  0  0  0
 53 54  1  0  0  0
 54 55  2  0  0  0
 54126  1  0  0  0
 55 57  1  0  0  0
 55127  1  0  0  0
 56 69  2  0  0  0
 57 58  2  0  0  0
 57128  1  0  0  0
 58129  1  0  0  0
 59 60  1  0  0  0
 59 61  1  0  0  0
 59 62  1  0  0  0
 60130  1  0  0  0
 60131  1  0  0  0
 60132  1  0  0  0
 61133  1  0  0  0
 61134  1  0  0  0
 61135  1  0  0  0
 62136  1  0  0  0
 62137  1  0  0  0
 62138  1  0  0  0
 63 65  1  0  0  0
 63139  1  0  0  0
 63140  1  0  0  0
 63141  1  0  0  0
 64142  1  0  0  0
 65143  1  0  0  0
 68 79  1  0  0  0
 71 73  1  0  0  0
 71144  1  0  0  0
 71145  1  0  0  0
 71 74  1  0  0  0
 72 73  1  0  0  0
 72 83  1  0  0  0
 72146  1  0  0  0
 72147  1  0  0  0
 73 75  1  0  0  0
 73148  1  0  0  0
 74 80  1  0  0  0
 74 83  1  0  0  0
 74149  1  0  0  0
 75 77  1  0  0  0
 75150  1  0  0  0
 75151  1  0  0  0
 76 78  1  0  0  0
 76 82  1  0  0  0
 76152  1  0  0  0
 76153  1  0  0  0
 77 84  1  0  0  0
 77154  1  0  0  0
 77155  1  0  0  0
 78 84  1  0  0  0
 78156  1  0  0  0
 78157  1  0  0  0
 79 80  1  0  0  0
 79158  1  0  0  0
 79159  1  0  0  0
 80 81  1  0  0  0
 80160  1  0  0  0
 81161  1  0  0  0
 81162  1  0  0  0
 82163  1  0  0  0
 83164  1  0  0  0
 83165  1  0  0  0
 84166  1  0  0  0
 84167  1  0  0  0
M  CHG  2  83   1  84   1
M  ISO  4   1 100  68 101  79 101  82 100
M  END
> <chiral flag>
0

> <version>
0

> <s_m_source_file>
/data/baiqing/PycharmProjects/Reinvent-master-3.2/result/LINK_invent/BTK/process_docking_weight1_custom_sum_contain_oxygen_bond_distance_aromatic_linkinvent_7_9_3/rearranged_h_0123.sdf

> <i_m_source_file_index>
78

> <r_mmod_Potential_Energy-OPLS-2005>
-333.769226074219

> <r_mmod_Stretch_Energy-OPLS-2005>
34.5754547119141

> <r_mmod_Bend_Energy-OPLS-2005>
127.050285339355

> <r_mmod_Torsional_Energy-OPLS-2005>
322.006439208984

> <r_mmod_Improper_Torsional_Energy-OPLS-2005>
3.79967260360718

> <r_mmod_Van_der_Waal_Energy-OPLS-2005>
135.028915405273

> <r_mmod_Electrostatic_Energy-OPLS-2005>
-20.8579387664795

> <r_mmod_Solvation_Energy-OPLS-2005>
-944.75830078125

> <b_mmod_Minimization_Converged-OPLS-2005>
0

> <r_mmod_RMS_Derivative-OPLS-2005>
2.6451199054718

$$$$
78
                    3D
 Structure written by MMmdl.
169178  0  0  1  0            999 V2000
  -30.6910  -14.4945   20.5310 C   0  0  0  0  0  0
  -30.4216  -12.3118   19.4225 C   0  0  0  0  0  0
  -29.4947  -12.5007   18.2027 C   0  0  0  0  0  0
  -28.0138  -12.3683   18.6134 C   0  0  0  0  0  0
  -27.6597  -13.2111   19.8687 C   0  0  2  0  0  0
  -28.7048  -13.0113   20.9905 C   0  0  0  0  0  0
  -25.2594  -13.8168   20.5695 C   0  0  0  0  0  0
  -24.1855  -13.0440   20.9201 C   0  0  0  0  0  0
  -24.6411  -11.6916   20.8745 C   0  0  0  0  0  0
  -23.9083  -10.4298   21.0407 C   0  0  0  0  0  0
  -24.3631   -9.4204   21.9179 C   0  0  0  0  0  0
  -23.6299   -8.2244   22.0750 C   0  0  0  0  0  0
  -22.4280   -8.0287   21.3545 C   0  0  0  0  0  0
  -21.9919   -9.0266   20.4649 C   0  0  0  0  0  0
  -22.7257  -10.2141   20.3054 C   0  0  0  0  0  0
  -21.6858   -6.0742   22.5284 C   0  0  0  0  0  0
  -21.4021   -6.5648   23.8218 C   0  0  0  0  0  0
  -21.3647   -5.6793   24.9176 C   0  0  0  0  0  0
  -21.6044   -4.3058   24.7219 C   0  0  0  0  0  0
  -21.8820   -3.8157   23.4339 C   0  0  0  0  0  0
  -21.9195   -4.6973   22.3402 C   0  0  0  0  0  0
  -22.7872  -13.5232   21.1836 C   0  0  0  0  0  0
  -22.1666   -4.2165   21.0974 F   0  0  0  0  0  0
  -21.5611   -3.4538   25.7726 F   0  0  0  0  0  0
  -30.0299  -13.3108   20.4285 N   0  0  0  0  0  0
  -26.3028  -12.9356   20.3355 N   0  0  0  0  0  0
  -25.9335  -11.6516   20.5762 N   0  0  0  0  0  0
  -22.0499  -12.8242   22.0389 N   0  0  0  0  0  0
  -25.4290  -15.1885   20.4070 N   0  0  0  0  0  0
  -31.8431  -14.6494   20.1185 O   0  0  0  0  0  0
  -21.6643   -6.8889   21.4243 O   0  0  0  0  0  0
  -22.3574  -14.5530   20.6663 O   0  0  0  0  0  0
  -24.6139  -31.8667   23.2070 C   0  0  0  0  0  0
  -25.9024  -32.4822   23.8379 C   0  0  1  0  0  0
  -27.2428  -27.4271   20.0988 C   0  0  0  0  0  0
  -25.5894  -33.8627   24.2318 N   0  0  0  0  0  0
  -23.4056  -30.4889   21.5460 C   0  0  2  0  0  0
  -24.8568  -28.9509   20.1142 C   0  0  0  0  0  0
  -22.7414  -29.4648   22.4943 C   0  0  0  0  0  0
  -18.0279  -28.1391   22.8486 C   0  0  0  0  0  0
  -24.1488  -36.7295   23.2640 C   0  0  0  0  0  0
  -25.9337  -30.8306   21.3620 C   0  0  0  0  0  0
  -26.0163  -29.4610   20.7152 C   0  0  0  0  0  0
  -27.2129  -28.7052   20.7092 C   0  0  0  0  0  0
  -26.0701  -26.9305   19.4965 C   0  0  0  0  0  0
  -24.8788  -27.6818   19.5057 C   0  0  0  0  0  0
  -23.6178  -29.8190   20.1613 C   0  0  0  0  0  0
  -25.4107  -36.3110   24.0341 C   0  0  1  0  0  0
  -20.5875  -28.3664   23.1304 C   0  0  2  0  0  0
  -20.6772  -26.9397   22.5422 C   0  0  0  0  0  0
  -19.5756  -26.6385   21.5219 C   0  0  0  0  0  0
  -18.1923  -26.7941   22.1615 C   0  0  0  0  0  0
  -19.1528  -28.8840   23.2899 C   0  0  0  0  0  0
  -18.9467  -30.1452   23.8899 C   0  0  0  0  0  0
  -17.6467  -30.6590   24.0575 C   0  0  0  0  0  0
  -25.9029  -34.9476   23.5124 C   0  0  0  0  0  0
  -16.5352  -29.9097   23.6335 C   0  0  0  0  0  0
  -16.7273  -28.6525   23.0334 C   0  0  0  0  0  0
  -26.4464  -31.6601   25.0702 C   0  0  0  0  0  0
  -25.3759  -31.3729   26.1481 C   0  0  0  0  0  0
  -27.0289  -30.3043   24.6066 C   0  0  0  0  0  0
  -27.6057  -32.4312   25.7457 C   0  0  0  0  0  0
  -27.5582  -37.1795   24.8467 C   0  0  0  0  0  0
  -21.4135  -29.3045   22.3700 N   0  0  0  0  0  0
  -26.4288  -37.3796   23.9428 N   0  0  0  0  0  0
  -24.6692  -31.0768   22.0968 N   0  0  0  0  0  0
  -23.4188  -28.8185   23.2973 O   0  0  0  0  0  0
  -28.3775  -26.6445   20.0678 O   0  0  0  0  0  0
  -26.5593  -34.8933   22.4683 O   0  0  0  0  0  0
  -23.5325  -32.1408   23.7453 O   0  0  0  0  0  0
  -28.7832  -18.3020   23.5222 C   0  0  0  0  0  0
  -28.3711  -23.4393   20.2463 C   0  0  0  0  0  0
  -29.5952  -23.8528   22.4172 C   0  0  0  0  0  0
  -28.9125  -21.9768   20.2540 C   0  0  0  0  0  0
  -30.1014  -22.3960   22.3724 C   0  0  0  0  0  0
  -27.8229  -18.2408   22.3456 C   0  0  0  0  0  0
  -29.5882  -19.5838   23.2819 C   0  0  0  0  0  0
  -29.2430  -24.4520   21.0349 C   0  0  2  0  0  0
  -29.0755  -21.4372   21.7024 C   0  0  2  0  0  0
  -28.5633  -18.9568   21.2112 C   0  0  2  0  0  0
  -28.5628  -25.8443   21.2447 C   0  0  0  0  0  0
  -29.2922  -17.9452   20.2650 C   0  0  0  0  0  0
  -30.3690  -16.9724   20.8469 C   0  0  0  0  0  0
  -29.9497  -15.5535   20.9235 N   0  0  0  0  0  0
  -29.4628  -19.9796   21.8462 N   0  3  2  0  0  0
  -31.4665  -12.4074   19.1210 H   0  0  0  0  0  0
  -30.3206  -11.3058   19.8319 H   0  0  0  0  0  0
  -29.7352  -11.7707   17.4282 H   0  0  0  0  0  0
  -29.6658  -13.4828   17.7585 H   0  0  0  0  0  0
  -27.8142  -11.3137   18.8039 H   0  0  0  0  0  0
  -27.3682  -12.6512   17.7807 H   0  0  0  0  0  0
  -27.6969  -14.2567   19.5623 H   0  0  0  0  0  0
  -28.6849  -11.9821   21.3506 H   0  0  0  0  0  0
  -28.4766  -13.6311   21.8589 H   0  0  0  0  0  0
  -25.2772   -9.5674   22.4759 H   0  0  0  0  0  0
  -24.0010   -7.4632   22.7464 H   0  0  0  0  0  0
  -21.0853   -8.8794   19.8950 H   0  0  0  0  0  0
  -22.3725  -10.9681   19.6168 H   0  0  0  0  0  0
  -21.2029   -7.6164   23.9730 H   0  0  0  0  0  0
  -21.1456   -6.0521   25.9078 H   0  0  0  0  0  0
  -22.0607   -2.7623   23.2834 H   0  0  0  0  0  0
  -22.4113  -11.9919   22.4820 H   0  0  0  0  0  0
  -21.1089  -13.1253   22.2520 H   0  0  0  0  0  0
  -24.6510  -15.8322   20.4991 H   0  0  0  0  0  0
  -26.2610  -15.6223   20.0277 H   0  0  0  0  0  0
  -26.7089  -32.5539   23.1144 H   0  0  0  0  0  0
  -25.0120  -33.9817   25.0512 H   0  0  0  0  0  0
  -22.6953  -31.3053   21.4032 H   0  0  0  0  0  0
  -23.3767  -35.9613   23.3293 H   0  0  0  0  0  0
  -24.3598  -36.8910   22.2057 H   0  0  0  0  0  0
  -23.7205  -37.6482   23.6661 H   0  0  0  0  0  0
  -26.0470  -31.5912   20.5885 H   0  0  0  0  0  0
  -26.8236  -30.8887   21.9779 H   0  0  0  0  0  0
  -28.1086  -29.0984   21.1725 H   0  0  0  0  0  0
  -26.0827  -25.9556   19.0307 H   0  0  0  0  0  0
  -23.9886  -27.2799   19.0428 H   0  0  0  0  0  0
  -23.7245  -30.5962   19.4021 H   0  0  0  0  0  0
  -22.7446  -29.2368   19.8623 H   0  0  0  0  0  0
  -25.1274  -36.1964   25.0829 H   0  0  0  0  0  0
  -20.9991  -28.3244   24.1412 H   0  0  0  0  0  0
  -20.5666  -26.2278   23.3613 H   0  0  0  0  0  0
  -21.6641  -26.7426   22.1216 H   0  0  0  0  0  0
  -19.6921  -25.6303   21.1230 H   0  0  0  0  0  0
  -19.6717  -27.3225   20.6772 H   0  0  0  0  0  0
  -17.4207  -26.6705   21.4003 H   0  0  0  0  0  0
  -18.0301  -26.0088   22.9005 H   0  0  0  0  0  0
  -19.7945  -30.7274   24.2261 H   0  0  0  0  0  0
  -17.5025  -31.6274   24.5180 H   0  0  0  0  0  0
  -15.5360  -30.3004   23.7663 H   0  0  0  0  0  0
  -15.8668  -28.0867   22.7011 H   0  0  0  0  0  0
  -24.5944  -30.7045   25.7849 H   0  0  0  0  0  0
  -24.8949  -32.2903   26.4890 H   0  0  0  0  0  0
  -25.8133  -30.8951   27.0253 H   0  0  0  0  0  0
  -26.2821  -29.6825   24.1121 H   0  0  0  0  0  0
  -27.4076  -29.7258   25.4497 H   0  0  0  0  0  0
  -27.8652  -30.4374   23.9205 H   0  0  0  0  0  0
  -27.2696  -33.3624   26.2032 H   0  0  0  0  0  0
  -28.3869  -32.6839   25.0278 H   0  0  0  0  0  0
  -28.0728  -31.8433   26.5372 H   0  0  0  0  0  0
  -28.2585  -38.0106   24.7526 H   0  0  0  0  0  0
  -28.1079  -36.2635   24.6250 H   0  0  0  0  0  0
  -27.2319  -37.1386   25.8874 H   0  0  0  0  0  0
  -20.9267  -29.8778   21.6954 H   0  0  0  0  0  0
  -26.0168  -38.2864   24.1461 H   0  0  0  0  0  0
  -29.4343  -17.4294   23.5417 H   0  0  0  0  0  0
  -28.2576  -18.3220   24.4772 H   0  0  0  0  0  0
  -27.3624  -23.4384   20.6639 H   0  0  0  0  0  0
  -28.2688  -23.7825   19.2165 H   0  0  0  0  0  0
  -30.3496  -24.4771   22.8995 H   0  0  0  0  0  0
  -28.7174  -23.8948   23.0636 H   0  0  0  0  0  0
  -29.8707  -21.9387   19.7346 H   0  0  0  0  0  0
  -28.2304  -21.3608   19.6703 H   0  0  0  0  0  0
  -30.3340  -22.1046   23.3963 H   0  0  0  0  0  0
  -31.0536  -22.3583   21.8386 H   0  0  0  0  0  0
  -26.9127  -18.7897   22.5882 H   0  0  0  0  0  0
  -27.5286  -17.2210   22.0945 H   0  0  0  0  0  0
  -30.6349  -19.4572   23.5607 H   0  0  0  0  0  0
  -29.1717  -20.3452   23.9421 H   0  0  0  0  0  0
  -30.1749  -24.6021   20.4860 H   0  0  0  0  0  0
  -28.1119  -21.5478   22.2034 H   0  0  0  0  0  0
  -27.8075  -19.4546   20.6042 H   0  0  0  0  0  0
  -29.1808  -26.4388   21.9197 H   0  0  0  0  0  0
  -27.6149  -25.6917   21.7653 H   0  0  0  0  0  0
  -29.7576  -18.5246   19.4665 H   0  0  0  0  0  0
  -28.5334  -17.3544   19.7486 H   0  0  0  0  0  0
  -30.7389  -17.2993   21.8152 H   0  0  0  0  0  0
  -31.2401  -17.0495   20.1931 H   0  0  0  0  0  0
  -29.0098  -15.3522   21.2315 H   0  0  0  0  0  0
  -30.3717  -19.8772   21.4191 H   0  0  0  0  0  0
  1 25  1  0  0  0
  1 30  2  0  0  0
  1 84  1  0  0  0
  2  3  1  0  0  0
  2 25  1  0  0  0
  2 86  1  0  0  0
  2 87  1  0  0  0
  3  4  1  0  0  0
  3 88  1  0  0  0
  3 89  1  0  0  0
  4  5  1  0  0  0
  4 90  1  0  0  0
  4 91  1  0  0  0
  5  6  1  0  0  0
  5 26  1  0  0  0
  5 92  1  0  0  0
  6 25  1  0  0  0
  6 93  1  0  0  0
  6 94  1  0  0  0
  7  8  2  0  0  0
  7 26  1  0  0  0
  7 29  1  0  0  0
  8  9  1  0  0  0
  8 22  1  0  0  0
  9 10  1  0  0  0
  9 27  2  0  0  0
 10 11  2  0  0  0
 10 15  1  0  0  0
 11 12  1  0  0  0
 11 95  1  0  0  0
 12 13  2  0  0  0
 12 96  1  0  0  0
 13 14  1  0  0  0
 13 31  1  0  0  0
 14 15  2  0  0  0
 14 97  1  0  0  0
 15 98  1  0  0  0
 16 17  2  0  0  0
 16 21  1  0  0  0
 16 31  1  0  0  0
 17 18  1  0  0  0
 17 99  1  0  0  0
 18 19  2  0  0  0
 18100  1  0  0  0
 19 20  1  0  0  0
 19 24  1  0  0  0
 20 21  2  0  0  0
 20101  1  0  0  0
 21 23  1  0  0  0
 22 28  1  0  0  0
 22 32  2  0  0  0
 26 27  1  0  0  0
 28102  1  0  0  0
 28103  1  0  0  0
 29104  1  0  0  0
 29105  1  0  0  0
 33 34  1  0  0  0
 33 66  1  0  0  0
 33 70  2  0  0  0
 34 36  1  0  0  0
 34 59  1  0  0  0
 34106  1  0  0  0
 35 44  2  0  0  0
 35 45  1  0  0  0
 35 68  1  0  0  0
 36 56  1  0  0  0
 36107  1  0  0  0
 37 39  1  0  0  0
 37 47  1  0  0  0
 37 66  1  0  0  0
 37108  1  0  0  0
 38 43  2  0  0  0
 38 46  1  0  0  0
 38 47  1  0  0  0
 39 64  1  0  0  0
 39 67  2  0  0  0
 40 52  1  0  0  0
 40 53  2  0  0  0
 40 58  1  0  0  0
 41109  1  0  0  0
 41110  1  0  0  0
 41111  1  0  0  0
 41 48  1  0  0  0
 42 43  1  0  0  0
 42 66  1  0  0  0
 42112  1  0  0  0
 42113  1  0  0  0
 43 44  1  0  0  0
 44114  1  0  0  0
 45 46  2  0  0  0
 45115  1  0  0  0
 46116  1  0  0  0
 47117  1  0  0  0
 47118  1  0  0  0
 48 56  1  0  0  0
 48 65  1  0  0  0
 48119  1  0  0  0
 49 50  1  0  0  0
 49 53  1  0  0  0
 49 64  1  0  0  0
 49120  1  0  0  0
 50 51  1  0  0  0
 50121  1  0  0  0
 50122  1  0  0  0
 51 52  1  0  0  0
 51123  1  0  0  0
 51124  1  0  0  0
 52125  1  0  0  0
 52126  1  0  0  0
 53 54  1  0  0  0
 54 55  2  0  0  0
 54127  1  0  0  0
 55 57  1  0  0  0
 55128  1  0  0  0
 56 69  2  0  0  0
 57 58  2  0  0  0
 57129  1  0  0  0
 58130  1  0  0  0
 59 60  1  0  0  0
 59 61  1  0  0  0
 59 62  1  0  0  0
 60131  1  0  0  0
 60132  1  0  0  0
 60133  1  0  0  0
 61134  1  0  0  0
 61135  1  0  0  0
 61136  1  0  0  0
 62137  1  0  0  0
 62138  1  0  0  0
 62139  1  0  0  0
 63 65  1  0  0  0
 63140  1  0  0  0
 63141  1  0  0  0
 63142  1  0  0  0
 64143  1  0  0  0
 65144  1  0  0  0
 68 81  1  0  0  0
 71 76  1  0  0  0
 71 77  1  0  0  0
 71145  1  0  0  0
 71146  1  0  0  0
 72 74  1  0  0  0
 72 78  1  0  0  0
 72147  1  0  0  0
 72148  1  0  0  0
 73 75  1  0  0  0
 73 78  1  0  0  0
 73149  1  0  0  0
 73150  1  0  0  0
 74151  1  0  0  0
 74152  1  0  0  0
 74 79  1  0  0  0
 75 79  1  0  0  0
 75153  1  0  0  0
 75154  1  0  0  0
 76 80  1  0  0  0
 76155  1  0  0  0
 76156  1  0  0  0
 77157  1  0  0  0
 77158  1  0  0  0
 77 85  1  0  0  0
 78 81  1  0  0  0
 78159  1  0  0  0
 79 85  1  0  0  0
 79160  1  0  0  0
 80 82  1  0  0  0
 80 85  1  0  0  0
 80161  1  0  0  0
 81162  1  0  0  0
 81163  1  0  0  0
 82 83  1  0  0  0
 82164  1  0  0  0
 82165  1  0  0  0
 83 84  1  0  0  0
 83166  1  0  0  0
 83167  1  0  0  0
 84168  1  0  0  0
 85169  1  0  0  0
M  CHG  1  85   1
M  ISO  4   1 100  68 101  81 101  84 100
M  END
> <chiral flag>
0

> <version>
0

> <s_m_source_file>
/data/baiqing/PycharmProjects/Reinvent-master-3.2/result/LINK_invent/BTK/process_docking_weight1_custom_sum_contain_oxygen_bond_distance_aromatic_linkinvent_7_9_3/rearranged_h_0123.sdf

> <i_m_source_file_index>
79

> <r_mmod_Potential_Energy-OPLS-2005>
55.3689117431641

> <r_mmod_Stretch_Energy-OPLS-2005>
45.8316764831543

> <r_mmod_Bend_Energy-OPLS-2005>
133.397003173828

> <r_mmod_Torsional_Energy-OPLS-2005>
353.982391357422

> <r_mmod_Improper_Torsional_Energy-OPLS-2005>
4.68097925186157

> <r_mmod_Van_der_Waal_Energy-OPLS-2005>
129.692276000977

> <r_mmod_Electrostatic_Energy-OPLS-2005>
-191.960479736328

> <r_mmod_Solvation_Energy-OPLS-2005>
-435.849151611328

> <b_mmod_Minimization_Converged-OPLS-2005>
0

> <r_mmod_RMS_Derivative-OPLS-2005>
2.5863254070282

$$$$
79
                    3D
 Structure written by MMmdl.
176184  0  0  1  0            999 V2000
  -30.6781  -14.5632   20.5115 C   0  0  0  0  0  0
  -30.4228  -12.3502   19.4483 C   0  0  0  0  0  0
  -29.5025  -12.5109   18.2200 C   0  0  0  0  0  0
  -28.0233  -12.3612   18.6257 C   0  0  0  0  0  0
  -27.6528  -13.2240   19.8650 C   0  0  2  0  0  0
  -28.6958  -13.0692   20.9955 C   0  0  0  0  0  0
  -25.2578  -13.8205   20.5720 C   0  0  0  0  0  0
  -24.1844  -13.0462   20.9245 C   0  0  0  0  0  0
  -24.6413  -11.6946   20.8777 C   0  0  0  0  0  0
  -23.9084  -10.4314   21.0441 C   0  0  0  0  0  0
  -24.3635   -9.4214   21.9191 C   0  0  0  0  0  0
  -23.6319   -8.2250   22.0752 C   0  0  0  0  0  0
  -22.4290   -8.0289   21.3564 C   0  0  0  0  0  0
  -21.9939   -9.0260   20.4657 C   0  0  0  0  0  0
  -22.7274  -10.2137   20.3073 C   0  0  0  0  0  0
  -21.6849   -6.0756   22.5295 C   0  0  0  0  0  0
  -21.4014   -6.5657   23.8225 C   0  0  0  0  0  0
  -21.3668   -5.6802   24.9187 C   0  0  0  0  0  0
  -21.6024   -4.3055   24.7230 C   0  0  0  0  0  0
  -21.8815   -3.8165   23.4345 C   0  0  0  0  0  0
  -21.9191   -4.6992   22.3409 C   0  0  0  0  0  0
  -22.7855  -13.5258   21.1894 C   0  0  0  0  0  0
  -22.1662   -4.2182   21.0987 F   0  0  0  0  0  0
  -21.5626   -3.4526   25.7740 F   0  0  0  0  0  0
  -30.0215  -13.3689   20.4346 N   0  0  0  0  0  0
  -26.2991  -12.9391   20.3337 N   0  0  0  0  0  0
  -25.9334  -11.6536   20.5759 N   0  0  0  0  0  0
  -22.0459  -12.8259   22.0421 N   0  0  0  0  0  0
  -25.4289  -15.1921   20.4144 N   0  0  0  0  0  0
  -31.8345  -14.7038   20.1108 O   0  0  0  0  0  0
  -21.6651   -6.8896   21.4250 O   0  0  0  0  0  0
  -22.3558  -14.5554   20.6701 O   0  0  0  0  0  0
  -24.6228  -31.8606   23.2046 C   0  0  0  0  0  0
  -25.9088  -32.4782   23.8344 C   0  0  1  0  0  0
  -27.2255  -27.3515   20.1054 C   0  0  0  0  0  0
  -25.5928  -33.8581   24.2279 N   0  0  0  0  0  0
  -23.4140  -30.4844   21.5469 C   0  0  2  0  0  0
  -24.8584  -28.9431   20.1129 C   0  0  0  0  0  0
  -22.7443  -29.4618   22.4953 C   0  0  0  0  0  0
  -18.0277  -28.1395   22.8523 C   0  0  0  0  0  0
  -24.1466  -36.7266   23.2638 C   0  0  0  0  0  0
  -25.9530  -30.8005   21.3703 C   0  0  0  0  0  0
  -26.0237  -29.4306   20.7131 C   0  0  0  0  0  0
  -27.2090  -28.6455   20.6997 C   0  0  0  0  0  0
  -26.0326  -26.8995   19.4958 C   0  0  0  0  0  0
  -24.8610  -27.6806   19.4987 C   0  0  0  0  0  0
  -23.6264  -29.8194   20.1611 C   0  0  0  0  0  0
  -25.4098  -36.3088   24.0340 C   0  0  1  0  0  0
  -20.5879  -28.3674   23.1326 C   0  0  2  0  0  0
  -20.6778  -26.9403   22.5433 C   0  0  0  0  0  0
  -19.5752  -26.6395   21.5237 C   0  0  0  0  0  0
  -18.1927  -26.7951   22.1638 C   0  0  0  0  0  0
  -19.1536  -28.8845   23.2918 C   0  0  0  0  0  0
  -18.9465  -30.1453   23.8925 C   0  0  0  0  0  0
  -17.6471  -30.6609   24.0567 C   0  0  0  0  0  0
  -25.9051  -34.9462   23.5108 C   0  0  0  0  0  0
  -16.5349  -29.9120   23.6340 C   0  0  0  0  0  0
  -16.7265  -28.6525   23.0379 C   0  0  0  0  0  0
  -26.4503  -31.6599   25.0703 C   0  0  0  0  0  0
  -25.3776  -31.3736   26.1454 C   0  0  0  0  0  0
  -27.0356  -30.3042   24.6130 C   0  0  0  0  0  0
  -27.6054  -32.4339   25.7476 C   0  0  0  0  0  0
  -27.5567  -37.1783   24.8477 C   0  0  0  0  0  0
  -21.4156  -29.3020   22.3713 N   0  0  0  0  0  0
  -26.4272  -37.3788   23.9437 N   0  0  0  0  0  0
  -24.6821  -31.0644   22.0984 N   0  0  0  0  0  0
  -23.4200  -28.8156   23.3004 O   0  0  0  0  0  0
  -28.3794  -26.5659   20.1391 O   0  0  0  0  0  0
  -26.5604  -34.8930   22.4670 O   0  0  0  0  0  0
  -23.5401  -32.1368   23.7415 O   0  0  0  0  0  0
  -27.7814  -22.2507   22.7121 C   0  0  0  0  0  0
  -29.5222  -22.8696   21.2384 C   0  0  2  0  0  0
  -28.2304  -21.9815   21.2696 C   0  0  1  0  0  0
  -30.1170  -22.6847   22.6763 C   0  0  2  0  0  0
  -32.6068  -22.7089   22.1340 C   0  0  0  0  0  0
  -31.8369  -21.4855   24.1957 C   0  0  0  0  0  0
  -28.5641  -24.6700   18.5917 C   0  0  0  0  0  0
  -26.9196  -20.0575   20.7410 C   0  0  0  0  0  0
  -29.3136  -24.4472   21.0424 C   0  0  0  0  0  0
  -29.1809  -18.1057   21.0081 C   0  0  0  0  0  0
  -30.2819  -17.0760   20.5656 C   0  0  0  0  0  0
  -29.2822  -19.6222   20.5374 C   0  0  0  0  0  0
  -31.4532  -21.8967   22.7574 C   0  0  0  0  0  0
  -28.3009  -25.1012   20.0410 C   0  0  1  0  0  0
  -29.9267  -15.6496   20.8352 N   0  0  0  0  0  0
  -28.2529  -20.4742   21.1974 N   0  0  0  0  0  0
  -29.0270  -22.0822   23.4713 N   0  3  0  0  0  0
  -31.4681  -12.4507   19.1511 H   0  0  0  0  0  0
  -30.3282  -11.3530   19.8825 H   0  0  0  0  0  0
  -29.7619  -11.7765   17.4563 H   0  0  0  0  0  0
  -29.6653  -13.4931   17.7715 H   0  0  0  0  0  0
  -27.8464  -11.3071   18.8398 H   0  0  0  0  0  0
  -27.3770  -12.6083   17.7824 H   0  0  0  0  0  0
  -27.6753  -14.2635   19.5355 H   0  0  0  0  0  0
  -28.6819  -12.0545   21.3948 H   0  0  0  0  0  0
  -28.4519  -13.7230   21.8362 H   0  0  0  0  0  0
  -25.2742   -9.5691   22.4796 H   0  0  0  0  0  0
  -24.0018   -7.4629   22.7453 H   0  0  0  0  0  0
  -21.0873   -8.8787   19.8956 H   0  0  0  0  0  0
  -22.3725  -10.9688   19.6205 H   0  0  0  0  0  0
  -21.2000   -7.6164   23.9752 H   0  0  0  0  0  0
  -21.1503   -6.0527   25.9101 H   0  0  0  0  0  0
  -22.0590   -2.7634   23.2829 H   0  0  0  0  0  0
  -22.4009  -11.9912   22.4832 H   0  0  0  0  0  0
  -21.1070  -13.1284   22.2581 H   0  0  0  0  0  0
  -24.6574  -15.8422   20.5164 H   0  0  0  0  0  0
  -26.2746  -15.6288   20.0696 H   0  0  0  0  0  0
  -26.7143  -32.5461   23.1080 H   0  0  0  0  0  0
  -25.0126  -33.9712   25.0456 H   0  0  0  0  0  0
  -22.7065  -31.3043   21.4048 H   0  0  0  0  0  0
  -23.3756  -35.9570   23.3314 H   0  0  0  0  0  0
  -24.3557  -36.8864   22.2050 H   0  0  0  0  0  0
  -23.7189  -37.6457   23.6650 H   0  0  0  0  0  0
  -26.0777  -31.5684   20.6045 H   0  0  0  0  0  0
  -26.8367  -30.8473   21.9967 H   0  0  0  0  0  0
  -28.1081  -29.0159   21.1703 H   0  0  0  0  0  0
  -25.9810  -25.9342   19.0171 H   0  0  0  0  0  0
  -23.9651  -27.2960   19.0292 H   0  0  0  0  0  0
  -23.7500  -30.5957   19.4055 H   0  0  0  0  0  0
  -22.7481  -29.2486   19.8552 H   0  0  0  0  0  0
  -25.1280  -36.1923   25.0832 H   0  0  0  0  0  0
  -20.9957  -28.3234   24.1450 H   0  0  0  0  0  0
  -20.5720  -26.2248   23.3611 H   0  0  0  0  0  0
  -21.6643  -26.7475   22.1190 H   0  0  0  0  0  0
  -19.6909  -25.6316   21.1250 H   0  0  0  0  0  0
  -19.6712  -27.3227   20.6799 H   0  0  0  0  0  0
  -17.4197  -26.6714   21.4033 H   0  0  0  0  0  0
  -18.0304  -26.0085   22.9026 H   0  0  0  0  0  0
  -19.7931  -30.7266   24.2301 H   0  0  0  0  0  0
  -17.5026  -31.6300   24.5155 H   0  0  0  0  0  0
  -15.5353  -30.3035   23.7665 H   0  0  0  0  0  0
  -15.8657  -28.0850   22.7115 H   0  0  0  0  0  0
  -24.5939  -30.7091   25.7807 H   0  0  0  0  0  0
  -24.8986  -32.2907   26.4883 H   0  0  0  0  0  0
  -25.8126  -30.8921   27.0212 H   0  0  0  0  0  0
  -26.2931  -29.6777   24.1184 H   0  0  0  0  0  0
  -27.4117  -29.7299   25.4595 H   0  0  0  0  0  0
  -27.8749  -30.4337   23.9305 H   0  0  0  0  0  0
  -27.2658  -33.3627   26.2047 H   0  0  0  0  0  0
  -28.3871  -32.6903   25.0334 H   0  0  0  0  0  0
  -28.0711  -31.8476   26.5390 H   0  0  0  0  0  0
  -28.2596  -38.0067   24.7543 H   0  0  0  0  0  0
  -28.1044  -36.2608   24.6285 H   0  0  0  0  0  0
  -27.2288  -37.1414   25.8876 H   0  0  0  0  0  0
  -20.9323  -29.8719   21.6919 H   0  0  0  0  0  0
  -26.0148  -38.2846   24.1493 H   0  0  0  0  0  0
  -26.9963  -21.5909   23.0848 H   0  0  0  0  0  0
  -27.4121  -23.2721   22.8148 H   0  0  0  0  0  0
  -30.1998  -22.5103   20.4651 H   0  0  0  0  0  0
  -27.5176  -22.3752   20.5415 H   0  0  0  0  0  0
  -30.3139  -23.6520   23.1416 H   0  0  0  0  0  0
  -32.4260  -22.9368   21.0839 H   0  0  0  0  0  0
  -33.5459  -22.1589   22.1817 H   0  0  0  0  0  0
  -32.7546  -23.6560   22.6562 H   0  0  0  0  0  0
  -31.1356  -20.7645   24.6152 H   0  0  0  0  0  0
  -31.8742  -22.3454   24.8645 H   0  0  0  0  0  0
  -32.8169  -21.0065   24.2233 H   0  0  0  0  0  0
  -28.5075  -23.5856   18.4888 H   0  0  0  0  0  0
  -29.5510  -24.9846   18.2534 H   0  0  0  0  0  0
  -27.8308  -25.0990   17.9095 H   0  0  0  0  0  0
  -26.6884  -19.0214   20.9813 H   0  0  0  0  0  0
  -26.8278  -20.1852   19.6619 H   0  0  0  0  0  0
  -26.1251  -20.6476   21.2012 H   0  0  0  0  0  0
  -30.2981  -24.8720   20.8428 H   0  0  0  0  0  0
  -29.0252  -24.8828   21.9984 H   0  0  0  0  0  0
  -29.1275  -18.0787   22.0987 H   0  0  0  0  0  0
  -28.2385  -17.6969   20.6508 H   0  0  0  0  0  0
  -31.2296  -17.3115   21.0534 H   0  0  0  0  0  0
  -30.4657  -17.1819   19.4945 H   0  0  0  0  0  0
  -29.1787  -19.6916   19.4514 H   0  0  0  0  0  0
  -30.2813  -19.9861   20.7540 H   0  0  0  0  0  0
  -31.3624  -20.9773   22.1860 H   0  0  0  0  0  0
  -27.3073  -24.7615   20.3339 H   0  0  0  0  0  0
  -28.9907  -15.4601   21.1583 H   0  0  0  0  0  0
  -29.1828  -21.0880   23.5169 H   0  0  0  0  0  0
  -28.9589  -22.4580   24.4038 H   0  0  0  0  0  0
  1 25  1  0  0  0
  1 30  2  0  0  0
  1 85  1  0  0  0
  2  3  1  0  0  0
  2 25  1  0  0  0
  2 88  1  0  0  0
  2 89  1  0  0  0
  3  4  1  0  0  0
  3 90  1  0  0  0
  3 91  1  0  0  0
  4  5  1  0  0  0
  4 92  1  0  0  0
  4 93  1  0  0  0
  5  6  1  0  0  0
  5 26  1  0  0  0
  5 94  1  0  0  0
  6 25  1  0  0  0
  6 95  1  0  0  0
  6 96  1  0  0  0
  7  8  2  0  0  0
  7 26  1  0  0  0
  7 29  1  0  0  0
  8  9  1  0  0  0
  8 22  1  0  0  0
  9 10  1  0  0  0
  9 27  2  0  0  0
 10 11  2  0  0  0
 10 15  1  0  0  0
 11 12  1  0  0  0
 11 97  1  0  0  0
 12 13  2  0  0  0
 12 98  1  0  0  0
 13 14  1  0  0  0
 13 31  1  0  0  0
 14 15  2  0  0  0
 14 99  1  0  0  0
 15100  1  0  0  0
 16 17  2  0  0  0
 16 21  1  0  0  0
 16 31  1  0  0  0
 17 18  1  0  0  0
 17101  1  0  0  0
 18 19  2  0  0  0
 18102  1  0  0  0
 19 20  1  0  0  0
 19 24  1  0  0  0
 20 21  2  0  0  0
 20103  1  0  0  0
 21 23  1  0  0  0
 22 28  1  0  0  0
 22 32  2  0  0  0
 26 27  1  0  0  0
 28104  1  0  0  0
 28105  1  0  0  0
 29106  1  0  0  0
 29107  1  0  0  0
 33 34  1  0  0  0
 33 66  1  0  0  0
 33 70  2  0  0  0
 34 36  1  0  0  0
 34 59  1  0  0  0
 34108  1  0  0  0
 35 44  2  0  0  0
 35 45  1  0  0  0
 35 68  1  0  0  0
 36 56  1  0  0  0
 36109  1  0  0  0
 37 39  1  0  0  0
 37 47  1  0  0  0
 37 66  1  0  0  0
 37110  1  0  0  0
 38 43  2  0  0  0
 38 46  1  0  0  0
 38 47  1  0  0  0
 39 64  1  0  0  0
 39 67  2  0  0  0
 40 52  1  0  0  0
 40 53  2  0  0  0
 40 58  1  0  0  0
 41111  1  0  0  0
 41112  1  0  0  0
 41113  1  0  0  0
 41 48  1  0  0  0
 42 43  1  0  0  0
 42 66  1  0  0  0
 42114  1  0  0  0
 42115  1  0  0  0
 43 44  1  0  0  0
 44116  1  0  0  0
 45 46  2  0  0  0
 45117  1  0  0  0
 46118  1  0  0  0
 47119  1  0  0  0
 47120  1  0  0  0
 48 56  1  0  0  0
 48 65  1  0  0  0
 48121  1  0  0  0
 49 50  1  0  0  0
 49 53  1  0  0  0
 49 64  1  0  0  0
 49122  1  0  0  0
 50 51  1  0  0  0
 50123  1  0  0  0
 50124  1  0  0  0
 51 52  1  0  0  0
 51125  1  0  0  0
 51126  1  0  0  0
 52127  1  0  0  0
 52128  1  0  0  0
 53 54  1  0  0  0
 54 55  2  0  0  0
 54129  1  0  0  0
 55 57  1  0  0  0
 55130  1  0  0  0
 56 69  2  0  0  0
 57 58  2  0  0  0
 57131  1  0  0  0
 58132  1  0  0  0
 59 60  1  0  0  0
 59 61  1  0  0  0
 59 62  1  0  0  0
 60133  1  0  0  0
 60134  1  0  0  0
 60135  1  0  0  0
 61136  1  0  0  0
 61137  1  0  0  0
 61138  1  0  0  0
 62139  1  0  0  0
 62140  1  0  0  0
 62141  1  0  0  0
 63 65  1  0  0  0
 63142  1  0  0  0
 63143  1  0  0  0
 63144  1  0  0  0
 64145  1  0  0  0
 65146  1  0  0  0
 68 84  1  0  0  0
 71 73  1  0  0  0
 71 87  1  0  0  0
 71147  1  0  0  0
 71148  1  0  0  0
 72 73  1  0  0  0
 72 74  1  0  0  0
 72 79  1  0  0  0
 72149  1  0  0  0
 73 86  1  0  0  0
 73150  1  0  0  0
 74 83  1  0  0  0
 74 87  1  0  0  0
 74151  1  0  0  0
 75152  1  0  0  0
 75153  1  0  0  0
 75154  1  0  0  0
 75 83  1  0  0  0
 76 83  1  0  0  0
 76155  1  0  0  0
 76156  1  0  0  0
 76157  1  0  0  0
 77158  1  0  0  0
 77159  1  0  0  0
 77160  1  0  0  0
 77 84  1  0  0  0
 78 86  1  0  0  0
 78161  1  0  0  0
 78162  1  0  0  0
 78163  1  0  0  0
 79 84  1  0  0  0
 79164  1  0  0  0
 79165  1  0  0  0
 80 81  1  0  0  0
 80 82  1  0  0  0
 80166  1  0  0  0
 80167  1  0  0  0
 81 85  1  0  0  0
 81168  1  0  0  0
 81169  1  0  0  0
 82 86  1  0  0  0
 82170  1  0  0  0
 82171  1  0  0  0
 83172  1  0  0  0
 84173  1  0  0  0
 85174  1  0  0  0
 87175  1  0  0  0
 87176  1  0  0  0
M  CHG  1  87   1
M  ISO  4   1 100  68 101  84 101  85 100
M  END
> <chiral flag>
0

> <version>
0

> <s_m_source_file>
/data/baiqing/PycharmProjects/Reinvent-master-3.2/result/LINK_invent/BTK/process_docking_weight1_custom_sum_contain_oxygen_bond_distance_aromatic_linkinvent_7_9_3/rearranged_h_0123.sdf

> <i_m_source_file_index>
80

> <r_mmod_Potential_Energy-OPLS-2005>
-7.32849597930908

> <r_mmod_Stretch_Energy-OPLS-2005>
71.379638671875

> <r_mmod_Bend_Energy-OPLS-2005>
208.971618652344

> <r_mmod_Torsional_Energy-OPLS-2005>
294.185150146484

> <r_mmod_Improper_Torsional_Energy-OPLS-2005>
5.37100172042847

> <r_mmod_Van_der_Waal_Energy-OPLS-2005>
134.265533447266

> <r_mmod_Electrostatic_Energy-OPLS-2005>
-321.309417724609

> <r_mmod_Solvation_Energy-OPLS-2005>
-430.893157958984

> <b_mmod_Minimization_Converged-OPLS-2005>
0

> <r_mmod_RMS_Derivative-OPLS-2005>
3.7566978931427

$$$$
80
                    3D
 Structure written by MMmdl.
182191  0  0  1  0            999 V2000
  -30.6977  -14.5135   20.5219 C   0  0  0  0  0  0
  -30.4221  -12.3206   19.4338 C   0  0  0  0  0  0
  -29.4994  -12.4991   18.2109 C   0  0  0  0  0  0
  -28.0204  -12.3542   18.6224 C   0  0  0  0  0  0
  -27.6583  -13.2081   19.8666 C   0  0  2  0  0  0
  -28.7029  -13.0338   20.9937 C   0  0  0  0  0  0
  -25.2576  -13.8152   20.5670 C   0  0  0  0  0  0
  -24.1832  -13.0430   20.9179 C   0  0  0  0  0  0
  -24.6392  -11.6900   20.8727 C   0  0  0  0  0  0
  -23.9051  -10.4291   21.0400 C   0  0  0  0  0  0
  -24.3600   -9.4207   21.9184 C   0  0  0  0  0  0
  -23.6282   -8.2239   22.0763 C   0  0  0  0  0  0
  -22.4258   -8.0273   21.3551 C   0  0  0  0  0  0
  -21.9896   -9.0249   20.4658 C   0  0  0  0  0  0
  -22.7221  -10.2124   20.3058 C   0  0  0  0  0  0
  -21.6858   -6.0724   22.5279 C   0  0  0  0  0  0
  -21.4013   -6.5633   23.8208 C   0  0  0  0  0  0
  -21.3659   -5.6784   24.9170 C   0  0  0  0  0  0
  -21.6048   -4.3049   24.7227 C   0  0  0  0  0  0
  -21.8818   -3.8140   23.4351 C   0  0  0  0  0  0
  -21.9198   -4.6952   22.3403 C   0  0  0  0  0  0
  -22.7856  -13.5238   21.1832 C   0  0  0  0  0  0
  -22.1662   -4.2140   21.0983 F   0  0  0  0  0  0
  -21.5631   -3.4535   25.7745 F   0  0  0  0  0  0
  -30.0296  -13.3304   20.4305 N   0  0  0  0  0  0
  -26.3011  -12.9331   20.3333 N   0  0  0  0  0  0
  -25.9319  -11.6487   20.5753 N   0  0  0  0  0  0
  -22.0473  -12.8244   22.0377 N   0  0  0  0  0  0
  -25.4266  -15.1871   20.4057 N   0  0  0  0  0  0
  -31.8508  -14.6567   20.1103 O   0  0  0  0  0  0
  -21.6636   -6.8860   21.4242 O   0  0  0  0  0  0
  -22.3555  -14.5551   20.6687 O   0  0  0  0  0  0
  -24.6168  -31.8654   23.2081 C   0  0  0  0  0  0
  -25.9051  -32.4804   23.8379 C   0  0  1  0  0  0
  -27.2382  -27.4090   20.0872 C   0  0  0  0  0  0
  -25.5893  -33.8608   24.2313 N   0  0  0  0  0  0
  -23.4055  -30.4882   21.5495 C   0  0  2  0  0  0
  -24.8512  -28.9492   20.1129 C   0  0  0  0  0  0
  -22.7422  -29.4641   22.4994 C   0  0  0  0  0  0
  -18.0270  -28.1380   22.8488 C   0  0  0  0  0  0
  -24.1481  -36.7311   23.2639 C   0  0  0  0  0  0
  -25.9362  -30.8187   21.3671 C   0  0  0  0  0  0
  -26.0102  -29.4491   20.7172 C   0  0  0  0  0  0
  -27.1989  -28.6816   20.7110 C   0  0  0  0  0  0
  -26.0587  -26.9346   19.4659 C   0  0  0  0  0  0
  -24.8706  -27.6907   19.4875 C   0  0  0  0  0  0
  -23.6147  -29.8190   20.1640 C   0  0  0  0  0  0
  -25.4100  -36.3108   24.0341 C   0  0  1  0  0  0
  -20.5861  -28.3659   23.1323 C   0  0  2  0  0  0
  -20.6758  -26.9392   22.5421 C   0  0  0  0  0  0
  -19.5740  -26.6384   21.5211 C   0  0  0  0  0  0
  -18.1916  -26.7930   22.1611 C   0  0  0  0  0  0
  -19.1518  -28.8836   23.2900 C   0  0  0  0  0  0
  -18.9450  -30.1447   23.8906 C   0  0  0  0  0  0
  -17.6452  -30.6587   24.0562 C   0  0  0  0  0  0
  -25.9025  -34.9467   23.5125 C   0  0  0  0  0  0
  -16.5339  -29.9084   23.6330 C   0  0  0  0  0  0
  -16.7258  -28.6503   23.0349 C   0  0  0  0  0  0
  -26.4474  -31.6594   25.0720 C   0  0  0  0  0  0
  -25.3741  -31.3705   26.1479 C   0  0  0  0  0  0
  -27.0289  -30.3031   24.6098 C   0  0  0  0  0  0
  -27.6040  -32.4315   25.7491 C   0  0  0  0  0  0
  -27.5578  -37.1808   24.8463 C   0  0  0  0  0  0
  -21.4146  -29.3029   22.3740 N   0  0  0  0  0  0
  -26.4287  -37.3787   23.9411 N   0  0  0  0  0  0
  -24.6711  -31.0727   22.0997 N   0  0  0  0  0  0
  -23.4185  -28.8184   23.3043 O   0  0  0  0  0  0
  -28.4161  -26.6772   20.1311 O   0  0  0  0  0  0
  -26.5590  -34.8927   22.4690 O   0  0  0  0  0  0
  -23.5353  -32.1422   23.7455 O   0  0  0  0  0  0
  -30.6963  -19.7305   19.3603 C   0  0  0  0  0  0
  -31.0757  -21.0382   19.0439 C   0  0  0  0  0  0
  -28.8172  -20.6473   20.5968 C   0  0  0  0  0  0
  -29.5691  -19.4919   20.1714 C   0  0  0  0  0  0
  -29.3313  -21.9541   20.2716 C   0  0  0  0  0  0
  -27.5856  -20.7204   22.8802 C   0  0  0  0  0  0
  -25.6407  -21.7456   22.2121 C   0  0  0  0  0  0
  -27.4996  -20.4633   21.3756 C   0  0  1  0  0  0
  -26.2606  -21.2450   20.8958 C   0  0  1  0  0  0
  -28.2372  -17.5116   19.3606 C   0  0  0  0  0  0
  -23.0914  -20.1696   19.0931 C   0  0  0  0  0  0
  -24.8894  -21.5581   17.9813 C   0  0  0  0  0  0
  -28.7962  -23.3160   20.7821 C   0  0  0  0  0  0
  -27.9909  -24.1703   19.7550 C   0  0  0  0  0  0
  -30.3672  -17.0043   20.6798 C   0  0  0  0  0  0
  -28.6056  -25.5243   19.2847 C   0  0  0  0  0  0
  -29.1789  -18.0094   20.4682 C   0  0  1  0  0  0
  -24.3079  -21.0804   19.3258 C   0  0  0  0  0  0
  -30.4236  -22.1196   19.5013 N   0  0  0  0  0  0
  -26.1809  -20.8629   23.2400 N   0  0  0  0  0  0
  -29.9638  -15.5881   20.8873 N   0  0  0  0  0  0
  -25.3303  -20.3781   20.1386 N   0  3  0  0  0  0
  -31.4688  -12.4089   19.1357 H   0  0  0  0  0  0
  -30.3160  -11.3188   19.8512 H   0  0  0  0  0  0
  -29.7468  -11.7667   17.4409 H   0  0  0  0  0  0
  -29.6668  -13.4797   17.7622 H   0  0  0  0  0  0
  -27.8371  -11.2999   18.8306 H   0  0  0  0  0  0
  -27.3712  -12.6147   17.7861 H   0  0  0  0  0  0
  -27.6897  -14.2458   19.5408 H   0  0  0  0  0  0
  -28.6873  -12.0124   21.3790 H   0  0  0  0  0  0
  -28.4697  -13.6761   21.8438 H   0  0  0  0  0  0
  -25.2738   -9.5706   22.4748 H   0  0  0  0  0  0
  -24.0002   -7.4645   22.7483 H   0  0  0  0  0  0
  -21.0830   -8.8769   19.8963 H   0  0  0  0  0  0
  -22.3680  -10.9659   19.6161 H   0  0  0  0  0  0
  -21.1998   -7.6140   23.9702 H   0  0  0  0  0  0
  -21.1478   -6.0516   25.9067 H   0  0  0  0  0  0
  -22.0599   -2.7606   23.2854 H   0  0  0  0  0  0
  -22.4040  -11.9894   22.4779 H   0  0  0  0  0  0
  -21.1101  -13.1316   22.2563 H   0  0  0  0  0  0
  -24.6506  -15.8320   20.4970 H   0  0  0  0  0  0
  -26.2666  -15.6187   20.0471 H   0  0  0  0  0  0
  -26.7120  -32.5502   23.1131 H   0  0  0  0  0  0
  -25.0060  -33.9761   25.0469 H   0  0  0  0  0  0
  -22.6946  -31.3056   21.4087 H   0  0  0  0  0  0
  -23.3743  -35.9644   23.3311 H   0  0  0  0  0  0
  -24.3572  -36.8914   22.2050 H   0  0  0  0  0  0
  -23.7232  -37.6521   23.6643 H   0  0  0  0  0  0
  -26.0524  -31.5797   20.5940 H   0  0  0  0  0  0
  -26.8238  -30.8743   21.9853 H   0  0  0  0  0  0
  -28.0919  -29.0620   21.1875 H   0  0  0  0  0  0
  -26.0298  -25.9793   18.9640 H   0  0  0  0  0  0
  -23.9796  -27.3018   19.0138 H   0  0  0  0  0  0
  -23.7230  -30.5919   19.4016 H   0  0  0  0  0  0
  -22.7380  -29.2384   19.8713 H   0  0  0  0  0  0
  -25.1275  -36.1970   25.0835 H   0  0  0  0  0  0
  -20.9946  -28.3218   24.1444 H   0  0  0  0  0  0
  -20.5656  -26.2262   23.3606 H   0  0  0  0  0  0
  -21.6633  -26.7435   22.1221 H   0  0  0  0  0  0
  -19.6898  -25.6296   21.1240 H   0  0  0  0  0  0
  -19.6690  -27.3201   20.6746 H   0  0  0  0  0  0
  -17.4194  -26.6696   21.4001 H   0  0  0  0  0  0
  -18.0296  -26.0064   22.8998 H   0  0  0  0  0  0
  -19.7930  -30.7262   24.2277 H   0  0  0  0  0  0
  -17.5010  -31.6274   24.5156 H   0  0  0  0  0  0
  -15.5337  -30.2986   23.7656 H   0  0  0  0  0  0
  -15.8657  -28.0824   22.7054 H   0  0  0  0  0  0
  -24.5916  -30.7039   25.7845 H   0  0  0  0  0  0
  -24.8928  -32.2856   26.4933 H   0  0  0  0  0  0
  -25.8115  -30.8891   27.0233 H   0  0  0  0  0  0
  -26.2821  -29.6810   24.1151 H   0  0  0  0  0  0
  -27.4056  -29.7252   25.4547 H   0  0  0  0  0  0
  -27.8668  -30.4345   23.9245 H   0  0  0  0  0  0
  -27.2657  -33.3614   26.2076 H   0  0  0  0  0  0
  -28.3851  -32.6875   25.0320 H   0  0  0  0  0  0
  -28.0710  -31.8436   26.5401 H   0  0  0  0  0  0
  -28.2598  -38.0102   24.7508 H   0  0  0  0  0  0
  -28.1064  -36.2631   24.6275 H   0  0  0  0  0  0
  -27.2304  -37.1467   25.8869 H   0  0  0  0  0  0
  -20.9304  -29.8760   21.6972 H   0  0  0  0  0  0
  -26.0180  -38.2871   24.1399 H   0  0  0  0  0  0
  -31.2828  -18.9266   18.9443 H   0  0  0  0  0  0
  -31.9341  -21.2247   18.4167 H   0  0  0  0  0  0
  -28.1279  -21.6337   23.1247 H   0  0  0  0  0  0
  -28.0667  -19.9001   23.4148 H   0  0  0  0  0  0
  -24.5496  -21.7547   22.2101 H   0  0  0  0  0  0
  -25.9698  -22.7670   22.4127 H   0  0  0  0  0  0
  -27.2037  -19.4221   21.3033 H   0  0  0  0  0  0
  -26.5217  -22.0872   20.2680 H   0  0  0  0  0  0
  -27.3713  -18.1615   19.2501 H   0  0  0  0  0  0
  -27.8630  -16.5125   19.5654 H   0  0  0  0  0  0
  -28.7502  -17.4797   18.3994 H   0  0  0  0  0  0
  -22.3227  -20.6873   18.5174 H   0  0  0  0  0  0
  -22.6347  -19.8605   20.0343 H   0  0  0  0  0  0
  -23.3626  -19.2701   18.5392 H   0  0  0  0  0  0
  -24.1320  -22.0819   17.3967 H   0  0  0  0  0  0
  -25.2397  -20.7202   17.3772 H   0  0  0  0  0  0
  -25.7234  -22.2478   18.1099 H   0  0  0  0  0  0
  -29.6465  -23.9001   21.1367 H   0  0  0  0  0  0
  -28.1949  -23.1787   21.6745 H   0  0  0  0  0  0
  -26.9949  -24.3517   20.1572 H   0  0  0  0  0  0
  -27.8307  -23.5597   18.8657 H   0  0  0  0  0  0
  -30.9749  -17.3242   21.5273 H   0  0  0  0  0  0
  -31.0215  -17.0320   19.8104 H   0  0  0  0  0  0
  -28.2389  -25.7639   18.2856 H   0  0  0  0  0  0
  -29.6800  -25.3889   19.1540 H   0  0  0  0  0  0
  -28.6521  -17.9760   21.4199 H   0  0  0  0  0  0
  -23.9571  -21.9521   19.8812 H   0  0  0  0  0  0
  -26.0900  -21.2840   24.1630 H   0  0  0  0  0  0
  -29.0248  -15.4118   21.2095 H   0  0  0  0  0  0
  -24.8747  -19.7919   20.8198 H   0  0  0  0  0  0
  -25.8677  -19.7855   19.5280 H   0  0  0  0  0  0
  1 25  1  0  0  0
  1 30  2  0  0  0
  1 91  1  0  0  0
  2  3  1  0  0  0
  2 25  1  0  0  0
  2 93  1  0  0  0
  2 94  1  0  0  0
  3  4  1  0  0  0
  3 95  1  0  0  0
  3 96  1  0  0  0
  4  5  1  0  0  0
  4 97  1  0  0  0
  4 98  1  0  0  0
  5  6  1  0  0  0
  5 26  1  0  0  0
  5 99  1  0  0  0
  6 25  1  0  0  0
  6100  1  0  0  0
  6101  1  0  0  0
  7  8  2  0  0  0
  7 26  1  0  0  0
  7 29  1  0  0  0
  8  9  1  0  0  0
  8 22  1  0  0  0
  9 10  1  0  0  0
  9 27  2  0  0  0
 10 11  2  0  0  0
 10 15  1  0  0  0
 11 12  1  0  0  0
 11102  1  0  0  0
 12 13  2  0  0  0
 12103  1  0  0  0
 13 14  1  0  0  0
 13 31  1  0  0  0
 14 15  2  0  0  0
 14104  1  0  0  0
 15105  1  0  0  0
 16 17  2  0  0  0
 16 21  1  0  0  0
 16 31  1  0  0  0
 17 18  1  0  0  0
 17106  1  0  0  0
 18 19  2  0  0  0
 18107  1  0  0  0
 19 20  1  0  0  0
 19 24  1  0  0  0
 20 21  2  0  0  0
 20108  1  0  0  0
 21 23  1  0  0  0
 22 28  1  0  0  0
 22 32  2  0  0  0
 26 27  1  0  0  0
 28109  1  0  0  0
 28110  1  0  0  0
 29111  1  0  0  0
 29112  1  0  0  0
 33 34  1  0  0  0
 33 66  1  0  0  0
 33 70  2  0  0  0
 34 36  1  0  0  0
 34 59  1  0  0  0
 34113  1  0  0  0
 35 44  2  0  0  0
 35 45  1  0  0  0
 35 68  1  0  0  0
 36 56  1  0  0  0
 36114  1  0  0  0
 37 39  1  0  0  0
 37 47  1  0  0  0
 37 66  1  0  0  0
 37115  1  0  0  0
 38 43  2  0  0  0
 38 46  1  0  0  0
 38 47  1  0  0  0
 39 64  1  0  0  0
 39 67  2  0  0  0
 40 52  1  0  0  0
 40 53  2  0  0  0
 40 58  1  0  0  0
 41116  1  0  0  0
 41117  1  0  0  0
 41118  1  0  0  0
 41 48  1  0  0  0
 42 43  1  0  0  0
 42 66  1  0  0  0
 42119  1  0  0  0
 42120  1  0  0  0
 43 44  1  0  0  0
 44121  1  0  0  0
 45 46  2  0  0  0
 45122  1  0  0  0
 46123  1  0  0  0
 47124  1  0  0  0
 47125  1  0  0  0
 48 56  1  0  0  0
 48 65  1  0  0  0
 48126  1  0  0  0
 49 50  1  0  0  0
 49 53  1  0  0  0
 49 64  1  0  0  0
 49127  1  0  0  0
 50 51  1  0  0  0
 50128  1  0  0  0
 50129  1  0  0  0
 51 52  1  0  0  0
 51130  1  0  0  0
 51131  1  0  0  0
 52132  1  0  0  0
 52133  1  0  0  0
 53 54  1  0  0  0
 54 55  2  0  0  0
 54134  1  0  0  0
 55 57  1  0  0  0
 55135  1  0  0  0
 56 69  2  0  0  0
 57 58  2  0  0  0
 57136  1  0  0  0
 58137  1  0  0  0
 59 60  1  0  0  0
 59 61  1  0  0  0
 59 62  1  0  0  0
 60138  1  0  0  0
 60139  1  0  0  0
 60140  1  0  0  0
 61141  1  0  0  0
 61142  1  0  0  0
 61143  1  0  0  0
 62144  1  0  0  0
 62145  1  0  0  0
 62146  1  0  0  0
 63 65  1  0  0  0
 63147  1  0  0  0
 63148  1  0  0  0
 63149  1  0  0  0
 64150  1  0  0  0
 65151  1  0  0  0
 68 86  1  0  0  0
 71 72  2  0  0  0
 71 74  1  0  0  0
 71152  1  0  0  0
 72 89  1  0  0  0
 72153  1  0  0  0
 73 74  2  0  0  0
 73 75  1  0  0  0
 73 78  1  0  0  0
 74 87  1  0  0  0
 75 83  1  0  0  0
 75 89  2  0  0  0
 76 78  1  0  0  0
 76 90  1  0  0  0
 76154  1  0  0  0
 76155  1  0  0  0
 77 79  1  0  0  0
 77 90  1  0  0  0
 77156  1  0  0  0
 77157  1  0  0  0
 78 79  1  0  0  0
 78158  1  0  0  0
 79 92  1  0  0  0
 79159  1  0  0  0
 80160  1  0  0  0
 80161  1  0  0  0
 80162  1  0  0  0
 80 87  1  0  0  0
 81163  1  0  0  0
 81164  1  0  0  0
 81165  1  0  0  0
 81 88  1  0  0  0
 82 88  1  0  0  0
 82166  1  0  0  0
 82167  1  0  0  0
 82168  1  0  0  0
 83 84  1  0  0  0
 83169  1  0  0  0
 83170  1  0  0  0
 84 86  1  0  0  0
 84171  1  0  0  0
 84172  1  0  0  0
 85 87  1  0  0  0
 85 91  1  0  0  0
 85173  1  0  0  0
 85174  1  0  0  0
 86175  1  0  0  0
 86176  1  0  0  0
 87177  1  0  0  0
 88 92  1  0  0  0
 88178  1  0  0  0
 90179  1  0  0  0
 91180  1  0  0  0
 92181  1  0  0  0
 92182  1  0  0  0
M  CHG  1  92   1
M  ISO  4   1 100  68 101  86 101  91 100
M  END
> <chiral flag>
0

> <version>
0

> <s_m_source_file>
/data/baiqing/PycharmProjects/Reinvent-master-3.2/result/LINK_invent/BTK/process_docking_weight1_custom_sum_contain_oxygen_bond_distance_aromatic_linkinvent_7_9_3/rearranged_h_0123.sdf

> <i_m_source_file_index>
81

> <r_mmod_Potential_Energy-OPLS-2005>
-308.69140625

> <r_mmod_Stretch_Energy-OPLS-2005>
54.9353942871094

> <r_mmod_Bend_Energy-OPLS-2005>
151.106918334961

> <r_mmod_Torsional_Energy-OPLS-2005>
281.109710693359

> <r_mmod_Improper_Torsional_Energy-OPLS-2005>
5.30167531967163

> <r_mmod_Van_der_Waal_Energy-OPLS-2005>
148.697158813477

> <r_mmod_Electrostatic_Energy-OPLS-2005>
-491.027496337891

> <r_mmod_Solvation_Energy-OPLS-2005>
-478.240905761719

> <b_mmod_Minimization_Converged-OPLS-2005>
0

> <r_mmod_RMS_Derivative-OPLS-2005>
1.78582751750946

$$$$
81
                    3D
 Structure written by MMmdl.
167175  0  0  1  0            999 V2000
  -30.5785  -14.7636   20.4519 C   0  0  0  0  0  0
  -30.4497  -12.4734   19.4670 C   0  0  0  0  0  0
  -29.5127  -12.4899   18.2373 C   0  0  0  0  0  0
  -28.0427  -12.3002   18.6634 C   0  0  0  0  0  0
  -27.6412  -13.2200   19.8432 C   0  0  2  0  0  0
  -28.6840  -13.1701   20.9789 C   0  0  0  0  0  0
  -25.2507  -13.8165   20.5661 C   0  0  0  0  0  0
  -24.1795  -13.0421   20.9207 C   0  0  0  0  0  0
  -24.6381  -11.6901   20.8764 C   0  0  0  0  0  0
  -23.9040  -10.4289   21.0440 C   0  0  0  0  0  0
  -24.3594   -9.4205   21.9213 C   0  0  0  0  0  0
  -23.6272   -8.2228   22.0764 C   0  0  0  0  0  0
  -22.4265   -8.0264   21.3540 C   0  0  0  0  0  0
  -21.9900   -9.0240   20.4646 C   0  0  0  0  0  0
  -22.7216  -10.2123   20.3068 C   0  0  0  0  0  0
  -21.6848   -6.0714   22.5267 C   0  0  0  0  0  0
  -21.4009   -6.5622   23.8194 C   0  0  0  0  0  0
  -21.3664   -5.6778   24.9158 C   0  0  0  0  0  0
  -21.6040   -4.3045   24.7229 C   0  0  0  0  0  0
  -21.8829   -3.8136   23.4350 C   0  0  0  0  0  0
  -21.9184   -4.6942   22.3393 C   0  0  0  0  0  0
  -22.7815  -13.5229   21.1855 C   0  0  0  0  0  0
  -22.1663   -4.2126   21.0976 F   0  0  0  0  0  0
  -21.5630   -3.4539   25.7746 F   0  0  0  0  0  0
  -29.9821  -13.5273   20.3928 N   0  0  0  0  0  0
  -26.2931  -12.9353   20.3250 N   0  0  0  0  0  0
  -25.9312  -11.6506   20.5771 N   0  0  0  0  0  0
  -22.0452  -12.8210   22.0411 N   0  0  0  0  0  0
  -25.4190  -15.1869   20.4023 N   0  0  0  0  0  0
  -31.7723  -14.8915   20.1679 O   0  0  0  0  0  0
  -21.6625   -6.8859   21.4229 O   0  0  0  0  0  0
  -22.3499  -14.5532   20.6719 O   0  0  0  0  0  0
  -24.6302  -31.8548   23.2069 C   0  0  0  0  0  0
  -25.9125  -32.4720   23.8388 C   0  0  1  0  0  0
  -27.2236  -27.2790   20.1228 C   0  0  0  0  0  0
  -25.5974  -33.8543   24.2333 N   0  0  0  0  0  0
  -23.4262  -30.4788   21.5487 C   0  0  2  0  0  0
  -24.8757  -28.9274   20.1112 C   0  0  0  0  0  0
  -22.7483  -29.4571   22.4924 C   0  0  0  0  0  0
  -18.0280  -28.1352   22.8483 C   0  0  0  0  0  0
  -24.1480  -36.7288   23.2648 C   0  0  0  0  0  0
  -25.9689  -30.7767   21.3771 C   0  0  0  0  0  0
  -26.0440  -29.3982   20.7200 C   0  0  0  0  0  0
  -27.2170  -28.5846   20.7172 C   0  0  0  0  0  0
  -26.0270  -26.8551   19.5060 C   0  0  0  0  0  0
  -24.8716  -27.6640   19.4976 C   0  0  0  0  0  0
  -23.6462  -29.8172   20.1593 C   0  0  0  0  0  0
  -25.4128  -36.3048   24.0306 C   0  0  1  0  0  0
  -20.5885  -28.3681   23.1255 C   0  0  2  0  0  0
  -20.6771  -26.9383   22.5388 C   0  0  0  0  0  0
  -19.5747  -26.6338   21.5188 C   0  0  0  0  0  0
  -18.1943  -26.7892   22.1577 C   0  0  0  0  0  0
  -19.1532  -28.8845   23.2847 C   0  0  0  0  0  0
  -18.9455  -30.1429   23.8878 C   0  0  0  0  0  0
  -17.6459  -30.6570   24.0562 C   0  0  0  0  0  0
  -25.9071  -34.9387   23.5099 C   0  0  0  0  0  0
  -16.5365  -29.9046   23.6332 C   0  0  0  0  0  0
  -16.7264  -28.6455   23.0371 C   0  0  0  0  0  0
  -26.4536  -31.6566   25.0782 C   0  0  0  0  0  0
  -25.3735  -31.3700   26.1510 C   0  0  0  0  0  0
  -27.0412  -30.2999   24.6236 C   0  0  0  0  0  0
  -27.6111  -32.4350   25.7500 C   0  0  0  0  0  0
  -27.5586  -37.1776   24.8446 C   0  0  0  0  0  0
  -21.4190  -29.3027   22.3671 N   0  0  0  0  0  0
  -26.4309  -37.3726   23.9418 N   0  0  0  0  0  0
  -24.6952  -31.0520   22.1017 N   0  0  0  0  0  0
  -23.4180  -28.8062   23.2997 O   0  0  0  0  0  0
  -28.3456  -26.4349   20.2245 O   0  0  0  0  0  0
  -26.5557  -34.8805   22.4614 O   0  0  0  0  0  0
  -23.5459  -32.1385   23.7361 O   0  0  0  0  0  0
  -28.6457  -21.1824   19.9400 C   0  0  0  0  0  0
  -28.1360  -22.4840   21.9374 C   0  0  0  0  0  0
  -28.7202  -20.1023   22.1219 C   0  0  0  0  0  0
  -28.2752  -22.4683   20.5316 C   0  0  0  0  0  0
  -28.8638  -19.9618   20.7234 C   0  0  0  0  0  0
  -28.3280  -21.3214   22.7155 C   0  0  0  0  0  0
  -26.1233  -20.5893   25.4669 C   0  0  0  0  0  0
  -28.6729  -25.5151   18.0175 C   0  0  0  0  0  0
  -27.7280  -23.7564   19.7586 C   0  0  0  0  0  0
  -26.5804  -21.5202   24.3371 C   0  0  0  0  0  0
  -30.0420  -17.3646   20.7875 C   0  0  0  0  0  0
  -28.9857  -18.4510   20.1799 C   0  0  2  0  0  0
  -28.5579  -25.1333   19.5154 C   0  0  2  0  0  0
  -28.0077  -21.3362   24.0752 N   0  0  0  0  0  0
  -29.7539  -15.8665   20.6282 N   0  0  0  0  0  0
  -29.0059  -18.4012   18.7135 N   0  3  0  0  0  0
  -31.4821  -12.6361   19.1473 H   0  0  0  0  0  0
  -30.4325  -11.5033   19.9669 H   0  0  0  0  0  0
  -29.7998  -11.6994   17.5417 H   0  0  0  0  0  0
  -29.6232  -13.4322   17.6965 H   0  0  0  0  0  0
  -27.9226  -11.2595   18.9606 H   0  0  0  0  0  0
  -27.3760  -12.4535   17.8139 H   0  0  0  0  0  0
  -27.6314  -14.2339   19.4414 H   0  0  0  0  0  0
  -28.7278  -12.1810   21.4323 H   0  0  0  0  0  0
  -28.4123  -13.8614   21.7804 H   0  0  0  0  0  0
  -25.2749   -9.5648   22.4798 H   0  0  0  0  0  0
  -23.9957   -7.4619   22.7508 H   0  0  0  0  0  0
  -21.0815   -8.8769   19.8970 H   0  0  0  0  0  0
  -22.3696  -10.9657   19.6170 H   0  0  0  0  0  0
  -21.2017   -7.6129   23.9684 H   0  0  0  0  0  0
  -21.1472   -6.0522   25.9046 H   0  0  0  0  0  0
  -22.0612   -2.7599   23.2885 H   0  0  0  0  0  0
  -22.4041  -11.9852   22.4804 H   0  0  0  0  0  0
  -21.1081  -13.1253   22.2635 H   0  0  0  0  0  0
  -24.6476  -15.8387   20.4885 H   0  0  0  0  0  0
  -26.2501  -15.6116   20.0190 H   0  0  0  0  0  0
  -26.7194  -32.5378   23.1147 H   0  0  0  0  0  0
  -25.0263  -33.9764   25.0569 H   0  0  0  0  0  0
  -22.7234  -31.3054   21.4093 H   0  0  0  0  0  0
  -23.3730  -35.9616   23.3281 H   0  0  0  0  0  0
  -24.3615  -36.8959   22.2077 H   0  0  0  0  0  0
  -23.7204  -37.6471   23.6693 H   0  0  0  0  0  0
  -26.0925  -31.5417   20.6089 H   0  0  0  0  0  0
  -26.8490  -30.8268   22.0044 H   0  0  0  0  0  0
  -28.1200  -28.9300   21.2018 H   0  0  0  0  0  0
  -25.9545  -25.8778   19.0546 H   0  0  0  0  0  0
  -23.9699  -27.2991   19.0307 H   0  0  0  0  0  0
  -23.7696  -30.6017   19.4103 H   0  0  0  0  0  0
  -22.7602  -29.2575   19.8554 H   0  0  0  0  0  0
  -25.1267  -36.1921   25.0774 H   0  0  0  0  0  0
  -20.9987  -28.3239   24.1368 H   0  0  0  0  0  0
  -20.5696  -26.2242   23.3561 H   0  0  0  0  0  0
  -21.6645  -26.7412   22.1172 H   0  0  0  0  0  0
  -19.6890  -25.6238   21.1234 H   0  0  0  0  0  0
  -19.6675  -27.3111   20.6700 H   0  0  0  0  0  0
  -17.4183  -26.6656   21.3973 H   0  0  0  0  0  0
  -18.0348  -26.0005   22.8919 H   0  0  0  0  0  0
  -19.7943  -30.7262   24.2232 H   0  0  0  0  0  0
  -17.5000  -31.6260   24.5118 H   0  0  0  0  0  0
  -15.5363  -30.2930   23.7706 H   0  0  0  0  0  0
  -15.8649  -28.0789   22.7138 H   0  0  0  0  0  0
  -24.5963  -30.6983   25.7889 H   0  0  0  0  0  0
  -24.8875  -32.2838   26.4912 H   0  0  0  0  0  0
  -25.8078  -30.8939   27.0300 H   0  0  0  0  0  0
  -26.2996  -29.6718   24.1323 H   0  0  0  0  0  0
  -27.4207  -29.7295   25.4723 H   0  0  0  0  0  0
  -27.8767  -30.4356   23.9375 H   0  0  0  0  0  0
  -27.2789  -33.3717   26.1975 H   0  0  0  0  0  0
  -28.3942  -32.6821   25.0311 H   0  0  0  0  0  0
  -28.0703  -31.8521   26.5483 H   0  0  0  0  0  0
  -28.2531  -38.0145   24.7658 H   0  0  0  0  0  0
  -28.1106  -36.2664   24.6079 H   0  0  0  0  0  0
  -27.2290  -37.1307   25.8835 H   0  0  0  0  0  0
  -20.9354  -29.8760   21.6900 H   0  0  0  0  0  0
  -26.0144  -38.2731   24.1560 H   0  0  0  0  0  0
  -28.6759  -21.1258   18.8577 H   0  0  0  0  0  0
  -27.7819  -23.3864   22.4209 H   0  0  0  0  0  0
  -28.8015  -19.2190   22.7402 H   0  0  0  0  0  0
  -25.0374  -20.5828   25.5674 H   0  0  0  0  0  0
  -26.5434  -20.9016   26.4263 H   0  0  0  0  0  0
  -26.4303  -19.5590   25.2797 H   0  0  0  0  0  0
  -28.8637  -24.6579   17.3738 H   0  0  0  0  0  0
  -29.4905  -26.2201   17.8670 H   0  0  0  0  0  0
  -27.7857  -26.0149   17.6321 H   0  0  0  0  0  0
  -26.7993  -24.0303   20.2608 H   0  0  0  0  0  0
  -27.3916  -23.3894   18.7877 H   0  0  0  0  0  0
  -26.3785  -22.5601   24.6105 H   0  0  0  0  0  0
  -25.9786  -21.3124   23.4449 H   0  0  0  0  0  0
  -30.1066  -17.5221   21.8629 H   0  0  0  0  0  0
  -31.0426  -17.5828   20.4113 H   0  0  0  0  0  0
  -28.0127  -18.0359   20.4536 H   0  0  0  0  0  0
  -29.5732  -24.8522   19.7932 H   0  0  0  0  0  0
  -28.3830  -20.5393   24.5843 H   0  0  0  0  0  0
  -28.7873  -15.6106   20.7786 H   0  0  0  0  0  0
  -29.8410  -18.8324   18.3570 H   0  0  0  0  0  0
  -28.1982  -18.8709   18.3446 H   0  0  0  0  0  0
  -28.9779  -17.4473   18.4083 H   0  0  0  0  0  0
  1 25  1  0  0  0
  1 30  2  0  0  0
  1 85  1  0  0  0
  2  3  1  0  0  0
  2 25  1  0  0  0
  2 87  1  0  0  0
  2 88  1  0  0  0
  3  4  1  0  0  0
  3 89  1  0  0  0
  3 90  1  0  0  0
  4  5  1  0  0  0
  4 91  1  0  0  0
  4 92  1  0  0  0
  5  6  1  0  0  0
  5 26  1  0  0  0
  5 93  1  0  0  0
  6 25  1  0  0  0
  6 94  1  0  0  0
  6 95  1  0  0  0
  7  8  2  0  0  0
  7 26  1  0  0  0
  7 29  1  0  0  0
  8  9  1  0  0  0
  8 22  1  0  0  0
  9 10  1  0  0  0
  9 27  2  0  0  0
 10 11  2  0  0  0
 10 15  1  0  0  0
 11 12  1  0  0  0
 11 96  1  0  0  0
 12 13  2  0  0  0
 12 97  1  0  0  0
 13 14  1  0  0  0
 13 31  1  0  0  0
 14 15  2  0  0  0
 14 98  1  0  0  0
 15 99  1  0  0  0
 16 17  2  0  0  0
 16 21  1  0  0  0
 16 31  1  0  0  0
 17 18  1  0  0  0
 17100  1  0  0  0
 18 19  2  0  0  0
 18101  1  0  0  0
 19 20  1  0  0  0
 19 24  1  0  0  0
 20 21  2  0  0  0
 20102  1  0  0  0
 21 23  1  0  0  0
 22 28  1  0  0  0
 22 32  2  0  0  0
 26 27  1  0  0  0
 28103  1  0  0  0
 28104  1  0  0  0
 29105  1  0  0  0
 29106  1  0  0  0
 33 34  1  0  0  0
 33 66  1  0  0  0
 33 70  2  0  0  0
 34 36  1  0  0  0
 34 59  1  0  0  0
 34107  1  0  0  0
 35 44  2  0  0  0
 35 45  1  0  0  0
 35 68  1  0  0  0
 36 56  1  0  0  0
 36108  1  0  0  0
 37 39  1  0  0  0
 37 47  1  0  0  0
 37 66  1  0  0  0
 37109  1  0  0  0
 38 43  2  0  0  0
 38 46  1  0  0  0
 38 47  1  0  0  0
 39 64  1  0  0  0
 39 67  2  0  0  0
 40 52  1  0  0  0
 40 53  2  0  0  0
 40 58  1  0  0  0
 41110  1  0  0  0
 41111  1  0  0  0
 41112  1  0  0  0
 41 48  1  0  0  0
 42 43  1  0  0  0
 42 66  1  0  0  0
 42113  1  0  0  0
 42114  1  0  0  0
 43 44  1  0  0  0
 44115  1  0  0  0
 45 46  2  0  0  0
 45116  1  0  0  0
 46117  1  0  0  0
 47118  1  0  0  0
 47119  1  0  0  0
 48 56  1  0  0  0
 48 65  1  0  0  0
 48120  1  0  0  0
 49 50  1  0  0  0
 49 53  1  0  0  0
 49 64  1  0  0  0
 49121  1  0  0  0
 50 51  1  0  0  0
 50122  1  0  0  0
 50123  1  0  0  0
 51 52  1  0  0  0
 51124  1  0  0  0
 51125  1  0  0  0
 52126  1  0  0  0
 52127  1  0  0  0
 53 54  1  0  0  0
 54 55  2  0  0  0
 54128  1  0  0  0
 55 57  1  0  0  0
 55129  1  0  0  0
 56 69  2  0  0  0
 57 58  2  0  0  0
 57130  1  0  0  0
 58131  1  0  0  0
 59 60  1  0  0  0
 59 61  1  0  0  0
 59 62  1  0  0  0
 60132  1  0  0  0
 60133  1  0  0  0
 60134  1  0  0  0
 61135  1  0  0  0
 61136  1  0  0  0
 61137  1  0  0  0
 62138  1  0  0  0
 62139  1  0  0  0
 62140  1  0  0  0
 63 65  1  0  0  0
 63141  1  0  0  0
 63142  1  0  0  0
 63143  1  0  0  0
 64144  1  0  0  0
 65145  1  0  0  0
 68 83  1  0  0  0
 71 74  2  0  0  0
 71 75  1  0  0  0
 71146  1  0  0  0
 72 74  1  0  0  0
 72 76  2  0  0  0
 72147  1  0  0  0
 73 75  2  0  0  0
 73 76  1  0  0  0
 73148  1  0  0  0
 74 79  1  0  0  0
 75 82  1  0  0  0
 76 84  1  0  0  0
 77 80  1  0  0  0
 77149  1  0  0  0
 77150  1  0  0  0
 77151  1  0  0  0
 78152  1  0  0  0
 78153  1  0  0  0
 78154  1  0  0  0
 78 83  1  0  0  0
 79 83  1  0  0  0
 79155  1  0  0  0
 79156  1  0  0  0
 80 84  1  0  0  0
 80157  1  0  0  0
 80158  1  0  0  0
 81 82  1  0  0  0
 81 85  1  0  0  0
 81159  1  0  0  0
 81160  1  0  0  0
 82 86  1  0  0  0
 82161  1  0  0  0
 83162  1  0  0  0
 84163  1  0  0  0
 85164  1  0  0  0
 86165  1  0  0  0
 86166  1  0  0  0
 86167  1  0  0  0
M  CHG  1  86   1
M  ISO  4   1 100  68 101  83 101  85 100
M  END
> <chiral flag>
0

> <version>
0

> <s_m_source_file>
/data/baiqing/PycharmProjects/Reinvent-master-3.2/result/LINK_invent/BTK/process_docking_weight1_custom_sum_contain_oxygen_bond_distance_aromatic_linkinvent_7_9_3/rearranged_h_0123.sdf

> <i_m_source_file_index>
82

> <r_mmod_Potential_Energy-OPLS-2005>
-127.709762573242

> <r_mmod_Stretch_Energy-OPLS-2005>
131.754486083984

> <r_mmod_Bend_Energy-OPLS-2005>
207.90478515625

> <r_mmod_Torsional_Energy-OPLS-2005>
260.189239501953

> <r_mmod_Improper_Torsional_Energy-OPLS-2005>
14.0069818496704

> <r_mmod_Van_der_Waal_Energy-OPLS-2005>
130.290512084961

> <r_mmod_Electrostatic_Energy-OPLS-2005>
-412.807861328125

> <r_mmod_Solvation_Energy-OPLS-2005>
-547.18017578125

> <b_mmod_Minimization_Converged-OPLS-2005>
0

> <r_mmod_RMS_Derivative-OPLS-2005>
6.82948541641235

$$$$
82
                    3D
 Structure written by MMmdl.
182191  0  0  1  0            999 V2000
  -30.6550  -14.6070   20.4136 C   0  0  0  0  0  0
  -30.4069  -12.3932   19.4049 C   0  0  0  0  0  0
  -29.4674  -12.5036   18.1942 C   0  0  0  0  0  0
  -27.9940  -12.3535   18.6277 C   0  0  0  0  0  0
  -27.6396  -13.2158   19.8727 C   0  0  2  0  0  0
  -28.7042  -13.0784   20.9876 C   0  0  0  0  0  0
  -25.2526  -13.8147   20.5724 C   0  0  0  0  0  0
  -24.1823  -13.0539   20.9171 C   0  0  0  0  0  0
  -24.6379  -11.6927   20.8866 C   0  0  0  0  0  0
  -23.9074  -10.4359   21.0416 C   0  0  0  0  0  0
  -24.3596   -9.4250   21.9242 C   0  0  0  0  0  0
  -23.6339   -8.2284   22.0746 C   0  0  0  0  0  0
  -22.4334   -8.0288   21.3506 C   0  0  0  0  0  0
  -21.9921   -9.0292   20.4608 C   0  0  0  0  0  0
  -22.7196  -10.2194   20.3082 C   0  0  0  0  0  0
  -21.6871   -6.0755   22.5300 C   0  0  0  0  0  0
  -21.4038   -6.5662   23.8192 C   0  0  0  0  0  0
  -21.3632   -5.6782   24.9169 C   0  0  0  0  0  0
  -21.6077   -4.3075   24.7205 C   0  0  0  0  0  0
  -21.8799   -3.8147   23.4334 C   0  0  0  0  0  0
  -21.9218   -4.6999   22.3376 C   0  0  0  0  0  0
  -22.7840  -13.5265   21.1941 C   0  0  0  0  0  0
  -22.1689   -4.2142   21.0965 F   0  0  0  0  0  0
  -21.5604   -3.4550   25.7721 F   0  0  0  0  0  0
  -29.9887  -13.4217   20.3665 N   0  0  0  0  0  0
  -26.2943  -12.9347   20.3484 N   0  0  0  0  0  0
  -25.9280  -11.6526   20.5941 N   0  0  0  0  0  0
  -22.0518  -12.8258   22.0403 N   0  0  0  0  0  0
  -25.4392  -15.1940   20.3861 N   0  0  0  0  0  0
  -31.8498  -14.7032   20.1401 O   0  0  0  0  0  0
  -21.6678   -6.8936   21.4247 O   0  0  0  0  0  0
  -22.3549  -14.5627   20.6758 O   0  0  0  0  0  0
  -24.6169  -31.8854   23.2218 C   0  0  0  0  0  0
  -25.9101  -32.4862   23.8464 C   0  0  1  0  0  0
  -27.1877  -27.4081   20.0619 C   0  0  0  0  0  0
  -25.5972  -33.8701   24.2444 N   0  0  0  0  0  0
  -23.4025  -30.5253   21.5534 C   0  0  2  0  0  0
  -24.8355  -29.0110   20.0933 C   0  0  0  0  0  0
  -22.7403  -29.4425   22.4564 C   0  0  0  0  0  0
  -18.0519  -28.1303   22.8828 C   0  0  0  0  0  0
  -24.1502  -36.7333   23.2673 C   0  0  0  0  0  0
  -25.9378  -30.8179   21.3998 C   0  0  0  0  0  0
  -25.9926  -29.4539   20.7487 C   0  0  0  0  0  0
  -27.1621  -28.6462   20.7719 C   0  0  0  0  0  0
  -26.0243  -27.0459   19.3576 C   0  0  0  0  0  0
  -24.8485  -27.8024   19.3931 C   0  0  0  0  0  0
  -23.6107  -29.9111   20.1332 C   0  0  0  0  0  0
  -25.4093  -36.3153   24.0384 C   0  0  1  0  0  0
  -20.6088  -28.3454   23.1171 C   0  0  2  0  0  0
  -20.6098  -26.8628   22.6469 C   0  0  0  0  0  0
  -19.5731  -26.6407   21.5534 C   0  0  0  0  0  0
  -18.1965  -26.7668   22.2261 C   0  0  0  0  0  0
  -19.1881  -28.8797   23.2729 C   0  0  0  0  0  0
  -19.0015  -30.1644   23.8358 C   0  0  0  0  0  0
  -17.7104  -30.6953   24.0027 C   0  0  0  0  0  0
  -25.8948  -34.9571   23.5143 C   0  0  0  0  0  0
  -16.5760  -29.9391   23.6208 C   0  0  0  0  0  0
  -16.7616  -28.6539   23.0813 C   0  0  0  0  0  0
  -26.4581  -31.6538   25.0735 C   0  0  0  0  0  0
  -25.3912  -31.3447   26.1381 C   0  0  0  0  0  0
  -27.0371  -30.3045   24.6040 C   0  0  0  0  0  0
  -27.6223  -32.4125   25.7526 C   0  0  0  0  0  0
  -27.5550  -37.1809   24.8443 C   0  0  0  0  0  0
  -21.4184  -29.2341   22.2761 N   0  0  0  0  0  0
  -26.4284  -37.3804   23.9353 N   0  0  0  0  0  0
  -24.6691  -31.0835   22.1163 N   0  0  0  0  0  0
  -23.4042  -28.8385   23.3081 O   0  0  0  0  0  0
  -28.3272  -26.6164   19.9685 O   0  0  0  0  0  0
  -26.5624  -34.8991   22.4751 O   0  0  0  0  0  0
  -23.5341  -32.1823   23.7443 O   0  0  0  0  0  0
  -26.2547  -19.4555   19.1063 C   0  0  0  0  0  0
  -28.4090  -19.2249   18.8092 C   0  0  0  0  0  0
  -27.3127  -19.8475   18.2842 C   0  0  0  0  0  0
  -26.7829  -19.2381   20.3445 C   0  0  0  0  0  0
  -29.2275  -18.9884   22.3119 C   0  0  0  0  0  0
  -30.4073  -18.6103   23.2667 C   0  0  0  0  0  0
  -29.8157  -16.2882   22.7014 C   0  0  0  0  0  0
  -29.1618  -18.1760   21.0052 C   0  0  1  0  0  0
  -29.1927  -16.5807   21.2868 C   0  0  1  0  0  0
  -26.0605  -20.2912   16.1668 C   0  0  0  0  0  0
  -25.4289  -18.7180   22.5472 C   0  0  0  0  0  0
  -25.0066  -20.8430   21.2462 C   0  0  0  0  0  0
  -27.3821  -24.3110   18.9116 C   0  0  0  0  0  0
  -27.8077  -22.8405   18.5369 C   0  0  0  0  0  0
  -28.2336  -25.1427   19.9777 C   0  0  0  0  0  0
  -27.1622  -20.7921   17.1111 C   0  0  1  0  0  0
  -26.0759  -19.7465   21.5963 C   0  0  0  0  0  0
  -28.1186  -18.7911   20.1121 N   0  0  0  0  0  0
  -29.9325  -15.7599   20.2673 N   0  0  0  0  0  0
  -30.9008  -17.2322   23.0395 N   0  3  0  0  0  0
  -26.8457  -22.1807   17.6040 N   0  3  0  0  0  0
  -31.4494  -12.5084   19.0889 H   0  0  0  0  0  0
  -30.3402  -11.4132   19.8533 H   0  0  0  0  0  0
  -29.7227  -11.7361   17.4574 H   0  0  0  0  0  0
  -29.5775  -13.4650   17.6811 H   0  0  0  0  0  0
  -27.8256  -11.2960   18.8420 H   0  0  0  0  0  0
  -27.3181  -12.6047   17.8079 H   0  0  0  0  0  0
  -27.6613  -14.2536   19.5540 H   0  0  0  0  0  0
  -28.7492  -12.0618   21.3652 H   0  0  0  0  0  0
  -28.4716  -13.7174   21.8422 H   0  0  0  0  0  0
  -25.2775   -9.5761   22.4764 H   0  0  0  0  0  0
  -24.0059   -7.4671   22.7395 H   0  0  0  0  0  0
  -21.0895   -8.8794   19.8890 H   0  0  0  0  0  0
  -22.3695  -10.9739   19.6160 H   0  0  0  0  0  0
  -21.2034   -7.6155   23.9706 H   0  0  0  0  0  0
  -21.1473   -6.0524   25.9057 H   0  0  0  0  0  0
  -22.0614   -2.7623   23.2816 H   0  0  0  0  0  0
  -22.4186  -11.9887   22.4737 H   0  0  0  0  0  0
  -21.1103  -13.1115   22.2696 H   0  0  0  0  0  0
  -24.6765  -15.8509   20.4803 H   0  0  0  0  0  0
  -26.2658  -15.6046   19.9897 H   0  0  0  0  0  0
  -26.7249  -32.5772   23.1273 H   0  0  0  0  0  0
  -24.9734  -33.9771   25.0355 H   0  0  0  0  0  0
  -22.6983  -31.3592   21.4454 H   0  0  0  0  0  0
  -23.3712  -35.9660   23.3308 H   0  0  0  0  0  0
  -24.3621  -36.8993   22.2055 H   0  0  0  0  0  0
  -23.7261  -37.6586   23.6679 H   0  0  0  0  0  0
  -26.0624  -31.5805   20.6225 H   0  0  0  0  0  0
  -26.8294  -30.8737   22.0078 H   0  0  0  0  0  0
  -28.0469  -28.9704   21.3139 H   0  0  0  0  0  0
  -26.0318  -26.2778   18.6241 H   0  0  0  0  0  0
  -24.0082  -27.5045   18.7840 H   0  0  0  0  0  0
  -23.7484  -30.7250   19.4201 H   0  0  0  0  0  0
  -22.7329  -29.3579   19.7706 H   0  0  0  0  0  0
  -25.1244  -36.2023   25.0883 H   0  0  0  0  0  0
  -21.0509  -28.3777   24.1127 H   0  0  0  0  0  0
  -20.2606  -26.2592   23.5031 H   0  0  0  0  0  0
  -21.5993  -26.4633   22.4343 H   0  0  0  0  0  0
  -19.6959  -27.3990   20.7911 H   0  0  0  0  0  0
  -19.6950  -25.7120   20.9984 H   0  0  0  0  0  0
  -17.3825  -26.5160   21.5618 H   0  0  0  0  0  0
  -18.1346  -26.0420   23.0425 H   0  0  0  0  0  0
  -19.8766  -30.7219   24.1366 H   0  0  0  0  0  0
  -17.5979  -31.6859   24.4120 H   0  0  0  0  0  0
  -15.5723  -30.3279   23.7815 H   0  0  0  0  0  0
  -15.8840  -28.0688   22.8033 H   0  0  0  0  0  0
  -24.6143  -30.6767   25.7609 H   0  0  0  0  0  0
  -24.8993  -32.2438   26.5068 H   0  0  0  0  0  0
  -25.8307  -30.8459   26.9973 H   0  0  0  0  0  0
  -26.2809  -29.6791   24.1208 H   0  0  0  0  0  0
  -27.4282  -29.7283   25.4405 H   0  0  0  0  0  0
  -27.8640  -30.4360   23.9057 H   0  0  0  0  0  0
  -27.2935  -33.3322   26.2332 H   0  0  0  0  0  0
  -28.3978  -32.6748   25.0328 H   0  0  0  0  0  0
  -28.0895  -31.8065   26.5264 H   0  0  0  0  0  0
  -28.2611  -38.0099   24.7494 H   0  0  0  0  0  0
  -28.1052  -36.2623   24.6266 H   0  0  0  0  0  0
  -27.2251  -37.1414   25.8873 H   0  0  0  0  0  0
  -20.9210  -29.7630   21.5668 H   0  0  0  0  0  0
  -26.0201  -38.2885   24.1394 H   0  0  0  0  0  0
  -25.2397  -19.7137   18.9242 H   0  0  0  0  0  0
  -29.3957  -19.1516   18.3783 H   0  0  0  0  0  0
  -29.2599  -20.0642   22.0954 H   0  0  0  0  0  0
  -28.2798  -18.8084   22.8251 H   0  0  0  0  0  0
  -30.0100  -18.6243   24.2802 H   0  0  0  0  0  0
  -31.2207  -19.3420   23.2854 H   0  0  0  0  0  0
  -30.1184  -15.2368   22.8225 H   0  0  0  0  0  0
  -29.0392  -16.4239   23.4620 H   0  0  0  0  0  0
  -30.1051  -18.3581   20.4799 H   0  0  0  0  0  0
  -28.1639  -16.2448   21.2781 H   0  0  0  0  0  0
  -25.0852  -20.6505   16.5106 H   0  0  0  0  0  0
  -25.9622  -19.2121   16.1011 H   0  0  0  0  0  0
  -26.2282  -20.6509   15.1649 H   0  0  0  0  0  0
  -26.1817  -18.2188   23.1300 H   0  0  0  0  0  0
  -24.7802  -17.9807   22.0582 H   0  0  0  0  0  0
  -24.8380  -19.2013   23.3278 H   0  0  0  0  0  0
  -25.3496  -21.4693   20.4252 H   0  0  0  0  0  0
  -24.7652  -21.5095   22.0741 H   0  0  0  0  0  0
  -24.0612  -20.4261   20.9152 H   0  0  0  0  0  0
  -26.3253  -24.2838   19.2042 H   0  0  0  0  0  0
  -27.4119  -24.8602   17.9741 H   0  0  0  0  0  0
  -28.7986  -22.8735   18.0671 H   0  0  0  0  0  0
  -27.9367  -22.2290   19.4307 H   0  0  0  0  0  0
  -29.2731  -24.8020   19.9175 H   0  0  0  0  0  0
  -27.9109  -24.8607   20.9841 H   0  0  0  0  0  0
  -28.1231  -20.7852   16.5909 H   0  0  0  0  0  0
  -26.8161  -20.3096   22.1690 H   0  0  0  0  0  0
  -30.4846  -16.3773   19.6936 H   0  0  0  0  0  0
  -31.3885  -16.9048   23.8619 H   0  0  0  0  0  0
  -31.6167  -17.2473   22.3331 H   0  0  0  0  0  0
  -26.7454  -22.7994   16.8172 H   0  0  0  0  0  0
  -25.9500  -22.1098   18.0721 H   0  0  0  0  0  0
  1 25  1  0  0  0
  1 30  2  0  0  0
  1 89  1  0  0  0
  2  3  1  0  0  0
  2 25  1  0  0  0
  2 92  1  0  0  0
  2 93  1  0  0  0
  3  4  1  0  0  0
  3 94  1  0  0  0
  3 95  1  0  0  0
  4  5  1  0  0  0
  4 96  1  0  0  0
  4 97  1  0  0  0
  5  6  1  0  0  0
  5 26  1  0  0  0
  5 98  1  0  0  0
  6 25  1  0  0  0
  6 99  1  0  0  0
  6100  1  0  0  0
  7  8  2  0  0  0
  7 26  1  0  0  0
  7 29  1  0  0  0
  8  9  1  0  0  0
  8 22  1  0  0  0
  9 10  1  0  0  0
  9 27  2  0  0  0
 10 11  2  0  0  0
 10 15  1  0  0  0
 11 12  1  0  0  0
 11101  1  0  0  0
 12 13  2  0  0  0
 12102  1  0  0  0
 13 14  1  0  0  0
 13 31  1  0  0  0
 14 15  2  0  0  0
 14103  1  0  0  0
 15104  1  0  0  0
 16 17  2  0  0  0
 16 21  1  0  0  0
 16 31  1  0  0  0
 17 18  1  0  0  0
 17105  1  0  0  0
 18 19  2  0  0  0
 18106  1  0  0  0
 19 20  1  0  0  0
 19 24  1  0  0  0
 20 21  2  0  0  0
 20107  1  0  0  0
 21 23  1  0  0  0
 22 28  1  0  0  0
 22 32  2  0  0  0
 26 27  1  0  0  0
 28108  1  0  0  0
 28109  1  0  0  0
 29110  1  0  0  0
 29111  1  0  0  0
 33 34  1  0  0  0
 33 66  1  0  0  0
 33 70  2  0  0  0
 34 36  1  0  0  0
 34 59  1  0  0  0
 34112  1  0  0  0
 35 44  2  0  0  0
 35 45  1  0  0  0
 35 68  1  0  0  0
 36 56  1  0  0  0
 36113  1  0  0  0
 37 39  1  0  0  0
 37 47  1  0  0  0
 37 66  1  0  0  0
 37114  1  0  0  0
 38 43  2  0  0  0
 38 46  1  0  0  0
 38 47  1  0  0  0
 39 64  1  0  0  0
 39 67  2  0  0  0
 40 52  1  0  0  0
 40 53  2  0  0  0
 40 58  1  0  0  0
 41115  1  0  0  0
 41116  1  0  0  0
 41117  1  0  0  0
 41 48  1  0  0  0
 42 43  1  0  0  0
 42 66  1  0  0  0
 42118  1  0  0  0
 42119  1  0  0  0
 43 44  1  0  0  0
 44120  1  0  0  0
 45 46  2  0  0  0
 45121  1  0  0  0
 46122  1  0  0  0
 47123  1  0  0  0
 47124  1  0  0  0
 48 56  1  0  0  0
 48 65  1  0  0  0
 48125  1  0  0  0
 49 50  1  0  0  0
 49 53  1  0  0  0
 49 64  1  0  0  0
 49126  1  0  0  0
 50 51  1  0  0  0
 50127  1  0  0  0
 50128  1  0  0  0
 51 52  1  0  0  0
 51129  1  0  0  0
 51130  1  0  0  0
 52131  1  0  0  0
 52132  1  0  0  0
 53 54  1  0  0  0
 54 55  2  0  0  0
 54133  1  0  0  0
 55 57  1  0  0  0
 55134  1  0  0  0
 56 69  2  0  0  0
 57 58  2  0  0  0
 57135  1  0  0  0
 58136  1  0  0  0
 59 60  1  0  0  0
 59 61  1  0  0  0
 59 62  1  0  0  0
 60137  1  0  0  0
 60138  1  0  0  0
 60139  1  0  0  0
 61140  1  0  0  0
 61141  1  0  0  0
 61142  1  0  0  0
 62143  1  0  0  0
 62144  1  0  0  0
 62145  1  0  0  0
 63 65  1  0  0  0
 63146  1  0  0  0
 63147  1  0  0  0
 63148  1  0  0  0
 64149  1  0  0  0
 65150  1  0  0  0
 68 85  1  0  0  0
 71 73  1  0  0  0
 71 74  2  0  0  0
 71151  1  0  0  0
 72 73  2  0  0  0
 72 88  1  0  0  0
 72152  1  0  0  0
 73 86  1  0  0  0
 74 87  1  0  0  0
 74 88  1  0  0  0
 75 76  1  0  0  0
 75 78  1  0  0  0
 75153  1  0  0  0
 75154  1  0  0  0
 76 90  1  0  0  0
 76155  1  0  0  0
 76156  1  0  0  0
 77 79  1  0  0  0
 77 90  1  0  0  0
 77157  1  0  0  0
 77158  1  0  0  0
 78 79  1  0  0  0
 78 88  1  0  0  0
 78159  1  0  0  0
 79 89  1  0  0  0
 79160  1  0  0  0
 80161  1  0  0  0
 80162  1  0  0  0
 80163  1  0  0  0
 80 86  1  0  0  0
 81164  1  0  0  0
 81165  1  0  0  0
 81166  1  0  0  0
 81 87  1  0  0  0
 82 87  1  0  0  0
 82167  1  0  0  0
 82168  1  0  0  0
 82169  1  0  0  0
 83 84  1  0  0  0
 83 85  1  0  0  0
 83170  1  0  0  0
 83171  1  0  0  0
 84 91  1  0  0  0
 84172  1  0  0  0
 84173  1  0  0  0
 85174  1  0  0  0
 85175  1  0  0  0
 86 91  1  0  0  0
 86176  1  0  0  0
 87177  1  0  0  0
 89178  1  0  0  0
 90179  1  0  0  0
 90180  1  0  0  0
 91181  1  0  0  0
 91182  1  0  0  0
M  CHG  2  90   1  91   1
M  ISO  4   1 100  68 101  85 101  89 100
M  END
> <chiral flag>
0

> <version>
0

> <s_m_source_file>
/data/baiqing/PycharmProjects/Reinvent-master-3.2/result/LINK_invent/BTK/process_docking_weight1_custom_sum_contain_oxygen_bond_distance_aromatic_linkinvent_7_9_3/rearranged_h_0123.sdf

> <i_m_source_file_index>
83

> <r_mmod_Potential_Energy-OPLS-2005>
-42.142951965332

> <r_mmod_Stretch_Energy-OPLS-2005>
90.3343124389648

> <r_mmod_Bend_Energy-OPLS-2005>
231.525451660156

> <r_mmod_Torsional_Energy-OPLS-2005>
472.734954833984

> <r_mmod_Improper_Torsional_Energy-OPLS-2005>
26.0638179779053

> <r_mmod_Van_der_Waal_Energy-OPLS-2005>
142.118789672852

> <r_mmod_Electrostatic_Energy-OPLS-2005>
-159.289398193359

> <r_mmod_Solvation_Energy-OPLS-2005>
-897.994262695312

> <b_mmod_Minimization_Converged-OPLS-2005>
0

> <r_mmod_RMS_Derivative-OPLS-2005>
28.2826900482178

$$$$
83
                    3D
 Structure written by MMmdl.
169178  0  0  1  0            999 V2000
  -30.4815  -15.1020   20.4419 C   0  0  0  0  0  0
  -30.4266  -12.6892   19.5369 C   0  0  0  0  0  0
  -29.5250  -12.5576   18.2843 C   0  0  0  0  0  0
  -28.0561  -12.3363   18.6780 C   0  0  0  0  0  0
  -27.6167  -13.2705   19.8336 C   0  0  2  0  0  0
  -28.6438  -13.3572   20.9804 C   0  0  0  0  0  0
  -25.2424  -13.8293   20.5699 C   0  0  0  0  0  0
  -24.1755  -13.0502   20.9154 C   0  0  0  0  0  0
  -24.6379  -11.6982   20.8737 C   0  0  0  0  0  0
  -23.9080  -10.4345   21.0459 C   0  0  0  0  0  0
  -24.3639   -9.4237   21.9223 C   0  0  0  0  0  0
  -23.6311   -8.2255   22.0765 C   0  0  0  0  0  0
  -22.4272   -8.0306   21.3564 C   0  0  0  0  0  0
  -21.9929   -9.0278   20.4652 C   0  0  0  0  0  0
  -22.7260  -10.2171   20.3090 C   0  0  0  0  0  0
  -21.6864   -6.0735   22.5273 C   0  0  0  0  0  0
  -21.4028   -6.5652   23.8203 C   0  0  0  0  0  0
  -21.3668   -5.6805   24.9161 C   0  0  0  0  0  0
  -21.6026   -4.3049   24.7204 C   0  0  0  0  0  0
  -21.8847   -3.8145   23.4323 C   0  0  0  0  0  0
  -21.9207   -4.6962   22.3388 C   0  0  0  0  0  0
  -22.7773  -13.5206   21.1838 C   0  0  0  0  0  0
  -22.1680   -4.2152   21.0957 F   0  0  0  0  0  0
  -21.5652   -3.4545   25.7718 F   0  0  0  0  0  0
  -29.9100  -13.8103   20.3974 N   0  0  0  0  0  0
  -26.2826  -12.9546   20.3200 N   0  0  0  0  0  0
  -25.9313  -11.6670   20.5715 N   0  0  0  0  0  0
  -22.0504  -12.8159   22.0400 N   0  0  0  0  0  0
  -25.4153  -15.2027   20.4166 N   0  0  0  0  0  0
  -31.6506  -15.1033   20.0398 O   0  0  0  0  0  0
  -21.6642   -6.8890   21.4233 O   0  0  0  0  0  0
  -22.3418  -14.5519   20.6713 O   0  0  0  0  0  0
  -24.6545  -31.8328   23.1829 C   0  0  0  0  0  0
  -25.9282  -32.4639   23.8242 C   0  0  1  0  0  0
  -27.2059  -27.0094   20.1696 C   0  0  0  0  0  0
  -25.6007  -33.8450   24.2154 N   0  0  0  0  0  0
  -23.4646  -30.4515   21.5279 C   0  0  2  0  0  0
  -24.9146  -28.8611   20.1107 C   0  0  0  0  0  0
  -22.7603  -29.4477   22.4790 C   0  0  0  0  0  0
  -18.0320  -28.1398   22.8489 C   0  0  0  0  0  0
  -24.1489  -36.7221   23.2628 C   0  0  0  0  0  0
  -26.0269  -30.6657   21.3995 C   0  0  0  0  0  0
  -26.0956  -29.2646   20.7438 C   0  0  0  0  0  0
  -27.2394  -28.3573   20.7577 C   0  0  0  0  0  0
  -26.0011  -26.7528   19.4734 C   0  0  0  0  0  0
  -24.8876  -27.6240   19.4556 C   0  0  0  0  0  0
  -23.7022  -29.7815   20.1497 C   0  0  0  0  0  0
  -25.4122  -36.2980   24.0300 C   0  0  1  0  0  0
  -20.5927  -28.3747   23.1216 C   0  0  2  0  0  0
  -20.6792  -26.9443   22.5399 C   0  0  0  0  0  0
  -19.5765  -26.6386   21.5210 C   0  0  0  0  0  0
  -18.1951  -26.7940   22.1625 C   0  0  0  0  0  0
  -19.1577  -28.8891   23.2843 C   0  0  0  0  0  0
  -18.9497  -30.1488   23.8870 C   0  0  0  0  0  0
  -17.6492  -30.6606   24.0567 C   0  0  0  0  0  0
  -25.9090  -34.9376   23.5028 C   0  0  0  0  0  0
  -16.5385  -29.9087   23.6344 C   0  0  0  0  0  0
  -16.7302  -28.6494   23.0379 C   0  0  0  0  0  0
  -26.4576  -31.6537   25.0719 C   0  0  0  0  0  0
  -25.3754  -31.3762   26.1417 C   0  0  0  0  0  0
  -27.0452  -30.2920   24.6346 C   0  0  0  0  0  0
  -27.6069  -32.4326   25.7535 C   0  0  0  0  0  0
  -27.5588  -37.1739   24.8435 C   0  0  0  0  0  0
  -21.4276  -29.3064   22.3551 N   0  0  0  0  0  0
  -26.4239  -37.3746   23.9448 N   0  0  0  0  0  0
  -24.7370  -31.0066   22.0926 N   0  0  0  0  0  0
  -23.4188  -28.8037   23.2996 O   0  0  0  0  0  0
  -28.1971  -25.9194   20.2578 O   0  0  0  0  0  0
  -26.5672  -34.8894   22.4601 O   0  0  0  0  0  0
  -23.5647  -32.1259   23.6995 O   0  0  0  0  0  0
  -28.5371  -22.0469   21.4760 C   0  0  0  0  0  0
  -28.9689  -21.9360   19.2247 C   0  0  0  0  0  0
  -28.5470  -22.8479   20.2770 C   0  0  0  0  0  0
  -28.9149  -20.6244   21.5842 C   0  0  0  0  0  0
  -29.3728  -19.8055   20.4692 C   0  0  0  0  0  0
  -30.3976  -16.6102   22.4395 C   0  0  0  0  0  0
  -31.9286  -16.9399   22.4574 C   0  0  0  0  0  0
  -31.6167  -18.2624   20.1453 C   0  0  0  0  0  0
  -30.1395  -18.2610   20.5270 C   0  0  2  0  0  0
  -29.8063  -16.5949   20.9976 C   0  0  1  0  0  0
  -32.5267  -17.9301   21.3758 C   0  0  2  0  0  0
  -28.7877  -19.9945   22.9689 C   0  0  0  0  0  0
  -34.9783  -17.3683   18.5940 C   0  0  0  0  0  0
  -27.7899  -24.3749   20.0604 C   0  0  0  0  0  0
  -33.9336  -17.4538   20.9342 C   0  0  0  0  0  0
  -34.6273  -18.2547   19.8050 C   0  0  0  0  0  0
  -29.3522  -20.5743   19.3113 N   0  0  0  0  0  0
  -31.4496  -12.8630   19.2041 H   0  0  0  0  0  0
  -30.4598  -11.7583   20.1052 H   0  0  0  0  0  0
  -29.8698  -11.7446   17.6426 H   0  0  0  0  0  0
  -29.6062  -13.4738   17.6975 H   0  0  0  0  0  0
  -27.9311  -11.2910   18.9638 H   0  0  0  0  0  0
  -27.4094  -12.4957   17.8144 H   0  0  0  0  0  0
  -27.5603  -14.2627   19.3846 H   0  0  0  0  0  0
  -28.7592  -12.4018   21.4915 H   0  0  0  0  0  0
  -28.2989  -14.0686   21.7322 H   0  0  0  0  0  0
  -25.2842   -9.5673   22.4722 H   0  0  0  0  0  0
  -24.0056   -7.4631   22.7471 H   0  0  0  0  0  0
  -21.0879   -8.8780   19.8901 H   0  0  0  0  0  0
  -22.3766  -10.9692   19.6142 H   0  0  0  0  0  0
  -21.2002   -7.6179   23.9673 H   0  0  0  0  0  0
  -21.1488   -6.0553   25.9066 H   0  0  0  0  0  0
  -22.0607   -2.7599   23.2802 H   0  0  0  0  0  0
  -22.4229  -11.9804   22.4695 H   0  0  0  0  0  0
  -21.1133  -13.1112   22.2764 H   0  0  0  0  0  0
  -24.6599  -15.8678   20.5395 H   0  0  0  0  0  0
  -26.2776  -15.6345   20.1087 H   0  0  0  0  0  0
  -26.7315  -32.5213   23.0932 H   0  0  0  0  0  0
  -25.0154  -33.9542   25.0310 H   0  0  0  0  0  0
  -22.7738  -31.2831   21.3678 H   0  0  0  0  0  0
  -23.3813  -35.9482   23.3131 H   0  0  0  0  0  0
  -24.3600  -36.9042   22.2081 H   0  0  0  0  0  0
  -23.7172  -37.6325   23.6791 H   0  0  0  0  0  0
  -26.1874  -31.4137   20.6225 H   0  0  0  0  0  0
  -26.8939  -30.7280   22.0435 H   0  0  0  0  0  0
  -28.1287  -28.6552   21.2982 H   0  0  0  0  0  0
  -25.8683  -25.8200   18.9473 H   0  0  0  0  0  0
  -23.9881  -27.3200   18.9352 H   0  0  0  0  0  0
  -23.8594  -30.5570   19.3994 H   0  0  0  0  0  0
  -22.8117  -29.2388   19.8275 H   0  0  0  0  0  0
  -25.1293  -36.1752   25.0783 H   0  0  0  0  0  0
  -21.0040  -28.3369   24.1325 H   0  0  0  0  0  0
  -20.5697  -26.2366   23.3629 H   0  0  0  0  0  0
  -21.6667  -26.7423   22.1223 H   0  0  0  0  0  0
  -19.6941  -25.6292   21.1262 H   0  0  0  0  0  0
  -19.6718  -27.3169   20.6728 H   0  0  0  0  0  0
  -17.4224  -26.6703   21.4016 H   0  0  0  0  0  0
  -18.0356  -26.0076   22.9014 H   0  0  0  0  0  0
  -19.7968  -30.7301   24.2243 H   0  0  0  0  0  0
  -17.5049  -31.6288   24.5171 H   0  0  0  0  0  0
  -15.5386  -30.2999   23.7665 H   0  0  0  0  0  0
  -15.8693  -28.0798   22.7124 H   0  0  0  0  0  0
  -24.5921  -30.7103   25.7758 H   0  0  0  0  0  0
  -24.8970  -32.2965   26.4765 H   0  0  0  0  0  0
  -25.8045  -30.8994   27.0236 H   0  0  0  0  0  0
  -26.3077  -29.6644   24.1313 H   0  0  0  0  0  0
  -27.3996  -29.7210   25.4933 H   0  0  0  0  0  0
  -27.9016  -30.4133   23.9716 H   0  0  0  0  0  0
  -27.2609  -33.3631   26.2045 H   0  0  0  0  0  0
  -28.3940  -32.6882   25.0429 H   0  0  0  0  0  0
  -28.0671  -31.8513   26.5540 H   0  0  0  0  0  0
  -28.2451  -38.0184   24.7677 H   0  0  0  0  0  0
  -28.1236  -36.2730   24.5989 H   0  0  0  0  0  0
  -27.2340  -37.1047   25.8832 H   0  0  0  0  0  0
  -20.9488  -29.8785   21.6725 H   0  0  0  0  0  0
  -26.0077  -38.2743   24.1660 H   0  0  0  0  0  0
  -28.1764  -22.5354   22.3705 H   0  0  0  0  0  0
  -28.9473  -22.3040   18.2102 H   0  0  0  0  0  0
  -29.8669  -17.3150   23.0787 H   0  0  0  0  0  0
  -30.2161  -15.6610   22.9490 H   0  0  0  0  0  0
  -32.4644  -15.9913   22.4149 H   0  0  0  0  0  0
  -32.1689  -17.3213   23.4514 H   0  0  0  0  0  0
  -31.8846  -19.2267   19.7145 H   0  0  0  0  0  0
  -31.7732  -17.5433   19.3407 H   0  0  0  0  0  0
  -30.3059  -18.6460   21.5181 H   0  0  0  0  0  0
  -28.7263  -16.4663   21.0372 H   0  0  0  0  0  0
  -32.6601  -18.8786   21.8988 H   0  0  0  0  0  0
  -28.1034  -20.5543   23.6064 H   0  0  0  0  0  0
  -29.7533  -19.9376   23.4717 H   0  0  0  0  0  0
  -28.3809  -18.9867   22.8908 H   0  0  0  0  0  0
  -35.3917  -17.9574   17.7784 H   0  0  0  0  0  0
  -34.1019  -16.8445   18.2079 H   0  0  0  0  0  0
  -35.7160  -16.6106   18.8655 H   0  0  0  0  0  0
  -26.8706  -24.2764   20.6432 H   0  0  0  0  0  0
  -27.4649  -24.3235   19.0232 H   0  0  0  0  0  0
  -33.8666  -16.4097   20.6209 H   0  0  0  0  0  0
  -34.5839  -17.4418   21.8130 H   0  0  0  0  0  0
  -34.0239  -19.0973   19.4694 H   0  0  0  0  0  0
  -35.5444  -18.7047   20.1894 H   0  0  0  0  0  0
  1 25  1  0  0  0
  1 30  2  0  0  0
  1 80  1  0  0  0
  2  3  1  0  0  0
  2 25  1  0  0  0
  2 88  1  0  0  0
  2 89  1  0  0  0
  3  4  1  0  0  0
  3 90  1  0  0  0
  3 91  1  0  0  0
  4  5  1  0  0  0
  4 92  1  0  0  0
  4 93  1  0  0  0
  5  6  1  0  0  0
  5 26  1  0  0  0
  5 94  1  0  0  0
  6 25  1  0  0  0
  6 95  1  0  0  0
  6 96  1  0  0  0
  7  8  2  0  0  0
  7 26  1  0  0  0
  7 29  1  0  0  0
  8  9  1  0  0  0
  8 22  1  0  0  0
  9 10  1  0  0  0
  9 27  2  0  0  0
 10 11  2  0  0  0
 10 15  1  0  0  0
 11 12  1  0  0  0
 11 97  1  0  0  0
 12 13  2  0  0  0
 12 98  1  0  0  0
 13 14  1  0  0  0
 13 31  1  0  0  0
 14 15  2  0  0  0
 14 99  1  0  0  0
 15100  1  0  0  0
 16 17  2  0  0  0
 16 21  1  0  0  0
 16 31  1  0  0  0
 17 18  1  0  0  0
 17101  1  0  0  0
 18 19  2  0  0  0
 18102  1  0  0  0
 19 20  1  0  0  0
 19 24  1  0  0  0
 20 21  2  0  0  0
 20103  1  0  0  0
 21 23  1  0  0  0
 22 28  1  0  0  0
 22 32  2  0  0  0
 26 27  1  0  0  0
 28104  1  0  0  0
 28105  1  0  0  0
 29106  1  0  0  0
 29107  1  0  0  0
 33 34  1  0  0  0
 33 66  1  0  0  0
 33 70  2  0  0  0
 34 36  1  0  0  0
 34 59  1  0  0  0
 34108  1  0  0  0
 35 44  2  0  0  0
 35 45  1  0  0  0
 35 68  1  0  0  0
 36 56  1  0  0  0
 36109  1  0  0  0
 37 39  1  0  0  0
 37 47  1  0  0  0
 37 66  1  0  0  0
 37110  1  0  0  0
 38 43  2  0  0  0
 38 46  1  0  0  0
 38 47  1  0  0  0
 39 64  1  0  0  0
 39 67  2  0  0  0
 40 52  1  0  0  0
 40 53  2  0  0  0
 40 58  1  0  0  0
 41111  1  0  0  0
 41112  1  0  0  0
 41113  1  0  0  0
 41 48  1  0  0  0
 42 43  1  0  0  0
 42 66  1  0  0  0
 42114  1  0  0  0
 42115  1  0  0  0
 43 44  1  0  0  0
 44116  1  0  0  0
 45 46  2  0  0  0
 45117  1  0  0  0
 46118  1  0  0  0
 47119  1  0  0  0
 47120  1  0  0  0
 48 56  1  0  0  0
 48 65  1  0  0  0
 48121  1  0  0  0
 49 50  1  0  0  0
 49 53  1  0  0  0
 49 64  1  0  0  0
 49122  1  0  0  0
 50 51  1  0  0  0
 50123  1  0  0  0
 50124  1  0  0  0
 51 52  1  0  0  0
 51125  1  0  0  0
 51126  1  0  0  0
 52127  1  0  0  0
 52128  1  0  0  0
 53 54  1  0  0  0
 54 55  2  0  0  0
 54129  1  0  0  0
 55 57  1  0  0  0
 55130  1  0  0  0
 56 69  2  0  0  0
 57 58  2  0  0  0
 57131  1  0  0  0
 58132  1  0  0  0
 59 60  1  0  0  0
 59 61  1  0  0  0
 59 62  1  0  0  0
 60133  1  0  0  0
 60134  1  0  0  0
 60135  1  0  0  0
 61136  1  0  0  0
 61137  1  0  0  0
 61138  1  0  0  0
 62139  1  0  0  0
 62140  1  0  0  0
 62141  1  0  0  0
 63 65  1  0  0  0
 63142  1  0  0  0
 63143  1  0  0  0
 63144  1  0  0  0
 64145  1  0  0  0
 65146  1  0  0  0
 68 84  1  0  0  0
 71 73  2  0  0  0
 71 74  1  0  0  0
 71147  1  0  0  0
 72 73  1  0  0  0
 72 87  2  0  0  0
 72148  1  0  0  0
 73 84  1  0  0  0
 74 75  2  0  0  0
 74 82  1  0  0  0
 75 87  1  0  0  0
 75 79  1  0  0  0
 76 77  1  0  0  0
 76 80  1  0  0  0
 76149  1  0  0  0
 76150  1  0  0  0
 77 81  1  0  0  0
 77151  1  0  0  0
 77152  1  0  0  0
 78 79  1  0  0  0
 78 81  1  0  0  0
 78153  1  0  0  0
 78154  1  0  0  0
 79 80  1  0  0  0
 79155  1  0  0  0
 80156  1  0  0  0
 81 85  1  0  0  0
 81157  1  0  0  0
 82158  1  0  0  0
 82159  1  0  0  0
 82160  1  0  0  0
 83 86  1  0  0  0
 83161  1  0  0  0
 83162  1  0  0  0
 83163  1  0  0  0
 84164  1  0  0  0
 84165  1  0  0  0
 85 86  1  0  0  0
 85166  1  0  0  0
 85167  1  0  0  0
 86168  1  0  0  0
 86169  1  0  0  0
M  ISO  4   1 100  68 101  80 100  84 101
M  END
> <chiral flag>
0

> <version>
0

> <s_m_source_file>
/data/baiqing/PycharmProjects/Reinvent-master-3.2/result/LINK_invent/BTK/process_docking_weight1_custom_sum_contain_oxygen_bond_distance_aromatic_linkinvent_7_9_3/rearranged_h_0123.sdf

> <i_m_source_file_index>
84

> <r_mmod_Potential_Energy-OPLS-2005>
1047.48742675781

> <r_mmod_Stretch_Energy-OPLS-2005>
435.692352294922

> <r_mmod_Bend_Energy-OPLS-2005>
510.255065917969

> <r_mmod_Torsional_Energy-OPLS-2005>
249.292617797852

> <r_mmod_Improper_Torsional_Energy-OPLS-2005>
7.32332515716553

> <r_mmod_Van_der_Waal_Energy-OPLS-2005>
166.279022216797

> <r_mmod_Electrostatic_Energy-OPLS-2005>
-440.263854980469

> <r_mmod_Solvation_Energy-OPLS-2005>
-200.647155761719

> <b_mmod_Minimization_Converged-OPLS-2005>
0

> <r_mmod_RMS_Derivative-OPLS-2005>
5.59665441513062

$$$$
84
                    3D
 Structure written by MMmdl.
156165  0  0  1  0            999 V2000
  -30.5831  -14.6903   20.5120 C   0  0  0  0  0  0
  -30.4527  -12.4271   19.4539 C   0  0  0  0  0  0
  -29.5145  -12.5207   18.2273 C   0  0  0  0  0  0
  -28.0364  -12.3509   18.6370 C   0  0  0  0  0  0
  -27.6562  -13.2152   19.8681 C   0  0  2  0  0  0
  -28.7029  -13.0593   20.9951 C   0  0  0  0  0  0
  -25.2573  -13.8164   20.5700 C   0  0  0  0  0  0
  -24.1833  -13.0431   20.9185 C   0  0  0  0  0  0
  -24.6397  -11.6900   20.8733 C   0  0  0  0  0  0
  -23.9063  -10.4285   21.0402 C   0  0  0  0  0  0
  -24.3610   -9.4204   21.9185 C   0  0  0  0  0  0
  -23.6286   -8.2242   22.0757 C   0  0  0  0  0  0
  -22.4271   -8.0276   21.3545 C   0  0  0  0  0  0
  -21.9904   -9.0249   20.4646 C   0  0  0  0  0  0
  -22.7231  -10.2129   20.3055 C   0  0  0  0  0  0
  -21.6853   -6.0733   22.5280 C   0  0  0  0  0  0
  -21.4011   -6.5637   23.8213 C   0  0  0  0  0  0
  -21.3659   -5.6790   24.9175 C   0  0  0  0  0  0
  -21.6048   -4.3054   24.7226 C   0  0  0  0  0  0
  -21.8816   -3.8143   23.4346 C   0  0  0  0  0  0
  -21.9191   -4.6961   22.3402 C   0  0  0  0  0  0
  -22.7855  -13.5232   21.1850 C   0  0  0  0  0  0
  -22.1660   -4.2146   21.0982 F   0  0  0  0  0  0
  -21.5630   -3.4538   25.7741 F   0  0  0  0  0  0
  -30.0142  -13.4386   20.4386 N   0  0  0  0  0  0
  -26.3005  -12.9341   20.3339 N   0  0  0  0  0  0
  -25.9330  -11.6497   20.5756 N   0  0  0  0  0  0
  -22.0489  -12.8225   22.0398 N   0  0  0  0  0  0
  -25.4285  -15.1889   20.4146 N   0  0  0  0  0  0
  -31.7314  -14.8870   20.0967 O   0  0  0  0  0  0
  -21.6636   -6.8873   21.4242 O   0  0  0  0  0  0
  -22.3544  -14.5543   20.6699 O   0  0  0  0  0  0
  -24.6296  -31.8565   23.1996 C   0  0  0  0  0  0
  -25.9128  -32.4763   23.8333 C   0  0  1  0  0  0
  -27.2266  -27.2834   20.1157 C   0  0  0  0  0  0
  -25.5931  -33.8565   24.2264 N   0  0  0  0  0  0
  -23.4252  -30.4802   21.5425 C   0  0  2  0  0  0
  -24.8733  -28.9308   20.1093 C   0  0  0  0  0  0
  -22.7498  -29.4606   22.4906 C   0  0  0  0  0  0
  -18.0292  -28.1385   22.8478 C   0  0  0  0  0  0
  -24.1492  -36.7270   23.2640 C   0  0  0  0  0  0
  -25.9705  -30.7749   21.3786 C   0  0  0  0  0  0
  -26.0435  -29.3997   20.7184 C   0  0  0  0  0  0
  -27.2214  -28.5876   20.7133 C   0  0  0  0  0  0
  -26.0318  -26.8816   19.4737 C   0  0  0  0  0  0
  -24.8715  -27.6785   19.4776 C   0  0  0  0  0  0
  -23.6435  -29.8157   20.1580 C   0  0  0  0  0  0
  -25.4115  -36.3069   24.0333 C   0  0  1  0  0  0
  -20.5897  -28.3690   23.1270 C   0  0  2  0  0  0
  -20.6779  -26.9406   22.5407 C   0  0  0  0  0  0
  -19.5758  -26.6374   21.5212 C   0  0  0  0  0  0
  -18.1938  -26.7926   22.1618 C   0  0  0  0  0  0
  -19.1546  -28.8851   23.2875 C   0  0  0  0  0  0
  -18.9473  -30.1451   23.8895 C   0  0  0  0  0  0
  -17.6474  -30.6586   24.0558 C   0  0  0  0  0  0
  -25.9053  -34.9441   23.5096 C   0  0  0  0  0  0
  -16.5364  -29.9081   23.6335 C   0  0  0  0  0  0
  -16.7280  -28.6501   23.0350 C   0  0  0  0  0  0
  -26.4500  -31.6577   25.0716 C   0  0  0  0  0  0
  -25.3721  -31.3734   26.1436 C   0  0  0  0  0  0
  -27.0334  -30.2993   24.6176 C   0  0  0  0  0  0
  -27.6065  -32.4300   25.7486 C   0  0  0  0  0  0
  -27.5577  -37.1792   24.8472 C   0  0  0  0  0  0
  -21.4205  -29.3044   22.3662 N   0  0  0  0  0  0
  -26.4288  -37.3767   23.9417 N   0  0  0  0  0  0
  -24.6940  -31.0543   22.0967 N   0  0  0  0  0  0
  -23.4211  -28.8136   23.2990 O   0  0  0  0  0  0
  -28.3343  -26.4081   20.1757 O   0  0  0  0  0  0
  -26.5620  -34.8918   22.4662 O   0  0  0  0  0  0
  -23.5446  -32.1377   23.7299 O   0  0  0  0  0  0
  -28.2080  -18.9730   21.8636 C   0  0  0  0  0  0
  -28.5369  -17.5998   21.7512 C   0  0  0  0  0  0
  -28.9664  -19.9344   21.1681 C   0  0  0  0  0  0
  -30.0106  -19.4376   20.3732 C   0  0  0  0  0  0
  -29.6178  -17.1393   20.9578 C   0  0  0  0  0  0
  -28.7477  -21.4753   21.3446 C   0  0  0  0  0  0
  -30.7936  -20.5217   19.6355 C   0  0  0  0  0  0
  -29.8902  -21.7111   19.1313 C   0  0  0  0  0  0
  -29.2167  -23.8646   20.4325 C   0  0  0  0  0  0
  -28.1298  -24.9417   19.9371 C   0  0  0  0  0  0
  -30.3381  -18.0914   20.2647 N   0  0  0  0  0  0
  -29.7413  -15.6735   20.9780 N   0  0  0  0  0  0
  -28.9743  -22.3627   20.1409 N   0  3  2  0  0  0
  -31.4897  -12.5785   19.1481 H   0  0  0  0  0  0
  -30.4157  -11.4290   19.8937 H   0  0  0  0  0  0
  -29.7855  -11.7668   17.4871 H   0  0  0  0  0  0
  -29.6477  -13.4877   17.7397 H   0  0  0  0  0  0
  -27.8737  -11.2960   18.8629 H   0  0  0  0  0  0
  -27.3828  -12.5856   17.7958 H   0  0  0  0  0  0
  -27.6745  -14.2526   19.5338 H   0  0  0  0  0  0
  -28.7298  -12.0274   21.3494 H   0  0  0  0  0  0
  -28.4343  -13.6562   21.8675 H   0  0  0  0  0  0
  -25.2755   -9.5686   22.4756 H   0  0  0  0  0  0
  -23.9994   -7.4639   22.7482 H   0  0  0  0  0  0
  -21.0832   -8.8764   19.8955 H   0  0  0  0  0  0
  -22.3687  -10.9665   19.6159 H   0  0  0  0  0  0
  -21.2003   -7.6145   23.9715 H   0  0  0  0  0  0
  -21.1485   -6.0522   25.9079 H   0  0  0  0  0  0
  -22.0597   -2.7605   23.2850 H   0  0  0  0  0  0
  -22.4084  -11.9871   22.4774 H   0  0  0  0  0  0
  -21.1112  -13.1263   22.2608 H   0  0  0  0  0  0
  -24.6588  -15.8399   20.5285 H   0  0  0  0  0  0
  -26.2734  -15.6339   20.0801 H   0  0  0  0  0  0
  -26.7192  -32.5422   23.1073 H   0  0  0  0  0  0
  -25.0107  -33.9709   25.0428 H   0  0  0  0  0  0
  -22.7207  -31.3018   21.3967 H   0  0  0  0  0  0
  -23.3768  -35.9589   23.3296 H   0  0  0  0  0  0
  -24.3585  -36.8890   22.2056 H   0  0  0  0  0  0
  -23.7226  -37.6462   23.6665 H   0  0  0  0  0  0
  -26.1078  -31.5382   20.6110 H   0  0  0  0  0  0
  -26.8495  -30.8217   22.0102 H   0  0  0  0  0  0
  -28.1158  -28.9404   21.2078 H   0  0  0  0  0  0
  -25.9602  -25.9310   18.9668 H   0  0  0  0  0  0
  -23.9773  -27.3145   18.9915 H   0  0  0  0  0  0
  -23.7677  -30.5937   19.4036 H   0  0  0  0  0  0
  -22.7634  -29.2482   19.8507 H   0  0  0  0  0  0
  -25.1299  -36.1914   25.0825 H   0  0  0  0  0  0
  -20.9994  -28.3261   24.1390 H   0  0  0  0  0  0
  -20.5664  -26.2304   23.3608 H   0  0  0  0  0  0
  -21.6648  -26.7414   22.1213 H   0  0  0  0  0  0
  -19.6926  -25.6288   21.1236 H   0  0  0  0  0  0
  -19.6704  -27.3187   20.6747 H   0  0  0  0  0  0
  -17.4207  -26.6673   21.4019 H   0  0  0  0  0  0
  -18.0333  -26.0068   22.9011 H   0  0  0  0  0  0
  -19.7955  -30.7263   24.2260 H   0  0  0  0  0  0
  -17.5037  -31.6270   24.5152 H   0  0  0  0  0  0
  -15.5370  -30.2985   23.7668 H   0  0  0  0  0  0
  -15.8678  -28.0826   22.7063 H   0  0  0  0  0  0
  -24.5925  -30.7040   25.7775 H   0  0  0  0  0  0
  -24.8879  -32.2908   26.4799 H   0  0  0  0  0  0
  -25.8042  -30.8968   27.0244 H   0  0  0  0  0  0
  -26.2900  -29.6742   24.1215 H   0  0  0  0  0  0
  -27.4049  -29.7250   25.4673 H   0  0  0  0  0  0
  -27.8769  -30.4276   23.9387 H   0  0  0  0  0  0
  -27.2710  -33.3659   26.1967 H   0  0  0  0  0  0
  -28.3936  -32.6737   25.0338 H   0  0  0  0  0  0
  -28.0646  -31.8459   26.5480 H   0  0  0  0  0  0
  -28.2594  -38.0090   24.7513 H   0  0  0  0  0  0
  -28.1073  -36.2617   24.6305 H   0  0  0  0  0  0
  -27.2297  -37.1443   25.8877 H   0  0  0  0  0  0
  -20.9378  -29.8781   21.6888 H   0  0  0  0  0  0
  -26.0169  -38.2839   24.1422 H   0  0  0  0  0  0
  -27.3906  -19.2791   22.5013 H   0  0  0  0  0  0
  -27.9356  -16.8955   22.3094 H   0  0  0  0  0  0
  -29.4352  -21.7863   22.1318 H   0  0  0  0  0  0
  -27.7436  -21.6614   21.7289 H   0  0  0  0  0  0
  -31.3219  -20.0754   18.7929 H   0  0  0  0  0  0
  -31.5591  -20.9066   20.3099 H   0  0  0  0  0  0
  -29.2403  -21.3080   18.3544 H   0  0  0  0  0  0
  -30.5089  -22.4518   18.6255 H   0  0  0  0  0  0
  -29.3209  -23.9923   21.5098 H   0  0  0  0  0  0
  -30.1859  -24.1538   20.0272 H   0  0  0  0  0  0
  -27.1860  -24.6502   20.3994 H   0  0  0  0  0  0
  -27.9974  -24.8107   18.8624 H   0  0  0  0  0  0
  -28.9270  -15.2403   21.3807 H   0  0  0  0  0  0
  -28.0823  -22.3480   19.6661 H   0  0  0  0  0  0
  1 25  1  0  0  0
  1 30  2  0  0  0
  1 82  1  0  0  0
  2  3  1  0  0  0
  2 25  1  0  0  0
  2 84  1  0  0  0
  2 85  1  0  0  0
  3  4  1  0  0  0
  3 86  1  0  0  0
  3 87  1  0  0  0
  4  5  1  0  0  0
  4 88  1  0  0  0
  4 89  1  0  0  0
  5  6  1  0  0  0
  5 26  1  0  0  0
  5 90  1  0  0  0
  6 25  1  0  0  0
  6 91  1  0  0  0
  6 92  1  0  0  0
  7  8  2  0  0  0
  7 26  1  0  0  0
  7 29  1  0  0  0
  8  9  1  0  0  0
  8 22  1  0  0  0
  9 10  1  0  0  0
  9 27  2  0  0  0
 10 11  2  0  0  0
 10 15  1  0  0  0
 11 12  1  0  0  0
 11 93  1  0  0  0
 12 13  2  0  0  0
 12 94  1  0  0  0
 13 14  1  0  0  0
 13 31  1  0  0  0
 14 15  2  0  0  0
 14 95  1  0  0  0
 15 96  1  0  0  0
 16 17  2  0  0  0
 16 21  1  0  0  0
 16 31  1  0  0  0
 17 18  1  0  0  0
 17 97  1  0  0  0
 18 19  2  0  0  0
 18 98  1  0  0  0
 19 20  1  0  0  0
 19 24  1  0  0  0
 20 21  2  0  0  0
 20 99  1  0  0  0
 21 23  1  0  0  0
 22 28  1  0  0  0
 22 32  2  0  0  0
 26 27  1  0  0  0
 28100  1  0  0  0
 28101  1  0  0  0
 29102  1  0  0  0
 29103  1  0  0  0
 33 34  1  0  0  0
 33 66  1  0  0  0
 33 70  2  0  0  0
 34 36  1  0  0  0
 34 59  1  0  0  0
 34104  1  0  0  0
 35 44  2  0  0  0
 35 45  1  0  0  0
 35 68  1  0  0  0
 36 56  1  0  0  0
 36105  1  0  0  0
 37 39  1  0  0  0
 37 47  1  0  0  0
 37 66  1  0  0  0
 37106  1  0  0  0
 38 43  2  0  0  0
 38 46  1  0  0  0
 38 47  1  0  0  0
 39 64  1  0  0  0
 39 67  2  0  0  0
 40 52  1  0  0  0
 40 53  2  0  0  0
 40 58  1  0  0  0
 41107  1  0  0  0
 41108  1  0  0  0
 41109  1  0  0  0
 41 48  1  0  0  0
 42 43  1  0  0  0
 42 66  1  0  0  0
 42110  1  0  0  0
 42111  1  0  0  0
 43 44  1  0  0  0
 44112  1  0  0  0
 45 46  2  0  0  0
 45113  1  0  0  0
 46114  1  0  0  0
 47115  1  0  0  0
 47116  1  0  0  0
 48 56  1  0  0  0
 48 65  1  0  0  0
 48117  1  0  0  0
 49 50  1  0  0  0
 49 53  1  0  0  0
 49 64  1  0  0  0
 49118  1  0  0  0
 50 51  1  0  0  0
 50119  1  0  0  0
 50120  1  0  0  0
 51 52  1  0  0  0
 51121  1  0  0  0
 51122  1  0  0  0
 52123  1  0  0  0
 52124  1  0  0  0
 53 54  1  0  0  0
 54 55  2  0  0  0
 54125  1  0  0  0
 55 57  1  0  0  0
 55126  1  0  0  0
 56 69  2  0  0  0
 57 58  2  0  0  0
 57127  1  0  0  0
 58128  1  0  0  0
 59 60  1  0  0  0
 59 61  1  0  0  0
 59 62  1  0  0  0
 60129  1  0  0  0
 60130  1  0  0  0
 60131  1  0  0  0
 61132  1  0  0  0
 61133  1  0  0  0
 61134  1  0  0  0
 62135  1  0  0  0
 62136  1  0  0  0
 62137  1  0  0  0
 63 65  1  0  0  0
 63138  1  0  0  0
 63139  1  0  0  0
 63140  1  0  0  0
 64141  1  0  0  0
 65142  1  0  0  0
 68 80  1  0  0  0
 71 72  2  0  0  0
 71 73  1  0  0  0
 71143  1  0  0  0
 72 75  1  0  0  0
 72144  1  0  0  0
 73 74  2  0  0  0
 73 76  1  0  0  0
 74 77  1  0  0  0
 74 81  1  0  0  0
 75 81  2  0  0  0
 75 82  1  0  0  0
 76 83  1  0  0  0
 76145  1  0  0  0
 76146  1  0  0  0
 77 78  1  0  0  0
 77147  1  0  0  0
 77148  1  0  0  0
 78 83  1  0  0  0
 78149  1  0  0  0
 78150  1  0  0  0
 79 80  1  0  0  0
 79151  1  0  0  0
 79152  1  0  0  0
 79 83  1  0  0  0
 80153  1  0  0  0
 80154  1  0  0  0
 82155  1  0  0  0
 83156  1  0  0  0
M  CHG  1  83   1
M  ISO  4   1 100  68 101  80 101  82 100
M  END
> <chiral flag>
0

> <version>
0

> <s_m_source_file>
/data/baiqing/PycharmProjects/Reinvent-master-3.2/result/LINK_invent/BTK/process_docking_weight1_custom_sum_contain_oxygen_bond_distance_aromatic_linkinvent_7_9_3/rearranged_h_0123.sdf

> <i_m_source_file_index>
85

> <r_mmod_Potential_Energy-OPLS-2005>
-132.51123046875

> <r_mmod_Stretch_Energy-OPLS-2005>
101.654418945312

> <r_mmod_Bend_Energy-OPLS-2005>
182.244766235352

> <r_mmod_Torsional_Energy-OPLS-2005>
233.797515869141

> <r_mmod_Improper_Torsional_Energy-OPLS-2005>
3.19394707679749

> <r_mmod_Van_der_Waal_Energy-OPLS-2005>
150.345642089844

> <r_mmod_Electrostatic_Energy-OPLS-2005>
-394.594543457031

> <r_mmod_Solvation_Energy-OPLS-2005>
-474.997833251953

> <b_mmod_Minimization_Converged-OPLS-2005>
0

> <r_mmod_RMS_Derivative-OPLS-2005>
1.10819506645203

$$$$
85
                    3D
 Structure written by MMmdl.
205215  0  0  1  0            999 V2000
  -30.7092  -14.4498   20.5902 C   0  0  0  0  0  0
  -30.4253  -12.3001   19.4167 C   0  0  0  0  0  0
  -29.4942  -12.5079   18.2043 C   0  0  0  0  0  0
  -28.0157  -12.3686   18.6178 C   0  0  0  0  0  0
  -27.6650  -13.2034   19.8786 C   0  0  2  0  0  0
  -28.7066  -12.9700   20.9972 C   0  0  0  0  0  0
  -25.2606  -13.8154   20.5684 C   0  0  0  0  0  0
  -24.1848  -13.0438   20.9174 C   0  0  0  0  0  0
  -24.6395  -11.6902   20.8733 C   0  0  0  0  0  0
  -23.9057  -10.4292   21.0403 C   0  0  0  0  0  0
  -24.3609   -9.4208   21.9181 C   0  0  0  0  0  0
  -23.6287   -8.2243   22.0752 C   0  0  0  0  0  0
  -22.4269   -8.0281   21.3544 C   0  0  0  0  0  0
  -21.9902   -9.0255   20.4648 C   0  0  0  0  0  0
  -22.7229  -10.2135   20.3055 C   0  0  0  0  0  0
  -21.6852   -6.0734   22.5279 C   0  0  0  0  0  0
  -21.4015   -6.5637   23.8212 C   0  0  0  0  0  0
  -21.3659   -5.6790   24.9175 C   0  0  0  0  0  0
  -21.6043   -4.3053   24.7225 C   0  0  0  0  0  0
  -21.8819   -3.8146   23.4346 C   0  0  0  0  0  0
  -21.9193   -4.6962   22.3403 C   0  0  0  0  0  0
  -22.7872  -13.5243   21.1837 C   0  0  0  0  0  0
  -22.1662   -4.2149   21.0980 F   0  0  0  0  0  0
  -21.5627   -3.4537   25.7737 F   0  0  0  0  0  0
  -30.0406  -13.2742   20.4489 N   0  0  0  0  0  0
  -26.3043  -12.9318   20.3383 N   0  0  0  0  0  0
  -25.9323  -11.6481   20.5768 N   0  0  0  0  0  0
  -22.0504  -12.8242   22.0391 N   0  0  0  0  0  0
  -25.4340  -15.1869   20.4091 N   0  0  0  0  0  0
  -31.8186  -14.6614   20.0935 O   0  0  0  0  0  0
  -21.6636   -6.8876   21.4241 O   0  0  0  0  0  0
  -22.3563  -14.5555   20.6690 O   0  0  0  0  0  0
  -24.6156  -31.8688   23.2120 C   0  0  0  0  0  0
  -25.9051  -32.4826   23.8407 C   0  0  1  0  0  0
  -27.2299  -27.4272   20.0872 C   0  0  0  0  0  0
  -25.5909  -33.8625   24.2336 N   0  0  0  0  0  0
  -23.4025  -30.4953   21.5534 C   0  0  2  0  0  0
  -24.8462  -28.9665   20.1133 C   0  0  0  0  0  0
  -22.7414  -29.4666   22.4994 C   0  0  0  0  0  0
  -18.0272  -28.1376   22.8492 C   0  0  0  0  0  0
  -24.1488  -36.7315   23.2634 C   0  0  0  0  0  0
  -25.9340  -30.8310   21.3680 C   0  0  0  0  0  0
  -26.0087  -29.4666   20.7120 C   0  0  0  0  0  0
  -27.2011  -28.7038   20.6986 C   0  0  0  0  0  0
  -26.0437  -26.9547   19.4715 C   0  0  0  0  0  0
  -24.8590  -27.7093   19.4915 C   0  0  0  0  0  0
  -23.6097  -29.8337   20.1661 C   0  0  0  0  0  0
  -25.4106  -36.3113   24.0337 C   0  0  1  0  0  0
  -20.5864  -28.3664   23.1316 C   0  0  2  0  0  0
  -20.6765  -26.9402   22.5414 C   0  0  0  0  0  0
  -19.5743  -26.6386   21.5211 C   0  0  0  0  0  0
  -18.1921  -26.7923   22.1623 C   0  0  0  0  0  0
  -19.1522  -28.8837   23.2901 C   0  0  0  0  0  0
  -18.9450  -30.1443   23.8910 C   0  0  0  0  0  0
  -17.6454  -30.6584   24.0564 C   0  0  0  0  0  0
  -25.9035  -34.9478   23.5131 C   0  0  0  0  0  0
  -16.5344  -29.9086   23.6325 C   0  0  0  0  0  0
  -16.7261  -28.6502   23.0347 C   0  0  0  0  0  0
  -26.4475  -31.6602   25.0733 C   0  0  0  0  0  0
  -25.3743  -31.3717   26.1485 C   0  0  0  0  0  0
  -27.0294  -30.3039   24.6110 C   0  0  0  0  0  0
  -27.6058  -32.4313   25.7489 C   0  0  0  0  0  0
  -27.5584  -37.1807   24.8460 C   0  0  0  0  0  0
  -21.4142  -29.3037   22.3729 N   0  0  0  0  0  0
  -26.4292  -37.3798   23.9412 N   0  0  0  0  0  0
  -24.6690  -31.0789   22.1025 N   0  0  0  0  0  0
  -23.4187  -28.8198   23.3026 O   0  0  0  0  0  0
  -28.3981  -26.6810   20.1167 O   0  0  0  0  0  0
  -26.5592  -34.8926   22.4690 O   0  0  0  0  0  0
  -23.5348  -32.1444   23.7512 O   0  0  0  0  0  0
  -38.2470  -18.0268   21.9827 C   0  0  0  0  0  0
  -37.3746  -18.2647   23.2242 C   0  0  0  0  0  0
  -37.4622  -17.2904   20.8832 C   0  0  0  0  0  0
  -30.7198  -23.3516   22.1751 C   0  0  0  0  0  0
  -30.4910  -22.0409   20.0439 C   0  0  0  0  0  0
  -29.5871  -24.2988   21.7326 C   0  0  0  0  0  0
  -29.3670  -22.9967   19.5945 C   0  0  0  0  0  0
  -28.5413  -17.7139   24.5719 C   0  0  0  0  0  0
  -36.0664  -18.9925   22.8696 C   0  0  0  0  0  0
  -28.7181  -17.2301   23.1310 C   0  0  0  0  0  0
  -30.3294  -19.4046   24.0809 C   0  0  0  0  0  0
  -30.5843  -21.9295   21.5803 C   0  0  1  0  0  0
  -29.4916  -24.4167   20.1984 C   0  0  1  0  0  0
  -28.9169  -19.1988   24.6671 C   0  0  2  0  0  0
  -36.1559  -18.0211   20.5046 C   0  0  1  0  0  0
  -35.2790  -18.2395   21.7687 C   0  0  2  0  0  0
  -30.1499  -17.4965   22.6058 C   0  0  1  0  0  0
  -36.4510  -19.3105   19.7069 C   0  0  0  0  0  0
  -31.7691  -21.0371   22.0397 C   0  0  0  0  0  0
  -28.8364  -19.7373   26.1154 C   0  0  0  0  0  0
  -28.2949  -25.2923   19.7571 C   0  0  0  0  0  0
  -30.3390  -16.8642   21.1987 C   0  0  0  0  0  0
  -32.9298  -18.8044   22.4480 C   0  0  0  0  0  0
  -31.6093  -19.4812   21.9721 C   0  0  1  0  0  0
  -30.4041  -18.9630   22.6732 N   0  0  0  0  0  0
  -30.0140  -15.4309   21.1865 N   0  0  0  0  0  0
  -27.4612  -19.7571   26.6460 N   0  3  0  0  0  0
  -33.9977  -18.9029   21.4262 N   0  3  0  0  0  0
  -31.4694  -12.4012   19.1147 H   0  0  0  0  0  0
  -30.3265  -11.2857   19.8061 H   0  0  0  0  0  0
  -29.7313  -11.7881   17.4198 H   0  0  0  0  0  0
  -29.6641  -13.4960   17.7736 H   0  0  0  0  0  0
  -27.8246  -11.3121   18.8098 H   0  0  0  0  0  0
  -27.3648  -12.6482   17.7885 H   0  0  0  0  0  0
  -27.7143  -14.2533   19.5887 H   0  0  0  0  0  0
  -28.6794  -11.9303   21.3270 H   0  0  0  0  0  0
  -28.4670  -13.5583   21.8838 H   0  0  0  0  0  0
  -25.2756   -9.5684   22.4753 H   0  0  0  0  0  0
  -24.0000   -7.4633   22.7468 H   0  0  0  0  0  0
  -21.0834   -8.8772   19.8955 H   0  0  0  0  0  0
  -22.3687  -10.9672   19.6163 H   0  0  0  0  0  0
  -21.2008   -7.6145   23.9717 H   0  0  0  0  0  0
  -21.1479   -6.0519   25.9077 H   0  0  0  0  0  0
  -22.0599   -2.7609   23.2846 H   0  0  0  0  0  0
  -22.4104  -11.9893   22.4776 H   0  0  0  0  0  0
  -21.1124  -13.1277   22.2591 H   0  0  0  0  0  0
  -24.6682  -15.8433   20.5140 H   0  0  0  0  0  0
  -26.2876  -15.6241   20.0851 H   0  0  0  0  0  0
  -26.7121  -32.5535   23.1168 H   0  0  0  0  0  0
  -25.0076  -33.9790   25.0493 H   0  0  0  0  0  0
  -22.6912  -31.3127   21.4180 H   0  0  0  0  0  0
  -23.3750  -35.9648   23.3297 H   0  0  0  0  0  0
  -24.3588  -36.8928   22.2048 H   0  0  0  0  0  0
  -23.7239  -37.6521   23.6645 H   0  0  0  0  0  0
  -26.0502  -31.5987   20.6018 H   0  0  0  0  0  0
  -26.8209  -30.8805   21.9880 H   0  0  0  0  0  0
  -28.0964  -29.0858   21.1691 H   0  0  0  0  0  0
  -26.0014  -26.0031   18.9633 H   0  0  0  0  0  0
  -23.9668  -27.3207   19.0199 H   0  0  0  0  0  0
  -23.7186  -30.6113   19.4092 H   0  0  0  0  0  0
  -22.7327  -29.2558   19.8689 H   0  0  0  0  0  0
  -25.1280  -36.1979   25.0830 H   0  0  0  0  0  0
  -20.9953  -28.3228   24.1438 H   0  0  0  0  0  0
  -20.5673  -26.2271   23.3599 H   0  0  0  0  0  0
  -21.6636  -26.7451   22.1204 H   0  0  0  0  0  0
  -19.6905  -25.6301   21.1230 H   0  0  0  0  0  0
  -19.6680  -27.3205   20.6748 H   0  0  0  0  0  0
  -17.4191  -26.6672   21.4025 H   0  0  0  0  0  0
  -18.0323  -26.0061   22.9017 H   0  0  0  0  0  0
  -19.7927  -30.7254   24.2287 H   0  0  0  0  0  0
  -17.5010  -31.6267   24.5161 H   0  0  0  0  0  0
  -15.5345  -30.2993   23.7641 H   0  0  0  0  0  0
  -15.8660  -28.0826   22.7055 H   0  0  0  0  0  0
  -24.5905  -30.7074   25.7828 H   0  0  0  0  0  0
  -24.8948  -32.2878   26.4944 H   0  0  0  0  0  0
  -25.8097  -30.8877   27.0236 H   0  0  0  0  0  0
  -26.2833  -29.6813   24.1157 H   0  0  0  0  0  0
  -27.4050  -29.7265   25.4567 H   0  0  0  0  0  0
  -27.8680  -30.4351   23.9267 H   0  0  0  0  0  0
  -27.2687  -33.3607   26.2092 H   0  0  0  0  0  0
  -28.3852  -32.6881   25.0302 H   0  0  0  0  0  0
  -28.0741  -31.8419   26.5382 H   0  0  0  0  0  0
  -28.2595  -38.0112   24.7527 H   0  0  0  0  0  0
  -28.1087  -36.2647   24.6256 H   0  0  0  0  0  0
  -27.2308  -37.1424   25.8864 H   0  0  0  0  0  0
  -20.9298  -29.8772   21.6965 H   0  0  0  0  0  0
  -26.0182  -38.2875   24.1422 H   0  0  0  0  0  0
  -39.1293  -17.4469   22.2577 H   0  0  0  0  0  0
  -38.6207  -18.9791   21.6045 H   0  0  0  0  0  0
  -37.9319  -18.8404   23.9646 H   0  0  0  0  0  0
  -37.1433  -17.3076   23.6945 H   0  0  0  0  0  0
  -37.2243  -16.2835   21.2302 H   0  0  0  0  0  0
  -38.0917  -17.1583   20.0019 H   0  0  0  0  0  0
  -30.7296  -23.2972   23.2647 H   0  0  0  0  0  0
  -31.6796  -23.7819   21.8849 H   0  0  0  0  0  0
  -31.4402  -22.3952   19.6389 H   0  0  0  0  0  0
  -30.3230  -21.0542   19.6103 H   0  0  0  0  0  0
  -29.7437  -25.2865   22.1683 H   0  0  0  0  0  0
  -28.6397  -23.9366   22.1346 H   0  0  0  0  0  0
  -28.4045  -22.5651   19.8739 H   0  0  0  0  0  0
  -29.3635  -23.0591   18.5053 H   0  0  0  0  0  0
  -29.1724  -17.1217   25.2364 H   0  0  0  0  0  0
  -27.5105  -17.5482   24.8854 H   0  0  0  0  0  0
  -36.2905  -20.0110   22.5513 H   0  0  0  0  0  0
  -35.4715  -19.0842   23.7779 H   0  0  0  0  0  0
  -27.9891  -17.7174   22.4815 H   0  0  0  0  0  0
  -28.4805  -16.1667   23.1082 H   0  0  0  0  0  0
  -31.0754  -18.8834   24.6842 H   0  0  0  0  0  0
  -30.5440  -20.4666   24.1754 H   0  0  0  0  0  0
  -29.6546  -21.5001   21.9574 H   0  0  0  0  0  0
  -30.4087  -24.8718   19.8213 H   0  0  0  0  0  0
  -28.2228  -19.7755   24.0525 H   0  0  0  0  0  0
  -35.6108  -17.3561   19.8319 H   0  0  0  0  0  0
  -35.0327  -17.2480   22.1552 H   0  0  0  0  0  0
  -30.8423  -16.9911   23.2817 H   0  0  0  0  0  0
  -36.9700  -20.0600   20.3040 H   0  0  0  0  0  0
  -35.5419  -19.7695   19.3189 H   0  0  0  0  0  0
  -37.0822  -19.0942   18.8443 H   0  0  0  0  0  0
  -32.0615  -21.3240   23.0498 H   0  0  0  0  0  0
  -32.6362  -21.3242   21.4442 H   0  0  0  0  0  0
  -29.2214  -20.7576   26.1516 H   0  0  0  0  0  0
  -29.4698  -19.1459   26.7784 H   0  0  0  0  0  0
  -27.4002  -24.8491   20.1979 H   0  0  0  0  0  0
  -28.1868  -25.2314   18.6728 H   0  0  0  0  0  0
  -31.3589  -17.0076   20.8439 H   0  0  0  0  0  0
  -29.6904  -17.3633   20.4773 H   0  0  0  0  0  0
  -32.7867  -17.7446   22.6514 H   0  0  0  0  0  0
  -33.2557  -19.2484   23.3886 H   0  0  0  0  0  0
  -31.4600  -19.2387   20.9195 H   0  0  0  0  0  0
  -29.1104  -15.1700   21.5501 H   0  0  0  0  0  0
  -26.8632  -20.3246   26.0724 H   0  0  0  0  0  0
  -27.4609  -20.1445   27.5731 H   0  0  0  0  0  0
  -27.0789  -18.8304   26.6992 H   0  0  0  0  0  0
  -33.6517  -18.4730   20.5831 H   0  0  0  0  0  0
  -34.1758  -19.8728   21.2215 H   0  0  0  0  0  0
  1 25  1  0  0  0
  1 30  2  0  0  0
  1 96  1  0  0  0
  2  3  1  0  0  0
  2 25  1  0  0  0
  2 99  1  0  0  0
  2100  1  0  0  0
  3  4  1  0  0  0
  3101  1  0  0  0
  3102  1  0  0  0
  4  5  1  0  0  0
  4103  1  0  0  0
  4104  1  0  0  0
  5  6  1  0  0  0
  5 26  1  0  0  0
  5105  1  0  0  0
  6 25  1  0  0  0
  6106  1  0  0  0
  6107  1  0  0  0
  7  8  2  0  0  0
  7 26  1  0  0  0
  7 29  1  0  0  0
  8  9  1  0  0  0
  8 22  1  0  0  0
  9 10  1  0  0  0
  9 27  2  0  0  0
 10 11  2  0  0  0
 10 15  1  0  0  0
 11 12  1  0  0  0
 11108  1  0  0  0
 12 13  2  0  0  0
 12109  1  0  0  0
 13 14  1  0  0  0
 13 31  1  0  0  0
 14 15  2  0  0  0
 14110  1  0  0  0
 15111  1  0  0  0
 16 17  2  0  0  0
 16 21  1  0  0  0
 16 31  1  0  0  0
 17 18  1  0  0  0
 17112  1  0  0  0
 18 19  2  0  0  0
 18113  1  0  0  0
 19 20  1  0  0  0
 19 24  1  0  0  0
 20 21  2  0  0  0
 20114  1  0  0  0
 21 23  1  0  0  0
 22 28  1  0  0  0
 22 32  2  0  0  0
 26 27  1  0  0  0
 28115  1  0  0  0
 28116  1  0  0  0
 29117  1  0  0  0
 29118  1  0  0  0
 33 34  1  0  0  0
 33 66  1  0  0  0
 33 70  2  0  0  0
 34 36  1  0  0  0
 34 59  1  0  0  0
 34119  1  0  0  0
 35 44  2  0  0  0
 35 45  1  0  0  0
 35 68  1  0  0  0
 36 56  1  0  0  0
 36120  1  0  0  0
 37 39  1  0  0  0
 37 47  1  0  0  0
 37 66  1  0  0  0
 37121  1  0  0  0
 38 43  2  0  0  0
 38 46  1  0  0  0
 38 47  1  0  0  0
 39 64  1  0  0  0
 39 67  2  0  0  0
 40 52  1  0  0  0
 40 53  2  0  0  0
 40 58  1  0  0  0
 41122  1  0  0  0
 41123  1  0  0  0
 41124  1  0  0  0
 41 48  1  0  0  0
 42 43  1  0  0  0
 42 66  1  0  0  0
 42125  1  0  0  0
 42126  1  0  0  0
 43 44  1  0  0  0
 44127  1  0  0  0
 45 46  2  0  0  0
 45128  1  0  0  0
 46129  1  0  0  0
 47130  1  0  0  0
 47131  1  0  0  0
 48 56  1  0  0  0
 48 65  1  0  0  0
 48132  1  0  0  0
 49 50  1  0  0  0
 49 53  1  0  0  0
 49 64  1  0  0  0
 49133  1  0  0  0
 50 51  1  0  0  0
 50134  1  0  0  0
 50135  1  0  0  0
 51 52  1  0  0  0
 51136  1  0  0  0
 51137  1  0  0  0
 52138  1  0  0  0
 52139  1  0  0  0
 53 54  1  0  0  0
 54 55  2  0  0  0
 54140  1  0  0  0
 55 57  1  0  0  0
 55141  1  0  0  0
 56 69  2  0  0  0
 57 58  2  0  0  0
 57142  1  0  0  0
 58143  1  0  0  0
 59 60  1  0  0  0
 59 61  1  0  0  0
 59 62  1  0  0  0
 60144  1  0  0  0
 60145  1  0  0  0
 60146  1  0  0  0
 61147  1  0  0  0
 61148  1  0  0  0
 61149  1  0  0  0
 62150  1  0  0  0
 62151  1  0  0  0
 62152  1  0  0  0
 63 65  1  0  0  0
 63153  1  0  0  0
 63154  1  0  0  0
 63155  1  0  0  0
 64156  1  0  0  0
 65157  1  0  0  0
 68 91  1  0  0  0
 71 72  1  0  0  0
 71 73  1  0  0  0
 71158  1  0  0  0
 71159  1  0  0  0
 72 79  1  0  0  0
 72160  1  0  0  0
 72161  1  0  0  0
 73 85  1  0  0  0
 73162  1  0  0  0
 73163  1  0  0  0
 74 76  1  0  0  0
 74 82  1  0  0  0
 74164  1  0  0  0
 74165  1  0  0  0
 75 77  1  0  0  0
 75 82  1  0  0  0
 75166  1  0  0  0
 75167  1  0  0  0
 76 83  1  0  0  0
 76168  1  0  0  0
 76169  1  0  0  0
 77 83  1  0  0  0
 77170  1  0  0  0
 77171  1  0  0  0
 78 80  1  0  0  0
 78 84  1  0  0  0
 78172  1  0  0  0
 78173  1  0  0  0
 79 86  1  0  0  0
 79174  1  0  0  0
 79175  1  0  0  0
 80 87  1  0  0  0
 80176  1  0  0  0
 80177  1  0  0  0
 81 84  1  0  0  0
 81 95  1  0  0  0
 81178  1  0  0  0
 81179  1  0  0  0
 82 89  1  0  0  0
 82180  1  0  0  0
 83 91  1  0  0  0
 83181  1  0  0  0
 84 90  1  0  0  0
 84182  1  0  0  0
 85 86  1  0  0  0
 85 88  1  0  0  0
 85183  1  0  0  0
 86 98  1  0  0  0
 86184  1  0  0  0
 87 92  1  0  0  0
 87 95  1  0  0  0
 87185  1  0  0  0
 88186  1  0  0  0
 88187  1  0  0  0
 88188  1  0  0  0
 89189  1  0  0  0
 89190  1  0  0  0
 89 94  1  0  0  0
 90 97  1  0  0  0
 90191  1  0  0  0
 90192  1  0  0  0
 91193  1  0  0  0
 91194  1  0  0  0
 92 96  1  0  0  0
 92195  1  0  0  0
 92196  1  0  0  0
 93 94  1  0  0  0
 93 98  1  0  0  0
 93197  1  0  0  0
 93198  1  0  0  0
 94 95  1  0  0  0
 94199  1  0  0  0
 96200  1  0  0  0
 97201  1  0  0  0
 97202  1  0  0  0
 97203  1  0  0  0
 98204  1  0  0  0
 98205  1  0  0  0
M  CHG  2  97   1  98   1
M  ISO  4   1 100  68 101  91 101  96 100
M  END
> <chiral flag>
0

> <version>
0

> <s_m_source_file>
/data/baiqing/PycharmProjects/Reinvent-master-3.2/result/LINK_invent/BTK/process_docking_weight1_custom_sum_contain_oxygen_bond_distance_aromatic_linkinvent_7_9_3/rearranged_h_0123.sdf

> <i_m_source_file_index>
86

> <r_mmod_Potential_Energy-OPLS-2005>
-336.688232421875

> <r_mmod_Stretch_Energy-OPLS-2005>
48.1116142272949

> <r_mmod_Bend_Energy-OPLS-2005>
130.681976318359

> <r_mmod_Torsional_Energy-OPLS-2005>
321.410797119141

> <r_mmod_Improper_Torsional_Energy-OPLS-2005>
3.44242525100708

> <r_mmod_Van_der_Waal_Energy-OPLS-2005>
157.46598815918

> <r_mmod_Electrostatic_Energy-OPLS-2005>
-120.631759643555

> <r_mmod_Solvation_Energy-OPLS-2005>
-889.278747558594

> <b_mmod_Minimization_Converged-OPLS-2005>
0

> <r_mmod_RMS_Derivative-OPLS-2005>
0.256393551826477

$$$$
86
                    3D
 Structure written by MMmdl.
168176  0  0  1  0            999 V2000
  -30.6442  -14.6144   20.4750 C   0  0  0  0  0  0
  -30.4337  -12.3617   19.4640 C   0  0  0  0  0  0
  -29.5073  -12.4623   18.2337 C   0  0  0  0  0  0
  -28.0334  -12.2969   18.6565 C   0  0  0  0  0  0
  -27.6539  -13.1981   19.8618 C   0  0  2  0  0  0
  -28.6983  -13.0819   20.9936 C   0  0  0  0  0  0
  -25.2603  -13.8128   20.5701 C   0  0  0  0  0  0
  -24.1840  -13.0434   20.9150 C   0  0  0  0  0  0
  -24.6376  -11.6890   20.8736 C   0  0  0  0  0  0
  -23.9025  -10.4281   21.0412 C   0  0  0  0  0  0
  -24.3560   -9.4203   21.9205 C   0  0  0  0  0  0
  -23.6237   -8.2249   22.0778 C   0  0  0  0  0  0
  -22.4236   -8.0272   21.3543 C   0  0  0  0  0  0
  -21.9865   -9.0244   20.4631 C   0  0  0  0  0  0
  -22.7209  -10.2120   20.3055 C   0  0  0  0  0  0
  -21.6843   -6.0716   22.5249 C   0  0  0  0  0  0
  -21.4003   -6.5610   23.8188 C   0  0  0  0  0  0
  -21.3672   -5.6764   24.9147 C   0  0  0  0  0  0
  -21.6057   -4.3038   24.7209 C   0  0  0  0  0  0
  -21.8821   -3.8119   23.4329 C   0  0  0  0  0  0
  -21.9188   -4.6928   22.3376 C   0  0  0  0  0  0
  -22.7874  -13.5259   21.1787 C   0  0  0  0  0  0
  -22.1650   -4.2122   21.0962 F   0  0  0  0  0  0
  -21.5636   -3.4521   25.7738 F   0  0  0  0  0  0
  -30.0099  -13.4014   20.4185 N   0  0  0  0  0  0
  -26.2999  -12.9267   20.3349 N   0  0  0  0  0  0
  -25.9303  -11.6443   20.5805 N   0  0  0  0  0  0
  -22.0494  -12.8243   22.0308 N   0  0  0  0  0  0
  -25.4387  -15.1842   20.4116 N   0  0  0  0  0  0
  -31.8153  -14.7405   20.1079 O   0  0  0  0  0  0
  -21.6626   -6.8871   21.4225 O   0  0  0  0  0  0
  -22.3600  -14.5601   20.6672 O   0  0  0  0  0  0
  -24.6236  -31.8592   23.1993 C   0  0  0  0  0  0
  -25.9079  -32.4762   23.8325 C   0  0  1  0  0  0
  -27.2437  -27.3553   20.1488 C   0  0  0  0  0  0
  -25.5909  -33.8578   24.2235 N   0  0  0  0  0  0
  -23.4187  -30.4777   21.5377 C   0  0  2  0  0  0
  -24.8725  -28.9302   20.1143 C   0  0  0  0  0  0
  -22.7456  -29.4591   22.4899 C   0  0  0  0  0  0
  -18.0287  -28.1403   22.8454 C   0  0  0  0  0  0
  -24.1466  -36.7290   23.2612 C   0  0  0  0  0  0
  -25.9495  -30.8090   21.3567 C   0  0  0  0  0  0
  -26.0318  -29.4307   20.7184 C   0  0  0  0  0  0
  -27.2229  -28.6553   20.7244 C   0  0  0  0  0  0
  -26.0648  -26.8796   19.5374 C   0  0  0  0  0  0
  -24.8886  -27.6567   19.5142 C   0  0  0  0  0  0
  -23.6373  -29.8075   20.1525 C   0  0  0  0  0  0
  -25.4078  -36.3043   24.0296 C   0  0  1  0  0  0
  -20.5883  -28.3683   23.1268 C   0  0  2  0  0  0
  -20.6763  -26.9405   22.5396 C   0  0  0  0  0  0
  -19.5746  -26.6395   21.5179 C   0  0  0  0  0  0
  -18.1922  -26.7944   22.1585 C   0  0  0  0  0  0
  -19.1538  -28.8851   23.2864 C   0  0  0  0  0  0
  -18.9482  -30.1451   23.8881 C   0  0  0  0  0  0
  -17.6499  -30.6594   24.0572 C   0  0  0  0  0  0
  -25.9054  -34.9432   23.5053 C   0  0  0  0  0  0
  -16.5389  -29.9108   23.6327 C   0  0  0  0  0  0
  -16.7285  -28.6543   23.0309 C   0  0  0  0  0  0
  -26.4485  -31.6582   25.0694 C   0  0  0  0  0  0
  -25.3744  -31.3713   26.1436 C   0  0  0  0  0  0
  -27.0337  -30.3034   24.6077 C   0  0  0  0  0  0
  -27.6022  -32.4327   25.7499 C   0  0  0  0  0  0
  -27.5590  -37.1723   24.8393 C   0  0  0  0  0  0
  -21.4169  -29.3053   22.3666 N   0  0  0  0  0  0
  -26.4199  -37.3792   23.9492 N   0  0  0  0  0  0
  -24.6820  -31.0649   22.0905 N   0  0  0  0  0  0
  -23.4198  -28.8108   23.2950 O   0  0  0  0  0  0
  -28.3802  -26.5531   20.1479 O   0  0  0  0  0  0
  -26.5642  -34.8925   22.4644 O   0  0  0  0  0  0
  -23.5412  -32.1365   23.7328 O   0  0  0  0  0  0
  -29.6004  -16.6094   19.3638 C   0  0  0  0  0  0
  -29.4111  -16.3612   21.7960 C   0  0  0  0  0  0
  -29.9553  -18.1295   19.5451 C   0  0  0  0  0  0
  -29.9655  -17.8138   21.9731 C   0  0  1  0  0  0
  -31.5014  -17.7944   22.1761 C   0  0  0  0  0  0
  -30.7569  -23.1426   19.9183 C   0  0  0  0  0  0
  -29.4790  -25.5868   22.0713 C   0  0  0  0  0  0
  -29.0201  -21.3081   20.3446 C   0  0  0  0  0  0
  -28.3597  -23.9393   20.3031 C   0  0  0  0  0  0
  -29.8911  -20.1850   21.0561 C   0  0  0  0  0  0
  -29.4384  -22.8183   20.6460 C   0  0  2  0  0  0
  -28.3746  -25.3705   21.0155 C   0  0  2  0  0  0
  -29.8299  -15.7213   20.5349 N   0  0  0  0  0  0
  -29.5353  -18.7177   20.8515 N   0  3  1  0  0  0
  -31.4771  -12.4698   19.1668 H   0  0  0  0  0  0
  -30.3575  -11.3748   19.9266 H   0  0  0  0  0  0
  -29.7742  -11.6983   17.5019 H   0  0  0  0  0  0
  -29.6432  -13.4251   17.7381 H   0  0  0  0  0  0
  -27.8931  -11.2479   18.9262 H   0  0  0  0  0  0
  -27.3722  -12.4846   17.8108 H   0  0  0  0  0  0
  -27.6662  -14.2215   19.4898 H   0  0  0  0  0  0
  -28.7101  -12.0736   21.4095 H   0  0  0  0  0  0
  -28.4489  -13.7485   21.8189 H   0  0  0  0  0  0
  -25.2701   -9.5667   22.4782 H   0  0  0  0  0  0
  -23.9914   -7.4650   22.7527 H   0  0  0  0  0  0
  -21.0800   -8.8758   19.8922 H   0  0  0  0  0  0
  -22.3684  -10.9650   19.6127 H   0  0  0  0  0  0
  -21.1986   -7.6119   23.9674 H   0  0  0  0  0  0
  -21.1502   -6.0511   25.9060 H   0  0  0  0  0  0
  -22.0592   -2.7579   23.2846 H   0  0  0  0  0  0
  -22.4043  -11.9788   22.4533 H   0  0  0  0  0  0
  -21.1132  -13.1305   22.2545 H   0  0  0  0  0  0
  -24.6771  -15.8454   20.5322 H   0  0  0  0  0  0
  -26.2938  -15.6165   20.0879 H   0  0  0  0  0  0
  -26.7159  -32.5486   23.1102 H   0  0  0  0  0  0
  -25.0031  -33.9733   25.0351 H   0  0  0  0  0  0
  -22.7097  -31.2941   21.3852 H   0  0  0  0  0  0
  -23.3773  -35.9565   23.3086 H   0  0  0  0  0  0
  -24.3607  -36.9152   22.2078 H   0  0  0  0  0  0
  -23.7156  -37.6391   23.6801 H   0  0  0  0  0  0
  -26.0498  -31.5584   20.5696 H   0  0  0  0  0  0
  -26.8395  -30.8839   21.9686 H   0  0  0  0  0  0
  -28.1205  -29.0351   21.1925 H   0  0  0  0  0  0
  -26.0587  -25.8979   19.0889 H   0  0  0  0  0  0
  -23.9994  -27.2627   19.0406 H   0  0  0  0  0  0
  -23.7622  -30.5822   19.3937 H   0  0  0  0  0  0
  -22.7606  -29.2359   19.8452 H   0  0  0  0  0  0
  -25.1237  -36.1809   25.0772 H   0  0  0  0  0  0
  -20.9990  -28.3266   24.1377 H   0  0  0  0  0  0
  -20.5604  -26.2311   23.3605 H   0  0  0  0  0  0
  -21.6638  -26.7377   22.1232 H   0  0  0  0  0  0
  -19.6905  -25.6291   21.1232 H   0  0  0  0  0  0
  -19.6709  -27.3184   20.6696 H   0  0  0  0  0  0
  -17.4192  -26.6683   21.3997 H   0  0  0  0  0  0
  -18.0329  -26.0079   22.8977 H   0  0  0  0  0  0
  -19.7966  -30.7265   24.2244 H   0  0  0  0  0  0
  -17.5062  -31.6256   24.5192 H   0  0  0  0  0  0
  -15.5395  -30.3032   23.7638 H   0  0  0  0  0  0
  -15.8684  -28.0909   22.6972 H   0  0  0  0  0  0
  -24.5932  -30.7022   25.7830 H   0  0  0  0  0  0
  -24.8904  -32.2872   26.4837 H   0  0  0  0  0  0
  -25.8079  -30.8965   27.0241 H   0  0  0  0  0  0
  -26.2908  -29.6806   24.1086 H   0  0  0  0  0  0
  -27.4114  -29.7238   25.4513 H   0  0  0  0  0  0
  -27.8711  -30.4395   23.9219 H   0  0  0  0  0  0
  -27.2616  -33.3664   26.1993 H   0  0  0  0  0  0
  -28.3893  -32.6849   25.0376 H   0  0  0  0  0  0
  -28.0610  -31.8513   26.5506 H   0  0  0  0  0  0
  -28.2317  -38.0285   24.7818 H   0  0  0  0  0  0
  -28.1350  -36.2865   24.5693 H   0  0  0  0  0  0
  -27.2399  -37.0741   25.8781 H   0  0  0  0  0  0
  -20.9326  -29.8915   21.7009 H   0  0  0  0  0  0
  -26.0023  -38.2769   24.1812 H   0  0  0  0  0  0
  -30.1078  -16.2227   18.4765 H   0  0  0  0  0  0
  -28.5394  -16.5420   19.1226 H   0  0  0  0  0  0
  -28.3186  -16.3791   21.8120 H   0  0  0  0  0  0
  -29.7007  -15.7437   22.6483 H   0  0  0  0  0  0
  -29.4968  -18.7036   18.7395 H   0  0  0  0  0  0
  -31.0307  -18.2561   19.4216 H   0  0  0  0  0  0
  -29.5295  -18.2110   22.8913 H   0  0  0  0  0  0
  -32.0123  -17.2080   21.4127 H   0  0  0  0  0  0
  -31.7555  -17.3483   23.1375 H   0  0  0  0  0  0
  -31.9400  -18.7911   22.1713 H   0  0  0  0  0  0
  -31.5478  -22.4318   20.1555 H   0  0  0  0  0  0
  -31.1404  -24.1285   20.1761 H   0  0  0  0  0  0
  -30.6166  -23.1294   18.8370 H   0  0  0  0  0  0
  -29.4415  -24.8333   22.8593 H   0  0  0  0  0  0
  -29.3614  -26.5594   22.5534 H   0  0  0  0  0  0
  -30.4801  -25.5708   21.6494 H   0  0  0  0  0  0
  -27.9803  -21.1716   20.6440 H   0  0  0  0  0  0
  -29.0365  -21.1469   19.2656 H   0  0  0  0  0  0
  -27.3864  -23.5030   20.5363 H   0  0  0  0  0  0
  -28.3210  -24.0895   19.2247 H   0  0  0  0  0  0
  -29.8280  -20.3914   22.1248 H   0  0  0  0  0  0
  -30.9401  -20.3199   20.7961 H   0  0  0  0  0  0
  -29.6222  -22.8686   21.7197 H   0  0  0  0  0  0
  -27.4494  -25.4043   21.5952 H   0  0  0  0  0  0
  -28.5265  -18.6833   20.8711 H   0  0  0  0  0  0
  1 25  1  0  0  0
  1 30  2  0  0  0
  1 83  1  0  0  0
  2  3  1  0  0  0
  2 25  1  0  0  0
  2 85  1  0  0  0
  2 86  1  0  0  0
  3  4  1  0  0  0
  3 87  1  0  0  0
  3 88  1  0  0  0
  4  5  1  0  0  0
  4 89  1  0  0  0
  4 90  1  0  0  0
  5  6  1  0  0  0
  5 26  1  0  0  0
  5 91  1  0  0  0
  6 25  1  0  0  0
  6 92  1  0  0  0
  6 93  1  0  0  0
  7  8  2  0  0  0
  7 26  1  0  0  0
  7 29  1  0  0  0
  8  9  1  0  0  0
  8 22  1  0  0  0
  9 10  1  0  0  0
  9 27  2  0  0  0
 10 11  2  0  0  0
 10 15  1  0  0  0
 11 12  1  0  0  0
 11 94  1  0  0  0
 12 13  2  0  0  0
 12 95  1  0  0  0
 13 14  1  0  0  0
 13 31  1  0  0  0
 14 15  2  0  0  0
 14 96  1  0  0  0
 15 97  1  0  0  0
 16 17  2  0  0  0
 16 21  1  0  0  0
 16 31  1  0  0  0
 17 18  1  0  0  0
 17 98  1  0  0  0
 18 19  2  0  0  0
 18 99  1  0  0  0
 19 20  1  0  0  0
 19 24  1  0  0  0
 20 21  2  0  0  0
 20100  1  0  0  0
 21 23  1  0  0  0
 22 28  1  0  0  0
 22 32  2  0  0  0
 26 27  1  0  0  0
 28101  1  0  0  0
 28102  1  0  0  0
 29103  1  0  0  0
 29104  1  0  0  0
 33 34  1  0  0  0
 33 66  1  0  0  0
 33 70  2  0  0  0
 34 36  1  0  0  0
 34 59  1  0  0  0
 34105  1  0  0  0
 35 44  2  0  0  0
 35 45  1  0  0  0
 35 68  1  0  0  0
 36 56  1  0  0  0
 36106  1  0  0  0
 37 39  1  0  0  0
 37 47  1  0  0  0
 37 66  1  0  0  0
 37107  1  0  0  0
 38 43  2  0  0  0
 38 46  1  0  0  0
 38 47  1  0  0  0
 39 64  1  0  0  0
 39 67  2  0  0  0
 40 52  1  0  0  0
 40 53  2  0  0  0
 40 58  1  0  0  0
 41108  1  0  0  0
 41109  1  0  0  0
 41110  1  0  0  0
 41 48  1  0  0  0
 42 43  1  0  0  0
 42 66  1  0  0  0
 42111  1  0  0  0
 42112  1  0  0  0
 43 44  1  0  0  0
 44113  1  0  0  0
 45 46  2  0  0  0
 45114  1  0  0  0
 46115  1  0  0  0
 47116  1  0  0  0
 47117  1  0  0  0
 48 56  1  0  0  0
 48 65  1  0  0  0
 48118  1  0  0  0
 49 50  1  0  0  0
 49 53  1  0  0  0
 49 64  1  0  0  0
 49119  1  0  0  0
 50 51  1  0  0  0
 50120  1  0  0  0
 50121  1  0  0  0
 51 52  1  0  0  0
 51122  1  0  0  0
 51123  1  0  0  0
 52124  1  0  0  0
 52125  1  0  0  0
 53 54  1  0  0  0
 54 55  2  0  0  0
 54126  1  0  0  0
 55 57  1  0  0  0
 55127  1  0  0  0
 56 69  2  0  0  0
 57 58  2  0  0  0
 57128  1  0  0  0
 58129  1  0  0  0
 59 60  1  0  0  0
 59 61  1  0  0  0
 59 62  1  0  0  0
 60130  1  0  0  0
 60131  1  0  0  0
 60132  1  0  0  0
 61133  1  0  0  0
 61134  1  0  0  0
 61135  1  0  0  0
 62136  1  0  0  0
 62137  1  0  0  0
 62138  1  0  0  0
 63 65  1  0  0  0
 63139  1  0  0  0
 63140  1  0  0  0
 63141  1  0  0  0
 64142  1  0  0  0
 65143  1  0  0  0
 68 82  1  0  0  0
 71 73  1  0  0  0
 71 83  1  0  0  0
 71144  1  0  0  0
 71145  1  0  0  0
 72 74  1  0  0  0
 72 83  1  0  0  0
 72146  1  0  0  0
 72147  1  0  0  0
 73 84  1  0  0  0
 73148  1  0  0  0
 73149  1  0  0  0
 74 75  1  0  0  0
 74 84  1  0  0  0
 74150  1  0  0  0
 75151  1  0  0  0
 75152  1  0  0  0
 75153  1  0  0  0
 76154  1  0  0  0
 76155  1  0  0  0
 76156  1  0  0  0
 76 81  1  0  0  0
 77157  1  0  0  0
 77158  1  0  0  0
 77159  1  0  0  0
 77 82  1  0  0  0
 78 80  1  0  0  0
 78 81  1  0  0  0
 78160  1  0  0  0
 78161  1  0  0  0
 79 81  1  0  0  0
 79 82  1  0  0  0
 79162  1  0  0  0
 79163  1  0  0  0
 80164  1  0  0  0
 80165  1  0  0  0
 80 84  1  0  0  0
 81166  1  0  0  0
 82167  1  0  0  0
 84168  1  0  0  0
M  CHG  1  84   1
M  ISO  4   1 100  68 101  82 101  83 100
M  END
> <chiral flag>
0

> <version>
0

> <s_m_source_file>
/data/baiqing/PycharmProjects/Reinvent-master-3.2/result/LINK_invent/BTK/process_docking_weight1_custom_sum_contain_oxygen_bond_distance_aromatic_linkinvent_7_9_3/rearranged_h_0123.sdf

> <i_m_source_file_index>
87

> <r_mmod_Potential_Energy-OPLS-2005>
213.520294189453

> <r_mmod_Stretch_Energy-OPLS-2005>
74.2151184082031

> <r_mmod_Bend_Energy-OPLS-2005>
136.628509521484

> <r_mmod_Torsional_Energy-OPLS-2005>
449.941772460938

> <r_mmod_Improper_Torsional_Energy-OPLS-2005>
12.8196506500244

> <r_mmod_Van_der_Waal_Energy-OPLS-2005>
119.457824707031

> <r_mmod_Electrostatic_Energy-OPLS-2005>
-197.900726318359

> <r_mmod_Solvation_Energy-OPLS-2005>
-421.286346435547

> <b_mmod_Minimization_Converged-OPLS-2005>
0

> <r_mmod_RMS_Derivative-OPLS-2005>
4.31716632843018

$$$$
87
                    3D
 Structure written by MMmdl.
156165  0  0  1  0            999 V2000
  -30.5165  -15.0097   20.4095 C   0  0  0  0  0  0
  -30.4426  -12.6338   19.4776 C   0  0  0  0  0  0
  -29.5172  -12.5286   18.2441 C   0  0  0  0  0  0
  -28.0543  -12.3031   18.6743 C   0  0  0  0  0  0
  -27.6219  -13.2475   19.8259 C   0  0  2  0  0  0
  -28.6712  -13.3102   20.9535 C   0  0  0  0  0  0
  -25.2447  -13.8203   20.5724 C   0  0  0  0  0  0
  -24.1769  -13.0427   20.9237 C   0  0  0  0  0  0
  -24.6387  -11.6913   20.8756 C   0  0  0  0  0  0
  -23.9069  -10.4284   21.0407 C   0  0  0  0  0  0
  -24.3621   -9.4201   21.9184 C   0  0  0  0  0  0
  -23.6297   -8.2237   22.0750 C   0  0  0  0  0  0
  -22.4280   -8.0271   21.3538 C   0  0  0  0  0  0
  -21.9910   -9.0243   20.4643 C   0  0  0  0  0  0
  -22.7238  -10.2124   20.3056 C   0  0  0  0  0  0
  -21.6858   -6.0731   22.5276 C   0  0  0  0  0  0
  -21.4015   -6.5636   23.8208 C   0  0  0  0  0  0
  -21.3663   -5.6788   24.9171 C   0  0  0  0  0  0
  -21.6049   -4.3051   24.7225 C   0  0  0  0  0  0
  -21.8820   -3.8143   23.4345 C   0  0  0  0  0  0
  -21.9195   -4.6957   22.3400 C   0  0  0  0  0  0
  -22.7789  -13.5196   21.1892 C   0  0  0  0  0  0
  -22.1661   -4.2142   21.0978 F   0  0  0  0  0  0
  -21.5630   -3.4537   25.7742 F   0  0  0  0  0  0
  -29.9265  -13.7448   20.3273 N   0  0  0  0  0  0
  -26.2861  -12.9430   20.3224 N   0  0  0  0  0  0
  -25.9316  -11.6561   20.5730 N   0  0  0  0  0  0
  -22.0439  -12.8185   22.0452 N   0  0  0  0  0  0
  -25.4101  -15.1940   20.4169 N   0  0  0  0  0  0
  -31.7458  -15.0446   20.2629 O   0  0  0  0  0  0
  -21.6643   -6.8869   21.4237 O   0  0  0  0  0  0
  -22.3469  -14.5500   20.6737 O   0  0  0  0  0  0
  -24.6474  -31.8399   23.1824 C   0  0  0  0  0  0
  -25.9224  -32.4672   23.8237 C   0  0  1  0  0  0
  -27.2210  -27.0924   20.1682 C   0  0  0  0  0  0
  -25.5957  -33.8476   24.2163 N   0  0  0  0  0  0
  -23.4526  -30.4557   21.5299 C   0  0  2  0  0  0
  -24.9009  -28.8617   20.1236 C   0  0  0  0  0  0
  -22.7579  -29.4533   22.4858 C   0  0  0  0  0  0
  -18.0305  -28.1399   22.8475 C   0  0  0  0  0  0
  -24.1494  -36.7246   23.2642 C   0  0  0  0  0  0
  -26.0100  -30.7009   21.3835 C   0  0  0  0  0  0
  -26.0812  -29.3027   20.7360 C   0  0  0  0  0  0
  -27.2439  -28.4386   20.7293 C   0  0  0  0  0  0
  -26.0080  -26.7484   19.5378 C   0  0  0  0  0  0
  -24.8785  -27.5989   19.5097 C   0  0  0  0  0  0
  -23.6816  -29.7728   20.1548 C   0  0  0  0  0  0
  -25.4125  -36.3017   24.0315 C   0  0  1  0  0  0
  -20.5918  -28.3729   23.1233 C   0  0  2  0  0  0
  -20.6792  -26.9429   22.5407 C   0  0  0  0  0  0
  -19.5764  -26.6385   21.5214 C   0  0  0  0  0  0
  -18.1947  -26.7937   22.1625 C   0  0  0  0  0  0
  -19.1562  -28.8883   23.2847 C   0  0  0  0  0  0
  -18.9476  -30.1478   23.8872 C   0  0  0  0  0  0
  -17.6472  -30.6597   24.0557 C   0  0  0  0  0  0
  -25.9078  -34.9395   23.5053 C   0  0  0  0  0  0
  -16.5364  -29.9086   23.6334 C   0  0  0  0  0  0
  -16.7290  -28.6506   23.0356 C   0  0  0  0  0  0
  -26.4530  -31.6550   25.0694 C   0  0  0  0  0  0
  -25.3705  -31.3740   26.1380 C   0  0  0  0  0  0
  -27.0402  -30.2946   24.6294 C   0  0  0  0  0  0
  -27.6061  -32.4312   25.7480 C   0  0  0  0  0  0
  -27.5578  -37.1774   24.8461 C   0  0  0  0  0  0
  -21.4269  -29.3051   22.3604 N   0  0  0  0  0  0
  -26.4282  -37.3741   23.9414 N   0  0  0  0  0  0
  -24.7238  -31.0214   22.0874 N   0  0  0  0  0  0
  -23.4202  -28.8089   23.3030 O   0  0  0  0  0  0
  -28.3142  -26.1455   20.0973 O   0  0  0  0  0  0
  -26.5670  -34.8901   22.4636 O   0  0  0  0  0  0
  -23.5583  -32.1285   23.7027 O   0  0  0  0  0  0
  -29.7913  -20.3363   21.8563 C   0  0  0  0  0  0
  -29.3617  -18.8957   19.9893 C   0  0  0  0  0  0
  -30.2132  -19.1624   22.5201 C   0  0  0  0  0  0
  -29.3561  -20.3002   20.5208 C   0  0  0  0  0  0
  -29.8127  -17.6724   20.7269 C   0  0  0  0  0  0
  -29.0253  -21.4485   18.2361 C   0  0  0  0  0  0
  -28.7083  -22.7800   17.5734 C   0  0  0  0  0  0
  -29.1902  -21.7629   19.7267 C   0  0  1  0  0  0
  -28.1615  -23.1409   19.9029 C   0  0  1  0  0  0
  -28.3765  -24.6635   20.6393 C   0  0  0  0  0  0
  -30.2391  -17.9123   21.9876 N   0  0  0  0  0  0
  -29.7198  -16.1984   20.2818 N   0  0  0  0  0  0
  -27.8210  -23.4917   18.5039 N   0  3  0  0  0  0
  -31.4691  -12.8142   19.1554 H   0  0  0  0  0  0
  -30.4614  -11.6945   20.0324 H   0  0  0  0  0  0
  -29.8448  -11.7191   17.5902 H   0  0  0  0  0  0
  -29.5881  -13.4448   17.6560 H   0  0  0  0  0  0
  -27.9660  -11.2656   18.9991 H   0  0  0  0  0  0
  -27.3849  -12.4115   17.8203 H   0  0  0  0  0  0
  -27.5688  -14.2400   19.3787 H   0  0  0  0  0  0
  -28.7840  -12.3437   21.4475 H   0  0  0  0  0  0
  -28.3667  -14.0219   21.7228 H   0  0  0  0  0  0
  -25.2761   -9.5686   22.4762 H   0  0  0  0  0  0
  -24.0008   -7.4630   22.7469 H   0  0  0  0  0  0
  -21.0839   -8.8756   19.8951 H   0  0  0  0  0  0
  -22.3684  -10.9661   19.6168 H   0  0  0  0  0  0
  -21.2003   -7.6144   23.9710 H   0  0  0  0  0  0
  -21.1487   -6.0518   25.9073 H   0  0  0  0  0  0
  -22.0598   -2.7605   23.2850 H   0  0  0  0  0  0
  -22.4065  -11.9853   22.4846 H   0  0  0  0  0  0
  -21.1049  -13.1193   22.2654 H   0  0  0  0  0  0
  -24.6395  -15.8426   20.5374 H   0  0  0  0  0  0
  -26.2548  -15.6435   20.0907 H   0  0  0  0  0  0
  -26.7291  -32.5269   23.0962 H   0  0  0  0  0  0
  -25.0075  -33.9582   25.0292 H   0  0  0  0  0  0
  -22.7577  -31.2824   21.3680 H   0  0  0  0  0  0
  -23.3768  -35.9564   23.3272 H   0  0  0  0  0  0
  -24.3581  -36.8913   22.2064 H   0  0  0  0  0  0
  -23.7231  -37.6426   23.6699 H   0  0  0  0  0  0
  -26.1633  -31.4472   20.6027 H   0  0  0  0  0  0
  -26.8819  -30.7608   22.0236 H   0  0  0  0  0  0
  -28.1554  -28.7865   21.1951 H   0  0  0  0  0  0
  -25.9208  -25.7853   19.0583 H   0  0  0  0  0  0
  -23.9772  -27.2561   19.0200 H   0  0  0  0  0  0
  -23.8235  -30.5402   19.3931 H   0  0  0  0  0  0
  -22.7949  -29.2166   19.8459 H   0  0  0  0  0  0
  -25.1311  -36.1837   25.0806 H   0  0  0  0  0  0
  -21.0009  -28.3324   24.1354 H   0  0  0  0  0  0
  -20.5688  -26.2343   23.3630 H   0  0  0  0  0  0
  -21.6658  -26.7435   22.1203 H   0  0  0  0  0  0
  -19.6928  -25.6289   21.1262 H   0  0  0  0  0  0
  -19.6703  -27.3181   20.6733 H   0  0  0  0  0  0
  -17.4216  -26.6677   21.4032 H   0  0  0  0  0  0
  -18.0347  -26.0088   22.9030 H   0  0  0  0  0  0
  -19.7951  -30.7304   24.2234 H   0  0  0  0  0  0
  -17.5021  -31.6271   24.5167 H   0  0  0  0  0  0
  -15.5363  -30.2977   23.7673 H   0  0  0  0  0  0
  -15.8690  -28.0814   22.7085 H   0  0  0  0  0  0
  -24.5905  -30.7066   25.7693 H   0  0  0  0  0  0
  -24.8868  -32.2920   26.4730 H   0  0  0  0  0  0
  -25.7981  -30.8962   27.0204 H   0  0  0  0  0  0
  -26.3027  -29.6656   24.1298 H   0  0  0  0  0  0
  -27.4007  -29.7254   25.4872 H   0  0  0  0  0  0
  -27.8931  -30.4179   23.9617 H   0  0  0  0  0  0
  -27.2667  -33.3639   26.1994 H   0  0  0  0  0  0
  -28.3906  -32.6828   25.0330 H   0  0  0  0  0  0
  -28.0691  -31.8474   26.5447 H   0  0  0  0  0  0
  -28.2566  -38.0101   24.7538 H   0  0  0  0  0  0
  -28.1106  -36.2632   24.6247 H   0  0  0  0  0  0
  -27.2298  -37.1365   25.8863 H   0  0  0  0  0  0
  -20.9488  -29.8746   21.6760 H   0  0  0  0  0  0
  -26.0144  -38.2802   24.1434 H   0  0  0  0  0  0
  -29.8716  -21.2830   22.3730 H   0  0  0  0  0  0
  -29.0490  -18.7481   18.9648 H   0  0  0  0  0  0
  -30.5740  -19.2350   23.5357 H   0  0  0  0  0  0
  -29.9090  -20.9746   17.8068 H   0  0  0  0  0  0
  -28.1834  -20.7702   18.0902 H   0  0  0  0  0  0
  -28.2515  -22.6591   16.5904 H   0  0  0  0  0  0
  -29.6247  -23.3574   17.4415 H   0  0  0  0  0  0
  -30.1899  -22.1907   19.8229 H   0  0  0  0  0  0
  -27.2294  -22.7495   20.3116 H   0  0  0  0  0  0
  -29.3724  -24.6080   21.0783 H   0  0  0  0  0  0
  -27.7237  -24.6650   21.5128 H   0  0  0  0  0  0
  -28.7991  -15.9730   19.9435 H   0  0  0  0  0  0
  -26.8678  -23.2200   18.3177 H   0  0  0  0  0  0
  -27.8990  -24.4870   18.3550 H   0  0  0  0  0  0
  1 25  1  0  0  0
  1 30  2  0  0  0
  1 82  1  0  0  0
  2  3  1  0  0  0
  2 25  1  0  0  0
  2 84  1  0  0  0
  2 85  1  0  0  0
  3  4  1  0  0  0
  3 86  1  0  0  0
  3 87  1  0  0  0
  4  5  1  0  0  0
  4 88  1  0  0  0
  4 89  1  0  0  0
  5  6  1  0  0  0
  5 26  1  0  0  0
  5 90  1  0  0  0
  6 25  1  0  0  0
  6 91  1  0  0  0
  6 92  1  0  0  0
  7  8  2  0  0  0
  7 26  1  0  0  0
  7 29  1  0  0  0
  8  9  1  0  0  0
  8 22  1  0  0  0
  9 10  1  0  0  0
  9 27  2  0  0  0
 10 11  2  0  0  0
 10 15  1  0  0  0
 11 12  1  0  0  0
 11 93  1  0  0  0
 12 13  2  0  0  0
 12 94  1  0  0  0
 13 14  1  0  0  0
 13 31  1  0  0  0
 14 15  2  0  0  0
 14 95  1  0  0  0
 15 96  1  0  0  0
 16 17  2  0  0  0
 16 21  1  0  0  0
 16 31  1  0  0  0
 17 18  1  0  0  0
 17 97  1  0  0  0
 18 19  2  0  0  0
 18 98  1  0  0  0
 19 20  1  0  0  0
 19 24  1  0  0  0
 20 21  2  0  0  0
 20 99  1  0  0  0
 21 23  1  0  0  0
 22 28  1  0  0  0
 22 32  2  0  0  0
 26 27  1  0  0  0
 28100  1  0  0  0
 28101  1  0  0  0
 29102  1  0  0  0
 29103  1  0  0  0
 33 34  1  0  0  0
 33 66  1  0  0  0
 33 70  2  0  0  0
 34 36  1  0  0  0
 34 59  1  0  0  0
 34104  1  0  0  0
 35 44  2  0  0  0
 35 45  1  0  0  0
 35 68  1  0  0  0
 36 56  1  0  0  0
 36105  1  0  0  0
 37 39  1  0  0  0
 37 47  1  0  0  0
 37 66  1  0  0  0
 37106  1  0  0  0
 38 43  2  0  0  0
 38 46  1  0  0  0
 38 47  1  0  0  0
 39 64  1  0  0  0
 39 67  2  0  0  0
 40 52  1  0  0  0
 40 53  2  0  0  0
 40 58  1  0  0  0
 41107  1  0  0  0
 41108  1  0  0  0
 41109  1  0  0  0
 41 48  1  0  0  0
 42 43  1  0  0  0
 42 66  1  0  0  0
 42110  1  0  0  0
 42111  1  0  0  0
 43 44  1  0  0  0
 44112  1  0  0  0
 45 46  2  0  0  0
 45113  1  0  0  0
 46114  1  0  0  0
 47115  1  0  0  0
 47116  1  0  0  0
 48 56  1  0  0  0
 48 65  1  0  0  0
 48117  1  0  0  0
 49 50  1  0  0  0
 49 53  1  0  0  0
 49 64  1  0  0  0
 49118  1  0  0  0
 50 51  1  0  0  0
 50119  1  0  0  0
 50120  1  0  0  0
 51 52  1  0  0  0
 51121  1  0  0  0
 51122  1  0  0  0
 52123  1  0  0  0
 52124  1  0  0  0
 53 54  1  0  0  0
 54 55  2  0  0  0
 54125  1  0  0  0
 55 57  1  0  0  0
 55126  1  0  0  0
 56 69  2  0  0  0
 57 58  2  0  0  0
 57127  1  0  0  0
 58128  1  0  0  0
 59 60  1  0  0  0
 59 61  1  0  0  0
 59 62  1  0  0  0
 60129  1  0  0  0
 60130  1  0  0  0
 60131  1  0  0  0
 61132  1  0  0  0
 61133  1  0  0  0
 61134  1  0  0  0
 62135  1  0  0  0
 62136  1  0  0  0
 62137  1  0  0  0
 63 65  1  0  0  0
 63138  1  0  0  0
 63139  1  0  0  0
 63140  1  0  0  0
 64141  1  0  0  0
 65142  1  0  0  0
 68 80  1  0  0  0
 71 73  2  0  0  0
 71 74  1  0  0  0
 71143  1  0  0  0
 72 74  2  0  0  0
 72 75  1  0  0  0
 72144  1  0  0  0
 73 81  1  0  0  0
 73145  1  0  0  0
 74 78  1  0  0  0
 75 81  2  0  0  0
 75 82  1  0  0  0
 76 77  1  0  0  0
 76 78  1  0  0  0
 76146  1  0  0  0
 76147  1  0  0  0
 77 83  1  0  0  0
 77148  1  0  0  0
 77149  1  0  0  0
 78 79  1  0  0  0
 78150  1  0  0  0
 79 80  1  0  0  0
 79 83  1  0  0  0
 79151  1  0  0  0
 80152  1  0  0  0
 80153  1  0  0  0
 82154  1  0  0  0
 83155  1  0  0  0
 83156  1  0  0  0
M  CHG  1  83   1
M  ISO  4   1 100  68 101  80 101  82 100
M  END
> <chiral flag>
0

> <version>
0

> <s_m_source_file>
/data/baiqing/PycharmProjects/Reinvent-master-3.2/result/LINK_invent/BTK/process_docking_weight1_custom_sum_contain_oxygen_bond_distance_aromatic_linkinvent_7_9_3/rearranged_h_0123.sdf

> <i_m_source_file_index>
88

> <r_mmod_Potential_Energy-OPLS-2005>
474.007415771484

> <r_mmod_Stretch_Energy-OPLS-2005>
310.708984375

> <r_mmod_Bend_Energy-OPLS-2005>
369.88720703125

> <r_mmod_Torsional_Energy-OPLS-2005>
349.048919677734

> <r_mmod_Improper_Torsional_Energy-OPLS-2005>
12.6036176681519

> <r_mmod_Van_der_Waal_Energy-OPLS-2005>
121.067115783691

> <r_mmod_Electrostatic_Energy-OPLS-2005>
-416.312713623047

> <r_mmod_Solvation_Energy-OPLS-2005>
-500.863494873047

> <b_mmod_Minimization_Converged-OPLS-2005>
0

> <r_mmod_RMS_Derivative-OPLS-2005>
0.809497356414795

$$$$
88
                    3D
 Structure written by MMmdl.
171179  0  0  1  0            999 V2000
  -30.6029  -14.6177   20.5823 C   0  0  0  0  0  0
  -30.4333  -12.4052   19.4766 C   0  0  0  0  0  0
  -29.5069  -12.5392   18.2456 C   0  0  0  0  0  0
  -28.0274  -12.3673   18.6406 C   0  0  0  0  0  0
  -27.6517  -13.2139   19.8849 C   0  0  2  0  0  0
  -28.6793  -13.0367   21.0242 C   0  0  0  0  0  0
  -25.2507  -13.8175   20.5680 C   0  0  0  0  0  0
  -24.1772  -13.0451   20.9218 C   0  0  0  0  0  0
  -24.6329  -11.6933   20.8737 C   0  0  0  0  0  0
  -23.9019  -10.4317   21.0411 C   0  0  0  0  0  0
  -24.3585   -9.4223   21.9195 C   0  0  0  0  0  0
  -23.6282   -8.2236   22.0748 C   0  0  0  0  0  0
  -22.4269   -8.0282   21.3543 C   0  0  0  0  0  0
  -21.9876   -9.0240   20.4636 C   0  0  0  0  0  0
  -22.7175  -10.2137   20.3060 C   0  0  0  0  0  0
  -21.6846   -6.0722   22.5274 C   0  0  0  0  0  0
  -21.4009   -6.5627   23.8208 C   0  0  0  0  0  0
  -21.3668   -5.6788   24.9168 C   0  0  0  0  0  0
  -21.6042   -4.3054   24.7218 C   0  0  0  0  0  0
  -21.8831   -3.8130   23.4347 C   0  0  0  0  0  0
  -21.9200   -4.6948   22.3397 C   0  0  0  0  0  0
  -22.7807  -13.5239   21.1869 C   0  0  0  0  0  0
  -22.1674   -4.2120   21.0978 F   0  0  0  0  0  0
  -21.5629   -3.4554   25.7741 F   0  0  0  0  0  0
  -30.0104  -13.3845   20.4920 N   0  0  0  0  0  0
  -26.2943  -12.9358   20.3362 N   0  0  0  0  0  0
  -25.9242  -11.6520   20.5739 N   0  0  0  0  0  0
  -22.0429  -12.8220   22.0444 N   0  0  0  0  0  0
  -25.4311  -15.1866   20.4163 N   0  0  0  0  0  0
  -31.7131  -14.8381   20.0861 O   0  0  0  0  0  0
  -21.6654   -6.8857   21.4235 O   0  0  0  0  0  0
  -22.3507  -14.5564   20.6745 O   0  0  0  0  0  0
  -24.6326  -31.8599   23.2056 C   0  0  0  0  0  0
  -25.9183  -32.4800   23.8391 C   0  0  1  0  0  0
  -27.1988  -27.3248   20.1621 C   0  0  0  0  0  0
  -25.5996  -33.8610   24.2397 N   0  0  0  0  0  0
  -23.4196  -30.4988   21.5360 C   0  0  2  0  0  0
  -24.8723  -28.9420   20.1195 C   0  0  0  0  0  0
  -22.7419  -29.4729   22.4795 C   0  0  0  0  0  0
  -18.0247  -28.1395   22.7935 C   0  0  0  0  0  0
  -24.1482  -36.7328   23.2668 C   0  0  0  0  0  0
  -25.9705  -30.7839   21.3867 C   0  0  0  0  0  0
  -26.0313  -29.4166   20.7319 C   0  0  0  0  0  0
  -27.2035  -28.6137   20.7475 C   0  0  0  0  0  0
  -26.0173  -26.8983   19.4900 C   0  0  0  0  0  0
  -24.8658  -27.6921   19.4817 C   0  0  0  0  0  0
  -23.6457  -29.8254   20.1449 C   0  0  0  0  0  0
  -25.4069  -36.3083   24.0418 C   0  0  1  0  0  0
  -20.5808  -28.3663   23.0957 C   0  0  2  0  0  0
  -20.7496  -26.9795   22.4170 C   0  0  0  0  0  0
  -19.5730  -26.4175   21.5853 C   0  0  0  0  0  0
  -18.1549  -26.8725   21.9638 C   0  0  0  0  0  0
  -19.1342  -28.8682   23.2621 C   0  0  0  0  0  0
  -18.9021  -30.1133   23.8975 C   0  0  0  0  0  0
  -17.5992  -30.6046   24.0965 C   0  0  0  0  0  0
  -25.9046  -34.9488   23.5186 C   0  0  0  0  0  0
  -16.5105  -29.8584   23.6302 C   0  0  0  0  0  0
  -16.7196  -28.6247   22.9900 C   0  0  0  0  0  0
  -26.4476  -31.6600   25.0804 C   0  0  0  0  0  0
  -25.3679  -31.3764   26.1567 C   0  0  0  0  0  0
  -27.0398  -30.3065   24.6208 C   0  0  0  0  0  0
  -27.6041  -32.4274   25.7536 C   0  0  0  0  0  0
  -27.5561  -37.1829   24.8485 C   0  0  0  0  0  0
  -21.4022  -29.3545   22.4027 N   0  0  0  0  0  0
  -26.4202  -37.3794   23.9513 N   0  0  0  0  0  0
  -24.6919  -31.0598   22.0923 N   0  0  0  0  0  0
  -23.4247  -28.7766   23.2264 O   0  0  0  0  0  0
  -28.3258  -26.5127   20.2455 O   0  0  0  0  0  0
  -26.5553  -34.8867   22.4675 O   0  0  0  0  0  0
  -23.5492  -32.1429   23.7318 O   0  0  0  0  0  0
  -26.4100  -20.5828   21.3297 C   0  0  0  0  0  0
  -28.7487  -21.6064   21.8681 C   0  0  0  0  0  0
  -25.9420  -22.0583   21.3079 C   0  0  0  0  0  0
  -27.9502  -20.4135   21.1539 C   0  0  1  0  0  0
  -28.0057  -22.9755   22.2837 C   0  0  2  0  0  0
  -24.2334  -22.9543   23.6474 C   0  0  0  0  0  0
  -25.9162  -24.8046   23.9168 C   0  0  0  0  0  0
  -28.4700  -24.4386   21.7757 C   0  0  0  0  0  0
  -29.5443  -16.9589   20.4444 C   0  0  0  0  0  0
  -29.5981  -18.2720   21.3541 C   0  0  0  0  0  0
  -28.1668  -25.0502   20.3529 C   0  0  0  0  0  0
  -25.7475  -23.2960   23.6334 C   0  0  0  0  0  0
  -29.8031  -15.6149   21.0636 N   0  0  0  0  0  0
  -26.5549  -22.7205   22.4846 N   0  3  1  0  0  0
  -28.2670  -18.9687   21.5286 N   0  3  0  0  0  0
  -31.4728  -12.5526   19.1766 H   0  0  0  0  0  0
  -30.3923  -11.3993   19.8922 H   0  0  0  0  0  0
  -29.7802  -11.8095   17.4863 H   0  0  0  0  0  0
  -29.6432  -13.5193   17.7844 H   0  0  0  0  0  0
  -27.8527  -11.3084   18.8434 H   0  0  0  0  0  0
  -27.3775  -12.6247   17.7990 H   0  0  0  0  0  0
  -27.6813  -14.2551   19.5605 H   0  0  0  0  0  0
  -28.6838  -12.0101   21.3931 H   0  0  0  0  0  0
  -28.3999  -13.6551   21.8790 H   0  0  0  0  0  0
  -25.2744   -9.5698   22.4755 H   0  0  0  0  0  0
  -23.9998   -7.4643   22.7480 H   0  0  0  0  0  0
  -21.0812   -8.8743   19.8967 H   0  0  0  0  0  0
  -22.3643  -10.9664   19.6152 H   0  0  0  0  0  0
  -21.2004   -7.6143   23.9678 H   0  0  0  0  0  0
  -21.1475   -6.0537   25.9063 H   0  0  0  0  0  0
  -22.0601   -2.7591   23.2861 H   0  0  0  0  0  0
  -22.4063  -11.9859   22.4807 H   0  0  0  0  0  0
  -21.1022  -13.1234   22.2642 H   0  0  0  0  0  0
  -24.6686  -15.8467   20.5135 H   0  0  0  0  0  0
  -26.2651  -15.6058   20.0281 H   0  0  0  0  0  0
  -26.7354  -32.5384   23.1204 H   0  0  0  0  0  0
  -25.0202  -33.9693   25.0614 H   0  0  0  0  0  0
  -22.7259  -31.3245   21.3663 H   0  0  0  0  0  0
  -23.3734  -35.9669   23.3291 H   0  0  0  0  0  0
  -24.3669  -36.8946   22.2090 H   0  0  0  0  0  0
  -23.7157  -37.6528   23.6631 H   0  0  0  0  0  0
  -26.1147  -31.5226   20.5988 H   0  0  0  0  0  0
  -26.8469  -30.8366   22.0246 H   0  0  0  0  0  0
  -28.1067  -28.9474   21.2548 H   0  0  0  0  0  0
  -25.9550  -25.9515   18.9736 H   0  0  0  0  0  0
  -23.9810  -27.3532   18.9696 H   0  0  0  0  0  0
  -23.7867  -30.5874   19.3780 H   0  0  0  0  0  0
  -22.7705  -29.2440   19.8343 H   0  0  0  0  0  0
  -25.1183  -36.1999   25.0914 H   0  0  0  0  0  0
  -20.9434  -28.2607   24.1251 H   0  0  0  0  0  0
  -21.0320  -26.2894   23.2122 H   0  0  0  0  0  0
  -21.6184  -26.9638   21.7358 H   0  0  0  0  0  0
  -19.5698  -25.3267   21.6786 H   0  0  0  0  0  0
  -19.7636  -26.5825   20.5178 H   0  0  0  0  0  0
  -17.7251  -27.1210   20.9894 H   0  0  0  0  0  0
  -17.4982  -26.0826   22.3462 H   0  0  0  0  0  0
  -19.7256  -30.6934   24.2852 H   0  0  0  0  0  0
  -17.4315  -31.5176   24.6396 H   0  0  0  0  0  0
  -15.5028  -30.2159   23.7789 H   0  0  0  0  0  0
  -15.8522  -28.0943   22.6214 H   0  0  0  0  0  0
  -24.5814  -30.7102   25.7986 H   0  0  0  0  0  0
  -24.8907  -32.2962   26.4998 H   0  0  0  0  0  0
  -25.8134  -30.8985   27.0345 H   0  0  0  0  0  0
  -26.3091  -29.6724   24.1156 H   0  0  0  0  0  0
  -27.4204  -29.7384   25.4739 H   0  0  0  0  0  0
  -27.8870  -30.4601   23.9502 H   0  0  0  0  0  0
  -27.2729  -33.3609   26.2116 H   0  0  0  0  0  0
  -28.3833  -32.6747   25.0303 H   0  0  0  0  0  0
  -28.0680  -31.8317   26.5424 H   0  0  0  0  0  0
  -28.2524  -38.0164   24.7473 H   0  0  0  0  0  0
  -28.1076  -36.2679   24.6298 H   0  0  0  0  0  0
  -27.2357  -37.1497   25.8906 H   0  0  0  0  0  0
  -20.8942  -30.0187   21.8389 H   0  0  0  0  0  0
  -26.0152  -38.2894   24.1508 H   0  0  0  0  0  0
  -25.8974  -19.9991   20.5577 H   0  0  0  0  0  0
  -26.0856  -20.1748   22.2959 H   0  0  0  0  0  0
  -29.6583  -21.8290   21.3044 H   0  0  0  0  0  0
  -29.1100  -21.1741   22.8048 H   0  0  0  0  0  0
  -24.8535  -22.1384   21.2809 H   0  0  0  0  0  0
  -26.2999  -22.5164   20.3890 H   0  0  0  0  0  0
  -28.1470  -20.5118   20.0785 H   0  0  0  0  0  0
  -28.3579  -23.0744   23.3108 H   0  0  0  0  0  0
  -23.9735  -22.0085   23.1809 H   0  0  0  0  0  0
  -23.6523  -23.7183   23.1298 H   0  0  0  0  0  0
  -23.8725  -22.9203   24.6790 H   0  0  0  0  0  0
  -25.2982  -25.0867   24.7853 H   0  0  0  0  0  0
  -25.6090  -25.3841   23.0513 H   0  0  0  0  0  0
  -26.9220  -25.1167   24.2084 H   0  0  0  0  0  0
  -29.5532  -24.4103   21.8740 H   0  0  0  0  0  0
  -28.1656  -25.2108   22.4853 H   0  0  0  0  0  0
  -30.2247  -17.0835   19.5930 H   0  0  0  0  0  0
  -28.5528  -16.8955   20.0015 H   0  0  0  0  0  0
  -30.3302  -18.9722   20.9366 H   0  0  0  0  0  0
  -29.9782  -18.0103   22.3355 H   0  0  0  0  0  0
  -28.9267  -24.6385   19.6908 H   0  0  0  0  0  0
  -27.2221  -24.6761   19.9670 H   0  0  0  0  0  0
  -26.1541  -22.7774   24.5068 H   0  0  0  0  0  0
  -29.0074  -15.2565   21.5736 H   0  0  0  0  0  0
  -26.7024  -21.8512   22.9883 H   0  0  0  0  0  0
  -27.6496  -18.4154   20.9617 H   0  0  0  0  0  0
  -27.9673  -18.7939   22.4817 H   0  0  0  0  0  0
  1 25  1  0  0  0
  1 30  2  0  0  0
  1 83  1  0  0  0
  2  3  1  0  0  0
  2 25  1  0  0  0
  2 86  1  0  0  0
  2 87  1  0  0  0
  3  4  1  0  0  0
  3 88  1  0  0  0
  3 89  1  0  0  0
  4  5  1  0  0  0
  4 90  1  0  0  0
  4 91  1  0  0  0
  5  6  1  0  0  0
  5 26  1  0  0  0
  5 92  1  0  0  0
  6 25  1  0  0  0
  6 93  1  0  0  0
  6 94  1  0  0  0
  7  8  2  0  0  0
  7 26  1  0  0  0
  7 29  1  0  0  0
  8  9  1  0  0  0
  8 22  1  0  0  0
  9 10  1  0  0  0
  9 27  2  0  0  0
 10 11  2  0  0  0
 10 15  1  0  0  0
 11 12  1  0  0  0
 11 95  1  0  0  0
 12 13  2  0  0  0
 12 96  1  0  0  0
 13 14  1  0  0  0
 13 31  1  0  0  0
 14 15  2  0  0  0
 14 97  1  0  0  0
 15 98  1  0  0  0
 16 17  2  0  0  0
 16 21  1  0  0  0
 16 31  1  0  0  0
 17 18  1  0  0  0
 17 99  1  0  0  0
 18 19  2  0  0  0
 18100  1  0  0  0
 19 20  1  0  0  0
 19 24  1  0  0  0
 20 21  2  0  0  0
 20101  1  0  0  0
 21 23  1  0  0  0
 22 28  1  0  0  0
 22 32  2  0  0  0
 26 27  1  0  0  0
 28102  1  0  0  0
 28103  1  0  0  0
 29104  1  0  0  0
 29105  1  0  0  0
 33 34  1  0  0  0
 33 66  1  0  0  0
 33 70  2  0  0  0
 34 36  1  0  0  0
 34 59  1  0  0  0
 34106  1  0  0  0
 35 44  2  0  0  0
 35 45  1  0  0  0
 35 68  1  0  0  0
 36 56  1  0  0  0
 36107  1  0  0  0
 37 39  1  0  0  0
 37 47  1  0  0  0
 37 66  1  0  0  0
 37108  1  0  0  0
 38 43  2  0  0  0
 38 46  1  0  0  0
 38 47  1  0  0  0
 39 64  1  0  0  0
 39 67  2  0  0  0
 40 52  1  0  0  0
 40 53  2  0  0  0
 40 58  1  0  0  0
 41109  1  0  0  0
 41110  1  0  0  0
 41111  1  0  0  0
 41 48  1  0  0  0
 42 43  1  0  0  0
 42 66  1  0  0  0
 42112  1  0  0  0
 42113  1  0  0  0
 43 44  1  0  0  0
 44114  1  0  0  0
 45 46  2  0  0  0
 45115  1  0  0  0
 46116  1  0  0  0
 47117  1  0  0  0
 47118  1  0  0  0
 48 56  1  0  0  0
 48 65  1  0  0  0
 48119  1  0  0  0
 49 50  1  0  0  0
 49 53  1  0  0  0
 49 64  1  0  0  0
 49120  1  0  0  0
 50 51  1  0  0  0
 50121  1  0  0  0
 50122  1  0  0  0
 51 52  1  0  0  0
 51123  1  0  0  0
 51124  1  0  0  0
 52125  1  0  0  0
 52126  1  0  0  0
 53 54  1  0  0  0
 54 55  2  0  0  0
 54127  1  0  0  0
 55 57  1  0  0  0
 55128  1  0  0  0
 56 69  2  0  0  0
 57 58  2  0  0  0
 57129  1  0  0  0
 58130  1  0  0  0
 59 60  1  0  0  0
 59 61  1  0  0  0
 59 62  1  0  0  0
 60131  1  0  0  0
 60132  1  0  0  0
 60133  1  0  0  0
 61134  1  0  0  0
 61135  1  0  0  0
 61136  1  0  0  0
 62137  1  0  0  0
 62138  1  0  0  0
 62139  1  0  0  0
 63 65  1  0  0  0
 63140  1  0  0  0
 63141  1  0  0  0
 63142  1  0  0  0
 64143  1  0  0  0
 65144  1  0  0  0
 68 81  1  0  0  0
 71 73  1  0  0  0
 71 74  1  0  0  0
 71145  1  0  0  0
 71146  1  0  0  0
 72 74  1  0  0  0
 72 75  1  0  0  0
 72147  1  0  0  0
 72148  1  0  0  0
 73149  1  0  0  0
 73150  1  0  0  0
 73 84  1  0  0  0
 74 85  1  0  0  0
 74151  1  0  0  0
 75 78  1  0  0  0
 75 84  1  0  0  0
 75152  1  0  0  0
 76153  1  0  0  0
 76154  1  0  0  0
 76155  1  0  0  0
 76 82  1  0  0  0
 77 82  1  0  0  0
 77156  1  0  0  0
 77157  1  0  0  0
 77158  1  0  0  0
 78 81  1  0  0  0
 78159  1  0  0  0
 78160  1  0  0  0
 79 80  1  0  0  0
 79 83  1  0  0  0
 79161  1  0  0  0
 79162  1  0  0  0
 80 85  1  0  0  0
 80163  1  0  0  0
 80164  1  0  0  0
 81165  1  0  0  0
 81166  1  0  0  0
 82 84  1  0  0  0
 82167  1  0  0  0
 83168  1  0  0  0
 84169  1  0  0  0
 85170  1  0  0  0
 85171  1  0  0  0
M  CHG  2  84   1  85   1
M  ISO  4   1 100  68 101  81 101  83 100
M  END
> <chiral flag>
0

> <version>
0

> <s_m_source_file>
/data/baiqing/PycharmProjects/Reinvent-master-3.2/result/LINK_invent/BTK/process_docking_weight1_custom_sum_contain_oxygen_bond_distance_aromatic_linkinvent_7_9_3/rearranged_h_0123.sdf

> <i_m_source_file_index>
89

> <r_mmod_Potential_Energy-OPLS-2005>
97.113525390625

> <r_mmod_Stretch_Energy-OPLS-2005>
94.0588760375977

> <r_mmod_Bend_Energy-OPLS-2005>
293.960754394531

> <r_mmod_Torsional_Energy-OPLS-2005>
395.521270751953

> <r_mmod_Improper_Torsional_Energy-OPLS-2005>
8.03630447387695

> <r_mmod_Van_der_Waal_Energy-OPLS-2005>
124.802841186523

> <r_mmod_Electrostatic_Energy-OPLS-2005>
139.061508178711

> <r_mmod_Solvation_Energy-OPLS-2005>
-1023.03442382812

> <b_mmod_Minimization_Converged-OPLS-2005>
0

> <r_mmod_RMS_Derivative-OPLS-2005>
19.4459629058838

$$$$
89
                    3D
 Structure written by MMmdl.
163172  0  0  1  0            999 V2000
  -30.6814  -14.4786   20.5693 C   0  0  0  0  0  0
  -30.4244  -12.3073   19.4271 C   0  0  0  0  0  0
  -29.4994  -12.5035   18.2084 C   0  0  0  0  0  0
  -28.0194  -12.3587   18.6182 C   0  0  0  0  0  0
  -27.6596  -13.2032   19.8710 C   0  0  2  0  0  0
  -28.6979  -12.9906   20.9942 C   0  0  0  0  0  0
  -25.2585  -13.8155   20.5670 C   0  0  0  0  0  0
  -24.1832  -13.0438   20.9168 C   0  0  0  0  0  0
  -24.6376  -11.6905   20.8719 C   0  0  0  0  0  0
  -23.9043  -10.4292   21.0388 C   0  0  0  0  0  0
  -24.3605   -9.4214   21.9169 C   0  0  0  0  0  0
  -23.6291   -8.2245   22.0744 C   0  0  0  0  0  0
  -22.4276   -8.0276   21.3536 C   0  0  0  0  0  0
  -21.9902   -9.0243   20.4636 C   0  0  0  0  0  0
  -22.7217  -10.2129   20.3039 C   0  0  0  0  0  0
  -21.6857   -6.0730   22.5278 C   0  0  0  0  0  0
  -21.4014   -6.5636   23.8211 C   0  0  0  0  0  0
  -21.3659   -5.6788   24.9174 C   0  0  0  0  0  0
  -21.6049   -4.3052   24.7221 C   0  0  0  0  0  0
  -21.8818   -3.8140   23.4341 C   0  0  0  0  0  0
  -21.9190   -4.6957   22.3399 C   0  0  0  0  0  0
  -22.7860  -13.5242   21.1832 C   0  0  0  0  0  0
  -22.1660   -4.2140   21.0977 F   0  0  0  0  0  0
  -21.5631   -3.4536   25.7734 F   0  0  0  0  0  0
  -30.0260  -13.2944   20.4402 N   0  0  0  0  0  0
  -26.3005  -12.9311   20.3330 N   0  0  0  0  0  0
  -25.9296  -11.6476   20.5735 N   0  0  0  0  0  0
  -22.0490  -12.8255   22.0395 N   0  0  0  0  0  0
  -25.4339  -15.1875   20.4103 N   0  0  0  0  0  0
  -31.8287  -14.6593   20.1469 O   0  0  0  0  0  0
  -21.6639   -6.8874   21.4239 O   0  0  0  0  0  0
  -22.3555  -14.5542   20.6661 O   0  0  0  0  0  0
  -24.6141  -31.8680   23.2098 C   0  0  0  0  0  0
  -25.9039  -32.4825   23.8392 C   0  0  1  0  0  0
  -27.2350  -27.4374   20.1066 C   0  0  0  0  0  0
  -25.5899  -33.8624   24.2330 N   0  0  0  0  0  0
  -23.4027  -30.4906   21.5492 C   0  0  2  0  0  0
  -24.8513  -28.9526   20.1177 C   0  0  0  0  0  0
  -22.7410  -29.4665   22.4992 C   0  0  0  0  0  0
  -18.0271  -28.1388   22.8489 C   0  0  0  0  0  0
  -24.1483  -36.7312   23.2637 C   0  0  0  0  0  0
  -25.9293  -30.8362   21.3601 C   0  0  0  0  0  0
  -26.0093  -29.4676   20.7149 C   0  0  0  0  0  0
  -27.2070  -28.7164   20.7075 C   0  0  0  0  0  0
  -26.0660  -26.9355   19.5007 C   0  0  0  0  0  0
  -24.8734  -27.6853   19.5078 C   0  0  0  0  0  0
  -23.6120  -29.8192   20.1649 C   0  0  0  0  0  0
  -25.4103  -36.3114   24.0341 C   0  0  1  0  0  0
  -20.5861  -28.3673   23.1324 C   0  0  2  0  0  0
  -20.6769  -26.9413   22.5422 C   0  0  0  0  0  0
  -19.5752  -26.6397   21.5216 C   0  0  0  0  0  0
  -18.1925  -26.7936   22.1618 C   0  0  0  0  0  0
  -19.1520  -28.8845   23.2905 C   0  0  0  0  0  0
  -18.9448  -30.1450   23.8918 C   0  0  0  0  0  0
  -17.6452  -30.6593   24.0572 C   0  0  0  0  0  0
  -25.9032  -34.9477   23.5131 C   0  0  0  0  0  0
  -16.5341  -29.9100   23.6327 C   0  0  0  0  0  0
  -16.7261  -28.6519   23.0340 C   0  0  0  0  0  0
  -26.4478  -31.6596   25.0707 C   0  0  0  0  0  0
  -25.3757  -31.3687   26.1464 C   0  0  0  0  0  0
  -27.0308  -30.3045   24.6058 C   0  0  0  0  0  0
  -27.6060  -32.4309   25.7465 C   0  0  0  0  0  0
  -27.5582  -37.1810   24.8463 C   0  0  0  0  0  0
  -21.4137  -29.3036   22.3727 N   0  0  0  0  0  0
  -26.4287  -37.3801   23.9416 N   0  0  0  0  0  0
  -24.6671  -31.0786   22.0992 N   0  0  0  0  0  0
  -23.4180  -28.8211   23.3041 O   0  0  0  0  0  0
  -28.3899  -26.6907   20.0831 O   0  0  0  0  0  0
  -26.5589  -34.8931   22.4691 O   0  0  0  0  0  0
  -23.5336  -32.1423   23.7501 O   0  0  0  0  0  0
  -29.9018  -23.6071   17.4457 C   0  0  0  0  0  0
  -30.5605  -22.3913   17.6769 C   0  0  0  0  0  0
  -29.0847  -24.1593   18.4461 C   0  0  0  0  0  0
  -30.3815  -21.7241   18.9005 C   0  0  0  0  0  0
  -28.9067  -23.5179   19.6951 C   0  0  0  0  0  0
  -29.5412  -22.2472   19.9143 C   0  0  0  0  0  0
  -30.2033  -16.3598   22.1228 C   0  0  0  0  0  0
  -29.8727  -16.7655   20.1485 C   0  0  0  0  0  0
  -29.4667  -17.5064   21.4196 C   0  0  0  0  0  0
  -28.0231  -24.2512   20.7182 C   0  0  0  0  0  0
  -29.4226  -21.3988   21.1954 C   0  0  0  0  0  0
  -29.8830  -18.9734   21.6743 C   0  0  0  0  0  0
  -28.4866  -25.6862   21.1072 C   0  0  0  0  0  0
  -29.9050  -15.5236   20.9469 N   0  0  0  0  0  0
  -29.0888  -19.9760   20.9112 N   0  3  0  0  0  0
  -31.4703  -12.4104   19.1332 H   0  0  0  0  0  0
  -30.3251  -11.2972   19.8273 H   0  0  0  0  0  0
  -29.7467  -11.7818   17.4286 H   0  0  0  0  0  0
  -29.6646  -13.4912   17.7747 H   0  0  0  0  0  0
  -27.8358  -11.3033   18.8216 H   0  0  0  0  0  0
  -27.3698  -12.6231   17.7832 H   0  0  0  0  0  0
  -27.7029  -14.2495   19.5681 H   0  0  0  0  0  0
  -28.6736  -11.9588   21.3479 H   0  0  0  0  0  0
  -28.4633  -13.6100   21.8616 H   0  0  0  0  0  0
  -25.2748   -9.5703   22.4742 H   0  0  0  0  0  0
  -24.0000   -7.4642   22.7470 H   0  0  0  0  0  0
  -21.0828   -8.8750   19.8956 H   0  0  0  0  0  0
  -22.3658  -10.9660   19.6147 H   0  0  0  0  0  0
  -21.2010   -7.6144   23.9719 H   0  0  0  0  0  0
  -21.1488   -6.0514   25.9080 H   0  0  0  0  0  0
  -22.0598   -2.7602   23.2844 H   0  0  0  0  0  0
  -22.4091  -11.9920   22.4797 H   0  0  0  0  0  0
  -21.1098  -13.1283   22.2555 H   0  0  0  0  0  0
  -24.6749  -15.8507   20.5220 H   0  0  0  0  0  0
  -26.3015  -15.6203   20.1190 H   0  0  0  0  0  0
  -26.7107  -32.5553   23.1161 H   0  0  0  0  0  0
  -25.0072  -33.9784   25.0488 H   0  0  0  0  0  0
  -22.6917  -31.3074   21.4088 H   0  0  0  0  0  0
  -23.3751  -35.9640   23.3299 H   0  0  0  0  0  0
  -24.3580  -36.8924   22.2051 H   0  0  0  0  0  0
  -23.7223  -37.6514   23.6645 H   0  0  0  0  0  0
  -26.0330  -31.5981   20.5860 H   0  0  0  0  0  0
  -26.8210  -30.8978   21.9724 H   0  0  0  0  0  0
  -28.1038  -29.1106   21.1644 H   0  0  0  0  0  0
  -26.0783  -25.9676   19.0206 H   0  0  0  0  0  0
  -23.9839  -27.2848   19.0408 H   0  0  0  0  0  0
  -23.7202  -30.5920   19.4028 H   0  0  0  0  0  0
  -22.7365  -29.2374   19.8704 H   0  0  0  0  0  0
  -25.1277  -36.1983   25.0833 H   0  0  0  0  0  0
  -20.9953  -28.3246   24.1445 H   0  0  0  0  0  0
  -20.5687  -26.2281   23.3608 H   0  0  0  0  0  0
  -21.6642  -26.7478   22.1208 H   0  0  0  0  0  0
  -19.6921  -25.6316   21.1230 H   0  0  0  0  0  0
  -19.6699  -27.3224   20.6759 H   0  0  0  0  0  0
  -17.4205  -26.6693   21.4008 H   0  0  0  0  0  0
  -18.0318  -26.0073   22.9007 H   0  0  0  0  0  0
  -19.7925  -30.7259   24.2302 H   0  0  0  0  0  0
  -17.5009  -31.6272   24.5175 H   0  0  0  0  0  0
  -15.5345  -30.3012   23.7639 H   0  0  0  0  0  0
  -15.8658  -28.0854   22.7030 H   0  0  0  0  0  0
  -24.5933  -30.7032   25.7801 H   0  0  0  0  0  0
  -24.8948  -32.2837   26.4931 H   0  0  0  0  0  0
  -25.8129  -30.8846   27.0207 H   0  0  0  0  0  0
  -26.2836  -29.6798   24.1151 H   0  0  0  0  0  0
  -27.4136  -29.7286   25.4495 H   0  0  0  0  0  0
  -27.8644  -30.4376   23.9158 H   0  0  0  0  0  0
  -27.2690  -33.3606   26.2064 H   0  0  0  0  0  0
  -28.3859  -32.6875   25.0281 H   0  0  0  0  0  0
  -28.0741  -31.8417   26.5362 H   0  0  0  0  0  0
  -28.2598  -38.0109   24.7525 H   0  0  0  0  0  0
  -28.1078  -36.2644   24.6269 H   0  0  0  0  0  0
  -27.2306  -37.1436   25.8866 H   0  0  0  0  0  0
  -20.9298  -29.8748   21.6940 H   0  0  0  0  0  0
  -26.0182  -38.2879   24.1429 H   0  0  0  0  0  0
  -30.0303  -24.1248   16.5047 H   0  0  0  0  0  0
  -31.2015  -21.9672   16.9154 H   0  0  0  0  0  0
  -28.5947  -25.1013   18.2425 H   0  0  0  0  0  0
  -30.9130  -20.7941   19.0511 H   0  0  0  0  0  0
  -29.7216  -16.0371   23.0468 H   0  0  0  0  0  0
  -31.2680  -16.5483   22.2845 H   0  0  0  0  0  0
  -30.8418  -17.0790   19.7503 H   0  0  0  0  0  0
  -29.1093  -16.7841   19.3697 H   0  0  0  0  0  0
  -28.3939  -17.3805   21.5883 H   0  0  0  0  0  0
  -27.9400  -23.6885   21.6424 H   0  0  0  0  0  0
  -27.0079  -24.2869   20.3250 H   0  0  0  0  0  0
  -28.6790  -21.7721   21.8942 H   0  0  0  0  0  0
  -30.3802  -21.4670   21.7130 H   0  0  0  0  0  0
  -30.9387  -19.1074   21.4327 H   0  0  0  0  0  0
  -29.7865  -19.1976   22.7372 H   0  0  0  0  0  0
  -29.5250  -25.6442   21.4377 H   0  0  0  0  0  0
  -27.9219  -26.0109   21.9838 H   0  0  0  0  0  0
  -29.2284  -19.8281   19.9262 H   0  0  0  0  0  0
  -28.1080  -19.8467   21.0991 H   0  0  0  0  0  0
  1 25  1  0  0  0
  1 30  2  0  0  0
  1 84  1  0  0  0
  2  3  1  0  0  0
  2 25  1  0  0  0
  2 86  1  0  0  0
  2 87  1  0  0  0
  3  4  1  0  0  0
  3 88  1  0  0  0
  3 89  1  0  0  0
  4  5  1  0  0  0
  4 90  1  0  0  0
  4 91  1  0  0  0
  5  6  1  0  0  0
  5 26  1  0  0  0
  5 92  1  0  0  0
  6 25  1  0  0  0
  6 93  1  0  0  0
  6 94  1  0  0  0
  7  8  2  0  0  0
  7 26  1  0  0  0
  7 29  1  0  0  0
  8  9  1  0  0  0
  8 22  1  0  0  0
  9 10  1  0  0  0
  9 27  2  0  0  0
 10 11  2  0  0  0
 10 15  1  0  0  0
 11 12  1  0  0  0
 11 95  1  0  0  0
 12 13  2  0  0  0
 12 96  1  0  0  0
 13 14  1  0  0  0
 13 31  1  0  0  0
 14 15  2  0  0  0
 14 97  1  0  0  0
 15 98  1  0  0  0
 16 17  2  0  0  0
 16 21  1  0  0  0
 16 31  1  0  0  0
 17 18  1  0  0  0
 17 99  1  0  0  0
 18 19  2  0  0  0
 18100  1  0  0  0
 19 20  1  0  0  0
 19 24  1  0  0  0
 20 21  2  0  0  0
 20101  1  0  0  0
 21 23  1  0  0  0
 22 28  1  0  0  0
 22 32  2  0  0  0
 26 27  1  0  0  0
 28102  1  0  0  0
 28103  1  0  0  0
 29104  1  0  0  0
 29105  1  0  0  0
 33 34  1  0  0  0
 33 66  1  0  0  0
 33 70  2  0  0  0
 34 36  1  0  0  0
 34 59  1  0  0  0
 34106  1  0  0  0
 35 44  2  0  0  0
 35 45  1  0  0  0
 35 68  1  0  0  0
 36 56  1  0  0  0
 36107  1  0  0  0
 37 39  1  0  0  0
 37 47  1  0  0  0
 37 66  1  0  0  0
 37108  1  0  0  0
 38 43  2  0  0  0
 38 46  1  0  0  0
 38 47  1  0  0  0
 39 64  1  0  0  0
 39 67  2  0  0  0
 40 52  1  0  0  0
 40 53  2  0  0  0
 40 58  1  0  0  0
 41109  1  0  0  0
 41110  1  0  0  0
 41111  1  0  0  0
 41 48  1  0  0  0
 42 43  1  0  0  0
 42 66  1  0  0  0
 42112  1  0  0  0
 42113  1  0  0  0
 43 44  1  0  0  0
 44114  1  0  0  0
 45 46  2  0  0  0
 45115  1  0  0  0
 46116  1  0  0  0
 47117  1  0  0  0
 47118  1  0  0  0
 48 56  1  0  0  0
 48 65  1  0  0  0
 48119  1  0  0  0
 49 50  1  0  0  0
 49 53  1  0  0  0
 49 64  1  0  0  0
 49120  1  0  0  0
 50 51  1  0  0  0
 50121  1  0  0  0
 50122  1  0  0  0
 51 52  1  0  0  0
 51123  1  0  0  0
 51124  1  0  0  0
 52125  1  0  0  0
 52126  1  0  0  0
 53 54  1  0  0  0
 54 55  2  0  0  0
 54127  1  0  0  0
 55 57  1  0  0  0
 55128  1  0  0  0
 56 69  2  0  0  0
 57 58  2  0  0  0
 57129  1  0  0  0
 58130  1  0  0  0
 59 60  1  0  0  0
 59 61  1  0  0  0
 59 62  1  0  0  0
 60131  1  0  0  0
 60132  1  0  0  0
 60133  1  0  0  0
 61134  1  0  0  0
 61135  1  0  0  0
 61136  1  0  0  0
 62137  1  0  0  0
 62138  1  0  0  0
 62139  1  0  0  0
 63 65  1  0  0  0
 63140  1  0  0  0
 63141  1  0  0  0
 63142  1  0  0  0
 64143  1  0  0  0
 65144  1  0  0  0
 68 83  1  0  0  0
 71 72  2  0  0  0
 71 73  1  0  0  0
 71145  1  0  0  0
 72 74  1  0  0  0
 72146  1  0  0  0
 73 75  2  0  0  0
 73147  1  0  0  0
 74 76  2  0  0  0
 74148  1  0  0  0
 75 76  1  0  0  0
 75 80  1  0  0  0
 76 81  1  0  0  0
 77 79  1  0  0  0
 77 84  1  0  0  0
 77149  1  0  0  0
 77150  1  0  0  0
 78 79  1  0  0  0
 78 84  1  0  0  0
 78151  1  0  0  0
 78152  1  0  0  0
 79 82  1  0  0  0
 79153  1  0  0  0
 80 83  1  0  0  0
 80154  1  0  0  0
 80155  1  0  0  0
 81 85  1  0  0  0
 81156  1  0  0  0
 81157  1  0  0  0
 82 85  1  0  0  0
 82158  1  0  0  0
 82159  1  0  0  0
 83160  1  0  0  0
 83161  1  0  0  0
 85162  1  0  0  0
 85163  1  0  0  0
M  CHG  1  85   1
M  ISO  4   1 100  68 101  83 101  84 100
M  END
> <chiral flag>
0

> <version>
0

> <s_m_source_file>
/data/baiqing/PycharmProjects/Reinvent-master-3.2/result/LINK_invent/BTK/process_docking_weight1_custom_sum_contain_oxygen_bond_distance_aromatic_linkinvent_7_9_3/rearranged_h_0123.sdf

> <i_m_source_file_index>
90

> <r_mmod_Potential_Energy-OPLS-2005>
-99.5430221557617

> <r_mmod_Stretch_Energy-OPLS-2005>
41.8595314025879

> <r_mmod_Bend_Energy-OPLS-2005>
107.595565795898

> <r_mmod_Torsional_Energy-OPLS-2005>
290.401336669922

> <r_mmod_Improper_Torsional_Energy-OPLS-2005>
13.4169044494629

> <r_mmod_Van_der_Waal_Energy-OPLS-2005>
145.448135375977

> <r_mmod_Electrostatic_Energy-OPLS-2005>
-240.778778076172

> <r_mmod_Solvation_Energy-OPLS-2005>
-470.676788330078

> <b_mmod_Minimization_Converged-OPLS-2005>
0

> <r_mmod_RMS_Derivative-OPLS-2005>
1.20501363277435

$$$$
90
                    3D
 Structure written by MMmdl.
167176  0  0  1  0            999 V2000
  -30.6575  -14.5632   20.5173 C   0  0  0  0  0  0
  -30.4339  -12.3481   19.4318 C   0  0  0  0  0  0
  -29.4993  -12.4916   18.2132 C   0  0  0  0  0  0
  -28.0206  -12.3409   18.6282 C   0  0  0  0  0  0
  -27.6536  -13.1917   19.8722 C   0  0  2  0  0  0
  -28.7058  -13.0319   20.9919 C   0  0  0  0  0  0
  -25.2581  -13.8102   20.5725 C   0  0  0  0  0  0
  -24.1821  -13.0390   20.9180 C   0  0  0  0  0  0
  -24.6367  -11.6857   20.8748 C   0  0  0  0  0  0
  -23.9032  -10.4265   21.0415 C   0  0  0  0  0  0
  -24.3592   -9.4186   21.9191 C   0  0  0  0  0  0
  -23.6276   -8.2223   22.0758 C   0  0  0  0  0  0
  -22.4261   -8.0265   21.3544 C   0  0  0  0  0  0
  -21.9887   -9.0235   20.4647 C   0  0  0  0  0  0
  -22.7210  -10.2115   20.3060 C   0  0  0  0  0  0
  -21.6847   -6.0723   22.5273 C   0  0  0  0  0  0
  -21.4011   -6.5633   23.8205 C   0  0  0  0  0  0
  -21.3656   -5.6790   24.9173 C   0  0  0  0  0  0
  -21.6047   -4.3053   24.7232 C   0  0  0  0  0  0
  -21.8821   -3.8139   23.4354 C   0  0  0  0  0  0
  -21.9193   -4.6950   22.3404 C   0  0  0  0  0  0
  -22.7857  -13.5212   21.1845 C   0  0  0  0  0  0
  -22.1663   -4.2136   21.0981 F   0  0  0  0  0  0
  -21.5629   -3.4538   25.7747 F   0  0  0  0  0  0
  -30.0218  -13.3597   20.4188 N   0  0  0  0  0  0
  -26.2990  -12.9227   20.3394 N   0  0  0  0  0  0
  -25.9288  -11.6408   20.5799 N   0  0  0  0  0  0
  -22.0500  -12.8209   22.0407 N   0  0  0  0  0  0
  -25.4296  -15.1834   20.4207 N   0  0  0  0  0  0
  -31.8169  -14.7355   20.1361 O   0  0  0  0  0  0
  -21.6627   -6.8861   21.4234 O   0  0  0  0  0  0
  -22.3553  -14.5528   20.6704 O   0  0  0  0  0  0
  -24.6192  -31.8672   23.2096 C   0  0  0  0  0  0
  -25.9080  -32.4811   23.8397 C   0  0  1  0  0  0
  -27.2251  -27.3814   20.1006 C   0  0  0  0  0  0
  -25.5922  -33.8606   24.2322 N   0  0  0  0  0  0
  -23.4087  -30.4933   21.5519 C   0  0  2  0  0  0
  -24.8542  -28.9655   20.1076 C   0  0  0  0  0  0
  -22.7445  -29.4645   22.4963 C   0  0  0  0  0  0
  -18.0279  -28.1354   22.8485 C   0  0  0  0  0  0
  -24.1488  -36.7307   23.2640 C   0  0  0  0  0  0
  -25.9457  -30.8138   21.3761 C   0  0  0  0  0  0
  -26.0203  -29.4494   20.7134 C   0  0  0  0  0  0
  -27.2070  -28.6668   20.7082 C   0  0  0  0  0  0
  -26.0348  -26.9469   19.4624 C   0  0  0  0  0  0
  -24.8590  -27.7143   19.4773 C   0  0  0  0  0  0
  -23.6193  -29.8374   20.1629 C   0  0  0  0  0  0
  -25.4110  -36.3106   24.0337 C   0  0  1  0  0  0
  -20.5875  -28.3665   23.1292 C   0  0  2  0  0  0
  -20.6772  -26.9394   22.5411 C   0  0  0  0  0  0
  -19.5752  -26.6369   21.5210 C   0  0  0  0  0  0
  -18.1924  -26.7900   22.1617 C   0  0  0  0  0  0
  -19.1527  -28.8825   23.2874 C   0  0  0  0  0  0
  -18.9467  -30.1428   23.8888 C   0  0  0  0  0  0
  -17.6468  -30.6572   24.0553 C   0  0  0  0  0  0
  -25.9048  -34.9469   23.5133 C   0  0  0  0  0  0
  -16.5357  -29.9070   23.6319 C   0  0  0  0  0  0
  -16.7265  -28.6481   23.0352 C   0  0  0  0  0  0
  -26.4489  -31.6599   25.0740 C   0  0  0  0  0  0
  -25.3729  -31.3709   26.1472 C   0  0  0  0  0  0
  -27.0344  -30.3030   24.6165 C   0  0  0  0  0  0
  -27.6060  -32.4340   25.7500 C   0  0  0  0  0  0
  -27.5586  -37.1803   24.8463 C   0  0  0  0  0  0
  -21.4173  -29.3029   22.3708 N   0  0  0  0  0  0
  -26.4296  -37.3790   23.9411 N   0  0  0  0  0  0
  -24.6754  -31.0731   22.1029 N   0  0  0  0  0  0
  -23.4210  -28.8185   23.3016 O   0  0  0  0  0  0
  -28.3585  -26.5650   20.1616 O   0  0  0  0  0  0
  -26.5616  -34.8936   22.4697 O   0  0  0  0  0  0
  -23.5381  -32.1464   23.7468 O   0  0  0  0  0  0
  -27.2899  -20.1119   19.3350 C   0  0  0  0  0  0
  -28.5861  -20.0867   19.7971 C   0  0  0  0  0  0
  -28.0987  -18.1220   18.8369 C   0  0  0  0  0  0
  -28.1411  -15.7356   16.2700 C   0  0  0  0  0  0
  -27.0789  -16.3151   17.2044 C   0  0  0  0  0  0
  -29.1834  -16.5984   16.9866 C   0  0  0  0  0  0
  -28.1983  -16.7958   18.1480 C   0  0  0  0  0  0
  -29.3581  -21.2900   20.3445 C   0  0  0  0  0  0
  -28.5695  -22.6286   20.0707 C   0  0  0  0  0  0
  -29.1521  -24.0525   20.3814 C   0  0  0  0  0  0
  -30.2927  -18.0728   19.9744 C   0  0  0  0  0  0
  -30.2447  -17.0285   21.1580 C   0  0  0  0  0  0
  -28.1362  -25.1470   19.9051 C   0  0  0  0  0  0
  -29.0149  -18.7598   19.5980 N   0  0  0  0  0  0
  -27.0330  -18.9132   18.7541 N   0  3  0  0  0  0
  -29.8761  -15.6073   20.8943 N   0  0  0  0  0  0
  -31.4748  -12.4662   19.1246 H   0  0  0  0  0  0
  -30.3597  -11.3477   19.8607 H   0  0  0  0  0  0
  -29.7500  -11.7485   17.4554 H   0  0  0  0  0  0
  -29.6591  -13.4649   17.7504 H   0  0  0  0  0  0
  -27.8468  -11.2857   18.8416 H   0  0  0  0  0  0
  -27.3651  -12.5924   17.7936 H   0  0  0  0  0  0
  -27.6660  -14.2233   19.5475 H   0  0  0  0  0  0
  -28.7107  -12.0076   21.3678 H   0  0  0  0  0  0
  -28.4653  -13.6605   21.8502 H   0  0  0  0  0  0
  -25.2733   -9.5665   22.4766 H   0  0  0  0  0  0
  -23.9981   -7.4615   22.7480 H   0  0  0  0  0  0
  -21.0814   -8.8752   19.8958 H   0  0  0  0  0  0
  -22.3664  -10.9657   19.6176 H   0  0  0  0  0  0
  -21.2002   -7.6144   23.9704 H   0  0  0  0  0  0
  -21.1477   -6.0527   25.9075 H   0  0  0  0  0  0
  -22.0609   -2.7601   23.2861 H   0  0  0  0  0  0
  -22.4106  -11.9845   22.4756 H   0  0  0  0  0  0
  -21.1134  -13.1250   22.2652 H   0  0  0  0  0  0
  -24.6618  -15.8318   20.5585 H   0  0  0  0  0  0
  -26.2928  -15.6371   20.1620 H   0  0  0  0  0  0
  -26.7151  -32.5516   23.1161 H   0  0  0  0  0  0
  -25.0057  -33.9750   25.0460 H   0  0  0  0  0  0
  -22.6983  -31.3115   21.4168 H   0  0  0  0  0  0
  -23.3758  -35.9631   23.3299 H   0  0  0  0  0  0
  -24.3589  -36.8930   22.2058 H   0  0  0  0  0  0
  -23.7233  -37.6503   23.6666 H   0  0  0  0  0  0
  -26.0742  -31.5853   20.6155 H   0  0  0  0  0  0
  -26.8267  -30.8554   22.0042 H   0  0  0  0  0  0
  -28.0999  -29.0316   21.1982 H   0  0  0  0  0  0
  -25.9738  -25.9999   18.9470 H   0  0  0  0  0  0
  -23.9654  -27.3384   18.9967 H   0  0  0  0  0  0
  -23.7296  -30.6203   19.4107 H   0  0  0  0  0  0
  -22.7402  -29.2633   19.8648 H   0  0  0  0  0  0
  -25.1274  -36.1977   25.0827 H   0  0  0  0  0  0
  -20.9947  -28.3257   24.1422 H   0  0  0  0  0  0
  -20.5686  -26.2286   23.3612 H   0  0  0  0  0  0
  -21.6642  -26.7442   22.1199 H   0  0  0  0  0  0
  -19.6930  -25.6287   21.1236 H   0  0  0  0  0  0
  -19.6685  -27.3191   20.6747 H   0  0  0  0  0  0
  -17.4196  -26.6650   21.4016 H   0  0  0  0  0  0
  -18.0304  -26.0027   22.8998 H   0  0  0  0  0  0
  -19.7947  -30.7220   24.2277 H   0  0  0  0  0  0
  -17.5031  -31.6261   24.5149 H   0  0  0  0  0  0
  -15.5357  -30.2971   23.7644 H   0  0  0  0  0  0
  -15.8667  -28.0804   22.7067 H   0  0  0  0  0  0
  -24.5909  -30.7052   25.7794 H   0  0  0  0  0  0
  -24.8907  -32.2858   26.4922 H   0  0  0  0  0  0
  -25.8051  -30.8873   27.0240 H   0  0  0  0  0  0
  -26.2906  -29.6765   24.1220 H   0  0  0  0  0  0
  -27.4089  -29.7300   25.4659 H   0  0  0  0  0  0
  -27.8759  -30.4324   23.9351 H   0  0  0  0  0  0
  -27.2667  -33.3651   26.2059 H   0  0  0  0  0  0
  -28.3862  -32.6889   25.0309 H   0  0  0  0  0  0
  -28.0730  -31.8472   26.5423 H   0  0  0  0  0  0
  -28.2586  -38.0119   24.7534 H   0  0  0  0  0  0
  -28.1094  -36.2650   24.6250 H   0  0  0  0  0  0
  -27.2304  -37.1403   25.8865 H   0  0  0  0  0  0
  -20.9345  -29.8751   21.6918 H   0  0  0  0  0  0
  -26.0194  -38.2867   24.1425 H   0  0  0  0  0  0
  -26.5602  -20.9093   19.3112 H   0  0  0  0  0  0
  -27.9994  -15.9848   15.2177 H   0  0  0  0  0  0
  -28.2881  -14.6651   16.4113 H   0  0  0  0  0  0
  -26.4054  -15.5732   17.6352 H   0  0  0  0  0  0
  -26.5239  -17.1242   16.7281 H   0  0  0  0  0  0
  -29.4019  -17.5256   16.4550 H   0  0  0  0  0  0
  -30.0971  -16.0678   17.2567 H   0  0  0  0  0  0
  -28.3817  -16.0621   18.9176 H   0  0  0  0  0  0
  -30.3346  -21.3297   19.8606 H   0  0  0  0  0  0
  -29.5302  -21.1545   21.4128 H   0  0  0  0  0  0
  -27.6175  -22.5583   20.5992 H   0  0  0  0  0  0
  -28.3205  -22.6396   19.0082 H   0  0  0  0  0  0
  -30.1127  -24.1913   19.8853 H   0  0  0  0  0  0
  -29.3313  -24.1548   21.4517 H   0  0  0  0  0  0
  -30.7309  -17.6310   19.0801 H   0  0  0  0  0  0
  -30.9798  -18.8685   20.2623 H   0  0  0  0  0  0
  -29.5777  -17.4078   21.9331 H   0  0  0  0  0  0
  -31.2313  -17.0126   21.6248 H   0  0  0  0  0  0
  -27.1928  -24.8630   20.3761 H   0  0  0  0  0  0
  -28.0041  -25.0308   18.8284 H   0  0  0  0  0  0
  -26.1735  -18.6800   18.2720 H   0  0  0  0  0  0
  -28.9367  -15.3449   21.1540 H   0  0  0  0  0  0
  1 25  1  0  0  0
  1 30  2  0  0  0
  1 86  1  0  0  0
  2  3  1  0  0  0
  2 25  1  0  0  0
  2 87  1  0  0  0
  2 88  1  0  0  0
  3  4  1  0  0  0
  3 89  1  0  0  0
  3 90  1  0  0  0
  4  5  1  0  0  0
  4 91  1  0  0  0
  4 92  1  0  0  0
  5  6  1  0  0  0
  5 26  1  0  0  0
  5 93  1  0  0  0
  6 25  1  0  0  0
  6 94  1  0  0  0
  6 95  1  0  0  0
  7  8  2  0  0  0
  7 26  1  0  0  0
  7 29  1  0  0  0
  8  9  1  0  0  0
  8 22  1  0  0  0
  9 10  1  0  0  0
  9 27  2  0  0  0
 10 11  2  0  0  0
 10 15  1  0  0  0
 11 12  1  0  0  0
 11 96  1  0  0  0
 12 13  2  0  0  0
 12 97  1  0  0  0
 13 14  1  0  0  0
 13 31  1  0  0  0
 14 15  2  0  0  0
 14 98  1  0  0  0
 15 99  1  0  0  0
 16 17  2  0  0  0
 16 21  1  0  0  0
 16 31  1  0  0  0
 17 18  1  0  0  0
 17100  1  0  0  0
 18 19  2  0  0  0
 18101  1  0  0  0
 19 20  1  0  0  0
 19 24  1  0  0  0
 20 21  2  0  0  0
 20102  1  0  0  0
 21 23  1  0  0  0
 22 28  1  0  0  0
 22 32  2  0  0  0
 26 27  1  0  0  0
 28103  1  0  0  0
 28104  1  0  0  0
 29105  1  0  0  0
 29106  1  0  0  0
 33 34  1  0  0  0
 33 66  1  0  0  0
 33 70  2  0  0  0
 34 36  1  0  0  0
 34 59  1  0  0  0
 34107  1  0  0  0
 35 44  2  0  0  0
 35 45  1  0  0  0
 35 68  1  0  0  0
 36 56  1  0  0  0
 36108  1  0  0  0
 37 39  1  0  0  0
 37 47  1  0  0  0
 37 66  1  0  0  0
 37109  1  0  0  0
 38 43  2  0  0  0
 38 46  1  0  0  0
 38 47  1  0  0  0
 39 64  1  0  0  0
 39 67  2  0  0  0
 40 52  1  0  0  0
 40 53  2  0  0  0
 40 58  1  0  0  0
 41110  1  0  0  0
 41111  1  0  0  0
 41112  1  0  0  0
 41 48  1  0  0  0
 42 43  1  0  0  0
 42 66  1  0  0  0
 42113  1  0  0  0
 42114  1  0  0  0
 43 44  1  0  0  0
 44115  1  0  0  0
 45 46  2  0  0  0
 45116  1  0  0  0
 46117  1  0  0  0
 47118  1  0  0  0
 47119  1  0  0  0
 48 56  1  0  0  0
 48 65  1  0  0  0
 48120  1  0  0  0
 49 50  1  0  0  0
 49 53  1  0  0  0
 49 64  1  0  0  0
 49121  1  0  0  0
 50 51  1  0  0  0
 50122  1  0  0  0
 50123  1  0  0  0
 51 52  1  0  0  0
 51124  1  0  0  0
 51125  1  0  0  0
 52126  1  0  0  0
 52127  1  0  0  0
 53 54  1  0  0  0
 54 55  2  0  0  0
 54128  1  0  0  0
 55 57  1  0  0  0
 55129  1  0  0  0
 56 69  2  0  0  0
 57 58  2  0  0  0
 57130  1  0  0  0
 58131  1  0  0  0
 59 60  1  0  0  0
 59 61  1  0  0  0
 59 62  1  0  0  0
 60132  1  0  0  0
 60133  1  0  0  0
 60134  1  0  0  0
 61135  1  0  0  0
 61136  1  0  0  0
 61137  1  0  0  0
 62138  1  0  0  0
 62139  1  0  0  0
 62140  1  0  0  0
 63 65  1  0  0  0
 63141  1  0  0  0
 63142  1  0  0  0
 63143  1  0  0  0
 64144  1  0  0  0
 65145  1  0  0  0
 68 83  1  0  0  0
 71 72  2  0  0  0
 71 85  1  0  0  0
 71146  1  0  0  0
 72 78  1  0  0  0
 72 84  1  0  0  0
 73 84  1  0  0  0
 73 85  2  0  0  0
 73 77  1  0  0  0
 74 75  1  0  0  0
 74 76  1  0  0  0
 74147  1  0  0  0
 74148  1  0  0  0
 75 77  1  0  0  0
 75149  1  0  0  0
 75150  1  0  0  0
 76 77  1  0  0  0
 76151  1  0  0  0
 76152  1  0  0  0
 77153  1  0  0  0
 78 79  1  0  0  0
 78154  1  0  0  0
 78155  1  0  0  0
 79 80  1  0  0  0
 79156  1  0  0  0
 79157  1  0  0  0
 80 83  1  0  0  0
 80158  1  0  0  0
 80159  1  0  0  0
 81 82  1  0  0  0
 81 84  1  0  0  0
 81160  1  0  0  0
 81161  1  0  0  0
 82 86  1  0  0  0
 82162  1  0  0  0
 82163  1  0  0  0
 83164  1  0  0  0
 83165  1  0  0  0
 85166  1  0  0  0
 86167  1  0  0  0
M  CHG  1  85   1
M  ISO  4   1 100  68 101  83 101  86 100
M  END
> <chiral flag>
0

> <version>
0

> <s_m_source_file>
/data/baiqing/PycharmProjects/Reinvent-master-3.2/result/LINK_invent/BTK/process_docking_weight1_custom_sum_contain_oxygen_bond_distance_aromatic_linkinvent_7_9_3/rearranged_h_0123.sdf

> <i_m_source_file_index>
91

> <r_mmod_Potential_Energy-OPLS-2005>
-16.29150390625

> <r_mmod_Stretch_Energy-OPLS-2005>
57.7546348571777

> <r_mmod_Bend_Energy-OPLS-2005>
149.238479614258

> <r_mmod_Torsional_Energy-OPLS-2005>
256.236267089844

> <r_mmod_Improper_Torsional_Energy-OPLS-2005>
4.50671482086182

> <r_mmod_Van_der_Waal_Energy-OPLS-2005>
118.24723815918

> <r_mmod_Electrostatic_Energy-OPLS-2005>
-201.460968017578

> <r_mmod_Solvation_Energy-OPLS-2005>
-430.212799072266

> <b_mmod_Minimization_Converged-OPLS-2005>
0

> <r_mmod_RMS_Derivative-OPLS-2005>
1.78093063831329

$$$$
