0
                    3D
 Structure written by MMmdl.
170179  0  0  1  0            999 V2000
  -30.7285  -14.4139   20.6530 C   0  0  0  0  0  0
  -30.4236  -12.3072   19.3958 C   0  0  0  0  0  0
  -29.4865  -12.5223   18.1918 C   0  0  0  0  0  0
  -28.0097  -12.3756   18.6093 C   0  0  0  0  0  0
  -27.6637  -13.2012   19.8767 C   0  0  2  0  0  0
  -28.7034  -12.9460   20.9887 C   0  0  0  0  0  0
  -25.2599  -13.8152   20.5669 C   0  0  0  0  0  0
  -24.1842  -13.0438   20.9163 C   0  0  0  0  0  0
  -24.6386  -11.6899   20.8721 C   0  0  0  0  0  0
  -23.9050  -10.4290   21.0399 C   0  0  0  0  0  0
  -24.3606   -9.4211   21.9179 C   0  0  0  0  0  0
  -23.6286   -8.2245   22.0754 C   0  0  0  0  0  0
  -22.4270   -8.0279   21.3545 C   0  0  0  0  0  0
  -21.9898   -9.0248   20.4647 C   0  0  0  0  0  0
  -22.7220  -10.2131   20.3050 C   0  0  0  0  0  0
  -21.6850   -6.0732   22.5280 C   0  0  0  0  0  0
  -21.4014   -6.5636   23.8209 C   0  0  0  0  0  0
  -21.3659   -5.6793   24.9171 C   0  0  0  0  0  0
  -21.6044   -4.3055   24.7225 C   0  0  0  0  0  0
  -21.8821   -3.8144   23.4345 C   0  0  0  0  0  0
  -21.9194   -4.6962   22.3402 C   0  0  0  0  0  0
  -22.7867  -13.5244   21.1833 C   0  0  0  0  0  0
  -22.1661   -4.2147   21.0981 F   0  0  0  0  0  0
  -21.5630   -3.4539   25.7734 F   0  0  0  0  0  0
  -30.0381  -13.2615   20.4452 N   0  0  0  0  0  0
  -26.3029  -12.9309   20.3365 N   0  0  0  0  0  0
  -25.9311  -11.6472   20.5750 N   0  0  0  0  0  0
  -22.0509  -12.8238   22.0393 N   0  0  0  0  0  0
  -25.4341  -15.1867   20.4086 N   0  0  0  0  0  0
  -31.8027  -14.6702   20.1005 O   0  0  0  0  0  0
  -21.6638   -6.8874   21.4239 O   0  0  0  0  0  0
  -22.3551  -14.5554   20.6691 O   0  0  0  0  0  0
  -24.6147  -31.8675   23.2132 C   0  0  0  0  0  0
  -25.9042  -32.4822   23.8410 C   0  0  1  0  0  0
  -27.2318  -27.4378   20.0746 C   0  0  0  0  0  0
  -25.5901  -33.8624   24.2336 N   0  0  0  0  0  0
  -23.4017  -30.4961   21.5528 C   0  0  2  0  0  0
  -24.8442  -28.9665   20.1146 C   0  0  0  0  0  0
  -22.7403  -29.4666   22.4975 C   0  0  0  0  0  0
  -18.0273  -28.1373   22.8498 C   0  0  0  0  0  0
  -24.1476  -36.7311   23.2643 C   0  0  0  0  0  0
  -25.9325  -30.8305   21.3690 C   0  0  0  0  0  0
  -26.0057  -29.4666   20.7152 C   0  0  0  0  0  0
  -27.1975  -28.7054   20.7017 C   0  0  0  0  0  0
  -26.0435  -26.9569   19.4690 C   0  0  0  0  0  0
  -24.8573  -27.7081   19.4950 C   0  0  0  0  0  0
  -23.6094  -29.8356   20.1654 C   0  0  0  0  0  0
  -25.4097  -36.3112   24.0339 C   0  0  1  0  0  0
  -20.5868  -28.3666   23.1300 C   0  0  2  0  0  0
  -20.6761  -26.9397   22.5412 C   0  0  0  0  0  0
  -19.5738  -26.6380   21.5214 C   0  0  0  0  0  0
  -18.1918  -26.7917   22.1630 C   0  0  0  0  0  0
  -19.1526  -28.8833   23.2899 C   0  0  0  0  0  0
  -18.9463  -30.1448   23.8901 C   0  0  0  0  0  0
  -17.6467  -30.6585   24.0578 C   0  0  0  0  0  0
  -25.9028  -34.9478   23.5130 C   0  0  0  0  0  0
  -16.5354  -29.9093   23.6330 C   0  0  0  0  0  0
  -16.7262  -28.6512   23.0341 C   0  0  0  0  0  0
  -26.4470  -31.6600   25.0735 C   0  0  0  0  0  0
  -25.3745  -31.3713   26.1494 C   0  0  0  0  0  0
  -27.0311  -30.3047   24.6117 C   0  0  0  0  0  0
  -27.6049  -32.4323   25.7484 C   0  0  0  0  0  0
  -27.5573  -37.1804   24.8467 C   0  0  0  0  0  0
  -21.4132  -29.3039   22.3702 N   0  0  0  0  0  0
  -26.4282  -37.3799   23.9418 N   0  0  0  0  0  0
  -24.6680  -31.0783   22.1034 N   0  0  0  0  0  0
  -23.4170  -28.8184   23.3001 O   0  0  0  0  0  0
  -28.4150  -26.7191   20.0783 O   0  0  0  0  0  0
  -26.5593  -34.8930   22.4693 O   0  0  0  0  0  0
  -23.5340  -32.1419   23.7528 O   0  0  0  0  0  0
  -28.8881  -22.3478   19.8266 C   0  0  0  0  0  0
  -30.2469  -23.3100   21.5935 C   0  0  0  0  0  0
  -29.3591  -21.0275   21.8404 C   0  0  0  0  0  0
  -29.6318  -23.4337   20.3344 C   0  0  0  0  0  0
  -28.7309  -21.1583   20.5731 C   0  0  0  0  0  0
  -30.1172  -22.1196   22.3414 C   0  0  0  0  0  0
  -29.4258  -18.5327   22.5400 C   0  0  0  0  0  0
  -29.1636  -19.8493   22.7158 C   0  0  0  0  0  0
  -29.1426  -17.5225   23.6215 C   0  0  0  0  0  0
  -30.3362  -16.5774   23.5548 C   0  0  0  0  0  0
  -30.1380  -17.7931   21.4078 C   0  0  2  0  0  0
  -30.7090  -16.4997   22.0649 C   0  0  2  0  0  0
  -27.8528  -20.0588   19.9971 C   0  0  0  0  0  0
  -30.7986  -22.0346   23.6983 C   0  0  0  0  0  0
  -31.2404  -18.6073   20.7122 C   0  0  0  0  0  0
  -29.7757  -24.7156   19.5167 C   0  0  0  0  0  0
  -28.4540  -25.4919   19.3381 C   0  0  0  0  0  0
  -30.1437  -15.2711   21.5022 N   0  0  0  0  0  0
  -31.4651  -12.4218   19.0901 H   0  0  0  0  0  0
  -30.3363  -11.2867   19.7720 H   0  0  0  0  0  0
  -29.7225  -11.8107   17.3992 H   0  0  0  0  0  0
  -29.6511  -13.5151   17.7702 H   0  0  0  0  0  0
  -27.8199  -11.3175   18.7933 H   0  0  0  0  0  0
  -27.3556  -12.6617   17.7847 H   0  0  0  0  0  0
  -27.7195  -14.2548   19.6016 H   0  0  0  0  0  0
  -28.6787  -11.8985   21.2932 H   0  0  0  0  0  0
  -28.4492  -13.5058   21.8889 H   0  0  0  0  0  0
  -25.2755   -9.5689   22.4748 H   0  0  0  0  0  0
  -23.9996   -7.4639   22.7471 H   0  0  0  0  0  0
  -21.0830   -8.8764   19.8952 H   0  0  0  0  0  0
  -22.3680  -10.9668   19.6157 H   0  0  0  0  0  0
  -21.2005   -7.6143   23.9711 H   0  0  0  0  0  0
  -21.1479   -6.0522   25.9075 H   0  0  0  0  0  0
  -22.0602   -2.7607   23.2846 H   0  0  0  0  0  0
  -22.4116  -11.9892   22.4774 H   0  0  0  0  0  0
  -21.1132  -13.1272   22.2612 H   0  0  0  0  0  0
  -24.6722  -15.8465   20.5205 H   0  0  0  0  0  0
  -26.2956  -15.6242   20.1059 H   0  0  0  0  0  0
  -26.7109  -32.5530   23.1169 H   0  0  0  0  0  0
  -25.0058  -33.9790   25.0487 H   0  0  0  0  0  0
  -22.6916  -31.3151   21.4171 H   0  0  0  0  0  0
  -23.3745  -35.9639   23.3312 H   0  0  0  0  0  0
  -24.3577  -36.8913   22.2058 H   0  0  0  0  0  0
  -23.7214  -37.6512   23.6649 H   0  0  0  0  0  0
  -26.0488  -31.5967   20.6007 H   0  0  0  0  0  0
  -26.8193  -30.8798   21.9886 H   0  0  0  0  0  0
  -28.0945  -29.0890   21.1679 H   0  0  0  0  0  0
  -25.9954  -26.0062   18.9603 H   0  0  0  0  0  0
  -23.9645  -27.3170   19.0263 H   0  0  0  0  0  0
  -23.7218  -30.6144   19.4099 H   0  0  0  0  0  0
  -22.7310  -29.2607   19.8654 H   0  0  0  0  0  0
  -25.1266  -36.1982   25.0830 H   0  0  0  0  0  0
  -20.9980  -28.3241   24.1412 H   0  0  0  0  0  0
  -20.5661  -26.2277   23.3603 H   0  0  0  0  0  0
  -21.6628  -26.7424   22.1207 H   0  0  0  0  0  0
  -19.6900  -25.6294   21.1233 H   0  0  0  0  0  0
  -19.6673  -27.3205   20.6757 H   0  0  0  0  0  0
  -17.4182  -26.6670   21.4036 H   0  0  0  0  0  0
  -18.0323  -26.0047   22.9015 H   0  0  0  0  0  0
  -19.7943  -30.7274   24.2247 H   0  0  0  0  0  0
  -17.5025  -31.6265   24.5187 H   0  0  0  0  0  0
  -15.5359  -30.3012   23.7641 H   0  0  0  0  0  0
  -15.8658  -28.0855   22.7024 H   0  0  0  0  0  0
  -24.5905  -30.7064   25.7843 H   0  0  0  0  0  0
  -24.8958  -32.2879   26.4959 H   0  0  0  0  0  0
  -25.8102  -30.8873   27.0246 H   0  0  0  0  0  0
  -26.2864  -29.6797   24.1176 H   0  0  0  0  0  0
  -27.4089  -29.7286   25.4575 H   0  0  0  0  0  0
  -27.8689  -30.4364   23.9264 H   0  0  0  0  0  0
  -27.2670  -33.3619   26.2075 H   0  0  0  0  0  0
  -28.3848  -32.6887   25.0299 H   0  0  0  0  0  0
  -28.0731  -31.8441   26.5383 H   0  0  0  0  0  0
  -28.2594  -38.0102   24.7530 H   0  0  0  0  0  0
  -28.1059  -36.2632   24.6267 H   0  0  0  0  0  0
  -27.2297  -37.1432   25.8874 H   0  0  0  0  0  0
  -20.9274  -29.8784   21.6957 H   0  0  0  0  0  0
  -26.0168  -38.2870   24.1455 H   0  0  0  0  0  0
  -28.4123  -22.4381   18.8594 H   0  0  0  0  0  0
  -30.8190  -24.1378   21.9905 H   0  0  0  0  0  0
  -28.6754  -20.1025   23.6460 H   0  0  0  0  0  0
  -28.2221  -16.9917   23.3761 H   0  0  0  0  0  0
  -29.0224  -17.9744   24.6070 H   0  0  0  0  0  0
  -30.1321  -15.6077   24.0110 H   0  0  0  0  0  0
  -31.1674  -17.0187   24.1080 H   0  0  0  0  0  0
  -29.3810  -17.5212   20.6711 H   0  0  0  0  0  0
  -31.7979  -16.4638   21.9836 H   0  0  0  0  0  0
  -27.0961  -20.4731   19.3303 H   0  0  0  0  0  0
  -27.3268  -19.5090   20.7777 H   0  0  0  0  0  0
  -28.4539  -19.3557   19.4212 H   0  0  0  0  0  0
  -31.4249  -22.9063   23.8911 H   0  0  0  0  0  0
  -31.4360  -21.1511   23.7516 H   0  0  0  0  0  0
  -30.0577  -21.9736   24.4959 H   0  0  0  0  0  0
  -31.9606  -18.9956   21.4331 H   0  0  0  0  0  0
  -30.8388  -19.4497   20.1527 H   0  0  0  0  0  0
  -31.7847  -17.9879   19.9993 H   0  0  0  0  0  0
  -30.1517  -24.4280   18.5337 H   0  0  0  0  0  0
  -30.5409  -25.3634   19.9459 H   0  0  0  0  0  0
  -27.6296  -24.8372   19.6221 H   0  0  0  0  0  0
  -28.3272  -25.7317   18.2810 H   0  0  0  0  0  0
  -29.2498  -14.9789   21.8667 H   0  0  0  0  0  0
  1 25  1  0  0  0
  1 30  2  0  0  0
  1 88  1  0  0  0
  2  3  1  0  0  0
  2 25  1  0  0  0
  2 89  1  0  0  0
  2 90  1  0  0  0
  3  4  1  0  0  0
  3 91  1  0  0  0
  3 92  1  0  0  0
  4  5  1  0  0  0
  4 93  1  0  0  0
  4 94  1  0  0  0
  5  6  1  0  0  0
  5 26  1  0  0  0
  5 95  1  0  0  0
  6 25  1  0  0  0
  6 96  1  0  0  0
  6 97  1  0  0  0
  7  8  2  0  0  0
  7 26  1  0  0  0
  7 29  1  0  0  0
  8  9  1  0  0  0
  8 22  1  0  0  0
  9 10  1  0  0  0
  9 27  2  0  0  0
 10 11  2  0  0  0
 10 15  1  0  0  0
 11 12  1  0  0  0
 11 98  1  0  0  0
 12 13  2  0  0  0
 12 99  1  0  0  0
 13 14  1  0  0  0
 13 31  1  0  0  0
 14 15  2  0  0  0
 14100  1  0  0  0
 15101  1  0  0  0
 16 17  2  0  0  0
 16 21  1  0  0  0
 16 31  1  0  0  0
 17 18  1  0  0  0
 17102  1  0  0  0
 18 19  2  0  0  0
 18103  1  0  0  0
 19 20  1  0  0  0
 19 24  1  0  0  0
 20 21  2  0  0  0
 20104  1  0  0  0
 21 23  1  0  0  0
 22 28  1  0  0  0
 22 32  2  0  0  0
 26 27  1  0  0  0
 28105  1  0  0  0
 28106  1  0  0  0
 29107  1  0  0  0
 29108  1  0  0  0
 33 34  1  0  0  0
 33 66  1  0  0  0
 33 70  2  0  0  0
 34 36  1  0  0  0
 34 59  1  0  0  0
 34109  1  0  0  0
 35 44  2  0  0  0
 35 45  1  0  0  0
 35 68  1  0  0  0
 36 56  1  0  0  0
 36110  1  0  0  0
 37 39  1  0  0  0
 37 47  1  0  0  0
 37 66  1  0  0  0
 37111  1  0  0  0
 38 43  2  0  0  0
 38 46  1  0  0  0
 38 47  1  0  0  0
 39 64  1  0  0  0
 39 67  2  0  0  0
 40 52  1  0  0  0
 40 53  2  0  0  0
 40 58  1  0  0  0
 41112  1  0  0  0
 41113  1  0  0  0
 41114  1  0  0  0
 41 48  1  0  0  0
 42 43  1  0  0  0
 42 66  1  0  0  0
 42115  1  0  0  0
 42116  1  0  0  0
 43 44  1  0  0  0
 44117  1  0  0  0
 45 46  2  0  0  0
 45118  1  0  0  0
 46119  1  0  0  0
 47120  1  0  0  0
 47121  1  0  0  0
 48 56  1  0  0  0
 48 65  1  0  0  0
 48122  1  0  0  0
 49 50  1  0  0  0
 49 53  1  0  0  0
 49 64  1  0  0  0
 49123  1  0  0  0
 50 51  1  0  0  0
 50124  1  0  0  0
 50125  1  0  0  0
 51 52  1  0  0  0
 51126  1  0  0  0
 51127  1  0  0  0
 52128  1  0  0  0
 52129  1  0  0  0
 53 54  1  0  0  0
 54 55  2  0  0  0
 54130  1  0  0  0
 55 57  1  0  0  0
 55131  1  0  0  0
 56 69  2  0  0  0
 57 58  2  0  0  0
 57132  1  0  0  0
 58133  1  0  0  0
 59 60  1  0  0  0
 59 61  1  0  0  0
 59 62  1  0  0  0
 60134  1  0  0  0
 60135  1  0  0  0
 60136  1  0  0  0
 61137  1  0  0  0
 61138  1  0  0  0
 61139  1  0  0  0
 62140  1  0  0  0
 62141  1  0  0  0
 62142  1  0  0  0
 63 65  1  0  0  0
 63143  1  0  0  0
 63144  1  0  0  0
 63145  1  0  0  0
 64146  1  0  0  0
 65147  1  0  0  0
 68 87  1  0  0  0
 71 74  2  0  0  0
 71 75  1  0  0  0
 71148  1  0  0  0
 72 74  1  0  0  0
 72 76  2  0  0  0
 72149  1  0  0  0
 73 75  2  0  0  0
 73 76  1  0  0  0
 73 78  1  0  0  0
 74 86  1  0  0  0
 75 83  1  0  0  0
 76 84  1  0  0  0
 77 78  2  0  0  0
 77 79  1  0  0  0
 77 81  1  0  0  0
 78150  1  0  0  0
 79 80  1  0  0  0
 79151  1  0  0  0
 79152  1  0  0  0
 80 82  1  0  0  0
 80153  1  0  0  0
 80154  1  0  0  0
 81 82  1  0  0  0
 81 85  1  0  0  0
 81155  1  0  0  0
 82 88  1  0  0  0
 82156  1  0  0  0
 83157  1  0  0  0
 83158  1  0  0  0
 83159  1  0  0  0
 84160  1  0  0  0
 84161  1  0  0  0
 84162  1  0  0  0
 85163  1  0  0  0
 85164  1  0  0  0
 85165  1  0  0  0
 86 87  1  0  0  0
 86166  1  0  0  0
 86167  1  0  0  0
 87168  1  0  0  0
 87169  1  0  0  0
 88170  1  0  0  0
M  ISO  4   1 100  68 101  87 101  88 100
M  END
> <chiral flag>
0

> <version>
0

> <s_m_source_file>
/data/baiqing/PycharmProjects/Reinvent-master-3.2/result/LINK_invent/BTK/process_docking_weight1_custom_sum_contain_oxygen_bond_distance_aromatic_linkinvent_7_9_3/rearranged_h_0163.sdf

> <i_m_source_file_index>
1

> <r_mmod_Potential_Energy-OPLS-2005>
-2.95283174514771

> <r_mmod_Stretch_Energy-OPLS-2005>
37.1443939208984

> <r_mmod_Bend_Energy-OPLS-2005>
134.674697875977

> <r_mmod_Torsional_Energy-OPLS-2005>
263.761932373047

> <r_mmod_Improper_Torsional_Energy-OPLS-2005>
2.22840976715088

> <r_mmod_Van_der_Waal_Energy-OPLS-2005>
155.69938659668

> <r_mmod_Electrostatic_Energy-OPLS-2005>
-408.482421875

> <r_mmod_Solvation_Energy-OPLS-2005>
-197.486679077148

> <b_mmod_Minimization_Converged-OPLS-2005>
0

> <r_mmod_RMS_Derivative-OPLS-2005>
1.00092816352844

$$$$
1
                    3D
 Structure written by MMmdl.
192202  0  0  1  0            999 V2000
  -30.9965  -14.0787   19.8411 C   0  0  0  0  0  0
  -31.1391  -11.9962   19.7582 C   0  0  0  0  0  0
  -30.7621  -12.2122   18.0907 C   0  0  0  0  0  0
  -27.6206  -13.4148   17.9728 C   0  0  0  0  0  0
  -27.3319  -13.4116   19.9306 C   0  0  2  0  0  0
  -28.7743  -13.0361   21.1631 C   0  0  0  0  0  0
  -25.0250  -13.8621   20.6054 C   0  0  0  0  0  0
  -24.0236  -13.0432   20.9723 C   0  0  0  0  0  0
  -24.5348  -11.7108   20.9199 C   0  0  0  0  0  0
  -23.8607  -10.4289   21.0513 C   0  0  0  0  0  0
  -24.3397   -9.4215   21.9102 C   0  0  0  0  0  0
  -23.6233   -8.2123   22.0671 C   0  0  0  0  0  0
  -22.4220   -8.0110   21.3443 C   0  0  0  0  0  0
  -21.9759   -9.0017   20.4584 C   0  0  0  0  0  0
  -22.6950  -10.1931   20.2963 C   0  0  0  0  0  0
  -21.6827   -6.0636   22.5289 C   0  0  0  0  0  0
  -21.4023   -6.5577   23.8224 C   0  0  0  0  0  0
  -21.3616   -5.6746   24.9203 C   0  0  0  0  0  0
  -21.6068   -4.3006   24.7261 C   0  0  0  0  0  0
  -21.8860   -3.8054   23.4396 C   0  0  0  0  0  0
  -21.9245   -4.6876   22.3449 C   0  0  0  0  0  0
  -22.6359  -13.4978   21.2334 C   0  0  0  0  0  0
  -22.1671   -4.2037   21.1030 F   0  0  0  0  0  0
  -21.5602   -3.4532   25.7772 F   0  0  0  0  0  0
  -30.4688  -13.0252   20.7402 N   0  0  0  0  0  0
  -26.0828  -13.0123   20.3819 N   0  0  0  0  0  0
  -25.8164  -11.7211   20.6299 N   0  0  0  0  0  0
  -21.9284  -12.7776   22.0873 N   0  0  0  0  0  0
  -25.0913  -15.2437   20.4247 N   0  0  0  0  0  0
  -31.9915  -14.7136   20.1947 O   0  0  0  0  0  0
  -21.6587   -6.8680   21.4188 O   0  0  0  0  0  0
  -22.1976  -14.5306   20.7213 O   0  0  0  0  0  0
  -24.6163  -31.8684   23.2091 C   0  0  0  0  0  0
  -25.9047  -32.4821   23.8387 C   0  0  1  0  0  0
  -27.2255  -27.4274   20.0699 C   0  0  0  0  0  0
  -25.5890  -33.8608   24.2323 N   0  0  0  0  0  0
  -23.4032  -30.4947   21.5540 C   0  0  2  0  0  0
  -24.8427  -28.9670   20.1114 C   0  0  0  0  0  0
  -22.7415  -29.4672   22.5004 C   0  0  0  0  0  0
  -18.0272  -28.1356   22.8494 C   0  0  0  0  0  0
  -24.1492  -36.7306   23.2635 C   0  0  0  0  0  0
  -25.9375  -30.8288   21.3672 C   0  0  0  0  0  0
  -26.0087  -29.4667   20.7050 C   0  0  0  0  0  0
  -27.2033  -28.7058   20.6772 C   0  0  0  0  0  0
  -26.0324  -26.9546   19.4669 C   0  0  0  0  0  0
  -24.8494  -27.7092   19.4945 C   0  0  0  0  0  0
  -23.6067  -29.8319   20.1681 C   0  0  0  0  0  0
  -25.4114  -36.3109   24.0341 C   0  0  1  0  0  0
  -20.5870  -28.3657   23.1320 C   0  0  2  0  0  0
  -20.6767  -26.9394   22.5425 C   0  0  0  0  0  0
  -19.5750  -26.6389   21.5207 C   0  0  0  0  0  0
  -18.1928  -26.7908   22.1618 C   0  0  0  0  0  0
  -19.1528  -28.8821   23.2905 C   0  0  0  0  0  0
  -18.9451  -30.1431   23.8921 C   0  0  0  0  0  0
  -17.6457  -30.6566   24.0562 C   0  0  0  0  0  0
  -25.9043  -34.9468   23.5126 C   0  0  0  0  0  0
  -16.5346  -29.9072   23.6316 C   0  0  0  0  0  0
  -16.7271  -28.6480   23.0350 C   0  0  0  0  0  0
  -26.4464  -31.6587   25.0703 C   0  0  0  0  0  0
  -25.3741  -31.3687   26.1462 C   0  0  0  0  0  0
  -27.0277  -30.3028   24.6070 C   0  0  0  0  0  0
  -27.6053  -32.4306   25.7438 C   0  0  0  0  0  0
  -27.5595  -37.1805   24.8472 C   0  0  0  0  0  0
  -21.4152  -29.3020   22.3725 N   0  0  0  0  0  0
  -26.4310  -37.3804   23.9406 N   0  0  0  0  0  0
  -24.6709  -31.0783   22.1016 N   0  0  0  0  0  0
  -23.4192  -28.8218   23.3050 O   0  0  0  0  0  0
  -28.3912  -26.6747   20.0974 O   0  0  0  0  0  0
  -26.5630  -34.8931   22.4705 O   0  0  0  0  0  0
  -23.5343  -32.1447   23.7483 O   0  0  0  0  0  0
  -30.3822  -14.5321   18.2918 C   0  0  0  0  0  0
  -29.4674  -13.8987   18.9973 C   0  0  0  0  0  0
  -29.9412  -14.0434   16.8142 C   0  0  0  0  0  0
  -28.7907  -11.8339   18.8819 C   0  0  0  0  0  0
  -29.2411  -12.6790   16.2971 C   0  0  0  0  0  0
  -28.7236  -11.4787   17.2488 C   0  0  0  0  0  0
  -29.4523  -22.9809   19.8298 C   0  0  0  0  0  0
  -27.2637  -23.1815   21.0849 C   0  0  0  0  0  0
  -29.6246  -24.5222   19.9347 C   0  0  0  0  0  0
  -27.5118  -24.6831   21.2421 C   0  0  0  0  0  0
  -28.4876  -16.1021   20.8973 C   0  0  0  0  0  0
  -29.1079  -17.4547   21.2870 C   0  0  0  0  0  0
  -28.8761  -18.1186   18.8717 C   0  0  0  0  0  0
  -28.9352  -15.5613   19.4592 C   0  0  2  0  0  0
  -28.5643  -22.3671   20.9449 C   0  0  1  0  0  0
  -28.2972  -16.6863   18.4837 C   0  0  2  0  0  0
  -28.2615  -25.2384   20.0136 C   0  0  1  0  0  0
  -30.7101  -14.8306   15.7482 C   0  0  0  0  0  0
  -28.3252  -10.6276   19.7451 C   0  0  0  0  0  0
  -29.1730  -12.4598   14.7888 C   0  0  0  0  0  0
  -28.3348  -10.1266   16.6470 C   0  0  0  0  0  0
  -28.2945  -16.6545   16.9132 C   0  0  0  0  0  0
  -28.1616  -20.8987   20.6622 C   0  0  0  0  0  0
  -29.2780  -19.8433   20.6867 C   0  0  0  0  0  0
  -28.7207  -18.5115   20.3142 N   0  3  2  0  0  0
  -32.2294  -11.9634   19.8938 H   0  0  0  0  0  0
  -30.8632  -10.9943   20.0943 H   0  0  0  0  0  0
  -30.9743  -11.2139   17.6729 H   0  0  0  0  0  0
  -31.6353  -12.6662   17.6009 H   0  0  0  0  0  0
  -26.8274  -12.8278   17.4888 H   0  0  0  0  0  0
  -27.4101  -14.4091   17.6354 H   0  0  0  0  0  0
  -27.1548  -14.4256   20.0461 H   0  0  0  0  0  0
  -28.5638  -12.1893   21.7948 H   0  0  0  0  0  0
  -28.7047  -13.6343   22.0583 H   0  0  0  0  0  0
  -25.2559   -9.5828   22.4562 H   0  0  0  0  0  0
  -24.0054   -7.4579   22.7384 H   0  0  0  0  0  0
  -21.0676   -8.8464   19.8889 H   0  0  0  0  0  0
  -22.3418  -10.9336   19.5979 H   0  0  0  0  0  0
  -21.1927   -7.6092   23.9673 H   0  0  0  0  0  0
  -21.1402   -6.0484   25.9108 H   0  0  0  0  0  0
  -22.0670   -2.7513   23.2977 H   0  0  0  0  0  0
  -22.3246  -11.9511   22.5117 H   0  0  0  0  0  0
  -20.9789  -13.0281   22.3111 H   0  0  0  0  0  0
  -24.2876  -15.8308   20.6243 H   0  0  0  0  0  0
  -25.8772  -15.7371   20.0322 H   0  0  0  0  0  0
  -26.7112  -32.5520   23.1141 H   0  0  0  0  0  0
  -24.9965  -33.9771   25.0413 H   0  0  0  0  0  0
  -22.6930  -31.3130   21.4163 H   0  0  0  0  0  0
  -23.3770  -35.9625   23.3295 H   0  0  0  0  0  0
  -24.3601  -36.8921   22.2053 H   0  0  0  0  0  0
  -23.7227  -37.6500   23.6651 H   0  0  0  0  0  0
  -26.0618  -31.6004   20.6052 H   0  0  0  0  0  0
  -26.8219  -30.8694   21.9920 H   0  0  0  0  0  0
  -28.1054  -29.0873   21.1370 H   0  0  0  0  0  0
  -25.9708  -25.9993   18.9718 H   0  0  0  0  0  0
  -23.9511  -27.3198   19.0350 H   0  0  0  0  0  0
  -23.7094  -30.6054   19.4072 H   0  0  0  0  0  0
  -22.7322  -29.2480   19.8772 H   0  0  0  0  0  0
  -25.1287  -36.1976   25.0842 H   0  0  0  0  0  0
  -20.9957  -28.3205   24.1442 H   0  0  0  0  0  0
  -20.5642  -26.2258   23.3603 H   0  0  0  0  0  0
  -21.6635  -26.7416   22.1225 H   0  0  0  0  0  0
  -19.6911  -25.6311   21.1197 H   0  0  0  0  0  0
  -19.6680  -27.3230   20.6756 H   0  0  0  0  0  0
  -17.4197  -26.6668   21.4023 H   0  0  0  0  0  0
  -18.0338  -26.0042   22.9002 H   0  0  0  0  0  0
  -19.7934  -30.7238   24.2309 H   0  0  0  0  0  0
  -17.5010  -31.6248   24.5152 H   0  0  0  0  0  0
  -15.5351  -30.2972   23.7628 H   0  0  0  0  0  0
  -15.8673  -28.0799   22.7058 H   0  0  0  0  0  0
  -24.5910  -30.7040   25.7797 H   0  0  0  0  0  0
  -24.8934  -32.2833   26.4941 H   0  0  0  0  0  0
  -25.8105  -30.8831   27.0202 H   0  0  0  0  0  0
  -26.2799  -29.6804   24.1146 H   0  0  0  0  0  0
  -27.4069  -29.7246   25.4504 H   0  0  0  0  0  0
  -27.8632  -30.4338   23.9194 H   0  0  0  0  0  0
  -27.2681  -33.3600   26.2048 H   0  0  0  0  0  0
  -28.3817  -32.6891   25.0218 H   0  0  0  0  0  0
  -28.0780  -31.8416   26.5314 H   0  0  0  0  0  0
  -28.2625  -38.0093   24.7517 H   0  0  0  0  0  0
  -28.1078  -36.2622   24.6291 H   0  0  0  0  0  0
  -27.2320  -37.1450   25.8884 H   0  0  0  0  0  0
  -20.9317  -29.8727   21.6930 H   0  0  0  0  0  0
  -26.0193  -38.2885   24.1414 H   0  0  0  0  0  0
  -30.4384  -22.5114   19.8298 H   0  0  0  0  0  0
  -29.0031  -22.7501   18.8642 H   0  0  0  0  0  0
  -26.6549  -23.0272   20.1930 H   0  0  0  0  0  0
  -26.6721  -22.8193   21.9265 H   0  0  0  0  0  0
  -30.1692  -24.8798   19.0585 H   0  0  0  0  0  0
  -30.2306  -24.7823   20.8039 H   0  0  0  0  0  0
  -28.0858  -24.8877   22.1490 H   0  0  0  0  0  0
  -26.5481  -25.1705   21.3788 H   0  0  0  0  0  0
  -27.4180  -16.3080   20.8906 H   0  0  0  0  0  0
  -28.6529  -15.5100   21.7775 H   0  0  0  0  0  0
  -30.1951  -17.3716   21.4171 H   0  0  0  0  0  0
  -28.7107  -17.7431   22.2664 H   0  0  0  0  0  0
  -28.3693  -18.8926   18.2854 H   0  0  0  0  0  0
  -29.9380  -18.1791   18.5912 H   0  0  0  0  0  0
  -29.8608  -16.1391   19.5479 H   0  0  0  0  0  0
  -29.1045  -22.4052   21.8961 H   0  0  0  0  0  0
  -27.2369  -16.7062   18.7296 H   0  0  0  0  0  0
  -27.7442  -24.9708   19.0942 H   0  0  0  0  0  0
  -31.3193  -15.6151   16.1943 H   0  0  0  0  0  0
  -30.0810  -15.3053   14.9939 H   0  0  0  0  0  0
  -31.4213  -14.1871   15.2305 H   0  0  0  0  0  0
  -28.0890  -10.6730   20.7860 H   0  0  0  0  0  0
  -29.0517   -9.8183   19.6834 H   0  0  0  0  0  0
  -27.4079  -10.2341   19.3186 H   0  0  0  0  0  0
  -29.3084  -13.3741   14.2166 H   0  0  0  0  0  0
  -28.2000  -12.0755   14.4924 H   0  0  0  0  0  0
  -29.9409  -11.7493   14.4835 H   0  0  0  0  0  0
  -29.2095   -9.4827   16.5229 H   0  0  0  0  0  0
  -27.8708  -10.2416   15.6690 H   0  0  0  0  0  0
  -27.6118   -9.6012   17.2542 H   0  0  0  0  0  0
  -29.2322  -16.9885   16.4710 H   0  0  0  0  0  0
  -27.5411  -17.3685   16.5701 H   0  0  0  0  0  0
  -28.0209  -15.7574   16.3627 H   0  0  0  0  0  0
  -27.6409  -20.8431   19.7043 H   0  0  0  0  0  0
  -27.4290  -20.6053   21.4197 H   0  0  0  0  0  0
  -29.6703  -19.8347   21.7077 H   0  0  0  0  0  0
  -30.1129  -20.1233   20.0415 H   0  0  0  0  0  0
  -27.7227  -18.6165   20.4382 H   0  0  0  0  0  0
  1 25  1  0  0  0
  1 30  2  0  0  0
  1 71  1  0  0  0
  2  3  1  0  0  0
  2 25  1  0  0  0
  2 96  1  0  0  0
  2 97  1  0  0  0
  3  4  1  0  0  0
  3 98  1  0  0  0
  3 99  1  0  0  0
  4  5  1  0  0  0
  4100  1  0  0  0
  4101  1  0  0  0
  5  6  1  0  0  0
  5 26  1  0  0  0
  5102  1  0  0  0
  6 25  1  0  0  0
  6103  1  0  0  0
  6104  1  0  0  0
  7  8  2  0  0  0
  7 26  1  0  0  0
  7 29  1  0  0  0
  8  9  1  0  0  0
  8 22  1  0  0  0
  9 10  1  0  0  0
  9 27  2  0  0  0
 10 11  2  0  0  0
 10 15  1  0  0  0
 11 12  1  0  0  0
 11105  1  0  0  0
 12 13  2  0  0  0
 12106  1  0  0  0
 13 14  1  0  0  0
 13 31  1  0  0  0
 14 15  2  0  0  0
 14107  1  0  0  0
 15108  1  0  0  0
 16 17  2  0  0  0
 16 21  1  0  0  0
 16 31  1  0  0  0
 17 18  1  0  0  0
 17109  1  0  0  0
 18 19  2  0  0  0
 18110  1  0  0  0
 19 20  1  0  0  0
 19 24  1  0  0  0
 20 21  2  0  0  0
 20111  1  0  0  0
 21 23  1  0  0  0
 22 28  1  0  0  0
 22 32  2  0  0  0
 26 27  1  0  0  0
 28112  1  0  0  0
 28113  1  0  0  0
 29114  1  0  0  0
 29115  1  0  0  0
 33 34  1  0  0  0
 33 66  1  0  0  0
 33 70  2  0  0  0
 34 36  1  0  0  0
 34 59  1  0  0  0
 34116  1  0  0  0
 35 44  2  0  0  0
 35 45  1  0  0  0
 35 68  1  0  0  0
 36 56  1  0  0  0
 36117  1  0  0  0
 37 39  1  0  0  0
 37 47  1  0  0  0
 37 66  1  0  0  0
 37118  1  0  0  0
 38 43  2  0  0  0
 38 46  1  0  0  0
 38 47  1  0  0  0
 39 64  1  0  0  0
 39 67  2  0  0  0
 40 52  1  0  0  0
 40 53  2  0  0  0
 40 58  1  0  0  0
 41119  1  0  0  0
 41120  1  0  0  0
 41121  1  0  0  0
 41 48  1  0  0  0
 42 43  1  0  0  0
 42 66  1  0  0  0
 42122  1  0  0  0
 42123  1  0  0  0
 43 44  1  0  0  0
 44124  1  0  0  0
 45 46  2  0  0  0
 45125  1  0  0  0
 46126  1  0  0  0
 47127  1  0  0  0
 47128  1  0  0  0
 48 56  1  0  0  0
 48 65  1  0  0  0
 48129  1  0  0  0
 49 50  1  0  0  0
 49 53  1  0  0  0
 49 64  1  0  0  0
 49130  1  0  0  0
 50 51  1  0  0  0
 50131  1  0  0  0
 50132  1  0  0  0
 51 52  1  0  0  0
 51133  1  0  0  0
 51134  1  0  0  0
 52135  1  0  0  0
 52136  1  0  0  0
 53 54  1  0  0  0
 54 55  2  0  0  0
 54137  1  0  0  0
 55 57  1  0  0  0
 55138  1  0  0  0
 56 69  2  0  0  0
 57 58  2  0  0  0
 57139  1  0  0  0
 58140  1  0  0  0
 59 60  1  0  0  0
 59 61  1  0  0  0
 59 62  1  0  0  0
 60141  1  0  0  0
 60142  1  0  0  0
 60143  1  0  0  0
 61144  1  0  0  0
 61145  1  0  0  0
 61146  1  0  0  0
 62147  1  0  0  0
 62148  1  0  0  0
 62149  1  0  0  0
 63 65  1  0  0  0
 63150  1  0  0  0
 63151  1  0  0  0
 63152  1  0  0  0
 64153  1  0  0  0
 65154  1  0  0  0
 68 87  1  0  0  0
 71 72  1  0  0  0
 71 73  2  0  0  0
 72 74  2  0  0  0
 72 84  1  0  0  0
 73 75  1  0  0  0
 73 88  1  0  0  0
 74 76  1  0  0  0
 74 89  1  0  0  0
 75 76  2  0  0  0
 75 90  1  0  0  0
 76 91  1  0  0  0
 77 79  1  0  0  0
 77 85  1  0  0  0
 77155  1  0  0  0
 77156  1  0  0  0
 78 80  1  0  0  0
 78 85  1  0  0  0
 78157  1  0  0  0
 78158  1  0  0  0
 79 87  1  0  0  0
 79159  1  0  0  0
 79160  1  0  0  0
 80 87  1  0  0  0
 80161  1  0  0  0
 80162  1  0  0  0
 81 82  1  0  0  0
 81 84  1  0  0  0
 81163  1  0  0  0
 81164  1  0  0  0
 82 95  1  0  0  0
 82165  1  0  0  0
 82166  1  0  0  0
 83 86  1  0  0  0
 83 95  1  0  0  0
 83167  1  0  0  0
 83168  1  0  0  0
 84 86  1  0  0  0
 84169  1  0  0  0
 85 93  1  0  0  0
 85170  1  0  0  0
 86 92  1  0  0  0
 86171  1  0  0  0
 87172  1  0  0  0
 88173  1  0  0  0
 88174  1  0  0  0
 88175  1  0  0  0
 89176  1  0  0  0
 89177  1  0  0  0
 89178  1  0  0  0
 90179  1  0  0  0
 90180  1  0  0  0
 90181  1  0  0  0
 91182  1  0  0  0
 91183  1  0  0  0
 91184  1  0  0  0
 92185  1  0  0  0
 92186  1  0  0  0
 92187  1  0  0  0
 93 94  1  0  0  0
 93188  1  0  0  0
 93189  1  0  0  0
 94190  1  0  0  0
 94191  1  0  0  0
 94 95  1  0  0  0
 95192  1  0  0  0
M  CHG  1  95   1
M  ISO  4   1 100  68 101  71 100  87 101
M  END
> <chiral flag>
0

> <version>
0

> <s_m_source_file>
/data/baiqing/PycharmProjects/Reinvent-master-3.2/result/LINK_invent/BTK/process_docking_weight1_custom_sum_contain_oxygen_bond_distance_aromatic_linkinvent_7_9_3/rearranged_h_0163.sdf

> <i_m_source_file_index>
2

> <r_mmod_Potential_Energy-OPLS-2005>
11232.4765625

> <r_mmod_Stretch_Energy-OPLS-2005>
6328.142578125

> <r_mmod_Bend_Energy-OPLS-2005>
1161.98315429688

> <r_mmod_Torsional_Energy-OPLS-2005>
568.755187988281

> <r_mmod_Improper_Torsional_Energy-OPLS-2005>
41.8246841430664

> <r_mmod_Van_der_Waal_Energy-OPLS-2005>
3137.0234375

> <r_mmod_Electrostatic_Energy-OPLS-2005>
-183.051895141602

> <r_mmod_Solvation_Energy-OPLS-2005>
-408.835113525391

> <b_mmod_Minimization_Converged-OPLS-2005>
0

> <r_mmod_RMS_Derivative-OPLS-2005>
17.1496963500977

$$$$
2
                    3D
 Structure written by MMmdl.
166175  0  0  1  0            999 V2000
  -30.6522  -14.7282   20.4540 C   0  0  0  0  0  0
  -30.4172  -12.4462   19.4716 C   0  0  0  0  0  0
  -29.5013  -12.5013   18.2316 C   0  0  0  0  0  0
  -28.0304  -12.3272   18.6510 C   0  0  0  0  0  0
  -27.6368  -13.2367   19.8462 C   0  0  2  0  0  0
  -28.6825  -13.1973   20.9808 C   0  0  0  0  0  0
  -25.2503  -13.8217   20.5712 C   0  0  0  0  0  0
  -24.1790  -13.0452   20.9209 C   0  0  0  0  0  0
  -24.6390  -11.6931   20.8751 C   0  0  0  0  0  0
  -23.9078  -10.4299   21.0415 C   0  0  0  0  0  0
  -24.3627   -9.4208   21.9189 C   0  0  0  0  0  0
  -23.6302   -8.2244   22.0753 C   0  0  0  0  0  0
  -22.4284   -8.0285   21.3545 C   0  0  0  0  0  0
  -21.9925   -9.0261   20.4647 C   0  0  0  0  0  0
  -22.7253  -10.2140   20.3061 C   0  0  0  0  0  0
  -21.6852   -6.0739   22.5279 C   0  0  0  0  0  0
  -21.4010   -6.5640   23.8213 C   0  0  0  0  0  0
  -21.3662   -5.6793   24.9176 C   0  0  0  0  0  0
  -21.6047   -4.3057   24.7226 C   0  0  0  0  0  0
  -21.8816   -3.8148   23.4348 C   0  0  0  0  0  0
  -21.9191   -4.6966   22.3403 C   0  0  0  0  0  0
  -22.7811  -13.5225   21.1875 C   0  0  0  0  0  0
  -22.1656   -4.2150   21.0982 F   0  0  0  0  0  0
  -21.5636   -3.4541   25.7741 F   0  0  0  0  0  0
  -29.9810  -13.5273   20.3860 N   0  0  0  0  0  0
  -26.2920  -12.9426   20.3298 N   0  0  0  0  0  0
  -25.9322  -11.6564   20.5770 N   0  0  0  0  0  0
  -22.0467  -12.8200   22.0427 N   0  0  0  0  0  0
  -25.4245  -15.1936   20.4154 N   0  0  0  0  0  0
  -31.8537  -14.7609   20.1682 O   0  0  0  0  0  0
  -21.6642   -6.8884   21.4244 O   0  0  0  0  0  0
  -22.3496  -14.5539   20.6742 O   0  0  0  0  0  0
  -24.6309  -31.8555   23.1994 C   0  0  0  0  0  0
  -25.9134  -32.4754   23.8344 C   0  0  1  0  0  0
  -27.2190  -27.2767   20.1251 C   0  0  0  0  0  0
  -25.5943  -33.8554   24.2272 N   0  0  0  0  0  0
  -23.4279  -30.4771   21.5426 C   0  0  2  0  0  0
  -24.8773  -28.9271   20.1108 C   0  0  0  0  0  0
  -22.7500  -29.4596   22.4921 C   0  0  0  0  0  0
  -18.0286  -28.1389   22.8483 C   0  0  0  0  0  0
  -24.1486  -36.7269   23.2633 C   0  0  0  0  0  0
  -25.9733  -30.7729   21.3789 C   0  0  0  0  0  0
  -26.0495  -29.3970   20.7195 C   0  0  0  0  0  0
  -27.2283  -28.5838   20.7162 C   0  0  0  0  0  0
  -26.0298  -26.8715   19.4868 C   0  0  0  0  0  0
  -24.8711  -27.6710   19.4840 C   0  0  0  0  0  0
  -23.6458  -29.8101   20.1596 C   0  0  0  0  0  0
  -25.4109  -36.3060   24.0328 C   0  0  1  0  0  0
  -20.5892  -28.3697   23.1268 C   0  0  2  0  0  0
  -20.6772  -26.9414   22.5410 C   0  0  0  0  0  0
  -19.5752  -26.6379   21.5211 C   0  0  0  0  0  0
  -18.1925  -26.7932   22.1612 C   0  0  0  0  0  0
  -19.1544  -28.8859   23.2866 C   0  0  0  0  0  0
  -18.9463  -30.1459   23.8887 C   0  0  0  0  0  0
  -17.6464  -30.6588   24.0558 C   0  0  0  0  0  0
  -25.9059  -34.9436   23.5101 C   0  0  0  0  0  0
  -16.5352  -29.9083   23.6341 C   0  0  0  0  0  0
  -16.7273  -28.6500   23.0363 C   0  0  0  0  0  0
  -26.4505  -31.6577   25.0731 C   0  0  0  0  0  0
  -25.3726  -31.3732   26.1451 C   0  0  0  0  0  0
  -27.0349  -30.2985   24.6226 C   0  0  0  0  0  0
  -27.6072  -32.4306   25.7495 C   0  0  0  0  0  0
  -27.5592  -37.1766   24.8443 C   0  0  0  0  0  0
  -21.4209  -29.3043   22.3661 N   0  0  0  0  0  0
  -26.4272  -37.3775   23.9435 N   0  0  0  0  0  0
  -24.6961  -31.0527   22.0965 N   0  0  0  0  0  0
  -23.4196  -28.8140   23.3021 O   0  0  0  0  0  0
  -28.2787  -26.3474   20.1480 O   0  0  0  0  0  0
  -26.5626  -34.8909   22.4670 O   0  0  0  0  0  0
  -23.5461  -32.1374   23.7291 O   0  0  0  0  0  0
  -27.7178  -22.5569   21.2168 C   0  0  0  0  0  0
  -29.1712  -20.6830   20.4100 C   0  0  0  0  0  0
  -28.0480  -21.1656   21.1518 C   0  0  0  0  0  0
  -28.4467  -23.6017   20.5855 C   0  0  0  0  0  0
  -29.8727  -21.7240   19.6908 C   0  0  0  0  0  0
  -29.5548  -23.1408   19.8103 C   0  0  0  0  0  0
  -29.7747  -18.3309   21.7291 C   0  0  0  0  0  0
  -28.9324  -18.1126   19.4709 C   0  0  0  0  0  0
  -30.4896  -16.9212   21.5995 C   0  0  0  0  0  0
  -29.6391  -16.6938   19.3538 C   0  0  0  0  0  0
  -29.6582  -19.1328   20.3964 C   0  0  0  0  0  0
  -27.1512  -20.2216   21.9324 C   0  0  0  0  0  0
  -31.0110  -21.3094   18.7603 C   0  0  0  0  0  0
  -30.4257  -24.1868   19.1230 C   0  0  0  0  0  0
  -28.0177  -25.1083   20.9456 C   0  0  0  0  0  0
  -29.9557  -15.9334   20.6067 N   0  0  0  0  0  0
  -31.4612  -12.5454   19.1704 H   0  0  0  0  0  0
  -30.3402  -11.4760   19.9647 H   0  0  0  0  0  0
  -29.7806  -11.7250   17.5178 H   0  0  0  0  0  0
  -29.6300  -13.4545   17.7160 H   0  0  0  0  0  0
  -27.8925  -11.2810   18.9257 H   0  0  0  0  0  0
  -27.3689  -12.5072   17.8027 H   0  0  0  0  0  0
  -27.6233  -14.2540   19.4554 H   0  0  0  0  0  0
  -28.7133  -12.2140   21.4528 H   0  0  0  0  0  0
  -28.4239  -13.9122   21.7641 H   0  0  0  0  0  0
  -25.2771   -9.5681   22.4767 H   0  0  0  0  0  0
  -24.0011   -7.4633   22.7469 H   0  0  0  0  0  0
  -21.0858   -8.8783   19.8950 H   0  0  0  0  0  0
  -22.3715  -10.9684   19.6173 H   0  0  0  0  0  0
  -21.1992   -7.6146   23.9718 H   0  0  0  0  0  0
  -21.1489   -6.0523   25.9082 H   0  0  0  0  0  0
  -22.0590   -2.7611   23.2850 H   0  0  0  0  0  0
  -22.4092  -11.9854   22.4790 H   0  0  0  0  0  0
  -21.1093  -13.1223   22.2655 H   0  0  0  0  0  0
  -24.6699  -15.8592   20.5388 H   0  0  0  0  0  0
  -26.2949  -15.6286   20.1358 H   0  0  0  0  0  0
  -26.7204  -32.5410   23.1093 H   0  0  0  0  0  0
  -25.0111  -33.9697   25.0434 H   0  0  0  0  0  0
  -22.7234  -31.2985   21.3951 H   0  0  0  0  0  0
  -23.3782  -35.9562   23.3212 H   0  0  0  0  0  0
  -24.3601  -36.8981   22.2067 H   0  0  0  0  0  0
  -23.7184  -37.6421   23.6713 H   0  0  0  0  0  0
  -26.1122  -31.5360   20.6124 H   0  0  0  0  0  0
  -26.8490  -30.8197   22.0140 H   0  0  0  0  0  0
  -28.1261  -28.9346   21.2061 H   0  0  0  0  0  0
  -25.9895  -25.9018   19.0102 H   0  0  0  0  0  0
  -23.9731  -27.3056   19.0046 H   0  0  0  0  0  0
  -23.7654  -30.5846   19.4012 H   0  0  0  0  0  0
  -22.7658  -29.2394   19.8581 H   0  0  0  0  0  0
  -25.1283  -36.1897   25.0818 H   0  0  0  0  0  0
  -20.9980  -28.3276   24.1390 H   0  0  0  0  0  0
  -20.5673  -26.2309   23.3618 H   0  0  0  0  0  0
  -21.6638  -26.7431   22.1207 H   0  0  0  0  0  0
  -19.6913  -25.6287   21.1249 H   0  0  0  0  0  0
  -19.6699  -27.3178   20.6733 H   0  0  0  0  0  0
  -17.4206  -26.6697   21.3997 H   0  0  0  0  0  0
  -18.0305  -26.0063   22.8994 H   0  0  0  0  0  0
  -19.7940  -30.7274   24.2255 H   0  0  0  0  0  0
  -17.5019  -31.6275   24.5154 H   0  0  0  0  0  0
  -15.5357  -30.2983   23.7674 H   0  0  0  0  0  0
  -15.8669  -28.0814   22.7100 H   0  0  0  0  0  0
  -24.5893  -30.7095   25.7767 H   0  0  0  0  0  0
  -24.8929  -32.2908   26.4867 H   0  0  0  0  0  0
  -25.8032  -30.8904   27.0231 H   0  0  0  0  0  0
  -26.2933  -29.6724   24.1243 H   0  0  0  0  0  0
  -27.4009  -29.7256   25.4757 H   0  0  0  0  0  0
  -27.8825  -30.4242   23.9483 H   0  0  0  0  0  0
  -27.2708  -33.3630   26.2037 H   0  0  0  0  0  0
  -28.3902  -32.6818   25.0329 H   0  0  0  0  0  0
  -28.0713  -31.8442   26.5438 H   0  0  0  0  0  0
  -28.2524  -38.0145   24.7618 H   0  0  0  0  0  0
  -28.1177  -36.2688   24.6106 H   0  0  0  0  0  0
  -27.2337  -37.1211   25.8844 H   0  0  0  0  0  0
  -20.9397  -29.8776   21.6874 H   0  0  0  0  0  0
  -26.0144  -38.2828   24.1516 H   0  0  0  0  0  0
  -26.8723  -22.8458   21.8261 H   0  0  0  0  0  0
  -30.3258  -18.9341   22.4516 H   0  0  0  0  0  0
  -28.7932  -18.1626   22.1658 H   0  0  0  0  0  0
  -27.9053  -17.9720   19.8077 H   0  0  0  0  0  0
  -28.8562  -18.5401   18.4707 H   0  0  0  0  0  0
  -30.4838  -16.4439   22.5806 H   0  0  0  0  0  0
  -31.5421  -17.1013   21.3717 H   0  0  0  0  0  0
  -30.5747  -16.8339   18.8078 H   0  0  0  0  0  0
  -29.0284  -16.0550   18.7140 H   0  0  0  0  0  0
  -30.6903  -19.1609   20.0540 H   0  0  0  0  0  0
  -26.1833  -20.6786   22.1398 H   0  0  0  0  0  0
  -27.6076  -19.9743   22.8908 H   0  0  0  0  0  0
  -26.9515  -19.3040   21.3823 H   0  0  0  0  0  0
  -30.7896  -20.3695   18.2560 H   0  0  0  0  0  0
  -31.9396  -21.1952   19.3204 H   0  0  0  0  0  0
  -31.1800  -22.0189   17.9521 H   0  0  0  0  0  0
  -30.3985  -25.1419   19.6439 H   0  0  0  0  0  0
  -30.0904  -24.3491   18.0983 H   0  0  0  0  0  0
  -31.4760  -23.8983   19.1037 H   0  0  0  0  0  0
  -28.4811  -25.3035   21.9131 H   0  0  0  0  0  0
  -26.9518  -25.0611   21.1726 H   0  0  0  0  0  0
  1 25  1  0  0  0
  1 30  2  0  0  0
  1 86  1  0  0  0
  2  3  1  0  0  0
  2 25  1  0  0  0
  2 87  1  0  0  0
  2 88  1  0  0  0
  3  4  1  0  0  0
  3 89  1  0  0  0
  3 90  1  0  0  0
  4  5  1  0  0  0
  4 91  1  0  0  0
  4 92  1  0  0  0
  5  6  1  0  0  0
  5 26  1  0  0  0
  5 93  1  0  0  0
  6 25  1  0  0  0
  6 94  1  0  0  0
  6 95  1  0  0  0
  7  8  2  0  0  0
  7 26  1  0  0  0
  7 29  1  0  0  0
  8  9  1  0  0  0
  8 22  1  0  0  0
  9 10  1  0  0  0
  9 27  2  0  0  0
 10 11  2  0  0  0
 10 15  1  0  0  0
 11 12  1  0  0  0
 11 96  1  0  0  0
 12 13  2  0  0  0
 12 97  1  0  0  0
 13 14  1  0  0  0
 13 31  1  0  0  0
 14 15  2  0  0  0
 14 98  1  0  0  0
 15 99  1  0  0  0
 16 17  2  0  0  0
 16 21  1  0  0  0
 16 31  1  0  0  0
 17 18  1  0  0  0
 17100  1  0  0  0
 18 19  2  0  0  0
 18101  1  0  0  0
 19 20  1  0  0  0
 19 24  1  0  0  0
 20 21  2  0  0  0
 20102  1  0  0  0
 21 23  1  0  0  0
 22 28  1  0  0  0
 22 32  2  0  0  0
 26 27  1  0  0  0
 28103  1  0  0  0
 28104  1  0  0  0
 29105  1  0  0  0
 29106  1  0  0  0
 33 34  1  0  0  0
 33 66  1  0  0  0
 33 70  2  0  0  0
 34 36  1  0  0  0
 34 59  1  0  0  0
 34107  1  0  0  0
 35 44  2  0  0  0
 35 45  1  0  0  0
 35 68  1  0  0  0
 36 56  1  0  0  0
 36108  1  0  0  0
 37 39  1  0  0  0
 37 47  1  0  0  0
 37 66  1  0  0  0
 37109  1  0  0  0
 38 43  2  0  0  0
 38 46  1  0  0  0
 38 47  1  0  0  0
 39 64  1  0  0  0
 39 67  2  0  0  0
 40 52  1  0  0  0
 40 53  2  0  0  0
 40 58  1  0  0  0
 41110  1  0  0  0
 41111  1  0  0  0
 41112  1  0  0  0
 41 48  1  0  0  0
 42 43  1  0  0  0
 42 66  1  0  0  0
 42113  1  0  0  0
 42114  1  0  0  0
 43 44  1  0  0  0
 44115  1  0  0  0
 45 46  2  0  0  0
 45116  1  0  0  0
 46117  1  0  0  0
 47118  1  0  0  0
 47119  1  0  0  0
 48 56  1  0  0  0
 48 65  1  0  0  0
 48120  1  0  0  0
 49 50  1  0  0  0
 49 53  1  0  0  0
 49 64  1  0  0  0
 49121  1  0  0  0
 50 51  1  0  0  0
 50122  1  0  0  0
 50123  1  0  0  0
 51 52  1  0  0  0
 51124  1  0  0  0
 51125  1  0  0  0
 52126  1  0  0  0
 52127  1  0  0  0
 53 54  1  0  0  0
 54 55  2  0  0  0
 54128  1  0  0  0
 55 57  1  0  0  0
 55129  1  0  0  0
 56 69  2  0  0  0
 57 58  2  0  0  0
 57130  1  0  0  0
 58131  1  0  0  0
 59 60  1  0  0  0
 59 61  1  0  0  0
 59 62  1  0  0  0
 60132  1  0  0  0
 60133  1  0  0  0
 60134  1  0  0  0
 61135  1  0  0  0
 61136  1  0  0  0
 61137  1  0  0  0
 62138  1  0  0  0
 62139  1  0  0  0
 62140  1  0  0  0
 63 65  1  0  0  0
 63141  1  0  0  0
 63142  1  0  0  0
 63143  1  0  0  0
 64144  1  0  0  0
 65145  1  0  0  0
 68 85  1  0  0  0
 71 73  2  0  0  0
 71 74  1  0  0  0
 71146  1  0  0  0
 72 73  1  0  0  0
 72 75  2  0  0  0
 72 81  1  0  0  0
 73 82  1  0  0  0
 74 76  2  0  0  0
 74 85  1  0  0  0
 75 76  1  0  0  0
 75 83  1  0  0  0
 76 84  1  0  0  0
 77 79  1  0  0  0
 77 81  1  0  0  0
 77147  1  0  0  0
 77148  1  0  0  0
 78 80  1  0  0  0
 78 81  1  0  0  0
 78149  1  0  0  0
 78150  1  0  0  0
 79 86  1  0  0  0
 79151  1  0  0  0
 79152  1  0  0  0
 80 86  1  0  0  0
 80153  1  0  0  0
 80154  1  0  0  0
 81155  1  0  0  0
 82156  1  0  0  0
 82157  1  0  0  0
 82158  1  0  0  0
 83159  1  0  0  0
 83160  1  0  0  0
 83161  1  0  0  0
 84162  1  0  0  0
 84163  1  0  0  0
 84164  1  0  0  0
 85165  1  0  0  0
 85166  1  0  0  0
M  ISO  4   1 100  68 101  85 101  86 100
M  END
> <chiral flag>
0

> <version>
0

> <s_m_source_file>
/data/baiqing/PycharmProjects/Reinvent-master-3.2/result/LINK_invent/BTK/process_docking_weight1_custom_sum_contain_oxygen_bond_distance_aromatic_linkinvent_7_9_3/rearranged_h_0163.sdf

> <i_m_source_file_index>
3

> <r_mmod_Potential_Energy-OPLS-2005>
446.351623535156

> <r_mmod_Stretch_Energy-OPLS-2005>
124.27417755127

> <r_mmod_Bend_Energy-OPLS-2005>
205.510818481445

> <r_mmod_Torsional_Energy-OPLS-2005>
358.532348632812

> <r_mmod_Improper_Torsional_Energy-OPLS-2005>
10.4083204269409

> <r_mmod_Van_der_Waal_Energy-OPLS-2005>
151.095321655273

> <r_mmod_Electrostatic_Energy-OPLS-2005>
-299.850402832031

> <r_mmod_Solvation_Energy-OPLS-2005>
-187.347534179688

> <b_mmod_Minimization_Converged-OPLS-2005>
0

> <r_mmod_RMS_Derivative-OPLS-2005>
1.20266628265381

$$$$
3
                    3D
 Structure written by MMmdl.
187198  0  0  1  0            999 V2000
  -30.7160  -14.4488   20.5277 C   0  0  0  0  0  0
  -30.4105  -12.2772   19.4323 C   0  0  0  0  0  0
  -29.4946  -12.4881   18.2106 C   0  0  0  0  0  0
  -28.0117  -12.3605   18.6166 C   0  0  0  0  0  0
  -27.6563  -13.2096   19.8699 C   0  0  2  0  0  0
  -28.6984  -13.0090   20.9953 C   0  0  0  0  0  0
  -25.2548  -13.8209   20.5671 C   0  0  0  0  0  0
  -24.1801  -13.0463   20.9197 C   0  0  0  0  0  0
  -24.6369  -11.6941   20.8761 C   0  0  0  0  0  0
  -23.9039  -10.4312   21.0416 C   0  0  0  0  0  0
  -24.3588   -9.4225   21.9182 C   0  0  0  0  0  0
  -23.6275   -8.2255   22.0748 C   0  0  0  0  0  0
  -22.4257   -8.0284   21.3539 C   0  0  0  0  0  0
  -21.9894   -9.0259   20.4640 C   0  0  0  0  0  0
  -22.7218  -10.2146   20.3055 C   0  0  0  0  0  0
  -21.6854   -6.0725   22.5281 C   0  0  0  0  0  0
  -21.4015   -6.5629   23.8213 C   0  0  0  0  0  0
  -21.3661   -5.6781   24.9179 C   0  0  0  0  0  0
  -21.6048   -4.3048   24.7236 C   0  0  0  0  0  0
  -21.8815   -3.8134   23.4358 C   0  0  0  0  0  0
  -21.9191   -4.6949   22.3409 C   0  0  0  0  0  0
  -22.7809  -13.5247   21.1876 C   0  0  0  0  0  0
  -22.1646   -4.2130   21.0985 F   0  0  0  0  0  0
  -21.5639   -3.4533   25.7749 F   0  0  0  0  0  0
  -30.0294  -13.2818   20.4314 N   0  0  0  0  0  0
  -26.2986  -12.9373   20.3352 N   0  0  0  0  0  0
  -25.9294  -11.6537   20.5780 N   0  0  0  0  0  0
  -22.0446  -12.8216   22.0437 N   0  0  0  0  0  0
  -25.4271  -15.1925   20.4051 N   0  0  0  0  0  0
  -31.8927  -14.5576   20.1824 O   0  0  0  0  0  0
  -21.6634   -6.8869   21.4235 O   0  0  0  0  0  0
  -22.3470  -14.5538   20.6735 O   0  0  0  0  0  0
  -24.6132  -31.8698   23.2114 C   0  0  0  0  0  0
  -25.9034  -32.4826   23.8417 C   0  0  1  0  0  0
  -27.2281  -27.4344   20.0712 C   0  0  0  0  0  0
  -25.5909  -33.8631   24.2332 N   0  0  0  0  0  0
  -23.3987  -30.4953   21.5554 C   0  0  2  0  0  0
  -24.8379  -28.9629   20.1167 C   0  0  0  0  0  0
  -22.7409  -29.4626   22.5009 C   0  0  0  0  0  0
  -18.0254  -28.1392   22.8443 C   0  0  0  0  0  0
  -24.1482  -36.7313   23.2641 C   0  0  0  0  0  0
  -25.9299  -30.8312   21.3636 C   0  0  0  0  0  0
  -26.0017  -29.4671   20.7079 C   0  0  0  0  0  0
  -27.1973  -28.7127   20.6789 C   0  0  0  0  0  0
  -26.0348  -26.9382   19.4952 C   0  0  0  0  0  0
  -24.8491  -27.6949   19.5132 C   0  0  0  0  0  0
  -23.6039  -29.8376   20.1666 C   0  0  0  0  0  0
  -25.4110  -36.3116   24.0338 C   0  0  1  0  0  0
  -20.5850  -28.3636   23.1318 C   0  0  2  0  0  0
  -20.6764  -26.9371   22.5419 C   0  0  0  0  0  0
  -19.5744  -26.6376   21.5215 C   0  0  0  0  0  0
  -18.1906  -26.7933   22.1606 C   0  0  0  0  0  0
  -19.1512  -28.8833   23.2869 C   0  0  0  0  0  0
  -18.9448  -30.1441   23.8875 C   0  0  0  0  0  0
  -17.6451  -30.6584   24.0541 C   0  0  0  0  0  0
  -25.9036  -34.9487   23.5133 C   0  0  0  0  0  0
  -16.5336  -29.9083   23.6329 C   0  0  0  0  0  0
  -16.7242  -28.6519   23.0308 C   0  0  0  0  0  0
  -26.4468  -31.6614   25.0753 C   0  0  0  0  0  0
  -25.3741  -31.3723   26.1510 C   0  0  0  0  0  0
  -27.0306  -30.3069   24.6124 C   0  0  0  0  0  0
  -27.6051  -32.4339   25.7502 C   0  0  0  0  0  0
  -27.5577  -37.1810   24.8463 C   0  0  0  0  0  0
  -21.4144  -29.3011   22.3741 N   0  0  0  0  0  0
  -26.4296  -37.3802   23.9404 N   0  0  0  0  0  0
  -24.6659  -31.0795   22.1015 N   0  0  0  0  0  0
  -23.4203  -28.8170   23.3031 O   0  0  0  0  0  0
  -28.4312  -26.7491   20.0420 O   0  0  0  0  0  0
  -26.5574  -34.8928   22.4679 O   0  0  0  0  0  0
  -23.5325  -32.1474   23.7498 O   0  0  0  0  0  0
  -29.5083  -24.8588   22.1418 C   0  0  0  0  0  0
  -28.0837  -25.2023   22.4495 C   0  0  0  0  0  0
  -32.8706  -18.5654   20.6872 C   0  0  0  0  0  0
  -31.1805  -20.1104   19.6031 C   0  0  0  0  0  0
  -29.3886  -21.2971   22.7931 C   0  0  0  0  0  0
  -31.8748  -18.7191   19.5251 C   0  0  2  0  0  0
  -32.0869  -18.5574   22.0193 C   0  0  2  0  0  0
  -30.4575  -20.2802   20.9442 C   0  0  2  0  0  0
  -30.2814  -20.1224   23.2732 C   0  0  1  0  0  0
  -30.9547  -17.4522   19.4770 C   0  0  1  0  0  0
  -31.3241  -17.2004   22.0638 C   0  0  2  0  0  0
  -30.3828  -16.9466   20.8552 C   0  0  2  0  0  0
  -29.8005  -21.6218   21.3297 C   0  0  1  0  0  0
  -31.3500  -19.9467   22.1689 C   0  0  1  0  0  0
  -28.4251  -24.5172   21.1284 C   0  0  0  0  0  0
  -30.7987  -20.2843   24.7108 C   0  0  0  0  0  0
  -29.8690  -17.5220   18.3887 C   0  0  0  0  0  0
  -30.7023  -16.8219   23.4237 C   0  0  0  0  0  0
  -32.4659  -21.0230   22.3865 C   0  0  0  0  0  0
  -28.4671  -25.3247   19.8249 C   0  0  0  0  0  0
  -27.8707  -23.0869   20.9325 C   0  0  0  0  0  0
  -29.9681  -15.5264   20.8277 N   0  0  0  0  0  0
  -28.7422  -22.0430   20.4636 O   0  0  0  0  0  0
  -31.4609  -12.3442   19.1436 H   0  0  0  0  0  0
  -30.2793  -11.2754   19.8433 H   0  0  0  0  0  0
  -29.7358  -11.7605   17.4354 H   0  0  0  0  0  0
  -29.6760  -13.4728   17.7772 H   0  0  0  0  0  0
  -27.8103  -11.3057   18.8092 H   0  0  0  0  0  0
  -27.3686  -12.6350   17.7788 H   0  0  0  0  0  0
  -27.6940  -14.2544   19.5611 H   0  0  0  0  0  0
  -28.6649  -11.9855   21.3737 H   0  0  0  0  0  0
  -28.4762  -13.6455   21.8534 H   0  0  0  0  0  0
  -25.2737   -9.5709   22.4738 H   0  0  0  0  0  0
  -24.0000   -7.4648   22.7453 H   0  0  0  0  0  0
  -21.0833   -8.8772   19.8931 H   0  0  0  0  0  0
  -22.3680  -10.9671   19.6149 H   0  0  0  0  0  0
  -21.1995   -7.6135   23.9716 H   0  0  0  0  0  0
  -21.1488   -6.0510   25.9080 H   0  0  0  0  0  0
  -22.0594   -2.7595   23.2871 H   0  0  0  0  0  0
  -22.4030  -11.9868   22.4823 H   0  0  0  0  0  0
  -21.1063  -13.1238   22.2645 H   0  0  0  0  0  0
  -24.6637  -15.8523   20.5106 H   0  0  0  0  0  0
  -26.2792  -15.6293   20.0772 H   0  0  0  0  0  0
  -26.7098  -32.5514   23.1170 H   0  0  0  0  0  0
  -25.0090  -33.9815   25.0495 H   0  0  0  0  0  0
  -22.6852  -31.3123   21.4245 H   0  0  0  0  0  0
  -23.3757  -35.9633   23.3320 H   0  0  0  0  0  0
  -24.3564  -36.8915   22.2051 H   0  0  0  0  0  0
  -23.7235  -37.6526   23.6640 H   0  0  0  0  0  0
  -26.0502  -31.5957   20.5940 H   0  0  0  0  0  0
  -26.8161  -30.8765   21.9847 H   0  0  0  0  0  0
  -28.1013  -29.1083   21.1217 H   0  0  0  0  0  0
  -25.9810  -25.9824   19.0022 H   0  0  0  0  0  0
  -23.9540  -27.2978   19.0546 H   0  0  0  0  0  0
  -23.7161  -30.6214   19.4149 H   0  0  0  0  0  0
  -22.7222  -29.2692   19.8650 H   0  0  0  0  0  0
  -25.1283  -36.2005   25.0837 H   0  0  0  0  0  0
  -20.9917  -28.3212   24.1450 H   0  0  0  0  0  0
  -20.5694  -26.2225   23.3599 H   0  0  0  0  0  0
  -21.6631  -26.7429   22.1191 H   0  0  0  0  0  0
  -19.6902  -25.6300   21.1211 H   0  0  0  0  0  0
  -19.6733  -27.3213   20.6773 H   0  0  0  0  0  0
  -17.4190  -26.6632   21.3997 H   0  0  0  0  0  0
  -18.0283  -26.0120   22.9053 H   0  0  0  0  0  0
  -19.7930  -30.7236   24.2260 H   0  0  0  0  0  0
  -17.5015  -31.6262   24.5153 H   0  0  0  0  0  0
  -15.5335  -30.2971   23.7699 H   0  0  0  0  0  0
  -15.8633  -28.0857   22.7007 H   0  0  0  0  0  0
  -24.5903  -30.7072   25.7856 H   0  0  0  0  0  0
  -24.8943  -32.2883   26.4978 H   0  0  0  0  0  0
  -25.8110  -30.8894   27.0267 H   0  0  0  0  0  0
  -26.2860  -29.6842   24.1147 H   0  0  0  0  0  0
  -27.4069  -29.7288   25.4575 H   0  0  0  0  0  0
  -27.8693  -30.4406   23.9288 H   0  0  0  0  0  0
  -27.2677  -33.3630   26.2111 H   0  0  0  0  0  0
  -28.3841  -32.6926   25.0316 H   0  0  0  0  0  0
  -28.0745  -31.8466   26.5402 H   0  0  0  0  0  0
  -28.2595  -38.0099   24.7510 H   0  0  0  0  0  0
  -28.1071  -36.2638   24.6298 H   0  0  0  0  0  0
  -27.2284  -37.1482   25.8861 H   0  0  0  0  0  0
  -20.9299  -29.8793   21.7021 H   0  0  0  0  0  0
  -26.0191  -38.2877   24.1442 H   0  0  0  0  0  0
  -29.9696  -24.0818   22.7372 H   0  0  0  0  0  0
  -30.1728  -25.6859   21.9004 H   0  0  0  0  0  0
  -27.8245  -26.2582   22.4607 H   0  0  0  0  0  0
  -27.5954  -24.6134   23.2225 H   0  0  0  0  0  0
  -33.6165  -19.3578   20.6656 H   0  0  0  0  0  0
  -33.4449  -17.6456   20.5635 H   0  0  0  0  0  0
  -30.4726  -20.2427   18.7856 H   0  0  0  0  0  0
  -31.9233  -20.8984   19.4756 H   0  0  0  0  0  0
  -29.4828  -22.1578   23.4517 H   0  0  0  0  0  0
  -28.3476  -20.9751   22.8444 H   0  0  0  0  0  0
  -32.4557  -18.7199   18.6015 H   0  0  0  0  0  0
  -32.8211  -18.4895   22.8246 H   0  0  0  0  0  0
  -29.6315  -19.5747   20.9027 H   0  0  0  0  0  0
  -29.6333  -19.2529   23.2586 H   0  0  0  0  0  0
  -31.6471  -16.6945   19.1203 H   0  0  0  0  0  0
  -32.1310  -16.4718   21.9673 H   0  0  0  0  0  0
  -29.4604  -17.4885   21.0508 H   0  0  0  0  0  0
  -30.5511  -22.4090   21.2909 H   0  0  0  0  0  0
  -31.3000  -21.2407   24.8484 H   0  0  0  0  0  0
  -31.5060  -19.4965   24.9680 H   0  0  0  0  0  0
  -29.9773  -20.2425   25.4266 H   0  0  0  0  0  0
  -29.0878  -18.2381   18.6437 H   0  0  0  0  0  0
  -29.3842  -16.5553   18.2495 H   0  0  0  0  0  0
  -30.2984  -17.8004   17.4259 H   0  0  0  0  0  0
  -29.6786  -17.1690   23.5352 H   0  0  0  0  0  0
  -31.2851  -17.2129   24.2561 H   0  0  0  0  0  0
  -30.6681  -15.7395   23.5459 H   0  0  0  0  0  0
  -33.0059  -21.2674   21.4737 H   0  0  0  0  0  0
  -33.2063  -20.6989   23.1185 H   0  0  0  0  0  0
  -32.0845  -21.9679   22.7687 H   0  0  0  0  0  0
  -27.7341  -24.9626   19.1090 H   0  0  0  0  0  0
  -29.4239  -25.1039   19.3508 H   0  0  0  0  0  0
  -27.0436  -23.1382   20.2218 H   0  0  0  0  0  0
  -27.4000  -22.7585   21.8583 H   0  0  0  0  0  0
  -28.9973  -15.3408   21.0295 H   0  0  0  0  0  0
  1 25  1  0  0  0
  1 30  2  0  0  0
  1 92  1  0  0  0
  2  3  1  0  0  0
  2 25  1  0  0  0
  2 94  1  0  0  0
  2 95  1  0  0  0
  3  4  1  0  0  0
  3 96  1  0  0  0
  3 97  1  0  0  0
  4  5  1  0  0  0
  4 98  1  0  0  0
  4 99  1  0  0  0
  5  6  1  0  0  0
  5 26  1  0  0  0
  5100  1  0  0  0
  6 25  1  0  0  0
  6101  1  0  0  0
  6102  1  0  0  0
  7  8  2  0  0  0
  7 26  1  0  0  0
  7 29  1  0  0  0
  8  9  1  0  0  0
  8 22  1  0  0  0
  9 10  1  0  0  0
  9 27  2  0  0  0
 10 11  2  0  0  0
 10 15  1  0  0  0
 11 12  1  0  0  0
 11103  1  0  0  0
 12 13  2  0  0  0
 12104  1  0  0  0
 13 14  1  0  0  0
 13 31  1  0  0  0
 14 15  2  0  0  0
 14105  1  0  0  0
 15106  1  0  0  0
 16 17  2  0  0  0
 16 21  1  0  0  0
 16 31  1  0  0  0
 17 18  1  0  0  0
 17107  1  0  0  0
 18 19  2  0  0  0
 18108  1  0  0  0
 19 20  1  0  0  0
 19 24  1  0  0  0
 20 21  2  0  0  0
 20109  1  0  0  0
 21 23  1  0  0  0
 22 28  1  0  0  0
 22 32  2  0  0  0
 26 27  1  0  0  0
 28110  1  0  0  0
 28111  1  0  0  0
 29112  1  0  0  0
 29113  1  0  0  0
 33 34  1  0  0  0
 33 66  1  0  0  0
 33 70  2  0  0  0
 34 36  1  0  0  0
 34 59  1  0  0  0
 34114  1  0  0  0
 35 44  2  0  0  0
 35 45  1  0  0  0
 35 68  1  0  0  0
 36 56  1  0  0  0
 36115  1  0  0  0
 37 39  1  0  0  0
 37 47  1  0  0  0
 37 66  1  0  0  0
 37116  1  0  0  0
 38 43  2  0  0  0
 38 46  1  0  0  0
 38 47  1  0  0  0
 39 64  1  0  0  0
 39 67  2  0  0  0
 40 52  1  0  0  0
 40 53  2  0  0  0
 40 58  1  0  0  0
 41117  1  0  0  0
 41118  1  0  0  0
 41119  1  0  0  0
 41 48  1  0  0  0
 42 43  1  0  0  0
 42 66  1  0  0  0
 42120  1  0  0  0
 42121  1  0  0  0
 43 44  1  0  0  0
 44122  1  0  0  0
 45 46  2  0  0  0
 45123  1  0  0  0
 46124  1  0  0  0
 47125  1  0  0  0
 47126  1  0  0  0
 48 56  1  0  0  0
 48 65  1  0  0  0
 48127  1  0  0  0
 49 50  1  0  0  0
 49 53  1  0  0  0
 49 64  1  0  0  0
 49128  1  0  0  0
 50 51  1  0  0  0
 50129  1  0  0  0
 50130  1  0  0  0
 51 52  1  0  0  0
 51131  1  0  0  0
 51132  1  0  0  0
 52133  1  0  0  0
 52134  1  0  0  0
 53 54  1  0  0  0
 54 55  2  0  0  0
 54135  1  0  0  0
 55 57  1  0  0  0
 55136  1  0  0  0
 56 69  2  0  0  0
 57 58  2  0  0  0
 57137  1  0  0  0
 58138  1  0  0  0
 59 60  1  0  0  0
 59 61  1  0  0  0
 59 62  1  0  0  0
 60139  1  0  0  0
 60140  1  0  0  0
 60141  1  0  0  0
 61142  1  0  0  0
 61143  1  0  0  0
 61144  1  0  0  0
 62145  1  0  0  0
 62146  1  0  0  0
 62147  1  0  0  0
 63 65  1  0  0  0
 63148  1  0  0  0
 63149  1  0  0  0
 63150  1  0  0  0
 64151  1  0  0  0
 65152  1  0  0  0
 68 90  1  0  0  0
 71 72  1  0  0  0
 71 85  1  0  0  0
 71153  1  0  0  0
 71154  1  0  0  0
 72 85  1  0  0  0
 72155  1  0  0  0
 72156  1  0  0  0
 73 76  1  0  0  0
 73157  1  0  0  0
 73158  1  0  0  0
 73 77  1  0  0  0
 74159  1  0  0  0
 74160  1  0  0  0
 74 76  1  0  0  0
 74 78  1  0  0  0
 75 79  1  0  0  0
 75 83  1  0  0  0
 75161  1  0  0  0
 75162  1  0  0  0
 76 80  1  0  0  0
 76163  1  0  0  0
 77 81  1  0  0  0
 77 84  1  0  0  0
 77164  1  0  0  0
 78 83  1  0  0  0
 78 84  1  0  0  0
 78165  1  0  0  0
 79 84  1  0  0  0
 79 86  1  0  0  0
 79166  1  0  0  0
 80 82  1  0  0  0
 80 87  1  0  0  0
 80167  1  0  0  0
 81 82  1  0  0  0
 81 88  1  0  0  0
 81168  1  0  0  0
 82 92  1  0  0  0
 82169  1  0  0  0
 83 93  1  0  0  0
 83170  1  0  0  0
 84 89  1  0  0  0
 85 90  1  0  0  0
 85 91  1  0  0  0
 86171  1  0  0  0
 86172  1  0  0  0
 86173  1  0  0  0
 87174  1  0  0  0
 87175  1  0  0  0
 87176  1  0  0  0
 88177  1  0  0  0
 88178  1  0  0  0
 88179  1  0  0  0
 89180  1  0  0  0
 89181  1  0  0  0
 89182  1  0  0  0
 90183  1  0  0  0
 90184  1  0  0  0
 91 93  1  0  0  0
 91185  1  0  0  0
 91186  1  0  0  0
 92187  1  0  0  0
M  ISO  4   1 100  68 101  90 101  92 100
M  END
> <chiral flag>
0

> <version>
0

> <s_m_source_file>
/data/baiqing/PycharmProjects/Reinvent-master-3.2/result/LINK_invent/BTK/process_docking_weight1_custom_sum_contain_oxygen_bond_distance_aromatic_linkinvent_7_9_3/rearranged_h_0163.sdf

> <i_m_source_file_index>
4

> <r_mmod_Potential_Energy-OPLS-2005>
225.076156616211

> <r_mmod_Stretch_Energy-OPLS-2005>
51.5006370544434

> <r_mmod_Bend_Energy-OPLS-2005>
223.873092651367

> <r_mmod_Torsional_Energy-OPLS-2005>
382.814086914062

> <r_mmod_Improper_Torsional_Energy-OPLS-2005>
4.48205089569092

> <r_mmod_Van_der_Waal_Energy-OPLS-2005>
159.571380615234

> <r_mmod_Electrostatic_Energy-OPLS-2005>
-428.680358886719

> <r_mmod_Solvation_Energy-OPLS-2005>
-185.364837646484

> <b_mmod_Minimization_Converged-OPLS-2005>
0

> <r_mmod_RMS_Derivative-OPLS-2005>
3.24097299575806

$$$$
4
                    3D
 Structure written by MMmdl.
170179  0  0  1  0            999 V2000
  -30.6910  -14.4597   20.5606 C   0  0  0  0  0  0
  -30.4260  -12.2881   19.4425 C   0  0  0  0  0  0
  -29.5043  -12.4754   18.2199 C   0  0  0  0  0  0
  -28.0299  -12.3216   18.6285 C   0  0  0  0  0  0
  -27.6610  -13.1768   19.8732 C   0  0  2  0  0  0
  -28.6969  -12.9518   20.9993 C   0  0  0  0  0  0
  -25.2615  -13.8066   20.5605 C   0  0  0  0  0  0
  -24.1856  -13.0421   20.9154 C   0  0  0  0  0  0
  -24.6345  -11.6845   20.8725 C   0  0  0  0  0  0
  -23.9037  -10.4242   21.0448 C   0  0  0  0  0  0
  -24.3607   -9.4154   21.9222 C   0  0  0  0  0  0
  -23.6276   -8.2192   22.0754 C   0  0  0  0  0  0
  -22.4244   -8.0259   21.3552 C   0  0  0  0  0  0
  -21.9902   -9.0233   20.4638 C   0  0  0  0  0  0
  -22.7239  -10.2110   20.3074 C   0  0  0  0  0  0
  -21.6818   -6.0718   22.5281 C   0  0  0  0  0  0
  -21.4006   -6.5631   23.8219 C   0  0  0  0  0  0
  -21.3664   -5.6793   24.9180 C   0  0  0  0  0  0
  -21.6065   -4.3055   24.7235 C   0  0  0  0  0  0
  -21.8824   -3.8134   23.4347 C   0  0  0  0  0  0
  -21.9172   -4.6947   22.3393 C   0  0  0  0  0  0
  -22.7887  -13.5215   21.1899 C   0  0  0  0  0  0
  -22.1628   -4.2134   21.0969 F   0  0  0  0  0  0
  -21.5650   -3.4532   25.7750 F   0  0  0  0  0  0
  -30.0261  -13.2761   20.4507 N   0  0  0  0  0  0
  -26.3007  -12.9165   20.3307 N   0  0  0  0  0  0
  -25.9243  -11.6350   20.5728 N   0  0  0  0  0  0
  -22.0532  -12.8166   22.0420 N   0  0  0  0  0  0
  -25.4362  -15.1824   20.4063 N   0  0  0  0  0  0
  -31.8350  -14.6214   20.1208 O   0  0  0  0  0  0
  -21.6618   -6.8858   21.4232 O   0  0  0  0  0  0
  -22.3550  -14.5515   20.6747 O   0  0  0  0  0  0
  -24.6147  -31.8699   23.2226 C   0  0  0  0  0  0
  -25.9033  -32.4846   23.8468 C   0  0  1  0  0  0
  -27.2038  -27.4673   20.0624 C   0  0  0  0  0  0
  -25.5889  -33.8650   24.2393 N   0  0  0  0  0  0
  -23.3998  -30.4946   21.5671 C   0  0  2  0  0  0
  -24.8338  -28.9816   20.1050 C   0  0  0  0  0  0
  -22.7441  -29.4613   22.5105 C   0  0  0  0  0  0
  -18.0259  -28.1327   22.8488 C   0  0  0  0  0  0
  -24.1471  -36.7318   23.2643 C   0  0  0  0  0  0
  -25.9310  -30.8396   21.3772 C   0  0  0  0  0  0
  -25.9995  -29.4869   20.7021 C   0  0  0  0  0  0
  -27.1877  -28.7291   20.6888 C   0  0  0  0  0  0
  -26.0352  -26.9927   19.4276 C   0  0  0  0  0  0
  -24.8430  -27.7281   19.4760 C   0  0  0  0  0  0
  -23.6019  -29.8417   20.1732 C   0  0  0  0  0  0
  -25.4107  -36.3149   24.0349 C   0  0  1  0  0  0
  -20.5871  -28.3608   23.1342 C   0  0  2  0  0  0
  -20.6753  -26.9353   22.5429 C   0  0  0  0  0  0
  -19.5728  -26.6366   21.5212 C   0  0  0  0  0  0
  -18.1910  -26.7873   22.1623 C   0  0  0  0  0  0
  -19.1506  -28.8791   23.2889 C   0  0  0  0  0  0
  -18.9426  -30.1405   23.8886 C   0  0  0  0  0  0
  -17.6429  -30.6546   24.0548 C   0  0  0  0  0  0
  -25.9039  -34.9492   23.5161 C   0  0  0  0  0  0
  -16.5315  -29.9046   23.6331 C   0  0  0  0  0  0
  -16.7250  -28.6448   23.0370 C   0  0  0  0  0  0
  -26.4408  -31.6616   25.0797 C   0  0  0  0  0  0
  -25.3686  -31.3644   26.1548 C   0  0  0  0  0  0
  -27.0233  -30.3076   24.6144 C   0  0  0  0  0  0
  -27.6039  -32.4264   25.7490 C   0  0  0  0  0  0
  -27.5570  -37.1831   24.8481 C   0  0  0  0  0  0
  -21.4169  -29.2941   22.3769 N   0  0  0  0  0  0
  -26.4329  -37.3799   23.9378 N   0  0  0  0  0  0
  -24.6690  -31.0788   22.1140 N   0  0  0  0  0  0
  -23.4193  -28.8171   23.3153 O   0  0  0  0  0  0
  -28.2764  -26.6258   20.1986 O   0  0  0  0  0  0
  -26.5615  -34.8907   22.4742 O   0  0  0  0  0  0
  -23.5349  -32.1465   23.7579 O   0  0  0  0  0  0
  -32.1751  -20.2975   22.0505 C   0  0  0  0  0  0
  -31.1472  -22.4176   22.6943 C   0  0  0  0  0  0
  -30.9017  -19.7182   21.8377 C   0  0  0  0  0  0
  -32.3086  -21.6564   22.4471 C   0  0  0  0  0  0
  -29.8713  -21.8480   22.4818 C   0  0  0  0  0  0
  -29.7625  -20.5446   21.9542 C   0  0  0  0  0  0
  -28.2620  -23.5683   22.4569 C   0  0  0  0  0  0
  -29.6308  -17.5127   22.3539 C   0  0  0  0  0  0
  -30.7424  -17.8025   20.0650 C   0  0  0  0  0  0
  -29.6088  -15.9816   22.1753 C   0  0  0  0  0  0
  -29.8100  -16.5969   19.7720 C   0  0  0  0  0  0
  -30.7788  -18.2031   21.5665 C   0  0  0  0  0  0
  -33.6838  -22.2856   22.6553 C   0  0  0  0  0  0
  -28.2810  -20.5798   20.1818 C   0  0  0  0  0  0
  -28.9068  -24.5129   21.4499 C   0  0  0  0  0  0
  -27.8576  -25.5541   21.0591 C   0  0  0  0  0  0
  -28.6799  -22.4522   22.8881 N   0  0  0  0  0  0
  -29.9087  -15.5390   20.7993 N   0  0  0  0  0  0
  -28.5356  -20.1307   21.5086 O   0  0  0  0  0  0
  -31.4762  -12.3775   19.1583 H   0  0  0  0  0  0
  -30.3234  -11.2795   19.8475 H   0  0  0  0  0  0
  -29.7615  -11.7445   17.4515 H   0  0  0  0  0  0
  -29.6690  -13.4566   17.7715 H   0  0  0  0  0  0
  -27.8608  -11.2583   18.8447 H   0  0  0  0  0  0
  -27.3786  -12.5747   17.7919 H   0  0  0  0  0  0
  -27.7061  -14.2224   19.5689 H   0  0  0  0  0  0
  -28.6707  -11.9066   21.3121 H   0  0  0  0  0  0
  -28.4574  -13.5132   21.8999 H   0  0  0  0  0  0
  -25.2777   -9.5582   22.4781 H   0  0  0  0  0  0
  -23.9981   -7.4538   22.7434 H   0  0  0  0  0  0
  -21.0860   -8.8795   19.8875 H   0  0  0  0  0  0
  -22.3782  -10.9677   19.6166 H   0  0  0  0  0  0
  -21.1987   -7.6140   23.9718 H   0  0  0  0  0  0
  -21.1499   -6.0515   25.9093 H   0  0  0  0  0  0
  -22.0587   -2.7590   23.2872 H   0  0  0  0  0  0
  -22.4163  -11.9813   22.4813 H   0  0  0  0  0  0
  -21.1118  -13.1123   22.2611 H   0  0  0  0  0  0
  -24.6782  -15.8390   20.5446 H   0  0  0  0  0  0
  -26.3014  -15.6307   20.1399 H   0  0  0  0  0  0
  -26.7112  -32.5468   23.1250 H   0  0  0  0  0  0
  -24.9960  -33.9806   25.0465 H   0  0  0  0  0  0
  -22.6861  -31.3099   21.4399 H   0  0  0  0  0  0
  -23.3734  -35.9655   23.3362 H   0  0  0  0  0  0
  -24.3558  -36.8883   22.2053 H   0  0  0  0  0  0
  -23.7197  -37.6526   23.6604 H   0  0  0  0  0  0
  -26.0556  -31.6208   20.6223 H   0  0  0  0  0  0
  -26.8205  -30.8757   21.9969 H   0  0  0  0  0  0
  -28.0802  -29.0798   21.1929 H   0  0  0  0  0  0
  -26.0330  -26.0341   18.9293 H   0  0  0  0  0  0
  -23.9468  -27.3206   19.0253 H   0  0  0  0  0  0
  -23.7058  -30.6205   19.4210 H   0  0  0  0  0  0
  -22.7265  -29.2570   19.8749 H   0  0  0  0  0  0
  -25.1281  -36.2101   25.0856 H   0  0  0  0  0  0
  -20.9889  -28.3142   24.1485 H   0  0  0  0  0  0
  -20.5629  -26.2225   23.3620 H   0  0  0  0  0  0
  -21.6651  -26.7394   22.1229 H   0  0  0  0  0  0
  -19.6897  -25.6282   21.1223 H   0  0  0  0  0  0
  -19.6635  -27.3221   20.6783 H   0  0  0  0  0  0
  -17.4183  -26.6592   21.4032 H   0  0  0  0  0  0
  -18.0281  -25.9997   22.9006 H   0  0  0  0  0  0
  -19.7888  -30.7211   24.2261 H   0  0  0  0  0  0
  -17.4973  -31.6230   24.5125 H   0  0  0  0  0  0
  -15.5308  -30.2941   23.7627 H   0  0  0  0  0  0
  -15.8648  -28.0745   22.7130 H   0  0  0  0  0  0
  -24.5904  -30.6975   25.7805 H   0  0  0  0  0  0
  -24.8809  -32.2751   26.5038 H   0  0  0  0  0  0
  -25.8042  -30.8748   27.0292 H   0  0  0  0  0  0
  -26.2828  -29.6848   24.1142 H   0  0  0  0  0  0
  -27.3963  -29.7250   25.4573 H   0  0  0  0  0  0
  -27.8641  -30.4391   23.9346 H   0  0  0  0  0  0
  -27.2782  -33.3582   26.2122 H   0  0  0  0  0  0
  -28.3771  -32.6827   25.0229 H   0  0  0  0  0  0
  -28.0820  -31.8378   26.5332 H   0  0  0  0  0  0
  -28.2673  -38.0057   24.7504 H   0  0  0  0  0  0
  -28.0986  -36.2594   24.6372 H   0  0  0  0  0  0
  -27.2292  -37.1613   25.8895 H   0  0  0  0  0  0
  -20.9388  -29.8640   21.6943 H   0  0  0  0  0  0
  -26.0242  -38.2892   24.1356 H   0  0  0  0  0  0
  -33.0597  -19.6890   21.9083 H   0  0  0  0  0  0
  -31.2271  -23.4341   23.0531 H   0  0  0  0  0  0
  -27.2881  -23.9127   22.8145 H   0  0  0  0  0  0
  -29.7132  -17.7640   23.4127 H   0  0  0  0  0  0
  -28.6495  -17.8801   22.0574 H   0  0  0  0  0  0
  -30.3974  -18.6328   19.4465 H   0  0  0  0  0  0
  -31.7510  -17.5829   19.7199 H   0  0  0  0  0  0
  -28.6198  -15.6230   22.4572 H   0  0  0  0  0  0
  -30.3113  -15.5368   22.8836 H   0  0  0  0  0  0
  -28.7734  -16.9323   19.7279 H   0  0  0  0  0  0
  -30.0107  -16.1850   18.7775 H   0  0  0  0  0  0
  -31.6843  -17.7707   21.9962 H   0  0  0  0  0  0
  -33.9695  -22.8602   21.7754 H   0  0  0  0  0  0
  -34.4606  -21.5415   22.8244 H   0  0  0  0  0  0
  -33.7077  -22.9538   23.5218 H   0  0  0  0  0  0
  -29.1433  -21.0837   19.7313 H   0  0  0  0  0  0
  -28.0247  -19.7409   19.5384 H   0  0  0  0  0  0
  -27.4582  -21.2974   20.1764 H   0  0  0  0  0  0
  -29.2415  -23.9601   20.5676 H   0  0  0  0  0  0
  -29.7604  -25.0128   21.9088 H   0  0  0  0  0  0
  -27.0279  -24.9986   20.6122 H   0  0  0  0  0  0
  -27.4604  -25.9916   21.9830 H   0  0  0  0  0  0
  1 25  1  0  0  0
  1 30  2  0  0  0
  1 88  1  0  0  0
  2  3  1  0  0  0
  2 25  1  0  0  0
  2 90  1  0  0  0
  2 91  1  0  0  0
  3  4  1  0  0  0
  3 92  1  0  0  0
  3 93  1  0  0  0
  4  5  1  0  0  0
  4 94  1  0  0  0
  4 95  1  0  0  0
  5  6  1  0  0  0
  5 26  1  0  0  0
  5 96  1  0  0  0
  6 25  1  0  0  0
  6 97  1  0  0  0
  6 98  1  0  0  0
  7  8  2  0  0  0
  7 26  1  0  0  0
  7 29  1  0  0  0
  8  9  1  0  0  0
  8 22  1  0  0  0
  9 10  1  0  0  0
  9 27  2  0  0  0
 10 11  2  0  0  0
 10 15  1  0  0  0
 11 12  1  0  0  0
 11 99  1  0  0  0
 12 13  2  0  0  0
 12100  1  0  0  0
 13 14  1  0  0  0
 13 31  1  0  0  0
 14 15  2  0  0  0
 14101  1  0  0  0
 15102  1  0  0  0
 16 17  2  0  0  0
 16 21  1  0  0  0
 16 31  1  0  0  0
 17 18  1  0  0  0
 17103  1  0  0  0
 18 19  2  0  0  0
 18104  1  0  0  0
 19 20  1  0  0  0
 19 24  1  0  0  0
 20 21  2  0  0  0
 20105  1  0  0  0
 21 23  1  0  0  0
 22 28  1  0  0  0
 22 32  2  0  0  0
 26 27  1  0  0  0
 28106  1  0  0  0
 28107  1  0  0  0
 29108  1  0  0  0
 29109  1  0  0  0
 33 34  1  0  0  0
 33 66  1  0  0  0
 33 70  2  0  0  0
 34 36  1  0  0  0
 34 59  1  0  0  0
 34110  1  0  0  0
 35 44  2  0  0  0
 35 45  1  0  0  0
 35 68  1  0  0  0
 36 56  1  0  0  0
 36111  1  0  0  0
 37 39  1  0  0  0
 37 47  1  0  0  0
 37 66  1  0  0  0
 37112  1  0  0  0
 38 43  2  0  0  0
 38 46  1  0  0  0
 38 47  1  0  0  0
 39 64  1  0  0  0
 39 67  2  0  0  0
 40 52  1  0  0  0
 40 53  2  0  0  0
 40 58  1  0  0  0
 41113  1  0  0  0
 41114  1  0  0  0
 41115  1  0  0  0
 41 48  1  0  0  0
 42 43  1  0  0  0
 42 66  1  0  0  0
 42116  1  0  0  0
 42117  1  0  0  0
 43 44  1  0  0  0
 44118  1  0  0  0
 45 46  2  0  0  0
 45119  1  0  0  0
 46120  1  0  0  0
 47121  1  0  0  0
 47122  1  0  0  0
 48 56  1  0  0  0
 48 65  1  0  0  0
 48123  1  0  0  0
 49 50  1  0  0  0
 49 53  1  0  0  0
 49 64  1  0  0  0
 49124  1  0  0  0
 50 51  1  0  0  0
 50125  1  0  0  0
 50126  1  0  0  0
 51 52  1  0  0  0
 51127  1  0  0  0
 51128  1  0  0  0
 52129  1  0  0  0
 52130  1  0  0  0
 53 54  1  0  0  0
 54 55  2  0  0  0
 54131  1  0  0  0
 55 57  1  0  0  0
 55132  1  0  0  0
 56 69  2  0  0  0
 57 58  2  0  0  0
 57133  1  0  0  0
 58134  1  0  0  0
 59 60  1  0  0  0
 59 61  1  0  0  0
 59 62  1  0  0  0
 60135  1  0  0  0
 60136  1  0  0  0
 60137  1  0  0  0
 61138  1  0  0  0
 61139  1  0  0  0
 61140  1  0  0  0
 62141  1  0  0  0
 62142  1  0  0  0
 62143  1  0  0  0
 63 65  1  0  0  0
 63144  1  0  0  0
 63145  1  0  0  0
 63146  1  0  0  0
 64147  1  0  0  0
 65148  1  0  0  0
 68 86  1  0  0  0
 71 73  2  0  0  0
 71 74  1  0  0  0
 71149  1  0  0  0
 72 74  2  0  0  0
 72 75  1  0  0  0
 72150  1  0  0  0
 73 76  1  0  0  0
 73 82  1  0  0  0
 74 83  1  0  0  0
 75 76  2  0  0  0
 75 87  1  0  0  0
 76 89  1  0  0  0
 77 85  1  0  0  0
 77 87  2  0  0  0
 77151  1  0  0  0
 78 80  1  0  0  0
 78 82  1  0  0  0
 78152  1  0  0  0
 78153  1  0  0  0
 79 81  1  0  0  0
 79 82  1  0  0  0
 79154  1  0  0  0
 79155  1  0  0  0
 80 88  1  0  0  0
 80156  1  0  0  0
 80157  1  0  0  0
 81 88  1  0  0  0
 81158  1  0  0  0
 81159  1  0  0  0
 82160  1  0  0  0
 83161  1  0  0  0
 83162  1  0  0  0
 83163  1  0  0  0
 84 89  1  0  0  0
 84164  1  0  0  0
 84165  1  0  0  0
 84166  1  0  0  0
 85 86  1  0  0  0
 85167  1  0  0  0
 85168  1  0  0  0
 86169  1  0  0  0
 86170  1  0  0  0
M  ISO  4   1 100  68 101  86 101  88 100
M  END
> <chiral flag>
0

> <version>
0

> <s_m_source_file>
/data/baiqing/PycharmProjects/Reinvent-master-3.2/result/LINK_invent/BTK/process_docking_weight1_custom_sum_contain_oxygen_bond_distance_aromatic_linkinvent_7_9_3/rearranged_h_0163.sdf

> <i_m_source_file_index>
5

> <r_mmod_Potential_Energy-OPLS-2005>
279.290618896484

> <r_mmod_Stretch_Energy-OPLS-2005>
40.0773620605469

> <r_mmod_Bend_Energy-OPLS-2005>
119.08073425293

> <r_mmod_Torsional_Energy-OPLS-2005>
423.775787353516

> <r_mmod_Improper_Torsional_Energy-OPLS-2005>
13.7544746398926

> <r_mmod_Van_der_Waal_Energy-OPLS-2005>
171.969802856445

> <r_mmod_Electrostatic_Energy-OPLS-2005>
-305.500701904297

> <r_mmod_Solvation_Energy-OPLS-2005>
-204.52702331543

> <b_mmod_Minimization_Converged-OPLS-2005>
0

> <r_mmod_RMS_Derivative-OPLS-2005>
9.409255027771

$$$$
5
                    3D
 Structure written by MMmdl.
170179  0  0  1  0            999 V2000
  -30.6000  -14.7411   20.4616 C   0  0  0  0  0  0
  -30.4424  -12.4593   19.4424 C   0  0  0  0  0  0
  -29.5009  -12.4988   18.2169 C   0  0  0  0  0  0
  -28.0298  -12.3248   18.6424 C   0  0  0  0  0  0
  -27.6418  -13.2261   19.8440 C   0  0  2  0  0  0
  -28.6956  -13.1488   20.9705 C   0  0  0  0  0  0
  -25.2537  -13.8187   20.5707 C   0  0  0  0  0  0
  -24.1818  -13.0432   20.9226 C   0  0  0  0  0  0
  -24.6399  -11.6912   20.8745 C   0  0  0  0  0  0
  -23.9067  -10.4298   21.0402 C   0  0  0  0  0  0
  -24.3615   -9.4213   21.9181 C   0  0  0  0  0  0
  -23.6294   -8.2242   22.0740 C   0  0  0  0  0  0
  -22.4280   -8.0282   21.3532 C   0  0  0  0  0  0
  -21.9922   -9.0251   20.4627 C   0  0  0  0  0  0
  -22.7241  -10.2138   20.3048 C   0  0  0  0  0  0
  -21.6858   -6.0741   22.5271 C   0  0  0  0  0  0
  -21.4015   -6.5635   23.8206 C   0  0  0  0  0  0
  -21.3656   -5.6795   24.9161 C   0  0  0  0  0  0
  -21.6045   -4.3053   24.7213 C   0  0  0  0  0  0
  -21.8823   -3.8143   23.4334 C   0  0  0  0  0  0
  -21.9195   -4.6967   22.3396 C   0  0  0  0  0  0
  -22.7842  -13.5217   21.1885 C   0  0  0  0  0  0
  -22.1666   -4.2152   21.0972 F   0  0  0  0  0  0
  -21.5628   -3.4535   25.7725 F   0  0  0  0  0  0
  -29.9906  -13.5109   20.3773 N   0  0  0  0  0  0
  -26.2949  -12.9379   20.3270 N   0  0  0  0  0  0
  -25.9333  -11.6528   20.5739 N   0  0  0  0  0  0
  -22.0498  -12.8182   22.0435 N   0  0  0  0  0  0
  -25.4208  -15.1909   20.4141 N   0  0  0  0  0  0
  -31.8017  -14.8666   20.2167 O   0  0  0  0  0  0
  -21.6638   -6.8881   21.4230 O   0  0  0  0  0  0
  -22.3522  -14.5529   20.6751 O   0  0  0  0  0  0
  -24.6323  -31.8576   23.1972 C   0  0  0  0  0  0
  -25.9139  -32.4779   23.8334 C   0  0  1  0  0  0
  -27.2278  -27.2580   20.1209 C   0  0  0  0  0  0
  -25.5890  -33.8578   24.2242 N   0  0  0  0  0  0
  -23.4305  -30.4758   21.5437 C   0  0  2  0  0  0
  -24.8781  -28.9256   20.1133 C   0  0  0  0  0  0
  -22.7538  -29.4580   22.4927 C   0  0  0  0  0  0
  -18.0273  -28.1381   22.8481 C   0  0  0  0  0  0
  -24.1490  -36.7316   23.2639 C   0  0  0  0  0  0
  -25.9759  -30.7673   21.3787 C   0  0  0  0  0  0
  -26.0532  -29.3890   20.7216 C   0  0  0  0  0  0
  -27.2293  -28.5684   20.7154 C   0  0  0  0  0  0
  -26.0241  -26.8705   19.4836 C   0  0  0  0  0  0
  -24.8697  -27.6744   19.4841 C   0  0  0  0  0  0
  -23.6511  -29.8125   20.1589 C   0  0  0  0  0  0
  -25.4109  -36.3089   24.0318 C   0  0  1  0  0  0
  -20.5896  -28.3714   23.1268 C   0  0  2  0  0  0
  -20.6779  -26.9433   22.5424 C   0  0  0  0  0  0
  -19.5747  -26.6386   21.5230 C   0  0  0  0  0  0
  -18.1915  -26.7924   22.1627 C   0  0  0  0  0  0
  -19.1530  -28.8859   23.2866 C   0  0  0  0  0  0
  -18.9448  -30.1459   23.8888 C   0  0  0  0  0  0
  -17.6452  -30.6588   24.0564 C   0  0  0  0  0  0
  -25.9056  -34.9465   23.5106 C   0  0  0  0  0  0
  -16.5345  -29.9081   23.6330 C   0  0  0  0  0  0
  -16.7263  -28.6509   23.0344 C   0  0  0  0  0  0
  -26.4480  -31.6605   25.0745 C   0  0  0  0  0  0
  -25.3659  -31.3790   26.1448 C   0  0  0  0  0  0
  -27.0336  -30.3005   24.6256 C   0  0  0  0  0  0
  -27.6034  -32.4365   25.7492 C   0  0  0  0  0  0
  -27.5590  -37.1781   24.8448 C   0  0  0  0  0  0
  -21.4236  -29.3062   22.3690 N   0  0  0  0  0  0
  -26.4289  -37.3771   23.9407 N   0  0  0  0  0  0
  -24.6986  -31.0512   22.0968 N   0  0  0  0  0  0
  -23.4237  -28.8089   23.2999 O   0  0  0  0  0  0
  -28.3224  -26.3535   20.1798 O   0  0  0  0  0  0
  -26.5671  -34.8937   22.4707 O   0  0  0  0  0  0
  -23.5459  -32.1389   23.7260 O   0  0  0  0  0  0
  -27.4935  -20.1208   17.7476 C   0  0  0  0  0  0
  -28.6037  -17.5490   18.1120 C   0  0  0  0  0  0
  -28.4476  -19.9080   18.7672 C   0  0  0  0  0  0
  -28.9895  -18.6167   18.9490 C   0  0  0  0  0  0
  -27.0989  -19.0565   16.9074 C   0  0  0  0  0  0
  -27.6516  -17.7640   17.0945 C   0  0  0  0  0  0
  -29.0197  -20.9227   19.6824 C   0  0  0  0  0  0
  -28.7395  -22.2884   19.5534 C   0  0  0  0  0  0
  -29.9145  -20.0458   20.6259 C   0  0  0  0  0  0
  -30.0703  -18.5507   20.0145 C   0  0  2  0  0  0
  -26.1031  -19.3300   15.7930 C   0  0  0  0  0  0
  -27.2628  -16.6030   16.1920 C   0  0  0  0  0  0
  -31.4379  -18.4499   19.3125 C   0  0  0  0  0  0
  -29.3710  -23.5243   21.7458 C   0  0  0  0  0  0
  -29.9892  -17.2927   21.0397 C   0  0  0  0  0  0
  -28.0675  -24.8880   19.9383 C   0  0  0  0  0  0
  -29.1091  -23.6736   20.2422 C   0  0  2  0  0  0
  -29.7745  -15.8358   20.6272 N   0  0  0  0  0  0
  -31.4757  -12.6141   19.1233 H   0  0  0  0  0  0
  -30.4132  -11.4806   19.9247 H   0  0  0  0  0  0
  -29.7751  -11.7178   17.5071 H   0  0  0  0  0  0
  -29.6211  -13.4447   17.6878 H   0  0  0  0  0  0
  -27.8895  -11.2769   18.9115 H   0  0  0  0  0  0
  -27.3655  -12.5125   17.7989 H   0  0  0  0  0  0
  -27.6362  -14.2475   19.4623 H   0  0  0  0  0  0
  -28.7373  -12.1456   21.4002 H   0  0  0  0  0  0
  -28.4354  -13.8217   21.7913 H   0  0  0  0  0  0
  -25.2756   -9.5692   22.4763 H   0  0  0  0  0  0
  -24.0002   -7.4640   22.7467 H   0  0  0  0  0  0
  -21.0855   -8.8767   19.8933 H   0  0  0  0  0  0
  -22.3693  -10.9675   19.6164 H   0  0  0  0  0  0
  -21.2010   -7.6146   23.9703 H   0  0  0  0  0  0
  -21.1476   -6.0519   25.9066 H   0  0  0  0  0  0
  -22.0608   -2.7612   23.2828 H   0  0  0  0  0  0
  -22.4127  -11.9837   22.4782 H   0  0  0  0  0  0
  -21.1106  -13.1171   22.2641 H   0  0  0  0  0  0
  -24.6479  -15.8367   20.5321 H   0  0  0  0  0  0
  -26.2526  -15.6376   20.0506 H   0  0  0  0  0  0
  -26.7250  -32.5437   23.1103 H   0  0  0  0  0  0
  -24.9902  -33.9720   25.0294 H   0  0  0  0  0  0
  -22.7233  -31.2944   21.4021 H   0  0  0  0  0  0
  -23.3755  -35.9642   23.3245 H   0  0  0  0  0  0
  -24.3543  -36.9012   22.2063 H   0  0  0  0  0  0
  -23.7255  -37.6483   23.6730 H   0  0  0  0  0  0
  -26.1111  -31.5243   20.6047 H   0  0  0  0  0  0
  -26.8557  -30.8236   22.0100 H   0  0  0  0  0  0
  -28.1277  -28.9158   21.2052 H   0  0  0  0  0  0
  -25.9307  -25.9169   18.9891 H   0  0  0  0  0  0
  -23.9684  -27.3118   19.0053 H   0  0  0  0  0  0
  -23.7767  -30.5918   19.4058 H   0  0  0  0  0  0
  -22.7686  -29.2467   19.8573 H   0  0  0  0  0  0
  -25.1277  -36.1930   25.0802 H   0  0  0  0  0  0
  -20.9957  -28.3328   24.1391 H   0  0  0  0  0  0
  -20.5675  -26.2333   23.3633 H   0  0  0  0  0  0
  -21.6644  -26.7454   22.1208 H   0  0  0  0  0  0
  -19.6902  -25.6288   21.1270 H   0  0  0  0  0  0
  -19.6676  -27.3203   20.6760 H   0  0  0  0  0  0
  -17.4200  -26.6689   21.4023 H   0  0  0  0  0  0
  -18.0268  -26.0052   22.8992 H   0  0  0  0  0  0
  -19.7942  -30.7267   24.2258 H   0  0  0  0  0  0
  -17.5019  -31.6254   24.5208 H   0  0  0  0  0  0
  -15.5356  -30.2981   23.7664 H   0  0  0  0  0  0
  -15.8659  -28.0851   22.7027 H   0  0  0  0  0  0
  -24.5867  -30.7102   25.7764 H   0  0  0  0  0  0
  -24.8801  -32.2983   26.4758 H   0  0  0  0  0  0
  -25.7931  -30.9057   27.0300 H   0  0  0  0  0  0
  -26.2946  -29.6706   24.1294 H   0  0  0  0  0  0
  -27.3996  -29.7325   25.4805 H   0  0  0  0  0  0
  -27.8821  -30.4215   23.9520 H   0  0  0  0  0  0
  -27.2683  -33.3768   26.1879 H   0  0  0  0  0  0
  -28.3918  -32.6734   25.0348 H   0  0  0  0  0  0
  -28.0597  -31.8602   26.5546 H   0  0  0  0  0  0
  -28.2561  -38.0118   24.7531 H   0  0  0  0  0  0
  -28.1138  -36.2647   24.6230 H   0  0  0  0  0  0
  -27.2301  -37.1360   25.8842 H   0  0  0  0  0  0
  -20.9435  -29.8840   21.6933 H   0  0  0  0  0  0
  -26.0184  -38.2837   24.1426 H   0  0  0  0  0  0
  -27.0631  -21.0973   17.5839 H   0  0  0  0  0  0
  -29.0596  -16.5766   18.2207 H   0  0  0  0  0  0
  -28.0898  -22.5130   18.7245 H   0  0  0  0  0  0
  -29.3883  -19.9735   21.5785 H   0  0  0  0  0  0
  -30.8698  -20.5284   20.8360 H   0  0  0  0  0  0
  -25.9027  -20.3966   15.6937 H   0  0  0  0  0  0
  -25.1556  -18.8279   15.9890 H   0  0  0  0  0  0
  -26.4893  -18.9817   14.8352 H   0  0  0  0  0  0
  -27.4918  -15.6434   16.6574 H   0  0  0  0  0  0
  -27.8110  -16.6600   15.2512 H   0  0  0  0  0  0
  -26.1963  -16.6085   15.9670 H   0  0  0  0  0  0
  -31.5801  -19.2505   18.5861 H   0  0  0  0  0  0
  -31.5455  -17.5033   18.7825 H   0  0  0  0  0  0
  -32.2595  -18.5116   20.0289 H   0  0  0  0  0  0
  -30.0778  -22.7224   21.9577 H   0  0  0  0  0  0
  -28.4515  -23.3160   22.2946 H   0  0  0  0  0  0
  -29.7948  -24.4451   22.1500 H   0  0  0  0  0  0
  -29.1339  -17.4974   21.6851 H   0  0  0  0  0  0
  -30.8473  -17.3235   21.7129 H   0  0  0  0  0  0
  -27.1561  -24.6289   20.4793 H   0  0  0  0  0  0
  -27.8226  -24.8105   18.8784 H   0  0  0  0  0  0
  -30.0508  -23.9643   19.7739 H   0  0  0  0  0  0
  -28.8027  -15.5698   20.6525 H   0  0  0  0  0  0
  1 25  1  0  0  0
  1 30  2  0  0  0
  1 88  1  0  0  0
  2  3  1  0  0  0
  2 25  1  0  0  0
  2 89  1  0  0  0
  2 90  1  0  0  0
  3  4  1  0  0  0
  3 91  1  0  0  0
  3 92  1  0  0  0
  4  5  1  0  0  0
  4 93  1  0  0  0
  4 94  1  0  0  0
  5  6  1  0  0  0
  5 26  1  0  0  0
  5 95  1  0  0  0
  6 25  1  0  0  0
  6 96  1  0  0  0
  6 97  1  0  0  0
  7  8  2  0  0  0
  7 26  1  0  0  0
  7 29  1  0  0  0
  8  9  1  0  0  0
  8 22  1  0  0  0
  9 10  1  0  0  0
  9 27  2  0  0  0
 10 11  2  0  0  0
 10 15  1  0  0  0
 11 12  1  0  0  0
 11 98  1  0  0  0
 12 13  2  0  0  0
 12 99  1  0  0  0
 13 14  1  0  0  0
 13 31  1  0  0  0
 14 15  2  0  0  0
 14100  1  0  0  0
 15101  1  0  0  0
 16 17  2  0  0  0
 16 21  1  0  0  0
 16 31  1  0  0  0
 17 18  1  0  0  0
 17102  1  0  0  0
 18 19  2  0  0  0
 18103  1  0  0  0
 19 20  1  0  0  0
 19 24  1  0  0  0
 20 21  2  0  0  0
 20104  1  0  0  0
 21 23  1  0  0  0
 22 28  1  0  0  0
 22 32  2  0  0  0
 26 27  1  0  0  0
 28105  1  0  0  0
 28106  1  0  0  0
 29107  1  0  0  0
 29108  1  0  0  0
 33 34  1  0  0  0
 33 66  1  0  0  0
 33 70  2  0  0  0
 34 36  1  0  0  0
 34 59  1  0  0  0
 34109  1  0  0  0
 35 44  2  0  0  0
 35 45  1  0  0  0
 35 68  1  0  0  0
 36 56  1  0  0  0
 36110  1  0  0  0
 37 39  1  0  0  0
 37 47  1  0  0  0
 37 66  1  0  0  0
 37111  1  0  0  0
 38 43  2  0  0  0
 38 46  1  0  0  0
 38 47  1  0  0  0
 39 64  1  0  0  0
 39 67  2  0  0  0
 40 52  1  0  0  0
 40 53  2  0  0  0
 40 58  1  0  0  0
 41112  1  0  0  0
 41113  1  0  0  0
 41114  1  0  0  0
 41 48  1  0  0  0
 42 43  1  0  0  0
 42 66  1  0  0  0
 42115  1  0  0  0
 42116  1  0  0  0
 43 44  1  0  0  0
 44117  1  0  0  0
 45 46  2  0  0  0
 45118  1  0  0  0
 46119  1  0  0  0
 47120  1  0  0  0
 47121  1  0  0  0
 48 56  1  0  0  0
 48 65  1  0  0  0
 48122  1  0  0  0
 49 50  1  0  0  0
 49 53  1  0  0  0
 49 64  1  0  0  0
 49123  1  0  0  0
 50 51  1  0  0  0
 50124  1  0  0  0
 50125  1  0  0  0
 51 52  1  0  0  0
 51126  1  0  0  0
 51127  1  0  0  0
 52128  1  0  0  0
 52129  1  0  0  0
 53 54  1  0  0  0
 54 55  2  0  0  0
 54130  1  0  0  0
 55 57  1  0  0  0
 55131  1  0  0  0
 56 69  2  0  0  0
 57 58  2  0  0  0
 57132  1  0  0  0
 58133  1  0  0  0
 59 60  1  0  0  0
 59 61  1  0  0  0
 59 62  1  0  0  0
 60134  1  0  0  0
 60135  1  0  0  0
 60136  1  0  0  0
 61137  1  0  0  0
 61138  1  0  0  0
 61139  1  0  0  0
 62140  1  0  0  0
 62141  1  0  0  0
 62142  1  0  0  0
 63 65  1  0  0  0
 63143  1  0  0  0
 63144  1  0  0  0
 63145  1  0  0  0
 64146  1  0  0  0
 65147  1  0  0  0
 68 86  1  0  0  0
 71 73  2  0  0  0
 71 75  1  0  0  0
 71148  1  0  0  0
 72 74  2  0  0  0
 72 76  1  0  0  0
 72149  1  0  0  0
 73 74  1  0  0  0
 73 77  1  0  0  0
 74 80  1  0  0  0
 75 76  2  0  0  0
 75 81  1  0  0  0
 76 82  1  0  0  0
 77 78  2  0  0  0
 77 79  1  0  0  0
 78 87  1  0  0  0
 78150  1  0  0  0
 79 80  1  0  0  0
 79151  1  0  0  0
 79152  1  0  0  0
 80 83  1  0  0  0
 80 85  1  0  0  0
 81153  1  0  0  0
 81154  1  0  0  0
 81155  1  0  0  0
 82156  1  0  0  0
 82157  1  0  0  0
 82158  1  0  0  0
 83159  1  0  0  0
 83160  1  0  0  0
 83161  1  0  0  0
 84162  1  0  0  0
 84163  1  0  0  0
 84164  1  0  0  0
 84 87  1  0  0  0
 85 88  1  0  0  0
 85165  1  0  0  0
 85166  1  0  0  0
 86 87  1  0  0  0
 86167  1  0  0  0
 86168  1  0  0  0
 87169  1  0  0  0
 88170  1  0  0  0
M  ISO  4   1 100  68 101  86 101  88 100
M  END
> <chiral flag>
0

> <version>
0

> <s_m_source_file>
/data/baiqing/PycharmProjects/Reinvent-master-3.2/result/LINK_invent/BTK/process_docking_weight1_custom_sum_contain_oxygen_bond_distance_aromatic_linkinvent_7_9_3/rearranged_h_0163.sdf

> <i_m_source_file_index>
6

> <r_mmod_Potential_Energy-OPLS-2005>
199.348220825195

> <r_mmod_Stretch_Energy-OPLS-2005>
126.038864135742

> <r_mmod_Bend_Energy-OPLS-2005>
257.265655517578

> <r_mmod_Torsional_Energy-OPLS-2005>
226.340621948242

> <r_mmod_Improper_Torsional_Energy-OPLS-2005>
5.21264696121216

> <r_mmod_Van_der_Waal_Energy-OPLS-2005>
129.644485473633

> <r_mmod_Electrostatic_Energy-OPLS-2005>
-434.848754882812

> <r_mmod_Solvation_Energy-OPLS-2005>
-198.682479858398

> <b_mmod_Minimization_Converged-OPLS-2005>
0

> <r_mmod_RMS_Derivative-OPLS-2005>
3.58043909072876

$$$$
6
                    3D
 Structure written by MMmdl.
182192  0  0  1  0            999 V2000
  -30.5850  -14.9874   20.3132 C   0  0  0  0  0  0
  -30.4363  -12.6219   19.4283 C   0  0  0  0  0  0
  -29.4955  -12.4951   18.2137 C   0  0  0  0  0  0
  -28.0422  -12.2719   18.6753 C   0  0  0  0  0  0
  -27.6203  -13.2243   19.8233 C   0  0  2  0  0  0
  -28.6935  -13.3425   20.9209 C   0  0  0  0  0  0
  -25.2429  -13.8060   20.5979 C   0  0  0  0  0  0
  -24.1707  -13.0308   20.9290 C   0  0  0  0  0  0
  -24.6337  -11.6817   20.8775 C   0  0  0  0  0  0
  -23.9034  -10.4216   21.0416 C   0  0  0  0  0  0
  -24.3576   -9.4139   21.9200 C   0  0  0  0  0  0
  -23.6254   -8.2177   22.0748 C   0  0  0  0  0  0
  -22.4238   -8.0233   21.3535 C   0  0  0  0  0  0
  -21.9880   -9.0203   20.4634 C   0  0  0  0  0  0
  -22.7218  -10.2072   20.3050 C   0  0  0  0  0  0
  -21.6833   -6.0716   22.5289 C   0  0  0  0  0  0
  -21.4013   -6.5634   23.8226 C   0  0  0  0  0  0
  -21.3644   -5.6783   24.9185 C   0  0  0  0  0  0
  -21.6029   -4.3049   24.7233 C   0  0  0  0  0  0
  -21.8830   -3.8138   23.4362 C   0  0  0  0  0  0
  -21.9186   -4.6947   22.3412 C   0  0  0  0  0  0
  -22.7731  -13.5126   21.1898 C   0  0  0  0  0  0
  -22.1677   -4.2141   21.0993 F   0  0  0  0  0  0
  -21.5599   -3.4535   25.7747 F   0  0  0  0  0  0
  -29.9273  -13.7601   20.2360 N   0  0  0  0  0  0
  -26.2869  -12.9312   20.3365 N   0  0  0  0  0  0
  -25.9266  -11.6451   20.5757 N   0  0  0  0  0  0
  -22.0338  -12.8144   22.0434 N   0  0  0  0  0  0
  -25.3914  -15.1798   20.4847 N   0  0  0  0  0  0
  -31.8152  -14.9139   20.4026 O   0  0  0  0  0  0
  -21.6591   -6.8843   21.4246 O   0  0  0  0  0  0
  -22.3441  -14.5442   20.6737 O   0  0  0  0  0  0
  -24.6435  -31.8435   23.1884 C   0  0  0  0  0  0
  -25.9210  -32.4689   23.8273 C   0  0  1  0  0  0
  -27.2257  -27.1483   20.1419 C   0  0  0  0  0  0
  -25.5958  -33.8494   24.2188 N   0  0  0  0  0  0
  -23.4458  -30.4622   21.5337 C   0  0  2  0  0  0
  -24.8968  -28.8906   20.1095 C   0  0  0  0  0  0
  -22.7560  -29.4541   22.4872 C   0  0  0  0  0  0
  -18.0292  -28.1392   22.8479 C   0  0  0  0  0  0
  -24.1489  -36.7255   23.2642 C   0  0  0  0  0  0
  -26.0011  -30.7204   21.3852 C   0  0  0  0  0  0
  -26.0737  -29.3320   20.7283 C   0  0  0  0  0  0
  -27.2373  -28.4756   20.7309 C   0  0  0  0  0  0
  -26.0205  -26.8070   19.4866 C   0  0  0  0  0  0
  -24.8823  -27.6401   19.4751 C   0  0  0  0  0  0
  -23.6718  -29.7897   20.1532 C   0  0  0  0  0  0
  -25.4117  -36.3022   24.0317 C   0  0  1  0  0  0
  -20.5908  -28.3707   23.1246 C   0  0  2  0  0  0
  -20.6776  -26.9415   22.5406 C   0  0  0  0  0  0
  -19.5753  -26.6377   21.5212 C   0  0  0  0  0  0
  -18.1930  -26.7933   22.1618 C   0  0  0  0  0  0
  -19.1550  -28.8869   23.2849 C   0  0  0  0  0  0
  -18.9469  -30.1466   23.8870 C   0  0  0  0  0  0
  -17.6464  -30.6591   24.0551 C   0  0  0  0  0  0
  -25.9072  -34.9400   23.5059 C   0  0  0  0  0  0
  -16.5352  -29.9081   23.6337 C   0  0  0  0  0  0
  -16.7276  -28.6499   23.0361 C   0  0  0  0  0  0
  -26.4535  -31.6554   25.0713 C   0  0  0  0  0  0
  -25.3721  -31.3743   26.1411 C   0  0  0  0  0  0
  -27.0404  -30.2949   24.6291 C   0  0  0  0  0  0
  -27.6054  -32.4322   25.7513 C   0  0  0  0  0  0
  -27.5573  -37.1779   24.8457 C   0  0  0  0  0  0
  -21.4253  -29.3040   22.3628 N   0  0  0  0  0  0
  -26.4275  -37.3737   23.9418 N   0  0  0  0  0  0
  -24.7162  -31.0299   22.0910 N   0  0  0  0  0  0
  -23.4209  -28.8086   23.3009 O   0  0  0  0  0  0
  -28.2863  -26.1719   20.2072 O   0  0  0  0  0  0
  -26.5653  -34.8901   22.4635 O   0  0  0  0  0  0
  -23.5555  -32.1310   23.7104 O   0  0  0  0  0  0
  -31.0104  -16.7132   17.7597 C   0  0  0  0  0  0
  -31.0333  -16.6266   16.3442 C   0  0  0  0  0  0
  -29.8197  -16.3981   15.6423 C   0  0  0  0  0  0
  -28.6001  -16.3234   16.3674 C   0  0  0  0  0  0
  -28.6184  -16.3371   17.7848 C   0  0  0  0  0  0
  -29.8492  -16.3469   18.4826 C   0  0  0  0  0  0
  -32.1849  -17.3083   18.5418 C   0  0  0  0  0  0
  -31.7828  -17.9720   19.8948 C   0  0  0  0  0  0
  -29.5874  -21.2543   21.6551 C   0  0  0  0  0  0
  -28.7188  -21.8529   19.5486 C   0  0  0  0  0  0
  -29.6178  -20.6744   20.2183 C   0  0  2  0  0  0
  -29.2514  -22.8102   21.6424 C   0  0  2  0  0  0
  -29.0224  -23.3200   20.1876 C   0  0  2  0  0  0
  -30.3298  -17.6996   20.3854 C   0  0  1  0  0  0
  -32.3499  -16.7904   15.5860 C   0  0  0  0  0  0
  -29.7894  -16.3264   14.1155 C   0  0  0  0  0  0
  -27.2523  -16.2608   15.6485 C   0  0  0  0  0  0
  -27.3180  -16.5455   18.5335 C   0  0  0  0  0  0
  -30.3122  -23.6393   22.3802 C   0  0  0  0  0  0
  -29.3426  -19.0218   19.9939 C   0  0  0  0  0  0
  -28.0257  -24.6622   19.9491 C   0  0  0  0  0  0
  -29.9755  -16.2377   19.9086 N   0  0  0  0  0  0
  -31.4552  -12.7981   19.0801 H   0  0  0  0  0  0
  -30.4619  -11.6984   20.0088 H   0  0  0  0  0  0
  -29.8156  -11.6737   17.5710 H   0  0  0  0  0  0
  -29.5508  -13.4001   17.6057 H   0  0  0  0  0  0
  -27.9682  -11.2409   19.0216 H   0  0  0  0  0  0
  -27.3544  -12.3624   17.8332 H   0  0  0  0  0  0
  -27.5569  -14.1953   19.3584 H   0  0  0  0  0  0
  -28.8259  -12.4034   21.4586 H   0  0  0  0  0  0
  -28.4027  -14.0951   21.6544 H   0  0  0  0  0  0
  -25.2701   -9.5615   22.4806 H   0  0  0  0  0  0
  -23.9955   -7.4554   22.7462 H   0  0  0  0  0  0
  -21.0811   -8.8724   19.8938 H   0  0  0  0  0  0
  -22.3685  -10.9615   19.6165 H   0  0  0  0  0  0
  -21.2028   -7.6143   23.9738 H   0  0  0  0  0  0
  -21.1458   -6.0507   25.9091 H   0  0  0  0  0  0
  -22.0623   -2.7602   23.2860 H   0  0  0  0  0  0
  -22.3944  -11.9837   22.4880 H   0  0  0  0  0  0
  -21.0948  -13.1179   22.2597 H   0  0  0  0  0  0
  -24.6130  -15.8140   20.6243 H   0  0  0  0  0  0
  -26.2539  -15.6495   20.2499 H   0  0  0  0  0  0
  -26.7284  -32.5302   23.1008 H   0  0  0  0  0  0
  -25.0088  -33.9598   25.0326 H   0  0  0  0  0  0
  -22.7480  -31.2876   21.3780 H   0  0  0  0  0  0
  -23.3754  -35.9583   23.3264 H   0  0  0  0  0  0
  -24.3581  -36.8924   22.2064 H   0  0  0  0  0  0
  -23.7236  -37.6437   23.6704 H   0  0  0  0  0  0
  -26.1523  -31.4727   20.6097 H   0  0  0  0  0  0
  -26.8736  -30.7737   22.0248 H   0  0  0  0  0  0
  -28.1314  -28.8063   21.2410 H   0  0  0  0  0  0
  -25.9212  -25.8530   18.9914 H   0  0  0  0  0  0
  -23.9842  -27.2937   18.9814 H   0  0  0  0  0  0
  -23.8044  -30.5626   19.3955 H   0  0  0  0  0  0
  -22.7886  -29.2276   19.8448 H   0  0  0  0  0  0
  -25.1302  -36.1842   25.0808 H   0  0  0  0  0  0
  -20.9986  -28.3282   24.1374 H   0  0  0  0  0  0
  -20.5657  -26.2318   23.3615 H   0  0  0  0  0  0
  -21.6639  -26.7416   22.1206 H   0  0  0  0  0  0
  -19.6907  -25.6281   21.1258 H   0  0  0  0  0  0
  -19.6702  -27.3171   20.6730 H   0  0  0  0  0  0
  -17.4205  -26.6674   21.4017 H   0  0  0  0  0  0
  -18.0325  -26.0078   22.9015 H   0  0  0  0  0  0
  -19.7948  -30.7284   24.2229 H   0  0  0  0  0  0
  -17.5022  -31.6275   24.5145 H   0  0  0  0  0  0
  -15.5353  -30.2974   23.7682 H   0  0  0  0  0  0
  -15.8673  -28.0807   22.7097 H   0  0  0  0  0  0
  -24.5914  -30.7070   25.7743 H   0  0  0  0  0  0
  -24.8899  -32.2927   26.4772 H   0  0  0  0  0  0
  -25.8013  -30.8972   27.0228 H   0  0  0  0  0  0
  -26.3027  -29.6668   24.1284 H   0  0  0  0  0  0
  -27.4003  -29.7249   25.4866 H   0  0  0  0  0  0
  -27.8939  -30.4183   23.9619 H   0  0  0  0  0  0
  -27.2632  -33.3634   26.2037 H   0  0  0  0  0  0
  -28.3908  -32.6855   25.0381 H   0  0  0  0  0  0
  -28.0678  -31.8483   26.5478 H   0  0  0  0  0  0
  -28.2553  -38.0108   24.7526 H   0  0  0  0  0  0
  -28.1100  -36.2636   24.6245 H   0  0  0  0  0  0
  -27.2297  -37.1378   25.8858 H   0  0  0  0  0  0
  -20.9454  -29.8784   21.6841 H   0  0  0  0  0  0
  -26.0133  -38.2801   24.1426 H   0  0  0  0  0  0
  -32.6743  -18.0744   17.9394 H   0  0  0  0  0  0
  -32.9302  -16.5279   18.6989 H   0  0  0  0  0  0
  -31.9522  -19.0459   19.8319 H   0  0  0  0  0  0
  -32.4886  -17.6313   20.6537 H   0  0  0  0  0  0
  -30.5324  -21.0477   22.1592 H   0  0  0  0  0  0
  -28.8215  -20.7354   22.2341 H   0  0  0  0  0  0
  -27.6650  -21.6200   19.7131 H   0  0  0  0  0  0
  -28.8546  -21.8718   18.4671 H   0  0  0  0  0  0
  -30.6210  -20.8587   19.8350 H   0  0  0  0  0  0
  -28.3099  -22.9344   22.1807 H   0  0  0  0  0  0
  -29.9936  -23.6030   19.7773 H   0  0  0  0  0  0
  -30.3594  -17.6619   21.4750 H   0  0  0  0  0  0
  -33.2271  -16.7556   16.2305 H   0  0  0  0  0  0
  -32.3699  -17.7333   15.0397 H   0  0  0  0  0  0
  -32.4893  -15.9744   14.8774 H   0  0  0  0  0  0
  -30.7624  -16.3099   13.6319 H   0  0  0  0  0  0
  -29.2583  -17.1901   13.7150 H   0  0  0  0  0  0
  -29.2689  -15.4251   13.7899 H   0  0  0  0  0  0
  -27.3101  -16.2816   14.5629 H   0  0  0  0  0  0
  -26.6347  -17.1112   15.9339 H   0  0  0  0  0  0
  -26.7215  -15.3488   15.9222 H   0  0  0  0  0  0
  -26.5637  -15.8206   18.2307 H   0  0  0  0  0  0
  -26.9283  -17.5393   18.3119 H   0  0  0  0  0  0
  -27.4621  -16.5045   19.6106 H   0  0  0  0  0  0
  -31.2904  -23.5365   21.9085 H   0  0  0  0  0  0
  -30.4092  -23.3213   23.4189 H   0  0  0  0  0  0
  -30.0530  -24.6983   22.3809 H   0  0  0  0  0  0
  -29.1647  -18.9396   18.9221 H   0  0  0  0  0  0
  -28.3668  -18.8147   20.4333 H   0  0  0  0  0  0
  -27.0855  -24.4243   20.4478 H   0  0  0  0  0  0
  -27.7955  -24.6246   18.8838 H   0  0  0  0  0  0
  1 25  1  0  0  0
  1 30  2  0  0  0
  1 92  1  0  0  0
  2  3  1  0  0  0
  2 25  1  0  0  0
  2 93  1  0  0  0
  2 94  1  0  0  0
  3  4  1  0  0  0
  3 95  1  0  0  0
  3 96  1  0  0  0
  4  5  1  0  0  0
  4 97  1  0  0  0
  4 98  1  0  0  0
  5  6  1  0  0  0
  5 26  1  0  0  0
  5 99  1  0  0  0
  6 25  1  0  0  0
  6100  1  0  0  0
  6101  1  0  0  0
  7  8  2  0  0  0
  7 26  1  0  0  0
  7 29  1  0  0  0
  8  9  1  0  0  0
  8 22  1  0  0  0
  9 10  1  0  0  0
  9 27  2  0  0  0
 10 11  2  0  0  0
 10 15  1  0  0  0
 11 12  1  0  0  0
 11102  1  0  0  0
 12 13  2  0  0  0
 12103  1  0  0  0
 13 14  1  0  0  0
 13 31  1  0  0  0
 14 15  2  0  0  0
 14104  1  0  0  0
 15105  1  0  0  0
 16 17  2  0  0  0
 16 21  1  0  0  0
 16 31  1  0  0  0
 17 18  1  0  0  0
 17106  1  0  0  0
 18 19  2  0  0  0
 18107  1  0  0  0
 19 20  1  0  0  0
 19 24  1  0  0  0
 20 21  2  0  0  0
 20108  1  0  0  0
 21 23  1  0  0  0
 22 28  1  0  0  0
 22 32  2  0  0  0
 26 27  1  0  0  0
 28109  1  0  0  0
 28110  1  0  0  0
 29111  1  0  0  0
 29112  1  0  0  0
 33 34  1  0  0  0
 33 66  1  0  0  0
 33 70  2  0  0  0
 34 36  1  0  0  0
 34 59  1  0  0  0
 34113  1  0  0  0
 35 44  2  0  0  0
 35 45  1  0  0  0
 35 68  1  0  0  0
 36 56  1  0  0  0
 36114  1  0  0  0
 37 39  1  0  0  0
 37 47  1  0  0  0
 37 66  1  0  0  0
 37115  1  0  0  0
 38 43  2  0  0  0
 38 46  1  0  0  0
 38 47  1  0  0  0
 39 64  1  0  0  0
 39 67  2  0  0  0
 40 52  1  0  0  0
 40 53  2  0  0  0
 40 58  1  0  0  0
 41116  1  0  0  0
 41117  1  0  0  0
 41118  1  0  0  0
 41 48  1  0  0  0
 42 43  1  0  0  0
 42 66  1  0  0  0
 42119  1  0  0  0
 42120  1  0  0  0
 43 44  1  0  0  0
 44121  1  0  0  0
 45 46  2  0  0  0
 45122  1  0  0  0
 46123  1  0  0  0
 47124  1  0  0  0
 47125  1  0  0  0
 48 56  1  0  0  0
 48 65  1  0  0  0
 48126  1  0  0  0
 49 50  1  0  0  0
 49 53  1  0  0  0
 49 64  1  0  0  0
 49127  1  0  0  0
 50 51  1  0  0  0
 50128  1  0  0  0
 50129  1  0  0  0
 51 52  1  0  0  0
 51130  1  0  0  0
 51131  1  0  0  0
 52132  1  0  0  0
 52133  1  0  0  0
 53 54  1  0  0  0
 54 55  2  0  0  0
 54134  1  0  0  0
 55 57  1  0  0  0
 55135  1  0  0  0
 56 69  2  0  0  0
 57 58  2  0  0  0
 57136  1  0  0  0
 58137  1  0  0  0
 59 60  1  0  0  0
 59 61  1  0  0  0
 59 62  1  0  0  0
 60138  1  0  0  0
 60139  1  0  0  0
 60140  1  0  0  0
 61141  1  0  0  0
 61142  1  0  0  0
 61143  1  0  0  0
 62144  1  0  0  0
 62145  1  0  0  0
 62146  1  0  0  0
 63 65  1  0  0  0
 63147  1  0  0  0
 63148  1  0  0  0
 63149  1  0  0  0
 64150  1  0  0  0
 65151  1  0  0  0
 68 91  1  0  0  0
 71 72  2  0  0  0
 71 76  1  0  0  0
 71 77  1  0  0  0
 72 73  1  0  0  0
 72 85  1  0  0  0
 73 74  2  0  0  0
 73 86  1  0  0  0
 74 75  1  0  0  0
 74 87  1  0  0  0
 75 76  2  0  0  0
 75 88  1  0  0  0
 76 92  1  0  0  0
 77 78  1  0  0  0
 77152  1  0  0  0
 77153  1  0  0  0
 78 84  1  0  0  0
 78154  1  0  0  0
 78155  1  0  0  0
 79 81  1  0  0  0
 79 82  1  0  0  0
 79156  1  0  0  0
 79157  1  0  0  0
 80 81  1  0  0  0
 80 83  1  0  0  0
 80158  1  0  0  0
 80159  1  0  0  0
 81 90  1  0  0  0
 81160  1  0  0  0
 82 83  1  0  0  0
 82 89  1  0  0  0
 82161  1  0  0  0
 83 91  1  0  0  0
 83162  1  0  0  0
 84 90  1  0  0  0
 84 92  1  0  0  0
 84163  1  0  0  0
 85164  1  0  0  0
 85165  1  0  0  0
 85166  1  0  0  0
 86167  1  0  0  0
 86168  1  0  0  0
 86169  1  0  0  0
 87170  1  0  0  0
 87171  1  0  0  0
 87172  1  0  0  0
 88173  1  0  0  0
 88174  1  0  0  0
 88175  1  0  0  0
 89176  1  0  0  0
 89177  1  0  0  0
 89178  1  0  0  0
 90179  1  0  0  0
 90180  1  0  0  0
 91181  1  0  0  0
 91182  1  0  0  0
M  ISO  4   1 100  68 101  91 101  92 100
M  END
> <chiral flag>
0

> <version>
0

> <s_m_source_file>
/data/baiqing/PycharmProjects/Reinvent-master-3.2/result/LINK_invent/BTK/process_docking_weight1_custom_sum_contain_oxygen_bond_distance_aromatic_linkinvent_7_9_3/rearranged_h_0163.sdf

> <i_m_source_file_index>
7

> <r_mmod_Potential_Energy-OPLS-2005>
913.385375976562

> <r_mmod_Stretch_Energy-OPLS-2005>
264.089599609375

> <r_mmod_Bend_Energy-OPLS-2005>
330.157409667969

> <r_mmod_Torsional_Energy-OPLS-2005>
416.979675292969

> <r_mmod_Improper_Torsional_Energy-OPLS-2005>
17.9612159729004

> <r_mmod_Van_der_Waal_Energy-OPLS-2005>
152.4716796875

> <r_mmod_Electrostatic_Energy-OPLS-2005>
-314.049438476562

> <r_mmod_Solvation_Energy-OPLS-2005>
-176.600204467773

> <b_mmod_Minimization_Converged-OPLS-2005>
0

> <r_mmod_RMS_Derivative-OPLS-2005>
2.10342812538147

$$$$
7
                    3D
 Structure written by MMmdl.
166175  0  0  1  0            999 V2000
  -30.6781  -14.7134   20.4683 C   0  0  0  0  0  0
  -30.4207  -12.4421   19.4720 C   0  0  0  0  0  0
  -29.5034  -12.5005   18.2335 C   0  0  0  0  0  0
  -28.0307  -12.3331   18.6506 C   0  0  0  0  0  0
  -27.6394  -13.2388   19.8486 C   0  0  2  0  0  0
  -28.6885  -13.1997   20.9818 C   0  0  0  0  0  0
  -25.2509  -13.8218   20.5735 C   0  0  0  0  0  0
  -24.1794  -13.0453   20.9212 C   0  0  0  0  0  0
  -24.6393  -11.6934   20.8738 C   0  0  0  0  0  0
  -23.9077  -10.4304   21.0396 C   0  0  0  0  0  0
  -24.3620   -9.4223   21.9181 C   0  0  0  0  0  0
  -23.6293   -8.2255   22.0754 C   0  0  0  0  0  0
  -22.4275   -8.0286   21.3548 C   0  0  0  0  0  0
  -21.9917   -9.0258   20.4644 C   0  0  0  0  0  0
  -22.7243  -10.2139   20.3054 C   0  0  0  0  0  0
  -21.6864   -6.0739   22.5273 C   0  0  0  0  0  0
  -21.4018   -6.5645   23.8203 C   0  0  0  0  0  0
  -21.3658   -5.6797   24.9170 C   0  0  0  0  0  0
  -21.6040   -4.3058   24.7224 C   0  0  0  0  0  0
  -21.8823   -3.8152   23.4342 C   0  0  0  0  0  0
  -21.9198   -4.6967   22.3399 C   0  0  0  0  0  0
  -22.7814  -13.5222   21.1863 C   0  0  0  0  0  0
  -22.1667   -4.2153   21.0977 F   0  0  0  0  0  0
  -21.5624   -3.4541   25.7736 F   0  0  0  0  0  0
  -29.9899  -13.5233   20.3881 N   0  0  0  0  0  0
  -26.2940  -12.9439   20.3324 N   0  0  0  0  0  0
  -25.9337  -11.6571   20.5772 N   0  0  0  0  0  0
  -22.0467  -12.8206   22.0411 N   0  0  0  0  0  0
  -25.4224  -15.1945   20.4191 N   0  0  0  0  0  0
  -31.8763  -14.7383   20.1723 O   0  0  0  0  0  0
  -21.6645   -6.8881   21.4234 O   0  0  0  0  0  0
  -22.3507  -14.5534   20.6714 O   0  0  0  0  0  0
  -24.6350  -31.8575   23.2036 C   0  0  0  0  0  0
  -25.9181  -32.4768   23.8357 C   0  0  1  0  0  0
  -27.1984  -27.2587   20.1181 C   0  0  0  0  0  0
  -25.5971  -33.8573   24.2274 N   0  0  0  0  0  0
  -23.4282  -30.4892   21.5478 C   0  0  2  0  0  0
  -24.8701  -28.9518   20.1076 C   0  0  0  0  0  0
  -22.7527  -29.4630   22.4901 C   0  0  0  0  0  0
  -18.0301  -28.1386   22.8484 C   0  0  0  0  0  0
  -24.1484  -36.7282   23.2631 C   0  0  0  0  0  0
  -25.9806  -30.7674   21.3892 C   0  0  0  0  0  0
  -26.0474  -29.3966   20.7232 C   0  0  0  0  0  0
  -27.2168  -28.5637   20.7200 C   0  0  0  0  0  0
  -25.9975  -26.9095   19.4492 C   0  0  0  0  0  0
  -24.8519  -27.7161   19.4587 C   0  0  0  0  0  0
  -23.6447  -29.8399   20.1593 C   0  0  0  0  0  0
  -25.4113  -36.3072   24.0321 C   0  0  1  0  0  0
  -20.5911  -28.3704   23.1253 C   0  0  2  0  0  0
  -20.6781  -26.9413   22.5405 C   0  0  0  0  0  0
  -19.5744  -26.6377   21.5217 C   0  0  0  0  0  0
  -18.1927  -26.7928   22.1623 C   0  0  0  0  0  0
  -19.1560  -28.8865   23.2856 C   0  0  0  0  0  0
  -18.9474  -30.1460   23.8874 C   0  0  0  0  0  0
  -17.6470  -30.6580   24.0568 C   0  0  0  0  0  0
  -25.9063  -34.9447   23.5094 C   0  0  0  0  0  0
  -16.5361  -29.9081   23.6336 C   0  0  0  0  0  0
  -16.7287  -28.6504   23.0351 C   0  0  0  0  0  0
  -26.4518  -31.6587   25.0751 C   0  0  0  0  0  0
  -25.3720  -31.3749   26.1461 C   0  0  0  0  0  0
  -27.0385  -30.3001   24.6260 C   0  0  0  0  0  0
  -27.6059  -32.4346   25.7522 C   0  0  0  0  0  0
  -27.5572  -37.1794   24.8461 C   0  0  0  0  0  0
  -21.4234  -29.3051   22.3646 N   0  0  0  0  0  0
  -26.4281  -37.3781   23.9413 N   0  0  0  0  0  0
  -24.7005  -31.0562   22.1013 N   0  0  0  0  0  0
  -23.4235  -28.8146   23.2974 O   0  0  0  0  0  0
  -28.2471  -26.3032   20.2027 O   0  0  0  0  0  0
  -26.5610  -34.8915   22.4646 O   0  0  0  0  0  0
  -23.5506  -32.1395   23.7345 O   0  0  0  0  0  0
  -28.9822  -21.3397   21.5408 C   0  0  0  0  0  0
  -29.4842  -20.6717   20.3906 C   0  0  0  0  0  0
  -28.5940  -22.7209   21.5534 C   0  0  0  0  0  0
  -29.6584  -21.5273   19.2492 C   0  0  0  0  0  0
  -29.2520  -22.9160   19.2467 C   0  0  0  0  0  0
  -28.6556  -23.5444   20.3850 C   0  0  0  0  0  0
  -29.9586  -18.3489   21.7536 C   0  0  0  0  0  0
  -29.0497  -18.1377   19.5451 C   0  0  0  0  0  0
  -30.5685  -16.8873   21.6537 C   0  0  0  0  0  0
  -29.6548  -16.6817   19.4063 C   0  0  0  0  0  0
  -29.8984  -19.1182   20.4039 C   0  0  0  0  0  0
  -28.0619  -23.2807   22.8631 C   0  0  0  0  0  0
  -30.2748  -20.9668   17.9689 C   0  0  0  0  0  0
  -29.4129  -23.7321   17.9642 C   0  0  0  0  0  0
  -27.7774  -24.8732   20.2535 C   0  0  0  0  0  0
  -30.0054  -15.9242   20.6496 N   0  0  0  0  0  0
  -31.4640  -12.5391   19.1667 H   0  0  0  0  0  0
  -30.3458  -11.4725   19.9656 H   0  0  0  0  0  0
  -29.7812  -11.7230   17.5209 H   0  0  0  0  0  0
  -29.6354  -13.4526   17.7172 H   0  0  0  0  0  0
  -27.8833  -11.2852   18.9151 H   0  0  0  0  0  0
  -27.3741  -12.5263   17.8011 H   0  0  0  0  0  0
  -27.6246  -14.2555   19.4586 H   0  0  0  0  0  0
  -28.7184  -12.2195   21.4580 H   0  0  0  0  0  0
  -28.4335  -13.9187   21.7616 H   0  0  0  0  0  0
  -25.2766   -9.5706   22.4758 H   0  0  0  0  0  0
  -24.0005   -7.4660   22.7475 H   0  0  0  0  0  0
  -21.0859   -8.8775   19.8950 H   0  0  0  0  0  0
  -22.3698  -10.9677   19.6160 H   0  0  0  0  0  0
  -21.2009   -7.6152   23.9713 H   0  0  0  0  0  0
  -21.1472   -6.0526   25.9073 H   0  0  0  0  0  0
  -22.0601   -2.7614   23.2842 H   0  0  0  0  0  0
  -22.4087  -11.9858   22.4773 H   0  0  0  0  0  0
  -21.1082  -13.1223   22.2614 H   0  0  0  0  0  0
  -24.6608  -15.8535   20.5401 H   0  0  0  0  0  0
  -26.2891  -15.6363   20.1408 H   0  0  0  0  0  0
  -26.7250  -32.5393   23.1093 H   0  0  0  0  0  0
  -25.0173  -33.9702   25.0457 H   0  0  0  0  0  0
  -22.7239  -31.3129   21.4130 H   0  0  0  0  0  0
  -23.3745  -35.9614   23.3301 H   0  0  0  0  0  0
  -24.3560  -36.8909   22.2042 H   0  0  0  0  0  0
  -23.7250  -37.6486   23.6664 H   0  0  0  0  0  0
  -26.1324  -31.5291   20.6235 H   0  0  0  0  0  0
  -26.8542  -30.8040   22.0277 H   0  0  0  0  0  0
  -28.1108  -28.8928   21.2294 H   0  0  0  0  0  0
  -25.8741  -25.9884   18.9072 H   0  0  0  0  0  0
  -23.9557  -27.3738   18.9586 H   0  0  0  0  0  0
  -23.7746  -30.6235   19.4127 H   0  0  0  0  0  0
  -22.7608  -29.2803   19.8461 H   0  0  0  0  0  0
  -25.1299  -36.1906   25.0816 H   0  0  0  0  0  0
  -20.9993  -28.3275   24.1374 H   0  0  0  0  0  0
  -20.5680  -26.2303   23.3611 H   0  0  0  0  0  0
  -21.6644  -26.7429   22.1183 H   0  0  0  0  0  0
  -19.6893  -25.6288   21.1238 H   0  0  0  0  0  0
  -19.6675  -27.3193   20.6754 H   0  0  0  0  0  0
  -17.4198  -26.6697   21.4018 H   0  0  0  0  0  0
  -18.0299  -26.0068   22.9015 H   0  0  0  0  0  0
  -19.7954  -30.7288   24.2206 H   0  0  0  0  0  0
  -17.5032  -31.6248   24.5181 H   0  0  0  0  0  0
  -15.5359  -30.2974   23.7672 H   0  0  0  0  0  0
  -15.8689  -28.0824   22.7059 H   0  0  0  0  0  0
  -24.5918  -30.7078   25.7787 H   0  0  0  0  0  0
  -24.8875  -32.2919   26.4825 H   0  0  0  0  0  0
  -25.8007  -30.8974   27.0280 H   0  0  0  0  0  0
  -26.2997  -29.6723   24.1265 H   0  0  0  0  0  0
  -27.4047  -29.7288   25.4794 H   0  0  0  0  0  0
  -27.8883  -30.4266   23.9549 H   0  0  0  0  0  0
  -27.2670  -33.3681   26.2022 H   0  0  0  0  0  0
  -28.3889  -32.6848   25.0357 H   0  0  0  0  0  0
  -28.0696  -31.8520   26.5485 H   0  0  0  0  0  0
  -28.2596  -38.0086   24.7523 H   0  0  0  0  0  0
  -28.1064  -36.2618   24.6285 H   0  0  0  0  0  0
  -27.2279  -37.1453   25.8860 H   0  0  0  0  0  0
  -20.9412  -29.8827   21.6905 H   0  0  0  0  0  0
  -26.0149  -38.2850   24.1429 H   0  0  0  0  0  0
  -28.8696  -20.7716   22.4526 H   0  0  0  0  0  0
  -30.5592  -18.9194   22.4632 H   0  0  0  0  0  0
  -28.9597  -18.2945   22.1893 H   0  0  0  0  0  0
  -28.0421  -18.0745   19.9598 H   0  0  0  0  0  0
  -28.9165  -18.5460   18.5432 H   0  0  0  0  0  0
  -30.5088  -16.4174   22.6374 H   0  0  0  0  0  0
  -31.6363  -16.9995   21.4526 H   0  0  0  0  0  0
  -30.5574  -16.7570   18.7955 H   0  0  0  0  0  0
  -28.9626  -16.0762   18.8206 H   0  0  0  0  0  0
  -30.9205  -19.1004   20.0250 H   0  0  0  0  0  0
  -28.5924  -22.8385   23.7079 H   0  0  0  0  0  0
  -27.0000  -23.0625   22.9756 H   0  0  0  0  0  0
  -28.2022  -24.3602   22.9312 H   0  0  0  0  0  0
  -30.6650  -19.9578   18.0600 H   0  0  0  0  0  0
  -31.1179  -21.5772   17.6464 H   0  0  0  0  0  0
  -29.5367  -20.9568   17.1667 H   0  0  0  0  0  0
  -29.1841  -24.7890   18.0931 H   0  0  0  0  0  0
  -28.7610  -23.3459   17.1799 H   0  0  0  0  0  0
  -30.4413  -23.6977   17.6067 H   0  0  0  0  0  0
  -26.9854  -24.8210   21.0015 H   0  0  0  0  0  0
  -27.2734  -24.6537   19.3171 H   0  0  0  0  0  0
  1 25  1  0  0  0
  1 30  2  0  0  0
  1 86  1  0  0  0
  2  3  1  0  0  0
  2 25  1  0  0  0
  2 87  1  0  0  0
  2 88  1  0  0  0
  3  4  1  0  0  0
  3 89  1  0  0  0
  3 90  1  0  0  0
  4  5  1  0  0  0
  4 91  1  0  0  0
  4 92  1  0  0  0
  5  6  1  0  0  0
  5 26  1  0  0  0
  5 93  1  0  0  0
  6 25  1  0  0  0
  6 94  1  0  0  0
  6 95  1  0  0  0
  7  8  2  0  0  0
  7 26  1  0  0  0
  7 29  1  0  0  0
  8  9  1  0  0  0
  8 22  1  0  0  0
  9 10  1  0  0  0
  9 27  2  0  0  0
 10 11  2  0  0  0
 10 15  1  0  0  0
 11 12  1  0  0  0
 11 96  1  0  0  0
 12 13  2  0  0  0
 12 97  1  0  0  0
 13 14  1  0  0  0
 13 31  1  0  0  0
 14 15  2  0  0  0
 14 98  1  0  0  0
 15 99  1  0  0  0
 16 17  2  0  0  0
 16 21  1  0  0  0
 16 31  1  0  0  0
 17 18  1  0  0  0
 17100  1  0  0  0
 18 19  2  0  0  0
 18101  1  0  0  0
 19 20  1  0  0  0
 19 24  1  0  0  0
 20 21  2  0  0  0
 20102  1  0  0  0
 21 23  1  0  0  0
 22 28  1  0  0  0
 22 32  2  0  0  0
 26 27  1  0  0  0
 28103  1  0  0  0
 28104  1  0  0  0
 29105  1  0  0  0
 29106  1  0  0  0
 33 34  1  0  0  0
 33 66  1  0  0  0
 33 70  2  0  0  0
 34 36  1  0  0  0
 34 59  1  0  0  0
 34107  1  0  0  0
 35 44  2  0  0  0
 35 45  1  0  0  0
 35 68  1  0  0  0
 36 56  1  0  0  0
 36108  1  0  0  0
 37 39  1  0  0  0
 37 47  1  0  0  0
 37 66  1  0  0  0
 37109  1  0  0  0
 38 43  2  0  0  0
 38 46  1  0  0  0
 38 47  1  0  0  0
 39 64  1  0  0  0
 39 67  2  0  0  0
 40 52  1  0  0  0
 40 53  2  0  0  0
 40 58  1  0  0  0
 41110  1  0  0  0
 41111  1  0  0  0
 41112  1  0  0  0
 41 48  1  0  0  0
 42 43  1  0  0  0
 42 66  1  0  0  0
 42113  1  0  0  0
 42114  1  0  0  0
 43 44  1  0  0  0
 44115  1  0  0  0
 45 46  2  0  0  0
 45116  1  0  0  0
 46117  1  0  0  0
 47118  1  0  0  0
 47119  1  0  0  0
 48 56  1  0  0  0
 48 65  1  0  0  0
 48120  1  0  0  0
 49 50  1  0  0  0
 49 53  1  0  0  0
 49 64  1  0  0  0
 49121  1  0  0  0
 50 51  1  0  0  0
 50122  1  0  0  0
 50123  1  0  0  0
 51 52  1  0  0  0
 51124  1  0  0  0
 51125  1  0  0  0
 52126  1  0  0  0
 52127  1  0  0  0
 53 54  1  0  0  0
 54 55  2  0  0  0
 54128  1  0  0  0
 55 57  1  0  0  0
 55129  1  0  0  0
 56 69  2  0  0  0
 57 58  2  0  0  0
 57130  1  0  0  0
 58131  1  0  0  0
 59 60  1  0  0  0
 59 61  1  0  0  0
 59 62  1  0  0  0
 60132  1  0  0  0
 60133  1  0  0  0
 60134  1  0  0  0
 61135  1  0  0  0
 61136  1  0  0  0
 61137  1  0  0  0
 62138  1  0  0  0
 62139  1  0  0  0
 62140  1  0  0  0
 63 65  1  0  0  0
 63141  1  0  0  0
 63142  1  0  0  0
 63143  1  0  0  0
 64144  1  0  0  0
 65145  1  0  0  0
 68 85  1  0  0  0
 71 72  2  0  0  0
 71 73  1  0  0  0
 71146  1  0  0  0
 72 74  1  0  0  0
 72 81  1  0  0  0
 73 76  2  0  0  0
 73 82  1  0  0  0
 74 75  2  0  0  0
 74 83  1  0  0  0
 75 76  1  0  0  0
 75 84  1  0  0  0
 76 85  1  0  0  0
 77 79  1  0  0  0
 77 81  1  0  0  0
 77147  1  0  0  0
 77148  1  0  0  0
 78 80  1  0  0  0
 78 81  1  0  0  0
 78149  1  0  0  0
 78150  1  0  0  0
 79 86  1  0  0  0
 79151  1  0  0  0
 79152  1  0  0  0
 80 86  1  0  0  0
 80153  1  0  0  0
 80154  1  0  0  0
 81155  1  0  0  0
 82156  1  0  0  0
 82157  1  0  0  0
 82158  1  0  0  0
 83159  1  0  0  0
 83160  1  0  0  0
 83161  1  0  0  0
 84162  1  0  0  0
 84163  1  0  0  0
 84164  1  0  0  0
 85165  1  0  0  0
 85166  1  0  0  0
M  ISO  4   1 100  68 101  85 101  86 100
M  END
> <chiral flag>
0

> <version>
0

> <s_m_source_file>
/data/baiqing/PycharmProjects/Reinvent-master-3.2/result/LINK_invent/BTK/process_docking_weight1_custom_sum_contain_oxygen_bond_distance_aromatic_linkinvent_7_9_3/rearranged_h_0163.sdf

> <i_m_source_file_index>
8

> <r_mmod_Potential_Energy-OPLS-2005>
452.232513427734

> <r_mmod_Stretch_Energy-OPLS-2005>
118.215873718262

> <r_mmod_Bend_Energy-OPLS-2005>
195.372787475586

> <r_mmod_Torsional_Energy-OPLS-2005>
351.830718994141

> <r_mmod_Improper_Torsional_Energy-OPLS-2005>
12.7400102615356

> <r_mmod_Van_der_Waal_Energy-OPLS-2005>
164.878662109375

> <r_mmod_Electrostatic_Energy-OPLS-2005>
-292.023406982422

> <r_mmod_Solvation_Energy-OPLS-2005>
-188.90380859375

> <b_mmod_Minimization_Converged-OPLS-2005>
0

> <r_mmod_RMS_Derivative-OPLS-2005>
1.77421891689301

$$$$
8
                    3D
 Structure written by MMmdl.
170179  0  0  1  0            999 V2000
  -30.7309  -14.6106   20.5425 C   0  0  0  0  0  0
  -30.4077  -12.3898   19.4714 C   0  0  0  0  0  0
  -29.4981  -12.4977   18.2317 C   0  0  0  0  0  0
  -28.0248  -12.3175   18.6394 C   0  0  0  0  0  0
  -27.6389  -13.2064   19.8468 C   0  0  2  0  0  0
  -28.6846  -13.1354   20.9900 C   0  0  0  0  0  0
  -25.2501  -13.8126   20.5661 C   0  0  0  0  0  0
  -24.1784  -13.0424   20.9221 C   0  0  0  0  0  0
  -24.6363  -11.6897   20.8754 C   0  0  0  0  0  0
  -23.9041  -10.4281   21.0408 C   0  0  0  0  0  0
  -24.3606   -9.4203   21.9185 C   0  0  0  0  0  0
  -23.6279   -8.2243   22.0757 C   0  0  0  0  0  0
  -22.4253   -8.0293   21.3552 C   0  0  0  0  0  0
  -21.9895   -9.0246   20.4635 C   0  0  0  0  0  0
  -22.7227  -10.2128   20.3047 C   0  0  0  0  0  0
  -21.6844   -6.0737   22.5284 C   0  0  0  0  0  0
  -21.3998   -6.5634   23.8219 C   0  0  0  0  0  0
  -21.3660   -5.6785   24.9175 C   0  0  0  0  0  0
  -21.6059   -4.3045   24.7219 C   0  0  0  0  0  0
  -21.8820   -3.8144   23.4330 C   0  0  0  0  0  0
  -21.9180   -4.6968   22.3402 C   0  0  0  0  0  0
  -22.7811  -13.5211   21.1872 C   0  0  0  0  0  0
  -22.1644   -4.2177   21.0976 F   0  0  0  0  0  0
  -21.5642   -3.4521   25.7716 F   0  0  0  0  0  0
  -30.0044  -13.4478   20.4256 N   0  0  0  0  0  0
  -26.2910  -12.9302   20.3250 N   0  0  0  0  0  0
  -25.9278  -11.6470   20.5746 N   0  0  0  0  0  0
  -22.0445  -12.8202   22.0417 N   0  0  0  0  0  0
  -25.4136  -15.1847   20.4014 N   0  0  0  0  0  0
  -31.8776  -14.6577   20.0884 O   0  0  0  0  0  0
  -21.6640   -6.8881   21.4244 O   0  0  0  0  0  0
  -22.3508  -14.5522   20.6701 O   0  0  0  0  0  0
  -24.6265  -31.8662   23.2122 C   0  0  0  0  0  0
  -25.9137  -32.4803   23.8434 C   0  0  1  0  0  0
  -27.2041  -27.3272   20.0977 C   0  0  0  0  0  0
  -25.5967  -33.8604   24.2350 N   0  0  0  0  0  0
  -23.4175  -30.4970   21.5556 C   0  0  2  0  0  0
  -24.8601  -28.9758   20.1065 C   0  0  0  0  0  0
  -22.7495  -29.4643   22.4956 C   0  0  0  0  0  0
  -18.0283  -28.1382   22.8471 C   0  0  0  0  0  0
  -24.1476  -36.7273   23.2613 C   0  0  0  0  0  0
  -25.9644  -30.7927   21.3934 C   0  0  0  0  0  0
  -26.0324  -29.4273   20.7260 C   0  0  0  0  0  0
  -27.2063  -28.6127   20.7235 C   0  0  0  0  0  0
  -26.0102  -26.9674   19.4133 C   0  0  0  0  0  0
  -24.8516  -27.7495   19.4422 C   0  0  0  0  0  0
  -23.6304  -29.8539   20.1645 C   0  0  0  0  0  0
  -25.4090  -36.3088   24.0336 C   0  0  1  0  0  0
  -20.5888  -28.3681   23.1264 C   0  0  2  0  0  0
  -20.6780  -26.9410   22.5385 C   0  0  0  0  0  0
  -19.5760  -26.6385   21.5189 C   0  0  0  0  0  0
  -18.1928  -26.7927   22.1595 C   0  0  0  0  0  0
  -19.1541  -28.8845   23.2863 C   0  0  0  0  0  0
  -18.9464  -30.1443   23.8899 C   0  0  0  0  0  0
  -17.6467  -30.6572   24.0563 C   0  0  0  0  0  0
  -25.9054  -34.9463   23.5133 C   0  0  0  0  0  0
  -16.5352  -29.9068   23.6351 C   0  0  0  0  0  0
  -16.7270  -28.6486   23.0358 C   0  0  0  0  0  0
  -26.4510  -31.6583   25.0790 C   0  0  0  0  0  0
  -25.3735  -31.3719   26.1506 C   0  0  0  0  0  0
  -27.0337  -30.2983   24.6264 C   0  0  0  0  0  0
  -27.6084  -32.4291   25.7561 C   0  0  0  0  0  0
  -27.5619  -37.1737   24.8409 C   0  0  0  0  0  0
  -21.4208  -29.3048   22.3687 N   0  0  0  0  0  0
  -26.4234  -37.3819   23.9500 N   0  0  0  0  0  0
  -24.6874  -31.0684   22.1083 N   0  0  0  0  0  0
  -23.4221  -28.8160   23.3012 O   0  0  0  0  0  0
  -28.2804  -26.4156   20.1851 O   0  0  0  0  0  0
  -26.5618  -34.8928   22.4692 O   0  0  0  0  0  0
  -23.5429  -32.1471   23.7433 O   0  0  0  0  0  0
  -29.5000  -23.5269   21.2264 C   0  0  0  0  0  0
  -28.8087  -21.2599   19.7214 C   0  0  0  0  0  0
  -28.6784  -23.7181   20.0892 C   0  0  0  0  0  0
  -29.9463  -22.2242   21.6247 C   0  0  0  0  0  0
  -28.3458  -22.5466   19.3424 C   0  0  0  0  0  0
  -29.5912  -21.0575   20.8784 C   0  0  0  0  0  0
  -31.4966  -17.8970   20.9163 C   0  0  0  0  0  0
  -29.1382  -17.7063   20.0305 C   0  0  0  0  0  0
  -31.1475  -16.6954   21.8428 C   0  0  0  0  0  0
  -28.9713  -16.4531   20.9511 C   0  0  0  0  0  0
  -30.2782  -18.7059   20.3982 C   0  0  0  0  0  0
  -27.4161  -22.6233   18.1379 C   0  0  0  0  0  0
  -30.2469  -22.7764   24.1046 C   0  0  0  0  0  0
  -32.2630  -22.5802   22.5701 C   0  0  0  0  0  0
  -27.9517  -25.0526   19.7193 C   0  0  0  0  0  0
  -30.8373  -22.0874   22.8620 C   0  0  0  0  0  0
  -30.2370  -15.7237   21.1958 N   0  0  0  0  0  0
  -29.9499  -19.7759   21.3285 O   0  0  0  0  0  0
  -31.4544  -12.4588   19.1736 H   0  0  0  0  0  0
  -30.3069  -11.4073   19.9361 H   0  0  0  0  0  0
  -29.7776  -11.7482   17.4898 H   0  0  0  0  0  0
  -29.6358  -13.4686   17.7534 H   0  0  0  0  0  0
  -27.8715  -11.2656   18.8819 H   0  0  0  0  0  0
  -27.3723  -12.5305   17.7923 H   0  0  0  0  0  0
  -27.6208  -14.2056   19.4245 H   0  0  0  0  0  0
  -28.6977  -12.1386   21.4350 H   0  0  0  0  0  0
  -28.4217  -13.8175   21.7998 H   0  0  0  0  0  0
  -25.2775   -9.5666   22.4725 H   0  0  0  0  0  0
  -23.9984   -7.4630   22.7472 H   0  0  0  0  0  0
  -21.0843   -8.8752   19.8928 H   0  0  0  0  0  0
  -22.3706  -10.9642   19.6111 H   0  0  0  0  0  0
  -21.1979   -7.6136   23.9722 H   0  0  0  0  0  0
  -21.1478   -6.0509   25.9075 H   0  0  0  0  0  0
  -22.0594   -2.7614   23.2813 H   0  0  0  0  0  0
  -22.4055  -11.9859   22.4798 H   0  0  0  0  0  0
  -21.1041  -13.1198   22.2601 H   0  0  0  0  0  0
  -24.6393  -15.8288   20.5203 H   0  0  0  0  0  0
  -26.2503  -15.6279   20.0494 H   0  0  0  0  0  0
  -26.7191  -32.5474   23.1165 H   0  0  0  0  0  0
  -25.0156  -33.9756   25.0527 H   0  0  0  0  0  0
  -22.7087  -31.3170   21.4230 H   0  0  0  0  0  0
  -23.3839  -35.9490   23.3058 H   0  0  0  0  0  0
  -24.3647  -36.9124   22.2087 H   0  0  0  0  0  0
  -23.7080  -37.6335   23.6778 H   0  0  0  0  0  0
  -26.1077  -31.5606   20.6324 H   0  0  0  0  0  0
  -26.8406  -30.8256   22.0290 H   0  0  0  0  0  0
  -28.0969  -28.9504   21.2338 H   0  0  0  0  0  0
  -25.9026  -26.0588   18.8417 H   0  0  0  0  0  0
  -23.9607  -27.4097   18.9322 H   0  0  0  0  0  0
  -23.7511  -30.6427   19.4207 H   0  0  0  0  0  0
  -22.7499  -29.2881   19.8528 H   0  0  0  0  0  0
  -25.1222  -36.1905   25.0814 H   0  0  0  0  0  0
  -20.9933  -28.3236   24.1399 H   0  0  0  0  0  0
  -20.5660  -26.2302   23.3586 H   0  0  0  0  0  0
  -21.6654  -26.7421   22.1185 H   0  0  0  0  0  0
  -19.6917  -25.6280   21.1257 H   0  0  0  0  0  0
  -19.6712  -27.3189   20.6716 H   0  0  0  0  0  0
  -17.4200  -26.6667   21.3996 H   0  0  0  0  0  0
  -18.0325  -26.0052   22.8971 H   0  0  0  0  0  0
  -19.7939  -30.7269   24.2272 H   0  0  0  0  0  0
  -17.5012  -31.6262   24.5130 H   0  0  0  0  0  0
  -15.5357  -30.2966   23.7674 H   0  0  0  0  0  0
  -15.8659  -28.0803   22.7086 H   0  0  0  0  0  0
  -24.5907  -30.7072   25.7836 H   0  0  0  0  0  0
  -24.8936  -32.2884   26.4955 H   0  0  0  0  0  0
  -25.8036  -30.8881   27.0280 H   0  0  0  0  0  0
  -26.2904  -29.6764   24.1262 H   0  0  0  0  0  0
  -27.3968  -29.7223   25.4792 H   0  0  0  0  0  0
  -27.8818  -30.4253   23.9533 H   0  0  0  0  0  0
  -27.2717  -33.3621   26.2104 H   0  0  0  0  0  0
  -28.3918  -32.6797   25.0392 H   0  0  0  0  0  0
  -28.0711  -31.8437   26.5518 H   0  0  0  0  0  0
  -28.2363  -38.0299   24.7848 H   0  0  0  0  0  0
  -28.1389  -36.2883   24.5687 H   0  0  0  0  0  0
  -27.2440  -37.0678   25.8801 H   0  0  0  0  0  0
  -20.9392  -29.8803   21.6921 H   0  0  0  0  0  0
  -26.0096  -38.2824   24.1753 H   0  0  0  0  0  0
  -29.7566  -24.3890   21.8253 H   0  0  0  0  0  0
  -28.5035  -20.4056   19.1356 H   0  0  0  0  0  0
  -32.0378  -17.5039   20.0560 H   0  0  0  0  0  0
  -32.1982  -18.5636   21.4190 H   0  0  0  0  0  0
  -28.1888  -18.2355   19.9505 H   0  0  0  0  0  0
  -29.3448  -17.3309   19.0259 H   0  0  0  0  0  0
  -30.6860  -17.0690   22.7591 H   0  0  0  0  0  0
  -32.0659  -16.2015   22.1668 H   0  0  0  0  0  0
  -28.2155  -15.8151   20.5233 H   0  0  0  0  0  0
  -28.5530  -16.7692   21.9090 H   0  0  0  0  0  0
  -30.5988  -19.1946   19.4762 H   0  0  0  0  0  0
  -27.1909  -21.6353   17.7344 H   0  0  0  0  0  0
  -27.8665  -23.2092   17.3366 H   0  0  0  0  0  0
  -26.4627  -23.0770   18.4099 H   0  0  0  0  0  0
  -29.2466  -22.4016   24.3240 H   0  0  0  0  0  0
  -30.1817  -23.8588   23.9911 H   0  0  0  0  0  0
  -30.8654  -22.5828   24.9822 H   0  0  0  0  0  0
  -32.7000  -22.0381   21.7304 H   0  0  0  0  0  0
  -32.9155  -22.4276   23.4308 H   0  0  0  0  0  0
  -32.2825  -23.6428   22.3248 H   0  0  0  0  0  0
  -26.9615  -24.7943   20.0978 H   0  0  0  0  0  0
  -27.9102  -25.1199   18.6321 H   0  0  0  0  0  0
  -30.9181  -21.0307   23.1171 H   0  0  0  0  0  0
  1 25  1  0  0  0
  1 30  2  0  0  0
  1 87  1  0  0  0
  2  3  1  0  0  0
  2 25  1  0  0  0
  2 89  1  0  0  0
  2 90  1  0  0  0
  3  4  1  0  0  0
  3 91  1  0  0  0
  3 92  1  0  0  0
  4  5  1  0  0  0
  4 93  1  0  0  0
  4 94  1  0  0  0
  5  6  1  0  0  0
  5 26  1  0  0  0
  5 95  1  0  0  0
  6 25  1  0  0  0
  6 96  1  0  0  0
  6 97  1  0  0  0
  7  8  2  0  0  0
  7 26  1  0  0  0
  7 29  1  0  0  0
  8  9  1  0  0  0
  8 22  1  0  0  0
  9 10  1  0  0  0
  9 27  2  0  0  0
 10 11  2  0  0  0
 10 15  1  0  0  0
 11 12  1  0  0  0
 11 98  1  0  0  0
 12 13  2  0  0  0
 12 99  1  0  0  0
 13 14  1  0  0  0
 13 31  1  0  0  0
 14 15  2  0  0  0
 14100  1  0  0  0
 15101  1  0  0  0
 16 17  2  0  0  0
 16 21  1  0  0  0
 16 31  1  0  0  0
 17 18  1  0  0  0
 17102  1  0  0  0
 18 19  2  0  0  0
 18103  1  0  0  0
 19 20  1  0  0  0
 19 24  1  0  0  0
 20 21  2  0  0  0
 20104  1  0  0  0
 21 23  1  0  0  0
 22 28  1  0  0  0
 22 32  2  0  0  0
 26 27  1  0  0  0
 28105  1  0  0  0
 28106  1  0  0  0
 29107  1  0  0  0
 29108  1  0  0  0
 33 34  1  0  0  0
 33 66  1  0  0  0
 33 70  2  0  0  0
 34 36  1  0  0  0
 34 59  1  0  0  0
 34109  1  0  0  0
 35 44  2  0  0  0
 35 45  1  0  0  0
 35 68  1  0  0  0
 36 56  1  0  0  0
 36110  1  0  0  0
 37 39  1  0  0  0
 37 47  1  0  0  0
 37 66  1  0  0  0
 37111  1  0  0  0
 38 43  2  0  0  0
 38 46  1  0  0  0
 38 47  1  0  0  0
 39 64  1  0  0  0
 39 67  2  0  0  0
 40 52  1  0  0  0
 40 53  2  0  0  0
 40 58  1  0  0  0
 41112  1  0  0  0
 41113  1  0  0  0
 41114  1  0  0  0
 41 48  1  0  0  0
 42 43  1  0  0  0
 42 66  1  0  0  0
 42115  1  0  0  0
 42116  1  0  0  0
 43 44  1  0  0  0
 44117  1  0  0  0
 45 46  2  0  0  0
 45118  1  0  0  0
 46119  1  0  0  0
 47120  1  0  0  0
 47121  1  0  0  0
 48 56  1  0  0  0
 48 65  1  0  0  0
 48122  1  0  0  0
 49 50  1  0  0  0
 49 53  1  0  0  0
 49 64  1  0  0  0
 49123  1  0  0  0
 50 51  1  0  0  0
 50124  1  0  0  0
 50125  1  0  0  0
 51 52  1  0  0  0
 51126  1  0  0  0
 51127  1  0  0  0
 52128  1  0  0  0
 52129  1  0  0  0
 53 54  1  0  0  0
 54 55  2  0  0  0
 54130  1  0  0  0
 55 57  1  0  0  0
 55131  1  0  0  0
 56 69  2  0  0  0
 57 58  2  0  0  0
 57132  1  0  0  0
 58133  1  0  0  0
 59 60  1  0  0  0
 59 61  1  0  0  0
 59 62  1  0  0  0
 60134  1  0  0  0
 60135  1  0  0  0
 60136  1  0  0  0
 61137  1  0  0  0
 61138  1  0  0  0
 61139  1  0  0  0
 62140  1  0  0  0
 62141  1  0  0  0
 62142  1  0  0  0
 63 65  1  0  0  0
 63143  1  0  0  0
 63144  1  0  0  0
 63145  1  0  0  0
 64146  1  0  0  0
 65147  1  0  0  0
 68 85  1  0  0  0
 71 73  2  0  0  0
 71 74  1  0  0  0
 71148  1  0  0  0
 72 75  2  0  0  0
 72 76  1  0  0  0
 72149  1  0  0  0
 73 75  1  0  0  0
 73 85  1  0  0  0
 74 76  2  0  0  0
 74 86  1  0  0  0
 75 82  1  0  0  0
 76 88  1  0  0  0
 77 79  1  0  0  0
 77 81  1  0  0  0
 77150  1  0  0  0
 77151  1  0  0  0
 78 80  1  0  0  0
 78 81  1  0  0  0
 78152  1  0  0  0
 78153  1  0  0  0
 79 87  1  0  0  0
 79154  1  0  0  0
 79155  1  0  0  0
 80 87  1  0  0  0
 80156  1  0  0  0
 80157  1  0  0  0
 81 88  1  0  0  0
 81158  1  0  0  0
 82159  1  0  0  0
 82160  1  0  0  0
 82161  1  0  0  0
 83162  1  0  0  0
 83163  1  0  0  0
 83164  1  0  0  0
 83 86  1  0  0  0
 84 86  1  0  0  0
 84165  1  0  0  0
 84166  1  0  0  0
 84167  1  0  0  0
 85168  1  0  0  0
 85169  1  0  0  0
 86170  1  0  0  0
M  ISO  4   1 100  68 101  85 101  87 100
M  END
> <chiral flag>
0

> <version>
0

> <s_m_source_file>
/data/baiqing/PycharmProjects/Reinvent-master-3.2/result/LINK_invent/BTK/process_docking_weight1_custom_sum_contain_oxygen_bond_distance_aromatic_linkinvent_7_9_3/rearranged_h_0163.sdf

> <i_m_source_file_index>
9

> <r_mmod_Potential_Energy-OPLS-2005>
333.539031982422

> <r_mmod_Stretch_Energy-OPLS-2005>
75.1363296508789

> <r_mmod_Bend_Energy-OPLS-2005>
181.101043701172

> <r_mmod_Torsional_Energy-OPLS-2005>
322.646728515625

> <r_mmod_Improper_Torsional_Energy-OPLS-2005>
4.7459659576416

> <r_mmod_Van_der_Waal_Energy-OPLS-2005>
173.182968139648

> <r_mmod_Electrostatic_Energy-OPLS-2005>
-280.512023925781

> <r_mmod_Solvation_Energy-OPLS-2005>
-196.93327331543

> <b_mmod_Minimization_Converged-OPLS-2005>
0

> <r_mmod_RMS_Derivative-OPLS-2005>
2.67386722564697

$$$$
9
                    3D
 Structure written by MMmdl.
188198  0  0  1  0            999 V2000
  -30.7767  -14.5420   20.3576 C   0  0  0  0  0  0
  -30.4024  -12.3103   19.4177 C   0  0  0  0  0  0
  -29.4697  -12.4079   18.1940 C   0  0  0  0  0  0
  -27.9948  -12.3247   18.6195 C   0  0  0  0  0  0
  -27.6418  -13.2238   19.8406 C   0  0  2  0  0  0
  -28.7171  -13.1800   20.9491 C   0  0  0  0  0  0
  -25.2464  -13.8050   20.5969 C   0  0  0  0  0  0
  -24.1718  -13.0285   20.9198 C   0  0  0  0  0  0
  -24.6380  -11.6828   20.8697 C   0  0  0  0  0  0
  -23.9080  -10.4226   21.0361 C   0  0  0  0  0  0
  -24.3629   -9.4186   21.9149 C   0  0  0  0  0  0
  -23.6278   -8.2256   22.0752 C   0  0  0  0  0  0
  -22.4260   -8.0294   21.3556 C   0  0  0  0  0  0
  -21.9888   -9.0248   20.4655 C   0  0  0  0  0  0
  -22.7244  -10.2100   20.3033 C   0  0  0  0  0  0
  -21.6873   -6.0722   22.5292 C   0  0  0  0  0  0
  -21.4022   -6.5619   23.8223 C   0  0  0  0  0  0
  -21.3637   -5.6774   24.9184 C   0  0  0  0  0  0
  -21.6049   -4.3043   24.7233 C   0  0  0  0  0  0
  -21.8810   -3.8133   23.4356 C   0  0  0  0  0  0
  -21.9193   -4.6948   22.3407 C   0  0  0  0  0  0
  -22.7753  -13.5127   21.1846 C   0  0  0  0  0  0
  -22.1673   -4.2150   21.0982 F   0  0  0  0  0  0
  -21.5637   -3.4514   25.7736 F   0  0  0  0  0  0
  -30.0267  -13.4050   20.3198 N   0  0  0  0  0  0
  -26.2965  -12.9359   20.3412 N   0  0  0  0  0  0
  -25.9317  -11.6486   20.5728 N   0  0  0  0  0  0
  -22.0389  -12.8141   22.0414 N   0  0  0  0  0  0
  -25.3865  -15.1750   20.4990 N   0  0  0  0  0  0
  -32.0054  -14.4962   20.3827 O   0  0  0  0  0  0
  -21.6651   -6.8878   21.4260 O   0  0  0  0  0  0
  -22.3433  -14.5437   20.6705 O   0  0  0  0  0  0
  -24.6116  -31.8684   23.2107 C   0  0  0  0  0  0
  -25.9009  -32.4842   23.8414 C   0  0  1  0  0  0
  -27.2590  -27.4695   20.0818 C   0  0  0  0  0  0
  -25.5855  -33.8638   24.2333 N   0  0  0  0  0  0
  -23.4001  -30.4895   21.5498 C   0  0  2  0  0  0
  -24.8549  -28.9578   20.1144 C   0  0  0  0  0  0
  -22.7403  -29.4653   22.5009 C   0  0  0  0  0  0
  -18.0278  -28.1382   22.8492 C   0  0  0  0  0  0
  -24.1479  -36.7333   23.2640 C   0  0  0  0  0  0
  -25.9248  -30.8437   21.3611 C   0  0  0  0  0  0
  -26.0083  -29.4756   20.7162 C   0  0  0  0  0  0
  -27.2082  -28.7336   20.7090 C   0  0  0  0  0  0
  -26.0836  -26.9509   19.4910 C   0  0  0  0  0  0
  -24.8840  -27.6907   19.5057 C   0  0  0  0  0  0
  -23.6094  -29.8157   20.1657 C   0  0  0  0  0  0
  -25.4097  -36.3135   24.0351 C   0  0  1  0  0  0
  -20.5857  -28.3663   23.1326 C   0  0  2  0  0  0
  -20.6769  -26.9397   22.5429 C   0  0  0  0  0  0
  -19.5750  -26.6396   21.5221 C   0  0  0  0  0  0
  -18.1919  -26.7933   22.1611 C   0  0  0  0  0  0
  -19.1520  -28.8835   23.2908 C   0  0  0  0  0  0
  -18.9447  -30.1443   23.8922 C   0  0  0  0  0  0
  -17.6450  -30.6588   24.0563 C   0  0  0  0  0  0
  -25.9015  -34.9492   23.5133 C   0  0  0  0  0  0
  -16.5339  -29.9095   23.6320 C   0  0  0  0  0  0
  -16.7267  -28.6505   23.0345 C   0  0  0  0  0  0
  -26.4444  -31.6616   25.0722 C   0  0  0  0  0  0
  -25.3726  -31.3709   26.1483 C   0  0  0  0  0  0
  -27.0275  -30.3072   24.6083 C   0  0  0  0  0  0
  -27.6033  -32.4323   25.7479 C   0  0  0  0  0  0
  -27.5582  -37.1821   24.8461 C   0  0  0  0  0  0
  -21.4129  -29.3040   22.3744 N   0  0  0  0  0  0
  -26.4290  -37.3814   23.9405 N   0  0  0  0  0  0
  -24.6631  -31.0809   22.1001 N   0  0  0  0  0  0
  -23.4180  -28.8198   23.3051 O   0  0  0  0  0  0
  -28.4324  -26.7499   20.1095 O   0  0  0  0  0  0
  -26.5596  -34.8918   22.4716 O   0  0  0  0  0  0
  -23.5303  -32.1424   23.7517 O   0  0  0  0  0  0
  -28.3433  -19.4002   19.2859 C   0  0  0  0  0  0
  -27.6692  -18.2066   18.9335 C   0  0  0  0  0  0
  -27.9714  -20.6340   18.6670 C   0  0  0  0  0  0
  -26.5042  -18.2527   18.1219 C   0  0  0  0  0  0
  -26.7306  -20.6844   17.9549 C   0  0  0  0  0  0
  -26.0017  -19.5015   17.6889 C   0  0  0  0  0  0
  -29.3872  -19.2640   20.3907 C   0  0  0  0  0  0
  -28.1848  -16.8460   19.4080 C   0  0  0  0  0  0
  -30.3301  -18.0745   20.1510 C   0  0  0  0  0  0
  -28.6468  -22.9795   19.6892 C   0  0  0  0  0  0
  -30.7626  -23.3631   18.6912 C   0  0  0  0  0  0
  -28.8508  -21.9052   18.6262 C   0  0  1  0  0  0
  -30.3797  -21.8687   18.4766 C   0  0  1  0  0  0
  -29.5365  -16.7358   20.1469 C   0  0  2  0  0  0
  -25.7496  -16.9789   17.7316 C   0  0  0  0  0  0
  -26.1320  -22.0059   17.4524 C   0  0  0  0  0  0
  -24.6714  -19.5888   16.9260 C   0  0  0  0  0  0
  -30.8807  -21.2168   17.1793 C   0  0  0  0  0  0
  -29.1210  -24.9704   16.8381 C   0  0  0  0  0  0
  -30.9431  -15.8507   18.3243 C   0  0  0  0  0  0
  -29.0856  -26.5279   18.8603 C   0  0  0  0  0  0
  -28.8643  -25.0810   18.3615 C   0  0  2  0  0  0
  -30.2705  -15.5613   19.6095 N   0  0  0  0  0  0
  -29.5569  -24.0642   19.2399 N   0  3  1  0  0  0
  -31.4427  -12.3767   19.0975 H   0  0  0  0  0  0
  -30.2988  -11.3448   19.9173 H   0  0  0  0  0  0
  -29.6933  -11.6068   17.4890 H   0  0  0  0  0  0
  -29.6322  -13.3348   17.6484 H   0  0  0  0  0  0
  -27.7803  -11.2798   18.8428 H   0  0  0  0  0  0
  -27.3597  -12.5842   17.7732 H   0  0  0  0  0  0
  -27.6228  -14.2358   19.4511 H   0  0  0  0  0  0
  -28.7071  -12.2209   21.4683 H   0  0  0  0  0  0
  -28.5223  -13.9473   21.7008 H   0  0  0  0  0  0
  -25.2777   -9.5673   22.4732 H   0  0  0  0  0  0
  -23.9981   -7.4645   22.7447 H   0  0  0  0  0  0
  -21.0850   -8.8791   19.8928 H   0  0  0  0  0  0
  -22.3735  -10.9652   19.6169 H   0  0  0  0  0  0
  -21.2037   -7.6128   23.9711 H   0  0  0  0  0  0
  -21.1465   -6.0530   25.9081 H   0  0  0  0  0  0
  -22.0607   -2.7591   23.2873 H   0  0  0  0  0  0
  -22.3950  -11.9795   22.4824 H   0  0  0  0  0  0
  -21.0995  -13.1189   22.2564 H   0  0  0  0  0  0
  -24.6301  -15.8071   20.7406 H   0  0  0  0  0  0
  -26.2816  -15.6313   20.4334 H   0  0  0  0  0  0
  -26.7087  -32.5571   23.1187 H   0  0  0  0  0  0
  -24.9990  -33.9810   25.0463 H   0  0  0  0  0  0
  -22.6874  -31.3053   21.4072 H   0  0  0  0  0  0
  -23.3755  -35.9652   23.3280 H   0  0  0  0  0  0
  -24.3585  -36.8975   22.2060 H   0  0  0  0  0  0
  -23.7207  -37.6518   23.6668 H   0  0  0  0  0  0
  -26.0269  -31.6077   20.5876 H   0  0  0  0  0  0
  -26.8164  -30.9061   21.9728 H   0  0  0  0  0  0
  -28.0952  -29.1299   21.1822 H   0  0  0  0  0  0
  -26.0689  -25.9746   19.0331 H   0  0  0  0  0  0
  -23.9955  -27.2783   19.0487 H   0  0  0  0  0  0
  -23.7043  -30.5857   19.4000 H   0  0  0  0  0  0
  -22.7376  -29.2261   19.8774 H   0  0  0  0  0  0
  -25.1275  -36.2015   25.0853 H   0  0  0  0  0  0
  -20.9942  -28.3237   24.1448 H   0  0  0  0  0  0
  -20.5668  -26.2272   23.3624 H   0  0  0  0  0  0
  -21.6640  -26.7454   22.1209 H   0  0  0  0  0  0
  -19.6906  -25.6316   21.1236 H   0  0  0  0  0  0
  -19.6690  -27.3223   20.6762 H   0  0  0  0  0  0
  -17.4193  -26.6706   21.3997 H   0  0  0  0  0  0
  -18.0291  -26.0071   22.8994 H   0  0  0  0  0  0
  -19.7922  -30.7258   24.2300 H   0  0  0  0  0  0
  -17.5000  -31.6261   24.5180 H   0  0  0  0  0  0
  -15.5332  -30.3000   23.7637 H   0  0  0  0  0  0
  -15.8669  -28.0842   22.7041 H   0  0  0  0  0  0
  -24.5881  -30.7071   25.7816 H   0  0  0  0  0  0
  -24.8925  -32.2853   26.4968 H   0  0  0  0  0  0
  -25.8080  -30.8843   27.0214 H   0  0  0  0  0  0
  -26.2813  -29.6838   24.1126 H   0  0  0  0  0  0
  -27.4056  -29.7298   25.4527 H   0  0  0  0  0  0
  -27.8638  -30.4412   23.9219 H   0  0  0  0  0  0
  -27.2678  -33.3627   26.2060 H   0  0  0  0  0  0
  -28.3825  -32.6865   25.0285 H   0  0  0  0  0  0
  -28.0701  -31.8434   26.5372 H   0  0  0  0  0  0
  -28.2601  -38.0113   24.7507 H   0  0  0  0  0  0
  -28.1076  -36.2647   24.6288 H   0  0  0  0  0  0
  -27.2302  -37.1481   25.8863 H   0  0  0  0  0  0
  -20.9307  -29.8749   21.6947 H   0  0  0  0  0  0
  -26.0192  -38.2903   24.1400 H   0  0  0  0  0  0
  -28.8299  -19.0656   21.3086 H   0  0  0  0  0  0
  -29.9143  -20.1791   20.6240 H   0  0  0  0  0  0
  -28.2245  -16.2079   18.5259 H   0  0  0  0  0  0
  -27.4412  -16.4480   20.0792 H   0  0  0  0  0  0
  -31.1054  -18.0453   20.9195 H   0  0  0  0  0  0
  -30.8407  -18.2639   19.2080 H   0  0  0  0  0  0
  -28.9811  -22.6036   20.6568 H   0  0  0  0  0  0
  -27.6105  -23.2944   19.8147 H   0  0  0  0  0  0
  -31.1898  -23.8361   17.8090 H   0  0  0  0  0  0
  -31.5454  -23.4178   19.4490 H   0  0  0  0  0  0
  -28.5790  -22.3365   17.6692 H   0  0  0  0  0  0
  -30.8492  -21.3242   19.2853 H   0  0  0  0  0  0
  -29.3092  -16.5283   21.1959 H   0  0  0  0  0  0
  -26.2048  -16.0426   18.0346 H   0  0  0  0  0  0
  -25.6564  -16.9178   16.6471 H   0  0  0  0  0  0
  -24.7491  -16.9871   18.1662 H   0  0  0  0  0  0
  -26.5497  -22.9032   17.8971 H   0  0  0  0  0  0
  -25.0698  -22.0594   17.6872 H   0  0  0  0  0  0
  -26.2397  -22.0828   16.3716 H   0  0  0  0  0  0
  -24.2939  -18.6417   16.5464 H   0  0  0  0  0  0
  -24.7602  -20.2434   16.0583 H   0  0  0  0  0  0
  -23.9009  -20.0044   17.5770 H   0  0  0  0  0  0
  -30.6240  -21.8053   16.2992 H   0  0  0  0  0  0
  -30.4415  -20.2269   17.0587 H   0  0  0  0  0  0
  -31.9622  -21.0813   17.1945 H   0  0  0  0  0  0
  -28.4184  -25.6118   16.3042 H   0  0  0  0  0  0
  -28.9736  -23.9698   16.4383 H   0  0  0  0  0  0
  -30.1171  -25.3030   16.5535 H   0  0  0  0  0  0
  -31.0964  -14.9471   17.7352 H   0  0  0  0  0  0
  -30.3724  -16.5396   17.6990 H   0  0  0  0  0  0
  -31.9296  -16.2898   18.4875 H   0  0  0  0  0  0
  -28.7292  -27.2466   18.1183 H   0  0  0  0  0  0
  -30.1503  -26.7283   18.9777 H   0  0  0  0  0  0
  -27.7969  -24.9165   18.4488 H   0  0  0  0  0  0
  -29.8440  -24.5672   20.0686 H   0  0  0  0  0  0
  1 25  1  0  0  0
  1 30  2  0  0  0
  1 93  1  0  0  0
  2  3  1  0  0  0
  2 25  1  0  0  0
  2 95  1  0  0  0
  2 96  1  0  0  0
  3  4  1  0  0  0
  3 97  1  0  0  0
  3 98  1  0  0  0
  4  5  1  0  0  0
  4 99  1  0  0  0
  4100  1  0  0  0
  5  6  1  0  0  0
  5 26  1  0  0  0
  5101  1  0  0  0
  6 25  1  0  0  0
  6102  1  0  0  0
  6103  1  0  0  0
  7  8  2  0  0  0
  7 26  1  0  0  0
  7 29  1  0  0  0
  8  9  1  0  0  0
  8 22  1  0  0  0
  9 10  1  0  0  0
  9 27  2  0  0  0
 10 11  2  0  0  0
 10 15  1  0  0  0
 11 12  1  0  0  0
 11104  1  0  0  0
 12 13  2  0  0  0
 12105  1  0  0  0
 13 14  1  0  0  0
 13 31  1  0  0  0
 14 15  2  0  0  0
 14106  1  0  0  0
 15107  1  0  0  0
 16 17  2  0  0  0
 16 21  1  0  0  0
 16 31  1  0  0  0
 17 18  1  0  0  0
 17108  1  0  0  0
 18 19  2  0  0  0
 18109  1  0  0  0
 19 20  1  0  0  0
 19 24  1  0  0  0
 20 21  2  0  0  0
 20110  1  0  0  0
 21 23  1  0  0  0
 22 28  1  0  0  0
 22 32  2  0  0  0
 26 27  1  0  0  0
 28111  1  0  0  0
 28112  1  0  0  0
 29113  1  0  0  0
 29114  1  0  0  0
 33 34  1  0  0  0
 33 66  1  0  0  0
 33 70  2  0  0  0
 34 36  1  0  0  0
 34 59  1  0  0  0
 34115  1  0  0  0
 35 44  2  0  0  0
 35 45  1  0  0  0
 35 68  1  0  0  0
 36 56  1  0  0  0
 36116  1  0  0  0
 37 39  1  0  0  0
 37 47  1  0  0  0
 37 66  1  0  0  0
 37117  1  0  0  0
 38 43  2  0  0  0
 38 46  1  0  0  0
 38 47  1  0  0  0
 39 64  1  0  0  0
 39 67  2  0  0  0
 40 52  1  0  0  0
 40 53  2  0  0  0
 40 58  1  0  0  0
 41118  1  0  0  0
 41119  1  0  0  0
 41120  1  0  0  0
 41 48  1  0  0  0
 42 43  1  0  0  0
 42 66  1  0  0  0
 42121  1  0  0  0
 42122  1  0  0  0
 43 44  1  0  0  0
 44123  1  0  0  0
 45 46  2  0  0  0
 45124  1  0  0  0
 46125  1  0  0  0
 47126  1  0  0  0
 47127  1  0  0  0
 48 56  1  0  0  0
 48 65  1  0  0  0
 48128  1  0  0  0
 49 50  1  0  0  0
 49 53  1  0  0  0
 49 64  1  0  0  0
 49129  1  0  0  0
 50 51  1  0  0  0
 50130  1  0  0  0
 50131  1  0  0  0
 51 52  1  0  0  0
 51132  1  0  0  0
 51133  1  0  0  0
 52134  1  0  0  0
 52135  1  0  0  0
 53 54  1  0  0  0
 54 55  2  0  0  0
 54136  1  0  0  0
 55 57  1  0  0  0
 55137  1  0  0  0
 56 69  2  0  0  0
 57 58  2  0  0  0
 57138  1  0  0  0
 58139  1  0  0  0
 59 60  1  0  0  0
 59 61  1  0  0  0
 59 62  1  0  0  0
 60140  1  0  0  0
 60141  1  0  0  0
 60142  1  0  0  0
 61143  1  0  0  0
 61144  1  0  0  0
 61145  1  0  0  0
 62146  1  0  0  0
 62147  1  0  0  0
 62148  1  0  0  0
 63 65  1  0  0  0
 63149  1  0  0  0
 63150  1  0  0  0
 63151  1  0  0  0
 64152  1  0  0  0
 65153  1  0  0  0
 68 91  1  0  0  0
 71 72  1  0  0  0
 71 73  2  0  0  0
 71 77  1  0  0  0
 72 74  2  0  0  0
 72 78  1  0  0  0
 73 75  1  0  0  0
 73 82  1  0  0  0
 74 76  1  0  0  0
 74 85  1  0  0  0
 75 76  2  0  0  0
 75 86  1  0  0  0
 76 87  1  0  0  0
 77 79  1  0  0  0
 77154  1  0  0  0
 77155  1  0  0  0
 78 84  1  0  0  0
 78156  1  0  0  0
 78157  1  0  0  0
 79 84  1  0  0  0
 79158  1  0  0  0
 79159  1  0  0  0
 80 82  1  0  0  0
 80160  1  0  0  0
 80161  1  0  0  0
 80 94  1  0  0  0
 81 83  1  0  0  0
 81 94  1  0  0  0
 81162  1  0  0  0
 81163  1  0  0  0
 82 83  1  0  0  0
 82164  1  0  0  0
 83 88  1  0  0  0
 83165  1  0  0  0
 84 93  1  0  0  0
 84166  1  0  0  0
 85167  1  0  0  0
 85168  1  0  0  0
 85169  1  0  0  0
 86170  1  0  0  0
 86171  1  0  0  0
 86172  1  0  0  0
 87173  1  0  0  0
 87174  1  0  0  0
 87175  1  0  0  0
 88176  1  0  0  0
 88177  1  0  0  0
 88178  1  0  0  0
 89179  1  0  0  0
 89180  1  0  0  0
 89181  1  0  0  0
 89 92  1  0  0  0
 90 93  1  0  0  0
 90182  1  0  0  0
 90183  1  0  0  0
 90184  1  0  0  0
 91 92  1  0  0  0
 91185  1  0  0  0
 91186  1  0  0  0
 92 94  1  0  0  0
 92187  1  0  0  0
 94188  1  0  0  0
M  CHG  1  94   1
M  ISO  4   1 100  68 101  91 101  93 100
M  END
> <chiral flag>
0

> <version>
0

> <s_m_source_file>
/data/baiqing/PycharmProjects/Reinvent-master-3.2/result/LINK_invent/BTK/process_docking_weight1_custom_sum_contain_oxygen_bond_distance_aromatic_linkinvent_7_9_3/rearranged_h_0163.sdf

> <i_m_source_file_index>
10

> <r_mmod_Potential_Energy-OPLS-2005>
371.710632324219

> <r_mmod_Stretch_Energy-OPLS-2005>
52.359935760498

> <r_mmod_Bend_Energy-OPLS-2005>
199.324157714844

> <r_mmod_Torsional_Energy-OPLS-2005>
461.597930908203

> <r_mmod_Improper_Torsional_Energy-OPLS-2005>
32.6552467346191

> <r_mmod_Van_der_Waal_Energy-OPLS-2005>
183.93977355957

> <r_mmod_Electrostatic_Energy-OPLS-2005>
-219.390914916992

> <r_mmod_Solvation_Energy-OPLS-2005>
-392.683044433594

> <b_mmod_Minimization_Converged-OPLS-2005>
0

> <r_mmod_RMS_Derivative-OPLS-2005>
4.50854969024658

$$$$
10
                    3D
 Structure written by MMmdl.
176185  0  0  1  0            999 V2000
  -30.6068  -14.8660   20.4470 C   0  0  0  0  0  0
  -30.4257  -12.5362   19.4960 C   0  0  0  0  0  0
  -29.5118  -12.5180   18.2513 C   0  0  0  0  0  0
  -28.0450  -12.3184   18.6713 C   0  0  0  0  0  0
  -27.6316  -13.2488   19.8424 C   0  0  2  0  0  0
  -28.6734  -13.2650   20.9812 C   0  0  0  0  0  0
  -25.2472  -13.8238   20.5728 C   0  0  0  0  0  0
  -24.1779  -13.0457   20.9218 C   0  0  0  0  0  0
  -24.6396  -11.6941   20.8750 C   0  0  0  0  0  0
  -23.9083  -10.4304   21.0410 C   0  0  0  0  0  0
  -24.3632   -9.4214   21.9184 C   0  0  0  0  0  0
  -23.6304   -8.2251   22.0752 C   0  0  0  0  0  0
  -22.4283   -8.0289   21.3545 C   0  0  0  0  0  0
  -21.9928   -9.0262   20.4643 C   0  0  0  0  0  0
  -22.7259  -10.2142   20.3057 C   0  0  0  0  0  0
  -21.6857   -6.0742   22.5280 C   0  0  0  0  0  0
  -21.4013   -6.5645   23.8212 C   0  0  0  0  0  0
  -21.3657   -5.6798   24.9175 C   0  0  0  0  0  0
  -21.6044   -4.3061   24.7227 C   0  0  0  0  0  0
  -21.8820   -3.8152   23.4346 C   0  0  0  0  0  0
  -21.9192   -4.6968   22.3403 C   0  0  0  0  0  0
  -22.7798  -13.5219   21.1876 C   0  0  0  0  0  0
  -22.1660   -4.2155   21.0980 F   0  0  0  0  0  0
  -21.5630   -3.4541   25.7739 F   0  0  0  0  0  0
  -29.9597  -13.6384   20.3839 N   0  0  0  0  0  0
  -26.2896  -12.9468   20.3280 N   0  0  0  0  0  0
  -25.9330  -11.6593   20.5759 N   0  0  0  0  0  0
  -22.0451  -12.8199   22.0429 N   0  0  0  0  0  0
  -25.4181  -15.1962   20.4184 N   0  0  0  0  0  0
  -31.7981  -14.8935   20.1175 O   0  0  0  0  0  0
  -21.6644   -6.8885   21.4242 O   0  0  0  0  0  0
  -22.3477  -14.5520   20.6724 O   0  0  0  0  0  0
  -24.6385  -31.8486   23.1924 C   0  0  0  0  0  0
  -25.9167  -32.4725   23.8299 C   0  0  1  0  0  0
  -27.2127  -27.1762   20.1565 C   0  0  0  0  0  0
  -25.5930  -33.8529   24.2210 N   0  0  0  0  0  0
  -23.4420  -30.4681   21.5371 C   0  0  2  0  0  0
  -24.8918  -28.9042   20.1098 C   0  0  0  0  0  0
  -22.7548  -29.4558   22.4868 C   0  0  0  0  0  0
  -18.0295  -28.1390   22.8469 C   0  0  0  0  0  0
  -24.1489  -36.7279   23.2644 C   0  0  0  0  0  0
  -25.9945  -30.7349   21.3876 C   0  0  0  0  0  0
  -26.0673  -29.3495   20.7304 C   0  0  0  0  0  0
  -27.2325  -28.5008   20.7381 C   0  0  0  0  0  0
  -26.0201  -26.8274   19.4878 C   0  0  0  0  0  0
  -24.8784  -27.6547   19.4728 C   0  0  0  0  0  0
  -23.6671  -29.8019   20.1547 C   0  0  0  0  0  0
  -25.4125  -36.3051   24.0309 C   0  0  1  0  0  0
  -20.5907  -28.3710   23.1235 C   0  0  2  0  0  0
  -20.6793  -26.9413   22.5401 C   0  0  0  0  0  0
  -19.5770  -26.6374   21.5208 C   0  0  0  0  0  0
  -18.1943  -26.7928   22.1613 C   0  0  0  0  0  0
  -19.1556  -28.8868   23.2845 C   0  0  0  0  0  0
  -18.9476  -30.1464   23.8867 C   0  0  0  0  0  0
  -17.6472  -30.6588   24.0553 C   0  0  0  0  0  0
  -25.9065  -34.9420   23.5074 C   0  0  0  0  0  0
  -16.5359  -29.9084   23.6343 C   0  0  0  0  0  0
  -16.7286  -28.6502   23.0355 C   0  0  0  0  0  0
  -26.4500  -31.6586   25.0730 C   0  0  0  0  0  0
  -25.3687  -31.3762   26.1426 C   0  0  0  0  0  0
  -27.0377  -30.2991   24.6298 C   0  0  0  0  0  0
  -27.6031  -32.4353   25.7506 C   0  0  0  0  0  0
  -27.5582  -37.1789   24.8461 C   0  0  0  0  0  0
  -21.4247  -29.3040   22.3612 N   0  0  0  0  0  0
  -26.4297  -37.3754   23.9398 N   0  0  0  0  0  0
  -24.7113  -31.0364   22.0951 N   0  0  0  0  0  0
  -23.4201  -28.8107   23.3015 O   0  0  0  0  0  0
  -28.2608  -26.2003   20.1944 O   0  0  0  0  0  0
  -26.5661  -34.8905   22.4658 O   0  0  0  0  0  0
  -23.5509  -32.1353   23.7152 O   0  0  0  0  0  0
  -27.7644  -21.5929   23.4155 C   0  0  0  0  0  0
  -27.2003  -22.0615   22.1943 C   0  0  0  0  0  0
  -28.9565  -21.0243   23.0811 C   0  0  0  0  0  0
  -28.2532  -22.0223   21.3025 C   0  0  0  0  0  0
  -29.2299  -18.6602   19.8756 C   0  0  0  0  0  0
  -29.3711  -18.1873   22.1543 C   0  0  0  0  0  0
  -29.9453  -17.2136   19.6078 C   0  0  0  0  0  0
  -30.1434  -16.8202   21.9150 C   0  0  0  0  0  0
  -29.6283  -19.4379   21.1912 C   0  0  0  0  0  0
  -27.2153  -21.7287   24.8158 C   0  0  0  0  0  0
  -30.0854  -20.6380   23.9978 C   0  0  0  0  0  0
  -25.4598  -23.8183   22.9244 C   0  0  0  0  0  0
  -24.7392  -21.5346   22.1144 C   0  0  0  0  0  0
  -28.2812  -22.9041   18.8755 C   0  0  0  0  0  0
  -27.9459  -24.7779   20.6961 C   0  0  0  0  0  0
  -25.8022  -22.6364   21.9943 C   0  0  0  0  0  0
  -28.5966  -23.2672   20.3286 C   0  0  1  0  0  0
  -28.9056  -20.7545   21.7090 N   0  0  0  0  0  0
  -29.9097  -16.0923   20.6399 N   0  0  0  0  0  0
  -31.4655  -12.6573   19.1886 H   0  0  0  0  0  0
  -30.3834  -11.5798   20.0197 H   0  0  0  0  0  0
  -29.8172  -11.7247   17.5673 H   0  0  0  0  0  0
  -29.6147  -13.4550   17.7014 H   0  0  0  0  0  0
  -27.9325  -11.2760   18.9728 H   0  0  0  0  0  0
  -27.3813  -12.4604   17.8180 H   0  0  0  0  0  0
  -27.6028  -14.2544   19.4214 H   0  0  0  0  0  0
  -28.7366  -12.2939   21.4746 H   0  0  0  0  0  0
  -28.3870  -13.9875   21.7471 H   0  0  0  0  0  0
  -25.2772   -9.5692   22.4764 H   0  0  0  0  0  0
  -24.0010   -7.4643   22.7474 H   0  0  0  0  0  0
  -21.0860   -8.8784   19.8949 H   0  0  0  0  0  0
  -22.3713  -10.9683   19.6169 H   0  0  0  0  0  0
  -21.2004   -7.6152   23.9719 H   0  0  0  0  0  0
  -21.1478   -6.0526   25.9078 H   0  0  0  0  0  0
  -22.0600   -2.7614   23.2847 H   0  0  0  0  0  0
  -22.4077  -11.9858   22.4812 H   0  0  0  0  0  0
  -21.1062  -13.1208   22.2637 H   0  0  0  0  0  0
  -24.6594  -15.8565   20.5444 H   0  0  0  0  0  0
  -26.2858  -15.6371   20.1399 H   0  0  0  0  0  0
  -26.7234  -32.5351   23.1031 H   0  0  0  0  0  0
  -25.0020  -33.9650   25.0316 H   0  0  0  0  0  0
  -22.7426  -31.2928   21.3867 H   0  0  0  0  0  0
  -23.3753  -35.9611   23.3302 H   0  0  0  0  0  0
  -24.3566  -36.8930   22.2063 H   0  0  0  0  0  0
  -23.7242  -37.6468   23.6691 H   0  0  0  0  0  0
  -26.1444  -31.4924   20.6171 H   0  0  0  0  0  0
  -26.8652  -30.7835   22.0301 H   0  0  0  0  0  0
  -28.1301  -28.8334   21.2400 H   0  0  0  0  0  0
  -25.9552  -25.8734   18.9831 H   0  0  0  0  0  0
  -23.9842  -27.3096   18.9721 H   0  0  0  0  0  0
  -23.7990  -30.5784   19.4008 H   0  0  0  0  0  0
  -22.7839  -29.2403   19.8450 H   0  0  0  0  0  0
  -25.1304  -36.1904   25.0800 H   0  0  0  0  0  0
  -20.9984  -28.3304   24.1364 H   0  0  0  0  0  0
  -20.5703  -26.2311   23.3615 H   0  0  0  0  0  0
  -21.6665  -26.7446   22.1188 H   0  0  0  0  0  0
  -19.6940  -25.6279   21.1257 H   0  0  0  0  0  0
  -19.6721  -27.3178   20.6727 H   0  0  0  0  0  0
  -17.4216  -26.6662   21.4011 H   0  0  0  0  0  0
  -18.0341  -26.0082   22.9017 H   0  0  0  0  0  0
  -19.7960  -30.7272   24.2234 H   0  0  0  0  0  0
  -17.5040  -31.6269   24.5148 H   0  0  0  0  0  0
  -15.5365  -30.2966   23.7703 H   0  0  0  0  0  0
  -15.8682  -28.0814   22.7092 H   0  0  0  0  0  0
  -24.5860  -30.7128   25.7730 H   0  0  0  0  0  0
  -24.8882  -32.2943   26.4818 H   0  0  0  0  0  0
  -25.7957  -30.8945   27.0235 H   0  0  0  0  0  0
  -26.3005  -29.6697   24.1306 H   0  0  0  0  0  0
  -27.3997  -29.7296   25.4867 H   0  0  0  0  0  0
  -27.8895  -30.4230   23.9609 H   0  0  0  0  0  0
  -27.2634  -33.3670   26.2041 H   0  0  0  0  0  0
  -28.3860  -32.6898   25.0350 H   0  0  0  0  0  0
  -28.0688  -31.8525   26.5464 H   0  0  0  0  0  0
  -28.2577  -38.0106   24.7511 H   0  0  0  0  0  0
  -28.1087  -36.2622   24.6280 H   0  0  0  0  0  0
  -27.2280  -37.1442   25.8858 H   0  0  0  0  0  0
  -20.9452  -29.8757   21.6802 H   0  0  0  0  0  0
  -26.0171  -38.2820   24.1418 H   0  0  0  0  0  0
  -28.1484  -18.5151   19.8707 H   0  0  0  0  0  0
  -29.4287  -19.3106   19.0232 H   0  0  0  0  0  0
  -29.5763  -18.4142   23.1900 H   0  0  0  0  0  0
  -28.3003  -17.9753   22.1570 H   0  0  0  0  0  0
  -30.9966  -17.4074   19.3859 H   0  0  0  0  0  0
  -29.5372  -16.8042   18.6828 H   0  0  0  0  0  0
  -29.8881  -16.1409   22.7302 H   0  0  0  0  0  0
  -31.2148  -17.0054   22.0170 H   0  0  0  0  0  0
  -30.6965  -19.6555   21.1547 H   0  0  0  0  0  0
  -27.3636  -22.7449   25.1815 H   0  0  0  0  0  0
  -27.7179  -21.0487   25.5036 H   0  0  0  0  0  0
  -26.1510  -21.5004   24.8505 H   0  0  0  0  0  0
  -30.4657  -21.5213   24.5110 H   0  0  0  0  0  0
  -30.9320  -20.2029   23.4667 H   0  0  0  0  0  0
  -29.7575  -19.9422   24.7703 H   0  0  0  0  0  0
  -26.2008  -24.6135   22.8843 H   0  0  0  0  0  0
  -25.3706  -23.5135   23.9654 H   0  0  0  0  0  0
  -24.5024  -24.2580   22.6444 H   0  0  0  0  0  0
  -24.9252  -20.7312   21.4013 H   0  0  0  0  0  0
  -23.7430  -21.9281   21.9095 H   0  0  0  0  0  0
  -24.7212  -21.0910   23.1093 H   0  0  0  0  0  0
  -28.8354  -22.0169   18.5676 H   0  0  0  0  0  0
  -28.5531  -23.7170   18.2032 H   0  0  0  0  0  0
  -27.2186  -22.6983   18.7446 H   0  0  0  0  0  0
  -28.1145  -24.8849   21.7666 H   0  0  0  0  0  0
  -26.8735  -24.6723   20.5951 H   0  0  0  0  0  0
  -25.7321  -22.9707   20.9613 H   0  0  0  0  0  0
  -29.6778  -23.4006   20.3855 H   0  0  0  0  0  0
  1 25  1  0  0  0
  1 30  2  0  0  0
  1 89  1  0  0  0
  2  3  1  0  0  0
  2 25  1  0  0  0
  2 90  1  0  0  0
  2 91  1  0  0  0
  3  4  1  0  0  0
  3 92  1  0  0  0
  3 93  1  0  0  0
  4  5  1  0  0  0
  4 94  1  0  0  0
  4 95  1  0  0  0
  5  6  1  0  0  0
  5 26  1  0  0  0
  5 96  1  0  0  0
  6 25  1  0  0  0
  6 97  1  0  0  0
  6 98  1  0  0  0
  7  8  2  0  0  0
  7 26  1  0  0  0
  7 29  1  0  0  0
  8  9  1  0  0  0
  8 22  1  0  0  0
  9 10  1  0  0  0
  9 27  2  0  0  0
 10 11  2  0  0  0
 10 15  1  0  0  0
 11 12  1  0  0  0
 11 99  1  0  0  0
 12 13  2  0  0  0
 12100  1  0  0  0
 13 14  1  0  0  0
 13 31  1  0  0  0
 14 15  2  0  0  0
 14101  1  0  0  0
 15102  1  0  0  0
 16 17  2  0  0  0
 16 21  1  0  0  0
 16 31  1  0  0  0
 17 18  1  0  0  0
 17103  1  0  0  0
 18 19  2  0  0  0
 18104  1  0  0  0
 19 20  1  0  0  0
 19 24  1  0  0  0
 20 21  2  0  0  0
 20105  1  0  0  0
 21 23  1  0  0  0
 22 28  1  0  0  0
 22 32  2  0  0  0
 26 27  1  0  0  0
 28106  1  0  0  0
 28107  1  0  0  0
 29108  1  0  0  0
 29109  1  0  0  0
 33 34  1  0  0  0
 33 66  1  0  0  0
 33 70  2  0  0  0
 34 36  1  0  0  0
 34 59  1  0  0  0
 34110  1  0  0  0
 35 44  2  0  0  0
 35 45  1  0  0  0
 35 68  1  0  0  0
 36 56  1  0  0  0
 36111  1  0  0  0
 37 39  1  0  0  0
 37 47  1  0  0  0
 37 66  1  0  0  0
 37112  1  0  0  0
 38 43  2  0  0  0
 38 46  1  0  0  0
 38 47  1  0  0  0
 39 64  1  0  0  0
 39 67  2  0  0  0
 40 52  1  0  0  0
 40 53  2  0  0  0
 40 58  1  0  0  0
 41113  1  0  0  0
 41114  1  0  0  0
 41115  1  0  0  0
 41 48  1  0  0  0
 42 43  1  0  0  0
 42 66  1  0  0  0
 42116  1  0  0  0
 42117  1  0  0  0
 43 44  1  0  0  0
 44118  1  0  0  0
 45 46  2  0  0  0
 45119  1  0  0  0
 46120  1  0  0  0
 47121  1  0  0  0
 47122  1  0  0  0
 48 56  1  0  0  0
 48 65  1  0  0  0
 48123  1  0  0  0
 49 50  1  0  0  0
 49 53  1  0  0  0
 49 64  1  0  0  0
 49124  1  0  0  0
 50 51  1  0  0  0
 50125  1  0  0  0
 50126  1  0  0  0
 51 52  1  0  0  0
 51127  1  0  0  0
 51128  1  0  0  0
 52129  1  0  0  0
 52130  1  0  0  0
 53 54  1  0  0  0
 54 55  2  0  0  0
 54131  1  0  0  0
 55 57  1  0  0  0
 55132  1  0  0  0
 56 69  2  0  0  0
 57 58  2  0  0  0
 57133  1  0  0  0
 58134  1  0  0  0
 59 60  1  0  0  0
 59 61  1  0  0  0
 59 62  1  0  0  0
 60135  1  0  0  0
 60136  1  0  0  0
 60137  1  0  0  0
 61138  1  0  0  0
 61139  1  0  0  0
 61140  1  0  0  0
 62141  1  0  0  0
 62142  1  0  0  0
 62143  1  0  0  0
 63 65  1  0  0  0
 63144  1  0  0  0
 63145  1  0  0  0
 63146  1  0  0  0
 64147  1  0  0  0
 65148  1  0  0  0
 68 85  1  0  0  0
 71 72  1  0  0  0
 71 73  2  0  0  0
 71 80  1  0  0  0
 72 74  2  0  0  0
 72 86  1  0  0  0
 73 81  1  0  0  0
 73 88  1  0  0  0
 74 87  1  0  0  0
 74 88  1  0  0  0
 75 77  1  0  0  0
 75 79  1  0  0  0
 75149  1  0  0  0
 75150  1  0  0  0
 76 78  1  0  0  0
 76 79  1  0  0  0
 76151  1  0  0  0
 76152  1  0  0  0
 77 89  1  0  0  0
 77153  1  0  0  0
 77154  1  0  0  0
 78 89  1  0  0  0
 78155  1  0  0  0
 78156  1  0  0  0
 79 88  1  0  0  0
 79157  1  0  0  0
 80158  1  0  0  0
 80159  1  0  0  0
 80160  1  0  0  0
 81161  1  0  0  0
 81162  1  0  0  0
 81163  1  0  0  0
 82164  1  0  0  0
 82165  1  0  0  0
 82166  1  0  0  0
 82 86  1  0  0  0
 83 86  1  0  0  0
 83167  1  0  0  0
 83168  1  0  0  0
 83169  1  0  0  0
 84170  1  0  0  0
 84171  1  0  0  0
 84172  1  0  0  0
 84 87  1  0  0  0
 85 87  1  0  0  0
 85173  1  0  0  0
 85174  1  0  0  0
 86175  1  0  0  0
 87176  1  0  0  0
M  ISO  4   1 100  68 101  85 101  89 100
M  END
> <chiral flag>
0

> <version>
0

> <s_m_source_file>
/data/baiqing/PycharmProjects/Reinvent-master-3.2/result/LINK_invent/BTK/process_docking_weight1_custom_sum_contain_oxygen_bond_distance_aromatic_linkinvent_7_9_3/rearranged_h_0163.sdf

> <i_m_source_file_index>
11

> <r_mmod_Potential_Energy-OPLS-2005>
855.963989257812

> <r_mmod_Stretch_Energy-OPLS-2005>
225.578872680664

> <r_mmod_Bend_Energy-OPLS-2005>
340.281768798828

> <r_mmod_Torsional_Energy-OPLS-2005>
542.056274414062

> <r_mmod_Improper_Torsional_Energy-OPLS-2005>
13.2066507339478

> <r_mmod_Van_der_Waal_Energy-OPLS-2005>
120.108276367188

> <r_mmod_Electrostatic_Energy-OPLS-2005>
-349.3408203125

> <r_mmod_Solvation_Energy-OPLS-2005>
-184.933563232422

> <b_mmod_Minimization_Converged-OPLS-2005>
0

> <r_mmod_RMS_Derivative-OPLS-2005>
1.50709354877472

$$$$
11
                    3D
 Structure written by MMmdl.
168179  0  0  1  0            999 V2000
  -30.6431  -14.6729   20.4905 C   0  0  0  0  0  0
  -30.4265  -12.4180   19.4545 C   0  0  0  0  0  0
  -29.5004  -12.5102   18.2235 C   0  0  0  0  0  0
  -28.0271  -12.3356   18.6385 C   0  0  0  0  0  0
  -27.6434  -13.2209   19.8540 C   0  0  2  0  0  0
  -28.6905  -13.1285   20.9855 C   0  0  0  0  0  0
  -25.2535  -13.8167   20.5697 C   0  0  0  0  0  0
  -24.1808  -13.0428   20.9186 C   0  0  0  0  0  0
  -24.6378  -11.6896   20.8727 C   0  0  0  0  0  0
  -23.9045  -10.4281   21.0394 C   0  0  0  0  0  0
  -24.3604   -9.4204   21.9171 C   0  0  0  0  0  0
  -23.6278   -8.2246   22.0746 C   0  0  0  0  0  0
  -22.4262   -8.0275   21.3539 C   0  0  0  0  0  0
  -21.9893   -9.0247   20.4643 C   0  0  0  0  0  0
  -22.7219  -10.2123   20.3044 C   0  0  0  0  0  0
  -21.6858   -6.0716   22.5265 C   0  0  0  0  0  0
  -21.4022   -6.5625   23.8200 C   0  0  0  0  0  0
  -21.3669   -5.6784   24.9167 C   0  0  0  0  0  0
  -21.6047   -4.3046   24.7223 C   0  0  0  0  0  0
  -21.8831   -3.8130   23.4348 C   0  0  0  0  0  0
  -21.9207   -4.6942   22.3395 C   0  0  0  0  0  0
  -22.7839  -13.5226   21.1848 C   0  0  0  0  0  0
  -22.1669   -4.2126   21.0974 F   0  0  0  0  0  0
  -21.5629   -3.4535   25.7742 F   0  0  0  0  0  0
  -29.9976  -13.4635   20.4079 N   0  0  0  0  0  0
  -26.2947  -12.9347   20.3307 N   0  0  0  0  0  0
  -25.9308  -11.6497   20.5744 N   0  0  0  0  0  0
  -22.0495  -12.8207   22.0406 N   0  0  0  0  0  0
  -25.4253  -15.1893   20.4134 N   0  0  0  0  0  0
  -31.8214  -14.7792   20.1407 O   0  0  0  0  0  0
  -21.6651   -6.8855   21.4223 O   0  0  0  0  0  0
  -22.3521  -14.5539   20.6705 O   0  0  0  0  0  0
  -24.6268  -31.8595   23.2023 C   0  0  0  0  0  0
  -25.9110  -32.4779   23.8351 C   0  0  1  0  0  0
  -27.2190  -27.3102   20.1183 C   0  0  0  0  0  0
  -25.5918  -33.8577   24.2279 N   0  0  0  0  0  0
  -23.4199  -30.4833   21.5466 C   0  0  2  0  0  0
  -24.8643  -28.9376   20.1149 C   0  0  0  0  0  0
  -22.7470  -29.4624   22.4951 C   0  0  0  0  0  0
  -18.0284  -28.1384   22.8493 C   0  0  0  0  0  0
  -24.1485  -36.7295   23.2639 C   0  0  0  0  0  0
  -25.9617  -30.7902   21.3718 C   0  0  0  0  0  0
  -26.0358  -29.4170   20.7137 C   0  0  0  0  0  0
  -27.2186  -28.6166   20.7010 C   0  0  0  0  0  0
  -26.0188  -26.8836   19.5056 C   0  0  0  0  0  0
  -24.8570  -27.6767   19.5018 C   0  0  0  0  0  0
  -23.6328  -29.8179   20.1627 C   0  0  0  0  0  0
  -25.4112  -36.3086   24.0323 C   0  0  1  0  0  0
  -20.5880  -28.3692   23.1282 C   0  0  2  0  0  0
  -20.6769  -26.9414   22.5415 C   0  0  0  0  0  0
  -19.5748  -26.6384   21.5211 C   0  0  0  0  0  0
  -18.1926  -26.7928   22.1622 C   0  0  0  0  0  0
  -19.1533  -28.8852   23.2885 C   0  0  0  0  0  0
  -18.9456  -30.1453   23.8909 C   0  0  0  0  0  0
  -17.6455  -30.6588   24.0566 C   0  0  0  0  0  0
  -25.9047  -34.9452   23.5102 C   0  0  0  0  0  0
  -16.5351  -29.9088   23.6329 C   0  0  0  0  0  0
  -16.7267  -28.6500   23.0358 C   0  0  0  0  0  0
  -26.4491  -31.6586   25.0718 C   0  0  0  0  0  0
  -25.3726  -31.3724   26.1446 C   0  0  0  0  0  0
  -27.0326  -30.3009   24.6171 C   0  0  0  0  0  0
  -27.6045  -32.4322   25.7502 C   0  0  0  0  0  0
  -27.5581  -37.1800   24.8463 C   0  0  0  0  0  0
  -21.4182  -29.3049   22.3682 N   0  0  0  0  0  0
  -26.4294  -37.3782   23.9403 N   0  0  0  0  0  0
  -24.6886  -31.0604   22.0974 N   0  0  0  0  0  0
  -23.4186  -28.8151   23.3026 O   0  0  0  0  0  0
  -28.3353  -26.4552   20.1549 O   0  0  0  0  0  0
  -26.5624  -34.8920   22.4676 O   0  0  0  0  0  0
  -23.5432  -32.1394   23.7355 O   0  0  0  0  0  0
  -29.5297  -20.2478   21.2220 C   0  0  0  0  0  0
  -29.5117  -19.3747   20.0998 C   0  0  0  0  0  0
  -29.2441  -20.0030   18.8439 C   0  0  0  0  0  0
  -29.1652  -22.3166   19.8599 C   0  0  0  0  0  0
  -29.3381  -21.6652   21.1156 C   0  0  0  0  0  0
  -29.1729  -21.4392   18.7267 C   0  0  0  0  0  0
  -27.9522  -19.3592   16.6160 C   0  0  0  0  0  0
  -27.9370  -18.1422   17.4906 C   0  0  0  0  0  0
  -28.0302  -24.4647   18.7922 C   0  0  0  0  0  0
  -30.4559  -17.0707   21.4343 C   0  0  0  0  0  0
  -28.9866  -16.5871   20.0638 C   0  0  0  0  0  0
  -29.8994  -17.8311   20.2060 C   0  0  0  0  0  0
  -29.0783  -19.1351   17.6145 C   0  0  0  0  0  0
  -29.1122  -23.8922   19.6866 C   0  0  1  0  0  0
  -28.0878  -24.9877   20.1974 C   0  0  1  0  0  0
  -29.3940  -22.5063   22.3789 C   0  0  0  0  0  0
  -29.1908  -22.0630   17.3309 C   0  0  0  0  0  0
  -29.9256  -15.7841   20.8922 N   0  0  0  0  0  0
  -31.4682  -12.5339   19.1498 H   0  0  0  0  0  0
  -30.3589  -11.4322   19.9172 H   0  0  0  0  0  0
  -29.7730  -11.7543   17.4863 H   0  0  0  0  0  0
  -29.6341  -13.4773   17.7355 H   0  0  0  0  0  0
  -27.8756  -11.2832   18.8823 H   0  0  0  0  0  0
  -27.3710  -12.5470   17.7934 H   0  0  0  0  0  0
  -27.6400  -14.2448   19.4857 H   0  0  0  0  0  0
  -28.7132  -12.1250   21.4117 H   0  0  0  0  0  0
  -28.4346  -13.8049   21.8035 H   0  0  0  0  0  0
  -25.2745   -9.5698   22.4751 H   0  0  0  0  0  0
  -23.9996   -7.4650   22.7470 H   0  0  0  0  0  0
  -21.0830   -8.8753   19.8945 H   0  0  0  0  0  0
  -22.3662  -10.9662   19.6160 H   0  0  0  0  0  0
  -21.1999   -7.6130   23.9691 H   0  0  0  0  0  0
  -21.1485   -6.0512   25.9069 H   0  0  0  0  0  0
  -22.0599   -2.7584   23.2860 H   0  0  0  0  0  0
  -22.4109  -11.9854   22.4775 H   0  0  0  0  0  0
  -21.1119  -13.1217   22.2649 H   0  0  0  0  0  0
  -24.6590  -15.8437   20.5265 H   0  0  0  0  0  0
  -26.2816  -15.6296   20.1042 H   0  0  0  0  0  0
  -26.7172  -32.5441   23.1093 H   0  0  0  0  0  0
  -25.0043  -33.9723   25.0409 H   0  0  0  0  0  0
  -22.7153  -31.3052   21.4035 H   0  0  0  0  0  0
  -23.3750  -35.9623   23.3301 H   0  0  0  0  0  0
  -24.3590  -36.8922   22.2053 H   0  0  0  0  0  0
  -23.7230  -37.6488   23.6669 H   0  0  0  0  0  0
  -26.0907  -31.5527   20.6028 H   0  0  0  0  0  0
  -26.8427  -30.8406   21.9998 H   0  0  0  0  0  0
  -28.1191  -28.9806   21.1748 H   0  0  0  0  0  0
  -25.9450  -25.9197   19.0277 H   0  0  0  0  0  0
  -23.9573  -27.3035   19.0327 H   0  0  0  0  0  0
  -23.7508  -30.5925   19.4042 H   0  0  0  0  0  0
  -22.7528  -29.2462   19.8613 H   0  0  0  0  0  0
  -25.1298  -36.1939   25.0820 H   0  0  0  0  0  0
  -20.9973  -28.3264   24.1402 H   0  0  0  0  0  0
  -20.5664  -26.2301   23.3617 H   0  0  0  0  0  0
  -21.6639  -26.7444   22.1205 H   0  0  0  0  0  0
  -19.6909  -25.6294   21.1244 H   0  0  0  0  0  0
  -19.6677  -27.3192   20.6738 H   0  0  0  0  0  0
  -17.4191  -26.6673   21.4026 H   0  0  0  0  0  0
  -18.0332  -26.0071   22.9018 H   0  0  0  0  0  0
  -19.7933  -30.7263   24.2285 H   0  0  0  0  0  0
  -17.5012  -31.6274   24.5158 H   0  0  0  0  0  0
  -15.5354  -30.2991   23.7651 H   0  0  0  0  0  0
  -15.8662  -28.0812   22.7090 H   0  0  0  0  0  0
  -24.5892  -30.7090   25.7768 H   0  0  0  0  0  0
  -24.8929  -32.2889   26.4885 H   0  0  0  0  0  0
  -25.8042  -30.8882   27.0216 H   0  0  0  0  0  0
  -26.2892  -29.6769   24.1194 H   0  0  0  0  0  0
  -27.4016  -29.7257   25.4674 H   0  0  0  0  0  0
  -27.8772  -30.4293   23.9397 H   0  0  0  0  0  0
  -27.2643  -33.3612   26.2095 H   0  0  0  0  0  0
  -28.3854  -32.6902   25.0333 H   0  0  0  0  0  0
  -28.0718  -31.8440   26.5413 H   0  0  0  0  0  0
  -28.2591  -38.0103   24.7525 H   0  0  0  0  0  0
  -28.1084  -36.2637   24.6277 H   0  0  0  0  0  0
  -27.2307  -37.1435   25.8869 H   0  0  0  0  0  0
  -20.9358  -29.8783   21.6904 H   0  0  0  0  0  0
  -26.0175  -38.2852   24.1417 H   0  0  0  0  0  0
  -29.7248  -19.8228   22.1970 H   0  0  0  0  0  0
  -27.1986  -20.1141   16.8310 H   0  0  0  0  0  0
  -28.1736  -19.2100   15.5613 H   0  0  0  0  0  0
  -28.1274  -17.1940   16.9918 H   0  0  0  0  0  0
  -27.1868  -18.1184   18.2789 H   0  0  0  0  0  0
  -27.1708  -23.8390   18.5600 H   0  0  0  0  0  0
  -28.3519  -25.1235   17.9876 H   0  0  0  0  0  0
  -29.9790  -17.3563   22.3727 H   0  0  0  0  0  0
  -31.5410  -17.1350   21.5264 H   0  0  0  0  0  0
  -28.8839  -16.2347   19.0376 H   0  0  0  0  0  0
  -28.0108  -16.7200   20.5333 H   0  0  0  0  0  0
  -30.6694  -17.7324   19.4380 H   0  0  0  0  0  0
  -30.0484  -18.8423   17.2167 H   0  0  0  0  0  0
  -30.1268  -24.2489   19.5203 H   0  0  0  0  0  0
  -27.3178  -24.6911   20.9080 H   0  0  0  0  0  0
  -29.5703  -21.8967   23.2652 H   0  0  0  0  0  0
  -28.4566  -23.0428   22.5257 H   0  0  0  0  0  0
  -30.1987  -23.2396   22.3145 H   0  0  0  0  0  0
  -29.6810  -21.4248   16.5974 H   0  0  0  0  0  0
  -29.7603  -22.9918   17.3134 H   0  0  0  0  0  0
  -28.1802  -22.2730   16.9825 H   0  0  0  0  0  0
  1 25  1  0  0  0
  1 30  2  0  0  0
  1 88  1  0  0  0
  2  3  1  0  0  0
  2 25  1  0  0  0
  2 89  1  0  0  0
  2 90  1  0  0  0
  3  4  1  0  0  0
  3 91  1  0  0  0
  3 92  1  0  0  0
  4  5  1  0  0  0
  4 93  1  0  0  0
  4 94  1  0  0  0
  5  6  1  0  0  0
  5 26  1  0  0  0
  5 95  1  0  0  0
  6 25  1  0  0  0
  6 96  1  0  0  0
  6 97  1  0  0  0
  7  8  2  0  0  0
  7 26  1  0  0  0
  7 29  1  0  0  0
  8  9  1  0  0  0
  8 22  1  0  0  0
  9 10  1  0  0  0
  9 27  2  0  0  0
 10 11  2  0  0  0
 10 15  1  0  0  0
 11 12  1  0  0  0
 11 98  1  0  0  0
 12 13  2  0  0  0
 12 99  1  0  0  0
 13 14  1  0  0  0
 13 31  1  0  0  0
 14 15  2  0  0  0
 14100  1  0  0  0
 15101  1  0  0  0
 16 17  2  0  0  0
 16 21  1  0  0  0
 16 31  1  0  0  0
 17 18  1  0  0  0
 17102  1  0  0  0
 18 19  2  0  0  0
 18103  1  0  0  0
 19 20  1  0  0  0
 19 24  1  0  0  0
 20 21  2  0  0  0
 20104  1  0  0  0
 21 23  1  0  0  0
 22 28  1  0  0  0
 22 32  2  0  0  0
 26 27  1  0  0  0
 28105  1  0  0  0
 28106  1  0  0  0
 29107  1  0  0  0
 29108  1  0  0  0
 33 34  1  0  0  0
 33 66  1  0  0  0
 33 70  2  0  0  0
 34 36  1  0  0  0
 34 59  1  0  0  0
 34109  1  0  0  0
 35 44  2  0  0  0
 35 45  1  0  0  0
 35 68  1  0  0  0
 36 56  1  0  0  0
 36110  1  0  0  0
 37 39  1  0  0  0
 37 47  1  0  0  0
 37 66  1  0  0  0
 37111  1  0  0  0
 38 43  2  0  0  0
 38 46  1  0  0  0
 38 47  1  0  0  0
 39 64  1  0  0  0
 39 67  2  0  0  0
 40 52  1  0  0  0
 40 53  2  0  0  0
 40 58  1  0  0  0
 41112  1  0  0  0
 41113  1  0  0  0
 41114  1  0  0  0
 41 48  1  0  0  0
 42 43  1  0  0  0
 42 66  1  0  0  0
 42115  1  0  0  0
 42116  1  0  0  0
 43 44  1  0  0  0
 44117  1  0  0  0
 45 46  2  0  0  0
 45118  1  0  0  0
 46119  1  0  0  0
 47120  1  0  0  0
 47121  1  0  0  0
 48 56  1  0  0  0
 48 65  1  0  0  0
 48122  1  0  0  0
 49 50  1  0  0  0
 49 53  1  0  0  0
 49 64  1  0  0  0
 49123  1  0  0  0
 50 51  1  0  0  0
 50124  1  0  0  0
 50125  1  0  0  0
 51 52  1  0  0  0
 51126  1  0  0  0
 51127  1  0  0  0
 52128  1  0  0  0
 52129  1  0  0  0
 53 54  1  0  0  0
 54 55  2  0  0  0
 54130  1  0  0  0
 55 57  1  0  0  0
 55131  1  0  0  0
 56 69  2  0  0  0
 57 58  2  0  0  0
 57132  1  0  0  0
 58133  1  0  0  0
 59 60  1  0  0  0
 59 61  1  0  0  0
 59 62  1  0  0  0
 60134  1  0  0  0
 60135  1  0  0  0
 60136  1  0  0  0
 61137  1  0  0  0
 61138  1  0  0  0
 61139  1  0  0  0
 62140  1  0  0  0
 62141  1  0  0  0
 62142  1  0  0  0
 63 65  1  0  0  0
 63143  1  0  0  0
 63144  1  0  0  0
 63145  1  0  0  0
 64146  1  0  0  0
 65147  1  0  0  0
 68 85  1  0  0  0
 71 72  2  0  0  0
 71 75  1  0  0  0
 71148  1  0  0  0
 72 73  1  0  0  0
 72 82  1  0  0  0
 73 76  2  0  0  0
 73 83  1  0  0  0
 74 75  2  0  0  0
 74 76  1  0  0  0
 74 84  1  0  0  0
 75 86  1  0  0  0
 76 87  1  0  0  0
 77 78  1  0  0  0
 77 83  1  0  0  0
 77149  1  0  0  0
 77150  1  0  0  0
 78 83  1  0  0  0
 78151  1  0  0  0
 78152  1  0  0  0
 79 84  1  0  0  0
 79 85  1  0  0  0
 79153  1  0  0  0
 79154  1  0  0  0
 80 82  1  0  0  0
 80 88  1  0  0  0
 80155  1  0  0  0
 80156  1  0  0  0
 81 82  1  0  0  0
 81 88  1  0  0  0
 81157  1  0  0  0
 81158  1  0  0  0
 82159  1  0  0  0
 83160  1  0  0  0
 84 85  1  0  0  0
 84161  1  0  0  0
 85162  1  0  0  0
 86163  1  0  0  0
 86164  1  0  0  0
 86165  1  0  0  0
 87166  1  0  0  0
 87167  1  0  0  0
 87168  1  0  0  0
M  ISO  4   1 100  68 101  85 101  88 100
M  END
> <chiral flag>
0

> <version>
0

> <s_m_source_file>
/data/baiqing/PycharmProjects/Reinvent-master-3.2/result/LINK_invent/BTK/process_docking_weight1_custom_sum_contain_oxygen_bond_distance_aromatic_linkinvent_7_9_3/rearranged_h_0163.sdf

> <i_m_source_file_index>
12

> <r_mmod_Potential_Energy-OPLS-2005>
235.462646484375

> <r_mmod_Stretch_Energy-OPLS-2005>
97.0068740844727

> <r_mmod_Bend_Energy-OPLS-2005>
162.588623046875

> <r_mmod_Torsional_Energy-OPLS-2005>
330.425872802734

> <r_mmod_Improper_Torsional_Energy-OPLS-2005>
9.24857330322266

> <r_mmod_Van_der_Waal_Energy-OPLS-2005>
146.031127929688

> <r_mmod_Electrostatic_Energy-OPLS-2005>
-363.277923583984

> <r_mmod_Solvation_Energy-OPLS-2005>
-203.49235534668

> <b_mmod_Minimization_Converged-OPLS-2005>
0

> <r_mmod_RMS_Derivative-OPLS-2005>
1.63057148456573

$$$$
12
                    3D
 Structure written by MMmdl.
163172  0  0  1  0            999 V2000
  -30.5215  -15.0372   20.4418 C   0  0  0  0  0  0
  -30.4521  -12.6695   19.5068 C   0  0  0  0  0  0
  -29.5242  -12.5307   18.2769 C   0  0  0  0  0  0
  -28.0609  -12.3077   18.6947 C   0  0  0  0  0  0
  -27.6265  -13.2591   19.8402 C   0  0  2  0  0  0
  -28.6714  -13.3243   20.9767 C   0  0  0  0  0  0
  -25.2437  -13.8254   20.5790 C   0  0  0  0  0  0
  -24.1779  -13.0483   20.9322 C   0  0  0  0  0  0
  -24.6410  -11.6939   20.8824 C   0  0  0  0  0  0
  -23.9122  -10.4304   21.0439 C   0  0  0  0  0  0
  -24.3662   -9.4195   21.9211 C   0  0  0  0  0  0
  -23.6329   -8.2231   22.0743 C   0  0  0  0  0  0
  -22.4294   -8.0300   21.3537 C   0  0  0  0  0  0
  -21.9967   -9.0279   20.4626 C   0  0  0  0  0  0
  -22.7303  -10.2156   20.3064 C   0  0  0  0  0  0
  -21.6853   -6.0776   22.5291 C   0  0  0  0  0  0
  -21.3998   -6.5667   23.8229 C   0  0  0  0  0  0
  -21.3641   -5.6808   24.9176 C   0  0  0  0  0  0
  -21.6056   -4.3081   24.7228 C   0  0  0  0  0  0
  -21.8814   -3.8180   23.4345 C   0  0  0  0  0  0
  -21.9185   -4.7004   22.3399 C   0  0  0  0  0  0
  -22.7776  -13.5194   21.1963 C   0  0  0  0  0  0
  -22.1642   -4.2203   21.0977 F   0  0  0  0  0  0
  -21.5624   -3.4548   25.7734 F   0  0  0  0  0  0
  -29.9319  -13.7699   20.3686 N   0  0  0  0  0  0
  -26.2877  -12.9527   20.3291 N   0  0  0  0  0  0
  -25.9354  -11.6641   20.5813 N   0  0  0  0  0  0
  -22.0415  -12.8149   22.0459 N   0  0  0  0  0  0
  -25.4120  -15.2019   20.4216 N   0  0  0  0  0  0
  -31.7355  -15.0896   20.2126 O   0  0  0  0  0  0
  -21.6632   -6.8915   21.4245 O   0  0  0  0  0  0
  -22.3433  -14.5479   20.6777 O   0  0  0  0  0  0
  -24.6419  -31.8466   23.1873 C   0  0  0  0  0  0
  -25.9200  -32.4669   23.8312 C   0  0  1  0  0  0
  -27.2102  -27.1282   20.1676 C   0  0  0  0  0  0
  -25.5993  -33.8499   24.2186 N   0  0  0  0  0  0
  -23.4462  -30.4603   21.5300 C   0  0  2  0  0  0
  -24.8952  -28.8912   20.0954 C   0  0  0  0  0  0
  -22.7593  -29.4507   22.4843 C   0  0  0  0  0  0
  -18.0336  -28.1413   22.8470 C   0  0  0  0  0  0
  -24.1493  -36.7262   23.2638 C   0  0  0  0  0  0
  -25.9990  -30.7173   21.3822 C   0  0  0  0  0  0
  -26.0661  -29.3279   20.7234 C   0  0  0  0  0  0
  -27.2218  -28.4622   20.7371 C   0  0  0  0  0  0
  -26.0130  -26.7898   19.5017 C   0  0  0  0  0  0
  -24.8848  -27.6354   19.4671 C   0  0  0  0  0  0
  -23.6692  -29.7885   20.1447 C   0  0  0  0  0  0
  -25.4098  -36.2981   24.0297 C   0  0  1  0  0  0
  -20.5942  -28.3713   23.1262 C   0  0  2  0  0  0
  -20.6759  -26.9396   22.5424 C   0  0  0  0  0  0
  -19.5728  -26.6356   21.5234 C   0  0  0  0  0  0
  -18.1922  -26.7963   22.1623 C   0  0  0  0  0  0
  -19.1593  -28.8895   23.2865 C   0  0  0  0  0  0
  -18.9464  -30.1499   23.8862 C   0  0  0  0  0  0
  -17.6443  -30.6576   24.0568 C   0  0  0  0  0  0
  -25.9064  -34.9379   23.4996 C   0  0  0  0  0  0
  -16.5349  -29.9046   23.6342 C   0  0  0  0  0  0
  -16.7322  -28.6497   23.0332 C   0  0  0  0  0  0
  -26.4535  -31.6569   25.0768 C   0  0  0  0  0  0
  -25.3743  -31.3745   26.1487 C   0  0  0  0  0  0
  -27.0429  -30.2972   24.6339 C   0  0  0  0  0  0
  -27.6080  -32.4386   25.7520 C   0  0  0  0  0  0
  -27.5547  -37.1732   24.8445 C   0  0  0  0  0  0
  -21.4287  -29.3070   22.3654 N   0  0  0  0  0  0
  -26.4239  -37.3694   23.9416 N   0  0  0  0  0  0
  -24.7158  -31.0326   22.0865 N   0  0  0  0  0  0
  -23.4254  -28.8026   23.2975 O   0  0  0  0  0  0
  -28.2789  -26.1706   20.2930 O   0  0  0  0  0  0
  -26.5638  -34.8894   22.4571 O   0  0  0  0  0  0
  -23.5538  -32.1379   23.7025 O   0  0  0  0  0  0
  -28.8906  -21.7290   18.8113 C   0  0  0  0  0  0
  -28.7912  -21.8013   20.2116 C   0  0  0  0  0  0
  -29.2051  -20.5569   18.0896 C   0  0  0  0  0  0
  -29.0604  -20.4637   20.8576 C   0  0  0  0  0  0
  -29.4935  -19.3136   18.7358 C   0  0  0  0  0  0
  -29.4577  -19.1919   20.1543 C   0  0  0  0  0  0
  -28.5905  -23.6452   22.2742 C   0  0  0  0  0  0
  -27.2089  -23.3182   21.7936 C   0  0  0  0  0  0
  -28.3606  -23.3171   20.8042 C   0  0  0  0  0  0
  -29.2846  -20.7398   16.5775 C   0  0  0  0  0  0
  -28.9109  -20.3684   22.3699 C   0  0  0  0  0  0
  -29.9426  -18.1110   17.9067 C   0  0  0  0  0  0
  -30.0727  -17.7798   20.8350 C   0  0  0  0  0  0
  -28.2995  -24.6754   19.8407 C   0  0  0  0  0  0
  -29.7388  -16.2314   20.5905 N   0  0  0  0  0  0
  -31.4685  -12.8862   19.1745 H   0  0  0  0  0  0
  -30.5156  -11.7436   20.0755 H   0  0  0  0  0  0
  -29.8632  -11.7120   17.6416 H   0  0  0  0  0  0
  -29.5870  -13.4363   17.6745 H   0  0  0  0  0  0
  -27.9509  -11.2682   19.0042 H   0  0  0  0  0  0
  -27.4057  -12.4292   17.8327 H   0  0  0  0  0  0
  -27.5715  -14.2513   19.3914 H   0  0  0  0  0  0
  -28.7937  -12.3521   21.4531 H   0  0  0  0  0  0
  -28.3564  -14.0204   21.7583 H   0  0  0  0  0  0
  -25.2793   -9.5687   22.4821 H   0  0  0  0  0  0
  -24.0053   -7.4590   22.7421 H   0  0  0  0  0  0
  -21.0936   -8.8811   19.8887 H   0  0  0  0  0  0
  -22.3770  -10.9726   19.6205 H   0  0  0  0  0  0
  -21.1955   -7.6175   23.9751 H   0  0  0  0  0  0
  -21.1474   -6.0532   25.9090 H   0  0  0  0  0  0
  -22.0612   -2.7659   23.2829 H   0  0  0  0  0  0
  -22.4034  -11.9831   22.4895 H   0  0  0  0  0  0
  -21.1002  -13.1114   22.2584 H   0  0  0  0  0  0
  -24.6619  -15.8668   20.5741 H   0  0  0  0  0  0
  -26.2530  -15.6346   20.0661 H   0  0  0  0  0  0
  -26.7274  -32.5218   23.1081 H   0  0  0  0  0  0
  -25.0254  -33.9696   25.0397 H   0  0  0  0  0  0
  -22.7532  -31.2895   21.3726 H   0  0  0  0  0  0
  -23.3737  -35.9609   23.3218 H   0  0  0  0  0  0
  -24.3614  -36.8987   22.2073 H   0  0  0  0  0  0
  -23.7280  -37.6426   23.6779 H   0  0  0  0  0  0
  -26.1545  -31.4703   20.6095 H   0  0  0  0  0  0
  -26.8753  -30.7687   22.0161 H   0  0  0  0  0  0
  -28.1217  -28.7818   21.2425 H   0  0  0  0  0  0
  -25.9043  -25.8272   19.0347 H   0  0  0  0  0  0
  -23.9883  -27.2863   18.9743 H   0  0  0  0  0  0
  -23.7989  -30.5708   19.3985 H   0  0  0  0  0  0
  -22.7882  -29.2306   19.8193 H   0  0  0  0  0  0
  -25.1258  -36.1768   25.0778 H   0  0  0  0  0  0
  -21.0058  -28.3261   24.1382 H   0  0  0  0  0  0
  -20.5640  -26.2312   23.3644 H   0  0  0  0  0  0
  -21.6596  -26.7367   22.1193 H   0  0  0  0  0  0
  -19.6850  -25.6265   21.1256 H   0  0  0  0  0  0
  -19.6647  -27.3166   20.6766 H   0  0  0  0  0  0
  -17.4182  -26.6815   21.4012 H   0  0  0  0  0  0
  -18.0243  -26.0141   22.9037 H   0  0  0  0  0  0
  -19.7928  -30.7386   24.2136 H   0  0  0  0  0  0
  -17.4961  -31.6228   24.5204 H   0  0  0  0  0  0
  -15.5334  -30.2886   23.7679 H   0  0  0  0  0  0
  -15.8751  -28.0786   22.7000 H   0  0  0  0  0  0
  -24.5962  -30.7042   25.7806 H   0  0  0  0  0  0
  -24.8919  -32.2929   26.4876 H   0  0  0  0  0  0
  -25.8075  -30.8962   27.0299 H   0  0  0  0  0  0
  -26.3044  -29.6685   24.1354 H   0  0  0  0  0  0
  -27.4076  -29.7277   25.4911 H   0  0  0  0  0  0
  -27.8948  -30.4225   23.9644 H   0  0  0  0  0  0
  -27.2688  -33.3767   26.1968 H   0  0  0  0  0  0
  -28.3945  -32.6839   25.0352 H   0  0  0  0  0  0
  -28.0739  -31.8635   26.5548 H   0  0  0  0  0  0
  -28.2415  -38.0147   24.7518 H   0  0  0  0  0  0
  -28.1165  -36.2660   24.6170 H   0  0  0  0  0  0
  -27.2339  -37.1242   25.8867 H   0  0  0  0  0  0
  -20.9513  -29.8913   21.6919 H   0  0  0  0  0  0
  -26.0072  -38.2720   24.1511 H   0  0  0  0  0  0
  -28.7080  -22.6249   18.2388 H   0  0  0  0  0  0
  -29.1194  -22.9428   22.9104 H   0  0  0  0  0  0
  -28.7222  -24.6891   22.5496 H   0  0  0  0  0  0
  -26.5084  -24.1491   21.7322 H   0  0  0  0  0  0
  -26.7560  -22.3708   22.0614 H   0  0  0  0  0  0
  -28.7569  -21.6410   16.2514 H   0  0  0  0  0  0
  -28.8186  -19.9290   16.0214 H   0  0  0  0  0  0
  -30.3290  -20.8353   16.2735 H   0  0  0  0  0  0
  -28.0875  -20.9554   22.7578 H   0  0  0  0  0  0
  -29.8143  -20.7125   22.8707 H   0  0  0  0  0  0
  -28.6716  -19.3564   22.6912 H   0  0  0  0  0  0
  -29.8551  -18.2439   16.8307 H   0  0  0  0  0  0
  -29.3475  -17.2305   18.1481 H   0  0  0  0  0  0
  -30.9946  -17.8961   18.1049 H   0  0  0  0  0  0
  -30.0363  -17.9140   21.9142 H   0  0  0  0  0  0
  -31.1425  -17.8667   20.6324 H   0  0  0  0  0  0
  -27.4938  -24.5029   19.1318 H   0  0  0  0  0  0
  -29.1987  -24.6259   19.2264 H   0  0  0  0  0  0
  -28.7595  -16.0255   20.7230 H   0  0  0  0  0  0
  1 25  1  0  0  0
  1 30  2  0  0  0
  1 85  1  0  0  0
  2  3  1  0  0  0
  2 25  1  0  0  0
  2 86  1  0  0  0
  2 87  1  0  0  0
  3  4  1  0  0  0
  3 88  1  0  0  0
  3 89  1  0  0  0
  4  5  1  0  0  0
  4 90  1  0  0  0
  4 91  1  0  0  0
  5  6  1  0  0  0
  5 26  1  0  0  0
  5 92  1  0  0  0
  6 25  1  0  0  0
  6 93  1  0  0  0
  6 94  1  0  0  0
  7  8  2  0  0  0
  7 26  1  0  0  0
  7 29  1  0  0  0
  8  9  1  0  0  0
  8 22  1  0  0  0
  9 10  1  0  0  0
  9 27  2  0  0  0
 10 11  2  0  0  0
 10 15  1  0  0  0
 11 12  1  0  0  0
 11 95  1  0  0  0
 12 13  2  0  0  0
 12 96  1  0  0  0
 13 14  1  0  0  0
 13 31  1  0  0  0
 14 15  2  0  0  0
 14 97  1  0  0  0
 15 98  1  0  0  0
 16 17  2  0  0  0
 16 21  1  0  0  0
 16 31  1  0  0  0
 17 18  1  0  0  0
 17 99  1  0  0  0
 18 19  2  0  0  0
 18100  1  0  0  0
 19 20  1  0  0  0
 19 24  1  0  0  0
 20 21  2  0  0  0
 20101  1  0  0  0
 21 23  1  0  0  0
 22 28  1  0  0  0
 22 32  2  0  0  0
 26 27  1  0  0  0
 28102  1  0  0  0
 28103  1  0  0  0
 29104  1  0  0  0
 29105  1  0  0  0
 33 34  1  0  0  0
 33 66  1  0  0  0
 33 70  2  0  0  0
 34 36  1  0  0  0
 34 59  1  0  0  0
 34106  1  0  0  0
 35 44  2  0  0  0
 35 45  1  0  0  0
 35 68  1  0  0  0
 36 56  1  0  0  0
 36107  1  0  0  0
 37 39  1  0  0  0
 37 47  1  0  0  0
 37 66  1  0  0  0
 37108  1  0  0  0
 38 43  2  0  0  0
 38 46  1  0  0  0
 38 47  1  0  0  0
 39 64  1  0  0  0
 39 67  2  0  0  0
 40 52  1  0  0  0
 40 53  2  0  0  0
 40 58  1  0  0  0
 41109  1  0  0  0
 41110  1  0  0  0
 41111  1  0  0  0
 41 48  1  0  0  0
 42 43  1  0  0  0
 42 66  1  0  0  0
 42112  1  0  0  0
 42113  1  0  0  0
 43 44  1  0  0  0
 44114  1  0  0  0
 45 46  2  0  0  0
 45115  1  0  0  0
 46116  1  0  0  0
 47117  1  0  0  0
 47118  1  0  0  0
 48 56  1  0  0  0
 48 65  1  0  0  0
 48119  1  0  0  0
 49 50  1  0  0  0
 49 53  1  0  0  0
 49 64  1  0  0  0
 49120  1  0  0  0
 50 51  1  0  0  0
 50121  1  0  0  0
 50122  1  0  0  0
 51 52  1  0  0  0
 51123  1  0  0  0
 51124  1  0  0  0
 52125  1  0  0  0
 52126  1  0  0  0
 53 54  1  0  0  0
 54 55  2  0  0  0
 54127  1  0  0  0
 55 57  1  0  0  0
 55128  1  0  0  0
 56 69  2  0  0  0
 57 58  2  0  0  0
 57129  1  0  0  0
 58130  1  0  0  0
 59 60  1  0  0  0
 59 61  1  0  0  0
 59 62  1  0  0  0
 60131  1  0  0  0
 60132  1  0  0  0
 60133  1  0  0  0
 61134  1  0  0  0
 61135  1  0  0  0
 61136  1  0  0  0
 62137  1  0  0  0
 62138  1  0  0  0
 62139  1  0  0  0
 63 65  1  0  0  0
 63140  1  0  0  0
 63141  1  0  0  0
 63142  1  0  0  0
 64143  1  0  0  0
 65144  1  0  0  0
 68 84  1  0  0  0
 71 72  2  0  0  0
 71 73  1  0  0  0
 71145  1  0  0  0
 72 74  1  0  0  0
 72 79  1  0  0  0
 73 75  2  0  0  0
 73 80  1  0  0  0
 74 76  2  0  0  0
 74 81  1  0  0  0
 75 76  1  0  0  0
 75 82  1  0  0  0
 76 83  1  0  0  0
 77 78  1  0  0  0
 77 79  1  0  0  0
 77146  1  0  0  0
 77147  1  0  0  0
 78 79  1  0  0  0
 78148  1  0  0  0
 78149  1  0  0  0
 79 84  1  0  0  0
 80150  1  0  0  0
 80151  1  0  0  0
 80152  1  0  0  0
 81153  1  0  0  0
 81154  1  0  0  0
 81155  1  0  0  0
 82156  1  0  0  0
 82157  1  0  0  0
 82158  1  0  0  0
 83 85  1  0  0  0
 83159  1  0  0  0
 83160  1  0  0  0
 84161  1  0  0  0
 84162  1  0  0  0
 85163  1  0  0  0
M  ISO  4   1 100  68 101  84 101  85 100
M  END
> <chiral flag>
0

> <version>
0

> <s_m_source_file>
/data/baiqing/PycharmProjects/Reinvent-master-3.2/result/LINK_invent/BTK/process_docking_weight1_custom_sum_contain_oxygen_bond_distance_aromatic_linkinvent_7_9_3/rearranged_h_0163.sdf

> <i_m_source_file_index>
13

> <r_mmod_Potential_Energy-OPLS-2005>
597.677124023438

> <r_mmod_Stretch_Energy-OPLS-2005>
310.898895263672

> <r_mmod_Bend_Energy-OPLS-2005>
294.503234863281

> <r_mmod_Torsional_Energy-OPLS-2005>
241.868255615234

> <r_mmod_Improper_Torsional_Energy-OPLS-2005>
5.33283233642578

> <r_mmod_Van_der_Waal_Energy-OPLS-2005>
139.663375854492

> <r_mmod_Electrostatic_Energy-OPLS-2005>
-421.517639160156

> <r_mmod_Solvation_Energy-OPLS-2005>
-207.034118652344

> <b_mmod_Minimization_Converged-OPLS-2005>
0

> <r_mmod_RMS_Derivative-OPLS-2005>
6.67706537246704

$$$$
13
                    3D
 Structure written by MMmdl.
169179  0  0  1  0            999 V2000
  -30.7088  -14.4462   20.6165 C   0  0  0  0  0  0
  -30.4263  -12.3086   19.4114 C   0  0  0  0  0  0
  -29.4925  -12.5110   18.2010 C   0  0  0  0  0  0
  -28.0145  -12.3675   18.6159 C   0  0  0  0  0  0
  -27.6633  -13.2019   19.8768 C   0  0  2  0  0  0
  -28.7033  -12.9630   20.9940 C   0  0  0  0  0  0
  -25.2594  -13.8152   20.5667 C   0  0  0  0  0  0
  -24.1841  -13.0435   20.9162 C   0  0  0  0  0  0
  -24.6389  -11.6902   20.8729 C   0  0  0  0  0  0
  -23.9054  -10.4291   21.0404 C   0  0  0  0  0  0
  -24.3607   -9.4209   21.9185 C   0  0  0  0  0  0
  -23.6284   -8.2244   22.0758 C   0  0  0  0  0  0
  -22.4269   -8.0279   21.3544 C   0  0  0  0  0  0
  -21.9908   -9.0249   20.4639 C   0  0  0  0  0  0
  -22.7233  -10.2129   20.3050 C   0  0  0  0  0  0
  -21.6850   -6.0736   22.5278 C   0  0  0  0  0  0
  -21.4012   -6.5640   23.8213 C   0  0  0  0  0  0
  -21.3657   -5.6791   24.9175 C   0  0  0  0  0  0
  -21.6046   -4.3054   24.7225 C   0  0  0  0  0  0
  -21.8819   -3.8147   23.4347 C   0  0  0  0  0  0
  -21.9192   -4.6963   22.3402 C   0  0  0  0  0  0
  -22.7864  -13.5238   21.1832 C   0  0  0  0  0  0
  -22.1661   -4.2151   21.0978 F   0  0  0  0  0  0
  -21.5629   -3.4538   25.7740 F   0  0  0  0  0  0
  -30.0360  -13.2764   20.4475 N   0  0  0  0  0  0
  -26.3029  -12.9312   20.3363 N   0  0  0  0  0  0
  -25.9314  -11.6478   20.5756 N   0  0  0  0  0  0
  -22.0496  -12.8225   22.0374 N   0  0  0  0  0  0
  -25.4325  -15.1868   20.4076 N   0  0  0  0  0  0
  -31.8045  -14.6752   20.0963 O   0  0  0  0  0  0
  -21.6634   -6.8879   21.4240 O   0  0  0  0  0  0
  -22.3557  -14.5555   20.6693 O   0  0  0  0  0  0
  -24.6154  -31.8681   23.2090 C   0  0  0  0  0  0
  -25.9046  -32.4821   23.8383 C   0  0  1  0  0  0
  -27.2351  -27.4263   20.0824 C   0  0  0  0  0  0
  -25.5903  -33.8619   24.2319 N   0  0  0  0  0  0
  -23.4021  -30.4926   21.5512 C   0  0  2  0  0  0
  -24.8464  -28.9594   20.1146 C   0  0  0  0  0  0
  -22.7411  -29.4662   22.4993 C   0  0  0  0  0  0
  -18.0271  -28.1377   22.8491 C   0  0  0  0  0  0
  -24.1486  -36.7306   23.2637 C   0  0  0  0  0  0
  -25.9323  -30.8299   21.3638 C   0  0  0  0  0  0
  -26.0069  -29.4634   20.7116 C   0  0  0  0  0  0
  -27.1991  -28.7025   20.6956 C   0  0  0  0  0  0
  -26.0508  -26.9458   19.4723 C   0  0  0  0  0  0
  -24.8638  -27.7000   19.4948 C   0  0  0  0  0  0
  -23.6093  -29.8265   20.1651 C   0  0  0  0  0  0
  -25.4109  -36.3106   24.0334 C   0  0  1  0  0  0
  -20.5863  -28.3661   23.1318 C   0  0  2  0  0  0
  -20.6762  -26.9402   22.5408 C   0  0  0  0  0  0
  -19.5735  -26.6389   21.5208 C   0  0  0  0  0  0
  -18.1916  -26.7920   22.1622 C   0  0  0  0  0  0
  -19.1522  -28.8834   23.2899 C   0  0  0  0  0  0
  -18.9454  -30.1443   23.8905 C   0  0  0  0  0  0
  -17.6459  -30.6586   24.0569 C   0  0  0  0  0  0
  -25.9040  -34.9475   23.5122 C   0  0  0  0  0  0
  -16.5349  -29.9089   23.6329 C   0  0  0  0  0  0
  -16.7263  -28.6507   23.0344 C   0  0  0  0  0  0
  -26.4469  -31.6590   25.0705 C   0  0  0  0  0  0
  -25.3728  -31.3675   26.1438 C   0  0  0  0  0  0
  -27.0317  -30.3045   24.6060 C   0  0  0  0  0  0
  -27.6022  -32.4313   25.7499 C   0  0  0  0  0  0
  -27.5577  -37.1818   24.8468 C   0  0  0  0  0  0
  -21.4137  -29.3037   22.3733 N   0  0  0  0  0  0
  -26.4292  -37.3791   23.9407 N   0  0  0  0  0  0
  -24.6685  -31.0775   22.0998 N   0  0  0  0  0  0
  -23.4183  -28.8196   23.3029 O   0  0  0  0  0  0
  -28.4273  -26.7214   20.1006 O   0  0  0  0  0  0
  -26.5601  -34.8923   22.4682 O   0  0  0  0  0  0
  -23.5345  -32.1438   23.7481 O   0  0  0  0  0  0
  -30.4774  -20.7927   20.6150 C   0  0  0  0  0  0
  -29.4902  -23.0472   20.6959 C   0  0  0  0  0  0
  -30.5419  -22.1704   20.3161 C   0  0  0  0  0  0
  -28.3891  -22.5020   21.4169 C   0  0  0  0  0  0
  -28.3121  -21.1024   21.6770 C   0  0  0  0  0  0
  -29.3732  -20.2402   21.2940 C   0  0  0  0  0  0
  -30.1706  -17.1423   23.0623 C   0  0  0  0  0  0
  -29.7073  -25.0086   18.9329 C   0  0  0  0  0  0
  -29.9599  -18.6502   22.9824 C   0  0  0  0  0  0
  -29.8028  -17.8237   20.7610 C   0  0  0  0  0  0
  -29.5864  -24.5345   20.3699 C   0  0  1  0  0  0
  -30.5102  -16.7462   21.6210 C   0  0  2  0  0  0
  -28.4647  -25.3347   19.7153 C   0  0  1  0  0  0
  -31.7888  -22.6874   19.6140 C   0  0  0  0  0  0
  -27.2955  -23.4247   21.9533 C   0  0  0  0  0  0
  -27.0873  -20.5228   22.3840 C   0  0  0  0  0  0
  -29.3618  -18.8804   21.6772 N   0  0  0  0  0  0
  -30.0571  -15.3817   21.3264 N   0  0  0  0  0  0
  -31.4689  -12.4200   19.1076 H   0  0  0  0  0  0
  -30.3379  -11.2925   19.7992 H   0  0  0  0  0  0
  -29.7314  -11.7903   17.4176 H   0  0  0  0  0  0
  -29.6579  -13.4990   17.7685 H   0  0  0  0  0  0
  -27.8267  -11.3103   18.8091 H   0  0  0  0  0  0
  -27.3624  -12.6444   17.7867 H   0  0  0  0  0  0
  -27.7148  -14.2524   19.5897 H   0  0  0  0  0  0
  -28.6796  -11.9205   21.3142 H   0  0  0  0  0  0
  -28.4550  -13.5406   21.8854 H   0  0  0  0  0  0
  -25.2752   -9.5688   22.4757 H   0  0  0  0  0  0
  -23.9994   -7.4642   22.7485 H   0  0  0  0  0  0
  -21.0844   -8.8761   19.8939 H   0  0  0  0  0  0
  -22.3698  -10.9662   19.6150 H   0  0  0  0  0  0
  -21.2001   -7.6144   23.9718 H   0  0  0  0  0  0
  -21.1480   -6.0519   25.9077 H   0  0  0  0  0  0
  -22.0599   -2.7611   23.2845 H   0  0  0  0  0  0
  -22.4096  -11.9864   22.4737 H   0  0  0  0  0  0
  -21.1111  -13.1248   22.2577 H   0  0  0  0  0  0
  -24.6684  -15.8444   20.5189 H   0  0  0  0  0  0
  -26.2905  -15.6263   20.0983 H   0  0  0  0  0  0
  -26.7115  -32.5538   23.1146 H   0  0  0  0  0  0
  -25.0058  -33.9781   25.0467 H   0  0  0  0  0  0
  -22.6912  -31.3103   21.4128 H   0  0  0  0  0  0
  -23.3747  -35.9640   23.3304 H   0  0  0  0  0  0
  -24.3587  -36.8917   22.2051 H   0  0  0  0  0  0
  -23.7235  -37.6510   23.6649 H   0  0  0  0  0  0
  -26.0439  -31.5958   20.5952 H   0  0  0  0  0  0
  -26.8206  -30.8850   21.9807 H   0  0  0  0  0  0
  -28.0952  -29.0922   21.1583 H   0  0  0  0  0  0
  -26.0060  -26.0029   18.9518 H   0  0  0  0  0  0
  -23.9723  -27.3109   19.0227 H   0  0  0  0  0  0
  -23.7169  -30.6013   19.4048 H   0  0  0  0  0  0
  -22.7336  -29.2460   19.8694 H   0  0  0  0  0  0
  -25.1289  -36.1972   25.0826 H   0  0  0  0  0  0
  -20.9952  -28.3214   24.1439 H   0  0  0  0  0  0
  -20.5689  -26.2263   23.3587 H   0  0  0  0  0  0
  -21.6631  -26.7455   22.1193 H   0  0  0  0  0  0
  -19.6898  -25.6305   21.1223 H   0  0  0  0  0  0
  -19.6668  -27.3214   20.6750 H   0  0  0  0  0  0
  -17.4187  -26.6678   21.4019 H   0  0  0  0  0  0
  -18.0310  -26.0058   22.9013 H   0  0  0  0  0  0
  -19.7934  -30.7256   24.2269 H   0  0  0  0  0  0
  -17.5020  -31.6269   24.5162 H   0  0  0  0  0  0
  -15.5354  -30.3001   23.7643 H   0  0  0  0  0  0
  -15.8660  -28.0847   22.7032 H   0  0  0  0  0  0
  -24.5901  -30.7035   25.7751 H   0  0  0  0  0  0
  -24.8924  -32.2827   26.4902 H   0  0  0  0  0  0
  -25.8069  -30.8815   27.0184 H   0  0  0  0  0  0
  -26.2869  -29.6807   24.1103 H   0  0  0  0  0  0
  -27.4108  -29.7264   25.4500 H   0  0  0  0  0  0
  -27.8685  -30.4392   23.9201 H   0  0  0  0  0  0
  -27.2619  -33.3612   26.2067 H   0  0  0  0  0  0
  -28.3848  -32.6871   25.0346 H   0  0  0  0  0  0
  -28.0659  -31.8438   26.5432 H   0  0  0  0  0  0
  -28.2583  -38.0126   24.7526 H   0  0  0  0  0  0
  -28.1082  -36.2655   24.6287 H   0  0  0  0  0  0
  -27.2293  -37.1463   25.8869 H   0  0  0  0  0  0
  -20.9285  -29.8793   21.6990 H   0  0  0  0  0  0
  -26.0176  -38.2868   24.1399 H   0  0  0  0  0  0
  -31.3106  -20.1606   20.3450 H   0  0  0  0  0  0
  -29.2401  -16.6721   23.3848 H   0  0  0  0  0  0
  -30.9473  -16.8648   23.7760 H   0  0  0  0  0  0
  -29.6037  -24.2717   18.1384 H   0  0  0  0  0  0
  -30.3972  -25.8237   18.7248 H   0  0  0  0  0  0
  -30.9169  -19.1714   23.0539 H   0  0  0  0  0  0
  -29.3213  -19.0096   23.7910 H   0  0  0  0  0  0
  -28.9192  -17.4115   20.2715 H   0  0  0  0  0  0
  -30.4599  -18.1859   19.9700 H   0  0  0  0  0  0
  -30.1916  -25.0455   21.1164 H   0  0  0  0  0  0
  -31.5894  -16.8404   21.4827 H   0  0  0  0  0  0
  -27.5432  -24.8039   19.5069 H   0  0  0  0  0  0
  -32.6074  -21.9699   19.6799 H   0  0  0  0  0  0
  -32.1402  -23.6159   20.0650 H   0  0  0  0  0  0
  -31.5912  -22.8652   18.5569 H   0  0  0  0  0  0
  -27.6499  -24.4417   22.1157 H   0  0  0  0  0  0
  -26.9319  -23.0926   22.9254 H   0  0  0  0  0  0
  -26.4493  -23.4591   21.2667 H   0  0  0  0  0  0
  -26.1724  -21.0381   22.0934 H   0  0  0  0  0  0
  -27.2021  -20.5999   23.4646 H   0  0  0  0  0  0
  -26.9262  -19.4736   22.1367 H   0  0  0  0  0  0
  -29.1518  -15.1163   21.6821 H   0  0  0  0  0  0
  1 25  1  0  0  0
  1 30  2  0  0  0
  1 88  1  0  0  0
  2  3  1  0  0  0
  2 25  1  0  0  0
  2 89  1  0  0  0
  2 90  1  0  0  0
  3  4  1  0  0  0
  3 91  1  0  0  0
  3 92  1  0  0  0
  4  5  1  0  0  0
  4 93  1  0  0  0
  4 94  1  0  0  0
  5  6  1  0  0  0
  5 26  1  0  0  0
  5 95  1  0  0  0
  6 25  1  0  0  0
  6 96  1  0  0  0
  6 97  1  0  0  0
  7  8  2  0  0  0
  7 26  1  0  0  0
  7 29  1  0  0  0
  8  9  1  0  0  0
  8 22  1  0  0  0
  9 10  1  0  0  0
  9 27  2  0  0  0
 10 11  2  0  0  0
 10 15  1  0  0  0
 11 12  1  0  0  0
 11 98  1  0  0  0
 12 13  2  0  0  0
 12 99  1  0  0  0
 13 14  1  0  0  0
 13 31  1  0  0  0
 14 15  2  0  0  0
 14100  1  0  0  0
 15101  1  0  0  0
 16 17  2  0  0  0
 16 21  1  0  0  0
 16 31  1  0  0  0
 17 18  1  0  0  0
 17102  1  0  0  0
 18 19  2  0  0  0
 18103  1  0  0  0
 19 20  1  0  0  0
 19 24  1  0  0  0
 20 21  2  0  0  0
 20104  1  0  0  0
 21 23  1  0  0  0
 22 28  1  0  0  0
 22 32  2  0  0  0
 26 27  1  0  0  0
 28105  1  0  0  0
 28106  1  0  0  0
 29107  1  0  0  0
 29108  1  0  0  0
 33 34  1  0  0  0
 33 66  1  0  0  0
 33 70  2  0  0  0
 34 36  1  0  0  0
 34 59  1  0  0  0
 34109  1  0  0  0
 35 44  2  0  0  0
 35 45  1  0  0  0
 35 68  1  0  0  0
 36 56  1  0  0  0
 36110  1  0  0  0
 37 39  1  0  0  0
 37 47  1  0  0  0
 37 66  1  0  0  0
 37111  1  0  0  0
 38 43  2  0  0  0
 38 46  1  0  0  0
 38 47  1  0  0  0
 39 64  1  0  0  0
 39 67  2  0  0  0
 40 52  1  0  0  0
 40 53  2  0  0  0
 40 58  1  0  0  0
 41112  1  0  0  0
 41113  1  0  0  0
 41114  1  0  0  0
 41 48  1  0  0  0
 42 43  1  0  0  0
 42 66  1  0  0  0
 42115  1  0  0  0
 42116  1  0  0  0
 43 44  1  0  0  0
 44117  1  0  0  0
 45 46  2  0  0  0
 45118  1  0  0  0
 46119  1  0  0  0
 47120  1  0  0  0
 47121  1  0  0  0
 48 56  1  0  0  0
 48 65  1  0  0  0
 48122  1  0  0  0
 49 50  1  0  0  0
 49 53  1  0  0  0
 49 64  1  0  0  0
 49123  1  0  0  0
 50 51  1  0  0  0
 50124  1  0  0  0
 50125  1  0  0  0
 51 52  1  0  0  0
 51126  1  0  0  0
 51127  1  0  0  0
 52128  1  0  0  0
 52129  1  0  0  0
 53 54  1  0  0  0
 54 55  2  0  0  0
 54130  1  0  0  0
 55 57  1  0  0  0
 55131  1  0  0  0
 56 69  2  0  0  0
 57 58  2  0  0  0
 57132  1  0  0  0
 58133  1  0  0  0
 59 60  1  0  0  0
 59 61  1  0  0  0
 59 62  1  0  0  0
 60134  1  0  0  0
 60135  1  0  0  0
 60136  1  0  0  0
 61137  1  0  0  0
 61138  1  0  0  0
 61139  1  0  0  0
 62140  1  0  0  0
 62141  1  0  0  0
 62142  1  0  0  0
 63 65  1  0  0  0
 63143  1  0  0  0
 63144  1  0  0  0
 63145  1  0  0  0
 64146  1  0  0  0
 65147  1  0  0  0
 68 83  1  0  0  0
 71 73  2  0  0  0
 71 76  1  0  0  0
 71148  1  0  0  0
 72 73  1  0  0  0
 72 74  2  0  0  0
 72 81  1  0  0  0
 73 84  1  0  0  0
 74 75  1  0  0  0
 74 85  1  0  0  0
 75 76  2  0  0  0
 75 86  1  0  0  0
 76 87  1  0  0  0
 77 79  1  0  0  0
 77 82  1  0  0  0
 77149  1  0  0  0
 77150  1  0  0  0
 78 81  1  0  0  0
 78 83  1  0  0  0
 78151  1  0  0  0
 78152  1  0  0  0
 79 87  1  0  0  0
 79153  1  0  0  0
 79154  1  0  0  0
 80 82  1  0  0  0
 80 87  1  0  0  0
 80155  1  0  0  0
 80156  1  0  0  0
 81 83  1  0  0  0
 81157  1  0  0  0
 82 88  1  0  0  0
 82158  1  0  0  0
 83159  1  0  0  0
 84160  1  0  0  0
 84161  1  0  0  0
 84162  1  0  0  0
 85163  1  0  0  0
 85164  1  0  0  0
 85165  1  0  0  0
 86166  1  0  0  0
 86167  1  0  0  0
 86168  1  0  0  0
 88169  1  0  0  0
M  ISO  4   1 100  68 101  83 101  88 100
M  END
> <chiral flag>
0

> <version>
0

> <s_m_source_file>
/data/baiqing/PycharmProjects/Reinvent-master-3.2/result/LINK_invent/BTK/process_docking_weight1_custom_sum_contain_oxygen_bond_distance_aromatic_linkinvent_7_9_3/rearranged_h_0163.sdf

> <i_m_source_file_index>
14

> <r_mmod_Potential_Energy-OPLS-2005>
-9.15398406982422

> <r_mmod_Stretch_Energy-OPLS-2005>
41.3173980712891

> <r_mmod_Bend_Energy-OPLS-2005>
134.25813293457

> <r_mmod_Torsional_Energy-OPLS-2005>
289.539154052734

> <r_mmod_Improper_Torsional_Energy-OPLS-2005>
7.13022613525391

> <r_mmod_Van_der_Waal_Energy-OPLS-2005>
162.816909790039

> <r_mmod_Electrostatic_Energy-OPLS-2005>
-447.207000732422

> <r_mmod_Solvation_Energy-OPLS-2005>
-208.012741088867

> <b_mmod_Minimization_Converged-OPLS-2005>
0

> <r_mmod_RMS_Derivative-OPLS-2005>
0.902042627334595

$$$$
14
                    3D
 Structure written by MMmdl.
179189  0  0  1  0            999 V2000
  -30.6423  -14.5133   20.5961 C   0  0  0  0  0  0
  -30.4535  -12.3415   19.4090 C   0  0  0  0  0  0
  -29.5064  -12.5285   18.2037 C   0  0  0  0  0  0
  -28.0247  -12.3721   18.6124 C   0  0  0  0  0  0
  -27.6713  -13.1919   19.8811 C   0  0  2  0  0  0
  -28.7161  -12.9322   20.9890 C   0  0  0  0  0  0
  -25.2635  -13.8124   20.5638 C   0  0  0  0  0  0
  -24.1863  -13.0428   20.9164 C   0  0  0  0  0  0
  -24.6403  -11.6893   20.8721 C   0  0  0  0  0  0
  -23.9051  -10.4294   21.0387 C   0  0  0  0  0  0
  -24.3608   -9.4208   21.9162 C   0  0  0  0  0  0
  -23.6299   -8.2232   22.0724 C   0  0  0  0  0  0
  -22.4288   -8.0258   21.3508 C   0  0  0  0  0  0
  -21.9914   -9.0235   20.4618 C   0  0  0  0  0  0
  -22.7222  -10.2127   20.3032 C   0  0  0  0  0  0
  -21.6856   -6.0737   22.5271 C   0  0  0  0  0  0
  -21.4010   -6.5637   23.8209 C   0  0  0  0  0  0
  -21.3662   -5.6784   24.9165 C   0  0  0  0  0  0
  -21.6062   -4.3050   24.7213 C   0  0  0  0  0  0
  -21.8829   -3.8139   23.4332 C   0  0  0  0  0  0
  -21.9197   -4.6966   22.3393 C   0  0  0  0  0  0
  -22.7875  -13.5231   21.1833 C   0  0  0  0  0  0
  -22.1651   -4.2153   21.0972 F   0  0  0  0  0  0
  -21.5649   -3.4532   25.7720 F   0  0  0  0  0  0
  -30.0450  -13.2924   20.4547 N   0  0  0  0  0  0
  -26.3085  -12.9269   20.3369 N   0  0  0  0  0  0
  -25.9329  -11.6448   20.5762 N   0  0  0  0  0  0
  -22.0507  -12.8222   22.0393 N   0  0  0  0  0  0
  -25.4354  -15.1831   20.4030 N   0  0  0  0  0  0
  -31.7327  -14.7905   20.0902 O   0  0  0  0  0  0
  -21.6629   -6.8870   21.4221 O   0  0  0  0  0  0
  -22.3566  -14.5523   20.6651 O   0  0  0  0  0  0
  -24.6218  -31.8646   23.2091 C   0  0  0  0  0  0
  -25.9097  -32.4802   23.8400 C   0  0  1  0  0  0
  -27.2210  -27.3687   20.0910 C   0  0  0  0  0  0
  -25.5931  -33.8599   24.2321 N   0  0  0  0  0  0
  -23.4125  -30.4923   21.5530 C   0  0  2  0  0  0
  -24.8553  -28.9626   20.1114 C   0  0  0  0  0  0
  -22.7464  -29.4644   22.4976 C   0  0  0  0  0  0
  -18.0284  -28.1374   22.8496 C   0  0  0  0  0  0
  -24.1480  -36.7306   23.2641 C   0  0  0  0  0  0
  -25.9532  -30.8078   21.3761 C   0  0  0  0  0  0
  -26.0245  -29.4422   20.7149 C   0  0  0  0  0  0
  -27.2103  -28.6553   20.7010 C   0  0  0  0  0  0
  -26.0214  -26.9391   19.4651 C   0  0  0  0  0  0
  -24.8532  -27.7136   19.4812 C   0  0  0  0  0  0
  -23.6220  -29.8363   20.1650 C   0  0  0  0  0  0
  -25.4105  -36.3099   24.0337 C   0  0  1  0  0  0
  -20.5882  -28.3667   23.1299 C   0  0  2  0  0  0
  -20.6761  -26.9396   22.5410 C   0  0  0  0  0  0
  -19.5739  -26.6376   21.5212 C   0  0  0  0  0  0
  -18.1920  -26.7920   22.1626 C   0  0  0  0  0  0
  -19.1532  -28.8842   23.2892 C   0  0  0  0  0  0
  -18.9457  -30.1446   23.8898 C   0  0  0  0  0  0
  -17.6456  -30.6578   24.0558 C   0  0  0  0  0  0
  -25.9044  -34.9470   23.5128 C   0  0  0  0  0  0
  -16.5346  -29.9075   23.6330 C   0  0  0  0  0  0
  -16.7268  -28.6491   23.0354 C   0  0  0  0  0  0
  -26.4491  -31.6598   25.0756 C   0  0  0  0  0  0
  -25.3740  -31.3729   26.1502 C   0  0  0  0  0  0
  -27.0333  -30.3026   24.6179 C   0  0  0  0  0  0
  -27.6056  -32.4340   25.7517 C   0  0  0  0  0  0
  -27.5580  -37.1800   24.8466 C   0  0  0  0  0  0
  -21.4181  -29.3035   22.3709 N   0  0  0  0  0  0
  -26.4284  -37.3791   23.9422 N   0  0  0  0  0  0
  -24.6815  -31.0702   22.1028 N   0  0  0  0  0  0
  -23.4227  -28.8169   23.3017 O   0  0  0  0  0  0
  -28.3521  -26.5459   20.1368 O   0  0  0  0  0  0
  -26.5599  -34.8924   22.4684 O   0  0  0  0  0  0
  -23.5395  -32.1437   23.7443 O   0  0  0  0  0  0
  -29.2156  -24.0552   20.0672 C   0  0  0  0  0  0
  -30.0057  -24.0857   21.2440 C   0  0  0  0  0  0
  -29.3724  -22.9095   19.2116 C   0  0  0  0  0  0
  -30.9857  -23.0807   21.4300 C   0  0  0  0  0  0
  -30.3817  -21.9314   19.4921 C   0  0  0  0  0  0
  -30.8966  -17.7788   20.7914 C   0  0  0  0  0  0
  -30.5044  -17.9740   17.0302 C   0  0  0  0  0  0
  -29.4803  -17.3334   17.9892 C   0  0  0  0  0  0
  -31.7570  -18.4823   17.7801 C   0  0  0  0  0  0
  -28.5858  -17.3724   20.3770 C   0  0  0  0  0  0
  -29.7419  -16.8900   21.2799 C   0  0  1  0  0  0
  -29.2251  -18.1968   19.2513 C   0  0  1  0  0  0
  -31.3835  -19.4419   18.9491 C   0  0  1  0  0  0
  -29.7773  -25.1653   22.3027 C   0  0  0  0  0  0
  -28.4778  -22.7402   17.9795 C   0  0  0  0  0  0
  -31.9119  -23.0782   22.6327 C   0  0  0  0  0  0
  -31.8282  -21.5311   17.4918 C   0  0  0  0  0  0
  -28.1350  -25.1436   19.7791 C   0  0  0  0  0  0
  -30.8280  -20.8531   18.4561 C   0  0  2  0  0  0
  -31.1864  -22.0669   20.5637 N   0  0  0  0  0  0
  -30.5043  -18.6158   19.8039 N   0  0  0  0  0  0
  -29.8444  -15.4073   21.2156 N   0  0  0  0  0  0
  -32.0210  -17.7347   21.2978 O   0  0  0  0  0  0
  -31.4920  -12.4898   19.1024 H   0  0  0  0  0  0
  -30.3933  -11.3205   19.7874 H   0  0  0  0  0  0
  -29.7537  -11.8105   17.4208 H   0  0  0  0  0  0
  -29.6596  -13.5196   17.7703 H   0  0  0  0  0  0
  -27.8315  -11.3129   18.7883 H   0  0  0  0  0  0
  -27.3730  -12.6589   17.7881 H   0  0  0  0  0  0
  -27.7226  -14.2425   19.6020 H   0  0  0  0  0  0
  -28.7072  -11.8768   21.2638 H   0  0  0  0  0  0
  -28.4594  -13.4608   21.9088 H   0  0  0  0  0  0
  -25.2765   -9.5703   22.4724 H   0  0  0  0  0  0
  -24.0022   -7.4645   22.7448 H   0  0  0  0  0  0
  -21.0845   -8.8761   19.8954 H   0  0  0  0  0  0
  -22.3668  -10.9659   19.6151 H   0  0  0  0  0  0
  -21.1962   -7.6145   23.9713 H   0  0  0  0  0  0
  -21.1485   -6.0501   25.9078 H   0  0  0  0  0  0
  -22.0604   -2.7599   23.2822 H   0  0  0  0  0  0
  -22.4108  -11.9909   22.4865 H   0  0  0  0  0  0
  -21.1107  -13.1245   22.2561 H   0  0  0  0  0  0
  -24.6651  -15.8348   20.5078 H   0  0  0  0  0  0
  -26.2830  -15.6219   20.0682 H   0  0  0  0  0  0
  -26.7168  -32.5481   23.1154 H   0  0  0  0  0  0
  -25.0078  -33.9755   25.0463 H   0  0  0  0  0  0
  -22.7041  -31.3119   21.4173 H   0  0  0  0  0  0
  -23.3739  -35.9641   23.3296 H   0  0  0  0  0  0
  -24.3573  -36.8924   22.2057 H   0  0  0  0  0  0
  -23.7225  -37.6506   23.6657 H   0  0  0  0  0  0
  -26.0854  -31.5740   20.6106 H   0  0  0  0  0  0
  -26.8344  -30.8496   22.0045 H   0  0  0  0  0  0
  -28.1081  -29.0191   21.1801 H   0  0  0  0  0  0
  -25.9366  -25.9932   18.9522 H   0  0  0  0  0  0
  -23.9579  -27.3435   19.0002 H   0  0  0  0  0  0
  -23.7366  -30.6160   19.4105 H   0  0  0  0  0  0
  -22.7418  -29.2638   19.8640 H   0  0  0  0  0  0
  -25.1270  -36.1957   25.0826 H   0  0  0  0  0  0
  -20.9981  -28.3223   24.1420 H   0  0  0  0  0  0
  -20.5654  -26.2277   23.3604 H   0  0  0  0  0  0
  -21.6626  -26.7419   22.1204 H   0  0  0  0  0  0
  -19.6888  -25.6293   21.1227 H   0  0  0  0  0  0
  -19.6666  -27.3193   20.6749 H   0  0  0  0  0  0
  -17.4190  -26.6684   21.4024 H   0  0  0  0  0  0
  -18.0311  -26.0055   22.9016 H   0  0  0  0  0  0
  -19.7935  -30.7259   24.2274 H   0  0  0  0  0  0
  -17.5009  -31.6258   24.5156 H   0  0  0  0  0  0
  -15.5346  -30.2973   23.7646 H   0  0  0  0  0  0
  -15.8673  -28.0802   22.7075 H   0  0  0  0  0  0
  -24.5892  -30.7097   25.7842 H   0  0  0  0  0  0
  -24.8964  -32.2900   26.4965 H   0  0  0  0  0  0
  -25.8085  -30.8883   27.0256 H   0  0  0  0  0  0
  -26.2902  -29.6786   24.1198 H   0  0  0  0  0  0
  -27.4041  -29.7265   25.4666 H   0  0  0  0  0  0
  -27.8770  -30.4325   23.9396 H   0  0  0  0  0  0
  -27.2656  -33.3632   26.2103 H   0  0  0  0  0  0
  -28.3854  -32.6913   25.0338 H   0  0  0  0  0  0
  -28.0740  -31.8469   26.5426 H   0  0  0  0  0  0
  -28.2586  -38.0108   24.7525 H   0  0  0  0  0  0
  -28.1079  -36.2638   24.6260 H   0  0  0  0  0  0
  -27.2312  -37.1423   25.8872 H   0  0  0  0  0  0
  -20.9352  -29.8787   21.6943 H   0  0  0  0  0  0
  -26.0166  -38.2865   24.1418 H   0  0  0  0  0  0
  -30.0360  -18.7963   16.4902 H   0  0  0  0  0  0
  -30.7991  -17.2439   16.2749 H   0  0  0  0  0  0
  -29.8520  -16.3494   18.2828 H   0  0  0  0  0  0
  -28.5416  -17.1466   17.4662 H   0  0  0  0  0  0
  -32.4722  -18.9183   17.0864 H   0  0  0  0  0  0
  -32.2835  -17.6164   18.1860 H   0  0  0  0  0  0
  -27.9250  -18.0120   20.9650 H   0  0  0  0  0  0
  -27.9668  -16.5677   19.9832 H   0  0  0  0  0  0
  -29.5285  -17.1572   22.3157 H   0  0  0  0  0  0
  -28.6084  -19.0615   19.0022 H   0  0  0  0  0  0
  -32.2969  -19.6477   19.5102 H   0  0  0  0  0  0
  -30.1810  -26.1224   21.9712 H   0  0  0  0  0  0
  -30.2296  -24.9283   23.2659 H   0  0  0  0  0  0
  -28.7114  -25.2946   22.4974 H   0  0  0  0  0  0
  -28.2231  -21.6994   17.7929 H   0  0  0  0  0  0
  -28.9647  -23.1479   17.0928 H   0  0  0  0  0  0
  -27.5078  -23.2166   18.0891 H   0  0  0  0  0  0
  -31.3542  -22.8644   23.5444 H   0  0  0  0  0  0
  -32.3968  -24.0489   22.7410 H   0  0  0  0  0  0
  -32.6975  -22.3275   22.5381 H   0  0  0  0  0  0
  -31.4485  -22.4922   17.1453 H   0  0  0  0  0  0
  -32.0102  -20.9452   16.5926 H   0  0  0  0  0  0
  -32.7869  -21.7141   17.9787 H   0  0  0  0  0  0
  -27.2350  -24.7736   20.2743 H   0  0  0  0  0  0
  -27.9517  -25.1689   18.7077 H   0  0  0  0  0  0
  -29.9656  -20.6028   17.8504 H   0  0  0  0  0  0
  -29.0378  -14.9470   21.6054 H   0  0  0  0  0  0
  1 25  1  0  0  0
  1 30  2  0  0  0
  1 92  1  0  0  0
  2  3  1  0  0  0
  2 25  1  0  0  0
  2 94  1  0  0  0
  2 95  1  0  0  0
  3  4  1  0  0  0
  3 96  1  0  0  0
  3 97  1  0  0  0
  4  5  1  0  0  0
  4 98  1  0  0  0
  4 99  1  0  0  0
  5  6  1  0  0  0
  5 26  1  0  0  0
  5100  1  0  0  0
  6 25  1  0  0  0
  6101  1  0  0  0
  6102  1  0  0  0
  7  8  2  0  0  0
  7 26  1  0  0  0
  7 29  1  0  0  0
  8  9  1  0  0  0
  8 22  1  0  0  0
  9 10  1  0  0  0
  9 27  2  0  0  0
 10 11  2  0  0  0
 10 15  1  0  0  0
 11 12  1  0  0  0
 11103  1  0  0  0
 12 13  2  0  0  0
 12104  1  0  0  0
 13 14  1  0  0  0
 13 31  1  0  0  0
 14 15  2  0  0  0
 14105  1  0  0  0
 15106  1  0  0  0
 16 17  2  0  0  0
 16 21  1  0  0  0
 16 31  1  0  0  0
 17 18  1  0  0  0
 17107  1  0  0  0
 18 19  2  0  0  0
 18108  1  0  0  0
 19 20  1  0  0  0
 19 24  1  0  0  0
 20 21  2  0  0  0
 20109  1  0  0  0
 21 23  1  0  0  0
 22 28  1  0  0  0
 22 32  2  0  0  0
 26 27  1  0  0  0
 28110  1  0  0  0
 28111  1  0  0  0
 29112  1  0  0  0
 29113  1  0  0  0
 33 34  1  0  0  0
 33 66  1  0  0  0
 33 70  2  0  0  0
 34 36  1  0  0  0
 34 59  1  0  0  0
 34114  1  0  0  0
 35 44  2  0  0  0
 35 45  1  0  0  0
 35 68  1  0  0  0
 36 56  1  0  0  0
 36115  1  0  0  0
 37 39  1  0  0  0
 37 47  1  0  0  0
 37 66  1  0  0  0
 37116  1  0  0  0
 38 43  2  0  0  0
 38 46  1  0  0  0
 38 47  1  0  0  0
 39 64  1  0  0  0
 39 67  2  0  0  0
 40 52  1  0  0  0
 40 53  2  0  0  0
 40 58  1  0  0  0
 41117  1  0  0  0
 41118  1  0  0  0
 41119  1  0  0  0
 41 48  1  0  0  0
 42 43  1  0  0  0
 42 66  1  0  0  0
 42120  1  0  0  0
 42121  1  0  0  0
 43 44  1  0  0  0
 44122  1  0  0  0
 45 46  2  0  0  0
 45123  1  0  0  0
 46124  1  0  0  0
 47125  1  0  0  0
 47126  1  0  0  0
 48 56  1  0  0  0
 48 65  1  0  0  0
 48127  1  0  0  0
 49 50  1  0  0  0
 49 53  1  0  0  0
 49 64  1  0  0  0
 49128  1  0  0  0
 50 51  1  0  0  0
 50129  1  0  0  0
 50130  1  0  0  0
 51 52  1  0  0  0
 51131  1  0  0  0
 51132  1  0  0  0
 52133  1  0  0  0
 52134  1  0  0  0
 53 54  1  0  0  0
 54 55  2  0  0  0
 54135  1  0  0  0
 55 57  1  0  0  0
 55136  1  0  0  0
 56 69  2  0  0  0
 57 58  2  0  0  0
 57137  1  0  0  0
 58138  1  0  0  0
 59 60  1  0  0  0
 59 61  1  0  0  0
 59 62  1  0  0  0
 60139  1  0  0  0
 60140  1  0  0  0
 60141  1  0  0  0
 61142  1  0  0  0
 61143  1  0  0  0
 61144  1  0  0  0
 62145  1  0  0  0
 62146  1  0  0  0
 62147  1  0  0  0
 63 65  1  0  0  0
 63148  1  0  0  0
 63149  1  0  0  0
 63150  1  0  0  0
 64151  1  0  0  0
 65152  1  0  0  0
 68 88  1  0  0  0
 71 72  2  0  0  0
 71 73  1  0  0  0
 71 88  1  0  0  0
 72 74  1  0  0  0
 72 84  1  0  0  0
 73 75  2  0  0  0
 73 85  1  0  0  0
 74 86  1  0  0  0
 74 90  2  0  0  0
 75 89  1  0  0  0
 75 90  1  0  0  0
 76 81  1  0  0  0
 76 91  1  0  0  0
 76 93  2  0  0  0
 77 78  1  0  0  0
 77 79  1  0  0  0
 77153  1  0  0  0
 77154  1  0  0  0
 78155  1  0  0  0
 78156  1  0  0  0
 78 82  1  0  0  0
 79157  1  0  0  0
 79158  1  0  0  0
 79 83  1  0  0  0
 80 81  1  0  0  0
 80 82  1  0  0  0
 80159  1  0  0  0
 80160  1  0  0  0
 81 92  1  0  0  0
 81161  1  0  0  0
 82 91  1  0  0  0
 82162  1  0  0  0
 83 89  1  0  0  0
 83 91  1  0  0  0
 83163  1  0  0  0
 84164  1  0  0  0
 84165  1  0  0  0
 84166  1  0  0  0
 85167  1  0  0  0
 85168  1  0  0  0
 85169  1  0  0  0
 86170  1  0  0  0
 86171  1  0  0  0
 86172  1  0  0  0
 87173  1  0  0  0
 87174  1  0  0  0
 87175  1  0  0  0
 87 89  1  0  0  0
 88176  1  0  0  0
 88177  1  0  0  0
 89178  1  0  0  0
 92179  1  0  0  0
M  ISO  4   1 100  68 101  88 101  92 100
M  END
> <chiral flag>
0

> <version>
0

> <s_m_source_file>
/data/baiqing/PycharmProjects/Reinvent-master-3.2/result/LINK_invent/BTK/process_docking_weight1_custom_sum_contain_oxygen_bond_distance_aromatic_linkinvent_7_9_3/rearranged_h_0163.sdf

> <i_m_source_file_index>
15

> <r_mmod_Potential_Energy-OPLS-2005>
-50.4161338806152

> <r_mmod_Stretch_Energy-OPLS-2005>
65.7044906616211

> <r_mmod_Bend_Energy-OPLS-2005>
181.607650756836

> <r_mmod_Torsional_Energy-OPLS-2005>
312.097045898438

> <r_mmod_Improper_Torsional_Energy-OPLS-2005>
7.62397718429565

> <r_mmod_Van_der_Waal_Energy-OPLS-2005>
165.848739624023

> <r_mmod_Electrostatic_Energy-OPLS-2005>
-552.312866210938

> <r_mmod_Solvation_Energy-OPLS-2005>
-256.237976074219

> <b_mmod_Minimization_Converged-OPLS-2005>
0

> <r_mmod_RMS_Derivative-OPLS-2005>
3.28052282333374

$$$$
15
                    3D
 Structure written by MMmdl.
159168  0  0  1  0            999 V2000
  -30.6389  -14.7524   20.4495 C   0  0  0  0  0  0
  -30.4210  -12.4600   19.4779 C   0  0  0  0  0  0
  -29.5058  -12.4982   18.2366 C   0  0  0  0  0  0
  -28.0337  -12.3233   18.6546 C   0  0  0  0  0  0
  -27.6352  -13.2369   19.8448 C   0  0  2  0  0  0
  -28.6797  -13.2072   20.9797 C   0  0  0  0  0  0
  -25.2494  -13.8213   20.5724 C   0  0  0  0  0  0
  -24.1784  -13.0447   20.9209 C   0  0  0  0  0  0
  -24.6383  -11.6927   20.8750 C   0  0  0  0  0  0
  -23.9065  -10.4300   21.0408 C   0  0  0  0  0  0
  -24.3618   -9.4212   21.9184 C   0  0  0  0  0  0
  -23.6296   -8.2245   22.0754 C   0  0  0  0  0  0
  -22.4275   -8.0283   21.3546 C   0  0  0  0  0  0
  -21.9907   -9.0256   20.4651 C   0  0  0  0  0  0
  -22.7233  -10.2137   20.3059 C   0  0  0  0  0  0
  -21.6854   -6.0737   22.5278 C   0  0  0  0  0  0
  -21.4017   -6.5641   23.8211 C   0  0  0  0  0  0
  -21.3661   -5.6793   24.9173 C   0  0  0  0  0  0
  -21.6043   -4.3055   24.7225 C   0  0  0  0  0  0
  -21.8819   -3.8147   23.4346 C   0  0  0  0  0  0
  -21.9194   -4.6964   22.3401 C   0  0  0  0  0  0
  -22.7807  -13.5224   21.1871 C   0  0  0  0  0  0
  -22.1664   -4.2150   21.0976 F   0  0  0  0  0  0
  -21.5626   -3.4539   25.7738 F   0  0  0  0  0  0
  -29.9754  -13.5454   20.3836 N   0  0  0  0  0  0
  -26.2909  -12.9423   20.3286 N   0  0  0  0  0  0
  -25.9312  -11.6562   20.5761 N   0  0  0  0  0  0
  -22.0461  -12.8214   22.0432 N   0  0  0  0  0  0
  -25.4222  -15.1938   20.4185 N   0  0  0  0  0  0
  -31.8429  -14.7840   20.1724 O   0  0  0  0  0  0
  -21.6641   -6.8880   21.4242 O   0  0  0  0  0  0
  -22.3487  -14.5525   20.6714 O   0  0  0  0  0  0
  -24.6329  -31.8538   23.1970 C   0  0  0  0  0  0
  -25.9150  -32.4743   23.8318 C   0  0  1  0  0  0
  -27.2178  -27.2433   20.1192 C   0  0  0  0  0  0
  -25.5941  -33.8546   24.2244 N   0  0  0  0  0  0
  -23.4300  -30.4771   21.5408 C   0  0  2  0  0  0
  -24.8753  -28.9237   20.1070 C   0  0  0  0  0  0
  -22.7512  -29.4594   22.4899 C   0  0  0  0  0  0
  -18.0295  -28.1385   22.8482 C   0  0  0  0  0  0
  -24.1492  -36.7279   23.2640 C   0  0  0  0  0  0
  -25.9780  -30.7603   21.3799 C   0  0  0  0  0  0
  -26.0480  -29.3826   20.7181 C   0  0  0  0  0  0
  -27.2175  -28.5535   20.7159 C   0  0  0  0  0  0
  -26.0102  -26.8504   19.4963 C   0  0  0  0  0  0
  -24.8626  -27.6663   19.4874 C   0  0  0  0  0  0
  -23.6478  -29.8131   20.1560 C   0  0  0  0  0  0
  -25.4119  -36.3062   24.0322 C   0  0  1  0  0  0
  -20.5901  -28.3701   23.1264 C   0  0  2  0  0  0
  -20.6781  -26.9414   22.5414 C   0  0  0  0  0  0
  -19.5759  -26.6379   21.5214 C   0  0  0  0  0  0
  -18.1937  -26.7928   22.1619 C   0  0  0  0  0  0
  -19.1549  -28.8860   23.2868 C   0  0  0  0  0  0
  -18.9468  -30.1458   23.8892 C   0  0  0  0  0  0
  -17.6467  -30.6585   24.0561 C   0  0  0  0  0  0
  -25.9062  -34.9433   23.5087 C   0  0  0  0  0  0
  -16.5358  -29.9079   23.6329 C   0  0  0  0  0  0
  -16.7281  -28.6495   23.0356 C   0  0  0  0  0  0
  -26.4509  -31.6576   25.0719 C   0  0  0  0  0  0
  -25.3727  -31.3748   26.1440 C   0  0  0  0  0  0
  -27.0353  -30.2981   24.6232 C   0  0  0  0  0  0
  -27.6058  -32.4326   25.7491 C   0  0  0  0  0  0
  -27.5583  -37.1792   24.8462 C   0  0  0  0  0  0
  -21.4219  -29.3043   22.3647 N   0  0  0  0  0  0
  -26.4291  -37.3765   23.9409 N   0  0  0  0  0  0
  -24.6995  -31.0490   22.0951 N   0  0  0  0  0  0
  -23.4206  -28.8136   23.3004 O   0  0  0  0  0  0
  -28.3161  -26.3487   20.2139 O   0  0  0  0  0  0
  -26.5637  -34.8912   22.4658 O   0  0  0  0  0  0
  -23.5475  -32.1367   23.7256 O   0  0  0  0  0  0
  -27.9343  -21.1802   19.9995 C   0  0  0  0  0  0
  -27.6293  -22.5738   19.8460 C   0  0  0  0  0  0
  -29.2469  -20.7307   20.3179 C   0  0  0  0  0  0
  -28.6145  -23.5880   20.0060 C   0  0  0  0  0  0
  -30.1560  -21.8199   20.5330 C   0  0  0  0  0  0
  -29.7848  -18.4048   21.6726 C   0  0  0  0  0  0
  -28.9237  -18.1487   19.4461 C   0  0  0  0  0  0
  -30.4552  -16.9621   21.5862 C   0  0  0  0  0  0
  -29.5923  -16.7081   19.3383 C   0  0  0  0  0  0
  -29.6990  -19.1772   20.3241 C   0  0  0  0  0  0
  -31.5960  -21.5529   20.9307 C   0  0  0  0  0  0
  -28.4221  -25.0748   19.4153 C   0  0  0  0  0  0
  -29.8577  -23.1587   20.3749 N   0  0  0  0  0  0
  -29.9378  -15.9604   20.5932 N   0  0  0  0  0  0
  -31.4647  -12.5653   19.1772 H   0  0  0  0  0  0
  -30.3539  -11.4935   19.9796 H   0  0  0  0  0  0
  -29.7903  -11.7151   17.5322 H   0  0  0  0  0  0
  -29.6328  -13.4456   17.7110 H   0  0  0  0  0  0
  -27.8983  -11.2776   18.9334 H   0  0  0  0  0  0
  -27.3735  -12.4986   17.8046 H   0  0  0  0  0  0
  -27.6178  -14.2515   19.4483 H   0  0  0  0  0  0
  -28.7167  -12.2258   21.4551 H   0  0  0  0  0  0
  -28.4169  -13.9231   21.7602 H   0  0  0  0  0  0
  -25.2769   -9.5689   22.4755 H   0  0  0  0  0  0
  -24.0012   -7.4634   22.7462 H   0  0  0  0  0  0
  -21.0842   -8.8768   19.8956 H   0  0  0  0  0  0
  -22.3690  -10.9672   19.6166 H   0  0  0  0  0  0
  -21.2013   -7.6151   23.9714 H   0  0  0  0  0  0
  -21.1482   -6.0526   25.9076 H   0  0  0  0  0  0
  -22.0598   -2.7611   23.2842 H   0  0  0  0  0  0
  -22.4086  -11.9882   22.4824 H   0  0  0  0  0  0
  -21.1078  -13.1230   22.2645 H   0  0  0  0  0  0
  -24.6643  -15.8554   20.5444 H   0  0  0  0  0  0
  -26.2902  -15.6327   20.1385 H   0  0  0  0  0  0
  -26.7215  -32.5382   23.1054 H   0  0  0  0  0  0
  -25.0084  -33.9680   25.0385 H   0  0  0  0  0  0
  -22.7269  -31.2998   21.3957 H   0  0  0  0  0  0
  -23.3755  -35.9609   23.3297 H   0  0  0  0  0  0
  -24.3583  -36.8909   22.2056 H   0  0  0  0  0  0
  -23.7244  -37.6476   23.6673 H   0  0  0  0  0  0
  -26.1234  -31.5224   20.6128 H   0  0  0  0  0  0
  -26.8529  -30.8052   22.0167 H   0  0  0  0  0  0
  -28.1135  -28.8995   21.2120 H   0  0  0  0  0  0
  -25.8885  -25.8778   19.0492 H   0  0  0  0  0  0
  -23.9590  -27.3029   19.0174 H   0  0  0  0  0  0
  -23.7745  -30.5905   19.4015 H   0  0  0  0  0  0
  -22.7651  -29.2487   19.8500 H   0  0  0  0  0  0
  -25.1302  -36.1905   25.0814 H   0  0  0  0  0  0
  -20.9994  -28.3287   24.1384 H   0  0  0  0  0  0
  -20.5670  -26.2315   23.3627 H   0  0  0  0  0  0
  -21.6652  -26.7429   22.1220 H   0  0  0  0  0  0
  -19.6922  -25.6287   21.1252 H   0  0  0  0  0  0
  -19.6697  -27.3182   20.6738 H   0  0  0  0  0  0
  -17.4212  -26.6684   21.4014 H   0  0  0  0  0  0
  -18.0325  -26.0068   22.9009 H   0  0  0  0  0  0
  -19.7945  -30.7273   24.2261 H   0  0  0  0  0  0
  -17.5020  -31.6264   24.5163 H   0  0  0  0  0  0
  -15.5358  -30.2977   23.7654 H   0  0  0  0  0  0
  -15.8684  -28.0805   22.7080 H   0  0  0  0  0  0
  -24.5907  -30.7085   25.7783 H   0  0  0  0  0  0
  -24.8912  -32.2924   26.4829 H   0  0  0  0  0  0
  -25.8038  -30.8960   27.0240 H   0  0  0  0  0  0
  -26.2938  -29.6727   24.1246 H   0  0  0  0  0  0
  -27.4004  -29.7252   25.4767 H   0  0  0  0  0  0
  -27.8833  -30.4236   23.9496 H   0  0  0  0  0  0
  -27.2658  -33.3630   26.2052 H   0  0  0  0  0  0
  -28.3871  -32.6882   25.0321 H   0  0  0  0  0  0
  -28.0725  -31.8467   26.5421 H   0  0  0  0  0  0
  -28.2596  -38.0093   24.7511 H   0  0  0  0  0  0
  -28.1082  -36.2624   24.6280 H   0  0  0  0  0  0
  -27.2307  -37.1436   25.8866 H   0  0  0  0  0  0
  -20.9406  -29.8764   21.6850 H   0  0  0  0  0  0
  -26.0168  -38.2837   24.1410 H   0  0  0  0  0  0
  -27.1583  -20.4529   19.8096 H   0  0  0  0  0  0
  -26.6387  -22.8554   19.5156 H   0  0  0  0  0  0
  -30.3530  -18.9996   22.3876 H   0  0  0  0  0  0
  -28.7865  -18.3128   22.1024 H   0  0  0  0  0  0
  -27.9047  -18.0422   19.8215 H   0  0  0  0  0  0
  -28.8240  -18.5528   18.4377 H   0  0  0  0  0  0
  -30.4081  -16.5015   22.5743 H   0  0  0  0  0  0
  -31.5183  -17.1106   21.3879 H   0  0  0  0  0  0
  -30.5096  -16.8142   18.7556 H   0  0  0  0  0  0
  -28.9438  -16.0737   18.7327 H   0  0  0  0  0  0
  -30.7087  -19.1932   19.9136 H   0  0  0  0  0  0
  -31.6380  -20.9628   21.8459 H   0  0  0  0  0  0
  -32.1405  -22.4797   21.1130 H   0  0  0  0  0  0
  -32.1223  -21.0125   20.1447 H   0  0  0  0  0  0
  -27.6746  -25.0132   18.6301 H   0  0  0  0  0  0
  -29.3301  -25.2365   18.8343 H   0  0  0  0  0  0
  1 25  1  0  0  0
  1 30  2  0  0  0
  1 84  1  0  0  0
  2  3  1  0  0  0
  2 25  1  0  0  0
  2 85  1  0  0  0
  2 86  1  0  0  0
  3  4  1  0  0  0
  3 87  1  0  0  0
  3 88  1  0  0  0
  4  5  1  0  0  0
  4 89  1  0  0  0
  4 90  1  0  0  0
  5  6  1  0  0  0
  5 26  1  0  0  0
  5 91  1  0  0  0
  6 25  1  0  0  0
  6 92  1  0  0  0
  6 93  1  0  0  0
  7  8  2  0  0  0
  7 26  1  0  0  0
  7 29  1  0  0  0
  8  9  1  0  0  0
  8 22  1  0  0  0
  9 10  1  0  0  0
  9 27  2  0  0  0
 10 11  2  0  0  0
 10 15  1  0  0  0
 11 12  1  0  0  0
 11 94  1  0  0  0
 12 13  2  0  0  0
 12 95  1  0  0  0
 13 14  1  0  0  0
 13 31  1  0  0  0
 14 15  2  0  0  0
 14 96  1  0  0  0
 15 97  1  0  0  0
 16 17  2  0  0  0
 16 21  1  0  0  0
 16 31  1  0  0  0
 17 18  1  0  0  0
 17 98  1  0  0  0
 18 19  2  0  0  0
 18 99  1  0  0  0
 19 20  1  0  0  0
 19 24  1  0  0  0
 20 21  2  0  0  0
 20100  1  0  0  0
 21 23  1  0  0  0
 22 28  1  0  0  0
 22 32  2  0  0  0
 26 27  1  0  0  0
 28101  1  0  0  0
 28102  1  0  0  0
 29103  1  0  0  0
 29104  1  0  0  0
 33 34  1  0  0  0
 33 66  1  0  0  0
 33 70  2  0  0  0
 34 36  1  0  0  0
 34 59  1  0  0  0
 34105  1  0  0  0
 35 44  2  0  0  0
 35 45  1  0  0  0
 35 68  1  0  0  0
 36 56  1  0  0  0
 36106  1  0  0  0
 37 39  1  0  0  0
 37 47  1  0  0  0
 37 66  1  0  0  0
 37107  1  0  0  0
 38 43  2  0  0  0
 38 46  1  0  0  0
 38 47  1  0  0  0
 39 64  1  0  0  0
 39 67  2  0  0  0
 40 52  1  0  0  0
 40 53  2  0  0  0
 40 58  1  0  0  0
 41108  1  0  0  0
 41109  1  0  0  0
 41110  1  0  0  0
 41 48  1  0  0  0
 42 43  1  0  0  0
 42 66  1  0  0  0
 42111  1  0  0  0
 42112  1  0  0  0
 43 44  1  0  0  0
 44113  1  0  0  0
 45 46  2  0  0  0
 45114  1  0  0  0
 46115  1  0  0  0
 47116  1  0  0  0
 47117  1  0  0  0
 48 56  1  0  0  0
 48 65  1  0  0  0
 48118  1  0  0  0
 49 50  1  0  0  0
 49 53  1  0  0  0
 49 64  1  0  0  0
 49119  1  0  0  0
 50 51  1  0  0  0
 50120  1  0  0  0
 50121  1  0  0  0
 51 52  1  0  0  0
 51122  1  0  0  0
 51123  1  0  0  0
 52124  1  0  0  0
 52125  1  0  0  0
 53 54  1  0  0  0
 54 55  2  0  0  0
 54126  1  0  0  0
 55 57  1  0  0  0
 55127  1  0  0  0
 56 69  2  0  0  0
 57 58  2  0  0  0
 57128  1  0  0  0
 58129  1  0  0  0
 59 60  1  0  0  0
 59 61  1  0  0  0
 59 62  1  0  0  0
 60130  1  0  0  0
 60131  1  0  0  0
 60132  1  0  0  0
 61133  1  0  0  0
 61134  1  0  0  0
 61135  1  0  0  0
 62136  1  0  0  0
 62137  1  0  0  0
 62138  1  0  0  0
 63 65  1  0  0  0
 63139  1  0  0  0
 63140  1  0  0  0
 63141  1  0  0  0
 64142  1  0  0  0
 65143  1  0  0  0
 68 82  1  0  0  0
 71 72  2  0  0  0
 71 73  1  0  0  0
 71144  1  0  0  0
 72 74  1  0  0  0
 72145  1  0  0  0
 73 75  2  0  0  0
 73 80  1  0  0  0
 74 82  1  0  0  0
 74 83  2  0  0  0
 75 81  1  0  0  0
 75 83  1  0  0  0
 76 78  1  0  0  0
 76 80  1  0  0  0
 76146  1  0  0  0
 76147  1  0  0  0
 77 79  1  0  0  0
 77 80  1  0  0  0
 77148  1  0  0  0
 77149  1  0  0  0
 78 84  1  0  0  0
 78150  1  0  0  0
 78151  1  0  0  0
 79 84  1  0  0  0
 79152  1  0  0  0
 79153  1  0  0  0
 80154  1  0  0  0
 81155  1  0  0  0
 81156  1  0  0  0
 81157  1  0  0  0
 82158  1  0  0  0
 82159  1  0  0  0
M  ISO  4   1 100  68 101  82 101  84 100
M  END
> <chiral flag>
0

> <version>
0

> <s_m_source_file>
/data/baiqing/PycharmProjects/Reinvent-master-3.2/result/LINK_invent/BTK/process_docking_weight1_custom_sum_contain_oxygen_bond_distance_aromatic_linkinvent_7_9_3/rearranged_h_0163.sdf

> <i_m_source_file_index>
16

> <r_mmod_Potential_Energy-OPLS-2005>
311.954803466797

> <r_mmod_Stretch_Energy-OPLS-2005>
127.127151489258

> <r_mmod_Bend_Energy-OPLS-2005>
211.47492980957

> <r_mmod_Torsional_Energy-OPLS-2005>
338.107116699219

> <r_mmod_Improper_Torsional_Energy-OPLS-2005>
12.5779695510864

> <r_mmod_Van_der_Waal_Energy-OPLS-2005>
142.490341186523

> <r_mmod_Electrostatic_Energy-OPLS-2005>
-402.995819091797

> <r_mmod_Solvation_Energy-OPLS-2005>
-211.911102294922

> <b_mmod_Minimization_Converged-OPLS-2005>
0

> <r_mmod_RMS_Derivative-OPLS-2005>
0.80046409368515

$$$$
16
                    3D
 Structure written by MMmdl.
185195  0  0  1  0            999 V2000
  -30.7031  -14.6416   20.4876 C   0  0  0  0  0  0
  -30.4099  -12.4003   19.4506 C   0  0  0  0  0  0
  -29.4841  -12.4738   18.2214 C   0  0  0  0  0  0
  -28.0171  -12.2823   18.6451 C   0  0  0  0  0  0
  -27.6292  -13.1854   19.8408 C   0  0  2  0  0  0
  -28.6843  -13.1649   20.9734 C   0  0  0  0  0  0
  -25.2505  -13.8025   20.5687 C   0  0  0  0  0  0
  -24.1758  -13.0363   20.9219 C   0  0  0  0  0  0
  -24.6295  -11.6833   20.8790 C   0  0  0  0  0  0
  -23.8964  -10.4261   21.0422 C   0  0  0  0  0  0
  -24.3551   -9.4193   21.9193 C   0  0  0  0  0  0
  -23.6264   -8.2214   22.0747 C   0  0  0  0  0  0
  -22.4249   -8.0246   21.3544 C   0  0  0  0  0  0
  -21.9858   -9.0202   20.4632 C   0  0  0  0  0  0
  -22.7149  -10.2102   20.3051 C   0  0  0  0  0  0
  -21.6838   -6.0713   22.5288 C   0  0  0  0  0  0
  -21.3998   -6.5620   23.8221 C   0  0  0  0  0  0
  -21.3656   -5.6779   24.9187 C   0  0  0  0  0  0
  -21.6055   -4.3043   24.7226 C   0  0  0  0  0  0
  -21.8827   -3.8126   23.4348 C   0  0  0  0  0  0
  -21.9193   -4.6947   22.3407 C   0  0  0  0  0  0
  -22.7798  -13.5215   21.1871 C   0  0  0  0  0  0
  -22.1666   -4.2131   21.0983 F   0  0  0  0  0  0
  -21.5638   -3.4526   25.7736 F   0  0  0  0  0  0
  -29.9950  -13.4693   20.3838 N   0  0  0  0  0  0
  -26.2865  -12.9142   20.3295 N   0  0  0  0  0  0
  -25.9206  -11.6353   20.5821 N   0  0  0  0  0  0
  -22.0416  -12.8243   22.0436 N   0  0  0  0  0  0
  -25.4237  -15.1709   20.4034 N   0  0  0  0  0  0
  -31.8894  -14.6815   20.1485 O   0  0  0  0  0  0
  -21.6632   -6.8829   21.4239 O   0  0  0  0  0  0
  -22.3523  -14.5527   20.6711 O   0  0  0  0  0  0
  -24.6194  -31.8631   23.2035 C   0  0  0  0  0  0
  -25.9058  -32.4804   23.8361 C   0  0  1  0  0  0
  -27.2276  -27.3573   20.1241 C   0  0  0  0  0  0
  -25.5884  -33.8606   24.2291 N   0  0  0  0  0  0
  -23.4119  -30.4840   21.5459 C   0  0  2  0  0  0
  -24.8580  -28.9398   20.1122 C   0  0  0  0  0  0
  -22.7446  -29.4628   22.4967 C   0  0  0  0  0  0
  -18.0271  -28.1373   22.8491 C   0  0  0  0  0  0
  -24.1479  -36.7306   23.2641 C   0  0  0  0  0  0
  -25.9463  -30.8077   21.3648 C   0  0  0  0  0  0
  -26.0217  -29.4361   20.7117 C   0  0  0  0  0  0
  -27.2092  -28.6564   20.7036 C   0  0  0  0  0  0
  -26.0437  -26.8953   19.5065 C   0  0  0  0  0  0
  -24.8686  -27.6741   19.5017 C   0  0  0  0  0  0
  -23.6222  -29.8137   20.1619 C   0  0  0  0  0  0
  -25.4105  -36.3107   24.0335 C   0  0  1  0  0  0
  -20.5873  -28.3662   23.1305 C   0  0  2  0  0  0
  -20.6765  -26.9394   22.5420 C   0  0  0  0  0  0
  -19.5741  -26.6371   21.5219 C   0  0  0  0  0  0
  -18.1917  -26.7916   22.1627 C   0  0  0  0  0  0
  -19.1531  -28.8836   23.2893 C   0  0  0  0  0  0
  -18.9451  -30.1441   23.8903 C   0  0  0  0  0  0
  -17.6461  -30.6582   24.0556 C   0  0  0  0  0  0
  -25.9039  -34.9473   23.5117 C   0  0  0  0  0  0
  -16.5344  -29.9085   23.6328 C   0  0  0  0  0  0
  -16.7264  -28.6497   23.0352 C   0  0  0  0  0  0
  -26.4447  -31.6605   25.0719 C   0  0  0  0  0  0
  -25.3689  -31.3752   26.1459 C   0  0  0  0  0  0
  -27.0268  -30.3032   24.6136 C   0  0  0  0  0  0
  -27.6018  -32.4328   25.7489 C   0  0  0  0  0  0
  -27.5577  -37.1805   24.8460 C   0  0  0  0  0  0
  -21.4161  -29.3022   22.3706 N   0  0  0  0  0  0
  -26.4289  -37.3797   23.9407 N   0  0  0  0  0  0
  -24.6784  -31.0680   22.0952 N   0  0  0  0  0  0
  -23.4192  -28.8180   23.3036 O   0  0  0  0  0  0
  -28.3809  -26.5772   20.1795 O   0  0  0  0  0  0
  -26.5625  -34.8935   22.4694 O   0  0  0  0  0  0
  -23.5374  -32.1407   23.7388 O   0  0  0  0  0  0
  -29.8896  -22.9046   19.9689 C   0  0  0  0  0  0
  -30.7480  -22.9045   18.8559 C   0  0  0  0  0  0
  -30.0297  -20.3831   20.0363 C   0  0  0  0  0  0
  -29.5182  -21.6413   20.5580 C   0  0  0  0  0  0
  -31.1398  -21.6930   18.2291 C   0  0  0  0  0  0
  -30.7808  -20.4468   18.8171 C   0  0  0  0  0  0
  -31.0592  -18.1877   21.2160 C   0  0  0  0  0  0
  -30.8097  -25.1190   19.7636 C   0  0  0  0  0  0
  -30.7330  -16.7607   21.7787 C   0  0  0  0  0  0
  -29.2749  -16.5374   19.8051 C   0  0  0  0  0  0
  -29.7998  -18.9886   20.7679 C   0  0  2  0  0  0
  -28.7839  -18.0106   20.0943 C   0  0  2  0  0  0
  -31.2257  -24.3198   18.5133 C   0  0  0  0  0  0
  -29.6483  -24.3819   20.4704 C   0  0  2  0  0  0
  -28.5926  -21.6599   21.7666 C   0  0  0  0  0  0
  -31.9894  -21.6944   16.9551 C   0  0  0  0  0  0
  -31.2517  -19.1870   18.0912 C   0  0  0  0  0  0
  -27.4632  -17.9660   20.8866 C   0  0  0  0  0  0
  -32.7599  -24.4635   18.3668 C   0  0  0  0  0  0
  -30.5147  -24.8931   17.2667 C   0  0  0  0  0  0
  -29.8315  -24.5417   21.9979 C   0  0  0  0  0  0
  -28.3043  -25.1154   20.0499 C   0  0  0  0  0  0
  -30.0650  -15.8151   20.8406 N   0  0  0  0  0  0
  -31.4491  -12.4919   19.1314 H   0  0  0  0  0  0
  -30.3319  -11.4259   19.9349 H   0  0  0  0  0  0
  -29.7630  -11.7111   17.4935 H   0  0  0  0  0  0
  -29.6041  -13.4346   17.7204 H   0  0  0  0  0  0
  -27.8802  -11.2343   18.9115 H   0  0  0  0  0  0
  -27.3491  -12.4655   17.8006 H   0  0  0  0  0  0
  -27.5826  -14.1698   19.4039 H   0  0  0  0  0  0
  -28.7126  -12.1903   21.4629 H   0  0  0  0  0  0
  -28.4273  -13.8911   21.7465 H   0  0  0  0  0  0
  -25.2680   -9.5705   22.4779 H   0  0  0  0  0  0
  -23.9989   -7.4599   22.7458 H   0  0  0  0  0  0
  -21.0789   -8.8682   19.8938 H   0  0  0  0  0  0
  -22.3570  -10.9640   19.6173 H   0  0  0  0  0  0
  -21.1987   -7.6128   23.9715 H   0  0  0  0  0  0
  -21.1479   -6.0509   25.9092 H   0  0  0  0  0  0
  -22.0613   -2.7584   23.2852 H   0  0  0  0  0  0
  -22.3987  -11.9879   22.4828 H   0  0  0  0  0  0
  -21.1051  -13.1320   22.2637 H   0  0  0  0  0  0
  -24.6693  -15.8358   20.5246 H   0  0  0  0  0  0
  -26.2946  -15.6036   20.1261 H   0  0  0  0  0  0
  -26.7129  -32.5489   23.1127 H   0  0  0  0  0  0
  -24.9981  -33.9760   25.0399 H   0  0  0  0  0  0
  -22.7029  -31.3020   21.4042 H   0  0  0  0  0  0
  -23.3751  -35.9630   23.3310 H   0  0  0  0  0  0
  -24.3570  -36.8920   22.2054 H   0  0  0  0  0  0
  -23.7222  -37.6507   23.6655 H   0  0  0  0  0  0
  -26.0677  -31.5692   20.5932 H   0  0  0  0  0  0
  -26.8311  -30.8622   21.9879 H   0  0  0  0  0  0
  -28.1061  -29.0351   21.1737 H   0  0  0  0  0  0
  -26.0069  -25.9258   19.0328 H   0  0  0  0  0  0
  -23.9737  -27.2887   19.0328 H   0  0  0  0  0  0
  -23.7322  -30.5872   19.4007 H   0  0  0  0  0  0
  -22.7444  -29.2346   19.8683 H   0  0  0  0  0  0
  -25.1286  -36.1970   25.0830 H   0  0  0  0  0  0
  -20.9963  -28.3226   24.1426 H   0  0  0  0  0  0
  -20.5664  -26.2268   23.3608 H   0  0  0  0  0  0
  -21.6632  -26.7422   22.1209 H   0  0  0  0  0  0
  -19.6900  -25.6284   21.1233 H   0  0  0  0  0  0
  -19.6688  -27.3190   20.6757 H   0  0  0  0  0  0
  -17.4192  -26.6668   21.4023 H   0  0  0  0  0  0
  -18.0317  -26.0056   22.9023 H   0  0  0  0  0  0
  -19.7937  -30.7249   24.2278 H   0  0  0  0  0  0
  -17.5017  -31.6270   24.5148 H   0  0  0  0  0  0
  -15.5350  -30.2987   23.7653 H   0  0  0  0  0  0
  -15.8660  -28.0818   22.7072 H   0  0  0  0  0  0
  -24.5851  -30.7113   25.7795 H   0  0  0  0  0  0
  -24.8893  -32.2924   26.4885 H   0  0  0  0  0  0
  -25.8009  -30.8928   27.0235 H   0  0  0  0  0  0
  -26.2829  -29.6832   24.1118 H   0  0  0  0  0  0
  -27.3931  -29.7242   25.4623 H   0  0  0  0  0  0
  -27.8714  -30.4335   23.9368 H   0  0  0  0  0  0
  -27.2629  -33.3617   26.2094 H   0  0  0  0  0  0
  -28.3812  -32.6909   25.0309 H   0  0  0  0  0  0
  -28.0700  -31.8436   26.5385 H   0  0  0  0  0  0
  -28.2599  -38.0100   24.7519 H   0  0  0  0  0  0
  -28.1072  -36.2635   24.6271 H   0  0  0  0  0  0
  -27.2301  -37.1437   25.8866 H   0  0  0  0  0  0
  -20.9331  -29.8748   21.6928 H   0  0  0  0  0  0
  -26.0179  -38.2874   24.1420 H   0  0  0  0  0  0
  -31.7973  -18.0755   20.4271 H   0  0  0  0  0  0
  -31.5779  -18.7620   21.9858 H   0  0  0  0  0  0
  -30.6398  -26.1754   19.5599 H   0  0  0  0  0  0
  -31.6525  -25.1121   20.4564 H   0  0  0  0  0  0
  -30.0805  -16.8591   22.6476 H   0  0  0  0  0  0
  -31.6595  -16.3269   22.1637 H   0  0  0  0  0  0
  -29.8241  -16.5002   18.8652 H   0  0  0  0  0  0
  -28.3809  -15.9726   19.5997 H   0  0  0  0  0  0
  -29.3769  -19.2364   21.7367 H   0  0  0  0  0  0
  -28.5307  -18.4371   19.1230 H   0  0  0  0  0  0
  -27.9119  -22.5080   21.7184 H   0  0  0  0  0  0
  -29.1691  -21.7110   22.6914 H   0  0  0  0  0  0
  -27.9403  -20.7954   21.8151 H   0  0  0  0  0  0
  -31.9587  -22.6299   16.4104 H   0  0  0  0  0  0
  -31.6493  -20.9593   16.2294 H   0  0  0  0  0  0
  -33.0299  -21.4720   17.1955 H   0  0  0  0  0  0
  -30.9367  -18.2586   18.5370 H   0  0  0  0  0  0
  -32.3396  -19.1642   18.0315 H   0  0  0  0  0  0
  -30.8473  -19.1523   17.0800 H   0  0  0  0  0  0
  -27.5755  -17.4320   21.8306 H   0  0  0  0  0  0
  -26.6786  -17.4831   20.3105 H   0  0  0  0  0  0
  -27.0894  -18.9617   21.1085 H   0  0  0  0  0  0
  -33.2830  -24.0472   19.2286 H   0  0  0  0  0  0
  -33.0379  -25.5164   18.2965 H   0  0  0  0  0  0
  -33.1712  -23.9899   17.4800 H   0  0  0  0  0  0
  -29.4320  -24.8834   17.3642 H   0  0  0  0  0  0
  -30.7447  -24.3492   16.3539 H   0  0  0  0  0  0
  -30.8092  -25.9292   17.0950 H   0  0  0  0  0  0
  -30.7237  -24.0238   22.3512 H   0  0  0  0  0  0
  -28.9865  -24.1732   22.5744 H   0  0  0  0  0  0
  -29.9327  -25.5935   22.2667 H   0  0  0  0  0  0
  -27.4811  -24.7360   20.6561 H   0  0  0  0  0  0
  -28.0495  -24.8701   19.0208 H   0  0  0  0  0  0
  1 25  1  0  0  0
  1 30  2  0  0  0
  1 93  1  0  0  0
  2  3  1  0  0  0
  2 25  1  0  0  0
  2 94  1  0  0  0
  2 95  1  0  0  0
  3  4  1  0  0  0
  3 96  1  0  0  0
  3 97  1  0  0  0
  4  5  1  0  0  0
  4 98  1  0  0  0
  4 99  1  0  0  0
  5  6  1  0  0  0
  5 26  1  0  0  0
  5100  1  0  0  0
  6 25  1  0  0  0
  6101  1  0  0  0
  6102  1  0  0  0
  7  8  2  0  0  0
  7 26  1  0  0  0
  7 29  1  0  0  0
  8  9  1  0  0  0
  8 22  1  0  0  0
  9 10  1  0  0  0
  9 27  2  0  0  0
 10 11  2  0  0  0
 10 15  1  0  0  0
 11 12  1  0  0  0
 11103  1  0  0  0
 12 13  2  0  0  0
 12104  1  0  0  0
 13 14  1  0  0  0
 13 31  1  0  0  0
 14 15  2  0  0  0
 14105  1  0  0  0
 15106  1  0  0  0
 16 17  2  0  0  0
 16 21  1  0  0  0
 16 31  1  0  0  0
 17 18  1  0  0  0
 17107  1  0  0  0
 18 19  2  0  0  0
 18108  1  0  0  0
 19 20  1  0  0  0
 19 24  1  0  0  0
 20 21  2  0  0  0
 20109  1  0  0  0
 21 23  1  0  0  0
 22 28  1  0  0  0
 22 32  2  0  0  0
 26 27  1  0  0  0
 28110  1  0  0  0
 28111  1  0  0  0
 29112  1  0  0  0
 29113  1  0  0  0
 33 34  1  0  0  0
 33 66  1  0  0  0
 33 70  2  0  0  0
 34 36  1  0  0  0
 34 59  1  0  0  0
 34114  1  0  0  0
 35 44  2  0  0  0
 35 45  1  0  0  0
 35 68  1  0  0  0
 36 56  1  0  0  0
 36115  1  0  0  0
 37 39  1  0  0  0
 37 47  1  0  0  0
 37 66  1  0  0  0
 37116  1  0  0  0
 38 43  2  0  0  0
 38 46  1  0  0  0
 38 47  1  0  0  0
 39 64  1  0  0  0
 39 67  2  0  0  0
 40 52  1  0  0  0
 40 53  2  0  0  0
 40 58  1  0  0  0
 41117  1  0  0  0
 41118  1  0  0  0
 41119  1  0  0  0
 41 48  1  0  0  0
 42 43  1  0  0  0
 42 66  1  0  0  0
 42120  1  0  0  0
 42121  1  0  0  0
 43 44  1  0  0  0
 44122  1  0  0  0
 45 46  2  0  0  0
 45123  1  0  0  0
 46124  1  0  0  0
 47125  1  0  0  0
 47126  1  0  0  0
 48 56  1  0  0  0
 48 65  1  0  0  0
 48127  1  0  0  0
 49 50  1  0  0  0
 49 53  1  0  0  0
 49 64  1  0  0  0
 49128  1  0  0  0
 50 51  1  0  0  0
 50129  1  0  0  0
 50130  1  0  0  0
 51 52  1  0  0  0
 51131  1  0  0  0
 51132  1  0  0  0
 52133  1  0  0  0
 52134  1  0  0  0
 53 54  1  0  0  0
 54 55  2  0  0  0
 54135  1  0  0  0
 55 57  1  0  0  0
 55136  1  0  0  0
 56 69  2  0  0  0
 57 58  2  0  0  0
 57137  1  0  0  0
 58138  1  0  0  0
 59 60  1  0  0  0
 59 61  1  0  0  0
 59 62  1  0  0  0
 60139  1  0  0  0
 60140  1  0  0  0
 60141  1  0  0  0
 61142  1  0  0  0
 61143  1  0  0  0
 61144  1  0  0  0
 62145  1  0  0  0
 62146  1  0  0  0
 62147  1  0  0  0
 63 65  1  0  0  0
 63148  1  0  0  0
 63149  1  0  0  0
 63150  1  0  0  0
 64151  1  0  0  0
 65152  1  0  0  0
 68 92  1  0  0  0
 71 72  1  0  0  0
 71 74  2  0  0  0
 71 84  1  0  0  0
 72 75  2  0  0  0
 72 83  1  0  0  0
 73 74  1  0  0  0
 73 76  2  0  0  0
 73 81  1  0  0  0
 74 85  1  0  0  0
 75 76  1  0  0  0
 75 86  1  0  0  0
 76 87  1  0  0  0
 77 79  1  0  0  0
 77 81  1  0  0  0
 77153  1  0  0  0
 77154  1  0  0  0
 78 83  1  0  0  0
 78 84  1  0  0  0
 78155  1  0  0  0
 78156  1  0  0  0
 79 93  1  0  0  0
 79157  1  0  0  0
 79158  1  0  0  0
 80 82  1  0  0  0
 80 93  1  0  0  0
 80159  1  0  0  0
 80160  1  0  0  0
 81 82  1  0  0  0
 81161  1  0  0  0
 82 88  1  0  0  0
 82162  1  0  0  0
 83 89  1  0  0  0
 83 90  1  0  0  0
 84 91  1  0  0  0
 84 92  1  0  0  0
 85163  1  0  0  0
 85164  1  0  0  0
 85165  1  0  0  0
 86166  1  0  0  0
 86167  1  0  0  0
 86168  1  0  0  0
 87169  1  0  0  0
 87170  1  0  0  0
 87171  1  0  0  0
 88172  1  0  0  0
 88173  1  0  0  0
 88174  1  0  0  0
 89175  1  0  0  0
 89176  1  0  0  0
 89177  1  0  0  0
 90178  1  0  0  0
 90179  1  0  0  0
 90180  1  0  0  0
 91181  1  0  0  0
 91182  1  0  0  0
 91183  1  0  0  0
 92184  1  0  0  0
 92185  1  0  0  0
M  ISO  4   1 100  68 101  92 101  93 100
M  END
> <chiral flag>
0

> <version>
0

> <s_m_source_file>
/data/baiqing/PycharmProjects/Reinvent-master-3.2/result/LINK_invent/BTK/process_docking_weight1_custom_sum_contain_oxygen_bond_distance_aromatic_linkinvent_7_9_3/rearranged_h_0163.sdf

> <i_m_source_file_index>
17

> <r_mmod_Potential_Energy-OPLS-2005>
380.092071533203

> <r_mmod_Stretch_Energy-OPLS-2005>
91.7003784179688

> <r_mmod_Bend_Energy-OPLS-2005>
213.698196411133

> <r_mmod_Torsional_Energy-OPLS-2005>
377.564514160156

> <r_mmod_Improper_Torsional_Energy-OPLS-2005>
6.63875007629395

> <r_mmod_Van_der_Waal_Energy-OPLS-2005>
180.140090942383

> <r_mmod_Electrostatic_Energy-OPLS-2005>
-357.650695800781

> <r_mmod_Solvation_Energy-OPLS-2005>
-179.891250610352

> <b_mmod_Minimization_Converged-OPLS-2005>
0

> <r_mmod_RMS_Derivative-OPLS-2005>
2.57073974609375

$$$$
17
                    3D
 Structure written by MMmdl.
171180  0  0  1  0            999 V2000
  -30.5009  -15.0945   20.4286 C   0  0  0  0  0  0
  -30.4499  -12.6948   19.5534 C   0  0  0  0  0  0
  -29.5506  -12.5825   18.2945 C   0  0  0  0  0  0
  -28.0862  -12.3330   18.6989 C   0  0  0  0  0  0
  -27.6339  -13.2764   19.8455 C   0  0  2  0  0  0
  -28.6614  -13.3711   20.9988 C   0  0  0  0  0  0
  -25.2446  -13.8285   20.5694 C   0  0  0  0  0  0
  -24.1834  -13.0476   20.9183 C   0  0  0  0  0  0
  -24.6473  -11.6959   20.8697 C   0  0  0  0  0  0
  -23.9162  -10.4330   21.0376 C   0  0  0  0  0  0
  -24.3703   -9.4252   21.9162 C   0  0  0  0  0  0
  -23.6362   -8.2288   22.0717 C   0  0  0  0  0  0
  -22.4317   -8.0332   21.3525 C   0  0  0  0  0  0
  -21.9997   -9.0319   20.4612 C   0  0  0  0  0  0
  -22.7332  -10.2199   20.3041 C   0  0  0  0  0  0
  -21.6880   -6.0795   22.5317 C   0  0  0  0  0  0
  -21.4014   -6.5664   23.8273 C   0  0  0  0  0  0
  -21.3662   -5.6792   24.9203 C   0  0  0  0  0  0
  -21.6047   -4.3058   24.7238 C   0  0  0  0  0  0
  -21.8818   -3.8187   23.4344 C   0  0  0  0  0  0
  -21.9198   -4.7011   22.3425 C   0  0  0  0  0  0
  -22.7846  -13.5214   21.1896 C   0  0  0  0  0  0
  -22.1664   -4.2207   21.0989 F   0  0  0  0  0  0
  -21.5649   -3.4523   25.7734 F   0  0  0  0  0  0
  -29.9340  -13.8071   20.4117 N   0  0  0  0  0  0
  -26.2915  -12.9583   20.3251 N   0  0  0  0  0  0
  -25.9420  -11.6658   20.5722 N   0  0  0  0  0  0
  -22.0508  -12.8215   22.0423 N   0  0  0  0  0  0
  -25.3975  -15.2057   20.4312 N   0  0  0  0  0  0
  -31.6910  -15.1421   20.0792 O   0  0  0  0  0  0
  -21.6631   -6.8950   21.4279 O   0  0  0  0  0  0
  -22.3491  -14.5524   20.6738 O   0  0  0  0  0  0
  -24.6436  -31.8399   23.1865 C   0  0  0  0  0  0
  -25.9232  -32.4669   23.8245 C   0  0  1  0  0  0
  -27.2140  -27.0926   20.2120 C   0  0  0  0  0  0
  -25.5973  -33.8474   24.2161 N   0  0  0  0  0  0
  -23.4433  -30.4548   21.5343 C   0  0  2  0  0  0
  -24.8956  -28.8586   20.1363 C   0  0  0  0  0  0
  -22.7504  -29.4548   22.4963 C   0  0  0  0  0  0
  -18.0348  -28.1453   22.8557 C   0  0  0  0  0  0
  -24.1490  -36.7238   23.2629 C   0  0  0  0  0  0
  -26.0007  -30.7097   21.3851 C   0  0  0  0  0  0
  -26.0755  -29.3058   20.7453 C   0  0  0  0  0  0
  -27.2444  -28.4477   20.7458 C   0  0  0  0  0  0
  -26.0037  -26.7404   19.5783 C   0  0  0  0  0  0
  -24.8708  -27.5867   19.5422 C   0  0  0  0  0  0
  -23.6737  -29.7732   20.1611 C   0  0  0  0  0  0
  -25.4144  -36.3031   24.0297 C   0  0  1  0  0  0
  -20.5971  -28.3864   23.1450 C   0  0  2  0  0  0
  -20.6819  -26.9559   22.5581 C   0  0  0  0  0  0
  -19.5954  -26.6731   21.5090 C   0  0  0  0  0  0
  -18.2064  -26.8030   22.1508 C   0  0  0  0  0  0
  -19.1568  -28.8934   23.3038 C   0  0  0  0  0  0
  -18.9429  -30.1493   23.9117 C   0  0  0  0  0  0
  -17.6420  -30.6551   24.0791 C   0  0  0  0  0  0
  -25.9108  -34.9391   23.5044 C   0  0  0  0  0  0
  -16.5359  -29.9102   23.6406 C   0  0  0  0  0  0
  -16.7334  -28.6564   23.0358 C   0  0  0  0  0  0
  -26.4541  -31.6570   25.0716 C   0  0  0  0  0  0
  -25.3689  -31.3792   26.1403 C   0  0  0  0  0  0
  -27.0395  -30.2960   24.6306 C   0  0  0  0  0  0
  -27.6029  -32.4369   25.7523 C   0  0  0  0  0  0
  -27.5585  -37.1791   24.8456 C   0  0  0  0  0  0
  -21.4190  -29.3216   22.3846 N   0  0  0  0  0  0
  -26.4314  -37.3763   23.9379 N   0  0  0  0  0  0
  -24.7164  -31.0264   22.0901 N   0  0  0  0  0  0
  -23.4162  -28.8020   23.3030 O   0  0  0  0  0  0
  -28.3185  -26.1667   20.1257 O   0  0  0  0  0  0
  -26.5646  -34.8879   22.4605 O   0  0  0  0  0  0
  -23.5575  -32.1255   23.7117 O   0  0  0  0  0  0
  -29.3846  -17.7831   18.9100 C   0  0  0  0  0  0
  -28.9093  -18.9207   20.8860 C   0  0  0  0  0  0
  -29.7271  -17.7907   20.2862 C   0  0  0  0  0  0
  -28.0149  -17.9753   18.5917 C   0  0  0  0  0  0
  -27.5429  -18.6079   20.7528 C   0  0  0  0  0  0
  -28.1746  -18.8577   16.0880 C   0  0  0  0  0  0
  -27.4671  -18.1062   17.2022 C   0  0  2  0  0  0
  -27.0018  -19.4924   16.7967 C   0  0  2  0  0  0
  -26.4886  -18.9479   21.7875 C   0  0  0  0  0  0
  -25.6599  -19.7022   16.1351 C   0  0  0  0  0  0
  -30.4524  -20.7744   22.0098 C   0  0  0  0  0  0
  -30.0772  -24.7530   20.8872 C   0  0  0  0  0  0
  -28.0765  -23.1540   20.3628 C   0  0  0  0  0  0
  -29.1560  -20.5658   21.2164 C   0  0  1  0  0  0
  -28.5509  -24.7453   20.7781 C   0  0  2  0  0  0
  -27.0901  -18.1563   19.5669 N   0  0  0  0  0  0
  -29.7445  -16.2887   20.7426 N   0  0  0  0  0  0
  -28.9612  -21.8081   20.2220 N   0  3  0  0  0  0
  -31.4873  -12.8617   19.2476 H   0  0  0  0  0  0
  -30.4538  -11.7598   20.1199 H   0  0  0  0  0  0
  -29.9020  -11.7771   17.6478 H   0  0  0  0  0  0
  -29.6253  -13.5022   17.7179 H   0  0  0  0  0  0
  -28.0028  -11.2924   19.0202 H   0  0  0  0  0  0
  -27.4257  -12.4438   17.8350 H   0  0  0  0  0  0
  -27.5777  -14.2717   19.3970 H   0  0  0  0  0  0
  -28.7737  -12.4217   21.5227 H   0  0  0  0  0  0
  -28.3158  -14.0965   21.7413 H   0  0  0  0  0  0
  -25.2848   -9.5734   22.4724 H   0  0  0  0  0  0
  -24.0091   -7.4673   22.7436 H   0  0  0  0  0  0
  -21.0954   -8.8881   19.8892 H   0  0  0  0  0  0
  -22.3819  -10.9758   19.6172 H   0  0  0  0  0  0
  -21.1958   -7.6159   23.9804 H   0  0  0  0  0  0
  -21.1486   -6.0483   25.9123 H   0  0  0  0  0  0
  -22.0570   -2.7632   23.2825 H   0  0  0  0  0  0
  -22.4087  -11.9893   22.4931 H   0  0  0  0  0  0
  -21.1142  -13.1300   22.2614 H   0  0  0  0  0  0
  -24.5997  -15.8223   20.5189 H   0  0  0  0  0  0
  -26.2353  -15.7000   20.1530 H   0  0  0  0  0  0
  -26.7299  -32.5255   23.0962 H   0  0  0  0  0  0
  -25.0159  -33.9613   25.0336 H   0  0  0  0  0  0
  -22.7424  -31.2778   21.3784 H   0  0  0  0  0  0
  -23.3779  -35.9547   23.3278 H   0  0  0  0  0  0
  -24.3565  -36.8888   22.2046 H   0  0  0  0  0  0
  -23.7230  -37.6417   23.6689 H   0  0  0  0  0  0
  -26.1538  -31.4595   20.6042 H   0  0  0  0  0  0
  -26.8723  -30.7685   22.0240 H   0  0  0  0  0  0
  -28.1581  -28.8096   21.1958 H   0  0  0  0  0  0
  -25.9198  -25.7646   19.1210 H   0  0  0  0  0  0
  -23.9686  -27.2356   19.0658 H   0  0  0  0  0  0
  -23.8092  -30.5465   19.4063 H   0  0  0  0  0  0
  -22.7868  -29.2211   19.8504 H   0  0  0  0  0  0
  -25.1337  -36.1874   25.0797 H   0  0  0  0  0  0
  -21.0118  -28.3554   24.1531 H   0  0  0  0  0  0
  -20.5297  -26.2494   23.3721 H   0  0  0  0  0  0
  -21.6820  -26.7450   22.1809 H   0  0  0  0  0  0
  -19.7383  -25.6937   21.0508 H   0  0  0  0  0  0
  -19.6871  -27.4032   20.7004 H   0  0  0  0  0  0
  -17.4411  -26.6995   21.3840 H   0  0  0  0  0  0
  -18.0395  -25.9945   22.8671 H   0  0  0  0  0  0
  -19.7912  -30.7263   24.2594 H   0  0  0  0  0  0
  -17.4935  -31.6200   24.5407 H   0  0  0  0  0  0
  -15.5374  -30.3014   23.7705 H   0  0  0  0  0  0
  -15.8735  -28.0982   22.6992 H   0  0  0  0  0  0
  -24.5851  -30.7166   25.7740 H   0  0  0  0  0  0
  -24.8877  -32.2977   26.4763 H   0  0  0  0  0  0
  -25.7940  -30.9005   27.0235 H   0  0  0  0  0  0
  -26.3025  -29.6720   24.1248 H   0  0  0  0  0  0
  -27.3925  -29.7248   25.4902 H   0  0  0  0  0  0
  -27.8960  -30.4170   23.9668 H   0  0  0  0  0  0
  -27.2566  -33.3668   26.2049 H   0  0  0  0  0  0
  -28.3879  -32.6969   25.0408 H   0  0  0  0  0  0
  -28.0665  -31.8552   26.5499 H   0  0  0  0  0  0
  -28.2628  -38.0068   24.7545 H   0  0  0  0  0  0
  -28.1067  -36.2620   24.6268 H   0  0  0  0  0  0
  -27.2280  -37.1399   25.8847 H   0  0  0  0  0  0
  -20.9335  -29.9286   21.7410 H   0  0  0  0  0  0
  -26.0169  -38.2842   24.1354 H   0  0  0  0  0  0
  -30.0810  -17.4615   18.1456 H   0  0  0  0  0  0
  -28.0230  -18.5207   15.0672 H   0  0  0  0  0  0
  -29.1633  -19.2632   16.2954 H   0  0  0  0  0  0
  -26.8148  -17.2726   16.9527 H   0  0  0  0  0  0
  -27.2505  -20.2975   17.4885 H   0  0  0  0  0  0
  -26.9588  -19.1443   22.7540 H   0  0  0  0  0  0
  -25.8240  -18.0904   21.9316 H   0  0  0  0  0  0
  -25.8802  -19.8017   21.4965 H   0  0  0  0  0  0
  -25.5091  -19.0361   15.2795 H   0  0  0  0  0  0
  -25.5631  -20.7389   15.7937 H   0  0  0  0  0  0
  -24.8701  -19.5237   16.8661 H   0  0  0  0  0  0
  -30.4548  -20.2087   22.9452 H   0  0  0  0  0  0
  -30.5869  -21.8180   22.3018 H   0  0  0  0  0  0
  -31.3185  -20.4757   21.4229 H   0  0  0  0  0  0
  -30.4347  -23.9918   21.5726 H   0  0  0  0  0  0
  -30.4526  -25.7160   21.2432 H   0  0  0  0  0  0
  -30.5316  -24.5786   19.9168 H   0  0  0  0  0  0
  -27.6662  -23.2692   19.3595 H   0  0  0  0  0  0
  -27.2016  -22.9084   20.9653 H   0  0  0  0  0  0
  -28.3864  -20.7839   21.9569 H   0  0  0  0  0  0
  -28.1753  -24.8851   21.7902 H   0  0  0  0  0  0
  -28.9120  -16.0520   21.2548 H   0  0  0  0  0  0
  -29.8764  -22.0600   19.8793 H   0  0  0  0  0  0
  -28.5267  -21.3581   19.4290 H   0  0  0  0  0  0
  1 25  1  0  0  0
  1 30  2  0  0  0
  1 87  1  0  0  0
  2  3  1  0  0  0
  2 25  1  0  0  0
  2 89  1  0  0  0
  2 90  1  0  0  0
  3  4  1  0  0  0
  3 91  1  0  0  0
  3 92  1  0  0  0
  4  5  1  0  0  0
  4 93  1  0  0  0
  4 94  1  0  0  0
  5  6  1  0  0  0
  5 26  1  0  0  0
  5 95  1  0  0  0
  6 25  1  0  0  0
  6 96  1  0  0  0
  6 97  1  0  0  0
  7  8  2  0  0  0
  7 26  1  0  0  0
  7 29  1  0  0  0
  8  9  1  0  0  0
  8 22  1  0  0  0
  9 10  1  0  0  0
  9 27  2  0  0  0
 10 11  2  0  0  0
 10 15  1  0  0  0
 11 12  1  0  0  0
 11 98  1  0  0  0
 12 13  2  0  0  0
 12 99  1  0  0  0
 13 14  1  0  0  0
 13 31  1  0  0  0
 14 15  2  0  0  0
 14100  1  0  0  0
 15101  1  0  0  0
 16 17  2  0  0  0
 16 21  1  0  0  0
 16 31  1  0  0  0
 17 18  1  0  0  0
 17102  1  0  0  0
 18 19  2  0  0  0
 18103  1  0  0  0
 19 20  1  0  0  0
 19 24  1  0  0  0
 20 21  2  0  0  0
 20104  1  0  0  0
 21 23  1  0  0  0
 22 28  1  0  0  0
 22 32  2  0  0  0
 26 27  1  0  0  0
 28105  1  0  0  0
 28106  1  0  0  0
 29107  1  0  0  0
 29108  1  0  0  0
 33 34  1  0  0  0
 33 66  1  0  0  0
 33 70  2  0  0  0
 34 36  1  0  0  0
 34 59  1  0  0  0
 34109  1  0  0  0
 35 44  2  0  0  0
 35 45  1  0  0  0
 35 68  1  0  0  0
 36 56  1  0  0  0
 36110  1  0  0  0
 37 39  1  0  0  0
 37 47  1  0  0  0
 37 66  1  0  0  0
 37111  1  0  0  0
 38 43  2  0  0  0
 38 46  1  0  0  0
 38 47  1  0  0  0
 39 64  1  0  0  0
 39 67  2  0  0  0
 40 52  1  0  0  0
 40 53  2  0  0  0
 40 58  1  0  0  0
 41112  1  0  0  0
 41113  1  0  0  0
 41114  1  0  0  0
 41 48  1  0  0  0
 42 43  1  0  0  0
 42 66  1  0  0  0
 42115  1  0  0  0
 42116  1  0  0  0
 43 44  1  0  0  0
 44117  1  0  0  0
 45 46  2  0  0  0
 45118  1  0  0  0
 46119  1  0  0  0
 47120  1  0  0  0
 47121  1  0  0  0
 48 56  1  0  0  0
 48 65  1  0  0  0
 48122  1  0  0  0
 49 50  1  0  0  0
 49 53  1  0  0  0
 49 64  1  0  0  0
 49123  1  0  0  0
 50 51  1  0  0  0
 50124  1  0  0  0
 50125  1  0  0  0
 51 52  1  0  0  0
 51126  1  0  0  0
 51127  1  0  0  0
 52128  1  0  0  0
 52129  1  0  0  0
 53 54  1  0  0  0
 54 55  2  0  0  0
 54130  1  0  0  0
 55 57  1  0  0  0
 55131  1  0  0  0
 56 69  2  0  0  0
 57 58  2  0  0  0
 57132  1  0  0  0
 58133  1  0  0  0
 59 60  1  0  0  0
 59 61  1  0  0  0
 59 62  1  0  0  0
 60134  1  0  0  0
 60135  1  0  0  0
 60136  1  0  0  0
 61137  1  0  0  0
 61138  1  0  0  0
 61139  1  0  0  0
 62140  1  0  0  0
 62141  1  0  0  0
 62142  1  0  0  0
 63 65  1  0  0  0
 63143  1  0  0  0
 63144  1  0  0  0
 63145  1  0  0  0
 64146  1  0  0  0
 65147  1  0  0  0
 68 85  1  0  0  0
 71 73  2  0  0  0
 71 74  1  0  0  0
 71148  1  0  0  0
 72 73  1  0  0  0
 72 75  2  0  0  0
 72 84  1  0  0  0
 73 87  1  0  0  0
 74 86  2  0  0  0
 74 77  1  0  0  0
 75 79  1  0  0  0
 75 86  1  0  0  0
 76 77  1  0  0  0
 76 78  1  0  0  0
 76149  1  0  0  0
 76150  1  0  0  0
 77 78  1  0  0  0
 77151  1  0  0  0
 78 80  1  0  0  0
 78152  1  0  0  0
 79153  1  0  0  0
 79154  1  0  0  0
 79155  1  0  0  0
 80156  1  0  0  0
 80157  1  0  0  0
 80158  1  0  0  0
 81159  1  0  0  0
 81160  1  0  0  0
 81161  1  0  0  0
 81 84  1  0  0  0
 82162  1  0  0  0
 82163  1  0  0  0
 82164  1  0  0  0
 82 85  1  0  0  0
 83 85  1  0  0  0
 83 88  1  0  0  0
 83165  1  0  0  0
 83166  1  0  0  0
 84 88  1  0  0  0
 84167  1  0  0  0
 85168  1  0  0  0
 87169  1  0  0  0
 88170  1  0  0  0
 88171  1  0  0  0
M  CHG  1  88   1
M  ISO  4   1 100  68 101  85 101  87 100
M  END
> <chiral flag>
0

> <version>
0

> <s_m_source_file>
/data/baiqing/PycharmProjects/Reinvent-master-3.2/result/LINK_invent/BTK/process_docking_weight1_custom_sum_contain_oxygen_bond_distance_aromatic_linkinvent_7_9_3/rearranged_h_0163.sdf

> <i_m_source_file_index>
18

> <r_mmod_Potential_Energy-OPLS-2005>
946.567199707031

> <r_mmod_Stretch_Energy-OPLS-2005>
350.605133056641

> <r_mmod_Bend_Energy-OPLS-2005>
439.948272705078

> <r_mmod_Torsional_Energy-OPLS-2005>
560.987976074219

> <r_mmod_Improper_Torsional_Energy-OPLS-2005>
32.9905014038086

> <r_mmod_Van_der_Waal_Energy-OPLS-2005>
120.020790100098

> <r_mmod_Electrostatic_Energy-OPLS-2005>
-387.494262695312

> <r_mmod_Solvation_Energy-OPLS-2005>
-432.171813964844

> <b_mmod_Minimization_Converged-OPLS-2005>
0

> <r_mmod_RMS_Derivative-OPLS-2005>
10.4569072723389

$$$$
18
                    3D
 Structure written by MMmdl.
174183  0  0  1  0            999 V2000
  -30.6198  -14.7493   20.4674 C   0  0  0  0  0  0
  -30.4306  -12.4642   19.4657 C   0  0  0  0  0  0
  -29.5061  -12.5042   18.2301 C   0  0  0  0  0  0
  -28.0339  -12.3260   18.6486 C   0  0  0  0  0  0
  -27.6384  -13.2323   19.8452 C   0  0  2  0  0  0
  -28.6845  -13.1774   20.9783 C   0  0  0  0  0  0
  -25.2499  -13.8197   20.5693 C   0  0  0  0  0  0
  -24.1796  -13.0439   20.9213 C   0  0  0  0  0  0
  -24.6390  -11.6919   20.8753 C   0  0  0  0  0  0
  -23.9070  -10.4293   21.0410 C   0  0  0  0  0  0
  -24.3622   -9.4207   21.9186 C   0  0  0  0  0  0
  -23.6294   -8.2243   22.0755 C   0  0  0  0  0  0
  -22.4277   -8.0282   21.3544 C   0  0  0  0  0  0
  -21.9915   -9.0257   20.4646 C   0  0  0  0  0  0
  -22.7244  -10.2134   20.3056 C   0  0  0  0  0  0
  -21.6854   -6.0737   22.5278 C   0  0  0  0  0  0
  -21.4016   -6.5640   23.8211 C   0  0  0  0  0  0
  -21.3659   -5.6791   24.9173 C   0  0  0  0  0  0
  -21.6043   -4.3054   24.7224 C   0  0  0  0  0  0
  -21.8820   -3.8147   23.4344 C   0  0  0  0  0  0
  -21.9193   -4.6964   22.3400 C   0  0  0  0  0  0
  -22.7816  -13.5218   21.1872 C   0  0  0  0  0  0
  -22.1662   -4.2151   21.0978 F   0  0  0  0  0  0
  -21.5628   -3.4538   25.7736 F   0  0  0  0  0  0
  -29.9799  -13.5324   20.3872 N   0  0  0  0  0  0
  -26.2922  -12.9405   20.3265 N   0  0  0  0  0  0
  -25.9318  -11.6548   20.5751 N   0  0  0  0  0  0
  -22.0466  -12.8206   22.0426 N   0  0  0  0  0  0
  -25.4173  -15.1922   20.4102 N   0  0  0  0  0  0
  -31.8182  -14.8242   20.1851 O   0  0  0  0  0  0
  -21.6640   -6.8880   21.4240 O   0  0  0  0  0  0
  -22.3500  -14.5523   20.6716 O   0  0  0  0  0  0
  -24.6321  -31.8550   23.1980 C   0  0  0  0  0  0
  -25.9143  -32.4754   23.8329 C   0  0  1  0  0  0
  -27.2176  -27.2572   20.1363 C   0  0  0  0  0  0
  -25.5933  -33.8554   24.2251 N   0  0  0  0  0  0
  -23.4291  -30.4770   21.5419 C   0  0  2  0  0  0
  -24.8770  -28.9213   20.1129 C   0  0  0  0  0  0
  -22.7507  -29.4602   22.4917 C   0  0  0  0  0  0
  -18.0292  -28.1385   22.8484 C   0  0  0  0  0  0
  -24.1490  -36.7281   23.2641 C   0  0  0  0  0  0
  -25.9752  -30.7672   21.3782 C   0  0  0  0  0  0
  -26.0496  -29.3885   20.7217 C   0  0  0  0  0  0
  -27.2264  -28.5707   20.7181 C   0  0  0  0  0  0
  -26.0262  -26.8610   19.4937 C   0  0  0  0  0  0
  -24.8704  -27.6655   19.4867 C   0  0  0  0  0  0
  -23.6481  -29.8092   20.1590 C   0  0  0  0  0  0
  -25.4119  -36.3070   24.0325 C   0  0  1  0  0  0
  -20.5895  -28.3697   23.1265 C   0  0  2  0  0  0
  -20.6779  -26.9414   22.5406 C   0  0  0  0  0  0
  -19.5755  -26.6382   21.5209 C   0  0  0  0  0  0
  -18.1936  -26.7927   22.1621 C   0  0  0  0  0  0
  -19.1546  -28.8859   23.2869 C   0  0  0  0  0  0
  -18.9468  -30.1459   23.8890 C   0  0  0  0  0  0
  -17.6469  -30.6588   24.0560 C   0  0  0  0  0  0
  -25.9057  -34.9440   23.5092 C   0  0  0  0  0  0
  -16.5358  -29.9084   23.6330 C   0  0  0  0  0  0
  -16.7279  -28.6498   23.0356 C   0  0  0  0  0  0
  -26.4505  -31.6583   25.0723 C   0  0  0  0  0  0
  -25.3721  -31.3731   26.1439 C   0  0  0  0  0  0
  -27.0359  -30.3002   24.6216 C   0  0  0  0  0  0
  -27.6056  -32.4329   25.7500 C   0  0  0  0  0  0
  -27.5579  -37.1796   24.8465 C   0  0  0  0  0  0
  -21.4213  -29.3044   22.3657 N   0  0  0  0  0  0
  -26.4293  -37.3769   23.9406 N   0  0  0  0  0  0
  -24.6979  -31.0509   22.0959 N   0  0  0  0  0  0
  -23.4202  -28.8147   23.3023 O   0  0  0  0  0  0
  -28.3023  -26.3512   20.1527 O   0  0  0  0  0  0
  -26.5635  -34.8918   22.4665 O   0  0  0  0  0  0
  -23.5470  -32.1374   23.7272 O   0  0  0  0  0  0
  -29.1836  -21.1167   20.7966 C   0  0  0  0  0  0
  -28.9011  -21.2158   19.4482 C   0  0  0  0  0  0
  -29.5879  -19.8511   21.3608 C   0  0  0  0  0  0
  -28.9884  -20.0164   18.6783 C   0  0  0  0  0  0
  -29.6958  -18.6779   20.5157 C   0  0  0  0  0  0
  -29.0300  -22.5114   21.4444 C   0  0  0  0  0  0
  -28.5147  -22.6851   19.0630 C   0  0  0  0  0  0
  -28.9762  -23.6298   20.2978 C   0  0  2  0  0  0
  -28.6899  -19.9755   17.1920 C   0  0  0  0  0  0
  -26.9786  -22.7145   18.9094 C   0  0  0  0  0  0
  -29.1203  -23.1352   17.7136 C   0  0  0  0  0  0
  -31.4180  -20.0380   23.1107 C   0  0  0  0  0  0
  -31.0841  -24.9138   21.2661 C   0  0  0  0  0  0
  -29.9285  -19.7915   22.8433 C   0  0  0  0  0  0
  -30.4127  -17.3073   20.9403 C   0  0  0  0  0  0
  -30.4355  -24.1483   20.0931 C   0  0  0  0  0  0
  -28.0601  -24.9493   20.6599 C   0  0  0  0  0  0
  -29.3725  -18.8085   19.2018 N   0  0  0  0  0  0
  -29.8783  -15.9001   20.6854 N   0  0  0  0  0  0
  -31.4699  -12.5927   19.1583 H   0  0  0  0  0  0
  -30.3815  -11.4910   19.9566 H   0  0  0  0  0  0
  -29.7898  -11.7268   17.5195 H   0  0  0  0  0  0
  -29.6273  -13.4553   17.7090 H   0  0  0  0  0  0
  -27.8958  -11.2785   18.9191 H   0  0  0  0  0  0
  -27.3735  -12.5091   17.8001 H   0  0  0  0  0  0
  -27.6291  -14.2513   19.4579 H   0  0  0  0  0  0
  -28.7256  -12.1829   21.4251 H   0  0  0  0  0  0
  -28.4193  -13.8651   21.7829 H   0  0  0  0  0  0
  -25.2767   -9.5682   22.4761 H   0  0  0  0  0  0
  -24.0003   -7.4635   22.7474 H   0  0  0  0  0  0
  -21.0847   -8.8778   19.8950 H   0  0  0  0  0  0
  -22.3705  -10.9675   19.6166 H   0  0  0  0  0  0
  -21.2010   -7.6150   23.9716 H   0  0  0  0  0  0
  -21.1479   -6.0522   25.9077 H   0  0  0  0  0  0
  -22.0600   -2.7610   23.2843 H   0  0  0  0  0  0
  -22.4089  -11.9869   22.4812 H   0  0  0  0  0  0
  -21.1081  -13.1226   22.2633 H   0  0  0  0  0  0
  -24.6457  -15.8418   20.5173 H   0  0  0  0  0  0
  -26.2570  -15.6334   20.0579 H   0  0  0  0  0  0
  -26.7207  -32.5407   23.1069 H   0  0  0  0  0  0
  -25.0068  -33.9685   25.0389 H   0  0  0  0  0  0
  -22.7260  -31.2996   21.3949 H   0  0  0  0  0  0
  -23.3757  -35.9608   23.3302 H   0  0  0  0  0  0
  -24.3577  -36.8908   22.2055 H   0  0  0  0  0  0
  -23.7239  -37.6477   23.6670 H   0  0  0  0  0  0
  -26.1139  -31.5277   20.6085 H   0  0  0  0  0  0
  -26.8521  -30.8169   22.0120 H   0  0  0  0  0  0
  -28.1269  -28.9246   21.2005 H   0  0  0  0  0  0
  -25.9771  -25.9031   18.9978 H   0  0  0  0  0  0
  -23.9748  -27.3049   18.9993 H   0  0  0  0  0  0
  -23.7732  -30.5847   19.4024 H   0  0  0  0  0  0
  -22.7659  -29.2427   19.8546 H   0  0  0  0  0  0
  -25.1301  -36.1917   25.0818 H   0  0  0  0  0  0
  -20.9983  -28.3280   24.1387 H   0  0  0  0  0  0
  -20.5674  -26.2311   23.3613 H   0  0  0  0  0  0
  -21.6649  -26.7436   22.1203 H   0  0  0  0  0  0
  -19.6918  -25.6290   21.1245 H   0  0  0  0  0  0
  -19.6692  -27.3188   20.6736 H   0  0  0  0  0  0
  -17.4203  -26.6673   21.4026 H   0  0  0  0  0  0
  -18.0337  -26.0071   22.9019 H   0  0  0  0  0  0
  -19.7947  -30.7271   24.2261 H   0  0  0  0  0  0
  -17.5025  -31.6269   24.5161 H   0  0  0  0  0  0
  -15.5359  -30.2984   23.7661 H   0  0  0  0  0  0
  -15.8678  -28.0815   22.7078 H   0  0  0  0  0  0
  -24.5906  -30.7071   25.7760 H   0  0  0  0  0  0
  -24.8900  -32.2897   26.4848 H   0  0  0  0  0  0
  -25.8032  -30.8919   27.0228 H   0  0  0  0  0  0
  -26.2947  -29.6741   24.1233 H   0  0  0  0  0  0
  -27.4031  -29.7273   25.4740 H   0  0  0  0  0  0
  -27.8829  -30.4273   23.9470 H   0  0  0  0  0  0
  -27.2664  -33.3638   26.2055 H   0  0  0  0  0  0
  -28.3879  -32.6873   25.0335 H   0  0  0  0  0  0
  -28.0712  -31.8468   26.5433 H   0  0  0  0  0  0
  -28.2595  -38.0095   24.7516 H   0  0  0  0  0  0
  -28.1077  -36.2626   24.6291 H   0  0  0  0  0  0
  -27.2295  -37.1445   25.8867 H   0  0  0  0  0  0
  -20.9406  -29.8768   21.6859 H   0  0  0  0  0  0
  -26.0174  -38.2842   24.1410 H   0  0  0  0  0  0
  -29.8073  -22.6768   22.1860 H   0  0  0  0  0  0
  -28.0850  -22.5073   21.9882 H   0  0  0  0  0  0
  -27.7495  -20.4716   16.9601 H   0  0  0  0  0  0
  -28.6089  -18.9499   16.8308 H   0  0  0  0  0  0
  -29.4906  -20.4574   16.6316 H   0  0  0  0  0  0
  -26.4746  -22.4731   19.8459 H   0  0  0  0  0  0
  -26.6271  -21.9986   18.1683 H   0  0  0  0  0  0
  -26.6257  -23.6913   18.5804 H   0  0  0  0  0  0
  -30.1944  -22.9562   17.6616 H   0  0  0  0  0  0
  -28.9503  -24.2001   17.5493 H   0  0  0  0  0  0
  -28.6676  -22.6287   16.8638 H   0  0  0  0  0  0
  -31.6301  -19.9965   24.1794 H   0  0  0  0  0  0
  -31.7276  -21.0201   22.7513 H   0  0  0  0  0  0
  -32.0443  -19.2919   22.6216 H   0  0  0  0  0  0
  -32.0736  -25.2694   20.9771 H   0  0  0  0  0  0
  -31.2235  -24.2974   22.1526 H   0  0  0  0  0  0
  -30.5064  -25.7909   21.5563 H   0  0  0  0  0  0
  -29.6153  -18.8354   23.2631 H   0  0  0  0  0  0
  -29.3385  -20.5370   23.3778 H   0  0  0  0  0  0
  -30.6224  -17.3382   22.0071 H   0  0  0  0  0  0
  -31.3999  -17.3639   20.4799 H   0  0  0  0  0  0
  -30.4590  -24.8199   19.2349 H   0  0  0  0  0  0
  -31.0845  -23.3098   19.8356 H   0  0  0  0  0  0
  -28.1741  -25.0781   21.7367 H   0  0  0  0  0  0
  -27.0071  -24.6914   20.5812 H   0  0  0  0  0  0
  -28.8830  -15.7872   20.7950 H   0  0  0  0  0  0
  1 25  1  0  0  0
  1 30  2  0  0  0
  1 89  1  0  0  0
  2  3  1  0  0  0
  2 25  1  0  0  0
  2 90  1  0  0  0
  2 91  1  0  0  0
  3  4  1  0  0  0
  3 92  1  0  0  0
  3 93  1  0  0  0
  4  5  1  0  0  0
  4 94  1  0  0  0
  4 95  1  0  0  0
  5  6  1  0  0  0
  5 26  1  0  0  0
  5 96  1  0  0  0
  6 25  1  0  0  0
  6 97  1  0  0  0
  6 98  1  0  0  0
  7  8  2  0  0  0
  7 26  1  0  0  0
  7 29  1  0  0  0
  8  9  1  0  0  0
  8 22  1  0  0  0
  9 10  1  0  0  0
  9 27  2  0  0  0
 10 11  2  0  0  0
 10 15  1  0  0  0
 11 12  1  0  0  0
 11 99  1  0  0  0
 12 13  2  0  0  0
 12100  1  0  0  0
 13 14  1  0  0  0
 13 31  1  0  0  0
 14 15  2  0  0  0
 14101  1  0  0  0
 15102  1  0  0  0
 16 17  2  0  0  0
 16 21  1  0  0  0
 16 31  1  0  0  0
 17 18  1  0  0  0
 17103  1  0  0  0
 18 19  2  0  0  0
 18104  1  0  0  0
 19 20  1  0  0  0
 19 24  1  0  0  0
 20 21  2  0  0  0
 20105  1  0  0  0
 21 23  1  0  0  0
 22 28  1  0  0  0
 22 32  2  0  0  0
 26 27  1  0  0  0
 28106  1  0  0  0
 28107  1  0  0  0
 29108  1  0  0  0
 29109  1  0  0  0
 33 34  1  0  0  0
 33 66  1  0  0  0
 33 70  2  0  0  0
 34 36  1  0  0  0
 34 59  1  0  0  0
 34110  1  0  0  0
 35 44  2  0  0  0
 35 45  1  0  0  0
 35 68  1  0  0  0
 36 56  1  0  0  0
 36111  1  0  0  0
 37 39  1  0  0  0
 37 47  1  0  0  0
 37 66  1  0  0  0
 37112  1  0  0  0
 38 43  2  0  0  0
 38 46  1  0  0  0
 38 47  1  0  0  0
 39 64  1  0  0  0
 39 67  2  0  0  0
 40 52  1  0  0  0
 40 53  2  0  0  0
 40 58  1  0  0  0
 41113  1  0  0  0
 41114  1  0  0  0
 41115  1  0  0  0
 41 48  1  0  0  0
 42 43  1  0  0  0
 42 66  1  0  0  0
 42116  1  0  0  0
 42117  1  0  0  0
 43 44  1  0  0  0
 44118  1  0  0  0
 45 46  2  0  0  0
 45119  1  0  0  0
 46120  1  0  0  0
 47121  1  0  0  0
 47122  1  0  0  0
 48 56  1  0  0  0
 48 65  1  0  0  0
 48123  1  0  0  0
 49 50  1  0  0  0
 49 53  1  0  0  0
 49 64  1  0  0  0
 49124  1  0  0  0
 50 51  1  0  0  0
 50125  1  0  0  0
 50126  1  0  0  0
 51 52  1  0  0  0
 51127  1  0  0  0
 51128  1  0  0  0
 52129  1  0  0  0
 52130  1  0  0  0
 53 54  1  0  0  0
 54 55  2  0  0  0
 54131  1  0  0  0
 55 57  1  0  0  0
 55132  1  0  0  0
 56 69  2  0  0  0
 57 58  2  0  0  0
 57133  1  0  0  0
 58134  1  0  0  0
 59 60  1  0  0  0
 59 61  1  0  0  0
 59 62  1  0  0  0
 60135  1  0  0  0
 60136  1  0  0  0
 60137  1  0  0  0
 61138  1  0  0  0
 61139  1  0  0  0
 61140  1  0  0  0
 62141  1  0  0  0
 62142  1  0  0  0
 62143  1  0  0  0
 63 65  1  0  0  0
 63144  1  0  0  0
 63145  1  0  0  0
 63146  1  0  0  0
 64147  1  0  0  0
 65148  1  0  0  0
 68 87  1  0  0  0
 71 72  1  0  0  0
 71 73  2  0  0  0
 71 76  1  0  0  0
 72 74  2  0  0  0
 72 77  1  0  0  0
 73 75  1  0  0  0
 73 84  1  0  0  0
 74 79  1  0  0  0
 74 88  1  0  0  0
 75 85  1  0  0  0
 75 88  2  0  0  0
 76 78  1  0  0  0
 76149  1  0  0  0
 76150  1  0  0  0
 77 78  1  0  0  0
 77 80  1  0  0  0
 77 81  1  0  0  0
 78 86  1  0  0  0
 78 87  1  0  0  0
 79151  1  0  0  0
 79152  1  0  0  0
 79153  1  0  0  0
 80154  1  0  0  0
 80155  1  0  0  0
 80156  1  0  0  0
 81157  1  0  0  0
 81158  1  0  0  0
 81159  1  0  0  0
 82 84  1  0  0  0
 82160  1  0  0  0
 82161  1  0  0  0
 82162  1  0  0  0
 83 86  1  0  0  0
 83163  1  0  0  0
 83164  1  0  0  0
 83165  1  0  0  0
 84166  1  0  0  0
 84167  1  0  0  0
 85 89  1  0  0  0
 85168  1  0  0  0
 85169  1  0  0  0
 86170  1  0  0  0
 86171  1  0  0  0
 87172  1  0  0  0
 87173  1  0  0  0
 89174  1  0  0  0
M  ISO  4   1 100  68 101  87 101  89 100
M  END
> <chiral flag>
0

> <version>
0

> <s_m_source_file>
/data/baiqing/PycharmProjects/Reinvent-master-3.2/result/LINK_invent/BTK/process_docking_weight1_custom_sum_contain_oxygen_bond_distance_aromatic_linkinvent_7_9_3/rearranged_h_0163.sdf

> <i_m_source_file_index>
19

> <r_mmod_Potential_Energy-OPLS-2005>
24.2795524597168

> <r_mmod_Stretch_Energy-OPLS-2005>
134.846939086914

> <r_mmod_Bend_Energy-OPLS-2005>
231.016250610352

> <r_mmod_Torsional_Energy-OPLS-2005>
254.753158569336

> <r_mmod_Improper_Torsional_Energy-OPLS-2005>
5.05736970901489

> <r_mmod_Van_der_Waal_Energy-OPLS-2005>
140.810195922852

> <r_mmod_Electrostatic_Energy-OPLS-2005>
-615.335876464844

> <r_mmod_Solvation_Energy-OPLS-2005>
-215.533889770508

> <b_mmod_Minimization_Converged-OPLS-2005>
0

> <r_mmod_RMS_Derivative-OPLS-2005>
0.400121212005615

$$$$
19
                    3D
 Structure written by MMmdl.
179189  0  0  1  0            999 V2000
  -30.5513  -15.3954   19.9616 C   0  0  0  0  0  0
  -30.4548  -12.7502   19.4969 C   0  0  0  0  0  0
  -29.5516  -12.2517   18.3358 C   0  0  0  0  0  0
  -28.0636  -12.2090   18.7276 C   0  0  0  0  0  0
  -27.6178  -13.2677   19.7723 C   0  0  2  0  0  0
  -28.7165  -13.6081   20.8129 C   0  0  0  0  0  0
  -25.2527  -13.8288   20.5848 C   0  0  0  0  0  0
  -24.1820  -13.0504   20.9323 C   0  0  0  0  0  0
  -24.6431  -11.6972   20.8856 C   0  0  0  0  0  0
  -23.9111  -10.4328   21.0434 C   0  0  0  0  0  0
  -24.3630   -9.4208   21.9203 C   0  0  0  0  0  0
  -23.6285   -8.2247   22.0757 C   0  0  0  0  0  0
  -22.4272   -8.0282   21.3552 C   0  0  0  0  0  0
  -21.9932   -9.0272   20.4657 C   0  0  0  0  0  0
  -22.7276  -10.2152   20.3078 C   0  0  0  0  0  0
  -21.6853   -6.0716   22.5274 C   0  0  0  0  0  0
  -21.4023   -6.5640   23.8202 C   0  0  0  0  0  0
  -21.3663   -5.6789   24.9172 C   0  0  0  0  0  0
  -21.6047   -4.3060   24.7223 C   0  0  0  0  0  0
  -21.8809   -3.8140   23.4358 C   0  0  0  0  0  0
  -21.9191   -4.6946   22.3402 C   0  0  0  0  0  0
  -22.7810  -13.5226   21.1869 C   0  0  0  0  0  0
  -22.1654   -4.2126   21.0981 F   0  0  0  0  0  0
  -21.5622   -3.4541   25.7748 F   0  0  0  0  0  0
  -29.9110  -14.0530   20.0299 N   0  0  0  0  0  0
  -26.2992  -12.9566   20.3376 N   0  0  0  0  0  0
  -25.9396  -11.6701   20.5951 N   0  0  0  0  0  0
  -22.0443  -12.8241   22.0423 N   0  0  0  0  0  0
  -25.4163  -15.2011   20.4209 N   0  0  0  0  0  0
  -31.3524  -15.1456   20.8976 O   0  0  0  0  0  0
  -21.6650   -6.8869   21.4226 O   0  0  0  0  0  0
  -22.3489  -14.5509   20.6668 O   0  0  0  0  0  0
  -24.6622  -31.8231   23.1674 C   0  0  0  0  0  0
  -25.9325  -32.4567   23.8149 C   0  0  1  0  0  0
  -27.2168  -26.9212   20.1770 C   0  0  0  0  0  0
  -25.5995  -33.8378   24.2048 N   0  0  0  0  0  0
  -23.4747  -30.4314   21.5213 C   0  0  2  0  0  0
  -24.9250  -28.8153   20.1115 C   0  0  0  0  0  0
  -22.7643  -29.4438   22.4822 C   0  0  0  0  0  0
  -18.0317  -28.1387   22.8475 C   0  0  0  0  0  0
  -24.1509  -36.7174   23.2643 C   0  0  0  0  0  0
  -26.0448  -30.6219   21.4023 C   0  0  0  0  0  0
  -26.1108  -29.2137   20.7419 C   0  0  0  0  0  0
  -27.2476  -28.2881   20.7481 C   0  0  0  0  0  0
  -25.9979  -26.6711   19.5037 C   0  0  0  0  0  0
  -24.8946  -27.5640   19.4728 C   0  0  0  0  0  0
  -23.7092  -29.7402   20.1497 C   0  0  0  0  0  0
  -25.4161  -36.2940   24.0287 C   0  0  1  0  0  0
  -20.5942  -28.3747   23.1202 C   0  0  2  0  0  0
  -20.6803  -26.9440   22.5418 C   0  0  0  0  0  0
  -19.5789  -26.6370   21.5218 C   0  0  0  0  0  0
  -18.1961  -26.7929   22.1616 C   0  0  0  0  0  0
  -19.1572  -28.8893   23.2812 C   0  0  0  0  0  0
  -18.9493  -30.1483   23.8841 C   0  0  0  0  0  0
  -17.6484  -30.6593   24.0565 C   0  0  0  0  0  0
  -25.9134  -34.9328   23.4984 C   0  0  0  0  0  0
  -16.5378  -29.9077   23.6355 C   0  0  0  0  0  0
  -16.7290  -28.6491   23.0386 C   0  0  0  0  0  0
  -26.4572  -31.6503   25.0674 C   0  0  0  0  0  0
  -25.3696  -31.3777   26.1325 C   0  0  0  0  0  0
  -27.0457  -30.2855   24.6434 C   0  0  0  0  0  0
  -27.6065  -32.4327   25.7479 C   0  0  0  0  0  0
  -27.5582  -37.1741   24.8470 C   0  0  0  0  0  0
  -21.4331  -29.3013   22.3542 N   0  0  0  0  0  0
  -26.4298  -37.3687   23.9388 N   0  0  0  0  0  0
  -24.7488  -30.9879   22.0824 N   0  0  0  0  0  0
  -23.4201  -28.8062   23.3092 O   0  0  0  0  0  0
  -28.2265  -25.8209   20.2612 O   0  0  0  0  0  0
  -26.5742  -34.8879   22.4589 O   0  0  0  0  0  0
  -23.5712  -32.1248   23.6734 O   0  0  0  0  0  0
  -29.5504  -15.2309   17.8154 C   0  0  0  0  0  0
  -28.8357  -16.7231   18.8957 C   0  0  0  0  0  0
  -31.5127  -14.9708   17.8253 C   0  0  0  0  0  0
  -29.9220  -17.7678   20.1357 C   0  0  0  0  0  0
  -32.6200  -16.1019   18.9462 C   0  0  0  0  0  0
  -31.8199  -17.4588   20.0873 C   0  0  0  0  0  0
  -27.1073  -23.6846   21.1549 C   0  0  0  0  0  0
  -28.3080  -22.9843   21.8214 C   0  0  0  0  0  0
  -29.1135  -17.4292   16.3528 C   0  0  0  0  0  0
  -30.6565  -17.1181   16.5495 C   0  0  0  0  0  0
  -30.1335  -18.4592   17.8748 C   0  0  0  0  0  0
  -28.7280  -17.8513   17.8034 C   0  0  2  0  0  0
  -28.0271  -24.1897   20.0411 C   0  0  2  0  0  0
  -28.9323  -22.6775   20.4492 C   0  0  1  0  0  0
  -32.2067  -13.9984   16.8863 C   0  0  0  0  0  0
  -34.1196  -15.9395   18.9419 C   0  0  0  0  0  0
  -32.7158  -18.3143   20.9502 C   0  0  0  0  0  0
  -30.4363  -22.8951   20.3429 C   0  0  0  0  0  0
  -29.4231  -19.3804   20.7009 C   0  0  0  0  0  0
  -28.8256  -20.9324   19.9558 C   0  0  0  0  0  0
  -30.7723  -17.0729   18.1338 N   0  0  0  0  0  0
  -31.4951  -12.8389   19.1962 H   0  0  0  0  0  0
  -30.4855  -11.9916   20.2800 H   0  0  0  0  0  0
  -29.8604  -11.2385   18.0745 H   0  0  0  0  0  0
  -29.6947  -12.7860   17.4071 H   0  0  0  0  0  0
  -27.9057  -11.2103   19.1371 H   0  0  0  0  0  0
  -27.4314  -12.2535   17.8388 H   0  0  0  0  0  0
  -27.4705  -14.1783   19.1926 H   0  0  0  0  0  0
  -28.9096  -12.7656   21.4779 H   0  0  0  0  0  0
  -28.3924  -14.4332   21.4464 H   0  0  0  0  0  0
  -25.2755   -9.5672   22.4803 H   0  0  0  0  0  0
  -23.9977   -7.4644   22.7496 H   0  0  0  0  0  0
  -21.0857   -8.8801   19.8972 H   0  0  0  0  0  0
  -22.3725  -10.9687   19.6205 H   0  0  0  0  0  0
  -21.2029   -7.6146   23.9695 H   0  0  0  0  0  0
  -21.1492   -6.0536   25.9073 H   0  0  0  0  0  0
  -22.0586   -2.7590   23.2869 H   0  0  0  0  0  0
  -22.4061  -11.9962   22.4939 H   0  0  0  0  0  0
  -21.1040  -13.1246   22.2550 H   0  0  0  0  0  0
  -24.6468  -15.8552   20.5165 H   0  0  0  0  0  0
  -26.2782  -15.6441   20.1285 H   0  0  0  0  0  0
  -26.7399  -32.5087   23.0866 H   0  0  0  0  0  0
  -25.0093  -33.9492   25.0161 H   0  0  0  0  0  0
  -22.7857  -31.2612   21.3506 H   0  0  0  0  0  0
  -23.3791  -35.9482   23.3269 H   0  0  0  0  0  0
  -24.3596  -36.8860   22.2068 H   0  0  0  0  0  0
  -23.7259  -37.6342   23.6740 H   0  0  0  0  0  0
  -26.2422  -31.3637   20.6282 H   0  0  0  0  0  0
  -26.8990  -30.6673   22.0657 H   0  0  0  0  0  0
  -28.1437  -28.5919   21.2715 H   0  0  0  0  0  0
  -25.8574  -25.7125   19.0254 H   0  0  0  0  0  0
  -23.9886  -27.2514   18.9712 H   0  0  0  0  0  0
  -23.8469  -30.5023   19.3818 H   0  0  0  0  0  0
  -22.8202  -29.1839   19.8507 H   0  0  0  0  0  0
  -25.1370  -36.1729   25.0783 H   0  0  0  0  0  0
  -21.0014  -28.3352   24.1330 H   0  0  0  0  0  0
  -20.5718  -26.2362   23.3648 H   0  0  0  0  0  0
  -21.6671  -26.7459   22.1214 H   0  0  0  0  0  0
  -19.6992  -25.6267   21.1284 H   0  0  0  0  0  0
  -19.6735  -27.3151   20.6726 H   0  0  0  0  0  0
  -17.4250  -26.6658   21.4002 H   0  0  0  0  0  0
  -18.0370  -26.0068   22.9013 H   0  0  0  0  0  0
  -19.7968  -30.7309   24.2182 H   0  0  0  0  0  0
  -17.5044  -31.6286   24.5153 H   0  0  0  0  0  0
  -15.5376  -30.2976   23.7705 H   0  0  0  0  0  0
  -15.8682  -28.0784   22.7158 H   0  0  0  0  0  0
  -24.5904  -30.7104   25.7627 H   0  0  0  0  0  0
  -24.8871  -32.2983   26.4606 H   0  0  0  0  0  0
  -25.7927  -30.9041   27.0187 H   0  0  0  0  0  0
  -26.3118  -29.6531   24.1434 H   0  0  0  0  0  0
  -27.3940  -29.7235   25.5105 H   0  0  0  0  0  0
  -27.9092  -30.3995   23.9883 H   0  0  0  0  0  0
  -27.2639  -33.3699   26.1877 H   0  0  0  0  0  0
  -28.3966  -32.6763   25.0365 H   0  0  0  0  0  0
  -28.0624  -31.8565   26.5538 H   0  0  0  0  0  0
  -28.2578  -38.0058   24.7527 H   0  0  0  0  0  0
  -28.1105  -36.2580   24.6303 H   0  0  0  0  0  0
  -27.2287  -37.1381   25.8872 H   0  0  0  0  0  0
  -20.9583  -29.8591   21.6569 H   0  0  0  0  0  0
  -26.0127  -38.2736   24.1400 H   0  0  0  0  0  0
  -28.9221  -14.7215   17.0972 H   0  0  0  0  0  0
  -26.6434  -24.4636   21.7595 H   0  0  0  0  0  0
  -26.3628  -22.9755   20.7918 H   0  0  0  0  0  0
  -28.0469  -22.1089   22.4126 H   0  0  0  0  0  0
  -28.9104  -23.6795   22.4104 H   0  0  0  0  0  0
  -28.5209  -16.5986   15.9706 H   0  0  0  0  0  0
  -28.9687  -18.2390   15.6340 H   0  0  0  0  0  0
  -31.3737  -17.7908   16.0555 H   0  0  0  0  0  0
  -30.8686  -16.2243   15.9606 H   0  0  0  0  0  0
  -30.3752  -19.1796   17.0688 H   0  0  0  0  0  0
  -30.4300  -19.2461   18.5543 H   0  0  0  0  0  0
  -27.9019  -18.5539   17.8998 H   0  0  0  0  0  0
  -27.5567  -24.0597   19.0639 H   0  0  0  0  0  0
  -32.8181  -14.5484   16.1709 H   0  0  0  0  0  0
  -31.4980  -13.4032   16.3139 H   0  0  0  0  0  0
  -32.8759  -13.3286   17.4264 H   0  0  0  0  0  0
  -34.4514  -15.3800   18.0691 H   0  0  0  0  0  0
  -34.4452  -15.4121   19.8398 H   0  0  0  0  0  0
  -34.5966  -16.9200   18.9233 H   0  0  0  0  0  0
  -32.8767  -19.2848   20.4853 H   0  0  0  0  0  0
  -33.6818  -17.8312   21.1019 H   0  0  0  0  0  0
  -32.2572  -18.4624   21.9298 H   0  0  0  0  0  0
  -30.7305  -23.8728   20.7210 H   0  0  0  0  0  0
  -30.7694  -22.8349   19.3072 H   0  0  0  0  0  0
  -30.9866  -22.1443   20.9115 H   0  0  0  0  0  0
  -30.2726  -19.6967   21.3046 H   0  0  0  0  0  0
  -28.6661  -19.1500   21.4499 H   0  0  0  0  0  0
  -29.2555  -20.9278   18.9575 H   0  0  0  0  0  0
  -27.7730  -20.7413   19.7416 H   0  0  0  0  0  0
  1 25  1  0  0  0
  1 30  2  0  0  0
  1 91  1  0  0  0
  2  3  1  0  0  0
  2 25  1  0  0  0
  2 92  1  0  0  0
  2 93  1  0  0  0
  3  4  1  0  0  0
  3 94  1  0  0  0
  3 95  1  0  0  0
  4  5  1  0  0  0
  4 96  1  0  0  0
  4 97  1  0  0  0
  5  6  1  0  0  0
  5 26  1  0  0  0
  5 98  1  0  0  0
  6 25  1  0  0  0
  6 99  1  0  0  0
  6100  1  0  0  0
  7  8  2  0  0  0
  7 26  1  0  0  0
  7 29  1  0  0  0
  8  9  1  0  0  0
  8 22  1  0  0  0
  9 10  1  0  0  0
  9 27  2  0  0  0
 10 11  2  0  0  0
 10 15  1  0  0  0
 11 12  1  0  0  0
 11101  1  0  0  0
 12 13  2  0  0  0
 12102  1  0  0  0
 13 14  1  0  0  0
 13 31  1  0  0  0
 14 15  2  0  0  0
 14103  1  0  0  0
 15104  1  0  0  0
 16 17  2  0  0  0
 16 21  1  0  0  0
 16 31  1  0  0  0
 17 18  1  0  0  0
 17105  1  0  0  0
 18 19  2  0  0  0
 18106  1  0  0  0
 19 20  1  0  0  0
 19 24  1  0  0  0
 20 21  2  0  0  0
 20107  1  0  0  0
 21 23  1  0  0  0
 22 28  1  0  0  0
 22 32  2  0  0  0
 26 27  1  0  0  0
 28108  1  0  0  0
 28109  1  0  0  0
 29110  1  0  0  0
 29111  1  0  0  0
 33 34  1  0  0  0
 33 66  1  0  0  0
 33 70  2  0  0  0
 34 36  1  0  0  0
 34 59  1  0  0  0
 34112  1  0  0  0
 35 44  2  0  0  0
 35 45  1  0  0  0
 35 68  1  0  0  0
 36 56  1  0  0  0
 36113  1  0  0  0
 37 39  1  0  0  0
 37 47  1  0  0  0
 37 66  1  0  0  0
 37114  1  0  0  0
 38 43  2  0  0  0
 38 46  1  0  0  0
 38 47  1  0  0  0
 39 64  1  0  0  0
 39 67  2  0  0  0
 40 52  1  0  0  0
 40 53  2  0  0  0
 40 58  1  0  0  0
 41115  1  0  0  0
 41116  1  0  0  0
 41117  1  0  0  0
 41 48  1  0  0  0
 42 43  1  0  0  0
 42 66  1  0  0  0
 42118  1  0  0  0
 42119  1  0  0  0
 43 44  1  0  0  0
 44120  1  0  0  0
 45 46  2  0  0  0
 45121  1  0  0  0
 46122  1  0  0  0
 47123  1  0  0  0
 47124  1  0  0  0
 48 56  1  0  0  0
 48 65  1  0  0  0
 48125  1  0  0  0
 49 50  1  0  0  0
 49 53  1  0  0  0
 49 64  1  0  0  0
 49126  1  0  0  0
 50 51  1  0  0  0
 50127  1  0  0  0
 50128  1  0  0  0
 51 52  1  0  0  0
 51129  1  0  0  0
 51130  1  0  0  0
 52131  1  0  0  0
 52132  1  0  0  0
 53 54  1  0  0  0
 54 55  2  0  0  0
 54133  1  0  0  0
 55 57  1  0  0  0
 55134  1  0  0  0
 56 69  2  0  0  0
 57 58  2  0  0  0
 57135  1  0  0  0
 58136  1  0  0  0
 59 60  1  0  0  0
 59 61  1  0  0  0
 59 62  1  0  0  0
 60137  1  0  0  0
 60138  1  0  0  0
 60139  1  0  0  0
 61140  1  0  0  0
 61141  1  0  0  0
 61142  1  0  0  0
 62143  1  0  0  0
 62144  1  0  0  0
 62145  1  0  0  0
 63 65  1  0  0  0
 63146  1  0  0  0
 63147  1  0  0  0
 63148  1  0  0  0
 64149  1  0  0  0
 65150  1  0  0  0
 68 83  1  0  0  0
 71 72  2  0  0  0
 71 73  1  0  0  0
 71151  1  0  0  0
 72 74  1  0  0  0
 72 82  1  0  0  0
 73 75  2  0  0  0
 73 85  1  0  0  0
 74 76  2  0  0  0
 74 89  1  0  0  0
 75 76  1  0  0  0
 75 86  1  0  0  0
 76 87  1  0  0  0
 77 78  1  0  0  0
 77 83  1  0  0  0
 77152  1  0  0  0
 77153  1  0  0  0
 78 84  1  0  0  0
 78154  1  0  0  0
 78155  1  0  0  0
 79 80  1  0  0  0
 79 82  1  0  0  0
 79156  1  0  0  0
 79157  1  0  0  0
 80 91  1  0  0  0
 80158  1  0  0  0
 80159  1  0  0  0
 81 82  1  0  0  0
 81 91  1  0  0  0
 81160  1  0  0  0
 81161  1  0  0  0
 82162  1  0  0  0
 83 84  1  0  0  0
 83163  1  0  0  0
 84 88  1  0  0  0
 84 90  1  0  0  0
 85164  1  0  0  0
 85165  1  0  0  0
 85166  1  0  0  0
 86167  1  0  0  0
 86168  1  0  0  0
 86169  1  0  0  0
 87170  1  0  0  0
 87171  1  0  0  0
 87172  1  0  0  0
 88173  1  0  0  0
 88174  1  0  0  0
 88175  1  0  0  0
 89 90  1  0  0  0
 89176  1  0  0  0
 89177  1  0  0  0
 90178  1  0  0  0
 90179  1  0  0  0
M  ISO  4   1 100  68 101  83 101  91 100
M  END
> <chiral flag>
0

> <version>
0

> <s_m_source_file>
/data/baiqing/PycharmProjects/Reinvent-master-3.2/result/LINK_invent/BTK/process_docking_weight1_custom_sum_contain_oxygen_bond_distance_aromatic_linkinvent_7_9_3/rearranged_h_0163.sdf

> <i_m_source_file_index>
20

> <r_mmod_Potential_Energy-OPLS-2005>
11721.90234375

> <r_mmod_Stretch_Energy-OPLS-2005>
7000.66943359375

> <r_mmod_Bend_Energy-OPLS-2005>
942.191345214844

> <r_mmod_Torsional_Energy-OPLS-2005>
558.229614257812

> <r_mmod_Improper_Torsional_Energy-OPLS-2005>
62.9474639892578

> <r_mmod_Van_der_Waal_Energy-OPLS-2005>
3057.00219726562

> <r_mmod_Electrostatic_Energy-OPLS-2005>
-367.102661132812

> <r_mmod_Solvation_Energy-OPLS-2005>
-186.728881835938

> <b_mmod_Minimization_Converged-OPLS-2005>
0

> <r_mmod_RMS_Derivative-OPLS-2005>
7.42518424987793

$$$$
20
                    3D
 Structure written by MMmdl.
163172  0  0  1  0            999 V2000
  -30.6991  -14.7232   20.4631 C   0  0  0  0  0  0
  -30.4108  -12.4574   19.4610 C   0  0  0  0  0  0
  -29.4889  -12.4977   18.2267 C   0  0  0  0  0  0
  -28.0252  -12.3015   18.6547 C   0  0  0  0  0  0
  -27.6285  -13.2208   19.8366 C   0  0  2  0  0  0
  -28.6804  -13.2138   20.9716 C   0  0  0  0  0  0
  -25.2458  -13.8148   20.5690 C   0  0  0  0  0  0
  -24.1775  -13.0407   20.9238 C   0  0  0  0  0  0
  -24.6377  -11.6889   20.8814 C   0  0  0  0  0  0
  -23.9086  -10.4259   21.0459 C   0  0  0  0  0  0
  -24.3614   -9.4154   21.9223 C   0  0  0  0  0  0
  -23.6267   -8.2207   22.0775 C   0  0  0  0  0  0
  -22.4261   -8.0268   21.3550 C   0  0  0  0  0  0
  -21.9932   -9.0261   20.4656 C   0  0  0  0  0  0
  -22.7285  -10.2113   20.3085 C   0  0  0  0  0  0
  -21.6838   -6.0741   22.5287 C   0  0  0  0  0  0
  -21.4013   -6.5645   23.8226 C   0  0  0  0  0  0
  -21.3643   -5.6794   24.9185 C   0  0  0  0  0  0
  -21.6029   -4.3058   24.7232 C   0  0  0  0  0  0
  -21.8821   -3.8156   23.4355 C   0  0  0  0  0  0
  -21.9187   -4.6971   22.3411 C   0  0  0  0  0  0
  -22.7795  -13.5189   21.1896 C   0  0  0  0  0  0
  -22.1656   -4.2156   21.0989 F   0  0  0  0  0  0
  -21.5615   -3.4544   25.7746 F   0  0  0  0  0  0
  -29.9777  -13.5474   20.3703 N   0  0  0  0  0  0
  -26.2875  -12.9334   20.3277 N   0  0  0  0  0  0
  -25.9304  -11.6494   20.5826 N   0  0  0  0  0  0
  -22.0436  -12.8180   22.0416 N   0  0  0  0  0  0
  -25.4115  -15.1864   20.4035 N   0  0  0  0  0  0
  -31.9023  -14.6839   20.1892 O   0  0  0  0  0  0
  -21.6604   -6.8881   21.4247 O   0  0  0  0  0  0
  -22.3490  -14.5516   20.6742 O   0  0  0  0  0  0
  -24.6350  -31.8603   23.2052 C   0  0  0  0  0  0
  -25.9179  -32.4780   23.8381 C   0  0  1  0  0  0
  -27.1907  -27.2442   20.0906 C   0  0  0  0  0  0
  -25.5995  -33.8587   24.2308 N   0  0  0  0  0  0
  -23.4277  -30.4921   21.5574 C   0  0  2  0  0  0
  -24.8664  -28.9586   20.1115 C   0  0  0  0  0  0
  -22.7522  -29.4637   22.4966 C   0  0  0  0  0  0
  -18.0300  -28.1402   22.8489 C   0  0  0  0  0  0
  -24.1481  -36.7269   23.2620 C   0  0  0  0  0  0
  -25.9805  -30.7643   21.3912 C   0  0  0  0  0  0
  -26.0484  -29.3891   20.7276 C   0  0  0  0  0  0
  -27.2130  -28.5429   20.7189 C   0  0  0  0  0  0
  -25.9730  -26.9193   19.4336 C   0  0  0  0  0  0
  -24.8352  -27.7301   19.4568 C   0  0  0  0  0  0
  -23.6406  -29.8470   20.1701 C   0  0  0  0  0  0
  -25.4118  -36.3077   24.0298 C   0  0  1  0  0  0
  -20.5914  -28.3707   23.1290 C   0  0  2  0  0  0
  -20.6816  -26.9435   22.5404 C   0  0  0  0  0  0
  -19.5774  -26.6407   21.5222 C   0  0  0  0  0  0
  -18.1936  -26.7957   22.1617 C   0  0  0  0  0  0
  -19.1556  -28.8883   23.2874 C   0  0  0  0  0  0
  -18.9474  -30.1509   23.8853 C   0  0  0  0  0  0
  -17.6457  -30.6594   24.0587 C   0  0  0  0  0  0
  -25.9068  -34.9448   23.5084 C   0  0  0  0  0  0
  -16.5345  -29.9081   23.6371 C   0  0  0  0  0  0
  -16.7285  -28.6524   23.0345 C   0  0  0  0  0  0
  -26.4528  -31.6571   25.0760 C   0  0  0  0  0  0
  -25.3700  -31.3690   26.1441 C   0  0  0  0  0  0
  -27.0399  -30.2993   24.6212 C   0  0  0  0  0  0
  -27.6129  -32.4264   25.7520 C   0  0  0  0  0  0
  -27.5568  -37.1777   24.8464 C   0  0  0  0  0  0
  -21.4228  -29.3054   22.3682 N   0  0  0  0  0  0
  -26.4287  -37.3781   23.9408 N   0  0  0  0  0  0
  -24.7008  -31.0555   22.1070 N   0  0  0  0  0  0
  -23.4228  -28.8153   23.3040 O   0  0  0  0  0  0
  -28.2411  -26.2736   20.1227 O   0  0  0  0  0  0
  -26.5613  -34.8902   22.4636 O   0  0  0  0  0  0
  -23.5495  -32.1445   23.7343 O   0  0  0  0  0  0
  -29.2574  -21.4809   21.0967 C   0  0  0  0  0  0
  -28.9210  -22.8715   20.9783 C   0  0  0  0  0  0
  -29.2489  -20.5780   19.9938 C   0  0  0  0  0  0
  -28.6044  -23.4906   19.7386 C   0  0  0  0  0  0
  -28.9256  -21.1891   18.7369 C   0  0  0  0  0  0
  -28.6702  -22.6070   18.6020 C   0  0  0  0  0  0
  -30.4823  -18.5533   21.3180 C   0  0  0  0  0  0
  -28.4544  -17.9957   20.1895 C   0  0  0  0  0  0
  -31.0426  -17.0893   21.1554 C   0  0  0  0  0  0
  -28.8378  -16.4541   20.1571 C   0  0  0  0  0  0
  -29.6226  -19.0217   20.1226 C   0  0  0  0  0  0
  -28.8048  -20.3086   17.4914 C   0  0  0  0  0  0
  -28.4020  -23.1818   17.2029 C   0  0  0  0  0  0
  -27.8410  -24.8977   19.6465 C   0  0  0  0  0  0
  -30.1218  -15.9704   20.7494 N   0  0  0  0  0  0
  -31.4500  -12.5558   19.1416 H   0  0  0  0  0  0
  -30.3460  -11.4914   19.9636 H   0  0  0  0  0  0
  -29.7765  -11.7257   17.5110 H   0  0  0  0  0  0
  -29.5992  -13.4540   17.7127 H   0  0  0  0  0  0
  -27.8996  -11.2564   18.9407 H   0  0  0  0  0  0
  -27.3589  -12.4668   17.8080 H   0  0  0  0  0  0
  -27.5892  -14.2117   19.3941 H   0  0  0  0  0  0
  -28.7219  -12.2366   21.4531 H   0  0  0  0  0  0
  -28.4188  -13.9290   21.7528 H   0  0  0  0  0  0
  -25.2753   -9.5589   22.4809 H   0  0  0  0  0  0
  -23.9948   -7.4584   22.7497 H   0  0  0  0  0  0
  -21.0886   -8.8827   19.8934 H   0  0  0  0  0  0
  -22.3813  -10.9674   19.6190 H   0  0  0  0  0  0
  -21.2016   -7.6153   23.9746 H   0  0  0  0  0  0
  -21.1456   -6.0519   25.9091 H   0  0  0  0  0  0
  -22.0615   -2.7623   23.2871 H   0  0  0  0  0  0
  -22.4027  -11.9784   22.4723 H   0  0  0  0  0  0
  -21.1075  -13.1251   22.2691 H   0  0  0  0  0  0
  -24.6455  -15.8423   20.5076 H   0  0  0  0  0  0
  -26.2618  -15.6241   20.0760 H   0  0  0  0  0  0
  -26.7246  -32.5429   23.1117 H   0  0  0  0  0  0
  -25.0253  -33.9769   25.0529 H   0  0  0  0  0  0
  -22.7218  -31.3159   21.4246 H   0  0  0  0  0  0
  -23.3768  -35.9577   23.3289 H   0  0  0  0  0  0
  -24.3549  -36.8904   22.2027 H   0  0  0  0  0  0
  -23.7179  -37.6437   23.6668 H   0  0  0  0  0  0
  -26.1173  -31.5220   20.6207 H   0  0  0  0  0  0
  -26.8599  -30.8169   22.0210 H   0  0  0  0  0  0
  -28.1096  -28.8629   21.2335 H   0  0  0  0  0  0
  -25.8074  -26.0075   18.8873 H   0  0  0  0  0  0
  -23.9351  -27.3973   18.9592 H   0  0  0  0  0  0
  -23.7565  -30.6323   19.4217 H   0  0  0  0  0  0
  -22.7561  -29.2863   19.8650 H   0  0  0  0  0  0
  -25.1258  -36.1945   25.0776 H   0  0  0  0  0  0
  -20.9994  -28.3294   24.1428 H   0  0  0  0  0  0
  -20.5809  -26.2289   23.3577 H   0  0  0  0  0  0
  -21.6667  -26.7545   22.1110 H   0  0  0  0  0  0
  -19.6942  -25.6322   21.1231 H   0  0  0  0  0  0
  -19.6721  -27.3268   20.6780 H   0  0  0  0  0  0
  -17.4213  -26.6764   21.3977 H   0  0  0  0  0  0
  -18.0301  -26.0084   22.9010 H   0  0  0  0  0  0
  -19.7946  -30.7376   24.2144 H   0  0  0  0  0  0
  -17.5001  -31.6264   24.5220 H   0  0  0  0  0  0
  -15.5345  -30.2942   23.7750 H   0  0  0  0  0  0
  -15.8688  -28.0854   22.7014 H   0  0  0  0  0  0
  -24.6041  -30.6840   25.7768 H   0  0  0  0  0  0
  -24.8661  -32.2804   26.4659 H   0  0  0  0  0  0
  -25.7966  -30.9061   27.0354 H   0  0  0  0  0  0
  -26.3022  -29.6725   24.1186 H   0  0  0  0  0  0
  -27.4081  -29.7230   25.4710 H   0  0  0  0  0  0
  -27.8885  -30.4287   23.9493 H   0  0  0  0  0  0
  -27.2908  -33.3733   26.1863 H   0  0  0  0  0  0
  -28.4085  -32.6487   25.0394 H   0  0  0  0  0  0
  -28.0618  -31.8464   26.5598 H   0  0  0  0  0  0
  -28.2568  -38.0099   24.7573 H   0  0  0  0  0  0
  -28.1078  -36.2612   24.6258 H   0  0  0  0  0  0
  -27.2276  -37.1400   25.8867 H   0  0  0  0  0  0
  -20.9414  -29.8751   21.6862 H   0  0  0  0  0  0
  -26.0161  -38.2839   24.1487 H   0  0  0  0  0  0
  -29.4865  -21.0978   22.0814 H   0  0  0  0  0  0
  -28.8573  -23.4638   21.8787 H   0  0  0  0  0  0
  -31.3283  -19.2291   21.4421 H   0  0  0  0  0  0
  -29.9101  -18.6239   22.2452 H   0  0  0  0  0  0
  -27.8926  -18.1909   21.1044 H   0  0  0  0  0  0
  -27.7338  -18.1829   19.3949 H   0  0  0  0  0  0
  -31.5341  -16.7994   22.0863 H   0  0  0  0  0  0
  -31.8426  -17.1539   20.4157 H   0  0  0  0  0  0
  -28.8227  -16.1256   19.1177 H   0  0  0  0  0  0
  -28.0323  -15.9341   20.6673 H   0  0  0  0  0  0
  -30.2238  -18.7988   19.2395 H   0  0  0  0  0  0
  -28.7191  -19.2443   17.6956 H   0  0  0  0  0  0
  -29.6702  -20.4465   16.8444 H   0  0  0  0  0  0
  -27.9034  -20.5615   16.9299 H   0  0  0  0  0  0
  -27.3305  -23.2890   17.0243 H   0  0  0  0  0  0
  -28.8135  -22.5999   16.3768 H   0  0  0  0  0  0
  -28.8702  -24.1615   17.1034 H   0  0  0  0  0  0
  -26.9084  -24.6486   20.1582 H   0  0  0  0  0  0
  -27.5900  -25.0462   18.6019 H   0  0  0  0  0  0
  1 25  1  0  0  0
  1 30  2  0  0  0
  1 85  1  0  0  0
  2  3  1  0  0  0
  2 25  1  0  0  0
  2 86  1  0  0  0
  2 87  1  0  0  0
  3  4  1  0  0  0
  3 88  1  0  0  0
  3 89  1  0  0  0
  4  5  1  0  0  0
  4 90  1  0  0  0
  4 91  1  0  0  0
  5  6  1  0  0  0
  5 26  1  0  0  0
  5 92  1  0  0  0
  6 25  1  0  0  0
  6 93  1  0  0  0
  6 94  1  0  0  0
  7  8  2  0  0  0
  7 26  1  0  0  0
  7 29  1  0  0  0
  8  9  1  0  0  0
  8 22  1  0  0  0
  9 10  1  0  0  0
  9 27  2  0  0  0
 10 11  2  0  0  0
 10 15  1  0  0  0
 11 12  1  0  0  0
 11 95  1  0  0  0
 12 13  2  0  0  0
 12 96  1  0  0  0
 13 14  1  0  0  0
 13 31  1  0  0  0
 14 15  2  0  0  0
 14 97  1  0  0  0
 15 98  1  0  0  0
 16 17  2  0  0  0
 16 21  1  0  0  0
 16 31  1  0  0  0
 17 18  1  0  0  0
 17 99  1  0  0  0
 18 19  2  0  0  0
 18100  1  0  0  0
 19 20  1  0  0  0
 19 24  1  0  0  0
 20 21  2  0  0  0
 20101  1  0  0  0
 21 23  1  0  0  0
 22 28  1  0  0  0
 22 32  2  0  0  0
 26 27  1  0  0  0
 28102  1  0  0  0
 28103  1  0  0  0
 29104  1  0  0  0
 29105  1  0  0  0
 33 34  1  0  0  0
 33 66  1  0  0  0
 33 70  2  0  0  0
 34 36  1  0  0  0
 34 59  1  0  0  0
 34106  1  0  0  0
 35 44  2  0  0  0
 35 45  1  0  0  0
 35 68  1  0  0  0
 36 56  1  0  0  0
 36107  1  0  0  0
 37 39  1  0  0  0
 37 47  1  0  0  0
 37 66  1  0  0  0
 37108  1  0  0  0
 38 43  2  0  0  0
 38 46  1  0  0  0
 38 47  1  0  0  0
 39 64  1  0  0  0
 39 67  2  0  0  0
 40 52  1  0  0  0
 40 53  2  0  0  0
 40 58  1  0  0  0
 41109  1  0  0  0
 41110  1  0  0  0
 41111  1  0  0  0
 41 48  1  0  0  0
 42 43  1  0  0  0
 42 66  1  0  0  0
 42112  1  0  0  0
 42113  1  0  0  0
 43 44  1  0  0  0
 44114  1  0  0  0
 45 46  2  0  0  0
 45115  1  0  0  0
 46116  1  0  0  0
 47117  1  0  0  0
 47118  1  0  0  0
 48 56  1  0  0  0
 48 65  1  0  0  0
 48119  1  0  0  0
 49 50  1  0  0  0
 49 53  1  0  0  0
 49 64  1  0  0  0
 49120  1  0  0  0
 50 51  1  0  0  0
 50121  1  0  0  0
 50122  1  0  0  0
 51 52  1  0  0  0
 51123  1  0  0  0
 51124  1  0  0  0
 52125  1  0  0  0
 52126  1  0  0  0
 53 54  1  0  0  0
 54 55  2  0  0  0
 54127  1  0  0  0
 55 57  1  0  0  0
 55128  1  0  0  0
 56 69  2  0  0  0
 57 58  2  0  0  0
 57129  1  0  0  0
 58130  1  0  0  0
 59 60  1  0  0  0
 59 61  1  0  0  0
 59 62  1  0  0  0
 60131  1  0  0  0
 60132  1  0  0  0
 60133  1  0  0  0
 61134  1  0  0  0
 61135  1  0  0  0
 61136  1  0  0  0
 62137  1  0  0  0
 62138  1  0  0  0
 62139  1  0  0  0
 63 65  1  0  0  0
 63140  1  0  0  0
 63141  1  0  0  0
 63142  1  0  0  0
 64143  1  0  0  0
 65144  1  0  0  0
 68 84  1  0  0  0
 71 72  2  0  0  0
 71 73  1  0  0  0
 71145  1  0  0  0
 72 74  1  0  0  0
 72146  1  0  0  0
 73 75  2  0  0  0
 73 81  1  0  0  0
 74 76  2  0  0  0
 74 84  1  0  0  0
 75 76  1  0  0  0
 75 82  1  0  0  0
 76 83  1  0  0  0
 77 79  1  0  0  0
 77 81  1  0  0  0
 77147  1  0  0  0
 77148  1  0  0  0
 78 80  1  0  0  0
 78 81  1  0  0  0
 78149  1  0  0  0
 78150  1  0  0  0
 79 85  1  0  0  0
 79151  1  0  0  0
 79152  1  0  0  0
 80 85  1  0  0  0
 80153  1  0  0  0
 80154  1  0  0  0
 81155  1  0  0  0
 82156  1  0  0  0
 82157  1  0  0  0
 82158  1  0  0  0
 83159  1  0  0  0
 83160  1  0  0  0
 83161  1  0  0  0
 84162  1  0  0  0
 84163  1  0  0  0
M  ISO  4   1 100  68 101  84 101  85 100
M  END
> <chiral flag>
0

> <version>
0

> <s_m_source_file>
/data/baiqing/PycharmProjects/Reinvent-master-3.2/result/LINK_invent/BTK/process_docking_weight1_custom_sum_contain_oxygen_bond_distance_aromatic_linkinvent_7_9_3/rearranged_h_0163.sdf

> <i_m_source_file_index>
21

> <r_mmod_Potential_Energy-OPLS-2005>
476.615875244141

> <r_mmod_Stretch_Energy-OPLS-2005>
127.250297546387

> <r_mmod_Bend_Energy-OPLS-2005>
221.017486572266

> <r_mmod_Torsional_Energy-OPLS-2005>
327.006958007812

> <r_mmod_Improper_Torsional_Energy-OPLS-2005>
7.24316263198853

> <r_mmod_Van_der_Waal_Energy-OPLS-2005>
182.039657592773

> <r_mmod_Electrostatic_Energy-OPLS-2005>
-286.030059814453

> <r_mmod_Solvation_Energy-OPLS-2005>
-200.334884643555

> <b_mmod_Minimization_Converged-OPLS-2005>
0

> <r_mmod_RMS_Derivative-OPLS-2005>
4.1054859161377

$$$$
21
                    3D
 Structure written by MMmdl.
169179  0  0  1  0            999 V2000
  -30.8834  -14.6241   20.5209 C   0  0  0  0  0  0
  -30.3839  -12.4035   19.5036 C   0  0  0  0  0  0
  -29.4964  -12.5140   18.2504 C   0  0  0  0  0  0
  -28.0279  -12.3566   18.6622 C   0  0  0  0  0  0
  -27.6525  -13.2588   19.8666 C   0  0  2  0  0  0
  -28.7087  -13.2460   21.0085 C   0  0  0  0  0  0
  -25.2523  -13.8265   20.5783 C   0  0  0  0  0  0
  -24.1815  -13.0469   20.9250 C   0  0  0  0  0  0
  -24.6463  -11.6950   20.8799 C   0  0  0  0  0  0
  -23.9123  -10.4302   21.0416 C   0  0  0  0  0  0
  -24.3644   -9.4213   21.9211 C   0  0  0  0  0  0
  -23.6319   -8.2248   22.0765 C   0  0  0  0  0  0
  -22.4285   -8.0292   21.3567 C   0  0  0  0  0  0
  -21.9939   -9.0256   20.4653 C   0  0  0  0  0  0
  -22.7271  -10.2148   20.3078 C   0  0  0  0  0  0
  -21.6831   -6.0726   22.5262 C   0  0  0  0  0  0
  -21.3993   -6.5650   23.8199 C   0  0  0  0  0  0
  -21.3680   -5.6815   24.9175 C   0  0  0  0  0  0
  -21.6038   -4.3072   24.7216 C   0  0  0  0  0  0
  -21.8815   -3.8144   23.4348 C   0  0  0  0  0  0
  -21.9199   -4.6953   22.3398 C   0  0  0  0  0  0
  -22.7795  -13.5216   21.1864 C   0  0  0  0  0  0
  -22.1657   -4.2136   21.0984 F   0  0  0  0  0  0
  -21.5652   -3.4558   25.7746 F   0  0  0  0  0  0
  -30.0354  -13.5260   20.4253 N   0  0  0  0  0  0
  -26.3032  -12.9549   20.3464 N   0  0  0  0  0  0
  -25.9432  -11.6640   20.5880 N   0  0  0  0  0  0
  -22.0435  -12.8191   22.0427 N   0  0  0  0  0  0
  -25.4202  -15.1992   20.4191 N   0  0  0  0  0  0
  -32.0071  -14.4856   20.0440 O   0  0  0  0  0  0
  -21.6654   -6.8863   21.4226 O   0  0  0  0  0  0
  -22.3476  -14.5530   20.6732 O   0  0  0  0  0  0
  -24.6372  -31.8539   23.2044 C   0  0  0  0  0  0
  -25.9186  -32.4742   23.8365 C   0  0  1  0  0  0
  -27.2130  -27.2632   20.1361 C   0  0  0  0  0  0
  -25.5929  -33.8539   24.2293 N   0  0  0  0  0  0
  -23.4338  -30.4806   21.5498 C   0  0  2  0  0  0
  -24.8936  -28.9498   20.1004 C   0  0  0  0  0  0
  -22.7550  -29.4610   22.4916 C   0  0  0  0  0  0
  -18.0332  -28.1383   22.8539 C   0  0  0  0  0  0
  -24.1497  -36.7287   23.2638 C   0  0  0  0  0  0
  -25.9831  -30.7648   21.3966 C   0  0  0  0  0  0
  -26.0612  -29.3941   20.7360 C   0  0  0  0  0  0
  -27.2199  -28.5526   20.7678 C   0  0  0  0  0  0
  -26.0733  -26.9680   19.3572 C   0  0  0  0  0  0
  -24.9030  -27.7450   19.3960 C   0  0  0  0  0  0
  -23.6579  -29.8203   20.1648 C   0  0  0  0  0  0
  -25.4116  -36.3064   24.0347 C   0  0  1  0  0  0
  -20.5971  -28.3763   23.1300 C   0  0  2  0  0  0
  -20.6885  -26.9483   22.5471 C   0  0  0  0  0  0
  -19.5884  -26.6449   21.5252 C   0  0  0  0  0  0
  -18.2057  -26.7907   22.1699 C   0  0  0  0  0  0
  -19.1579  -28.8935   23.2838 C   0  0  0  0  0  0
  -18.9546  -30.1557   23.8816 C   0  0  0  0  0  0
  -17.6575  -30.6710   24.0483 C   0  0  0  0  0  0
  -25.9028  -34.9412   23.5107 C   0  0  0  0  0  0
  -16.5408  -29.9173   23.6286 C   0  0  0  0  0  0
  -16.7314  -28.6531   23.0349 C   0  0  0  0  0  0
  -26.4537  -31.6558   25.0758 C   0  0  0  0  0  0
  -25.3720  -31.3720   26.1453 C   0  0  0  0  0  0
  -27.0394  -30.2972   24.6249 C   0  0  0  0  0  0
  -27.6095  -32.4290   25.7522 C   0  0  0  0  0  0
  -27.5599  -37.1809   24.8469 C   0  0  0  0  0  0
  -21.4232  -29.3143   22.3702 N   0  0  0  0  0  0
  -26.4294  -37.3773   23.9406 N   0  0  0  0  0  0
  -24.7046  -31.0497   22.1042 N   0  0  0  0  0  0
  -23.4259  -28.8020   23.2944 O   0  0  0  0  0  0
  -28.2003  -26.2539   20.3393 O   0  0  0  0  0  0
  -26.5576  -34.8874   22.4682 O   0  0  0  0  0  0
  -23.5476  -32.1346   23.7332 O   0  0  0  0  0  0
  -29.4297  -22.7679   20.8068 C   0  0  0  0  0  0
  -29.2341  -21.2251   22.7028 C   0  0  0  0  0  0
  -28.5917  -23.7476   21.4590 C   0  0  0  0  0  0
  -28.0540  -23.3557   22.6999 C   0  0  0  0  0  0
  -28.3824  -22.1453   23.3528 C   0  0  0  0  0  0
  -29.6988  -21.4670   21.3912 C   0  0  0  0  0  0
  -26.8939  -24.2065   23.1238 C   0  0  0  0  0  0
  -26.7253  -25.2153   21.9888 C   0  0  0  0  0  0
  -29.2438  -18.1372   21.4314 C   0  0  0  0  0  0
  -31.6462  -18.3348   21.4926 C   0  0  0  0  0  0
  -29.2836  -16.5636   21.2182 C   0  0  0  0  0  0
  -31.8105  -16.8100   21.1778 C   0  0  0  0  0  0
  -30.4127  -18.9221   20.7945 C   0  0  0  0  0  0
  -27.6965  -24.8860   20.8043 C   0  0  1  0  0  0
  -27.7177  -21.7618   24.6691 C   0  0  0  0  0  0
  -26.9861  -24.0944   19.6735 C   0  0  0  0  0  0
  -30.6074  -15.8916   21.0546 N   0  0  0  0  0  0
  -30.3565  -20.4323   20.6457 N   0  0  0  0  0  0
  -31.4315  -12.3726   19.2040 H   0  0  0  0  0  0
  -30.2100  -11.4497   20.0047 H   0  0  0  0  0  0
  -29.7596  -11.7472   17.5231 H   0  0  0  0  0  0
  -29.6518  -13.4729   17.7580 H   0  0  0  0  0  0
  -27.8820  -11.3084   18.9295 H   0  0  0  0  0  0
  -27.3659  -12.5554   17.8167 H   0  0  0  0  0  0
  -27.6353  -14.2758   19.4742 H   0  0  0  0  0  0
  -28.7224  -12.2803   21.5143 H   0  0  0  0  0  0
  -28.4590  -13.9765   21.7775 H   0  0  0  0  0  0
  -25.2765   -9.5665   22.4821 H   0  0  0  0  0  0
  -23.9991   -7.4617   22.7509 H   0  0  0  0  0  0
  -21.0839   -8.8767   19.8969 H   0  0  0  0  0  0
  -22.3691  -10.9694   19.6211 H   0  0  0  0  0  0
  -21.1944   -7.6149   23.9683 H   0  0  0  0  0  0
  -21.1532   -6.0561   25.9087 H   0  0  0  0  0  0
  -22.0585   -2.7598   23.2855 H   0  0  0  0  0  0
  -22.4051  -11.9831   22.4753 H   0  0  0  0  0  0
  -21.1056  -13.1239   22.2647 H   0  0  0  0  0  0
  -24.6548  -15.8596   20.4970 H   0  0  0  0  0  0
  -26.2781  -15.6264   20.0931 H   0  0  0  0  0  0
  -26.7277  -32.5453   23.1123 H   0  0  0  0  0  0
  -25.0077  -33.9646   25.0431 H   0  0  0  0  0  0
  -22.7360  -31.3044   21.4055 H   0  0  0  0  0  0
  -23.3716  -35.9660   23.3302 H   0  0  0  0  0  0
  -24.3545  -36.8906   22.2038 H   0  0  0  0  0  0
  -23.7277  -37.6520   23.6621 H   0  0  0  0  0  0
  -26.1238  -31.5210   20.6232 H   0  0  0  0  0  0
  -26.8528  -30.8086   22.0371 H   0  0  0  0  0  0
  -28.0889  -28.8590   21.3341 H   0  0  0  0  0  0
  -26.0616  -26.1216   18.6973 H   0  0  0  0  0  0
  -24.0313  -27.4259   18.8476 H   0  0  0  0  0  0
  -23.7814  -30.6015   19.4148 H   0  0  0  0  0  0
  -22.7834  -29.2480   19.8503 H   0  0  0  0  0  0
  -25.1315  -36.1945   25.0844 H   0  0  0  0  0  0
  -21.0154  -28.3361   24.1382 H   0  0  0  0  0  0
  -20.5805  -26.2378   23.3656 H   0  0  0  0  0  0
  -21.6788  -26.7504   22.1337 H   0  0  0  0  0  0
  -19.7206  -25.6418   21.1189 H   0  0  0  0  0  0
  -19.6795  -27.3375   20.6898 H   0  0  0  0  0  0
  -17.4347  -26.6691   21.4079 H   0  0  0  0  0  0
  -18.0470  -25.9919   22.8992 H   0  0  0  0  0  0
  -19.8075  -30.7313   24.2218 H   0  0  0  0  0  0
  -17.5193  -31.6414   24.5027 H   0  0  0  0  0  0
  -15.5428  -30.3171   23.7599 H   0  0  0  0  0  0
  -15.8693  -28.0786   22.7223 H   0  0  0  0  0  0
  -24.5905  -30.7086   25.7768 H   0  0  0  0  0  0
  -24.8887  -32.2880   26.4865 H   0  0  0  0  0  0
  -25.7978  -30.8908   27.0265 H   0  0  0  0  0  0
  -26.3009  -29.6706   24.1245 H   0  0  0  0  0  0
  -27.4043  -29.7279   25.4820 H   0  0  0  0  0  0
  -27.8896  -30.4264   23.9527 H   0  0  0  0  0  0
  -27.2717  -33.3589   26.2098 H   0  0  0  0  0  0
  -28.3856  -32.6836   25.0300 H   0  0  0  0  0  0
  -28.0768  -31.8391   26.5415 H   0  0  0  0  0  0
  -28.2651  -38.0080   24.7499 H   0  0  0  0  0  0
  -28.1041  -36.2610   24.6319 H   0  0  0  0  0  0
  -27.2255  -37.1548   25.8850 H   0  0  0  0  0  0
  -20.9340  -29.9090   21.7183 H   0  0  0  0  0  0
  -26.0178  -38.2866   24.1355 H   0  0  0  0  0  0
  -29.7301  -22.9648   19.7873 H   0  0  0  0  0  0
  -29.4529  -20.2940   23.2019 H   0  0  0  0  0  0
  -27.0845  -24.6860   24.0843 H   0  0  0  0  0  0
  -26.0023  -23.5895   23.2165 H   0  0  0  0  0  0
  -26.9891  -26.1703   22.4363 H   0  0  0  0  0  0
  -25.6868  -25.3151   21.6732 H   0  0  0  0  0  0
  -29.2633  -18.3033   22.5084 H   0  0  0  0  0  0
  -28.2897  -18.5449   21.0980 H   0  0  0  0  0  0
  -32.5556  -18.8558   21.1844 H   0  0  0  0  0  0
  -31.5898  -18.4790   22.5727 H   0  0  0  0  0  0
  -28.6605  -16.3162   20.3569 H   0  0  0  0  0  0
  -28.8064  -16.1101   22.0874 H   0  0  0  0  0  0
  -32.5024  -16.3682   21.8953 H   0  0  0  0  0  0
  -32.3561  -16.8089   20.2323 H   0  0  0  0  0  0
  -30.4763  -18.5668   19.7639 H   0  0  0  0  0  0
  -28.1060  -20.8232   25.0691 H   0  0  0  0  0  0
  -26.6473  -21.6268   24.5343 H   0  0  0  0  0  0
  -27.8634  -22.5337   25.4205 H   0  0  0  0  0  0
  -26.9446  -23.0214   19.8853 H   0  0  0  0  0  0
  -27.5137  -24.1992   18.7257 H   0  0  0  0  0  0
  -25.9348  -24.3444   19.5565 H   0  0  0  0  0  0
  -30.6241  -20.7366   19.7095 H   0  0  0  0  0  0
  1 25  1  0  0  0
  1 30  2  0  0  0
  1 87  1  0  0  0
  2  3  1  0  0  0
  2 25  1  0  0  0
  2 89  1  0  0  0
  2 90  1  0  0  0
  3  4  1  0  0  0
  3 91  1  0  0  0
  3 92  1  0  0  0
  4  5  1  0  0  0
  4 93  1  0  0  0
  4 94  1  0  0  0
  5  6  1  0  0  0
  5 26  1  0  0  0
  5 95  1  0  0  0
  6 25  1  0  0  0
  6 96  1  0  0  0
  6 97  1  0  0  0
  7  8  2  0  0  0
  7 26  1  0  0  0
  7 29  1  0  0  0
  8  9  1  0  0  0
  8 22  1  0  0  0
  9 10  1  0  0  0
  9 27  2  0  0  0
 10 11  2  0  0  0
 10 15  1  0  0  0
 11 12  1  0  0  0
 11 98  1  0  0  0
 12 13  2  0  0  0
 12 99  1  0  0  0
 13 14  1  0  0  0
 13 31  1  0  0  0
 14 15  2  0  0  0
 14100  1  0  0  0
 15101  1  0  0  0
 16 17  2  0  0  0
 16 21  1  0  0  0
 16 31  1  0  0  0
 17 18  1  0  0  0
 17102  1  0  0  0
 18 19  2  0  0  0
 18103  1  0  0  0
 19 20  1  0  0  0
 19 24  1  0  0  0
 20 21  2  0  0  0
 20104  1  0  0  0
 21 23  1  0  0  0
 22 28  1  0  0  0
 22 32  2  0  0  0
 26 27  1  0  0  0
 28105  1  0  0  0
 28106  1  0  0  0
 29107  1  0  0  0
 29108  1  0  0  0
 33 34  1  0  0  0
 33 66  1  0  0  0
 33 70  2  0  0  0
 34 36  1  0  0  0
 34 59  1  0  0  0
 34109  1  0  0  0
 35 44  2  0  0  0
 35 45  1  0  0  0
 35 68  1  0  0  0
 36 56  1  0  0  0
 36110  1  0  0  0
 37 39  1  0  0  0
 37 47  1  0  0  0
 37 66  1  0  0  0
 37111  1  0  0  0
 38 43  2  0  0  0
 38 46  1  0  0  0
 38 47  1  0  0  0
 39 64  1  0  0  0
 39 67  2  0  0  0
 40 52  1  0  0  0
 40 53  2  0  0  0
 40 58  1  0  0  0
 41112  1  0  0  0
 41113  1  0  0  0
 41114  1  0  0  0
 41 48  1  0  0  0
 42 43  1  0  0  0
 42 66  1  0  0  0
 42115  1  0  0  0
 42116  1  0  0  0
 43 44  1  0  0  0
 44117  1  0  0  0
 45 46  2  0  0  0
 45118  1  0  0  0
 46119  1  0  0  0
 47120  1  0  0  0
 47121  1  0  0  0
 48 56  1  0  0  0
 48 65  1  0  0  0
 48122  1  0  0  0
 49 50  1  0  0  0
 49 53  1  0  0  0
 49 64  1  0  0  0
 49123  1  0  0  0
 50 51  1  0  0  0
 50124  1  0  0  0
 50125  1  0  0  0
 51 52  1  0  0  0
 51126  1  0  0  0
 51127  1  0  0  0
 52128  1  0  0  0
 52129  1  0  0  0
 53 54  1  0  0  0
 54 55  2  0  0  0
 54130  1  0  0  0
 55 57  1  0  0  0
 55131  1  0  0  0
 56 69  2  0  0  0
 57 58  2  0  0  0
 57132  1  0  0  0
 58133  1  0  0  0
 59 60  1  0  0  0
 59 61  1  0  0  0
 59 62  1  0  0  0
 60134  1  0  0  0
 60135  1  0  0  0
 60136  1  0  0  0
 61137  1  0  0  0
 61138  1  0  0  0
 61139  1  0  0  0
 62140  1  0  0  0
 62141  1  0  0  0
 62142  1  0  0  0
 63 65  1  0  0  0
 63143  1  0  0  0
 63144  1  0  0  0
 63145  1  0  0  0
 64146  1  0  0  0
 65147  1  0  0  0
 68 84  1  0  0  0
 71 73  2  0  0  0
 71 76  1  0  0  0
 71148  1  0  0  0
 72 75  1  0  0  0
 72 76  2  0  0  0
 72149  1  0  0  0
 73 74  1  0  0  0
 73 84  1  0  0  0
 74 75  2  0  0  0
 74 77  1  0  0  0
 75 85  1  0  0  0
 76 88  1  0  0  0
 77 78  1  0  0  0
 77150  1  0  0  0
 77151  1  0  0  0
 78 84  1  0  0  0
 78152  1  0  0  0
 78153  1  0  0  0
 79 81  1  0  0  0
 79 83  1  0  0  0
 79154  1  0  0  0
 79155  1  0  0  0
 80 82  1  0  0  0
 80 83  1  0  0  0
 80156  1  0  0  0
 80157  1  0  0  0
 81 87  1  0  0  0
 81158  1  0  0  0
 81159  1  0  0  0
 82 87  1  0  0  0
 82160  1  0  0  0
 82161  1  0  0  0
 83 88  1  0  0  0
 83162  1  0  0  0
 84 86  1  0  0  0
 85163  1  0  0  0
 85164  1  0  0  0
 85165  1  0  0  0
 86166  1  0  0  0
 86167  1  0  0  0
 86168  1  0  0  0
 88169  1  0  0  0
M  ISO  4   1 100  68 101  84 101  87 100
M  END
> <chiral flag>
0

> <version>
0

> <s_m_source_file>
/data/baiqing/PycharmProjects/Reinvent-master-3.2/result/LINK_invent/BTK/process_docking_weight1_custom_sum_contain_oxygen_bond_distance_aromatic_linkinvent_7_9_3/rearranged_h_0163.sdf

> <i_m_source_file_index>
22

> <r_mmod_Potential_Energy-OPLS-2005>
552.117736816406

> <r_mmod_Stretch_Energy-OPLS-2005>
127.679008483887

> <r_mmod_Bend_Energy-OPLS-2005>
302.713165283203

> <r_mmod_Torsional_Energy-OPLS-2005>
376.062438964844

> <r_mmod_Improper_Torsional_Energy-OPLS-2005>
12.9235544204712

> <r_mmod_Van_der_Waal_Energy-OPLS-2005>
180.085647583008

> <r_mmod_Electrostatic_Energy-OPLS-2005>
-345.973114013672

> <r_mmod_Solvation_Energy-OPLS-2005>
-208.689392089844

> <b_mmod_Minimization_Converged-OPLS-2005>
0

> <r_mmod_RMS_Derivative-OPLS-2005>
8.76386642456055

$$$$
22
                    3D
 Structure written by MMmdl.
178187  0  0  1  0            999 V2000
  -27.0734  -17.7622   21.1831 C   0  0  0  0  0  0
  -29.0961  -15.2335   19.8966 C   0  0  0  0  0  0
  -29.2072  -13.8488   18.8818 C   0  0  0  0  0  0
  -28.2573  -12.7127   19.2282 C   0  0  0  0  0  0
  -27.2715  -13.5355   20.0214 C   0  0  2  0  0  0
  -27.7040  -14.5296   21.2031 C   0  0  0  0  0  0
  -24.9864  -13.8083   20.5556 C   0  0  0  0  0  0
  -24.0073  -12.9896   20.9449 C   0  0  0  0  0  0
  -24.5496  -11.6662   20.9023 C   0  0  0  0  0  0
  -23.8629  -10.3986   21.0496 C   0  0  0  0  0  0
  -24.3371   -9.4029   21.9264 C   0  0  0  0  0  0
  -23.6150   -8.2027   22.0774 C   0  0  0  0  0  0
  -22.4152   -8.0042   21.3525 C   0  0  0  0  0  0
  -21.9678   -8.9929   20.4611 C   0  0  0  0  0  0
  -22.6894  -10.1835   20.3038 C   0  0  0  0  0  0
  -21.6794   -6.0600   22.5302 C   0  0  0  0  0  0
  -21.3989   -6.5556   23.8217 C   0  0  0  0  0  0
  -21.3646   -5.6736   24.9199 C   0  0  0  0  0  0
  -21.6055   -4.3001   24.7277 C   0  0  0  0  0  0
  -21.8831   -3.8056   23.4421 C   0  0  0  0  0  0
  -21.9183   -4.6839   22.3448 C   0  0  0  0  0  0
  -22.6274  -13.4624   21.2131 C   0  0  0  0  0  0
  -22.1637   -4.2012   21.1030 F   0  0  0  0  0  0
  -21.5639   -3.4516   25.7819 F   0  0  0  0  0  0
  -27.7081  -16.0545   20.7130 N   0  0  0  0  0  0
  -26.0595  -12.9863   20.3727 N   0  0  0  0  0  0
  -25.8477  -11.6791   20.6124 N   0  0  0  0  0  0
  -21.9270  -12.7711   22.0933 N   0  0  0  0  0  0
  -25.0333  -15.1851   20.3387 N   0  0  0  0  0  0
  -28.4498  -17.7188   21.0548 O   0  0  0  0  0  0
  -21.6541   -6.8673   21.4234 O   0  0  0  0  0  0
  -22.2035  -14.5002   20.7021 O   0  0  0  0  0  0
  -24.6939  -31.9557   23.1781 C   0  0  0  0  0  0
  -25.9818  -32.5324   23.8413 C   0  0  1  0  0  0
  -26.9094  -27.3443   20.5751 C   0  0  0  0  0  0
  -25.6528  -33.8973   24.2457 N   0  0  0  0  0  0
  -23.5468  -30.7710   21.3814 C   0  0  2  0  0  0
  -24.9271  -29.1297   19.9831 C   0  0  0  0  0  0
  -22.8745  -29.7700   22.2537 C   0  0  0  0  0  0
  -20.0588  -26.5552   22.5397 C   0  0  0  0  0  0
  -24.1484  -36.7487   23.2589 C   0  0  0  0  0  0
  -26.0522  -30.9411   21.3230 C   0  0  0  0  0  0
  -26.0705  -29.5720   20.6626 C   0  0  0  0  0  0
  -27.1532  -28.6976   20.8447 C   0  0  0  0  0  0
  -25.9773  -26.9745   19.5901 C   0  0  0  0  0  0
  -24.9140  -27.8658   19.3563 C   0  0  0  0  0  0
  -23.7712  -30.0973   19.9794 C   0  0  0  0  0  0
  -25.4158  -36.3360   24.0257 C   0  0  1  0  0  0
  -21.3940  -28.1514   21.6838 C   0  0  2  0  0  0
  -21.5390  -27.1840   20.5816 C   0  0  0  0  0  0
  -20.2272  -26.7236   19.9767 C   0  0  0  0  0  0
  -19.2321  -26.5603   20.9740 C   0  0  0  0  0  0
  -20.0941  -27.9493   22.2625 C   0  0  0  0  0  0
  -20.3037  -26.9938   23.0332 C   0  0  0  0  0  0
  -19.5227  -25.9085   24.6803 C   0  0  0  0  0  0
  -25.9195  -34.9814   23.5055 C   0  0  0  0  0  0
  -18.2773  -25.7423   25.2406 C   0  0  0  0  0  0
  -19.4394  -25.4054   24.3024 C   0  0  0  0  0  0
  -26.4903  -31.6941   25.0694 C   0  0  0  0  0  0
  -25.3849  -31.4548   26.1165 C   0  0  0  0  0  0
  -27.0827  -30.3528   24.5816 C   0  0  0  0  0  0
  -27.6454  -32.4272   25.7792 C   0  0  0  0  0  0
  -27.5609  -37.1958   24.8439 C   0  0  0  0  0  0
  -21.6914  -29.5104   21.7468 N   0  0  0  0  0  0
  -26.4298  -37.4105   23.9451 N   0  0  0  0  0  0
  -24.7889  -31.2356   22.0252 N   0  0  0  0  0  0
  -23.4689  -29.1465   23.1458 O   0  0  0  0  0  0
  -26.7813  -26.6096   21.7376 O   0  0  0  0  0  0
  -26.5522  -34.9278   22.4437 O   0  0  0  0  0  0
  -23.6038  -32.2222   23.7059 O   0  0  0  0  0  0
  -21.9436  -25.4420   23.9987 C   0  0  0  0  0  0
  -21.2478  -27.2371   24.9991 C   0  0  0  0  0  0
  -21.4968  -23.8327   22.8275 C   0  0  0  0  0  0
  -18.9093  -27.9624   24.4326 C   0  0  0  0  0  0
  -19.3966  -24.3881   22.3148 C   0  0  0  0  0  0
  -17.9086  -26.3101   22.9607 C   0  0  0  0  0  0
  -23.4721  -25.3327   23.6689 C   0  0  0  0  0  0
  -22.4794  -27.8488   25.6795 C   0  0  1  0  0  0
  -24.6431  -26.3220   24.0335 C   0  0  1  0  0  0
  -24.0007  -27.1091   25.4322 C   0  0  0  0  0  0
  -18.2170  -29.1968   24.9632 C   0  0  0  0  0  0
  -18.7477  -23.3139   21.4540 C   0  0  0  0  0  0
  -16.4850  -26.4453   22.4552 C   0  0  0  0  0  0
  -22.3315  -29.3705   25.9159 C   0  0  0  0  0  0
  -25.8270  -25.3590   24.3773 C   0  0  0  0  0  0
  -25.0733  -28.0673   25.9318 C   0  0  0  0  0  0
  -23.9098  -26.0513   26.6002 C   0  0  0  0  0  0
  -23.6247  -21.6211   22.3183 C   0  0  0  0  0  0
  -25.5006  -27.0295   22.6780 C   0  0  0  0  0  0
  -25.4142  -19.3790   21.6382 N   0  0  0  0  0  0
  -29.4339  -16.0311   19.2343 H   0  0  0  0  0  0
  -29.9341  -15.2139   20.5961 H   0  0  0  0  0  0
  -30.2338  -13.4805   18.8517 H   0  0  0  0  0  0
  -28.9938  -14.1679   17.8601 H   0  0  0  0  0  0
  -28.7311  -11.9641   19.8656 H   0  0  0  0  0  0
  -27.8112  -12.2263   18.3642 H   0  0  0  0  0  0
  -26.9369  -14.1801   19.2016 H   0  0  0  0  0  0
  -28.5565  -14.1663   21.7894 H   0  0  0  0  0  0
  -26.9718  -14.5233   22.0105 H   0  0  0  0  0  0
  -25.2493   -9.5675   22.4829 H   0  0  0  0  0  0
  -23.9869   -7.4472   22.7537 H   0  0  0  0  0  0
  -21.0589   -8.8370   19.8963 H   0  0  0  0  0  0
  -22.3303  -10.9336   19.6114 H   0  0  0  0  0  0
  -21.1964   -7.6062   23.9671 H   0  0  0  0  0  0
  -21.1442   -6.0492   25.9091 H   0  0  0  0  0  0
  -22.0622   -2.7501   23.2982 H   0  0  0  0  0  0
  -22.3105  -11.9401   22.5179 H   0  0  0  0  0  0
  -20.9961  -13.0699   22.3428 H   0  0  0  0  0  0
  -24.1925  -15.7513   20.3167 H   0  0  0  0  0  0
  -25.8566  -15.6108   19.9297 H   0  0  0  0  0  0
  -26.7963  -32.6160   23.1251 H   0  0  0  0  0  0
  -25.0456  -33.9964   25.0482 H   0  0  0  0  0  0
  -22.8803  -31.6270   21.2542 H   0  0  0  0  0  0
  -23.3808  -35.9768   23.3216 H   0  0  0  0  0  0
  -24.3578  -36.9106   22.2020 H   0  0  0  0  0  0
  -23.7129  -37.6647   23.6559 H   0  0  0  0  0  0
  -26.2265  -31.7092   20.5640 H   0  0  0  0  0  0
  -26.9257  -30.9596   21.9689 H   0  0  0  0  0  0
  -27.9085  -28.9460   21.5711 H   0  0  0  0  0  0
  -25.8614  -25.9406   19.2993 H   0  0  0  0  0  0
  -24.0737  -27.5628   18.7504 H   0  0  0  0  0  0
  -24.0423  -30.8691   19.2577 H   0  0  0  0  0  0
  -22.8742  -29.6536   19.5420 H   0  0  0  0  0  0
  -25.1346  -36.2148   25.0737 H   0  0  0  0  0  0
  -22.1999  -27.6174   22.2270 H   0  0  0  0  0  0
  -22.0472  -26.2603   20.8821 H   0  0  0  0  0  0
  -22.1885  -27.5850   19.8130 H   0  0  0  0  0  0
  -20.3821  -25.7959   19.4187 H   0  0  0  0  0  0
  -19.8886  -27.4519   19.2362 H   0  0  0  0  0  0
  -18.5172  -27.3899   20.8222 H   0  0  0  0  0  0
  -18.6100  -25.7441   20.6232 H   0  0  0  0  0  0
  -20.6216  -28.1708   23.3884 H   0  0  0  0  0  0
  -19.6057  -26.3350   25.8941 H   0  0  0  0  0  0
  -17.4919  -26.4869   25.2949 H   0  0  0  0  0  0
  -19.5034  -24.0976   24.3900 H   0  0  0  0  0  0
  -25.7668  -30.9371   26.9979 H   0  0  0  0  0  0
  -24.5498  -30.9015   25.7030 H   0  0  0  0  0  0
  -24.9440  -32.3952   26.4413 H   0  0  0  0  0  0
  -26.4174  -29.8697   23.8741 H   0  0  0  0  0  0
  -27.2725  -29.6492   25.3953 H   0  0  0  0  0  0
  -28.0262  -30.5010   24.0557 H   0  0  0  0  0  0
  -27.3299  -33.3746   26.2195 H   0  0  0  0  0  0
  -28.4689  -32.6313   25.0944 H   0  0  0  0  0  0
  -28.0547  -31.8206   26.5866 H   0  0  0  0  0  0
  -28.2650  -38.0266   24.7749 H   0  0  0  0  0  0
  -28.1060  -36.2845   24.5965 H   0  0  0  0  0  0
  -27.2321  -37.1317   25.8819 H   0  0  0  0  0  0
  -21.3235  -30.1176   21.0266 H   0  0  0  0  0  0
  -26.0155  -38.3125   24.1627 H   0  0  0  0  0  0
  -23.5488  -25.1787   22.5919 H   0  0  0  0  0  0
  -23.6900  -24.3515   24.0935 H   0  0  0  0  0  0
  -22.1845  -27.5745   26.6886 H   0  0  0  0  0  0
  -18.7005  -29.5249   25.8817 H   0  0  0  0  0  0
  -17.1740  -28.9672   25.1943 H   0  0  0  0  0  0
  -18.2410  -30.0145   24.2429 H   0  0  0  0  0  0
  -19.3073  -22.3840   21.5626 H   0  0  0  0  0  0
  -18.7618  -23.5672   20.3937 H   0  0  0  0  0  0
  -17.7100  -23.1534   21.7464 H   0  0  0  0  0  0
  -16.2683  -27.4889   22.2317 H   0  0  0  0  0  0
  -15.7585  -26.0828   23.1846 H   0  0  0  0  0  0
  -16.3707  -25.8685   21.5356 H   0  0  0  0  0  0
  -23.0386  -29.7398   26.6586 H   0  0  0  0  0  0
  -21.3393  -29.5882   26.3167 H   0  0  0  0  0  0
  -22.4079  -29.9917   25.0335 H   0  0  0  0  0  0
  -25.6507  -24.6032   25.1350 H   0  0  0  0  0  0
  -26.7379  -25.8949   24.6399 H   0  0  0  0  0  0
  -26.0708  -24.7591   23.4948 H   0  0  0  0  0  0
  -25.0827  -28.9194   25.2782 H   0  0  0  0  0  0
  -26.0711  -27.6350   25.9200 H   0  0  0  0  0  0
  -24.8813  -28.4193   26.9481 H   0  0  0  0  0  0
  -23.0935  -25.3345   26.4614 H   0  0  0  0  0  0
  -23.7190  -26.5127   27.5760 H   0  0  0  0  0  0
  -24.8288  -25.4983   26.7751 H   0  0  0  0  0  0
  -23.2030  -21.0293   23.1337 H   0  0  0  0  0  0
  -24.4318  -22.2183   22.7459 H   0  0  0  0  0  0
  -25.7791  -28.0029   23.0732 H   0  0  0  0  0  0
  -24.6942  -27.2511   21.9767 H   0  0  0  0  0  0
  -26.2053  -20.0105   21.6965 H   0  0  0  0  0  0
  1 25  1  0  0  0
  1 30  2  0  0  0
  1 90  1  0  0  0
  2  3  1  0  0  0
  2 25  1  0  0  0
  2 91  1  0  0  0
  2 92  1  0  0  0
  3  4  1  0  0  0
  3 93  1  0  0  0
  3 94  1  0  0  0
  4  5  1  0  0  0
  4 95  1  0  0  0
  4 96  1  0  0  0
  5  6  1  0  0  0
  5 26  1  0  0  0
  5 97  1  0  0  0
  6 25  1  0  0  0
  6 98  1  0  0  0
  6 99  1  0  0  0
  7  8  2  0  0  0
  7 26  1  0  0  0
  7 29  1  0  0  0
  8  9  1  0  0  0
  8 22  1  0  0  0
  9 10  1  0  0  0
  9 27  2  0  0  0
 10 11  2  0  0  0
 10 15  1  0  0  0
 11 12  1  0  0  0
 11100  1  0  0  0
 12 13  2  0  0  0
 12101  1  0  0  0
 13 14  1  0  0  0
 13 31  1  0  0  0
 14 15  2  0  0  0
 14102  1  0  0  0
 15103  1  0  0  0
 16 17  2  0  0  0
 16 21  1  0  0  0
 16 31  1  0  0  0
 17 18  1  0  0  0
 17104  1  0  0  0
 18 19  2  0  0  0
 18105  1  0  0  0
 19 20  1  0  0  0
 19 24  1  0  0  0
 20 21  2  0  0  0
 20106  1  0  0  0
 21 23  1  0  0  0
 22 28  1  0  0  0
 22 32  2  0  0  0
 26 27  1  0  0  0
 28107  1  0  0  0
 28108  1  0  0  0
 29109  1  0  0  0
 29110  1  0  0  0
 33 34  1  0  0  0
 33 66  1  0  0  0
 33 70  2  0  0  0
 34 36  1  0  0  0
 34 59  1  0  0  0
 34111  1  0  0  0
 35 44  2  0  0  0
 35 45  1  0  0  0
 35 68  1  0  0  0
 36 56  1  0  0  0
 36112  1  0  0  0
 37 39  1  0  0  0
 37 47  1  0  0  0
 37 66  1  0  0  0
 37113  1  0  0  0
 38 43  2  0  0  0
 38 46  1  0  0  0
 38 47  1  0  0  0
 39 64  1  0  0  0
 39 67  2  0  0  0
 40 52  1  0  0  0
 40 53  2  0  0  0
 40 58  1  0  0  0
 41114  1  0  0  0
 41115  1  0  0  0
 41116  1  0  0  0
 41 48  1  0  0  0
 42 43  1  0  0  0
 42 66  1  0  0  0
 42117  1  0  0  0
 42118  1  0  0  0
 43 44  1  0  0  0
 44119  1  0  0  0
 45 46  2  0  0  0
 45120  1  0  0  0
 46121  1  0  0  0
 47122  1  0  0  0
 47123  1  0  0  0
 48 56  1  0  0  0
 48 65  1  0  0  0
 48124  1  0  0  0
 49 50  1  0  0  0
 49 53  1  0  0  0
 49 64  1  0  0  0
 49125  1  0  0  0
 50 51  1  0  0  0
 50126  1  0  0  0
 50127  1  0  0  0
 51 52  1  0  0  0
 51128  1  0  0  0
 51129  1  0  0  0
 52130  1  0  0  0
 52131  1  0  0  0
 53 54  1  0  0  0
 54 55  2  0  0  0
 54132  1  0  0  0
 55 57  1  0  0  0
 55133  1  0  0  0
 56 69  2  0  0  0
 57 58  2  0  0  0
 57134  1  0  0  0
 58135  1  0  0  0
 59 60  1  0  0  0
 59 61  1  0  0  0
 59 62  1  0  0  0
 60136  1  0  0  0
 60137  1  0  0  0
 60138  1  0  0  0
 61139  1  0  0  0
 61140  1  0  0  0
 61141  1  0  0  0
 62142  1  0  0  0
 62143  1  0  0  0
 62144  1  0  0  0
 63 65  1  0  0  0
 63145  1  0  0  0
 63146  1  0  0  0
 63147  1  0  0  0
 64148  1  0  0  0
 65149  1  0  0  0
 68 89  1  0  0  0
 71 72  1  0  0  0
 71 73  2  0  0  0
 71 77  1  0  0  0
 72 74  2  0  0  0
 72 78  1  0  0  0
 73 75  1  0  0  0
 73 88  1  0  0  0
 74 76  1  0  0  0
 74 81  1  0  0  0
 75 76  2  0  0  0
 75 82  1  0  0  0
 76 83  1  0  0  0
 77 79  1  0  0  0
 77150  1  0  0  0
 77151  1  0  0  0
 78 80  1  0  0  0
 78 84  1  0  0  0
 78152  1  0  0  0
 79 80  1  0  0  0
 79 85  1  0  0  0
 79 89  1  0  0  0
 80 86  1  0  0  0
 80 87  1  0  0  0
 81153  1  0  0  0
 81154  1  0  0  0
 81155  1  0  0  0
 82156  1  0  0  0
 82157  1  0  0  0
 82158  1  0  0  0
 83159  1  0  0  0
 83160  1  0  0  0
 83161  1  0  0  0
 84162  1  0  0  0
 84163  1  0  0  0
 84164  1  0  0  0
 85165  1  0  0  0
 85166  1  0  0  0
 85167  1  0  0  0
 86168  1  0  0  0
 86169  1  0  0  0
 86170  1  0  0  0
 87171  1  0  0  0
 87172  1  0  0  0
 87173  1  0  0  0
 88 90  1  0  0  0
 88174  1  0  0  0
 88175  1  0  0  0
 89176  1  0  0  0
 89177  1  0  0  0
 90178  1  0  0  0
M  ISO  4   1 100  68 101  89 101  90 100
M  END
> <chiral flag>
0

> <version>
0

> <s_m_source_file>
/data/baiqing/PycharmProjects/Reinvent-master-3.2/result/LINK_invent/BTK/process_docking_weight1_custom_sum_contain_oxygen_bond_distance_aromatic_linkinvent_7_9_3/rearranged_h_0163.sdf

> <i_m_source_file_index>
23

> <r_mmod_Potential_Energy-OPLS-2005>
51349.875

> <r_mmod_Stretch_Energy-OPLS-2005>
22847.19140625

> <r_mmod_Bend_Energy-OPLS-2005>
4221.83154296875

> <r_mmod_Torsional_Energy-OPLS-2005>
875.422668457031

> <r_mmod_Improper_Torsional_Energy-OPLS-2005>
109.253234863281

> <r_mmod_Van_der_Waal_Energy-OPLS-2005>
4941.099609375

> <r_mmod_Electrostatic_Energy-OPLS-2005>
-407.083038330078

> <r_mmod_Solvation_Energy-OPLS-2005>
-199.222640991211

> <b_mmod_Minimization_Converged-OPLS-2005>
0

> <r_mmod_RMS_Derivative-OPLS-2005>
18.3530387878418

$$$$
23
                    3D
 Structure written by MMmdl.
166175  0  0  1  0            999 V2000
  -30.6512  -14.6929   20.4890 C   0  0  0  0  0  0
  -30.4260  -12.4277   19.4724 C   0  0  0  0  0  0
  -29.5042  -12.5059   18.2362 C   0  0  0  0  0  0
  -28.0326  -12.3274   18.6533 C   0  0  0  0  0  0
  -27.6432  -13.2300   19.8547 C   0  0  2  0  0  0
  -28.6879  -13.1537   20.9906 C   0  0  0  0  0  0
  -25.2470  -13.8183   20.5628 C   0  0  0  0  0  0
  -24.1786  -13.0422   20.9202 C   0  0  0  0  0  0
  -24.6399  -11.6914   20.8768 C   0  0  0  0  0  0
  -23.9081  -10.4283   21.0432 C   0  0  0  0  0  0
  -24.3634   -9.4189   21.9198 C   0  0  0  0  0  0
  -23.6302   -8.2230   22.0758 C   0  0  0  0  0  0
  -22.4281   -8.0280   21.3545 C   0  0  0  0  0  0
  -21.9923   -9.0256   20.4646 C   0  0  0  0  0  0
  -22.7265  -10.2134   20.3067 C   0  0  0  0  0  0
  -21.6842   -6.0741   22.5286 C   0  0  0  0  0  0
  -21.4015   -6.5641   23.8227 C   0  0  0  0  0  0
  -21.3657   -5.6796   24.9182 C   0  0  0  0  0  0
  -21.6047   -4.3056   24.7233 C   0  0  0  0  0  0
  -21.8813   -3.8154   23.4350 C   0  0  0  0  0  0
  -21.9192   -4.6964   22.3409 C   0  0  0  0  0  0
  -22.7809  -13.5193   21.1874 C   0  0  0  0  0  0
  -22.1659   -4.2157   21.0981 F   0  0  0  0  0  0
  -21.5630   -3.4541   25.7741 F   0  0  0  0  0  0
  -29.9977  -13.4860   20.4137 N   0  0  0  0  0  0
  -26.2932  -12.9415   20.3301 N   0  0  0  0  0  0
  -25.9333  -11.6555   20.5793 N   0  0  0  0  0  0
  -22.0481  -12.8175   22.0450 N   0  0  0  0  0  0
  -25.4035  -15.1894   20.3906 N   0  0  0  0  0  0
  -31.8283  -14.7879   20.1341 O   0  0  0  0  0  0
  -21.6632   -6.8886   21.4251 O   0  0  0  0  0  0
  -22.3478  -14.5500   20.6735 O   0  0  0  0  0  0
  -24.6278  -31.8601   23.2014 C   0  0  0  0  0  0
  -25.9116  -32.4776   23.8349 C   0  0  1  0  0  0
  -27.2183  -27.2850   20.1224 C   0  0  0  0  0  0
  -25.5945  -33.8577   24.2286 N   0  0  0  0  0  0
  -23.4228  -30.4842   21.5448 C   0  0  2  0  0  0
  -24.8715  -28.9395   20.1071 C   0  0  0  0  0  0
  -22.7488  -29.4623   22.4912 C   0  0  0  0  0  0
  -18.0308  -28.1349   22.8486 C   0  0  0  0  0  0
  -24.1499  -36.7277   23.2632 C   0  0  0  0  0  0
  -25.9688  -30.7775   21.3814 C   0  0  0  0  0  0
  -26.0409  -29.4034   20.7215 C   0  0  0  0  0  0
  -27.2158  -28.5867   20.7237 C   0  0  0  0  0  0
  -26.0303  -26.8960   19.4603 C   0  0  0  0  0  0
  -24.8703  -27.6924   19.4672 C   0  0  0  0  0  0
  -23.6394  -29.8225   20.1585 C   0  0  0  0  0  0
  -25.4126  -36.3070   24.0325 C   0  0  1  0  0  0
  -20.5921  -28.3674   23.1267 C   0  0  2  0  0  0
  -20.6804  -26.9391   22.5397 C   0  0  0  0  0  0
  -19.5768  -26.6358   21.5205 C   0  0  0  0  0  0
  -18.1946  -26.7903   22.1609 C   0  0  0  0  0  0
  -19.1565  -28.8824   23.2875 C   0  0  0  0  0  0
  -18.9478  -30.1434   23.8881 C   0  0  0  0  0  0
  -17.6473  -30.6550   24.0568 C   0  0  0  0  0  0
  -25.9072  -34.9444   23.5099 C   0  0  0  0  0  0
  -16.5367  -29.9052   23.6315 C   0  0  0  0  0  0
  -16.7294  -28.6474   23.0341 C   0  0  0  0  0  0
  -26.4507  -31.6580   25.0711 C   0  0  0  0  0  0
  -25.3719  -31.3741   26.1416 C   0  0  0  0  0  0
  -27.0369  -30.3001   24.6177 C   0  0  0  0  0  0
  -27.6036  -32.4348   25.7469 C   0  0  0  0  0  0
  -27.5595  -37.1791   24.8473 C   0  0  0  0  0  0
  -21.4203  -29.3045   22.3670 N   0  0  0  0  0  0
  -26.4305  -37.3761   23.9414 N   0  0  0  0  0  0
  -24.6915  -31.0588   22.0977 N   0  0  0  0  0  0
  -23.4204  -28.8147   23.2984 O   0  0  0  0  0  0
  -28.3130  -26.3960   20.2080 O   0  0  0  0  0  0
  -26.5617  -34.8905   22.4655 O   0  0  0  0  0  0
  -23.5443  -32.1424   23.7332 O   0  0  0  0  0  0
  -27.6627  -20.7957   20.9852 C   0  0  0  0  0  0
  -29.7708  -19.8219   20.3466 C   0  0  0  0  0  0
  -28.9228  -20.9997   20.3922 C   0  0  0  0  0  0
  -27.2933  -19.5682   21.5812 C   0  0  0  0  0  0
  -29.4148  -18.5231   20.8869 C   0  0  0  0  0  0
  -28.1766  -18.4523   21.5842 C   0  0  0  0  0  0
  -28.8824  -22.3512   18.1767 C   0  0  0  0  0  0
  -30.3023  -22.4107   18.6171 C   0  0  0  0  0  0
  -29.1976  -22.3873   19.6723 C   0  0  0  0  0  0
  -25.9081  -19.4767   22.2051 C   0  0  0  0  0  0
  -27.8011  -17.2022   22.3702 C   0  0  0  0  0  0
  -28.8122  -23.6216   21.9826 C   0  0  0  0  0  0
  -30.3980  -17.2720   20.7653 C   0  0  0  0  0  0
  -28.1075  -24.9473   19.8895 C   0  0  0  0  0  0
  -29.0678  -23.7880   20.4743 C   0  0  2  0  0  0
  -29.9209  -15.8260   20.7760 N   0  0  0  0  0  0
  -31.4696  -12.5310   19.1714 H   0  0  0  0  0  0
  -30.3505  -11.4495   19.9489 H   0  0  0  0  0  0
  -29.7821  -11.7462   17.5044 H   0  0  0  0  0  0
  -29.6298  -13.4706   17.7420 H   0  0  0  0  0  0
  -27.8922  -11.2778   18.9180 H   0  0  0  0  0  0
  -27.3713  -12.5150   17.8070 H   0  0  0  0  0  0
  -27.6422  -14.2527   19.4767 H   0  0  0  0  0  0
  -28.7098  -12.1553   21.4291 H   0  0  0  0  0  0
  -28.4265  -13.8357   21.8009 H   0  0  0  0  0  0
  -25.2780   -9.5652   22.4771 H   0  0  0  0  0  0
  -24.0006   -7.4610   22.7464 H   0  0  0  0  0  0
  -21.0857   -8.8777   19.8943 H   0  0  0  0  0  0
  -22.3731  -10.9672   19.6173 H   0  0  0  0  0  0
  -21.2010   -7.6153   23.9730 H   0  0  0  0  0  0
  -21.1482   -6.0525   25.9086 H   0  0  0  0  0  0
  -22.0592   -2.7615   23.2849 H   0  0  0  0  0  0
  -22.4119  -11.9831   22.4815 H   0  0  0  0  0  0
  -21.1104  -13.1189   22.2708 H   0  0  0  0  0  0
  -24.6163  -15.8230   20.4706 H   0  0  0  0  0  0
  -26.2277  -15.6328   20.0077 H   0  0  0  0  0  0
  -26.7163  -32.5443   23.1084 H   0  0  0  0  0  0
  -25.0152  -33.9739   25.0466 H   0  0  0  0  0  0
  -22.7177  -31.3069   21.4049 H   0  0  0  0  0  0
  -23.3765  -35.9602   23.3306 H   0  0  0  0  0  0
  -24.3603  -36.8899   22.2047 H   0  0  0  0  0  0
  -23.7249  -37.6476   23.6661 H   0  0  0  0  0  0
  -26.1166  -31.5425   20.6189 H   0  0  0  0  0  0
  -26.8427  -30.8237   22.0181 H   0  0  0  0  0  0
  -28.1073  -28.9346   21.2269 H   0  0  0  0  0  0
  -25.9635  -25.9547   18.9355 H   0  0  0  0  0  0
  -23.9774  -27.3360   18.9734 H   0  0  0  0  0  0
  -23.7641  -30.6033   19.4075 H   0  0  0  0  0  0
  -22.7595  -29.2571   19.8449 H   0  0  0  0  0  0
  -25.1318  -36.1921   25.0819 H   0  0  0  0  0  0
  -21.0036  -28.3241   24.1384 H   0  0  0  0  0  0
  -20.5714  -26.2283   23.3604 H   0  0  0  0  0  0
  -21.6675  -26.7405   22.1199 H   0  0  0  0  0  0
  -19.6930  -25.6266   21.1245 H   0  0  0  0  0  0
  -19.6695  -27.3167   20.6732 H   0  0  0  0  0  0
  -17.4231  -26.6659   21.3997 H   0  0  0  0  0  0
  -18.0328  -26.0025   22.8981 H   0  0  0  0  0  0
  -19.7956  -30.7269   24.2225 H   0  0  0  0  0  0
  -17.5023  -31.6236   24.5162 H   0  0  0  0  0  0
  -15.5374  -30.2948   23.7630 H   0  0  0  0  0  0
  -15.8702  -28.0795   22.7030 H   0  0  0  0  0  0
  -24.5891  -30.7100   25.7744 H   0  0  0  0  0  0
  -24.8900  -32.2920   26.4780 H   0  0  0  0  0  0
  -25.7999  -30.8957   27.0225 H   0  0  0  0  0  0
  -26.2953  -29.6727   24.1209 H   0  0  0  0  0  0
  -27.4103  -29.7274   25.4675 H   0  0  0  0  0  0
  -27.8818  -30.4309   23.9408 H   0  0  0  0  0  0
  -27.2621  -33.3669   26.1977 H   0  0  0  0  0  0
  -28.3843  -32.6872   25.0286 H   0  0  0  0  0  0
  -28.0696  -31.8530   26.5434 H   0  0  0  0  0  0
  -28.2598  -38.0095   24.7547 H   0  0  0  0  0  0
  -28.1113  -36.2633   24.6292 H   0  0  0  0  0  0
  -27.2339  -37.1462   25.8880 H   0  0  0  0  0  0
  -20.9359  -29.8774   21.6899 H   0  0  0  0  0  0
  -26.0195  -38.2846   24.1374 H   0  0  0  0  0  0
  -26.9521  -21.6107   20.9754 H   0  0  0  0  0  0
  -30.7317  -19.8985   19.8590 H   0  0  0  0  0  0
  -28.5387  -21.4059   17.7617 H   0  0  0  0  0  0
  -28.5286  -23.2285   17.6434 H   0  0  0  0  0  0
  -30.8136  -23.3520   18.4257 H   0  0  0  0  0  0
  -30.9121  -21.5271   18.4524 H   0  0  0  0  0  0
  -25.2691  -20.2945   21.8739 H   0  0  0  0  0  0
  -25.9698  -19.5270   23.2929 H   0  0  0  0  0  0
  -25.4079  -18.5498   21.9185 H   0  0  0  0  0  0
  -27.0818  -17.4018   23.1625 H   0  0  0  0  0  0
  -28.6757  -16.7913   22.8731 H   0  0  0  0  0  0
  -27.3787  -16.4449   21.7141 H   0  0  0  0  0  0
  -29.4876  -22.8920   22.4297 H   0  0  0  0  0  0
  -27.7890  -23.3106   22.1893 H   0  0  0  0  0  0
  -28.9636  -24.5669   22.5051 H   0  0  0  0  0  0
  -31.1169  -17.3693   21.5808 H   0  0  0  0  0  0
  -30.9826  -17.4102   19.8552 H   0  0  0  0  0  0
  -28.1076  -24.9148   18.8041 H   0  0  0  0  0  0
  -27.1043  -24.6495   20.1962 H   0  0  0  0  0  0
  -30.0696  -24.2165   20.4220 H   0  0  0  0  0  0
  -28.9514  -15.6795   21.0034 H   0  0  0  0  0  0
  1 25  1  0  0  0
  1 30  2  0  0  0
  1 86  1  0  0  0
  2  3  1  0  0  0
  2 25  1  0  0  0
  2 87  1  0  0  0
  2 88  1  0  0  0
  3  4  1  0  0  0
  3 89  1  0  0  0
  3 90  1  0  0  0
  4  5  1  0  0  0
  4 91  1  0  0  0
  4 92  1  0  0  0
  5  6  1  0  0  0
  5 26  1  0  0  0
  5 93  1  0  0  0
  6 25  1  0  0  0
  6 94  1  0  0  0
  6 95  1  0  0  0
  7  8  2  0  0  0
  7 26  1  0  0  0
  7 29  1  0  0  0
  8  9  1  0  0  0
  8 22  1  0  0  0
  9 10  1  0  0  0
  9 27  2  0  0  0
 10 11  2  0  0  0
 10 15  1  0  0  0
 11 12  1  0  0  0
 11 96  1  0  0  0
 12 13  2  0  0  0
 12 97  1  0  0  0
 13 14  1  0  0  0
 13 31  1  0  0  0
 14 15  2  0  0  0
 14 98  1  0  0  0
 15 99  1  0  0  0
 16 17  2  0  0  0
 16 21  1  0  0  0
 16 31  1  0  0  0
 17 18  1  0  0  0
 17100  1  0  0  0
 18 19  2  0  0  0
 18101  1  0  0  0
 19 20  1  0  0  0
 19 24  1  0  0  0
 20 21  2  0  0  0
 20102  1  0  0  0
 21 23  1  0  0  0
 22 28  1  0  0  0
 22 32  2  0  0  0
 26 27  1  0  0  0
 28103  1  0  0  0
 28104  1  0  0  0
 29105  1  0  0  0
 29106  1  0  0  0
 33 34  1  0  0  0
 33 66  1  0  0  0
 33 70  2  0  0  0
 34 36  1  0  0  0
 34 59  1  0  0  0
 34107  1  0  0  0
 35 44  2  0  0  0
 35 45  1  0  0  0
 35 68  1  0  0  0
 36 56  1  0  0  0
 36108  1  0  0  0
 37 39  1  0  0  0
 37 47  1  0  0  0
 37 66  1  0  0  0
 37109  1  0  0  0
 38 43  2  0  0  0
 38 46  1  0  0  0
 38 47  1  0  0  0
 39 64  1  0  0  0
 39 67  2  0  0  0
 40 52  1  0  0  0
 40 53  2  0  0  0
 40 58  1  0  0  0
 41110  1  0  0  0
 41111  1  0  0  0
 41112  1  0  0  0
 41 48  1  0  0  0
 42 43  1  0  0  0
 42 66  1  0  0  0
 42113  1  0  0  0
 42114  1  0  0  0
 43 44  1  0  0  0
 44115  1  0  0  0
 45 46  2  0  0  0
 45116  1  0  0  0
 46117  1  0  0  0
 47118  1  0  0  0
 47119  1  0  0  0
 48 56  1  0  0  0
 48 65  1  0  0  0
 48120  1  0  0  0
 49 50  1  0  0  0
 49 53  1  0  0  0
 49 64  1  0  0  0
 49121  1  0  0  0
 50 51  1  0  0  0
 50122  1  0  0  0
 50123  1  0  0  0
 51 52  1  0  0  0
 51124  1  0  0  0
 51125  1  0  0  0
 52126  1  0  0  0
 52127  1  0  0  0
 53 54  1  0  0  0
 54 55  2  0  0  0
 54128  1  0  0  0
 55 57  1  0  0  0
 55129  1  0  0  0
 56 69  2  0  0  0
 57 58  2  0  0  0
 57130  1  0  0  0
 58131  1  0  0  0
 59 60  1  0  0  0
 59 61  1  0  0  0
 59 62  1  0  0  0
 60132  1  0  0  0
 60133  1  0  0  0
 60134  1  0  0  0
 61135  1  0  0  0
 61136  1  0  0  0
 61137  1  0  0  0
 62138  1  0  0  0
 62139  1  0  0  0
 62140  1  0  0  0
 63 65  1  0  0  0
 63141  1  0  0  0
 63142  1  0  0  0
 63143  1  0  0  0
 64144  1  0  0  0
 65145  1  0  0  0
 68 84  1  0  0  0
 71 73  2  0  0  0
 71 74  1  0  0  0
 71146  1  0  0  0
 72 73  1  0  0  0
 72 75  2  0  0  0
 72147  1  0  0  0
 73 79  1  0  0  0
 74 76  2  0  0  0
 74 80  1  0  0  0
 75 76  1  0  0  0
 75 83  1  0  0  0
 76 81  1  0  0  0
 77 78  1  0  0  0
 77 79  1  0  0  0
 77148  1  0  0  0
 77149  1  0  0  0
 78 79  1  0  0  0
 78150  1  0  0  0
 78151  1  0  0  0
 79 85  1  0  0  0
 80152  1  0  0  0
 80153  1  0  0  0
 80154  1  0  0  0
 81155  1  0  0  0
 81156  1  0  0  0
 81157  1  0  0  0
 82158  1  0  0  0
 82159  1  0  0  0
 82160  1  0  0  0
 82 85  1  0  0  0
 83 86  1  0  0  0
 83161  1  0  0  0
 83162  1  0  0  0
 84 85  1  0  0  0
 84163  1  0  0  0
 84164  1  0  0  0
 85165  1  0  0  0
 86166  1  0  0  0
M  ISO  4   1 100  68 101  84 101  86 100
M  END
> <chiral flag>
0

> <version>
0

> <s_m_source_file>
/data/baiqing/PycharmProjects/Reinvent-master-3.2/result/LINK_invent/BTK/process_docking_weight1_custom_sum_contain_oxygen_bond_distance_aromatic_linkinvent_7_9_3/rearranged_h_0163.sdf

> <i_m_source_file_index>
24

> <r_mmod_Potential_Energy-OPLS-2005>
135.976058959961

> <r_mmod_Stretch_Energy-OPLS-2005>
120.236167907715

> <r_mmod_Bend_Energy-OPLS-2005>
166.088500976562

> <r_mmod_Torsional_Energy-OPLS-2005>
252.276321411133

> <r_mmod_Improper_Torsional_Energy-OPLS-2005>
5.46543073654175

> <r_mmod_Van_der_Waal_Energy-OPLS-2005>
151.864868164062

> <r_mmod_Electrostatic_Energy-OPLS-2005>
-433.932495117188

> <r_mmod_Solvation_Energy-OPLS-2005>
-196.26611328125

> <b_mmod_Minimization_Converged-OPLS-2005>
0

> <r_mmod_RMS_Derivative-OPLS-2005>
2.35504937171936

$$$$
24
                    3D
 Structure written by MMmdl.
167177  0  0  1  0            999 V2000
  -30.7025  -14.6982   20.4766 C   0  0  0  0  0  0
  -30.4124  -12.4395   19.4613 C   0  0  0  0  0  0
  -29.4955  -12.4999   18.2241 C   0  0  0  0  0  0
  -28.0233  -12.3375   18.6447 C   0  0  0  0  0  0
  -27.6381  -13.2409   19.8481 C   0  0  2  0  0  0
  -28.6901  -13.1849   20.9758 C   0  0  0  0  0  0
  -25.2501  -13.8232   20.5738 C   0  0  0  0  0  0
  -24.1794  -13.0456   20.9216 C   0  0  0  0  0  0
  -24.6398  -11.6938   20.8757 C   0  0  0  0  0  0
  -23.9083  -10.4303   21.0412 C   0  0  0  0  0  0
  -24.3632   -9.4212   21.9184 C   0  0  0  0  0  0
  -23.6304   -8.2248   22.0756 C   0  0  0  0  0  0
  -22.4283   -8.0288   21.3546 C   0  0  0  0  0  0
  -21.9923   -9.0262   20.4646 C   0  0  0  0  0  0
  -22.7257  -10.2141   20.3057 C   0  0  0  0  0  0
  -21.6854   -6.0740   22.5281 C   0  0  0  0  0  0
  -21.4014   -6.5644   23.8214 C   0  0  0  0  0  0
  -21.3660   -5.6796   24.9176 C   0  0  0  0  0  0
  -21.6045   -4.3057   24.7225 C   0  0  0  0  0  0
  -21.8818   -3.8150   23.4344 C   0  0  0  0  0  0
  -21.9193   -4.6968   22.3400 C   0  0  0  0  0  0
  -22.7810  -13.5223   21.1865 C   0  0  0  0  0  0
  -22.1661   -4.2155   21.0977 F   0  0  0  0  0  0
  -21.5628   -3.4539   25.7736 F   0  0  0  0  0  0
  -29.9821  -13.5280   20.3719 N   0  0  0  0  0  0
  -26.2934  -12.9457   20.3324 N   0  0  0  0  0  0
  -25.9336  -11.6586   20.5783 N   0  0  0  0  0  0
  -22.0464  -12.8204   22.0423 N   0  0  0  0  0  0
  -25.4205  -15.1957   20.4191 N   0  0  0  0  0  0
  -31.9093  -14.6540   20.2187 O   0  0  0  0  0  0
  -21.6644   -6.8886   21.4244 O   0  0  0  0  0  0
  -22.3484  -14.5523   20.6710 O   0  0  0  0  0  0
  -24.6334  -31.8590   23.2061 C   0  0  0  0  0  0
  -25.9167  -32.4771   23.8381 C   0  0  1  0  0  0
  -27.1947  -27.2548   20.1071 C   0  0  0  0  0  0
  -25.5966  -33.8573   24.2293 N   0  0  0  0  0  0
  -23.4278  -30.4909   21.5513 C   0  0  2  0  0  0
  -24.8695  -28.9586   20.1065 C   0  0  0  0  0  0
  -22.7512  -29.4633   22.4919 C   0  0  0  0  0  0
  -18.0296  -28.1389   22.8487 C   0  0  0  0  0  0
  -24.1492  -36.7285   23.2633 C   0  0  0  0  0  0
  -25.9809  -30.7653   21.3956 C   0  0  0  0  0  0
  -26.0471  -29.3935   20.7283 C   0  0  0  0  0  0
  -27.2115  -28.5520   20.7297 C   0  0  0  0  0  0
  -25.9954  -26.9308   19.4171 C   0  0  0  0  0  0
  -24.8499  -27.7333   19.4415 C   0  0  0  0  0  0
  -23.6444  -29.8455   20.1620 C   0  0  0  0  0  0
  -25.4117  -36.3077   24.0326 C   0  0  1  0  0  0
  -20.5905  -28.3706   23.1259 C   0  0  2  0  0  0
  -20.6788  -26.9423   22.5401 C   0  0  0  0  0  0
  -19.5757  -26.6386   21.5212 C   0  0  0  0  0  0
  -18.1939  -26.7931   22.1626 C   0  0  0  0  0  0
  -19.1552  -28.8864   23.2868 C   0  0  0  0  0  0
  -18.9469  -30.1464   23.8888 C   0  0  0  0  0  0
  -17.6466  -30.6588   24.0563 C   0  0  0  0  0  0
  -25.9065  -34.9446   23.5106 C   0  0  0  0  0  0
  -16.5358  -29.9084   23.6332 C   0  0  0  0  0  0
  -16.7283  -28.6501   23.0357 C   0  0  0  0  0  0
  -26.4516  -31.6588   25.0770 C   0  0  0  0  0  0
  -25.3726  -31.3744   26.1479 C   0  0  0  0  0  0
  -27.0365  -30.2995   24.6283 C   0  0  0  0  0  0
  -27.6069  -32.4330   25.7540 C   0  0  0  0  0  0
  -27.5586  -37.1797   24.8459 C   0  0  0  0  0  0
  -21.4220  -29.3059   22.3652 N   0  0  0  0  0  0
  -26.4290  -37.3779   23.9414 N   0  0  0  0  0  0
  -24.6999  -31.0552   22.1058 N   0  0  0  0  0  0
  -23.4215  -28.8145   23.2995 O   0  0  0  0  0  0
  -28.2347  -26.2818   20.1929 O   0  0  0  0  0  0
  -26.5621  -34.8912   22.4665 O   0  0  0  0  0  0
  -23.5482  -32.1423   23.7346 O   0  0  0  0  0  0
  -28.4580  -21.0240   19.4241 C   0  0  0  0  0  0
  -29.3805  -23.1008   21.0497 C   0  0  0  0  0  0
  -29.3371  -20.6457   20.4648 C   0  0  0  0  0  0
  -29.7905  -21.7359   21.2863 C   0  0  0  0  0  0
  -28.0458  -22.3712   19.1966 C   0  0  0  0  0  0
  -28.4979  -23.4720   19.9989 C   0  0  0  0  0  0
  -30.2715  -20.6968   23.6454 C   0  0  0  0  0  0
  -30.5831  -22.1683   23.7653 C   0  0  0  0  0  0
  -28.8917  -18.1171   21.3786 C   0  0  0  0  0  0
  -30.0929  -18.3637   19.3102 C   0  0  0  0  0  0
  -29.4706  -16.6445   21.5752 C   0  0  0  0  0  0
  -30.7555  -16.9575   19.5164 C   0  0  0  0  0  0
  -30.7284  -21.4707   22.4300 C   0  0  0  0  0  0
  -29.8143  -19.1259   20.6268 C   0  0  0  0  0  0
  -27.0553  -22.5928   18.0609 C   0  0  0  0  0  0
  -27.8273  -24.9000   19.7584 C   0  0  0  0  0  0
  -30.0738  -15.9494   20.3952 N   0  0  0  0  0  0
  -31.4547  -12.5264   19.1504 H   0  0  0  0  0  0
  -30.3330  -11.4702   19.9564 H   0  0  0  0  0  0
  -29.7689  -11.7220   17.5097 H   0  0  0  0  0  0
  -29.6301  -13.4525   17.7089 H   0  0  0  0  0  0
  -27.8736  -11.2899   18.9073 H   0  0  0  0  0  0
  -27.3639  -12.5343   17.7986 H   0  0  0  0  0  0
  -27.6298  -14.2626   19.4674 H   0  0  0  0  0  0
  -28.7273  -12.1905   21.4229 H   0  0  0  0  0  0
  -28.4339  -13.8674   21.7840 H   0  0  0  0  0  0
  -25.2778   -9.5684   22.4757 H   0  0  0  0  0  0
  -24.0013   -7.4639   22.7473 H   0  0  0  0  0  0
  -21.0856   -8.8783   19.8947 H   0  0  0  0  0  0
  -22.3718  -10.9680   19.6166 H   0  0  0  0  0  0
  -21.2008   -7.6153   23.9720 H   0  0  0  0  0  0
  -21.1481   -6.0525   25.9080 H   0  0  0  0  0  0
  -22.0595   -2.7612   23.2842 H   0  0  0  0  0  0
  -22.4095  -11.9875   22.4817 H   0  0  0  0  0  0
  -21.1075  -13.1210   22.2628 H   0  0  0  0  0  0
  -24.6598  -15.8546   20.5438 H   0  0  0  0  0  0
  -26.2850  -15.6367   20.1317 H   0  0  0  0  0  0
  -26.7232  -32.5412   23.1118 H   0  0  0  0  0  0
  -25.0120  -33.9716   25.0442 H   0  0  0  0  0  0
  -22.7241  -31.3150   21.4157 H   0  0  0  0  0  0
  -23.3765  -35.9608   23.3275 H   0  0  0  0  0  0
  -24.3587  -36.8928   22.2054 H   0  0  0  0  0  0
  -23.7233  -37.6474   23.6670 H   0  0  0  0  0  0
  -26.1316  -31.5302   20.6325 H   0  0  0  0  0  0
  -26.8546  -30.8023   22.0342 H   0  0  0  0  0  0
  -28.1016  -28.8722   21.2532 H   0  0  0  0  0  0
  -25.8648  -26.0234   18.8498 H   0  0  0  0  0  0
  -23.9561  -27.4031   18.9297 H   0  0  0  0  0  0
  -23.7725  -30.6315   19.4169 H   0  0  0  0  0  0
  -22.7604  -29.2868   19.8492 H   0  0  0  0  0  0
  -25.1295  -36.1924   25.0819 H   0  0  0  0  0  0
  -20.9996  -28.3284   24.1380 H   0  0  0  0  0  0
  -20.5698  -26.2315   23.3607 H   0  0  0  0  0  0
  -21.6652  -26.7454   22.1187 H   0  0  0  0  0  0
  -19.6918  -25.6295   21.1245 H   0  0  0  0  0  0
  -19.6687  -27.3190   20.6736 H   0  0  0  0  0  0
  -17.4208  -26.6680   21.4030 H   0  0  0  0  0  0
  -18.0340  -26.0075   22.9025 H   0  0  0  0  0  0
  -19.7943  -30.7288   24.2253 H   0  0  0  0  0  0
  -17.5018  -31.6266   24.5168 H   0  0  0  0  0  0
  -15.5357  -30.2982   23.7663 H   0  0  0  0  0  0
  -15.8683  -28.0815   22.7080 H   0  0  0  0  0  0
  -24.5914  -30.7077   25.7805 H   0  0  0  0  0  0
  -24.8901  -32.2914   26.4872 H   0  0  0  0  0  0
  -25.8035  -30.8945   27.0275 H   0  0  0  0  0  0
  -26.2964  -29.6742   24.1275 H   0  0  0  0  0  0
  -27.3986  -29.7261   25.4826 H   0  0  0  0  0  0
  -27.8875  -30.4247   23.9584 H   0  0  0  0  0  0
  -27.2678  -33.3636   26.2101 H   0  0  0  0  0  0
  -28.3888  -32.6879   25.0374 H   0  0  0  0  0  0
  -28.0727  -31.8465   26.5469 H   0  0  0  0  0  0
  -28.2580  -38.0118   24.7543 H   0  0  0  0  0  0
  -28.1108  -36.2652   24.6242 H   0  0  0  0  0  0
  -27.2307  -37.1392   25.8861 H   0  0  0  0  0  0
  -20.9401  -29.8802   21.6877 H   0  0  0  0  0  0
  -26.0166  -38.2848   24.1433 H   0  0  0  0  0  0
  -28.0771  -20.2500   18.7734 H   0  0  0  0  0  0
  -29.7336  -23.8805   21.7102 H   0  0  0  0  0  0
  -29.2235  -20.4101   23.7076 H   0  0  0  0  0  0
  -30.9758  -20.0024   24.0993 H   0  0  0  0  0  0
  -31.4915  -22.4337   24.3027 H   0  0  0  0  0  0
  -29.7393  -22.8392   23.9145 H   0  0  0  0  0  0
  -28.6434  -18.5237   22.3588 H   0  0  0  0  0  0
  -27.9409  -18.0509   20.8480 H   0  0  0  0  0  0
  -29.1714  -18.2418   18.7396 H   0  0  0  0  0  0
  -30.7524  -18.9682   18.6856 H   0  0  0  0  0  0
  -28.6754  -16.0256   21.9872 H   0  0  0  0  0  0
  -30.2396  -16.6848   22.3488 H   0  0  0  0  0  0
  -31.7561  -17.1369   19.9158 H   0  0  0  0  0  0
  -30.9056  -16.5098   18.5318 H   0  0  0  0  0  0
  -31.7400  -21.2932   22.0683 H   0  0  0  0  0  0
  -30.7603  -19.1610   21.1667 H   0  0  0  0  0  0
  -26.7217  -21.6505   17.6254 H   0  0  0  0  0  0
  -27.5105  -23.1765   17.2604 H   0  0  0  0  0  0
  -26.1642  -23.1135   18.4120 H   0  0  0  0  0  0
  -26.8415  -24.7049   20.1831 H   0  0  0  0  0  0
  -27.7312  -24.9900   18.6771 H   0  0  0  0  0  0
  1 25  1  0  0  0
  1 30  2  0  0  0
  1 87  1  0  0  0
  2  3  1  0  0  0
  2 25  1  0  0  0
  2 88  1  0  0  0
  2 89  1  0  0  0
  3  4  1  0  0  0
  3 90  1  0  0  0
  3 91  1  0  0  0
  4  5  1  0  0  0
  4 92  1  0  0  0
  4 93  1  0  0  0
  5  6  1  0  0  0
  5 26  1  0  0  0
  5 94  1  0  0  0
  6 25  1  0  0  0
  6 95  1  0  0  0
  6 96  1  0  0  0
  7  8  2  0  0  0
  7 26  1  0  0  0
  7 29  1  0  0  0
  8  9  1  0  0  0
  8 22  1  0  0  0
  9 10  1  0  0  0
  9 27  2  0  0  0
 10 11  2  0  0  0
 10 15  1  0  0  0
 11 12  1  0  0  0
 11 97  1  0  0  0
 12 13  2  0  0  0
 12 98  1  0  0  0
 13 14  1  0  0  0
 13 31  1  0  0  0
 14 15  2  0  0  0
 14 99  1  0  0  0
 15100  1  0  0  0
 16 17  2  0  0  0
 16 21  1  0  0  0
 16 31  1  0  0  0
 17 18  1  0  0  0
 17101  1  0  0  0
 18 19  2  0  0  0
 18102  1  0  0  0
 19 20  1  0  0  0
 19 24  1  0  0  0
 20 21  2  0  0  0
 20103  1  0  0  0
 21 23  1  0  0  0
 22 28  1  0  0  0
 22 32  2  0  0  0
 26 27  1  0  0  0
 28104  1  0  0  0
 28105  1  0  0  0
 29106  1  0  0  0
 29107  1  0  0  0
 33 34  1  0  0  0
 33 66  1  0  0  0
 33 70  2  0  0  0
 34 36  1  0  0  0
 34 59  1  0  0  0
 34108  1  0  0  0
 35 44  2  0  0  0
 35 45  1  0  0  0
 35 68  1  0  0  0
 36 56  1  0  0  0
 36109  1  0  0  0
 37 39  1  0  0  0
 37 47  1  0  0  0
 37 66  1  0  0  0
 37110  1  0  0  0
 38 43  2  0  0  0
 38 46  1  0  0  0
 38 47  1  0  0  0
 39 64  1  0  0  0
 39 67  2  0  0  0
 40 52  1  0  0  0
 40 53  2  0  0  0
 40 58  1  0  0  0
 41111  1  0  0  0
 41112  1  0  0  0
 41113  1  0  0  0
 41 48  1  0  0  0
 42 43  1  0  0  0
 42 66  1  0  0  0
 42114  1  0  0  0
 42115  1  0  0  0
 43 44  1  0  0  0
 44116  1  0  0  0
 45 46  2  0  0  0
 45117  1  0  0  0
 46118  1  0  0  0
 47119  1  0  0  0
 47120  1  0  0  0
 48 56  1  0  0  0
 48 65  1  0  0  0
 48121  1  0  0  0
 49 50  1  0  0  0
 49 53  1  0  0  0
 49 64  1  0  0  0
 49122  1  0  0  0
 50 51  1  0  0  0
 50123  1  0  0  0
 50124  1  0  0  0
 51 52  1  0  0  0
 51125  1  0  0  0
 51126  1  0  0  0
 52127  1  0  0  0
 52128  1  0  0  0
 53 54  1  0  0  0
 54 55  2  0  0  0
 54129  1  0  0  0
 55 57  1  0  0  0
 55130  1  0  0  0
 56 69  2  0  0  0
 57 58  2  0  0  0
 57131  1  0  0  0
 58132  1  0  0  0
 59 60  1  0  0  0
 59 61  1  0  0  0
 59 62  1  0  0  0
 60133  1  0  0  0
 60134  1  0  0  0
 60135  1  0  0  0
 61136  1  0  0  0
 61137  1  0  0  0
 61138  1  0  0  0
 62139  1  0  0  0
 62140  1  0  0  0
 62141  1  0  0  0
 63 65  1  0  0  0
 63142  1  0  0  0
 63143  1  0  0  0
 63144  1  0  0  0
 64145  1  0  0  0
 65146  1  0  0  0
 68 86  1  0  0  0
 71 73  2  0  0  0
 71 75  1  0  0  0
 71147  1  0  0  0
 72 74  2  0  0  0
 72 76  1  0  0  0
 72148  1  0  0  0
 73 74  1  0  0  0
 73 84  1  0  0  0
 74 83  1  0  0  0
 75 76  2  0  0  0
 75 85  1  0  0  0
 76 86  1  0  0  0
 77 78  1  0  0  0
 77 83  1  0  0  0
 77149  1  0  0  0
 77150  1  0  0  0
 78 83  1  0  0  0
 78151  1  0  0  0
 78152  1  0  0  0
 79 81  1  0  0  0
 79 84  1  0  0  0
 79153  1  0  0  0
 79154  1  0  0  0
 80 82  1  0  0  0
 80 84  1  0  0  0
 80155  1  0  0  0
 80156  1  0  0  0
 81 87  1  0  0  0
 81157  1  0  0  0
 81158  1  0  0  0
 82 87  1  0  0  0
 82159  1  0  0  0
 82160  1  0  0  0
 83161  1  0  0  0
 84162  1  0  0  0
 85163  1  0  0  0
 85164  1  0  0  0
 85165  1  0  0  0
 86166  1  0  0  0
 86167  1  0  0  0
M  ISO  4   1 100  68 101  86 101  87 100
M  END
> <chiral flag>
0

> <version>
0

> <s_m_source_file>
/data/baiqing/PycharmProjects/Reinvent-master-3.2/result/LINK_invent/BTK/process_docking_weight1_custom_sum_contain_oxygen_bond_distance_aromatic_linkinvent_7_9_3/rearranged_h_0163.sdf

> <i_m_source_file_index>
25

> <r_mmod_Potential_Energy-OPLS-2005>
482.095001220703

> <r_mmod_Stretch_Energy-OPLS-2005>
115.929901123047

> <r_mmod_Bend_Energy-OPLS-2005>
216.147445678711

> <r_mmod_Torsional_Energy-OPLS-2005>
348.5283203125

> <r_mmod_Improper_Torsional_Energy-OPLS-2005>
18.8619174957275

> <r_mmod_Van_der_Waal_Energy-OPLS-2005>
165.44807434082

> <r_mmod_Electrostatic_Energy-OPLS-2005>
-284.797393798828

> <r_mmod_Solvation_Energy-OPLS-2005>
-191.052886962891

> <b_mmod_Minimization_Converged-OPLS-2005>
0

> <r_mmod_RMS_Derivative-OPLS-2005>
0.435758531093597

$$$$
25
                    3D
 Structure written by MMmdl.
172181  0  0  1  0            999 V2000
  -30.6110  -14.8897   20.4149 C   0  0  0  0  0  0
  -30.4158  -12.5543   19.4789 C   0  0  0  0  0  0
  -29.5005  -12.5209   18.2365 C   0  0  0  0  0  0
  -28.0307  -12.3377   18.6525 C   0  0  0  0  0  0
  -27.6224  -13.2609   19.8318 C   0  0  2  0  0  0
  -28.6705  -13.2914   20.9632 C   0  0  0  0  0  0
  -25.2423  -13.8261   20.5725 C   0  0  0  0  0  0
  -24.1749  -13.0451   20.9233 C   0  0  0  0  0  0
  -24.6396  -11.6950   20.8763 C   0  0  0  0  0  0
  -23.9097  -10.4303   21.0418 C   0  0  0  0  0  0
  -24.3645   -9.4216   21.9194 C   0  0  0  0  0  0
  -23.6315   -8.2248   22.0757 C   0  0  0  0  0  0
  -22.4302   -8.0291   21.3543 C   0  0  0  0  0  0
  -21.9940   -9.0267   20.4646 C   0  0  0  0  0  0
  -22.7268  -10.2146   20.3061 C   0  0  0  0  0  0
  -21.6869   -6.0741   22.5275 C   0  0  0  0  0  0
  -21.4033   -6.5641   23.8208 C   0  0  0  0  0  0
  -21.3660   -5.6790   24.9172 C   0  0  0  0  0  0
  -21.6042   -4.3054   24.7224 C   0  0  0  0  0  0
  -21.8824   -3.8148   23.4348 C   0  0  0  0  0  0
  -21.9204   -4.6966   22.3403 C   0  0  0  0  0  0
  -22.7769  -13.5195   21.1900 C   0  0  0  0  0  0
  -22.1666   -4.2146   21.0983 F   0  0  0  0  0  0
  -21.5633   -3.4532   25.7735 F   0  0  0  0  0  0
  -29.9462  -13.6705   20.3483 N   0  0  0  0  0  0
  -26.2857  -12.9517   20.3262 N   0  0  0  0  0  0
  -25.9328  -11.6630   20.5739 N   0  0  0  0  0  0
  -22.0449  -12.8145   22.0461 N   0  0  0  0  0  0
  -25.4078  -15.1990   20.4171 N   0  0  0  0  0  0
  -31.8212  -14.8633   20.1633 O   0  0  0  0  0  0
  -21.6661   -6.8888   21.4240 O   0  0  0  0  0  0
  -22.3417  -14.5481   20.6750 O   0  0  0  0  0  0
  -24.6422  -31.8451   23.1887 C   0  0  0  0  0  0
  -25.9200  -32.4701   23.8280 C   0  0  1  0  0  0
  -27.2104  -27.1603   20.1542 C   0  0  0  0  0  0
  -25.5951  -33.8505   24.2192 N   0  0  0  0  0  0
  -23.4431  -30.4642   21.5345 C   0  0  2  0  0  0
  -24.8899  -28.8884   20.1145 C   0  0  0  0  0  0
  -22.7553  -29.4552   22.4871 C   0  0  0  0  0  0
  -18.0304  -28.1396   22.8484 C   0  0  0  0  0  0
  -24.1483  -36.7262   23.2644 C   0  0  0  0  0  0
  -25.9969  -30.7284   21.3792 C   0  0  0  0  0  0
  -26.0673  -29.3386   20.7272 C   0  0  0  0  0  0
  -27.2340  -28.4909   20.7251 C   0  0  0  0  0  0
  -26.0092  -26.7940   19.5170 C   0  0  0  0  0  0
  -24.8713  -27.6285   19.4945 C   0  0  0  0  0  0
  -23.6661  -29.7895   20.1551 C   0  0  0  0  0  0
  -25.4114  -36.3033   24.0314 C   0  0  1  0  0  0
  -20.5911  -28.3715   23.1246 C   0  0  2  0  0  0
  -20.6782  -26.9417   22.5413 C   0  0  0  0  0  0
  -19.5754  -26.6382   21.5218 C   0  0  0  0  0  0
  -18.1937  -26.7939   22.1630 C   0  0  0  0  0  0
  -19.1562  -28.8869   23.2860 C   0  0  0  0  0  0
  -18.9479  -30.1473   23.8873 C   0  0  0  0  0  0
  -17.6476  -30.6598   24.0557 C   0  0  0  0  0  0
  -25.9070  -34.9410   23.5061 C   0  0  0  0  0  0
  -16.5362  -29.9089   23.6339 C   0  0  0  0  0  0
  -16.7292  -28.6507   23.0361 C   0  0  0  0  0  0
  -26.4523  -31.6575   25.0721 C   0  0  0  0  0  0
  -25.3718  -31.3760   26.1428 C   0  0  0  0  0  0
  -27.0396  -30.2982   24.6282 C   0  0  0  0  0  0
  -27.6040  -32.4342   25.7526 C   0  0  0  0  0  0
  -27.5565  -37.1786   24.8460 C   0  0  0  0  0  0
  -21.4247  -29.3043   22.3619 N   0  0  0  0  0  0
  -26.4272  -37.3754   23.9412 N   0  0  0  0  0  0
  -24.7147  -31.0329   22.0906 N   0  0  0  0  0  0
  -23.4205  -28.8100   23.3016 O   0  0  0  0  0  0
  -28.2768  -26.2051   20.1442 O   0  0  0  0  0  0
  -26.5659  -34.8905   22.4641 O   0  0  0  0  0  0
  -23.5545  -32.1314   23.7125 O   0  0  0  0  0  0
  -32.4405  -21.9139   20.0383 C   0  0  0  0  0  0
  -30.1284  -20.9996   20.2450 C   0  0  0  0  0  0
  -31.5580  -20.8853   20.3956 C   0  0  0  0  0  0
  -31.9907  -23.0781   19.4340 C   0  0  0  0  0  0
  -29.6499  -22.4189   19.9323 C   0  0  0  0  0  0
  -30.6081  -23.3116   19.3423 C   0  0  0  0  0  0
  -29.6291  -18.5514   19.0530 C   0  0  0  0  0  0
  -29.4165  -18.5130   21.5123 C   0  0  0  0  0  0
  -30.3536  -17.1177   19.2095 C   0  0  0  0  0  0
  -29.1626  -16.9165   21.3106 C   0  0  0  0  0  0
  -29.3564  -19.5294   20.2734 C   0  0  0  0  0  0
  -32.2904  -19.6731   20.9552 C   0  0  0  0  0  0
  -33.0248  -24.0696   18.9111 C   0  0  0  0  0  0
  -30.2005  -24.5549   18.5446 C   0  0  0  0  0  0
  -27.2907  -22.3235   20.9835 C   0  0  0  0  0  0
  -28.1140  -24.7898   20.7413 C   0  0  0  0  0  0
  -28.2330  -23.1996   20.1382 C   0  0  1  0  0  0
  -29.9326  -16.1404   20.2749 N   0  0  0  0  0  0
  -31.4509  -12.6779   19.1591 H   0  0  0  0  0  0
  -30.3809  -11.6030   20.0122 H   0  0  0  0  0  0
  -29.7984  -11.7196   17.5588 H   0  0  0  0  0  0
  -29.6097  -13.4525   17.6783 H   0  0  0  0  0  0
  -27.8949  -11.2929   18.9309 H   0  0  0  0  0  0
  -27.3732  -12.5089   17.7980 H   0  0  0  0  0  0
  -27.5829  -14.2669   19.4108 H   0  0  0  0  0  0
  -28.7419  -12.3245   21.4638 H   0  0  0  0  0  0
  -28.3848  -14.0216   21.7224 H   0  0  0  0  0  0
  -25.2793   -9.5683   22.4763 H   0  0  0  0  0  0
  -24.0033   -7.4632   22.7461 H   0  0  0  0  0  0
  -21.0879   -8.8788   19.8927 H   0  0  0  0  0  0
  -22.3741  -10.9692   19.6165 H   0  0  0  0  0  0
  -21.2020   -7.6148   23.9702 H   0  0  0  0  0  0
  -21.1483   -6.0529   25.9070 H   0  0  0  0  0  0
  -22.0601   -2.7613   23.2847 H   0  0  0  0  0  0
  -22.4103  -11.9817   22.4834 H   0  0  0  0  0  0
  -21.1050  -13.1112   22.2674 H   0  0  0  0  0  0
  -24.6417  -15.8529   20.5362 H   0  0  0  0  0  0
  -26.2631  -15.6445   20.1104 H   0  0  0  0  0  0
  -26.7274  -32.5309   23.1015 H   0  0  0  0  0  0
  -25.0064  -33.9623   25.0318 H   0  0  0  0  0  0
  -22.7453  -31.2898   21.3798 H   0  0  0  0  0  0
  -23.3745  -35.9591   23.3285 H   0  0  0  0  0  0
  -24.3566  -36.8922   22.2064 H   0  0  0  0  0  0
  -23.7233  -37.6447   23.6701 H   0  0  0  0  0  0
  -26.1404  -31.4795   20.6012 H   0  0  0  0  0  0
  -26.8730  -30.7853   22.0148 H   0  0  0  0  0  0
  -28.1393  -28.8331   21.2065 H   0  0  0  0  0  0
  -25.9432  -25.8240   19.0437 H   0  0  0  0  0  0
  -23.9708  -27.2777   19.0091 H   0  0  0  0  0  0
  -23.7977  -30.5607   19.3958 H   0  0  0  0  0  0
  -22.7821  -29.2282   19.8484 H   0  0  0  0  0  0
  -25.1299  -36.1855   25.0803 H   0  0  0  0  0  0
  -21.0014  -28.3309   24.1362 H   0  0  0  0  0  0
  -20.5674  -26.2328   23.3632 H   0  0  0  0  0  0
  -21.6649  -26.7418   22.1212 H   0  0  0  0  0  0
  -19.6913  -25.6291   21.1258 H   0  0  0  0  0  0
  -19.6698  -27.3182   20.6740 H   0  0  0  0  0  0
  -17.4210  -26.6696   21.4029 H   0  0  0  0  0  0
  -18.0324  -26.0083   22.9027 H   0  0  0  0  0  0
  -19.7953  -30.7297   24.2225 H   0  0  0  0  0  0
  -17.5030  -31.6271   24.5180 H   0  0  0  0  0  0
  -15.5365  -30.2987   23.7671 H   0  0  0  0  0  0
  -15.8696  -28.0821   22.7089 H   0  0  0  0  0  0
  -24.5896  -30.7101   25.7762 H   0  0  0  0  0  0
  -24.8911  -32.2945   26.4807 H   0  0  0  0  0  0
  -25.8023  -30.8977   27.0237 H   0  0  0  0  0  0
  -26.3023  -29.6714   24.1261 H   0  0  0  0  0  0
  -27.3994  -29.7266   25.4847 H   0  0  0  0  0  0
  -27.8921  -30.4233   23.9604 H   0  0  0  0  0  0
  -27.2614  -33.3646   26.2068 H   0  0  0  0  0  0
  -28.3893  -32.6907   25.0402 H   0  0  0  0  0  0
  -28.0670  -31.8500   26.5491 H   0  0  0  0  0  0
  -28.2565  -38.0101   24.7517 H   0  0  0  0  0  0
  -28.1080  -36.2630   24.6271 H   0  0  0  0  0  0
  -27.2290  -37.1412   25.8865 H   0  0  0  0  0  0
  -20.9456  -29.8752   21.6796 H   0  0  0  0  0  0
  -26.0131  -38.2807   24.1448 H   0  0  0  0  0  0
  -33.5078  -21.7758   20.1526 H   0  0  0  0  0  0
  -28.6473  -18.3280   18.6308 H   0  0  0  0  0  0
  -30.1255  -19.1104   18.2606 H   0  0  0  0  0  0
  -30.3450  -18.5995   22.0605 H   0  0  0  0  0  0
  -28.6906  -18.8698   22.2432 H   0  0  0  0  0  0
  -31.4331  -17.2441   19.2555 H   0  0  0  0  0  0
  -30.2108  -16.5999   18.2603 H   0  0  0  0  0  0
  -28.1098  -16.7681   21.0725 H   0  0  0  0  0  0
  -29.3053  -16.4241   22.2746 H   0  0  0  0  0  0
  -28.3062  -19.7807   20.1716 H   0  0  0  0  0  0
  -33.3532  -19.6829   20.7072 H   0  0  0  0  0  0
  -31.9213  -18.7357   20.5770 H   0  0  0  0  0  0
  -32.2311  -19.6715   22.0432 H   0  0  0  0  0  0
  -34.0137  -23.8709   19.3252 H   0  0  0  0  0  0
  -32.7700  -25.0961   19.1757 H   0  0  0  0  0  0
  -33.1049  -24.0005   17.8259 H   0  0  0  0  0  0
  -30.7772  -24.6110   17.6205 H   0  0  0  0  0  0
  -30.4068  -25.4638   19.1093 H   0  0  0  0  0  0
  -29.1638  -24.5681   18.2159 H   0  0  0  0  0  0
  -27.0480  -21.3940   20.4782 H   0  0  0  0  0  0
  -26.3310  -22.8091   21.1578 H   0  0  0  0  0  0
  -27.7280  -22.0888   21.9546 H   0  0  0  0  0  0
  -28.7664  -24.8060   21.6157 H   0  0  0  0  0  0
  -27.1209  -24.8513   21.1854 H   0  0  0  0  0  0
  -27.7588  -23.2133   19.1561 H   0  0  0  0  0  0
  1 25  1  0  0  0
  1 30  2  0  0  0
  1 88  1  0  0  0
  2  3  1  0  0  0
  2 25  1  0  0  0
  2 89  1  0  0  0
  2 90  1  0  0  0
  3  4  1  0  0  0
  3 91  1  0  0  0
  3 92  1  0  0  0
  4  5  1  0  0  0
  4 93  1  0  0  0
  4 94  1  0  0  0
  5  6  1  0  0  0
  5 26  1  0  0  0
  5 95  1  0  0  0
  6 25  1  0  0  0
  6 96  1  0  0  0
  6 97  1  0  0  0
  7  8  2  0  0  0
  7 26  1  0  0  0
  7 29  1  0  0  0
  8  9  1  0  0  0
  8 22  1  0  0  0
  9 10  1  0  0  0
  9 27  2  0  0  0
 10 11  2  0  0  0
 10 15  1  0  0  0
 11 12  1  0  0  0
 11 98  1  0  0  0
 12 13  2  0  0  0
 12 99  1  0  0  0
 13 14  1  0  0  0
 13 31  1  0  0  0
 14 15  2  0  0  0
 14100  1  0  0  0
 15101  1  0  0  0
 16 17  2  0  0  0
 16 21  1  0  0  0
 16 31  1  0  0  0
 17 18  1  0  0  0
 17102  1  0  0  0
 18 19  2  0  0  0
 18103  1  0  0  0
 19 20  1  0  0  0
 19 24  1  0  0  0
 20 21  2  0  0  0
 20104  1  0  0  0
 21 23  1  0  0  0
 22 28  1  0  0  0
 22 32  2  0  0  0
 26 27  1  0  0  0
 28105  1  0  0  0
 28106  1  0  0  0
 29107  1  0  0  0
 29108  1  0  0  0
 33 34  1  0  0  0
 33 66  1  0  0  0
 33 70  2  0  0  0
 34 36  1  0  0  0
 34 59  1  0  0  0
 34109  1  0  0  0
 35 44  2  0  0  0
 35 45  1  0  0  0
 35 68  1  0  0  0
 36 56  1  0  0  0
 36110  1  0  0  0
 37 39  1  0  0  0
 37 47  1  0  0  0
 37 66  1  0  0  0
 37111  1  0  0  0
 38 43  2  0  0  0
 38 46  1  0  0  0
 38 47  1  0  0  0
 39 64  1  0  0  0
 39 67  2  0  0  0
 40 52  1  0  0  0
 40 53  2  0  0  0
 40 58  1  0  0  0
 41112  1  0  0  0
 41113  1  0  0  0
 41114  1  0  0  0
 41 48  1  0  0  0
 42 43  1  0  0  0
 42 66  1  0  0  0
 42115  1  0  0  0
 42116  1  0  0  0
 43 44  1  0  0  0
 44117  1  0  0  0
 45 46  2  0  0  0
 45118  1  0  0  0
 46119  1  0  0  0
 47120  1  0  0  0
 47121  1  0  0  0
 48 56  1  0  0  0
 48 65  1  0  0  0
 48122  1  0  0  0
 49 50  1  0  0  0
 49 53  1  0  0  0
 49 64  1  0  0  0
 49123  1  0  0  0
 50 51  1  0  0  0
 50124  1  0  0  0
 50125  1  0  0  0
 51 52  1  0  0  0
 51126  1  0  0  0
 51127  1  0  0  0
 52128  1  0  0  0
 52129  1  0  0  0
 53 54  1  0  0  0
 54 55  2  0  0  0
 54130  1  0  0  0
 55 57  1  0  0  0
 55131  1  0  0  0
 56 69  2  0  0  0
 57 58  2  0  0  0
 57132  1  0  0  0
 58133  1  0  0  0
 59 60  1  0  0  0
 59 61  1  0  0  0
 59 62  1  0  0  0
 60134  1  0  0  0
 60135  1  0  0  0
 60136  1  0  0  0
 61137  1  0  0  0
 61138  1  0  0  0
 61139  1  0  0  0
 62140  1  0  0  0
 62141  1  0  0  0
 62142  1  0  0  0
 63 65  1  0  0  0
 63143  1  0  0  0
 63144  1  0  0  0
 63145  1  0  0  0
 64146  1  0  0  0
 65147  1  0  0  0
 68 86  1  0  0  0
 71 73  2  0  0  0
 71 74  1  0  0  0
 71148  1  0  0  0
 72 73  1  0  0  0
 72 75  2  0  0  0
 72 81  1  0  0  0
 73 82  1  0  0  0
 74 76  2  0  0  0
 74 83  1  0  0  0
 75 76  1  0  0  0
 75 87  1  0  0  0
 76 84  1  0  0  0
 77 79  1  0  0  0
 77 81  1  0  0  0
 77149  1  0  0  0
 77150  1  0  0  0
 78 80  1  0  0  0
 78 81  1  0  0  0
 78151  1  0  0  0
 78152  1  0  0  0
 79 88  1  0  0  0
 79153  1  0  0  0
 79154  1  0  0  0
 80 88  1  0  0  0
 80155  1  0  0  0
 80156  1  0  0  0
 81157  1  0  0  0
 82158  1  0  0  0
 82159  1  0  0  0
 82160  1  0  0  0
 83161  1  0  0  0
 83162  1  0  0  0
 83163  1  0  0  0
 84164  1  0  0  0
 84165  1  0  0  0
 84166  1  0  0  0
 85167  1  0  0  0
 85168  1  0  0  0
 85169  1  0  0  0
 85 87  1  0  0  0
 86 87  1  0  0  0
 86170  1  0  0  0
 86171  1  0  0  0
 87172  1  0  0  0
M  ISO  4   1 100  68 101  86 101  88 100
M  END
> <chiral flag>
0

> <version>
0

> <s_m_source_file>
/data/baiqing/PycharmProjects/Reinvent-master-3.2/result/LINK_invent/BTK/process_docking_weight1_custom_sum_contain_oxygen_bond_distance_aromatic_linkinvent_7_9_3/rearranged_h_0163.sdf

> <i_m_source_file_index>
26

> <r_mmod_Potential_Energy-OPLS-2005>
851.967346191406

> <r_mmod_Stretch_Energy-OPLS-2005>
261.969177246094

> <r_mmod_Bend_Energy-OPLS-2005>
342.007232666016

> <r_mmod_Torsional_Energy-OPLS-2005>
411.192932128906

> <r_mmod_Improper_Torsional_Energy-OPLS-2005>
17.2596702575684

> <r_mmod_Van_der_Waal_Energy-OPLS-2005>
165.996383666992

> <r_mmod_Electrostatic_Energy-OPLS-2005>
-316.666015625

> <r_mmod_Solvation_Energy-OPLS-2005>
-189.671600341797

> <b_mmod_Minimization_Converged-OPLS-2005>
0

> <r_mmod_RMS_Derivative-OPLS-2005>
2.08703684806824

$$$$
26
                    3D
 Structure written by MMmdl.
163172  0  0  1  0            999 V2000
  -30.5117  -15.0395   20.3741 C   0  0  0  0  0  0
  -30.4390  -12.6441   19.5123 C   0  0  0  0  0  0
  -29.5374  -12.5384   18.2660 C   0  0  0  0  0  0
  -28.0674  -12.3050   18.6746 C   0  0  0  0  0  0
  -27.6169  -13.2353   19.8341 C   0  0  2  0  0  0
  -28.6635  -13.3365   20.9600 C   0  0  0  0  0  0
  -25.2500  -13.8194   20.5699 C   0  0  0  0  0  0
  -24.1763  -13.0461   20.9134 C   0  0  0  0  0  0
  -24.6334  -11.6920   20.8723 C   0  0  0  0  0  0
  -23.9027  -10.4301   21.0428 C   0  0  0  0  0  0
  -24.3578   -9.4214   21.9216 C   0  0  0  0  0  0
  -23.6240   -8.2250   22.0803 C   0  0  0  0  0  0
  -22.4236   -8.0267   21.3577 C   0  0  0  0  0  0
  -21.9848   -9.0238   20.4708 C   0  0  0  0  0  0
  -22.7189  -10.2113   20.3110 C   0  0  0  0  0  0
  -21.6815   -6.0739   22.5259 C   0  0  0  0  0  0
  -21.4021   -6.5641   23.8194 C   0  0  0  0  0  0
  -21.3652   -5.6787   24.9139 C   0  0  0  0  0  0
  -21.6011   -4.3037   24.7181 C   0  0  0  0  0  0
  -21.8846   -3.8139   23.4301 C   0  0  0  0  0  0
  -21.9187   -4.6979   22.3375 C   0  0  0  0  0  0
  -22.7820  -13.5297   21.1679 C   0  0  0  0  0  0
  -22.1666   -4.2191   21.0952 F   0  0  0  0  0  0
  -21.5564   -3.4514   25.7696 F   0  0  0  0  0  0
  -29.9169  -13.7716   20.3355 N   0  0  0  0  0  0
  -26.2854  -12.9347   20.3258 N   0  0  0  0  0  0
  -25.9287  -11.6515   20.5798 N   0  0  0  0  0  0
  -22.0442  -12.8405   22.0273 N   0  0  0  0  0  0
  -25.4182  -15.1936   20.4062 N   0  0  0  0  0  0
  -31.7426  -15.0610   20.2885 O   0  0  0  0  0  0
  -21.6607   -6.8869   21.4220 O   0  0  0  0  0  0
  -22.3544  -14.5545   20.6402 O   0  0  0  0  0  0
  -24.6500  -31.8412   23.1843 C   0  0  0  0  0  0
  -25.9282  -32.4665   23.8210 C   0  0  1  0  0  0
  -27.1950  -27.0906   20.1535 C   0  0  0  0  0  0
  -25.6019  -33.8472   24.2152 N   0  0  0  0  0  0
  -23.4512  -30.4646   21.5298 C   0  0  2  0  0  0
  -24.8977  -28.8828   20.1069 C   0  0  0  0  0  0
  -22.7586  -29.4586   22.4801 C   0  0  0  0  0  0
  -18.0315  -28.1436   22.8469 C   0  0  0  0  0  0
  -24.1499  -36.7249   23.2630 C   0  0  0  0  0  0
  -26.0114  -30.7083   21.3776 C   0  0  0  0  0  0
  -26.0803  -29.3150   20.7178 C   0  0  0  0  0  0
  -27.2353  -28.4394   20.7137 C   0  0  0  0  0  0
  -25.9836  -26.7697   19.5099 C   0  0  0  0  0  0
  -24.8642  -27.6280   19.4798 C   0  0  0  0  0  0
  -23.6755  -29.7895   20.1487 C   0  0  0  0  0  0
  -25.4140  -36.3010   24.0283 C   0  0  1  0  0  0
  -20.5940  -28.3787   23.1191 C   0  0  2  0  0  0
  -20.6793  -26.9462   22.5388 C   0  0  0  0  0  0
  -19.5733  -26.6399   21.5224 C   0  0  0  0  0  0
  -18.1930  -26.7977   22.1643 C   0  0  0  0  0  0
  -19.1583  -28.8926   23.2836 C   0  0  0  0  0  0
  -18.9488  -30.1519   23.8871 C   0  0  0  0  0  0
  -17.6485  -30.6613   24.0603 C   0  0  0  0  0  0
  -25.9112  -34.9399   23.5025 C   0  0  0  0  0  0
  -16.5377  -29.9122   23.6345 C   0  0  0  0  0  0
  -16.7314  -28.6552   23.0349 C   0  0  0  0  0  0
  -26.4600  -31.6561   25.0668 C   0  0  0  0  0  0
  -25.3780  -31.3765   26.1347 C   0  0  0  0  0  0
  -27.0412  -30.2919   24.6285 C   0  0  0  0  0  0
  -27.6108  -32.4341   25.7495 C   0  0  0  0  0  0
  -27.5577  -37.1770   24.8463 C   0  0  0  0  0  0
  -21.4287  -29.3120   22.3572 N   0  0  0  0  0  0
  -26.4285  -37.3735   23.9415 N   0  0  0  0  0  0
  -24.7262  -31.0249   22.0870 N   0  0  0  0  0  0
  -23.4237  -28.8096   23.2891 O   0  0  0  0  0  0
  -28.2292  -26.0754   20.1655 O   0  0  0  0  0  0
  -26.5681  -34.8911   22.4596 O   0  0  0  0  0  0
  -23.5619  -32.1302   23.7072 O   0  0  0  0  0  0
  -28.7857  -22.2724   17.4581 C   0  0  0  0  0  0
  -28.7888  -20.5103   19.2643 C   0  0  0  0  0  0
  -28.7006  -20.9246   17.8682 C   0  0  0  0  0  0
  -28.6801  -23.3749   18.3077 C   0  0  0  0  0  0
  -28.5840  -21.7350   20.1423 C   0  0  0  0  0  0
  -28.4657  -23.1896   19.6866 C   0  0  0  0  0  0
  -29.0466  -17.8719   18.3932 C   0  0  0  0  0  0
  -29.3794  -16.4017   18.7351 C   0  0  0  0  0  0
  -29.7911  -17.7842   20.5410 C   0  0  0  0  0  0
  -28.8330  -18.8096   19.6141 C   0  0  2  0  0  0
  -28.3414  -20.0537   16.6515 C   0  0  0  0  0  0
  -28.6608  -24.7440   17.6389 C   0  0  0  0  0  0
  -28.3790  -21.5017   21.6326 C   0  0  0  0  0  0
  -27.9620  -24.5557   20.5164 C   0  0  0  0  0  0
  -29.7370  -16.2414   20.1416 N   0  0  0  0  0  0
  -31.4735  -12.8174   19.2163 H   0  0  0  0  0  0
  -30.4252  -11.7116   20.0845 H   0  0  0  0  0  0
  -29.8971  -11.7404   17.6135 H   0  0  0  0  0  0
  -29.5978  -13.4658   17.6911 H   0  0  0  0  0  0
  -27.9590  -11.2573   18.9671 H   0  0  0  0  0  0
  -27.4170  -12.4459   17.8144 H   0  0  0  0  0  0
  -27.5272  -14.2104   19.3769 H   0  0  0  0  0  0
  -28.7933  -12.3812   21.4663 H   0  0  0  0  0  0
  -28.3456  -14.0545   21.7177 H   0  0  0  0  0  0
  -25.2754   -9.5614   22.4751 H   0  0  0  0  0  0
  -23.9924   -7.4631   22.7546 H   0  0  0  0  0  0
  -21.0761   -8.8745   19.9036 H   0  0  0  0  0  0
  -22.3653  -10.9619   19.6157 H   0  0  0  0  0  0
  -21.2075   -7.6157   23.9703 H   0  0  0  0  0  0
  -21.1416   -6.0504   25.9030 H   0  0  0  0  0  0
  -22.0648   -2.7613   23.2772 H   0  0  0  0  0  0
  -22.4054  -12.0122   22.4800 H   0  0  0  0  0  0
  -21.1121  -13.1563   22.2507 H   0  0  0  0  0  0
  -24.6514  -15.8459   20.5176 H   0  0  0  0  0  0
  -26.2738  -15.6410   20.1034 H   0  0  0  0  0  0
  -26.7342  -32.5247   23.0933 H   0  0  0  0  0  0
  -25.0149  -33.9591   25.0294 H   0  0  0  0  0  0
  -22.7493  -31.2893   21.3705 H   0  0  0  0  0  0
  -23.3762  -35.9573   23.3288 H   0  0  0  0  0  0
  -24.3553  -36.8914   22.2029 H   0  0  0  0  0  0
  -23.7230  -37.6434   23.6695 H   0  0  0  0  0  0
  -26.1621  -31.4572   20.6005 H   0  0  0  0  0  0
  -26.8844  -30.7645   22.0147 H   0  0  0  0  0  0
  -28.1464  -28.7715   21.1927 H   0  0  0  0  0  0
  -25.8775  -25.8027   19.0405 H   0  0  0  0  0  0
  -23.9625  -27.2951   18.9855 H   0  0  0  0  0  0
  -23.8101  -30.5620   19.3911 H   0  0  0  0  0  0
  -22.7848  -29.2369   19.8348 H   0  0  0  0  0  0
  -25.1323  -36.1824   25.0755 H   0  0  0  0  0  0
  -21.0035  -28.3404   24.1323 H   0  0  0  0  0  0
  -20.5693  -26.2419   23.3679 H   0  0  0  0  0  0
  -21.6644  -26.7435   22.1180 H   0  0  0  0  0  0
  -19.6886  -25.6311   21.1261 H   0  0  0  0  0  0
  -19.6665  -27.3194   20.6735 H   0  0  0  0  0  0
  -17.4193  -26.6751   21.4091 H   0  0  0  0  0  0
  -18.0347  -26.0148   22.9051 H   0  0  0  0  0  0
  -19.7969  -30.7365   24.2210 H   0  0  0  0  0  0
  -17.5033  -31.6294   24.5227 H   0  0  0  0  0  0
  -15.5396  -30.2988   23.7689 H   0  0  0  0  0  0
  -15.8729  -28.0842   22.7055 H   0  0  0  0  0  0
  -24.6008  -30.7067   25.7675 H   0  0  0  0  0  0
  -24.8928  -32.2934   26.4666 H   0  0  0  0  0  0
  -25.8055  -30.9015   27.0182 H   0  0  0  0  0  0
  -26.2987  -29.6650   24.1319 H   0  0  0  0  0  0
  -27.3985  -29.7215   25.4875 H   0  0  0  0  0  0
  -27.8945  -30.4068   23.9599 H   0  0  0  0  0  0
  -27.2694  -33.3684   26.1966 H   0  0  0  0  0  0
  -28.4009  -32.6836   25.0410 H   0  0  0  0  0  0
  -28.0695  -31.8536   26.5513 H   0  0  0  0  0  0
  -28.2580  -38.0086   24.7510 H   0  0  0  0  0  0
  -28.1084  -36.2592   24.6303 H   0  0  0  0  0  0
  -27.2279  -37.1432   25.8867 H   0  0  0  0  0  0
  -20.9509  -29.8858   21.6770 H   0  0  0  0  0  0
  -26.0151  -38.2801   24.1448 H   0  0  0  0  0  0
  -28.8204  -22.4793   16.3960 H   0  0  0  0  0  0
  -28.1690  -17.8076   17.7564 H   0  0  0  0  0  0
  -29.9071  -18.2315   17.8232 H   0  0  0  0  0  0
  -28.5476  -15.7517   18.4732 H   0  0  0  0  0  0
  -30.2057  -16.0832   18.0859 H   0  0  0  0  0  0
  -30.8295  -18.1231   20.4865 H   0  0  0  0  0  0
  -29.5109  -17.8838   21.5903 H   0  0  0  0  0  0
  -27.8197  -18.6231   19.9678 H   0  0  0  0  0  0
  -28.0534  -20.6395   15.7736 H   0  0  0  0  0  0
  -27.4309  -19.4778   16.8265 H   0  0  0  0  0  0
  -29.1659  -19.4340   16.2987 H   0  0  0  0  0  0
  -27.6771  -25.2061   17.7269 H   0  0  0  0  0  0
  -28.8659  -24.6749   16.5695 H   0  0  0  0  0  0
  -29.4217  -25.3986   18.0689 H   0  0  0  0  0  0
  -27.3806  -21.8286   21.9357 H   0  0  0  0  0  0
  -29.0989  -22.0842   22.2116 H   0  0  0  0  0  0
  -28.4872  -20.4525   21.9078 H   0  0  0  0  0  0
  -28.3050  -24.4403   21.5430 H   0  0  0  0  0  0
  -26.8802  -24.4349   20.5799 H   0  0  0  0  0  0
  1 25  1  0  0  0
  1 30  2  0  0  0
  1 85  1  0  0  0
  2  3  1  0  0  0
  2 25  1  0  0  0
  2 86  1  0  0  0
  2 87  1  0  0  0
  3  4  1  0  0  0
  3 88  1  0  0  0
  3 89  1  0  0  0
  4  5  1  0  0  0
  4 90  1  0  0  0
  4 91  1  0  0  0
  5  6  1  0  0  0
  5 26  1  0  0  0
  5 92  1  0  0  0
  6 25  1  0  0  0
  6 93  1  0  0  0
  6 94  1  0  0  0
  7  8  2  0  0  0
  7 26  1  0  0  0
  7 29  1  0  0  0
  8  9  1  0  0  0
  8 22  1  0  0  0
  9 10  1  0  0  0
  9 27  2  0  0  0
 10 11  2  0  0  0
 10 15  1  0  0  0
 11 12  1  0  0  0
 11 95  1  0  0  0
 12 13  2  0  0  0
 12 96  1  0  0  0
 13 14  1  0  0  0
 13 31  1  0  0  0
 14 15  2  0  0  0
 14 97  1  0  0  0
 15 98  1  0  0  0
 16 17  2  0  0  0
 16 21  1  0  0  0
 16 31  1  0  0  0
 17 18  1  0  0  0
 17 99  1  0  0  0
 18 19  2  0  0  0
 18100  1  0  0  0
 19 20  1  0  0  0
 19 24  1  0  0  0
 20 21  2  0  0  0
 20101  1  0  0  0
 21 23  1  0  0  0
 22 28  1  0  0  0
 22 32  2  0  0  0
 26 27  1  0  0  0
 28102  1  0  0  0
 28103  1  0  0  0
 29104  1  0  0  0
 29105  1  0  0  0
 33 34  1  0  0  0
 33 66  1  0  0  0
 33 70  2  0  0  0
 34 36  1  0  0  0
 34 59  1  0  0  0
 34106  1  0  0  0
 35 44  2  0  0  0
 35 45  1  0  0  0
 35 68  1  0  0  0
 36 56  1  0  0  0
 36107  1  0  0  0
 37 39  1  0  0  0
 37 47  1  0  0  0
 37 66  1  0  0  0
 37108  1  0  0  0
 38 43  2  0  0  0
 38 46  1  0  0  0
 38 47  1  0  0  0
 39 64  1  0  0  0
 39 67  2  0  0  0
 40 52  1  0  0  0
 40 53  2  0  0  0
 40 58  1  0  0  0
 41109  1  0  0  0
 41110  1  0  0  0
 41111  1  0  0  0
 41 48  1  0  0  0
 42 43  1  0  0  0
 42 66  1  0  0  0
 42112  1  0  0  0
 42113  1  0  0  0
 43 44  1  0  0  0
 44114  1  0  0  0
 45 46  2  0  0  0
 45115  1  0  0  0
 46116  1  0  0  0
 47117  1  0  0  0
 47118  1  0  0  0
 48 56  1  0  0  0
 48 65  1  0  0  0
 48119  1  0  0  0
 49 50  1  0  0  0
 49 53  1  0  0  0
 49 64  1  0  0  0
 49120  1  0  0  0
 50 51  1  0  0  0
 50121  1  0  0  0
 50122  1  0  0  0
 51 52  1  0  0  0
 51123  1  0  0  0
 51124  1  0  0  0
 52125  1  0  0  0
 52126  1  0  0  0
 53 54  1  0  0  0
 54 55  2  0  0  0
 54127  1  0  0  0
 55 57  1  0  0  0
 55128  1  0  0  0
 56 69  2  0  0  0
 57 58  2  0  0  0
 57129  1  0  0  0
 58130  1  0  0  0
 59 60  1  0  0  0
 59 61  1  0  0  0
 59 62  1  0  0  0
 60131  1  0  0  0
 60132  1  0  0  0
 60133  1  0  0  0
 61134  1  0  0  0
 61135  1  0  0  0
 61136  1  0  0  0
 62137  1  0  0  0
 62138  1  0  0  0
 62139  1  0  0  0
 63 65  1  0  0  0
 63140  1  0  0  0
 63141  1  0  0  0
 63142  1  0  0  0
 64143  1  0  0  0
 65144  1  0  0  0
 68 84  1  0  0  0
 71 73  2  0  0  0
 71 74  1  0  0  0
 71145  1  0  0  0
 72 73  1  0  0  0
 72 75  2  0  0  0
 72 80  1  0  0  0
 73 81  1  0  0  0
 74 76  2  0  0  0
 74 82  1  0  0  0
 75 76  1  0  0  0
 75 83  1  0  0  0
 76 84  1  0  0  0
 77 78  1  0  0  0
 77 80  1  0  0  0
 77146  1  0  0  0
 77147  1  0  0  0
 78 85  1  0  0  0
 78148  1  0  0  0
 78149  1  0  0  0
 79 80  1  0  0  0
 79 85  1  0  0  0
 79150  1  0  0  0
 79151  1  0  0  0
 80152  1  0  0  0
 81153  1  0  0  0
 81154  1  0  0  0
 81155  1  0  0  0
 82156  1  0  0  0
 82157  1  0  0  0
 82158  1  0  0  0
 83159  1  0  0  0
 83160  1  0  0  0
 83161  1  0  0  0
 84162  1  0  0  0
 84163  1  0  0  0
M  ISO  4   1 100  68 101  84 101  85 100
M  END
> <chiral flag>
0

> <version>
0

> <s_m_source_file>
/data/baiqing/PycharmProjects/Reinvent-master-3.2/result/LINK_invent/BTK/process_docking_weight1_custom_sum_contain_oxygen_bond_distance_aromatic_linkinvent_7_9_3/rearranged_h_0163.sdf

> <i_m_source_file_index>
27

> <r_mmod_Potential_Energy-OPLS-2005>
1077.00073242188

> <r_mmod_Stretch_Energy-OPLS-2005>
366.999114990234

> <r_mmod_Bend_Energy-OPLS-2005>
391.918701171875

> <r_mmod_Torsional_Energy-OPLS-2005>
389.960662841797

> <r_mmod_Improper_Torsional_Energy-OPLS-2005>
17.2890663146973

> <r_mmod_Van_der_Waal_Energy-OPLS-2005>
152.272644042969

> <r_mmod_Electrostatic_Energy-OPLS-2005>
-298.885894775391

> <r_mmod_Solvation_Energy-OPLS-2005>
-196.723907470703

> <b_mmod_Minimization_Converged-OPLS-2005>
0

> <r_mmod_RMS_Derivative-OPLS-2005>
8.26584434509277

$$$$
27
                    3D
 Structure written by MMmdl.
167177  0  0  1  0            999 V2000
  -30.5890  -14.7498   20.4326 C   0  0  0  0  0  0
  -30.4318  -12.4480   19.4845 C   0  0  0  0  0  0
  -29.5085  -12.4923   18.2462 C   0  0  0  0  0  0
  -28.0374  -12.3120   18.6644 C   0  0  0  0  0  0
  -27.6409  -13.2247   19.8543 C   0  0  2  0  0  0
  -28.6825  -13.1613   20.9933 C   0  0  0  0  0  0
  -25.2498  -13.8184   20.5687 C   0  0  0  0  0  0
  -24.1779  -13.0436   20.9214 C   0  0  0  0  0  0
  -24.6361  -11.6915   20.8754 C   0  0  0  0  0  0
  -23.9036  -10.4288   21.0407 C   0  0  0  0  0  0
  -24.3595   -9.4210   21.9186 C   0  0  0  0  0  0
  -23.6279   -8.2241   22.0751 C   0  0  0  0  0  0
  -22.4263   -8.0268   21.3537 C   0  0  0  0  0  0
  -21.9899   -9.0240   20.4639 C   0  0  0  0  0  0
  -22.7217  -10.2128   20.3052 C   0  0  0  0  0  0
  -21.6846   -6.0723   22.5274 C   0  0  0  0  0  0
  -21.4004   -6.5630   23.8208 C   0  0  0  0  0  0
  -21.3661   -5.6783   24.9170 C   0  0  0  0  0  0
  -21.6046   -4.3043   24.7224 C   0  0  0  0  0  0
  -21.8823   -3.8143   23.4346 C   0  0  0  0  0  0
  -21.9190   -4.6953   22.3396 C   0  0  0  0  0  0
  -22.7803  -13.5226   21.1877 C   0  0  0  0  0  0
  -22.1661   -4.2137   21.0973 F   0  0  0  0  0  0
  -21.5636   -3.4534   25.7744 F   0  0  0  0  0  0
  -29.9853  -13.5122   20.4141 N   0  0  0  0  0  0
  -26.2913  -12.9373   20.3303 N   0  0  0  0  0  0
  -25.9290  -11.6525   20.5780 N   0  0  0  0  0  0
  -22.0455  -12.8207   22.0434 N   0  0  0  0  0  0
  -25.4214  -15.1900   20.4090 N   0  0  0  0  0  0
  -31.7687  -14.8586   20.0880 O   0  0  0  0  0  0
  -21.6628   -6.8867   21.4235 O   0  0  0  0  0  0
  -22.3491  -14.5530   20.6721 O   0  0  0  0  0  0
  -24.6250  -31.8529   23.1946 C   0  0  0  0  0  0
  -25.9084  -32.4732   23.8296 C   0  0  1  0  0  0
  -27.2427  -27.2827   20.1291 C   0  0  0  0  0  0
  -25.5875  -33.8532   24.2217 N   0  0  0  0  0  0
  -23.4231  -30.4665   21.5358 C   0  0  2  0  0  0
  -24.8754  -28.9013   20.1110 C   0  0  0  0  0  0
  -22.7478  -29.4565   22.4933 C   0  0  0  0  0  0
  -18.0275  -28.1376   22.8465 C   0  0  0  0  0  0
  -24.1475  -36.7277   23.2643 C   0  0  0  0  0  0
  -25.9616  -30.7719   21.3670 C   0  0  0  0  0  0
  -26.0379  -29.3913   20.7167 C   0  0  0  0  0  0
  -27.2189  -28.5915   20.7121 C   0  0  0  0  0  0
  -26.0595  -26.8379   19.5078 C   0  0  0  0  0  0
  -24.8898  -27.6343   19.4959 C   0  0  0  0  0  0
  -23.6408  -29.7823   20.1569 C   0  0  0  0  0  0
  -25.4105  -36.3043   24.0306 C   0  0  1  0  0  0
  -20.5873  -28.3683   23.1285 C   0  0  2  0  0  0
  -20.6752  -26.9402   22.5405 C   0  0  0  0  0  0
  -19.5738  -26.6375   21.5191 C   0  0  0  0  0  0
  -18.1921  -26.7909   22.1610 C   0  0  0  0  0  0
  -19.1528  -28.8844   23.2857 C   0  0  0  0  0  0
  -18.9466  -30.1443   23.8874 C   0  0  0  0  0  0
  -17.6471  -30.6582   24.0549 C   0  0  0  0  0  0
  -25.9043  -34.9419   23.5080 C   0  0  0  0  0  0
  -16.5355  -29.9074   23.6333 C   0  0  0  0  0  0
  -16.7266  -28.6492   23.0347 C   0  0  0  0  0  0
  -26.4489  -31.6575   25.0684 C   0  0  0  0  0  0
  -25.3723  -31.3681   26.1406 C   0  0  0  0  0  0
  -27.0392  -30.3021   24.6145 C   0  0  0  0  0  0
  -27.6012  -32.4356   25.7479 C   0  0  0  0  0  0
  -27.5562  -37.1772   24.8460 C   0  0  0  0  0  0
  -21.4188  -29.3024   22.3687 N   0  0  0  0  0  0
  -26.4271  -37.3749   23.9405 N   0  0  0  0  0  0
  -24.6887  -31.0495   22.0899 N   0  0  0  0  0  0
  -23.4193  -28.8125   23.3035 O   0  0  0  0  0  0
  -28.4124  -26.5065   20.1923 O   0  0  0  0  0  0
  -26.5665  -34.8907   22.4679 O   0  0  0  0  0  0
  -23.5409  -32.1344   23.7260 O   0  0  0  0  0  0
  -29.2762  -21.1741   22.0983 C   0  0  0  0  0  0
  -29.1608  -19.8398   20.0921 C   0  0  0  0  0  0
  -28.9583  -21.1325   20.7275 C   0  0  0  0  0  0
  -29.7524  -20.0533   22.8138 C   0  0  0  0  0  0
  -29.6555  -18.6509   20.7796 C   0  0  0  0  0  0
  -29.9572  -18.8036   22.1614 C   0  0  0  0  0  0
  -29.1294  -19.7417   25.3527 C   0  0  0  0  0  0
  -29.3180  -21.2255   25.1558 C   0  0  0  0  0  0
  -29.0525  -22.9569   18.7522 C   0  0  0  0  0  0
  -28.6160  -24.4432   18.5388 C   0  0  0  0  0  0
  -28.1150  -23.8286   20.8349 C   0  0  0  0  0  0
  -28.3559  -22.4486   20.0344 C   0  0  2  0  0  0
  -30.0671  -20.2436   24.2771 C   0  0  0  0  0  0
  -28.6100  -25.0414   19.9492 C   0  0  2  0  0  0
  -30.5452  -17.6325   22.9435 C   0  0  0  0  0  0
  -29.9878  -17.2813   20.0166 C   0  0  0  0  0  0
  -29.7889  -15.8733   20.5933 N   0  0  0  0  0  0
  -31.4724  -12.5728   19.1803 H   0  0  0  0  0  0
  -30.3790  -11.4740   19.9725 H   0  0  0  0  0  0
  -29.7909  -11.7137   17.5366 H   0  0  0  0  0  0
  -29.6289  -13.4434   17.7253 H   0  0  0  0  0  0
  -27.9092  -11.2667   18.9488 H   0  0  0  0  0  0
  -27.3735  -12.4769   17.8160 H   0  0  0  0  0  0
  -27.6353  -14.2414   19.4633 H   0  0  0  0  0  0
  -28.7171  -12.1634   21.4323 H   0  0  0  0  0  0
  -28.4159  -13.8416   21.8031 H   0  0  0  0  0  0
  -25.2733   -9.5690   22.4774 H   0  0  0  0  0  0
  -23.9984   -7.4636   22.7467 H   0  0  0  0  0  0
  -21.0842   -8.8758   19.8940 H   0  0  0  0  0  0
  -22.3671  -10.9668   19.6171 H   0  0  0  0  0  0
  -21.1987   -7.6138   23.9709 H   0  0  0  0  0  0
  -21.1481   -6.0509   25.9070 H   0  0  0  0  0  0
  -22.0601   -2.7603   23.2849 H   0  0  0  0  0  0
  -22.4070  -11.9862   22.4807 H   0  0  0  0  0  0
  -21.1084  -13.1244   22.2666 H   0  0  0  0  0  0
  -24.6540  -15.8455   20.5060 H   0  0  0  0  0  0
  -26.2694  -15.6275   20.0742 H   0  0  0  0  0  0
  -26.7138  -32.5403   23.1035 H   0  0  0  0  0  0
  -24.9944  -33.9654   25.0306 H   0  0  0  0  0  0
  -22.7148  -31.2833   21.3796 H   0  0  0  0  0  0
  -23.3718  -35.9624   23.3299 H   0  0  0  0  0  0
  -24.3552  -36.8942   22.2057 H   0  0  0  0  0  0
  -23.7259  -37.6464   23.6728 H   0  0  0  0  0  0
  -26.0867  -31.5280   20.5908 H   0  0  0  0  0  0
  -26.8444  -30.8350   21.9920 H   0  0  0  0  0  0
  -28.1141  -28.9603   21.1930 H   0  0  0  0  0  0
  -26.0269  -25.8654   19.0398 H   0  0  0  0  0  0
  -23.9982  -27.2554   19.0165 H   0  0  0  0  0  0
  -23.7559  -30.5464   19.3888 H   0  0  0  0  0  0
  -22.7632  -29.2023   19.8653 H   0  0  0  0  0  0
  -25.1284  -36.1870   25.0790 H   0  0  0  0  0  0
  -20.9947  -28.3261   24.1418 H   0  0  0  0  0  0
  -20.5652  -26.2283   23.3600 H   0  0  0  0  0  0
  -21.6620  -26.7422   22.1213 H   0  0  0  0  0  0
  -19.6914  -25.6291   21.1221 H   0  0  0  0  0  0
  -19.6677  -27.3163   20.6707 H   0  0  0  0  0  0
  -17.4183  -26.6637   21.4023 H   0  0  0  0  0  0
  -18.0325  -26.0053   22.9015 H   0  0  0  0  0  0
  -19.7950  -30.7231   24.2263 H   0  0  0  0  0  0
  -17.5039  -31.6270   24.5147 H   0  0  0  0  0  0
  -15.5357  -30.2973   23.7693 H   0  0  0  0  0  0
  -15.8664  -28.0823   22.7086 H   0  0  0  0  0  0
  -24.5887  -30.7064   25.7712 H   0  0  0  0  0  0
  -24.8913  -32.2821   26.4888 H   0  0  0  0  0  0
  -25.8025  -30.8802   27.0161 H   0  0  0  0  0  0
  -26.3004  -29.6694   24.1208 H   0  0  0  0  0  0
  -27.4169  -29.7334   25.4648 H   0  0  0  0  0  0
  -27.8813  -30.4333   23.9347 H   0  0  0  0  0  0
  -27.2604  -33.3675   26.2014 H   0  0  0  0  0  0
  -28.3854  -32.6905   25.0339 H   0  0  0  0  0  0
  -28.0659  -31.8525   26.5435 H   0  0  0  0  0  0
  -28.2541  -38.0105   24.7535 H   0  0  0  0  0  0
  -28.1104  -36.2623   24.6277 H   0  0  0  0  0  0
  -27.2272  -37.1404   25.8862 H   0  0  0  0  0  0
  -20.9406  -29.8753   21.6883 H   0  0  0  0  0  0
  -26.0130  -38.2806   24.1448 H   0  0  0  0  0  0
  -29.1525  -22.0926   22.6445 H   0  0  0  0  0  0
  -28.9433  -19.7593   19.0348 H   0  0  0  0  0  0
  -28.1722  -19.3227   25.0473 H   0  0  0  0  0  0
  -29.5639  -19.3122   26.2528 H   0  0  0  0  0  0
  -29.8927  -21.7581   25.9113 H   0  0  0  0  0  0
  -28.4679  -21.7701   24.7500 H   0  0  0  0  0  0
  -30.1329  -22.9237   18.9009 H   0  0  0  0  0  0
  -28.8306  -22.3318   17.8866 H   0  0  0  0  0  0
  -27.6204  -24.4906   18.0974 H   0  0  0  0  0  0
  -29.2985  -24.9748   17.8739 H   0  0  0  0  0  0
  -28.6359  -23.8808   21.7874 H   0  0  0  0  0  0
  -27.0547  -23.9406   21.0635 H   0  0  0  0  0  0
  -27.3623  -22.1272   19.7177 H   0  0  0  0  0  0
  -31.1378  -20.1536   24.4539 H   0  0  0  0  0  0
  -29.6777  -25.0322   20.1784 H   0  0  0  0  0  0
  -30.9847  -17.9154   23.8977 H   0  0  0  0  0  0
  -31.3475  -17.1597   22.3770 H   0  0  0  0  0  0
  -29.7750  -16.8883   23.1454 H   0  0  0  0  0  0
  -31.0307  -17.3672   19.7077 H   0  0  0  0  0  0
  -29.4255  -17.3015   19.0824 H   0  0  0  0  0  0
  -28.8542  -15.6842   20.9219 H   0  0  0  0  0  0
  1 25  1  0  0  0
  1 30  2  0  0  0
  1 87  1  0  0  0
  2  3  1  0  0  0
  2 25  1  0  0  0
  2 88  1  0  0  0
  2 89  1  0  0  0
  3  4  1  0  0  0
  3 90  1  0  0  0
  3 91  1  0  0  0
  4  5  1  0  0  0
  4 92  1  0  0  0
  4 93  1  0  0  0
  5  6  1  0  0  0
  5 26  1  0  0  0
  5 94  1  0  0  0
  6 25  1  0  0  0
  6 95  1  0  0  0
  6 96  1  0  0  0
  7  8  2  0  0  0
  7 26  1  0  0  0
  7 29  1  0  0  0
  8  9  1  0  0  0
  8 22  1  0  0  0
  9 10  1  0  0  0
  9 27  2  0  0  0
 10 11  2  0  0  0
 10 15  1  0  0  0
 11 12  1  0  0  0
 11 97  1  0  0  0
 12 13  2  0  0  0
 12 98  1  0  0  0
 13 14  1  0  0  0
 13 31  1  0  0  0
 14 15  2  0  0  0
 14 99  1  0  0  0
 15100  1  0  0  0
 16 17  2  0  0  0
 16 21  1  0  0  0
 16 31  1  0  0  0
 17 18  1  0  0  0
 17101  1  0  0  0
 18 19  2  0  0  0
 18102  1  0  0  0
 19 20  1  0  0  0
 19 24  1  0  0  0
 20 21  2  0  0  0
 20103  1  0  0  0
 21 23  1  0  0  0
 22 28  1  0  0  0
 22 32  2  0  0  0
 26 27  1  0  0  0
 28104  1  0  0  0
 28105  1  0  0  0
 29106  1  0  0  0
 29107  1  0  0  0
 33 34  1  0  0  0
 33 66  1  0  0  0
 33 70  2  0  0  0
 34 36  1  0  0  0
 34 59  1  0  0  0
 34108  1  0  0  0
 35 44  2  0  0  0
 35 45  1  0  0  0
 35 68  1  0  0  0
 36 56  1  0  0  0
 36109  1  0  0  0
 37 39  1  0  0  0
 37 47  1  0  0  0
 37 66  1  0  0  0
 37110  1  0  0  0
 38 43  2  0  0  0
 38 46  1  0  0  0
 38 47  1  0  0  0
 39 64  1  0  0  0
 39 67  2  0  0  0
 40 52  1  0  0  0
 40 53  2  0  0  0
 40 58  1  0  0  0
 41111  1  0  0  0
 41112  1  0  0  0
 41113  1  0  0  0
 41 48  1  0  0  0
 42 43  1  0  0  0
 42 66  1  0  0  0
 42114  1  0  0  0
 42115  1  0  0  0
 43 44  1  0  0  0
 44116  1  0  0  0
 45 46  2  0  0  0
 45117  1  0  0  0
 46118  1  0  0  0
 47119  1  0  0  0
 47120  1  0  0  0
 48 56  1  0  0  0
 48 65  1  0  0  0
 48121  1  0  0  0
 49 50  1  0  0  0
 49 53  1  0  0  0
 49 64  1  0  0  0
 49122  1  0  0  0
 50 51  1  0  0  0
 50123  1  0  0  0
 50124  1  0  0  0
 51 52  1  0  0  0
 51125  1  0  0  0
 51126  1  0  0  0
 52127  1  0  0  0
 52128  1  0  0  0
 53 54  1  0  0  0
 54 55  2  0  0  0
 54129  1  0  0  0
 55 57  1  0  0  0
 55130  1  0  0  0
 56 69  2  0  0  0
 57 58  2  0  0  0
 57131  1  0  0  0
 58132  1  0  0  0
 59 60  1  0  0  0
 59 61  1  0  0  0
 59 62  1  0  0  0
 60133  1  0  0  0
 60134  1  0  0  0
 60135  1  0  0  0
 61136  1  0  0  0
 61137  1  0  0  0
 61138  1  0  0  0
 62139  1  0  0  0
 62140  1  0  0  0
 62141  1  0  0  0
 63 65  1  0  0  0
 63142  1  0  0  0
 63143  1  0  0  0
 63144  1  0  0  0
 64145  1  0  0  0
 65146  1  0  0  0
 68 84  1  0  0  0
 71 73  2  0  0  0
 71 74  1  0  0  0
 71147  1  0  0  0
 72 73  1  0  0  0
 72 75  2  0  0  0
 72148  1  0  0  0
 73 82  1  0  0  0
 74 76  2  0  0  0
 74 83  1  0  0  0
 75 76  1  0  0  0
 75 86  1  0  0  0
 76 85  1  0  0  0
 77 78  1  0  0  0
 77 83  1  0  0  0
 77149  1  0  0  0
 77150  1  0  0  0
 78 83  1  0  0  0
 78151  1  0  0  0
 78152  1  0  0  0
 79 80  1  0  0  0
 79 82  1  0  0  0
 79153  1  0  0  0
 79154  1  0  0  0
 80 84  1  0  0  0
 80155  1  0  0  0
 80156  1  0  0  0
 81 82  1  0  0  0
 81 84  1  0  0  0
 81157  1  0  0  0
 81158  1  0  0  0
 82159  1  0  0  0
 83160  1  0  0  0
 84161  1  0  0  0
 85162  1  0  0  0
 85163  1  0  0  0
 85164  1  0  0  0
 86 87  1  0  0  0
 86165  1  0  0  0
 86166  1  0  0  0
 87167  1  0  0  0
M  ISO  4   1 100  68 101  84 101  87 100
M  END
> <chiral flag>
0

> <version>
0

> <s_m_source_file>
/data/baiqing/PycharmProjects/Reinvent-master-3.2/result/LINK_invent/BTK/process_docking_weight1_custom_sum_contain_oxygen_bond_distance_aromatic_linkinvent_7_9_3/rearranged_h_0163.sdf

> <i_m_source_file_index>
28

> <r_mmod_Potential_Energy-OPLS-2005>
227.735717773438

> <r_mmod_Stretch_Energy-OPLS-2005>
119.157409667969

> <r_mmod_Bend_Energy-OPLS-2005>
253.584533691406

> <r_mmod_Torsional_Energy-OPLS-2005>
270.917175292969

> <r_mmod_Improper_Torsional_Energy-OPLS-2005>
7.19360399246216

> <r_mmod_Van_der_Waal_Energy-OPLS-2005>
135.558975219727

> <r_mmod_Electrostatic_Energy-OPLS-2005>
-433.490966796875

> <r_mmod_Solvation_Energy-OPLS-2005>
-202.223922729492

> <b_mmod_Minimization_Converged-OPLS-2005>
0

> <r_mmod_RMS_Derivative-OPLS-2005>
2.32111072540283

$$$$
28
                    3D
 Structure written by MMmdl.
176186  0  0  1  0            999 V2000
  -30.6786  -14.6017   20.5290 C   0  0  0  0  0  0
  -30.4167  -12.3792   19.4532 C   0  0  0  0  0  0
  -29.4980  -12.5028   18.2218 C   0  0  0  0  0  0
  -28.0233  -12.3418   18.6360 C   0  0  0  0  0  0
  -27.6467  -13.2204   19.8588 C   0  0  2  0  0  0
  -28.6881  -13.1030   20.9914 C   0  0  0  0  0  0
  -25.2529  -13.8179   20.5692 C   0  0  0  0  0  0
  -24.1813  -13.0444   20.9187 C   0  0  0  0  0  0
  -24.6390  -11.6912   20.8745 C   0  0  0  0  0  0
  -23.9062  -10.4295   21.0412 C   0  0  0  0  0  0
  -24.3616   -9.4213   21.9189 C   0  0  0  0  0  0
  -23.6298   -8.2246   22.0757 C   0  0  0  0  0  0
  -22.4280   -8.0283   21.3549 C   0  0  0  0  0  0
  -21.9914   -9.0254   20.4649 C   0  0  0  0  0  0
  -22.7235  -10.2132   20.3062 C   0  0  0  0  0  0
  -21.6859   -6.0741   22.5279 C   0  0  0  0  0  0
  -21.4014   -6.5643   23.8210 C   0  0  0  0  0  0
  -21.3659   -5.6793   24.9174 C   0  0  0  0  0  0
  -21.6043   -4.3058   24.7223 C   0  0  0  0  0  0
  -21.8820   -3.8149   23.4346 C   0  0  0  0  0  0
  -21.9191   -4.6966   22.3405 C   0  0  0  0  0  0
  -22.7838  -13.5231   21.1844 C   0  0  0  0  0  0
  -22.1664   -4.2153   21.0987 F   0  0  0  0  0  0
  -21.5624   -3.4540   25.7738 F   0  0  0  0  0  0
  -30.0018  -13.4174   20.4180 N   0  0  0  0  0  0
  -26.2960  -12.9371   20.3309 N   0  0  0  0  0  0
  -25.9314  -11.6522   20.5761 N   0  0  0  0  0  0
  -22.0486  -12.8230   22.0400 N   0  0  0  0  0  0
  -25.4240  -15.1904   20.4114 N   0  0  0  0  0  0
  -31.8544  -14.6845   20.1621 O   0  0  0  0  0  0
  -21.6646   -6.8883   21.4246 O   0  0  0  0  0  0
  -22.3529  -14.5544   20.6687 O   0  0  0  0  0  0
  -24.6237  -31.8631   23.2044 C   0  0  0  0  0  0
  -25.9097  -32.4808   23.8373 C   0  0  1  0  0  0
  -27.2161  -27.3220   20.1222 C   0  0  0  0  0  0
  -25.5926  -33.8612   24.2325 N   0  0  0  0  0  0
  -23.4183  -30.4858   21.5482 C   0  0  2  0  0  0
  -24.8624  -28.9455   20.1110 C   0  0  0  0  0  0
  -22.7496  -29.4618   22.4965 C   0  0  0  0  0  0
  -18.0299  -28.1382   22.8514 C   0  0  0  0  0  0
  -24.1474  -36.7285   23.2641 C   0  0  0  0  0  0
  -25.9587  -30.7956   21.3750 C   0  0  0  0  0  0
  -26.0310  -29.4233   20.7176 C   0  0  0  0  0  0
  -27.2100  -28.6216   20.7156 C   0  0  0  0  0  0
  -26.0275  -26.9078   19.4746 C   0  0  0  0  0  0
  -24.8631  -27.6943   19.4805 C   0  0  0  0  0  0
  -23.6319  -29.8242   20.1617 C   0  0  0  0  0  0
  -25.4108  -36.3128   24.0354 C   0  0  1  0  0  0
  -20.5906  -28.3679   23.1321 C   0  0  2  0  0  0
  -20.6788  -26.9412   22.5425 C   0  0  0  0  0  0
  -19.5749  -26.6392   21.5242 C   0  0  0  0  0  0
  -18.1928  -26.7932   22.1646 C   0  0  0  0  0  0
  -19.1552  -28.8860   23.2900 C   0  0  0  0  0  0
  -18.9464  -30.1468   23.8908 C   0  0  0  0  0  0
  -17.6458  -30.6588   24.0577 C   0  0  0  0  0  0
  -25.9041  -34.9486   23.5143 C   0  0  0  0  0  0
  -16.5352  -29.9086   23.6329 C   0  0  0  0  0  0
  -16.7284  -28.6499   23.0364 C   0  0  0  0  0  0
  -26.4478  -31.6607   25.0731 C   0  0  0  0  0  0
  -25.3711  -31.3721   26.1453 C   0  0  0  0  0  0
  -27.0312  -30.3051   24.6139 C   0  0  0  0  0  0
  -27.6070  -32.4304   25.7499 C   0  0  0  0  0  0
  -27.5594  -37.1804   24.8485 C   0  0  0  0  0  0
  -21.4213  -29.3022   22.3717 N   0  0  0  0  0  0
  -26.4294  -37.3815   23.9433 N   0  0  0  0  0  0
  -24.6854  -31.0644   22.0994 N   0  0  0  0  0  0
  -23.4243  -28.8168   23.3035 O   0  0  0  0  0  0
  -28.3298  -26.4735   20.2016 O   0  0  0  0  0  0
  -26.5590  -34.8942   22.4702 O   0  0  0  0  0  0
  -23.5408  -32.1395   23.7396 O   0  0  0  0  0  0
  -32.5652  -19.6895   18.7376 C   0  0  0  0  0  0
  -30.4668  -19.2528   19.9620 C   0  0  0  0  0  0
  -31.4677  -18.8585   19.0144 C   0  0  0  0  0  0
  -32.7475  -20.9034   19.3990 C   0  0  0  0  0  0
  -30.5081  -20.6492   20.4069 C   0  0  0  0  0  0
  -31.7295  -21.3813   20.2523 C   0  0  0  0  0  0
  -29.8382  -17.8994   22.0526 C   0  0  0  0  0  0
  -28.4780  -24.3952   18.7533 C   0  0  0  0  0  0
  -30.5736  -16.5417   22.0520 C   0  0  0  0  0  0
  -29.2819  -16.6917   20.1103 C   0  0  0  0  0  0
  -28.8145  -22.8923   18.9974 C   0  0  0  0  0  0
  -28.8952  -24.0461   21.0779 C   0  0  0  0  0  0
  -29.4652  -18.1966   20.5964 C   0  0  2  0  0  0
  -28.1208  -25.0064   20.1224 C   0  0  1  0  0  0
  -31.4514  -17.5713   18.2123 C   0  0  0  0  0  0
  -34.0443  -21.6556   19.1136 C   0  0  0  0  0  0
  -31.9902  -22.6694   21.0270 C   0  0  0  0  0  0
  -29.3155  -21.4086   21.0949 C   0  0  0  0  0  0
  -30.0048  -15.7153   20.9812 N   0  0  0  0  0  0
  -28.7428  -22.6792   20.4602 N   0  3  2  0  0  0
  -31.4619  -12.4750   19.1548 H   0  0  0  0  0  0
  -30.3257  -11.3898   19.9037 H   0  0  0  0  0  0
  -29.7622  -11.7521   17.4749 H   0  0  0  0  0  0
  -29.6433  -13.4746   17.7460 H   0  0  0  0  0  0
  -27.8626  -11.2892   18.8724 H   0  0  0  0  0  0
  -27.3670  -12.5649   17.7932 H   0  0  0  0  0  0
  -27.6587  -14.2505   19.5044 H   0  0  0  0  0  0
  -28.6936  -12.0973   21.4134 H   0  0  0  0  0  0
  -28.4382  -13.7763   21.8126 H   0  0  0  0  0  0
  -25.2762   -9.5691   22.4756 H   0  0  0  0  0  0
  -24.0005   -7.4644   22.7478 H   0  0  0  0  0  0
  -21.0841   -8.8775   19.8956 H   0  0  0  0  0  0
  -22.3699  -10.9672   19.6164 H   0  0  0  0  0  0
  -21.2015   -7.6148   23.9719 H   0  0  0  0  0  0
  -21.1474   -6.0524   25.9079 H   0  0  0  0  0  0
  -22.0599   -2.7609   23.2847 H   0  0  0  0  0  0
  -22.4110  -11.9888   22.4777 H   0  0  0  0  0  0
  -21.1106  -13.1257   22.2612 H   0  0  0  0  0  0
  -24.6577  -15.8445   20.5251 H   0  0  0  0  0  0
  -26.2772  -15.6290   20.0919 H   0  0  0  0  0  0
  -26.7169  -32.5515   23.1128 H   0  0  0  0  0  0
  -25.0141  -33.9753   25.0522 H   0  0  0  0  0  0
  -22.7084  -31.3040   21.4080 H   0  0  0  0  0  0
  -23.3768  -35.9590   23.3315 H   0  0  0  0  0  0
  -24.3558  -36.8864   22.2050 H   0  0  0  0  0  0
  -23.7171  -37.6476   23.6620 H   0  0  0  0  0  0
  -26.0836  -31.5570   20.6036 H   0  0  0  0  0  0
  -26.8416  -30.8522   21.9999 H   0  0  0  0  0  0
  -28.1059  -28.9770   21.2049 H   0  0  0  0  0  0
  -25.9600  -25.9593   18.9637 H   0  0  0  0  0  0
  -23.9683  -27.3291   18.9954 H   0  0  0  0  0  0
  -23.7554  -30.6006   19.4052 H   0  0  0  0  0  0
  -22.7506  -29.2543   19.8575 H   0  0  0  0  0  0
  -25.1272  -36.2002   25.0842 H   0  0  0  0  0  0
  -20.9991  -28.3225   24.1447 H   0  0  0  0  0  0
  -20.5732  -26.2270   23.3607 H   0  0  0  0  0  0
  -21.6647  -26.7458   22.1194 H   0  0  0  0  0  0
  -19.6883  -25.6310   21.1249 H   0  0  0  0  0  0
  -19.6679  -27.3218   20.6793 H   0  0  0  0  0  0
  -17.4210  -26.6738   21.4023 H   0  0  0  0  0  0
  -18.0290  -26.0059   22.9024 H   0  0  0  0  0  0
  -19.7931  -30.7308   24.2260 H   0  0  0  0  0  0
  -17.4998  -31.6274   24.5172 H   0  0  0  0  0  0
  -15.5346  -30.2989   23.7644 H   0  0  0  0  0  0
  -15.8685  -28.0818   22.7072 H   0  0  0  0  0  0
  -24.5925  -30.7020   25.7772 H   0  0  0  0  0  0
  -24.8841  -32.2864   26.4858 H   0  0  0  0  0  0
  -25.8041  -30.8925   27.0241 H   0  0  0  0  0  0
  -26.2875  -29.6832   24.1135 H   0  0  0  0  0  0
  -27.4000  -29.7273   25.4619 H   0  0  0  0  0  0
  -27.8747  -30.4359   23.9366 H   0  0  0  0  0  0
  -27.2732  -33.3624   26.2078 H   0  0  0  0  0  0
  -28.3893  -32.6809   25.0320 H   0  0  0  0  0  0
  -28.0717  -31.8399   26.5405 H   0  0  0  0  0  0
  -28.2631  -38.0088   24.7575 H   0  0  0  0  0  0
  -28.1071  -36.2629   24.6274 H   0  0  0  0  0  0
  -27.2315  -37.1423   25.8887 H   0  0  0  0  0  0
  -20.9400  -29.8725   21.6910 H   0  0  0  0  0  0
  -26.0194  -38.2897   24.1441 H   0  0  0  0  0  0
  -33.3270  -19.3658   18.0404 H   0  0  0  0  0  0
  -30.4139  -18.6918   22.5326 H   0  0  0  0  0  0
  -28.9191  -17.7869   22.6309 H   0  0  0  0  0  0
  -27.6668  -24.5163   18.0366 H   0  0  0  0  0  0
  -29.3474  -24.9076   18.3415 H   0  0  0  0  0  0
  -30.4852  -16.0409   23.0177 H   0  0  0  0  0  0
  -31.6376  -16.7057   21.8673 H   0  0  0  0  0  0
  -29.3541  -16.4983   19.0466 H   0  0  0  0  0  0
  -28.2363  -16.4528   20.3027 H   0  0  0  0  0  0
  -29.8086  -22.6634   18.6138 H   0  0  0  0  0  0
  -28.1037  -22.2368   18.4931 H   0  0  0  0  0  0
  -28.5006  -24.0776   22.0948 H   0  0  0  0  0  0
  -29.9325  -24.3618   21.1178 H   0  0  0  0  0  0
  -28.4779  -18.6559   20.5543 H   0  0  0  0  0  0
  -27.0782  -24.7724   20.3437 H   0  0  0  0  0  0
  -32.2659  -17.5346   17.4890 H   0  0  0  0  0  0
  -30.5353  -17.4822   17.6284 H   0  0  0  0  0  0
  -31.5925  -16.7128   18.8554 H   0  0  0  0  0  0
  -34.8985  -20.9939   19.2696 H   0  0  0  0  0  0
  -34.2116  -22.5411   19.7207 H   0  0  0  0  0  0
  -34.0642  -21.9741   18.0716 H   0  0  0  0  0  0
  -31.9031  -23.5361   20.3714 H   0  0  0  0  0  0
  -31.3425  -22.8008   21.8894 H   0  0  0  0  0  0
  -32.9908  -22.6658   21.4568 H   0  0  0  0  0  0
  -29.5405  -21.5910   22.1454 H   0  0  0  0  0  0
  -28.4703  -20.7262   21.1312 H   0  0  0  0  0  0
  -27.7582  -22.5062   20.5973 H   0  0  0  0  0  0
  1 25  1  0  0  0
  1 30  2  0  0  0
  1 89  1  0  0  0
  2  3  1  0  0  0
  2 25  1  0  0  0
  2 91  1  0  0  0
  2 92  1  0  0  0
  3  4  1  0  0  0
  3 93  1  0  0  0
  3 94  1  0  0  0
  4  5  1  0  0  0
  4 95  1  0  0  0
  4 96  1  0  0  0
  5  6  1  0  0  0
  5 26  1  0  0  0
  5 97  1  0  0  0
  6 25  1  0  0  0
  6 98  1  0  0  0
  6 99  1  0  0  0
  7  8  2  0  0  0
  7 26  1  0  0  0
  7 29  1  0  0  0
  8  9  1  0  0  0
  8 22  1  0  0  0
  9 10  1  0  0  0
  9 27  2  0  0  0
 10 11  2  0  0  0
 10 15  1  0  0  0
 11 12  1  0  0  0
 11100  1  0  0  0
 12 13  2  0  0  0
 12101  1  0  0  0
 13 14  1  0  0  0
 13 31  1  0  0  0
 14 15  2  0  0  0
 14102  1  0  0  0
 15103  1  0  0  0
 16 17  2  0  0  0
 16 21  1  0  0  0
 16 31  1  0  0  0
 17 18  1  0  0  0
 17104  1  0  0  0
 18 19  2  0  0  0
 18105  1  0  0  0
 19 20  1  0  0  0
 19 24  1  0  0  0
 20 21  2  0  0  0
 20106  1  0  0  0
 21 23  1  0  0  0
 22 28  1  0  0  0
 22 32  2  0  0  0
 26 27  1  0  0  0
 28107  1  0  0  0
 28108  1  0  0  0
 29109  1  0  0  0
 29110  1  0  0  0
 33 34  1  0  0  0
 33 66  1  0  0  0
 33 70  2  0  0  0
 34 36  1  0  0  0
 34 59  1  0  0  0
 34111  1  0  0  0
 35 44  2  0  0  0
 35 45  1  0  0  0
 35 68  1  0  0  0
 36 56  1  0  0  0
 36112  1  0  0  0
 37 39  1  0  0  0
 37 47  1  0  0  0
 37 66  1  0  0  0
 37113  1  0  0  0
 38 43  2  0  0  0
 38 46  1  0  0  0
 38 47  1  0  0  0
 39 64  1  0  0  0
 39 67  2  0  0  0
 40 52  1  0  0  0
 40 53  2  0  0  0
 40 58  1  0  0  0
 41114  1  0  0  0
 41115  1  0  0  0
 41116  1  0  0  0
 41 48  1  0  0  0
 42 43  1  0  0  0
 42 66  1  0  0  0
 42117  1  0  0  0
 42118  1  0  0  0
 43 44  1  0  0  0
 44119  1  0  0  0
 45 46  2  0  0  0
 45120  1  0  0  0
 46121  1  0  0  0
 47122  1  0  0  0
 47123  1  0  0  0
 48 56  1  0  0  0
 48 65  1  0  0  0
 48124  1  0  0  0
 49 50  1  0  0  0
 49 53  1  0  0  0
 49 64  1  0  0  0
 49125  1  0  0  0
 50 51  1  0  0  0
 50126  1  0  0  0
 50127  1  0  0  0
 51 52  1  0  0  0
 51128  1  0  0  0
 51129  1  0  0  0
 52130  1  0  0  0
 52131  1  0  0  0
 53 54  1  0  0  0
 54 55  2  0  0  0
 54132  1  0  0  0
 55 57  1  0  0  0
 55133  1  0  0  0
 56 69  2  0  0  0
 57 58  2  0  0  0
 57134  1  0  0  0
 58135  1  0  0  0
 59 60  1  0  0  0
 59 61  1  0  0  0
 59 62  1  0  0  0
 60136  1  0  0  0
 60137  1  0  0  0
 60138  1  0  0  0
 61139  1  0  0  0
 61140  1  0  0  0
 61141  1  0  0  0
 62142  1  0  0  0
 62143  1  0  0  0
 62144  1  0  0  0
 63 65  1  0  0  0
 63145  1  0  0  0
 63146  1  0  0  0
 63147  1  0  0  0
 64148  1  0  0  0
 65149  1  0  0  0
 68 84  1  0  0  0
 71 73  2  0  0  0
 71 74  1  0  0  0
 71150  1  0  0  0
 72 73  1  0  0  0
 72 75  2  0  0  0
 72 83  1  0  0  0
 73 85  1  0  0  0
 74 76  2  0  0  0
 74 86  1  0  0  0
 75 76  1  0  0  0
 75 88  1  0  0  0
 76 87  1  0  0  0
 77 79  1  0  0  0
 77 83  1  0  0  0
 77151  1  0  0  0
 77152  1  0  0  0
 78 81  1  0  0  0
 78 84  1  0  0  0
 78153  1  0  0  0
 78154  1  0  0  0
 79 89  1  0  0  0
 79155  1  0  0  0
 79156  1  0  0  0
 80 83  1  0  0  0
 80 89  1  0  0  0
 80157  1  0  0  0
 80158  1  0  0  0
 81 90  1  0  0  0
 81159  1  0  0  0
 81160  1  0  0  0
 82 84  1  0  0  0
 82 90  1  0  0  0
 82161  1  0  0  0
 82162  1  0  0  0
 83163  1  0  0  0
 84164  1  0  0  0
 85165  1  0  0  0
 85166  1  0  0  0
 85167  1  0  0  0
 86168  1  0  0  0
 86169  1  0  0  0
 86170  1  0  0  0
 87171  1  0  0  0
 87172  1  0  0  0
 87173  1  0  0  0
 88174  1  0  0  0
 88175  1  0  0  0
 88 90  1  0  0  0
 90176  1  0  0  0
M  CHG  1  90   1
M  ISO  4   1 100  68 101  84 101  89 100
M  END
> <chiral flag>
0

> <version>
0

> <s_m_source_file>
/data/baiqing/PycharmProjects/Reinvent-master-3.2/result/LINK_invent/BTK/process_docking_weight1_custom_sum_contain_oxygen_bond_distance_aromatic_linkinvent_7_9_3/rearranged_h_0163.sdf

> <i_m_source_file_index>
29

> <r_mmod_Potential_Energy-OPLS-2005>
322.679992675781

> <r_mmod_Stretch_Energy-OPLS-2005>
92.9157180786133

> <r_mmod_Bend_Energy-OPLS-2005>
243.509902954102

> <r_mmod_Torsional_Energy-OPLS-2005>
437.680908203125

> <r_mmod_Improper_Torsional_Energy-OPLS-2005>
6.12145948410034

> <r_mmod_Van_der_Waal_Energy-OPLS-2005>
154.641799926758

> <r_mmod_Electrostatic_Energy-OPLS-2005>
-242.810241699219

> <r_mmod_Solvation_Energy-OPLS-2005>
-414.926818847656

> <b_mmod_Minimization_Converged-OPLS-2005>
0

> <r_mmod_RMS_Derivative-OPLS-2005>
2.51090526580811

$$$$
29
                    3D
 Structure written by MMmdl.
167176  0  0  1  0            999 V2000
  -30.6537  -14.7025   20.5517 C   0  0  0  0  0  0
  -30.4251  -12.4478   19.4827 C   0  0  0  0  0  0
  -29.5125  -12.5429   18.2404 C   0  0  0  0  0  0
  -28.0356  -12.3676   18.6384 C   0  0  0  0  0  0
  -27.6456  -13.2374   19.8633 C   0  0  2  0  0  0
  -28.6839  -13.1318   21.0017 C   0  0  0  0  0  0
  -25.2526  -13.8212   20.5733 C   0  0  0  0  0  0
  -24.1809  -13.0450   20.9198 C   0  0  0  0  0  0
  -24.6424  -11.6929   20.8736 C   0  0  0  0  0  0
  -23.9086  -10.4309   21.0415 C   0  0  0  0  0  0
  -24.3650   -9.4218   21.9182 C   0  0  0  0  0  0
  -23.6328   -8.2251   22.0752 C   0  0  0  0  0  0
  -22.4298   -8.0304   21.3553 C   0  0  0  0  0  0
  -21.9946   -9.0264   20.4638 C   0  0  0  0  0  0
  -22.7264  -10.2143   20.3059 C   0  0  0  0  0  0
  -21.6872   -6.0759   22.5296 C   0  0  0  0  0  0
  -21.4009   -6.5660   23.8217 C   0  0  0  0  0  0
  -21.3662   -5.6819   24.9180 C   0  0  0  0  0  0
  -21.6053   -4.3076   24.7232 C   0  0  0  0  0  0
  -21.8813   -3.8178   23.4345 C   0  0  0  0  0  0
  -21.9194   -4.6990   22.3401 C   0  0  0  0  0  0
  -22.7825  -13.5210   21.1869 C   0  0  0  0  0  0
  -22.1656   -4.2196   21.0983 F   0  0  0  0  0  0
  -21.5639   -3.4548   25.7735 F   0  0  0  0  0  0
  -29.9967  -13.4929   20.4460 N   0  0  0  0  0  0
  -26.2957  -12.9432   20.3337 N   0  0  0  0  0  0
  -25.9355  -11.6567   20.5761 N   0  0  0  0  0  0
  -22.0477  -12.8165   22.0402 N   0  0  0  0  0  0
  -25.4251  -15.1946   20.4197 N   0  0  0  0  0  0
  -31.7885  -14.8152   20.0737 O   0  0  0  0  0  0
  -21.6645   -6.8905   21.4258 O   0  0  0  0  0  0
  -22.3492  -14.5515   20.6740 O   0  0  0  0  0  0
  -24.6283  -31.8578   23.1986 C   0  0  0  0  0  0
  -25.9109  -32.4760   23.8349 C   0  0  1  0  0  0
  -27.2213  -27.2700   20.1490 C   0  0  0  0  0  0
  -25.5889  -33.8566   24.2261 N   0  0  0  0  0  0
  -23.4250  -30.4790   21.5442 C   0  0  2  0  0  0
  -24.8732  -28.9166   20.1241 C   0  0  0  0  0  0
  -22.7478  -29.4651   22.4954 C   0  0  0  0  0  0
  -18.0289  -28.1391   22.8509 C   0  0  0  0  0  0
  -24.1470  -36.7291   23.2650 C   0  0  0  0  0  0
  -25.9716  -30.7699   21.3824 C   0  0  0  0  0  0
  -26.0452  -29.3930   20.7282 C   0  0  0  0  0  0
  -27.2245  -28.5834   20.7240 C   0  0  0  0  0  0
  -26.0302  -26.8523   19.5242 C   0  0  0  0  0  0
  -24.8710  -27.6545   19.5097 C   0  0  0  0  0  0
  -23.6416  -29.8021   20.1661 C   0  0  0  0  0  0
  -25.4106  -36.3092   24.0330 C   0  0  1  0  0  0
  -20.5887  -28.3729   23.1272 C   0  0  2  0  0  0
  -20.6787  -26.9449   22.5425 C   0  0  0  0  0  0
  -19.5750  -26.6393   21.5235 C   0  0  0  0  0  0
  -18.1923  -26.7937   22.1639 C   0  0  0  0  0  0
  -19.1538  -28.8869   23.2885 C   0  0  0  0  0  0
  -18.9472  -30.1475   23.8893 C   0  0  0  0  0  0
  -17.6473  -30.6606   24.0564 C   0  0  0  0  0  0
  -25.9057  -34.9451   23.5108 C   0  0  0  0  0  0
  -16.5365  -29.9099   23.6341 C   0  0  0  0  0  0
  -16.7275  -28.6509   23.0380 C   0  0  0  0  0  0
  -26.4472  -31.6598   25.0758 C   0  0  0  0  0  0
  -25.3672  -31.3768   26.1466 C   0  0  0  0  0  0
  -27.0377  -30.3007   24.6318 C   0  0  0  0  0  0
  -27.5998  -32.4400   25.7516 C   0  0  0  0  0  0
  -27.5597  -37.1783   24.8456 C   0  0  0  0  0  0
  -21.4195  -29.3062   22.3651 N   0  0  0  0  0  0
  -26.4291  -37.3789   23.9426 N   0  0  0  0  0  0
  -24.6939  -31.0536   22.0976 N   0  0  0  0  0  0
  -23.4167  -28.8226   23.3085 O   0  0  0  0  0  0
  -28.3228  -26.3904   20.1473 O   0  0  0  0  0  0
  -26.5656  -34.8910   22.4695 O   0  0  0  0  0  0
  -23.5426  -32.1425   23.7275 O   0  0  0  0  0  0
  -29.6114  -19.8374   20.3344 C   0  0  0  0  0  0
  -28.4766  -19.5781   22.8615 C   0  0  0  0  0  0
  -29.5188  -18.5106   20.9199 C   0  0  0  0  0  0
  -28.9320  -18.4151   22.1968 C   0  0  0  0  0  0
  -29.1569  -21.0454   21.0032 C   0  0  0  0  0  0
  -28.6065  -20.8748   22.2952 C   0  0  0  0  0  0
  -28.8043  -17.0515   22.8633 C   0  0  0  0  0  0
  -30.0383  -17.1718   20.2416 C   0  0  0  0  0  0
  -29.9037  -16.0532   22.4373 C   0  0  0  0  0  0
  -29.2060  -23.4618   24.5945 C   0  0  0  0  0  0
  -27.8229  -23.6204   18.7573 C   0  0  0  0  0  0
  -29.4081  -22.5370   20.4921 C   0  0  0  0  0  0
  -28.5545  -22.0952   24.3534 C   0  0  0  0  0  0
  -28.2277  -25.0888   20.8889 C   0  0  0  0  0  0
  -28.2001  -23.5903   20.2452 C   0  0  1  0  0  0
  -29.9648  -15.8373   20.9808 N   0  0  0  0  0  0
  -28.2187  -22.0093   22.9726 O   0  0  0  0  0  0
  -31.4702  -12.5544   19.1892 H   0  0  0  0  0  0
  -30.3486  -11.4591   19.9410 H   0  0  0  0  0  0
  -29.7903  -11.7918   17.5000 H   0  0  0  0  0  0
  -29.6517  -13.5136   17.7625 H   0  0  0  0  0  0
  -27.8704  -11.3122   18.8594 H   0  0  0  0  0  0
  -27.3904  -12.6060   17.7918 H   0  0  0  0  0  0
  -27.6486  -14.2702   19.5173 H   0  0  0  0  0  0
  -28.7094  -12.1187   21.4062 H   0  0  0  0  0  0
  -28.3957  -13.7747   21.8319 H   0  0  0  0  0  0
  -25.2796   -9.5682   22.4743 H   0  0  0  0  0  0
  -24.0051   -7.4642   22.7454 H   0  0  0  0  0  0
  -21.0896   -8.8765   19.8928 H   0  0  0  0  0  0
  -22.3735  -10.9675   19.6176 H   0  0  0  0  0  0
  -21.1976   -7.6171   23.9733 H   0  0  0  0  0  0
  -21.1501   -6.0545   25.9088 H   0  0  0  0  0  0
  -22.0588   -2.7648   23.2831 H   0  0  0  0  0  0
  -22.4143  -11.9866   22.4805 H   0  0  0  0  0  0
  -21.1092  -13.1180   22.2616 H   0  0  0  0  0  0
  -24.6658  -15.8553   20.5389 H   0  0  0  0  0  0
  -26.2931  -15.6347   20.1387 H   0  0  0  0  0  0
  -26.7179  -32.5403   23.1100 H   0  0  0  0  0  0
  -24.9941  -33.9718   25.0338 H   0  0  0  0  0  0
  -22.7240  -31.3018   21.3942 H   0  0  0  0  0  0
  -23.3759  -35.9589   23.3276 H   0  0  0  0  0  0
  -24.3555  -36.8975   22.2079 H   0  0  0  0  0  0
  -23.7178  -37.6454   23.6703 H   0  0  0  0  0  0
  -26.1187  -31.5299   20.6145 H   0  0  0  0  0  0
  -26.8451  -30.8126   22.0227 H   0  0  0  0  0  0
  -28.1266  -28.9491   21.1954 H   0  0  0  0  0  0
  -25.9869  -25.8829   19.0538 H   0  0  0  0  0  0
  -23.9725  -27.2839   19.0356 H   0  0  0  0  0  0
  -23.7592  -30.5716   19.4030 H   0  0  0  0  0  0
  -22.7566  -29.2326   19.8704 H   0  0  0  0  0  0
  -25.1272  -36.1957   25.0818 H   0  0  0  0  0  0
  -20.9983  -28.3326   24.1386 H   0  0  0  0  0  0
  -20.5721  -26.2352   23.3645 H   0  0  0  0  0  0
  -21.6651  -26.7493   22.1196 H   0  0  0  0  0  0
  -19.6928  -25.6298   21.1268 H   0  0  0  0  0  0
  -19.6649  -27.3198   20.6748 H   0  0  0  0  0  0
  -17.4205  -26.6728   21.4024 H   0  0  0  0  0  0
  -18.0291  -26.0074   22.9015 H   0  0  0  0  0  0
  -19.7943  -30.7305   24.2247 H   0  0  0  0  0  0
  -17.5021  -31.6265   24.5196 H   0  0  0  0  0  0
  -15.5362  -30.2999   23.7649 H   0  0  0  0  0  0
  -15.8689  -28.0807   22.7112 H   0  0  0  0  0  0
  -24.5759  -30.7250   25.7747 H   0  0  0  0  0  0
  -24.8963  -32.2960   26.4955 H   0  0  0  0  0  0
  -25.7936  -30.8833   27.0210 H   0  0  0  0  0  0
  -26.3042  -29.6715   24.1276 H   0  0  0  0  0  0
  -27.3978  -29.7296   25.4894 H   0  0  0  0  0  0
  -27.8907  -30.4287   23.9659 H   0  0  0  0  0  0
  -27.2556  -33.3656   26.2150 H   0  0  0  0  0  0
  -28.3741  -32.7095   25.0317 H   0  0  0  0  0  0
  -28.0763  -31.8550   26.5405 H   0  0  0  0  0  0
  -28.2566  -38.0133   24.7572 H   0  0  0  0  0  0
  -28.1159  -36.2666   24.6188 H   0  0  0  0  0  0
  -27.2333  -37.1316   25.8864 H   0  0  0  0  0  0
  -20.9406  -29.8719   21.6783 H   0  0  0  0  0  0
  -26.0181  -38.2860   24.1443 H   0  0  0  0  0  0
  -30.0799  -19.9337   19.3645 H   0  0  0  0  0  0
  -28.0273  -19.4662   23.8378 H   0  0  0  0  0  0
  -27.8205  -16.6403   22.6302 H   0  0  0  0  0  0
  -28.8439  -17.1766   23.9482 H   0  0  0  0  0  0
  -31.0689  -17.3427   19.9272 H   0  0  0  0  0  0
  -29.4714  -17.0436   19.3186 H   0  0  0  0  0  0
  -29.7692  -15.1143   22.9757 H   0  0  0  0  0  0
  -30.8754  -16.4320   22.7600 H   0  0  0  0  0  0
  -29.4953  -23.5732   25.6403 H   0  0  0  0  0  0
  -28.5239  -24.2752   24.3529 H   0  0  0  0  0  0
  -30.1034  -23.5835   23.9853 H   0  0  0  0  0  0
  -27.9278  -22.6347   18.3014 H   0  0  0  0  0  0
  -28.4539  -24.3150   18.2010 H   0  0  0  0  0  0
  -26.7838  -23.9133   18.6178 H   0  0  0  0  0  0
  -30.0321  -22.4858   19.5995 H   0  0  0  0  0  0
  -30.0647  -22.9747   21.2451 H   0  0  0  0  0  0
  -27.6501  -21.9985   24.9541 H   0  0  0  0  0  0
  -29.2478  -21.3157   24.6759 H   0  0  0  0  0  0
  -29.0404  -25.1052   21.6150 H   0  0  0  0  0  0
  -27.3428  -25.1650   21.5227 H   0  0  0  0  0  0
  -27.3588  -23.1097   20.7481 H   0  0  0  0  0  0
  1 25  1  0  0  0
  1 30  2  0  0  0
  1 86  1  0  0  0
  2  3  1  0  0  0
  2 25  1  0  0  0
  2 88  1  0  0  0
  2 89  1  0  0  0
  3  4  1  0  0  0
  3 90  1  0  0  0
  3 91  1  0  0  0
  4  5  1  0  0  0
  4 92  1  0  0  0
  4 93  1  0  0  0
  5  6  1  0  0  0
  5 26  1  0  0  0
  5 94  1  0  0  0
  6 25  1  0  0  0
  6 95  1  0  0  0
  6 96  1  0  0  0
  7  8  2  0  0  0
  7 26  1  0  0  0
  7 29  1  0  0  0
  8  9  1  0  0  0
  8 22  1  0  0  0
  9 10  1  0  0  0
  9 27  2  0  0  0
 10 11  2  0  0  0
 10 15  1  0  0  0
 11 12  1  0  0  0
 11 97  1  0  0  0
 12 13  2  0  0  0
 12 98  1  0  0  0
 13 14  1  0  0  0
 13 31  1  0  0  0
 14 15  2  0  0  0
 14 99  1  0  0  0
 15100  1  0  0  0
 16 17  2  0  0  0
 16 21  1  0  0  0
 16 31  1  0  0  0
 17 18  1  0  0  0
 17101  1  0  0  0
 18 19  2  0  0  0
 18102  1  0  0  0
 19 20  1  0  0  0
 19 24  1  0  0  0
 20 21  2  0  0  0
 20103  1  0  0  0
 21 23  1  0  0  0
 22 28  1  0  0  0
 22 32  2  0  0  0
 26 27  1  0  0  0
 28104  1  0  0  0
 28105  1  0  0  0
 29106  1  0  0  0
 29107  1  0  0  0
 33 34  1  0  0  0
 33 66  1  0  0  0
 33 70  2  0  0  0
 34 36  1  0  0  0
 34 59  1  0  0  0
 34108  1  0  0  0
 35 44  2  0  0  0
 35 45  1  0  0  0
 35 68  1  0  0  0
 36 56  1  0  0  0
 36109  1  0  0  0
 37 39  1  0  0  0
 37 47  1  0  0  0
 37 66  1  0  0  0
 37110  1  0  0  0
 38 43  2  0  0  0
 38 46  1  0  0  0
 38 47  1  0  0  0
 39 64  1  0  0  0
 39 67  2  0  0  0
 40 52  1  0  0  0
 40 53  2  0  0  0
 40 58  1  0  0  0
 41111  1  0  0  0
 41112  1  0  0  0
 41113  1  0  0  0
 41 48  1  0  0  0
 42 43  1  0  0  0
 42 66  1  0  0  0
 42114  1  0  0  0
 42115  1  0  0  0
 43 44  1  0  0  0
 44116  1  0  0  0
 45 46  2  0  0  0
 45117  1  0  0  0
 46118  1  0  0  0
 47119  1  0  0  0
 47120  1  0  0  0
 48 56  1  0  0  0
 48 65  1  0  0  0
 48121  1  0  0  0
 49 50  1  0  0  0
 49 53  1  0  0  0
 49 64  1  0  0  0
 49122  1  0  0  0
 50 51  1  0  0  0
 50123  1  0  0  0
 50124  1  0  0  0
 51 52  1  0  0  0
 51125  1  0  0  0
 51126  1  0  0  0
 52127  1  0  0  0
 52128  1  0  0  0
 53 54  1  0  0  0
 54 55  2  0  0  0
 54129  1  0  0  0
 55 57  1  0  0  0
 55130  1  0  0  0
 56 69  2  0  0  0
 57 58  2  0  0  0
 57131  1  0  0  0
 58132  1  0  0  0
 59 60  1  0  0  0
 59 61  1  0  0  0
 59 62  1  0  0  0
 60133  1  0  0  0
 60134  1  0  0  0
 60135  1  0  0  0
 61136  1  0  0  0
 61137  1  0  0  0
 61138  1  0  0  0
 62139  1  0  0  0
 62140  1  0  0  0
 62141  1  0  0  0
 63 65  1  0  0  0
 63142  1  0  0  0
 63143  1  0  0  0
 63144  1  0  0  0
 64145  1  0  0  0
 65146  1  0  0  0
 68 84  1  0  0  0
 71 73  2  0  0  0
 71 75  1  0  0  0
 71147  1  0  0  0
 72 74  2  0  0  0
 72 76  1  0  0  0
 72148  1  0  0  0
 73 74  1  0  0  0
 73 78  1  0  0  0
 74 77  1  0  0  0
 75 76  2  0  0  0
 75 82  1  0  0  0
 76 87  1  0  0  0
 77 79  1  0  0  0
 77149  1  0  0  0
 77150  1  0  0  0
 78 86  1  0  0  0
 78151  1  0  0  0
 78152  1  0  0  0
 79 86  1  0  0  0
 79153  1  0  0  0
 79154  1  0  0  0
 80 83  1  0  0  0
 80155  1  0  0  0
 80156  1  0  0  0
 80157  1  0  0  0
 81158  1  0  0  0
 81159  1  0  0  0
 81160  1  0  0  0
 81 85  1  0  0  0
 82 85  1  0  0  0
 82161  1  0  0  0
 82162  1  0  0  0
 83 87  1  0  0  0
 83163  1  0  0  0
 83164  1  0  0  0
 84 85  1  0  0  0
 84165  1  0  0  0
 84166  1  0  0  0
 85167  1  0  0  0
M  ISO  4   1 100  68 101  84 101  86 100
M  END
> <chiral flag>
0

> <version>
0

> <s_m_source_file>
/data/baiqing/PycharmProjects/Reinvent-master-3.2/result/LINK_invent/BTK/process_docking_weight1_custom_sum_contain_oxygen_bond_distance_aromatic_linkinvent_7_9_3/rearranged_h_0163.sdf

> <i_m_source_file_index>
30

> <r_mmod_Potential_Energy-OPLS-2005>
327.331604003906

> <r_mmod_Stretch_Energy-OPLS-2005>
123.506423950195

> <r_mmod_Bend_Energy-OPLS-2005>
179.383178710938

> <r_mmod_Torsional_Energy-OPLS-2005>
344.207702636719

> <r_mmod_Improper_Torsional_Energy-OPLS-2005>
8.87855052947998

> <r_mmod_Van_der_Waal_Energy-OPLS-2005>
134.837249755859

> <r_mmod_Electrostatic_Energy-OPLS-2005>
-338.903442382812

> <r_mmod_Solvation_Energy-OPLS-2005>
-193.682830810547

> <b_mmod_Minimization_Converged-OPLS-2005>
0

> <r_mmod_RMS_Derivative-OPLS-2005>
3.72656440734863

$$$$
30
                    3D
 Structure written by MMmdl.
169178  0  0  1  0            999 V2000
  -30.5377  -14.9854   20.4389 C   0  0  0  0  0  0
  -30.4384  -12.6155   19.5054 C   0  0  0  0  0  0
  -29.5217  -12.5486   18.2611 C   0  0  0  0  0  0
  -28.0554  -12.3280   18.6754 C   0  0  0  0  0  0
  -27.6308  -13.2531   19.8457 C   0  0  2  0  0  0
  -28.6734  -13.2658   20.9829 C   0  0  0  0  0  0
  -25.2465  -13.8228   20.5733 C   0  0  0  0  0  0
  -24.1776  -13.0444   20.9219 C   0  0  0  0  0  0
  -24.6397  -11.6930   20.8745 C   0  0  0  0  0  0
  -23.9083  -10.4297   21.0400 C   0  0  0  0  0  0
  -24.3630   -9.4211   21.9179 C   0  0  0  0  0  0
  -23.6301   -8.2248   22.0752 C   0  0  0  0  0  0
  -22.4282   -8.0285   21.3545 C   0  0  0  0  0  0
  -21.9921   -9.0258   20.4645 C   0  0  0  0  0  0
  -22.7254  -10.2136   20.3051 C   0  0  0  0  0  0
  -21.6856   -6.0739   22.5280 C   0  0  0  0  0  0
  -21.4015   -6.5642   23.8213 C   0  0  0  0  0  0
  -21.3659   -5.6793   24.9174 C   0  0  0  0  0  0
  -21.6043   -4.3056   24.7224 C   0  0  0  0  0  0
  -21.8818   -3.8149   23.4344 C   0  0  0  0  0  0
  -21.9193   -4.6966   22.3401 C   0  0  0  0  0  0
  -22.7795  -13.5212   21.1873 C   0  0  0  0  0  0
  -22.1661   -4.2152   21.0979 F   0  0  0  0  0  0
  -21.5629   -3.4539   25.7736 F   0  0  0  0  0  0
  -29.9419  -13.7156   20.3912 N   0  0  0  0  0  0
  -26.2895  -12.9467   20.3281 N   0  0  0  0  0  0
  -25.9337  -11.6590   20.5745 N   0  0  0  0  0  0
  -22.0447  -12.8196   22.0429 N   0  0  0  0  0  0
  -25.4153  -15.1955   20.4193 N   0  0  0  0  0  0
  -31.7173  -15.0251   20.0641 O   0  0  0  0  0  0
  -21.6644   -6.8883   21.4242 O   0  0  0  0  0  0
  -22.3473  -14.5515   20.6719 O   0  0  0  0  0  0
  -24.6460  -31.8407   23.1856 C   0  0  0  0  0  0
  -25.9218  -32.4678   23.8256 C   0  0  1  0  0  0
  -27.2166  -27.1023   20.1544 C   0  0  0  0  0  0
  -25.5955  -33.8486   24.2167 N   0  0  0  0  0  0
  -23.4515  -30.4585   21.5313 C   0  0  2  0  0  0
  -24.9017  -28.8801   20.1067 C   0  0  0  0  0  0
  -22.7582  -29.4528   22.4846 C   0  0  0  0  0  0
  -18.0306  -28.1403   22.8477 C   0  0  0  0  0  0
  -24.1490  -36.7244   23.2645 C   0  0  0  0  0  0
  -26.0091  -30.7022   21.3911 C   0  0  0  0  0  0
  -26.0778  -29.3103   20.7326 C   0  0  0  0  0  0
  -27.2322  -28.4361   20.7422 C   0  0  0  0  0  0
  -26.0198  -26.7882   19.4732 C   0  0  0  0  0  0
  -24.8879  -27.6344   19.4608 C   0  0  0  0  0  0
  -23.6793  -29.7859   20.1509 C   0  0  0  0  0  0
  -25.4124  -36.3022   24.0313 C   0  0  1  0  0  0
  -20.5921  -28.3729   23.1231 C   0  0  2  0  0  0
  -20.6790  -26.9428   22.5409 C   0  0  0  0  0  0
  -19.5764  -26.6383   21.5218 C   0  0  0  0  0  0
  -18.1942  -26.7943   22.1621 C   0  0  0  0  0  0
  -19.1564  -28.8884   23.2847 C   0  0  0  0  0  0
  -18.9481  -30.1480   23.8873 C   0  0  0  0  0  0
  -17.6477  -30.6598   24.0562 C   0  0  0  0  0  0
  -25.9079  -34.9399   23.5051 C   0  0  0  0  0  0
  -16.5368  -29.9089   23.6343 C   0  0  0  0  0  0
  -16.7290  -28.6510   23.0360 C   0  0  0  0  0  0
  -26.4530  -31.6566   25.0716 C   0  0  0  0  0  0
  -25.3699  -31.3764   26.1399 C   0  0  0  0  0  0
  -27.0415  -30.2962   24.6330 C   0  0  0  0  0  0
  -27.6053  -32.4345   25.7500 C   0  0  0  0  0  0
  -27.5574  -37.1779   24.8465 C   0  0  0  0  0  0
  -21.4270  -29.3047   22.3598 N   0  0  0  0  0  0
  -26.4283  -37.3741   23.9410 N   0  0  0  0  0  0
  -24.7222  -31.0229   22.0908 N   0  0  0  0  0  0
  -23.4209  -28.8081   23.3013 O   0  0  0  0  0  0
  -28.2647  -26.1044   20.2607 O   0  0  0  0  0  0
  -26.5673  -34.8904   22.4635 O   0  0  0  0  0  0
  -23.5570  -32.1300   23.7051 O   0  0  0  0  0  0
  -29.2740  -17.9757   22.2906 C   0  0  0  0  0  0
  -29.4523  -18.7985   21.1627 C   0  0  0  0  0  0
  -29.1223  -18.4994   23.5850 C   0  0  0  0  0  0
  -29.3900  -20.3192   21.3041 C   0  0  0  0  0  0
  -29.3631  -19.8747   23.7749 C   0  0  0  0  0  0
  -29.6217  -20.7230   22.6630 C   0  0  0  0  0  0
  -29.2784  -16.4665   22.0058 C   0  0  0  0  0  0
  -29.7704  -17.6728   20.0507 C   0  0  0  0  0  0
  -28.8288  -17.5860   24.7732 C   0  0  0  0  0  0
  -29.3986  -20.4386   25.1971 C   0  0  0  0  0  0
  -30.3285  -22.0380   22.9781 C   0  0  0  0  0  0
  -31.1210  -18.0042   19.3929 C   0  0  0  0  0  0
  -28.6662  -17.7182   18.9816 C   0  0  0  0  0  0
  -29.0607  -21.5900   20.2598 C   0  0  0  0  0  0
  -28.8429  -23.2512   20.7046 C   0  0  0  0  0  0
  -28.1231  -24.5735   19.9136 C   0  0  0  0  0  0
  -29.7844  -16.2004   20.6564 N   0  0  0  0  0  0
  -31.4714  -12.7698   19.1901 H   0  0  0  0  0  0
  -30.4394  -11.6619   20.0360 H   0  0  0  0  0  0
  -29.8471  -11.7525   17.5903 H   0  0  0  0  0  0
  -29.6057  -13.4787   17.6964 H   0  0  0  0  0  0
  -27.9523  -11.2847   18.9760 H   0  0  0  0  0  0
  -27.3925  -12.4651   17.8201 H   0  0  0  0  0  0
  -27.5970  -14.2604   19.4289 H   0  0  0  0  0  0
  -28.7748  -12.2751   21.4280 H   0  0  0  0  0  0
  -28.3569  -13.9196   21.7923 H   0  0  0  0  0  0
  -25.2774   -9.5688   22.4756 H   0  0  0  0  0  0
  -24.0009   -7.4641   22.7473 H   0  0  0  0  0  0
  -21.0852   -8.8776   19.8951 H   0  0  0  0  0  0
  -22.3709  -10.9673   19.6159 H   0  0  0  0  0  0
  -21.2008   -7.6149   23.9718 H   0  0  0  0  0  0
  -21.1481   -6.0522   25.9077 H   0  0  0  0  0  0
  -22.0597   -2.7612   23.2844 H   0  0  0  0  0  0
  -22.4073  -11.9863   22.4819 H   0  0  0  0  0  0
  -21.1059  -13.1207   22.2627 H   0  0  0  0  0  0
  -24.6501  -15.8500   20.5393 H   0  0  0  0  0  0
  -26.2705  -15.6384   20.1101 H   0  0  0  0  0  0
  -26.7282  -32.5271   23.0978 H   0  0  0  0  0  0
  -25.0083  -33.9601   25.0301 H   0  0  0  0  0  0
  -22.7559  -31.2856   21.3748 H   0  0  0  0  0  0
  -23.3766  -35.9563   23.3289 H   0  0  0  0  0  0
  -24.3572  -36.8896   22.2063 H   0  0  0  0  0  0
  -23.7228  -37.6426   23.6698 H   0  0  0  0  0  0
  -26.1706  -31.4551   20.6182 H   0  0  0  0  0  0
  -26.8770  -30.7516   22.0370 H   0  0  0  0  0  0
  -28.1237  -28.7571   21.2622 H   0  0  0  0  0  0
  -25.9204  -25.8448   18.9592 H   0  0  0  0  0  0
  -23.9929  -27.3036   18.9518 H   0  0  0  0  0  0
  -23.8166  -30.5599   19.3950 H   0  0  0  0  0  0
  -22.7935  -29.2293   19.8401 H   0  0  0  0  0  0
  -25.1314  -36.1845   25.0805 H   0  0  0  0  0  0
  -21.0014  -28.3322   24.1352 H   0  0  0  0  0  0
  -20.5686  -26.2343   23.3632 H   0  0  0  0  0  0
  -21.6654  -26.7432   22.1204 H   0  0  0  0  0  0
  -19.6926  -25.6287   21.1265 H   0  0  0  0  0  0
  -19.6705  -27.3181   20.6738 H   0  0  0  0  0  0
  -17.4217  -26.6702   21.4017 H   0  0  0  0  0  0
  -18.0325  -26.0087   22.9015 H   0  0  0  0  0  0
  -19.7958  -30.7306   24.2228 H   0  0  0  0  0  0
  -17.5030  -31.6276   24.5167 H   0  0  0  0  0  0
  -15.5368  -30.2983   23.7686 H   0  0  0  0  0  0
  -15.8690  -28.0823   22.7087 H   0  0  0  0  0  0
  -24.5897  -30.7092   25.7713 H   0  0  0  0  0  0
  -24.8866  -32.2948   26.4744 H   0  0  0  0  0  0
  -25.7964  -30.8991   27.0230 H   0  0  0  0  0  0
  -26.3053  -29.6666   24.1322 H   0  0  0  0  0  0
  -27.4006  -29.7281   25.4921 H   0  0  0  0  0  0
  -27.8962  -30.4200   23.9675 H   0  0  0  0  0  0
  -27.2648  -33.3677   26.1998 H   0  0  0  0  0  0
  -28.3900  -32.6854   25.0351 H   0  0  0  0  0  0
  -28.0682  -31.8526   26.5479 H   0  0  0  0  0  0
  -28.2581  -38.0087   24.7518 H   0  0  0  0  0  0
  -28.1080  -36.2615   24.6282 H   0  0  0  0  0  0
  -27.2295  -37.1410   25.8870 H   0  0  0  0  0  0
  -20.9489  -29.8749   21.6763 H   0  0  0  0  0  0
  -26.0147  -38.2807   24.1418 H   0  0  0  0  0  0
  -28.2554  -16.1007   22.0914 H   0  0  0  0  0  0
  -29.8927  -15.9490   22.7451 H   0  0  0  0  0  0
  -28.5996  -16.5604   24.4909 H   0  0  0  0  0  0
  -27.9591  -17.9423   25.3249 H   0  0  0  0  0  0
  -29.6812  -17.5595   25.4527 H   0  0  0  0  0  0
  -28.6711  -19.9658   25.8539 H   0  0  0  0  0  0
  -29.1569  -21.5009   25.2241 H   0  0  0  0  0  0
  -30.3877  -20.3010   25.6346 H   0  0  0  0  0  0
  -30.9641  -22.3478   22.1511 H   0  0  0  0  0  0
  -31.0285  -21.9105   23.8040 H   0  0  0  0  0  0
  -29.6422  -22.8324   23.2658 H   0  0  0  0  0  0
  -31.1145  -19.0061   18.9619 H   0  0  0  0  0  0
  -31.3634  -17.3077   18.5899 H   0  0  0  0  0  0
  -31.9316  -17.9692   20.1213 H   0  0  0  0  0  0
  -28.6102  -18.7007   18.5110 H   0  0  0  0  0  0
  -27.6887  -17.5112   19.4179 H   0  0  0  0  0  0
  -28.8385  -16.9836   18.1941 H   0  0  0  0  0  0
  -28.1433  -21.2897   19.7535 H   0  0  0  0  0  0
  -29.8240  -21.5558   19.4821 H   0  0  0  0  0  0
  -29.8298  -23.6374   20.9444 H   0  0  0  0  0  0
  -28.2866  -23.2200   21.6395 H   0  0  0  0  0  0
  -27.0614  -24.3342   19.9135 H   0  0  0  0  0  0
  -28.4223  -24.5038   18.8676 H   0  0  0  0  0  0
  1 25  1  0  0  0
  1 30  2  0  0  0
  1 87  1  0  0  0
  2  3  1  0  0  0
  2 25  1  0  0  0
  2 88  1  0  0  0
  2 89  1  0  0  0
  3  4  1  0  0  0
  3 90  1  0  0  0
  3 91  1  0  0  0
  4  5  1  0  0  0
  4 92  1  0  0  0
  4 93  1  0  0  0
  5  6  1  0  0  0
  5 26  1  0  0  0
  5 94  1  0  0  0
  6 25  1  0  0  0
  6 95  1  0  0  0
  6 96  1  0  0  0
  7  8  2  0  0  0
  7 26  1  0  0  0
  7 29  1  0  0  0
  8  9  1  0  0  0
  8 22  1  0  0  0
  9 10  1  0  0  0
  9 27  2  0  0  0
 10 11  2  0  0  0
 10 15  1  0  0  0
 11 12  1  0  0  0
 11 97  1  0  0  0
 12 13  2  0  0  0
 12 98  1  0  0  0
 13 14  1  0  0  0
 13 31  1  0  0  0
 14 15  2  0  0  0
 14 99  1  0  0  0
 15100  1  0  0  0
 16 17  2  0  0  0
 16 21  1  0  0  0
 16 31  1  0  0  0
 17 18  1  0  0  0
 17101  1  0  0  0
 18 19  2  0  0  0
 18102  1  0  0  0
 19 20  1  0  0  0
 19 24  1  0  0  0
 20 21  2  0  0  0
 20103  1  0  0  0
 21 23  1  0  0  0
 22 28  1  0  0  0
 22 32  2  0  0  0
 26 27  1  0  0  0
 28104  1  0  0  0
 28105  1  0  0  0
 29106  1  0  0  0
 29107  1  0  0  0
 33 34  1  0  0  0
 33 66  1  0  0  0
 33 70  2  0  0  0
 34 36  1  0  0  0
 34 59  1  0  0  0
 34108  1  0  0  0
 35 44  2  0  0  0
 35 45  1  0  0  0
 35 68  1  0  0  0
 36 56  1  0  0  0
 36109  1  0  0  0
 37 39  1  0  0  0
 37 47  1  0  0  0
 37 66  1  0  0  0
 37110  1  0  0  0
 38 43  2  0  0  0
 38 46  1  0  0  0
 38 47  1  0  0  0
 39 64  1  0  0  0
 39 67  2  0  0  0
 40 52  1  0  0  0
 40 53  2  0  0  0
 40 58  1  0  0  0
 41111  1  0  0  0
 41112  1  0  0  0
 41113  1  0  0  0
 41 48  1  0  0  0
 42 43  1  0  0  0
 42 66  1  0  0  0
 42114  1  0  0  0
 42115  1  0  0  0
 43 44  1  0  0  0
 44116  1  0  0  0
 45 46  2  0  0  0
 45117  1  0  0  0
 46118  1  0  0  0
 47119  1  0  0  0
 47120  1  0  0  0
 48 56  1  0  0  0
 48 65  1  0  0  0
 48121  1  0  0  0
 49 50  1  0  0  0
 49 53  1  0  0  0
 49 64  1  0  0  0
 49122  1  0  0  0
 50 51  1  0  0  0
 50123  1  0  0  0
 50124  1  0  0  0
 51 52  1  0  0  0
 51125  1  0  0  0
 51126  1  0  0  0
 52127  1  0  0  0
 52128  1  0  0  0
 53 54  1  0  0  0
 54 55  2  0  0  0
 54129  1  0  0  0
 55 57  1  0  0  0
 55130  1  0  0  0
 56 69  2  0  0  0
 57 58  2  0  0  0
 57131  1  0  0  0
 58132  1  0  0  0
 59 60  1  0  0  0
 59 61  1  0  0  0
 59 62  1  0  0  0
 60133  1  0  0  0
 60134  1  0  0  0
 60135  1  0  0  0
 61136  1  0  0  0
 61137  1  0  0  0
 61138  1  0  0  0
 62139  1  0  0  0
 62140  1  0  0  0
 62141  1  0  0  0
 63 65  1  0  0  0
 63142  1  0  0  0
 63143  1  0  0  0
 63144  1  0  0  0
 64145  1  0  0  0
 65146  1  0  0  0
 68 86  1  0  0  0
 71 72  1  0  0  0
 71 73  2  0  0  0
 71 77  1  0  0  0
 72 74  2  0  0  0
 72 78  1  0  0  0
 73 75  1  0  0  0
 73 79  1  0  0  0
 74 76  1  0  0  0
 74 84  1  0  0  0
 75 76  2  0  0  0
 75 80  1  0  0  0
 76 81  1  0  0  0
 77 87  1  0  0  0
 77147  1  0  0  0
 77148  1  0  0  0
 78 82  1  0  0  0
 78 83  1  0  0  0
 78 87  1  0  0  0
 79149  1  0  0  0
 79150  1  0  0  0
 79151  1  0  0  0
 80152  1  0  0  0
 80153  1  0  0  0
 80154  1  0  0  0
 81155  1  0  0  0
 81156  1  0  0  0
 81157  1  0  0  0
 82158  1  0  0  0
 82159  1  0  0  0
 82160  1  0  0  0
 83161  1  0  0  0
 83162  1  0  0  0
 83163  1  0  0  0
 84 85  1  0  0  0
 84164  1  0  0  0
 84165  1  0  0  0
 85 86  1  0  0  0
 85166  1  0  0  0
 85167  1  0  0  0
 86168  1  0  0  0
 86169  1  0  0  0
M  ISO  4   1 100  68 101  86 101  87 100
M  END
> <chiral flag>
0

> <version>
0

> <s_m_source_file>
/data/baiqing/PycharmProjects/Reinvent-master-3.2/result/LINK_invent/BTK/process_docking_weight1_custom_sum_contain_oxygen_bond_distance_aromatic_linkinvent_7_9_3/rearranged_h_0163.sdf

> <i_m_source_file_index>
31

> <r_mmod_Potential_Energy-OPLS-2005>
856.454956054688

> <r_mmod_Stretch_Energy-OPLS-2005>
331.104278564453

> <r_mmod_Bend_Energy-OPLS-2005>
372.795623779297

> <r_mmod_Torsional_Energy-OPLS-2005>
329.472351074219

> <r_mmod_Improper_Torsional_Energy-OPLS-2005>
8.81601905822754

> <r_mmod_Van_der_Waal_Energy-OPLS-2005>
146.748031616211

> <r_mmod_Electrostatic_Energy-OPLS-2005>
-354.036071777344

> <r_mmod_Solvation_Energy-OPLS-2005>
-194.313842773438

> <b_mmod_Minimization_Converged-OPLS-2005>
0

> <r_mmod_RMS_Derivative-OPLS-2005>
0.434293925762177

$$$$
31
                    3D
 Structure written by MMmdl.
183193  0  0  1  0            999 V2000
  -30.6887  -14.5194   20.5080 C   0  0  0  0  0  0
  -30.4186  -12.3152   19.4436 C   0  0  0  0  0  0
  -29.5008  -12.4919   18.2178 C   0  0  0  0  0  0
  -28.0193  -12.3591   18.6257 C   0  0  0  0  0  0
  -27.6543  -13.2150   19.8712 C   0  0  2  0  0  0
  -28.6994  -13.0408   20.9959 C   0  0  0  0  0  0
  -25.2553  -13.8192   20.5706 C   0  0  0  0  0  0
  -24.1817  -13.0431   20.9203 C   0  0  0  0  0  0
  -24.6398  -11.6911   20.8759 C   0  0  0  0  0  0
  -23.9059  -10.4292   21.0409 C   0  0  0  0  0  0
  -24.3616   -9.4205   21.9185 C   0  0  0  0  0  0
  -23.6297   -8.2233   22.0750 C   0  0  0  0  0  0
  -22.4274   -8.0273   21.3553 C   0  0  0  0  0  0
  -21.9914   -9.0236   20.4643 C   0  0  0  0  0  0
  -22.7236  -10.2117   20.3054 C   0  0  0  0  0  0
  -21.6847   -6.0739   22.5292 C   0  0  0  0  0  0
  -21.4002   -6.5641   23.8225 C   0  0  0  0  0  0
  -21.3669   -5.6794   24.9188 C   0  0  0  0  0  0
  -21.6055   -4.3056   24.7233 C   0  0  0  0  0  0
  -21.8819   -3.8153   23.4351 C   0  0  0  0  0  0
  -21.9178   -4.6968   22.3411 C   0  0  0  0  0  0
  -22.7837  -13.5208   21.1853 C   0  0  0  0  0  0
  -22.1640   -4.2156   21.0986 F   0  0  0  0  0  0
  -21.5640   -3.4542   25.7747 F   0  0  0  0  0  0
  -30.0191  -13.3371   20.4248 N   0  0  0  0  0  0
  -26.2988  -12.9373   20.3393 N   0  0  0  0  0  0
  -25.9324  -11.6521   20.5806 N   0  0  0  0  0  0
  -22.0465  -12.8212   22.0417 N   0  0  0  0  0  0
  -25.4267  -15.1911   20.4135 N   0  0  0  0  0  0
  -31.8736  -14.6164   20.1714 O   0  0  0  0  0  0
  -21.6633   -6.8874   21.4252 O   0  0  0  0  0  0
  -22.3516  -14.5495   20.6676 O   0  0  0  0  0  0
  -24.6169  -31.8651   23.2078 C   0  0  0  0  0  0
  -25.9045  -32.4807   23.8394 C   0  0  1  0  0  0
  -27.2318  -27.4030   20.1096 C   0  0  0  0  0  0
  -25.5876  -33.8599   24.2313 N   0  0  0  0  0  0
  -23.4076  -30.4875   21.5498 C   0  0  2  0  0  0
  -24.8528  -28.9488   20.1144 C   0  0  0  0  0  0
  -22.7418  -29.4633   22.4987 C   0  0  0  0  0  0
  -18.0271  -28.1388   22.8453 C   0  0  0  0  0  0
  -24.1474  -36.7322   23.2641 C   0  0  0  0  0  0
  -25.9373  -30.8252   21.3592 C   0  0  0  0  0  0
  -26.0151  -29.4546   20.7118 C   0  0  0  0  0  0
  -27.2076  -28.6902   20.7024 C   0  0  0  0  0  0
  -26.0536  -26.9258   19.4913 C   0  0  0  0  0  0
  -24.8696  -27.6865   19.4964 C   0  0  0  0  0  0
  -23.6161  -29.8173   20.1640 C   0  0  0  0  0  0
  -25.4095  -36.3103   24.0352 C   0  0  1  0  0  0
  -20.5860  -28.3669   23.1322 C   0  0  2  0  0  0
  -20.6747  -26.9398   22.5437 C   0  0  0  0  0  0
  -19.5765  -26.6415   21.5167 C   0  0  0  0  0  0
  -18.1915  -26.7972   22.1506 C   0  0  0  0  0  0
  -19.1520  -28.8837   23.2895 C   0  0  0  0  0  0
  -18.9445  -30.1431   23.8938 C   0  0  0  0  0  0
  -17.6445  -30.6570   24.0594 C   0  0  0  0  0  0
  -25.9042  -34.9462   23.5143 C   0  0  0  0  0  0
  -16.5344  -29.9083   23.6314 C   0  0  0  0  0  0
  -16.7266  -28.6509   23.0320 C   0  0  0  0  0  0
  -26.4463  -31.6570   25.0716 C   0  0  0  0  0  0
  -25.3728  -31.3649   26.1462 C   0  0  0  0  0  0
  -27.0259  -30.3008   24.6055 C   0  0  0  0  0  0
  -27.6038  -32.4273   25.7496 C   0  0  0  0  0  0
  -27.5575  -37.1813   24.8461 C   0  0  0  0  0  0
  -21.4143  -29.3061   22.3758 N   0  0  0  0  0  0
  -26.4264  -37.3803   23.9431 N   0  0  0  0  0  0
  -24.6734  -31.0732   22.0986 N   0  0  0  0  0  0
  -23.4181  -28.8139   23.3015 O   0  0  0  0  0  0
  -28.3857  -26.6348   20.1251 O   0  0  0  0  0  0
  -26.5624  -34.8911   22.4715 O   0  0  0  0  0  0
  -23.5356  -32.1412   23.7453 O   0  0  0  0  0  0
  -30.1409  -20.5649   20.1569 C   0  0  0  0  0  0
  -27.7479  -20.5852   20.4269 C   0  0  0  0  0  0
  -30.1340  -21.9632   19.9112 C   0  0  0  0  0  0
  -28.9134  -22.7105   19.9091 C   0  0  0  0  0  0
  -28.9503  -19.8502   20.3955 C   0  0  0  0  0  0
  -27.7109  -21.9867   20.1906 C   0  0  0  0  0  0
  -29.6173  -17.8483   21.6881 C   0  0  0  0  0  0
  -29.0284  -17.6896   19.2812 C   0  0  0  0  0  0
  -29.4496  -16.2997   21.7205 C   0  0  0  0  0  0
  -30.0920  -16.5646   19.3420 C   0  0  0  0  0  0
  -25.5094  -22.2755   19.1799 C   0  0  0  0  0  0
  -25.7688  -22.6644   21.5011 C   0  0  0  0  0  0
  -24.1858  -22.8518   19.6826 C   0  0  2  0  0  0
  -24.2653  -22.5286   21.1818 C   0  0  2  0  0  0
  -31.4765  -22.6172   19.6111 C   0  0  0  0  0  0
  -22.9595  -22.2815   18.9537 C   0  0  0  0  0  0
  -28.4113  -24.4168   18.0697 C   0  0  0  0  0  0
  -28.2441  -25.2372   20.5028 C   0  0  0  0  0  0
  -28.9126  -24.2297   19.5113 C   0  0  1  0  0  0
  -28.9312  -18.4397   20.5364 N   0  0  0  0  0  0
  -26.4673  -22.6400   20.2151 N   0  0  0  0  0  0
  -29.9087  -15.6360   20.4805 N   0  0  0  0  0  0
  -23.4176  -23.3863   22.0298 N   0  3  0  0  0  0
  -31.4677  -12.4006   19.1498 H   0  0  0  0  0  0
  -30.3088  -11.3166   19.8710 H   0  0  0  0  0  0
  -29.7484  -11.7554   17.4534 H   0  0  0  0  0  0
  -29.6730  -13.4696   17.7666 H   0  0  0  0  0  0
  -27.8262  -11.3044   18.8284 H   0  0  0  0  0  0
  -27.3745  -12.6253   17.7886 H   0  0  0  0  0  0
  -27.6814  -14.2576   19.5529 H   0  0  0  0  0  0
  -28.6813  -12.0206   21.3812 H   0  0  0  0  0  0
  -28.4741  -13.6868   21.8446 H   0  0  0  0  0  0
  -25.2757   -9.5670   22.4768 H   0  0  0  0  0  0
  -24.0003   -7.4617   22.7456 H   0  0  0  0  0  0
  -21.0856   -8.8744   19.8942 H   0  0  0  0  0  0
  -22.3696  -10.9648   19.6154 H   0  0  0  0  0  0
  -21.1987   -7.6149   23.9736 H   0  0  0  0  0  0
  -21.1501   -6.0523   25.9092 H   0  0  0  0  0  0
  -22.0593   -2.7617   23.2857 H   0  0  0  0  0  0
  -22.4056  -11.9855   22.4822 H   0  0  0  0  0  0
  -21.1070  -13.1227   22.2575 H   0  0  0  0  0  0
  -24.6666  -15.8484   20.5473 H   0  0  0  0  0  0
  -26.2957  -15.6366   20.1464 H   0  0  0  0  0  0
  -26.7136  -32.5558   23.1185 H   0  0  0  0  0  0
  -24.9950  -33.9751   25.0399 H   0  0  0  0  0  0
  -22.6995  -31.3071   21.4097 H   0  0  0  0  0  0
  -23.3724  -35.9667   23.3279 H   0  0  0  0  0  0
  -24.3570  -36.8954   22.2055 H   0  0  0  0  0  0
  -23.7220  -37.6516   23.6668 H   0  0  0  0  0  0
  -26.0356  -31.5826   20.5784 H   0  0  0  0  0  0
  -26.8304  -30.8943   21.9697 H   0  0  0  0  0  0
  -28.1032  -29.0771   21.1702 H   0  0  0  0  0  0
  -26.0444  -25.9616   19.0047 H   0  0  0  0  0  0
  -23.9809  -27.2959   19.0194 H   0  0  0  0  0  0
  -23.7218  -30.5875   19.3984 H   0  0  0  0  0  0
  -22.7419  -29.2313   19.8724 H   0  0  0  0  0  0
  -25.1259  -36.1983   25.0847 H   0  0  0  0  0  0
  -20.9928  -28.3224   24.1447 H   0  0  0  0  0  0
  -20.5552  -26.2269   23.3619 H   0  0  0  0  0  0
  -21.6652  -26.7448   22.1290 H   0  0  0  0  0  0
  -19.6910  -25.6342   21.1144 H   0  0  0  0  0  0
  -19.6746  -27.3252   20.6723 H   0  0  0  0  0  0
  -17.4249  -26.6838   21.3826 H   0  0  0  0  0  0
  -18.0196  -26.0047   22.8793 H   0  0  0  0  0  0
  -19.7928  -30.7221   24.2337 H   0  0  0  0  0  0
  -17.5004  -31.6244   24.5213 H   0  0  0  0  0  0
  -15.5339  -30.2990   23.7612 H   0  0  0  0  0  0
  -15.8668  -28.0839   22.7005 H   0  0  0  0  0  0
  -24.5955  -30.6932   25.7805 H   0  0  0  0  0  0
  -24.8877  -32.2787   26.4899 H   0  0  0  0  0  0
  -25.8119  -30.8847   27.0225 H   0  0  0  0  0  0
  -26.2774  -29.6813   24.1104 H   0  0  0  0  0  0
  -27.4000  -29.7201   25.4501 H   0  0  0  0  0  0
  -27.8635  -30.4301   23.9195 H   0  0  0  0  0  0
  -27.2644  -33.3568   26.2086 H   0  0  0  0  0  0
  -28.3860  -32.6831   25.0331 H   0  0  0  0  0  0
  -28.0682  -31.8375   26.5404 H   0  0  0  0  0  0
  -28.2578  -38.0124   24.7532 H   0  0  0  0  0  0
  -28.1088  -36.2658   24.6261 H   0  0  0  0  0  0
  -27.2307  -37.1436   25.8865 H   0  0  0  0  0  0
  -20.9276  -29.8884   21.7091 H   0  0  0  0  0  0
  -26.0151  -38.2878   24.1456 H   0  0  0  0  0  0
  -31.0740  -20.0205   20.1261 H   0  0  0  0  0  0
  -26.8276  -20.0541   20.6159 H   0  0  0  0  0  0
  -30.6783  -18.1002   21.6487 H   0  0  0  0  0  0
  -29.2329  -18.2867   22.6112 H   0  0  0  0  0  0
  -28.0506  -17.2538   19.0606 H   0  0  0  0  0  0
  -29.2588  -18.3560   18.4480 H   0  0  0  0  0  0
  -28.3995  -16.0503   21.8703 H   0  0  0  0  0  0
  -29.9812  -15.8995   22.5857 H   0  0  0  0  0  0
  -31.0878  -17.0104   19.3962 H   0  0  0  0  0  0
  -30.0662  -16.0002   18.4070 H   0  0  0  0  0  0
  -25.7767  -22.6824   18.2054 H   0  0  0  0  0  0
  -25.4426  -21.1901   19.0713 H   0  0  0  0  0  0
  -26.0983  -21.8720   22.1747 H   0  0  0  0  0  0
  -25.9830  -23.6117   21.9969 H   0  0  0  0  0  0
  -24.2155  -23.9346   19.5406 H   0  0  0  0  0  0
  -23.9734  -21.4879   21.3433 H   0  0  0  0  0  0
  -32.2939  -21.8952   19.6507 H   0  0  0  0  0  0
  -31.7004  -23.3940   20.3419 H   0  0  0  0  0  0
  -31.4775  -23.0597   18.6137 H   0  0  0  0  0  0
  -22.8695  -21.2018   19.0924 H   0  0  0  0  0  0
  -23.0299  -22.4688   17.8813 H   0  0  0  0  0  0
  -22.0369  -22.7421   19.3059 H   0  0  0  0  0  0
  -28.9817  -23.7958   17.3796 H   0  0  0  0  0  0
  -28.5191  -25.4498   17.7427 H   0  0  0  0  0  0
  -27.3623  -24.1528   17.9638 H   0  0  0  0  0  0
  -27.2030  -24.9868   20.6803 H   0  0  0  0  0  0
  -28.7232  -25.1219   21.4758 H   0  0  0  0  0  0
  -29.9437  -24.5697   19.4868 H   0  0  0  0  0  0
  -23.6635  -24.3545   21.9237 H   0  0  0  0  0  0
  -23.5337  -23.1314   22.9945 H   0  0  0  0  0  0
  -22.4469  -23.2727   21.7965 H   0  0  0  0  0  0
  1 25  1  0  0  0
  1 30  2  0  0  0
  1 92  1  0  0  0
  2  3  1  0  0  0
  2 25  1  0  0  0
  2 94  1  0  0  0
  2 95  1  0  0  0
  3  4  1  0  0  0
  3 96  1  0  0  0
  3 97  1  0  0  0
  4  5  1  0  0  0
  4 98  1  0  0  0
  4 99  1  0  0  0
  5  6  1  0  0  0
  5 26  1  0  0  0
  5100  1  0  0  0
  6 25  1  0  0  0
  6101  1  0  0  0
  6102  1  0  0  0
  7  8  2  0  0  0
  7 26  1  0  0  0
  7 29  1  0  0  0
  8  9  1  0  0  0
  8 22  1  0  0  0
  9 10  1  0  0  0
  9 27  2  0  0  0
 10 11  2  0  0  0
 10 15  1  0  0  0
 11 12  1  0  0  0
 11103  1  0  0  0
 12 13  2  0  0  0
 12104  1  0  0  0
 13 14  1  0  0  0
 13 31  1  0  0  0
 14 15  2  0  0  0
 14105  1  0  0  0
 15106  1  0  0  0
 16 17  2  0  0  0
 16 21  1  0  0  0
 16 31  1  0  0  0
 17 18  1  0  0  0
 17107  1  0  0  0
 18 19  2  0  0  0
 18108  1  0  0  0
 19 20  1  0  0  0
 19 24  1  0  0  0
 20 21  2  0  0  0
 20109  1  0  0  0
 21 23  1  0  0  0
 22 28  1  0  0  0
 22 32  2  0  0  0
 26 27  1  0  0  0
 28110  1  0  0  0
 28111  1  0  0  0
 29112  1  0  0  0
 29113  1  0  0  0
 33 34  1  0  0  0
 33 66  1  0  0  0
 33 70  2  0  0  0
 34 36  1  0  0  0
 34 59  1  0  0  0
 34114  1  0  0  0
 35 44  2  0  0  0
 35 45  1  0  0  0
 35 68  1  0  0  0
 36 56  1  0  0  0
 36115  1  0  0  0
 37 39  1  0  0  0
 37 47  1  0  0  0
 37 66  1  0  0  0
 37116  1  0  0  0
 38 43  2  0  0  0
 38 46  1  0  0  0
 38 47  1  0  0  0
 39 64  1  0  0  0
 39 67  2  0  0  0
 40 52  1  0  0  0
 40 53  2  0  0  0
 40 58  1  0  0  0
 41117  1  0  0  0
 41118  1  0  0  0
 41119  1  0  0  0
 41 48  1  0  0  0
 42 43  1  0  0  0
 42 66  1  0  0  0
 42120  1  0  0  0
 42121  1  0  0  0
 43 44  1  0  0  0
 44122  1  0  0  0
 45 46  2  0  0  0
 45123  1  0  0  0
 46124  1  0  0  0
 47125  1  0  0  0
 47126  1  0  0  0
 48 56  1  0  0  0
 48 65  1  0  0  0
 48127  1  0  0  0
 49 50  1  0  0  0
 49 53  1  0  0  0
 49 64  1  0  0  0
 49128  1  0  0  0
 50 51  1  0  0  0
 50129  1  0  0  0
 50130  1  0  0  0
 51 52  1  0  0  0
 51131  1  0  0  0
 51132  1  0  0  0
 52133  1  0  0  0
 52134  1  0  0  0
 53 54  1  0  0  0
 54 55  2  0  0  0
 54135  1  0  0  0
 55 57  1  0  0  0
 55136  1  0  0  0
 56 69  2  0  0  0
 57 58  2  0  0  0
 57137  1  0  0  0
 58138  1  0  0  0
 59 60  1  0  0  0
 59 61  1  0  0  0
 59 62  1  0  0  0
 60139  1  0  0  0
 60140  1  0  0  0
 60141  1  0  0  0
 61142  1  0  0  0
 61143  1  0  0  0
 61144  1  0  0  0
 62145  1  0  0  0
 62146  1  0  0  0
 62147  1  0  0  0
 63 65  1  0  0  0
 63148  1  0  0  0
 63149  1  0  0  0
 63150  1  0  0  0
 64151  1  0  0  0
 65152  1  0  0  0
 68 88  1  0  0  0
 71 73  2  0  0  0
 71 75  1  0  0  0
 71153  1  0  0  0
 72 75  2  0  0  0
 72 76  1  0  0  0
 72154  1  0  0  0
 73 74  1  0  0  0
 73 85  1  0  0  0
 74 76  2  0  0  0
 74 89  1  0  0  0
 75 90  1  0  0  0
 76 91  1  0  0  0
 77 79  1  0  0  0
 77 90  1  0  0  0
 77155  1  0  0  0
 77156  1  0  0  0
 78 80  1  0  0  0
 78 90  1  0  0  0
 78157  1  0  0  0
 78158  1  0  0  0
 79 92  1  0  0  0
 79159  1  0  0  0
 79160  1  0  0  0
 80 92  1  0  0  0
 80161  1  0  0  0
 80162  1  0  0  0
 81 83  1  0  0  0
 81 91  1  0  0  0
 81163  1  0  0  0
 81164  1  0  0  0
 82 84  1  0  0  0
 82 91  1  0  0  0
 82165  1  0  0  0
 82166  1  0  0  0
 83 84  1  0  0  0
 83 86  1  0  0  0
 83167  1  0  0  0
 84 93  1  0  0  0
 84168  1  0  0  0
 85169  1  0  0  0
 85170  1  0  0  0
 85171  1  0  0  0
 86172  1  0  0  0
 86173  1  0  0  0
 86174  1  0  0  0
 87175  1  0  0  0
 87176  1  0  0  0
 87177  1  0  0  0
 87 89  1  0  0  0
 88 89  1  0  0  0
 88178  1  0  0  0
 88179  1  0  0  0
 89180  1  0  0  0
 93181  1  0  0  0
 93182  1  0  0  0
 93183  1  0  0  0
M  CHG  1  93   1
M  ISO  4   1 100  68 101  88 101  92 100
M  END
> <chiral flag>
0

> <version>
0

> <s_m_source_file>
/data/baiqing/PycharmProjects/Reinvent-master-3.2/result/LINK_invent/BTK/process_docking_weight1_custom_sum_contain_oxygen_bond_distance_aromatic_linkinvent_7_9_3/rearranged_h_0163.sdf

> <i_m_source_file_index>
32

> <r_mmod_Potential_Energy-OPLS-2005>
91.4492263793945

> <r_mmod_Stretch_Energy-OPLS-2005>
55.2921028137207

> <r_mmod_Bend_Energy-OPLS-2005>
147.321151733398

> <r_mmod_Torsional_Energy-OPLS-2005>
483.342376708984

> <r_mmod_Improper_Torsional_Energy-OPLS-2005>
25.8941402435303

> <r_mmod_Van_der_Waal_Energy-OPLS-2005>
148.556060791016

> <r_mmod_Electrostatic_Energy-OPLS-2005>
-317.658233642578

> <r_mmod_Solvation_Energy-OPLS-2005>
-473.768737792969

> <b_mmod_Minimization_Converged-OPLS-2005>
0

> <r_mmod_RMS_Derivative-OPLS-2005>
2.83965635299683

$$$$
32
                    3D
 Structure written by MMmdl.
174184  0  0  1  0            999 V2000
  -30.5131  -14.9916   20.4133 C   0  0  0  0  0  0
  -30.4444  -12.6207   19.4866 C   0  0  0  0  0  0
  -29.5204  -12.5230   18.2506 C   0  0  0  0  0  0
  -28.0577  -12.2947   18.6788 C   0  0  0  0  0  0
  -27.6235  -13.2434   19.8263 C   0  0  2  0  0  0
  -28.6684  -13.2944   20.9591 C   0  0  0  0  0  0
  -25.2450  -13.8199   20.5716 C   0  0  0  0  0  0
  -24.1772  -13.0423   20.9250 C   0  0  0  0  0  0
  -24.6378  -11.6908   20.8758 C   0  0  0  0  0  0
  -23.9058  -10.4288   21.0407 C   0  0  0  0  0  0
  -24.3619   -9.4204   21.9177 C   0  0  0  0  0  0
  -23.6301   -8.2236   22.0739 C   0  0  0  0  0  0
  -22.4274   -8.0273   21.3539 C   0  0  0  0  0  0
  -21.9907   -9.0244   20.4638 C   0  0  0  0  0  0
  -22.7229  -10.2127   20.3054 C   0  0  0  0  0  0
  -21.6849   -6.0733   22.5282 C   0  0  0  0  0  0
  -21.4014   -6.5639   23.8216 C   0  0  0  0  0  0
  -21.3666   -5.6788   24.9178 C   0  0  0  0  0  0
  -21.6047   -4.3052   24.7223 C   0  0  0  0  0  0
  -21.8822   -3.8141   23.4345 C   0  0  0  0  0  0
  -21.9199   -4.6964   22.3401 C   0  0  0  0  0  0
  -22.7793  -13.5202   21.1896 C   0  0  0  0  0  0
  -22.1655   -4.2153   21.0977 F   0  0  0  0  0  0
  -21.5636   -3.4531   25.7734 F   0  0  0  0  0  0
  -29.9309  -13.7245   20.3461 N   0  0  0  0  0  0
  -26.2852  -12.9413   20.3195 N   0  0  0  0  0  0
  -25.9311  -11.6552   20.5733 N   0  0  0  0  0  0
  -22.0435  -12.8213   22.0460 N   0  0  0  0  0  0
  -25.4118  -15.1929   20.4151 N   0  0  0  0  0  0
  -31.7342  -15.0483   20.2243 O   0  0  0  0  0  0
  -21.6639   -6.8869   21.4234 O   0  0  0  0  0  0
  -22.3479  -14.5501   20.6724 O   0  0  0  0  0  0
  -24.6476  -31.8393   23.1828 C   0  0  0  0  0  0
  -25.9234  -32.4665   23.8242 C   0  0  1  0  0  0
  -27.2178  -27.0960   20.1706 C   0  0  0  0  0  0
  -25.5973  -33.8472   24.2167 N   0  0  0  0  0  0
  -23.4522  -30.4568   21.5282 C   0  0  2  0  0  0
  -24.8997  -28.8665   20.1186 C   0  0  0  0  0  0
  -22.7588  -29.4538   22.4836 C   0  0  0  0  0  0
  -18.0307  -28.1407   22.8468 C   0  0  0  0  0  0
  -24.1490  -36.7242   23.2640 C   0  0  0  0  0  0
  -26.0090  -30.7031   21.3824 C   0  0  0  0  0  0
  -26.0793  -29.3067   20.7328 C   0  0  0  0  0  0
  -27.2391  -28.4416   20.7297 C   0  0  0  0  0  0
  -26.0073  -26.7539   19.5353 C   0  0  0  0  0  0
  -24.8781  -27.6049   19.5046 C   0  0  0  0  0  0
  -23.6798  -29.7760   20.1516 C   0  0  0  0  0  0
  -25.4121  -36.3011   24.0311 C   0  0  1  0  0  0
  -20.5926  -28.3737   23.1226 C   0  0  2  0  0  0
  -20.6789  -26.9436   22.5405 C   0  0  0  0  0  0
  -19.5763  -26.6385   21.5213 C   0  0  0  0  0  0
  -18.1943  -26.7944   22.1619 C   0  0  0  0  0  0
  -19.1565  -28.8886   23.2836 C   0  0  0  0  0  0
  -18.9483  -30.1479   23.8869 C   0  0  0  0  0  0
  -17.6477  -30.6595   24.0558 C   0  0  0  0  0  0
  -25.9082  -34.9391   23.5044 C   0  0  0  0  0  0
  -16.5367  -29.9088   23.6340 C   0  0  0  0  0  0
  -16.7289  -28.6508   23.0359 C   0  0  0  0  0  0
  -26.4547  -31.6552   25.0702 C   0  0  0  0  0  0
  -25.3726  -31.3767   26.1398 C   0  0  0  0  0  0
  -27.0398  -30.2933   24.6310 C   0  0  0  0  0  0
  -27.6084  -32.4313   25.7475 C   0  0  0  0  0  0
  -27.5568  -37.1772   24.8466 C   0  0  0  0  0  0
  -21.4271  -29.3059   22.3595 N   0  0  0  0  0  0
  -26.4280  -37.3727   23.9410 N   0  0  0  0  0  0
  -24.7231  -31.0226   22.0866 N   0  0  0  0  0  0
  -23.4204  -28.8100   23.3019 O   0  0  0  0  0  0
  -28.3070  -26.1435   20.1624 O   0  0  0  0  0  0
  -26.5659  -34.8896   22.4619 O   0  0  0  0  0  0
  -23.5584  -32.1287   23.7021 O   0  0  0  0  0  0
  -31.1892  -19.4684   21.7653 C   0  0  0  0  0  0
  -30.9665  -18.1027   21.4567 C   0  0  0  0  0  0
  -29.1485  -18.8445   20.0622 C   0  0  0  0  0  0
  -29.4046  -20.3105   20.2693 C   0  0  0  0  0  0
  -27.8276  -21.1048   18.3091 C   0  0  0  0  0  0
  -30.4500  -20.5435   21.1977 C   0  0  0  0  0  0
  -27.6607  -20.0706   17.3307 C   0  0  0  0  0  0
  -29.9291  -17.6882   20.5964 C   0  0  0  0  0  0
  -26.8630  -22.0018   18.0854 C   0  0  0  0  0  0
  -26.4308  -20.2893   16.7494 C   0  0  0  0  0  0
  -26.9972  -23.3110   18.7367 C   0  0  0  0  0  0
  -28.8422  -21.5752   19.3267 C   0  0  1  0  0  0
  -28.4214  -23.3123   19.3965 C   0  0  1  0  0  0
  -30.8277  -21.9615   21.5780 C   0  0  0  0  0  0
  -28.6306  -18.9816   16.9330 C   0  0  0  0  0  0
  -25.6746  -19.4723   15.7487 C   0  0  0  0  0  0
  -29.4175  -23.9488   18.3912 C   0  0  0  0  0  0
  -24.7544  -22.2064   16.7135 C   0  0  0  0  0  0
  -28.2658  -24.5964   20.4972 C   0  0  0  0  0  0
  -25.9494  -21.5220   17.1778 N   0  0  0  0  0  0
  -29.6970  -16.1714   20.4008 N   0  0  0  0  0  0
  -31.4716  -12.8010   19.1672 H   0  0  0  0  0  0
  -30.4611  -11.6782   20.0362 H   0  0  0  0  0  0
  -29.8508  -11.7145   17.5976 H   0  0  0  0  0  0
  -29.5929  -13.4418   17.6652 H   0  0  0  0  0  0
  -27.9766  -11.2596   19.0126 H   0  0  0  0  0  0
  -27.3864  -12.3899   17.8241 H   0  0  0  0  0  0
  -27.5764  -14.2373   19.3816 H   0  0  0  0  0  0
  -28.7735  -12.3246   21.4477 H   0  0  0  0  0  0
  -28.3625  -14.0022   21.7318 H   0  0  0  0  0  0
  -25.2763   -9.5694   22.4756 H   0  0  0  0  0  0
  -24.0026   -7.4624   22.7453 H   0  0  0  0  0  0
  -21.0833   -8.8754   19.8952 H   0  0  0  0  0  0
  -22.3664  -10.9671   19.6178 H   0  0  0  0  0  0
  -21.1991   -7.6143   23.9722 H   0  0  0  0  0  0
  -21.1489   -6.0512   25.9085 H   0  0  0  0  0  0
  -22.0598   -2.7608   23.2835 H   0  0  0  0  0  0
  -22.4034  -11.9898   22.4904 H   0  0  0  0  0  0
  -21.1045  -13.1246   22.2637 H   0  0  0  0  0  0
  -24.6423  -15.8431   20.5349 H   0  0  0  0  0  0
  -26.2514  -15.6370   20.0682 H   0  0  0  0  0  0
  -26.7299  -32.5254   23.0964 H   0  0  0  0  0  0
  -25.0140  -33.9601   25.0329 H   0  0  0  0  0  0
  -22.7573  -31.2837   21.3676 H   0  0  0  0  0  0
  -23.3758  -35.9567   23.3272 H   0  0  0  0  0  0
  -24.3592  -36.8898   22.2064 H   0  0  0  0  0  0
  -23.7234  -37.6421   23.6697 H   0  0  0  0  0  0
  -26.1674  -31.4505   20.6029 H   0  0  0  0  0  0
  -26.8795  -30.7587   22.0252 H   0  0  0  0  0  0
  -28.1475  -28.7845   21.2051 H   0  0  0  0  0  0
  -25.9168  -25.7927   19.0610 H   0  0  0  0  0  0
  -23.9773  -27.2601   19.0169 H   0  0  0  0  0  0
  -23.8210  -30.5450   19.3909 H   0  0  0  0  0  0
  -22.7936  -29.2189   19.8411 H   0  0  0  0  0  0
  -25.1303  -36.1831   25.0800 H   0  0  0  0  0  0
  -21.0014  -28.3329   24.1349 H   0  0  0  0  0  0
  -20.5682  -26.2359   23.3633 H   0  0  0  0  0  0
  -21.6656  -26.7428   22.1211 H   0  0  0  0  0  0
  -19.6925  -25.6289   21.1261 H   0  0  0  0  0  0
  -19.6702  -27.3180   20.6730 H   0  0  0  0  0  0
  -17.4219  -26.6693   21.4017 H   0  0  0  0  0  0
  -18.0334  -26.0095   22.9023 H   0  0  0  0  0  0
  -19.7958  -30.7301   24.2230 H   0  0  0  0  0  0
  -17.5031  -31.6280   24.5163 H   0  0  0  0  0  0
  -15.5371  -30.2980   23.7683 H   0  0  0  0  0  0
  -15.8692  -28.0815   22.7095 H   0  0  0  0  0  0
  -24.5964  -30.7032   25.7747 H   0  0  0  0  0  0
  -24.8861  -32.2953   26.4684 H   0  0  0  0  0  0
  -25.8028  -30.9073   27.0254 H   0  0  0  0  0  0
  -26.3012  -29.6657   24.1318 H   0  0  0  0  0  0
  -27.3983  -29.7239   25.4895 H   0  0  0  0  0  0
  -27.8929  -30.4136   23.9633 H   0  0  0  0  0  0
  -27.2699  -33.3651   26.1961 H   0  0  0  0  0  0
  -28.3934  -32.6801   25.0326 H   0  0  0  0  0  0
  -28.0703  -31.8496   26.5459 H   0  0  0  0  0  0
  -28.2566  -38.0088   24.7507 H   0  0  0  0  0  0
  -28.1073  -36.2611   24.6275 H   0  0  0  0  0  0
  -27.2298  -37.1387   25.8874 H   0  0  0  0  0  0
  -20.9495  -29.8747   21.6746 H   0  0  0  0  0  0
  -26.0136  -38.2782   24.1428 H   0  0  0  0  0  0
  -31.9893  -19.6925   22.4570 H   0  0  0  0  0  0
  -31.5931  -17.3603   21.9321 H   0  0  0  0  0  0
  -28.3244  -18.5858   19.4196 H   0  0  0  0  0  0
  -26.2087  -23.4093   19.4839 H   0  0  0  0  0  0
  -26.8745  -24.1156   18.0120 H   0  0  0  0  0  0
  -29.7448  -21.5945   18.7168 H   0  0  0  0  0  0
  -31.6369  -21.9814   22.3096 H   0  0  0  0  0  0
  -29.9700  -22.4618   22.0262 H   0  0  0  0  0  0
  -31.1480  -22.5285   20.7049 H   0  0  0  0  0  0
  -29.6082  -19.1336   17.3912 H   0  0  0  0  0  0
  -28.7786  -18.9973   15.8530 H   0  0  0  0  0  0
  -28.2555  -17.9951   17.2053 H   0  0  0  0  0  0
  -26.2525  -18.6095   15.4194 H   0  0  0  0  0  0
  -25.4206  -20.0598   14.8667 H   0  0  0  0  0  0
  -24.7475  -19.0972   16.1842 H   0  0  0  0  0  0
  -29.4700  -23.3909   17.4558 H   0  0  0  0  0  0
  -30.4217  -23.9946   18.8124 H   0  0  0  0  0  0
  -29.1356  -24.9649   18.1161 H   0  0  0  0  0  0
  -24.4566  -22.9800   17.4217 H   0  0  0  0  0  0
  -23.9306  -21.5021   16.6029 H   0  0  0  0  0  0
  -24.9533  -22.6721   15.7478 H   0  0  0  0  0  0
  -29.0985  -24.4788   21.1898 H   0  0  0  0  0  0
  -27.3898  -24.4274   21.1249 H   0  0  0  0  0  0
  -28.7253  -15.9360   20.2646 H   0  0  0  0  0  0
  1 25  1  0  0  0
  1 30  2  0  0  0
  1 91  1  0  0  0
  2  3  1  0  0  0
  2 25  1  0  0  0
  2 92  1  0  0  0
  2 93  1  0  0  0
  3  4  1  0  0  0
  3 94  1  0  0  0
  3 95  1  0  0  0
  4  5  1  0  0  0
  4 96  1  0  0  0
  4 97  1  0  0  0
  5  6  1  0  0  0
  5 26  1  0  0  0
  5 98  1  0  0  0
  6 25  1  0  0  0
  6 99  1  0  0  0
  6100  1  0  0  0
  7  8  2  0  0  0
  7 26  1  0  0  0
  7 29  1  0  0  0
  8  9  1  0  0  0
  8 22  1  0  0  0
  9 10  1  0  0  0
  9 27  2  0  0  0
 10 11  2  0  0  0
 10 15  1  0  0  0
 11 12  1  0  0  0
 11101  1  0  0  0
 12 13  2  0  0  0
 12102  1  0  0  0
 13 14  1  0  0  0
 13 31  1  0  0  0
 14 15  2  0  0  0
 14103  1  0  0  0
 15104  1  0  0  0
 16 17  2  0  0  0
 16 21  1  0  0  0
 16 31  1  0  0  0
 17 18  1  0  0  0
 17105  1  0  0  0
 18 19  2  0  0  0
 18106  1  0  0  0
 19 20  1  0  0  0
 19 24  1  0  0  0
 20 21  2  0  0  0
 20107  1  0  0  0
 21 23  1  0  0  0
 22 28  1  0  0  0
 22 32  2  0  0  0
 26 27  1  0  0  0
 28108  1  0  0  0
 28109  1  0  0  0
 29110  1  0  0  0
 29111  1  0  0  0
 33 34  1  0  0  0
 33 66  1  0  0  0
 33 70  2  0  0  0
 34 36  1  0  0  0
 34 59  1  0  0  0
 34112  1  0  0  0
 35 44  2  0  0  0
 35 45  1  0  0  0
 35 68  1  0  0  0
 36 56  1  0  0  0
 36113  1  0  0  0
 37 39  1  0  0  0
 37 47  1  0  0  0
 37 66  1  0  0  0
 37114  1  0  0  0
 38 43  2  0  0  0
 38 46  1  0  0  0
 38 47  1  0  0  0
 39 64  1  0  0  0
 39 67  2  0  0  0
 40 52  1  0  0  0
 40 53  2  0  0  0
 40 58  1  0  0  0
 41115  1  0  0  0
 41116  1  0  0  0
 41117  1  0  0  0
 41 48  1  0  0  0
 42 43  1  0  0  0
 42 66  1  0  0  0
 42118  1  0  0  0
 42119  1  0  0  0
 43 44  1  0  0  0
 44120  1  0  0  0
 45 46  2  0  0  0
 45121  1  0  0  0
 46122  1  0  0  0
 47123  1  0  0  0
 47124  1  0  0  0
 48 56  1  0  0  0
 48 65  1  0  0  0
 48125  1  0  0  0
 49 50  1  0  0  0
 49 53  1  0  0  0
 49 64  1  0  0  0
 49126  1  0  0  0
 50 51  1  0  0  0
 50127  1  0  0  0
 50128  1  0  0  0
 51 52  1  0  0  0
 51129  1  0  0  0
 51130  1  0  0  0
 52131  1  0  0  0
 52132  1  0  0  0
 53 54  1  0  0  0
 54 55  2  0  0  0
 54133  1  0  0  0
 55 57  1  0  0  0
 55134  1  0  0  0
 56 69  2  0  0  0
 57 58  2  0  0  0
 57135  1  0  0  0
 58136  1  0  0  0
 59 60  1  0  0  0
 59 61  1  0  0  0
 59 62  1  0  0  0
 60137  1  0  0  0
 60138  1  0  0  0
 60139  1  0  0  0
 61140  1  0  0  0
 61141  1  0  0  0
 61142  1  0  0  0
 62143  1  0  0  0
 62144  1  0  0  0
 62145  1  0  0  0
 63 65  1  0  0  0
 63146  1  0  0  0
 63147  1  0  0  0
 63148  1  0  0  0
 64149  1  0  0  0
 65150  1  0  0  0
 68 89  1  0  0  0
 71 72  2  0  0  0
 71 76  1  0  0  0
 71151  1  0  0  0
 72 78  1  0  0  0
 72152  1  0  0  0
 73 74  1  0  0  0
 73 78  2  0  0  0
 73153  1  0  0  0
 74 76  2  0  0  0
 74 82  1  0  0  0
 75 77  1  0  0  0
 75 79  2  0  0  0
 75 82  1  0  0  0
 76 84  1  0  0  0
 77 80  2  0  0  0
 77 85  1  0  0  0
 78 91  1  0  0  0
 79 81  1  0  0  0
 79 90  1  0  0  0
 80 86  1  0  0  0
 80 90  1  0  0  0
 81 83  1  0  0  0
 81154  1  0  0  0
 81155  1  0  0  0
 82 83  1  0  0  0
 82156  1  0  0  0
 83 87  1  0  0  0
 83 89  1  0  0  0
 84157  1  0  0  0
 84158  1  0  0  0
 84159  1  0  0  0
 85160  1  0  0  0
 85161  1  0  0  0
 85162  1  0  0  0
 86163  1  0  0  0
 86164  1  0  0  0
 86165  1  0  0  0
 87166  1  0  0  0
 87167  1  0  0  0
 87168  1  0  0  0
 88 90  1  0  0  0
 88169  1  0  0  0
 88170  1  0  0  0
 88171  1  0  0  0
 89172  1  0  0  0
 89173  1  0  0  0
 91174  1  0  0  0
M  ISO  4   1 100  68 101  89 101  91 100
M  END
> <chiral flag>
0

> <version>
0

> <s_m_source_file>
/data/baiqing/PycharmProjects/Reinvent-master-3.2/result/LINK_invent/BTK/process_docking_weight1_custom_sum_contain_oxygen_bond_distance_aromatic_linkinvent_7_9_3/rearranged_h_0163.sdf

> <i_m_source_file_index>
33

> <r_mmod_Potential_Energy-OPLS-2005>
832.595520019531

> <r_mmod_Stretch_Energy-OPLS-2005>
346.898254394531

> <r_mmod_Bend_Energy-OPLS-2005>
494.473602294922

> <r_mmod_Torsional_Energy-OPLS-2005>
255.225708007812

> <r_mmod_Improper_Torsional_Energy-OPLS-2005>
11.3890037536621

> <r_mmod_Van_der_Waal_Energy-OPLS-2005>
120.846405029297

> <r_mmod_Electrostatic_Energy-OPLS-2005>
-404.448333740234

> <r_mmod_Solvation_Energy-OPLS-2005>
-212.612976074219

> <b_mmod_Minimization_Converged-OPLS-2005>
0

> <r_mmod_RMS_Derivative-OPLS-2005>
2.03133344650269

$$$$
33
                    3D
 Structure written by MMmdl.
158167  0  0  1  0            999 V2000
  -30.5218  -14.9621   20.4034 C   0  0  0  0  0  0
  -30.4344  -12.5801   19.5254 C   0  0  0  0  0  0
  -29.5274  -12.5487   18.2710 C   0  0  0  0  0  0
  -28.0584  -12.3306   18.6761 C   0  0  0  0  0  0
  -27.6358  -13.2497   19.8528 C   0  0  2  0  0  0
  -28.6721  -13.2736   20.9985 C   0  0  0  0  0  0
  -25.2499  -13.8227   20.5720 C   0  0  0  0  0  0
  -24.1798  -13.0449   20.9215 C   0  0  0  0  0  0
  -24.6406  -11.6937   20.8745 C   0  0  0  0  0  0
  -23.9082  -10.4312   21.0398 C   0  0  0  0  0  0
  -24.3634   -9.4229   21.9184 C   0  0  0  0  0  0
  -23.6316   -8.2264   22.0757 C   0  0  0  0  0  0
  -22.4292   -8.0300   21.3546 C   0  0  0  0  0  0
  -21.9936   -9.0267   20.4642 C   0  0  0  0  0  0
  -22.7257  -10.2150   20.3044 C   0  0  0  0  0  0
  -21.6863   -6.0752   22.5288 C   0  0  0  0  0  0
  -21.4014   -6.5651   23.8220 C   0  0  0  0  0  0
  -21.3667   -5.6796   24.9185 C   0  0  0  0  0  0
  -21.6050   -4.3055   24.7218 C   0  0  0  0  0  0
  -21.8816   -3.8157   23.4338 C   0  0  0  0  0  0
  -21.9199   -4.6987   22.3399 C   0  0  0  0  0  0
  -22.7829  -13.5237   21.1860 C   0  0  0  0  0  0
  -22.1658   -4.2178   21.0980 F   0  0  0  0  0  0
  -21.5643   -3.4530   25.7727 F   0  0  0  0  0  0
  -29.9578  -13.6828   20.4155 N   0  0  0  0  0  0
  -26.2922  -12.9447   20.3293 N   0  0  0  0  0  0
  -25.9342  -11.6577   20.5743 N   0  0  0  0  0  0
  -22.0462  -12.8230   22.0407 N   0  0  0  0  0  0
  -25.4194  -15.1941   20.4187 N   0  0  0  0  0  0
  -31.6905  -15.0547   20.0104 O   0  0  0  0  0  0
  -21.6655   -6.8899   21.4247 O   0  0  0  0  0  0
  -22.3529  -14.5547   20.6710 O   0  0  0  0  0  0
  -24.6475  -31.8341   23.1824 C   0  0  0  0  0  0
  -25.9221  -32.4642   23.8261 C   0  0  1  0  0  0
  -27.2479  -27.1252   20.1328 C   0  0  0  0  0  0
  -25.5947  -33.8456   24.2164 N   0  0  0  0  0  0
  -23.4567  -30.4473   21.5227 C   0  0  2  0  0  0
  -24.9112  -28.8694   20.0881 C   0  0  0  0  0  0
  -22.7610  -29.4456   22.4791 C   0  0  0  0  0  0
  -18.0308  -28.1398   22.8475 C   0  0  0  0  0  0
  -24.1474  -36.7235   23.2652 C   0  0  0  0  0  0
  -26.0082  -30.7030   21.3821 C   0  0  0  0  0  0
  -26.0795  -29.3161   20.7141 C   0  0  0  0  0  0
  -27.2375  -28.4545   20.7243 C   0  0  0  0  0  0
  -26.0574  -26.7734   19.4668 C   0  0  0  0  0  0
  -24.9139  -27.6138   19.4487 C   0  0  0  0  0  0
  -23.6849  -29.7715   20.1399 C   0  0  0  0  0  0
  -25.4104  -36.3006   24.0328 C   0  0  1  0  0  0
  -20.5929  -28.3731   23.1199 C   0  0  2  0  0  0
  -20.6761  -26.9415   22.5394 C   0  0  0  0  0  0
  -19.5743  -26.6370   21.5196 C   0  0  0  0  0  0
  -18.1933  -26.7944   22.1607 C   0  0  0  0  0  0
  -19.1568  -28.8887   23.2838 C   0  0  0  0  0  0
  -18.9472  -30.1472   23.8895 C   0  0  0  0  0  0
  -17.6462  -30.6597   24.0550 C   0  0  0  0  0  0
  -25.9063  -34.9380   23.5055 C   0  0  0  0  0  0
  -16.5356  -29.9086   23.6322 C   0  0  0  0  0  0
  -16.7289  -28.6485   23.0382 C   0  0  0  0  0  0
  -26.4540  -31.6574   25.0750 C   0  0  0  0  0  0
  -25.3724  -31.3766   26.1452 C   0  0  0  0  0  0
  -27.0420  -30.2965   24.6386 C   0  0  0  0  0  0
  -27.6073  -32.4377   25.7521 C   0  0  0  0  0  0
  -27.5563  -37.1771   24.8459 C   0  0  0  0  0  0
  -21.4287  -29.3037   22.3565 N   0  0  0  0  0  0
  -26.4259  -37.3728   23.9420 N   0  0  0  0  0  0
  -24.7232  -31.0189   22.0843 N   0  0  0  0  0  0
  -23.4217  -28.7997   23.2970 O   0  0  0  0  0  0
  -28.2933  -26.1640   20.3911 O   0  0  0  0  0  0
  -26.5662  -34.8890   22.4641 O   0  0  0  0  0  0
  -23.5586  -32.1208   23.7029 O   0  0  0  0  0  0
  -28.9876  -22.0636   20.2404 C   0  0  0  0  0  0
  -27.8590  -21.6343   17.7885 C   0  0  0  0  0  0
  -28.9399  -20.6319   19.7728 C   0  0  0  0  0  0
  -28.4765  -23.2836   19.5266 C   0  0  0  0  0  0
  -27.8546  -22.9551   18.2912 C   0  0  0  0  0  0
  -28.4041  -20.5100   18.4630 C   0  0  0  0  0  0
  -28.3505  -18.1373   20.6146 C   0  0  0  0  0  0
  -29.3839  -19.2019   20.5400 C   0  0  1  0  0  0
  -29.6508  -17.5714   20.0555 C   0  0  1  0  0  0
  -27.2112  -23.9943   17.3796 C   0  0  0  0  0  0
  -28.1689  -19.1148   16.4868 C   0  0  0  0  0  0
  -28.8948  -24.8902   19.7177 C   0  0  0  0  0  0
  -29.7289  -16.1210   20.6558 N   0  0  0  0  0  0
  -28.4094  -19.2569   17.8850 O   0  0  0  0  0  0
  -31.4777  -12.7109   19.2345 H   0  0  0  0  0  0
  -30.3938  -11.6203   20.0447 H   0  0  0  0  0  0
  -29.8495  -11.7640   17.5852 H   0  0  0  0  0  0
  -29.6228  -13.4902   17.7276 H   0  0  0  0  0  0
  -27.9506  -11.2840   18.9612 H   0  0  0  0  0  0
  -27.3997  -12.4827   17.8197 H   0  0  0  0  0  0
  -27.6039  -14.2576   19.4385 H   0  0  0  0  0  0
  -28.7492  -12.2992   21.4841 H   0  0  0  0  0  0
  -28.3632  -13.9775   21.7731 H   0  0  0  0  0  0
  -25.2772   -9.5724   22.4774 H   0  0  0  0  0  0
  -24.0041   -7.4655   22.7462 H   0  0  0  0  0  0
  -21.0881   -8.8763   19.8936 H   0  0  0  0  0  0
  -22.3705  -10.9689   19.6156 H   0  0  0  0  0  0
  -21.1988   -7.6155   23.9735 H   0  0  0  0  0  0
  -21.1497   -6.0522   25.9092 H   0  0  0  0  0  0
  -22.0587   -2.7624   23.2816 H   0  0  0  0  0  0
  -22.4065  -11.9882   22.4784 H   0  0  0  0  0  0
  -21.1075  -13.1263   22.2575 H   0  0  0  0  0  0
  -24.6495  -15.8461   20.5265 H   0  0  0  0  0  0
  -26.2701  -15.6366   20.0956 H   0  0  0  0  0  0
  -26.7312  -32.5225   23.1021 H   0  0  0  0  0  0
  -25.0131  -33.9549   25.0341 H   0  0  0  0  0  0
  -22.7633  -31.2750   21.3630 H   0  0  0  0  0  0
  -23.3739  -35.9560   23.3272 H   0  0  0  0  0  0
  -24.3576  -36.8902   22.2075 H   0  0  0  0  0  0
  -23.7216  -37.6415   23.6712 H   0  0  0  0  0  0
  -26.1771  -31.4599   20.6149 H   0  0  0  0  0  0
  -26.8721  -30.7426   22.0336 H   0  0  0  0  0  0
  -28.1198  -28.7818   21.2561 H   0  0  0  0  0  0
  -25.9741  -25.7888   19.0359 H   0  0  0  0  0  0
  -24.0161  -27.2621   18.9591 H   0  0  0  0  0  0
  -23.8265  -30.5469   19.3854 H   0  0  0  0  0  0
  -22.7997  -29.2159   19.8256 H   0  0  0  0  0  0
  -25.1287  -36.1838   25.0822 H   0  0  0  0  0  0
  -21.0041  -28.3320   24.1310 H   0  0  0  0  0  0
  -20.5580  -26.2364   23.3630 H   0  0  0  0  0  0
  -21.6627  -26.7350   22.1227 H   0  0  0  0  0  0
  -19.6874  -25.6258   21.1277 H   0  0  0  0  0  0
  -19.6699  -27.3135   20.6689 H   0  0  0  0  0  0
  -17.4194  -26.6726   21.4005 H   0  0  0  0  0  0
  -18.0310  -26.0090   22.9001 H   0  0  0  0  0  0
  -19.7943  -30.7285   24.2289 H   0  0  0  0  0  0
  -17.5004  -31.6284   24.5133 H   0  0  0  0  0  0
  -15.5351  -30.2980   23.7629 H   0  0  0  0  0  0
  -15.8693  -28.0768   22.7148 H   0  0  0  0  0  0
  -24.5929  -30.7083   25.7774 H   0  0  0  0  0  0
  -24.8891  -32.2936   26.4831 H   0  0  0  0  0  0
  -25.8015  -30.8991   27.0271 H   0  0  0  0  0  0
  -26.3044  -29.6680   24.1381 H   0  0  0  0  0  0
  -27.3974  -29.7302   25.5005 H   0  0  0  0  0  0
  -27.8980  -30.4174   23.9745 H   0  0  0  0  0  0
  -27.2667  -33.3714   26.2004 H   0  0  0  0  0  0
  -28.3917  -32.6879   25.0367 H   0  0  0  0  0  0
  -28.0719  -31.8590   26.5512 H   0  0  0  0  0  0
  -28.2542  -38.0103   24.7531 H   0  0  0  0  0  0
  -28.1094  -36.2632   24.6235 H   0  0  0  0  0  0
  -27.2301  -37.1356   25.8868 H   0  0  0  0  0  0
  -20.9517  -29.8816   21.6787 H   0  0  0  0  0  0
  -26.0116  -38.2787   24.1444 H   0  0  0  0  0  0
  -29.4787  -22.2387   21.1867 H   0  0  0  0  0  0
  -27.4243  -21.5119   16.8084 H   0  0  0  0  0  0
  -27.5120  -18.1566   19.9223 H   0  0  0  0  0  0
  -28.0606  -17.8522   21.6253 H   0  0  0  0  0  0
  -29.8800  -19.4762   21.4682 H   0  0  0  0  0  0
  -29.8191  -17.5491   18.9826 H   0  0  0  0  0  0
  -26.1299  -23.9702   17.5122 H   0  0  0  0  0  0
  -27.4189  -23.7604   16.3348 H   0  0  0  0  0  0
  -27.5393  -25.0174   17.5289 H   0  0  0  0  0  0
  -28.1646  -18.0532   16.2420 H   0  0  0  0  0  0
  -28.9585  -19.5802   15.8949 H   0  0  0  0  0  0
  -27.2013  -19.5088   16.1750 H   0  0  0  0  0  0
  -29.2647  -25.2398   18.7543 H   0  0  0  0  0  0
  -29.8235  -24.7856   20.2774 H   0  0  0  0  0  0
  -28.8656  -15.8605   21.1082 H   0  0  0  0  0  0
  1 25  1  0  0  0
  1 30  2  0  0  0
  1 83  1  0  0  0
  2  3  1  0  0  0
  2 25  1  0  0  0
  2 85  1  0  0  0
  2 86  1  0  0  0
  3  4  1  0  0  0
  3 87  1  0  0  0
  3 88  1  0  0  0
  4  5  1  0  0  0
  4 89  1  0  0  0
  4 90  1  0  0  0
  5  6  1  0  0  0
  5 26  1  0  0  0
  5 91  1  0  0  0
  6 25  1  0  0  0
  6 92  1  0  0  0
  6 93  1  0  0  0
  7  8  2  0  0  0
  7 26  1  0  0  0
  7 29  1  0  0  0
  8  9  1  0  0  0
  8 22  1  0  0  0
  9 10  1  0  0  0
  9 27  2  0  0  0
 10 11  2  0  0  0
 10 15  1  0  0  0
 11 12  1  0  0  0
 11 94  1  0  0  0
 12 13  2  0  0  0
 12 95  1  0  0  0
 13 14  1  0  0  0
 13 31  1  0  0  0
 14 15  2  0  0  0
 14 96  1  0  0  0
 15 97  1  0  0  0
 16 17  2  0  0  0
 16 21  1  0  0  0
 16 31  1  0  0  0
 17 18  1  0  0  0
 17 98  1  0  0  0
 18 19  2  0  0  0
 18 99  1  0  0  0
 19 20  1  0  0  0
 19 24  1  0  0  0
 20 21  2  0  0  0
 20100  1  0  0  0
 21 23  1  0  0  0
 22 28  1  0  0  0
 22 32  2  0  0  0
 26 27  1  0  0  0
 28101  1  0  0  0
 28102  1  0  0  0
 29103  1  0  0  0
 29104  1  0  0  0
 33 34  1  0  0  0
 33 66  1  0  0  0
 33 70  2  0  0  0
 34 36  1  0  0  0
 34 59  1  0  0  0
 34105  1  0  0  0
 35 44  2  0  0  0
 35 45  1  0  0  0
 35 68  1  0  0  0
 36 56  1  0  0  0
 36106  1  0  0  0
 37 39  1  0  0  0
 37 47  1  0  0  0
 37 66  1  0  0  0
 37107  1  0  0  0
 38 43  2  0  0  0
 38 46  1  0  0  0
 38 47  1  0  0  0
 39 64  1  0  0  0
 39 67  2  0  0  0
 40 52  1  0  0  0
 40 53  2  0  0  0
 40 58  1  0  0  0
 41108  1  0  0  0
 41109  1  0  0  0
 41110  1  0  0  0
 41 48  1  0  0  0
 42 43  1  0  0  0
 42 66  1  0  0  0
 42111  1  0  0  0
 42112  1  0  0  0
 43 44  1  0  0  0
 44113  1  0  0  0
 45 46  2  0  0  0
 45114  1  0  0  0
 46115  1  0  0  0
 47116  1  0  0  0
 47117  1  0  0  0
 48 56  1  0  0  0
 48 65  1  0  0  0
 48118  1  0  0  0
 49 50  1  0  0  0
 49 53  1  0  0  0
 49 64  1  0  0  0
 49119  1  0  0  0
 50 51  1  0  0  0
 50120  1  0  0  0
 50121  1  0  0  0
 51 52  1  0  0  0
 51122  1  0  0  0
 51123  1  0  0  0
 52124  1  0  0  0
 52125  1  0  0  0
 53 54  1  0  0  0
 54 55  2  0  0  0
 54126  1  0  0  0
 55 57  1  0  0  0
 55127  1  0  0  0
 56 69  2  0  0  0
 57 58  2  0  0  0
 57128  1  0  0  0
 58129  1  0  0  0
 59 60  1  0  0  0
 59 61  1  0  0  0
 59 62  1  0  0  0
 60130  1  0  0  0
 60131  1  0  0  0
 60132  1  0  0  0
 61133  1  0  0  0
 61134  1  0  0  0
 61135  1  0  0  0
 62136  1  0  0  0
 62137  1  0  0  0
 62138  1  0  0  0
 63 65  1  0  0  0
 63139  1  0  0  0
 63140  1  0  0  0
 63141  1  0  0  0
 64142  1  0  0  0
 65143  1  0  0  0
 68 82  1  0  0  0
 71 73  2  0  0  0
 71 74  1  0  0  0
 71144  1  0  0  0
 72 75  1  0  0  0
 72 76  2  0  0  0
 72145  1  0  0  0
 73 76  1  0  0  0
 73 78  1  0  0  0
 74 75  2  0  0  0
 74 82  1  0  0  0
 75 80  1  0  0  0
 76 84  1  0  0  0
 77 78  1  0  0  0
 77 79  1  0  0  0
 77146  1  0  0  0
 77147  1  0  0  0
 78 79  1  0  0  0
 78148  1  0  0  0
 79 83  1  0  0  0
 79149  1  0  0  0
 80150  1  0  0  0
 80151  1  0  0  0
 80152  1  0  0  0
 81 84  1  0  0  0
 81153  1  0  0  0
 81154  1  0  0  0
 81155  1  0  0  0
 82156  1  0  0  0
 82157  1  0  0  0
 83158  1  0  0  0
M  ISO  4   1 100  68 101  82 101  83 100
M  END
> <chiral flag>
0

> <version>
0

> <s_m_source_file>
/data/baiqing/PycharmProjects/Reinvent-master-3.2/result/LINK_invent/BTK/process_docking_weight1_custom_sum_contain_oxygen_bond_distance_aromatic_linkinvent_7_9_3/rearranged_h_0163.sdf

> <i_m_source_file_index>
34

> <r_mmod_Potential_Energy-OPLS-2005>
806.360229492188

> <r_mmod_Stretch_Energy-OPLS-2005>
320.625610351562

> <r_mmod_Bend_Energy-OPLS-2005>
419.723602294922

> <r_mmod_Torsional_Energy-OPLS-2005>
287.920104980469

> <r_mmod_Improper_Torsional_Energy-OPLS-2005>
10.456844329834

> <r_mmod_Van_der_Waal_Energy-OPLS-2005>
137.257202148438

> <r_mmod_Electrostatic_Energy-OPLS-2005>
-365.514282226562

> <r_mmod_Solvation_Energy-OPLS-2005>
-215.850860595703

> <b_mmod_Minimization_Converged-OPLS-2005>
0

> <r_mmod_RMS_Derivative-OPLS-2005>
2.82207345962524

$$$$
34
                    3D
 Structure written by MMmdl.
185196  0  0  1  0            999 V2000
  -30.6469  -14.6260   20.5026 C   0  0  0  0  0  0
  -30.4245  -12.3862   19.4583 C   0  0  0  0  0  0
  -29.5025  -12.5068   18.2267 C   0  0  0  0  0  0
  -28.0234  -12.3509   18.6336 C   0  0  0  0  0  0
  -27.6458  -13.2214   19.8636 C   0  0  2  0  0  0
  -28.6891  -13.0861   20.9929 C   0  0  0  0  0  0
  -25.2515  -13.8177   20.5702 C   0  0  0  0  0  0
  -24.1795  -13.0433   20.9219 C   0  0  0  0  0  0
  -24.6373  -11.6909   20.8753 C   0  0  0  0  0  0
  -23.9050  -10.4284   21.0396 C   0  0  0  0  0  0
  -24.3611   -9.4202   21.9176 C   0  0  0  0  0  0
  -23.6297   -8.2230   22.0741 C   0  0  0  0  0  0
  -22.4280   -8.0263   21.3537 C   0  0  0  0  0  0
  -21.9906   -9.0232   20.4635 C   0  0  0  0  0  0
  -22.7223  -10.2120   20.3043 C   0  0  0  0  0  0
  -21.6852   -6.0729   22.5281 C   0  0  0  0  0  0
  -21.4011   -6.5637   23.8215 C   0  0  0  0  0  0
  -21.3662   -5.6794   24.9183 C   0  0  0  0  0  0
  -21.6048   -4.3055   24.7232 C   0  0  0  0  0  0
  -21.8820   -3.8144   23.4354 C   0  0  0  0  0  0
  -21.9192   -4.6958   22.3408 C   0  0  0  0  0  0
  -22.7813  -13.5214   21.1878 C   0  0  0  0  0  0
  -22.1657   -4.2144   21.0981 F   0  0  0  0  0  0
  -21.5631   -3.4540   25.7745 F   0  0  0  0  0  0
  -29.9975  -13.4212   20.4209 N   0  0  0  0  0  0
  -26.2943  -12.9369   20.3337 N   0  0  0  0  0  0
  -25.9306  -11.6522   20.5785 N   0  0  0  0  0  0
  -22.0458  -12.8206   22.0436 N   0  0  0  0  0  0
  -25.4208  -15.1897   20.4094 N   0  0  0  0  0  0
  -31.8333  -14.7132   20.1668 O   0  0  0  0  0  0
  -21.6646   -6.8863   21.4239 O   0  0  0  0  0  0
  -22.3495  -14.5508   20.6711 O   0  0  0  0  0  0
  -24.6230  -31.8608   23.2029 C   0  0  0  0  0  0
  -25.9098  -32.4777   23.8345 C   0  0  1  0  0  0
  -27.2175  -27.3372   20.1208 C   0  0  0  0  0  0
  -25.5924  -33.8576   24.2271 N   0  0  0  0  0  0
  -23.4138  -30.4857   21.5452 C   0  0  2  0  0  0
  -24.8589  -28.9407   20.1114 C   0  0  0  0  0  0
  -22.7447  -29.4643   22.4943 C   0  0  0  0  0  0
  -18.0280  -28.1376   22.8493 C   0  0  0  0  0  0
  -24.1487  -36.7298   23.2639 C   0  0  0  0  0  0
  -25.9528  -30.7977   21.3702 C   0  0  0  0  0  0
  -26.0262  -29.4258   20.7149 C   0  0  0  0  0  0
  -27.2108  -28.6367   20.7067 C   0  0  0  0  0  0
  -26.0338  -26.8988   19.4888 C   0  0  0  0  0  0
  -24.8641  -27.6823   19.4877 C   0  0  0  0  0  0
  -23.6253  -29.8181   20.1604 C   0  0  0  0  0  0
  -25.4112  -36.3077   24.0324 C   0  0  1  0  0  0
  -20.5876  -28.3684   23.1291 C   0  0  2  0  0  0
  -20.6771  -26.9411   22.5414 C   0  0  0  0  0  0
  -19.5751  -26.6381   21.5210 C   0  0  0  0  0  0
  -18.1929  -26.7924   22.1618 C   0  0  0  0  0  0
  -19.1533  -28.8845   23.2892 C   0  0  0  0  0  0
  -18.9458  -30.1445   23.8914 C   0  0  0  0  0  0
  -17.6461  -30.6586   24.0563 C   0  0  0  0  0  0
  -25.9051  -34.9451   23.5096 C   0  0  0  0  0  0
  -16.5349  -29.9086   23.6329 C   0  0  0  0  0  0
  -16.7268  -28.6494   23.0361 C   0  0  0  0  0  0
  -26.4495  -31.6582   25.0708 C   0  0  0  0  0  0
  -25.3745  -31.3724   26.1447 C   0  0  0  0  0  0
  -27.0334  -30.3001   24.6159 C   0  0  0  0  0  0
  -27.6040  -32.4329   25.7492 C   0  0  0  0  0  0
  -27.5575  -37.1802   24.8463 C   0  0  0  0  0  0
  -21.4163  -29.3044   22.3685 N   0  0  0  0  0  0
  -26.4287  -37.3772   23.9404 N   0  0  0  0  0  0
  -24.6820  -31.0641   22.0963 N   0  0  0  0  0  0
  -23.4183  -28.8190   23.3019 O   0  0  0  0  0  0
  -28.3490  -26.5192   20.1308 O   0  0  0  0  0  0
  -26.5622  -34.8920   22.4664 O   0  0  0  0  0  0
  -23.5406  -32.1401   23.7380 O   0  0  0  0  0  0
  -32.2557  -19.4875   21.6072 C   0  0  0  0  0  0
  -33.2449  -22.0621   21.8268 C   0  0  0  0  0  0
  -31.3986  -20.5629   21.2445 C   0  0  0  0  0  0
  -31.9064  -21.8887   21.3812 C   0  0  0  0  0  0
  -30.0767  -20.3326   20.7495 C   0  0  0  0  0  0
  -31.1244  -23.0274   21.0309 C   0  0  0  0  0  0
  -33.5571  -19.6786   22.1006 C   0  0  0  0  0  0
  -34.0634  -20.9831   22.2004 C   0  0  0  0  0  0
  -29.2994  -21.5060   20.3868 C   0  0  0  0  0  0
  -29.8387  -22.8535   20.4304 C   0  0  0  0  0  0
  -32.2843  -24.9232   22.5483 C   0  0  0  0  0  0
  -30.9834  -25.4795   22.0637 C   0  0  0  0  0  0
  -30.3135  -18.0647   19.4146 C   0  0  0  0  0  0
  -29.3973  -17.9177   21.7936 C   0  0  0  0  0  0
  -29.8348  -16.5992   19.2127 C   0  0  0  0  0  0
  -29.0913  -16.3929   21.5288 C   0  0  0  0  0  0
  -31.6989  -24.4272   21.2330 C   0  0  0  0  0  0
  -29.5533  -18.8405   20.5284 C   0  0  0  0  0  0
  -34.3944  -18.4723   22.4936 C   0  0  0  0  0  0
  -35.4781  -21.2438   22.6895 C   0  0  0  0  0  0
  -27.8506  -21.3128   19.9641 C   0  0  0  0  0  0
  -28.7179  -23.8392   18.2630 C   0  0  0  0  0  0
  -28.1949  -25.0840   20.4534 C   0  0  0  0  0  0
  -29.2008  -24.1224   19.6994 C   0  0  1  0  0  0
  -29.8622  -15.7596   20.4309 N   0  0  0  0  0  0
  -31.4677  -12.4983   19.1570 H   0  0  0  0  0  0
  -30.3500  -11.3946   19.9060 H   0  0  0  0  0  0
  -29.7676  -11.7567   17.4807 H   0  0  0  0  0  0
  -29.6527  -13.4777   17.7517 H   0  0  0  0  0  0
  -27.8544  -11.2975   18.8598 H   0  0  0  0  0  0
  -27.3721  -12.5871   17.7912 H   0  0  0  0  0  0
  -27.6582  -14.2572   19.5228 H   0  0  0  0  0  0
  -28.7016  -12.0672   21.3834 H   0  0  0  0  0  0
  -28.4394  -13.7289   21.8361 H   0  0  0  0  0  0
  -25.2744   -9.5692   22.4770 H   0  0  0  0  0  0
  -24.0014   -7.4618   22.7454 H   0  0  0  0  0  0
  -21.0833   -8.8729   19.8942 H   0  0  0  0  0  0
  -22.3649  -10.9660   19.6158 H   0  0  0  0  0  0
  -21.1994   -7.6144   23.9721 H   0  0  0  0  0  0
  -21.1491   -6.0523   25.9089 H   0  0  0  0  0  0
  -22.0598   -2.7604   23.2857 H   0  0  0  0  0  0
  -22.4073  -11.9874   22.4842 H   0  0  0  0  0  0
  -21.1062  -13.1197   22.2617 H   0  0  0  0  0  0
  -24.6558  -15.8452   20.5215 H   0  0  0  0  0  0
  -26.2754  -15.6279   20.0898 H   0  0  0  0  0  0
  -26.7168  -32.5447   23.1095 H   0  0  0  0  0  0
  -25.0070  -33.9728   25.0412 H   0  0  0  0  0  0
  -22.7070  -31.3060   21.4032 H   0  0  0  0  0  0
  -23.3741  -35.9637   23.3297 H   0  0  0  0  0  0
  -24.3583  -36.8923   22.2055 H   0  0  0  0  0  0
  -23.7252  -37.6501   23.6670 H   0  0  0  0  0  0
  -26.0828  -31.5605   20.6012 H   0  0  0  0  0  0
  -26.8336  -30.8444   21.9988 H   0  0  0  0  0  0
  -28.1098  -29.0086   21.1787 H   0  0  0  0  0  0
  -26.0005  -25.9443   18.9845 H   0  0  0  0  0  0
  -23.9728  -27.3101   19.0024 H   0  0  0  0  0  0
  -23.7387  -30.5929   19.4011 H   0  0  0  0  0  0
  -22.7453  -29.2448   19.8629 H   0  0  0  0  0  0
  -25.1293  -36.1923   25.0818 H   0  0  0  0  0  0
  -20.9980  -28.3259   24.1402 H   0  0  0  0  0  0
  -20.5665  -26.2299   23.3613 H   0  0  0  0  0  0
  -21.6642  -26.7448   22.1205 H   0  0  0  0  0  0
  -19.6918  -25.6291   21.1239 H   0  0  0  0  0  0
  -19.6685  -27.3192   20.6742 H   0  0  0  0  0  0
  -17.4202  -26.6682   21.4016 H   0  0  0  0  0  0
  -18.0328  -26.0052   22.9002 H   0  0  0  0  0  0
  -19.7937  -30.7252   24.2294 H   0  0  0  0  0  0
  -17.5018  -31.6272   24.5150 H   0  0  0  0  0  0
  -15.5353  -30.2996   23.7638 H   0  0  0  0  0  0
  -15.8664  -28.0810   22.7087 H   0  0  0  0  0  0
  -24.5908  -30.7082   25.7786 H   0  0  0  0  0  0
  -24.8964  -32.2902   26.4881 H   0  0  0  0  0  0
  -25.8082  -30.8897   27.0215 H   0  0  0  0  0  0
  -26.2904  -29.6751   24.1193 H   0  0  0  0  0  0
  -27.4039  -29.7249   25.4654 H   0  0  0  0  0  0
  -27.8769  -30.4269   23.9368 H   0  0  0  0  0  0
  -27.2620  -33.3619   26.2070 H   0  0  0  0  0  0
  -28.3861  -32.6912   25.0341 H   0  0  0  0  0  0
  -28.0703  -31.8467   26.5423 H   0  0  0  0  0  0
  -28.2587  -38.0102   24.7501 H   0  0  0  0  0  0
  -28.1075  -36.2632   24.6290 H   0  0  0  0  0  0
  -27.2303  -37.1456   25.8869 H   0  0  0  0  0  0
  -20.9329  -29.8764   21.6899 H   0  0  0  0  0  0
  -26.0162  -38.2843   24.1401 H   0  0  0  0  0  0
  -31.9574  -18.4623   21.5133 H   0  0  0  0  0  0
  -33.7008  -23.0363   21.8743 H   0  0  0  0  0  0
  -32.2441  -24.2638   23.4126 H   0  0  0  0  0  0
  -33.1455  -25.5869   22.5086 H   0  0  0  0  0  0
  -30.9836  -26.5037   21.6944 H   0  0  0  0  0  0
  -30.1325  -25.2041   22.6807 H   0  0  0  0  0  0
  -30.1834  -18.6044   18.4757 H   0  0  0  0  0  0
  -31.3884  -18.0494   19.5699 H   0  0  0  0  0  0
  -30.2607  -17.9586   22.4491 H   0  0  0  0  0  0
  -28.5987  -18.3265   22.4143 H   0  0  0  0  0  0
  -30.4260  -16.1416   18.4164 H   0  0  0  0  0  0
  -28.8107  -16.6070   18.8398 H   0  0  0  0  0  0
  -28.0335  -16.2864   21.2882 H   0  0  0  0  0  0
  -29.2427  -15.8367   22.4557 H   0  0  0  0  0  0
  -32.2009  -24.7607   20.3260 H   0  0  0  0  0  0
  -28.5437  -18.8953   20.1328 H   0  0  0  0  0  0
  -33.8010  -17.5580   22.5088 H   0  0  0  0  0  0
  -34.8182  -18.5995   23.4900 H   0  0  0  0  0  0
  -35.2122  -18.3292   21.7870 H   0  0  0  0  0  0
  -35.7409  -22.2991   22.6155 H   0  0  0  0  0  0
  -36.1996  -20.6808   22.0975 H   0  0  0  0  0  0
  -35.5843  -20.9478   23.7332 H   0  0  0  0  0  0
  -27.3459  -20.5942   20.6084 H   0  0  0  0  0  0
  -27.7890  -20.9650   18.9325 H   0  0  0  0  0  0
  -27.2744  -22.2299   20.0694 H   0  0  0  0  0  0
  -29.4648  -23.2778   17.7016 H   0  0  0  0  0  0
  -28.5493  -24.7753   17.7286 H   0  0  0  0  0  0
  -27.7802  -23.2906   18.2178 H   0  0  0  0  0  0
  -28.3406  -24.9924   21.5264 H   0  0  0  0  0  0
  -27.1808  -24.7141   20.3088 H   0  0  0  0  0  0
  -30.0429  -24.7754   19.4853 H   0  0  0  0  0  0
  1 25  1  0  0  0
  1 30  2  0  0  0
  1 95  1  0  0  0
  2  3  1  0  0  0
  2 25  1  0  0  0
  2 96  1  0  0  0
  2 97  1  0  0  0
  3  4  1  0  0  0
  3 98  1  0  0  0
  3 99  1  0  0  0
  4  5  1  0  0  0
  4100  1  0  0  0
  4101  1  0  0  0
  5  6  1  0  0  0
  5 26  1  0  0  0
  5102  1  0  0  0
  6 25  1  0  0  0
  6103  1  0  0  0
  6104  1  0  0  0
  7  8  2  0  0  0
  7 26  1  0  0  0
  7 29  1  0  0  0
  8  9  1  0  0  0
  8 22  1  0  0  0
  9 10  1  0  0  0
  9 27  2  0  0  0
 10 11  2  0  0  0
 10 15  1  0  0  0
 11 12  1  0  0  0
 11105  1  0  0  0
 12 13  2  0  0  0
 12106  1  0  0  0
 13 14  1  0  0  0
 13 31  1  0  0  0
 14 15  2  0  0  0
 14107  1  0  0  0
 15108  1  0  0  0
 16 17  2  0  0  0
 16 21  1  0  0  0
 16 31  1  0  0  0
 17 18  1  0  0  0
 17109  1  0  0  0
 18 19  2  0  0  0
 18110  1  0  0  0
 19 20  1  0  0  0
 19 24  1  0  0  0
 20 21  2  0  0  0
 20111  1  0  0  0
 21 23  1  0  0  0
 22 28  1  0  0  0
 22 32  2  0  0  0
 26 27  1  0  0  0
 28112  1  0  0  0
 28113  1  0  0  0
 29114  1  0  0  0
 29115  1  0  0  0
 33 34  1  0  0  0
 33 66  1  0  0  0
 33 70  2  0  0  0
 34 36  1  0  0  0
 34 59  1  0  0  0
 34116  1  0  0  0
 35 44  2  0  0  0
 35 45  1  0  0  0
 35 68  1  0  0  0
 36 56  1  0  0  0
 36117  1  0  0  0
 37 39  1  0  0  0
 37 47  1  0  0  0
 37 66  1  0  0  0
 37118  1  0  0  0
 38 43  2  0  0  0
 38 46  1  0  0  0
 38 47  1  0  0  0
 39 64  1  0  0  0
 39 67  2  0  0  0
 40 52  1  0  0  0
 40 53  2  0  0  0
 40 58  1  0  0  0
 41119  1  0  0  0
 41120  1  0  0  0
 41121  1  0  0  0
 41 48  1  0  0  0
 42 43  1  0  0  0
 42 66  1  0  0  0
 42122  1  0  0  0
 42123  1  0  0  0
 43 44  1  0  0  0
 44124  1  0  0  0
 45 46  2  0  0  0
 45125  1  0  0  0
 46126  1  0  0  0
 47127  1  0  0  0
 47128  1  0  0  0
 48 56  1  0  0  0
 48 65  1  0  0  0
 48129  1  0  0  0
 49 50  1  0  0  0
 49 53  1  0  0  0
 49 64  1  0  0  0
 49130  1  0  0  0
 50 51  1  0  0  0
 50131  1  0  0  0
 50132  1  0  0  0
 51 52  1  0  0  0
 51133  1  0  0  0
 51134  1  0  0  0
 52135  1  0  0  0
 52136  1  0  0  0
 53 54  1  0  0  0
 54 55  2  0  0  0
 54137  1  0  0  0
 55 57  1  0  0  0
 55138  1  0  0  0
 56 69  2  0  0  0
 57 58  2  0  0  0
 57139  1  0  0  0
 58140  1  0  0  0
 59 60  1  0  0  0
 59 61  1  0  0  0
 59 62  1  0  0  0
 60141  1  0  0  0
 60142  1  0  0  0
 60143  1  0  0  0
 61144  1  0  0  0
 61145  1  0  0  0
 61146  1  0  0  0
 62147  1  0  0  0
 62148  1  0  0  0
 62149  1  0  0  0
 63 65  1  0  0  0
 63150  1  0  0  0
 63151  1  0  0  0
 63152  1  0  0  0
 64153  1  0  0  0
 65154  1  0  0  0
 68 93  1  0  0  0
 71 73  2  0  0  0
 71 77  1  0  0  0
 71155  1  0  0  0
 72 74  2  0  0  0
 72 78  1  0  0  0
 72156  1  0  0  0
 73 74  1  0  0  0
 73 75  1  0  0  0
 74 76  1  0  0  0
 75 79  2  0  0  0
 75 88  1  0  0  0
 76 80  2  0  0  0
 76 87  1  0  0  0
 77 78  2  0  0  0
 77 89  1  0  0  0
 78 90  1  0  0  0
 79 80  1  0  0  0
 79 91  1  0  0  0
 80 94  1  0  0  0
 81 82  1  0  0  0
 81 87  1  0  0  0
 81157  1  0  0  0
 81158  1  0  0  0
 82 87  1  0  0  0
 82159  1  0  0  0
 82160  1  0  0  0
 83 85  1  0  0  0
 83 88  1  0  0  0
 83161  1  0  0  0
 83162  1  0  0  0
 84 86  1  0  0  0
 84 88  1  0  0  0
 84163  1  0  0  0
 84164  1  0  0  0
 85 95  1  0  0  0
 85165  1  0  0  0
 85166  1  0  0  0
 86 95  1  0  0  0
 86167  1  0  0  0
 86168  1  0  0  0
 87169  1  0  0  0
 88170  1  0  0  0
 89171  1  0  0  0
 89172  1  0  0  0
 89173  1  0  0  0
 90174  1  0  0  0
 90175  1  0  0  0
 90176  1  0  0  0
 91177  1  0  0  0
 91178  1  0  0  0
 91179  1  0  0  0
 92180  1  0  0  0
 92181  1  0  0  0
 92182  1  0  0  0
 92 94  1  0  0  0
 93 94  1  0  0  0
 93183  1  0  0  0
 93184  1  0  0  0
 94185  1  0  0  0
M  ISO  4   1 100  68 101  93 101  95 100
M  END
> <chiral flag>
0

> <version>
0

> <s_m_source_file>
/data/baiqing/PycharmProjects/Reinvent-master-3.2/result/LINK_invent/BTK/process_docking_weight1_custom_sum_contain_oxygen_bond_distance_aromatic_linkinvent_7_9_3/rearranged_h_0163.sdf

> <i_m_source_file_index>
35

> <r_mmod_Potential_Energy-OPLS-2005>
399.119049072266

> <r_mmod_Stretch_Energy-OPLS-2005>
100.244087219238

> <r_mmod_Bend_Energy-OPLS-2005>
153.735656738281

> <r_mmod_Torsional_Energy-OPLS-2005>
396.968811035156

> <r_mmod_Improper_Torsional_Energy-OPLS-2005>
18.6598930358887

> <r_mmod_Van_der_Waal_Energy-OPLS-2005>
185.860565185547

> <r_mmod_Electrostatic_Energy-OPLS-2005>
-305.695129394531

> <r_mmod_Solvation_Energy-OPLS-2005>
-192.786285400391

> <b_mmod_Minimization_Converged-OPLS-2005>
0

> <r_mmod_RMS_Derivative-OPLS-2005>
1.68076777458191

$$$$
35
                    3D
 Structure written by MMmdl.
162172  0  0  1  0            999 V2000
  -30.7970  -14.3425   20.6426 C   0  0  0  0  0  0
  -30.4027  -12.2587   19.4021 C   0  0  0  0  0  0
  -29.4805  -12.5121   18.1960 C   0  0  0  0  0  0
  -28.0046  -12.3800   18.6133 C   0  0  0  0  0  0
  -27.6682  -13.2068   19.8827 C   0  0  2  0  0  0
  -28.7087  -12.9621   21.0014 C   0  0  0  0  0  0
  -25.2614  -13.8169   20.5701 C   0  0  0  0  0  0
  -24.1858  -13.0443   20.9163 C   0  0  0  0  0  0
  -24.6407  -11.6893   20.8725 C   0  0  0  0  0  0
  -23.9064  -10.4282   21.0385 C   0  0  0  0  0  0
  -24.3613   -9.4205   21.9169 C   0  0  0  0  0  0
  -23.6289   -8.2245   22.0754 C   0  0  0  0  0  0
  -22.4273   -8.0283   21.3540 C   0  0  0  0  0  0
  -21.9906   -9.0244   20.4636 C   0  0  0  0  0  0
  -22.7233  -10.2122   20.3031 C   0  0  0  0  0  0
  -21.6863   -6.0735   22.5273 C   0  0  0  0  0  0
  -21.4011   -6.5629   23.8198 C   0  0  0  0  0  0
  -21.3648   -5.6785   24.9157 C   0  0  0  0  0  0
  -21.6041   -4.3045   24.7210 C   0  0  0  0  0  0
  -21.8821   -3.8135   23.4325 C   0  0  0  0  0  0
  -21.9196   -4.6961   22.3384 C   0  0  0  0  0  0
  -22.7879  -13.5240   21.1819 C   0  0  0  0  0  0
  -22.1664   -4.2145   21.0967 F   0  0  0  0  0  0
  -21.5628   -3.4529   25.7719 F   0  0  0  0  0  0
  -30.0541  -13.2204   20.4578 N   0  0  0  0  0  0
  -26.3070  -12.9342   20.3424 N   0  0  0  0  0  0
  -25.9339  -11.6497   20.5790 N   0  0  0  0  0  0
  -22.0520  -12.8217   22.0367 N   0  0  0  0  0  0
  -25.4328  -15.1898   20.4124 N   0  0  0  0  0  0
  -31.8302  -14.5744   20.0084 O   0  0  0  0  0  0
  -21.6646   -6.8879   21.4231 O   0  0  0  0  0  0
  -22.3565  -14.5567   20.6697 O   0  0  0  0  0  0
  -24.6132  -31.8698   23.2137 C   0  0  0  0  0  0
  -25.9043  -32.4841   23.8403 C   0  0  1  0  0  0
  -27.2282  -27.4423   20.0893 C   0  0  0  0  0  0
  -25.5911  -33.8629   24.2331 N   0  0  0  0  0  0
  -23.3980  -30.4960   21.5568 C   0  0  2  0  0  0
  -24.8424  -28.9682   20.1160 C   0  0  0  0  0  0
  -22.7410  -29.4664   22.5027 C   0  0  0  0  0  0
  -18.0265  -28.1380   22.8493 C   0  0  0  0  0  0
  -24.1474  -36.7280   23.2635 C   0  0  0  0  0  0
  -25.9275  -30.8392   21.3634 C   0  0  0  0  0  0
  -26.0048  -29.4751   20.7096 C   0  0  0  0  0  0
  -27.2011  -28.7213   20.6924 C   0  0  0  0  0  0
  -26.0421  -26.9551   19.4871 C   0  0  0  0  0  0
  -24.8559  -27.7079   19.5010 C   0  0  0  0  0  0
  -23.6035  -29.8324   20.1696 C   0  0  0  0  0  0
  -25.4098  -36.3102   24.0335 C   0  0  1  0  0  0
  -20.5857  -28.3646   23.1346 C   0  0  2  0  0  0
  -20.6746  -26.9373   22.5459 C   0  0  0  0  0  0
  -19.5754  -26.6370   21.5229 C   0  0  0  0  0  0
  -18.1904  -26.7958   22.1567 C   0  0  0  0  0  0
  -19.1515  -28.8828   23.2923 C   0  0  0  0  0  0
  -18.9452  -30.1443   23.8921 C   0  0  0  0  0  0
  -17.6455  -30.6586   24.0573 C   0  0  0  0  0  0
  -25.9039  -34.9483   23.5129 C   0  0  0  0  0  0
  -16.5338  -29.9093   23.6345 C   0  0  0  0  0  0
  -16.7252  -28.6516   23.0346 C   0  0  0  0  0  0
  -26.4458  -31.6609   25.0718 C   0  0  0  0  0  0
  -25.3729  -31.3744   26.1485 C   0  0  0  0  0  0
  -27.0254  -30.3050   24.6049 C   0  0  0  0  0  0
  -27.6048  -32.4322   25.7470 C   0  0  0  0  0  0
  -27.5598  -37.1776   24.8447 C   0  0  0  0  0  0
  -21.4141  -29.3012   22.3767 N   0  0  0  0  0  0
  -26.4276  -37.3802   23.9439 N   0  0  0  0  0  0
  -24.6653  -31.0805   22.1039 N   0  0  0  0  0  0
  -23.4203  -28.8200   23.3051 O   0  0  0  0  0  0
  -28.3981  -26.7078   20.0960 O   0  0  0  0  0  0
  -26.5593  -34.8942   22.4686 O   0  0  0  0  0  0
  -23.5337  -32.1443   23.7554 O   0  0  0  0  0  0
  -32.2698  -21.4412   21.6122 C   0  0  0  0  0  0
  -31.7720  -20.1349   21.7690 C   0  0  0  0  0  0
  -31.4261  -22.4675   21.1523 C   0  0  0  0  0  0
  -30.4373  -19.8265   21.4269 C   0  0  0  0  0  0
  -29.5979  -20.8597   20.9354 C   0  0  0  0  0  0
  -30.0787  -22.1889   20.8245 C   0  0  0  0  0  0
  -28.8377  -17.9362   22.4141 C   0  0  0  0  0  0
  -30.6614  -17.4668   20.5469 C   0  0  0  0  0  0
  -30.2483  -17.4587   22.6575 C   0  0  1  0  0  0
  -30.9827  -16.5295   21.7152 C   0  0  1  0  0  0
  -29.9550  -18.3982   21.5000 C   0  0  1  0  0  0
  -28.1839  -20.5316   20.4633 C   0  0  0  0  0  0
  -28.2363  -25.2852   20.1904 C   0  0  0  0  0  0
  -29.5597  -24.5193   20.3304 C   0  0  0  0  0  0
  -30.3477  -15.2218   21.5444 N   0  0  0  0  0  0
  -29.1906  -23.1428   20.3775 O   0  0  0  0  0  0
  -31.4498  -12.3200   19.0984 H   0  0  0  0  0  0
  -30.2689  -11.2412   19.7731 H   0  0  0  0  0  0
  -29.7052  -11.8048   17.3965 H   0  0  0  0  0  0
  -29.6617  -13.5074   17.7862 H   0  0  0  0  0  0
  -27.8031  -11.3235   18.7932 H   0  0  0  0  0  0
  -27.3510  -12.6728   17.7899 H   0  0  0  0  0  0
  -27.7231  -14.2598   19.6040 H   0  0  0  0  0  0
  -28.6581  -11.9276   21.3436 H   0  0  0  0  0  0
  -28.4760  -13.5676   21.8773 H   0  0  0  0  0  0
  -25.2758   -9.5683   22.4742 H   0  0  0  0  0  0
  -23.9985   -7.4647   22.7477 H   0  0  0  0  0  0
  -21.0838   -8.8747   19.8944 H   0  0  0  0  0  0
  -22.3688  -10.9651   19.6128 H   0  0  0  0  0  0
  -21.1996   -7.6136   23.9700 H   0  0  0  0  0  0
  -21.1471   -6.0511   25.9065 H   0  0  0  0  0  0
  -22.0610   -2.7595   23.2828 H   0  0  0  0  0  0
  -22.4113  -11.9839   22.4695 H   0  0  0  0  0  0
  -21.1146  -13.1247   22.2589 H   0  0  0  0  0  0
  -24.6659  -15.8444   20.5245 H   0  0  0  0  0  0
  -26.2935  -15.6317   20.1130 H   0  0  0  0  0  0
  -26.7111  -32.5537   23.1163 H   0  0  0  0  0  0
  -25.0116  -33.9810   25.0517 H   0  0  0  0  0  0
  -22.6853  -31.3125   21.4225 H   0  0  0  0  0  0
  -23.3785  -35.9562   23.3255 H   0  0  0  0  0  0
  -24.3579  -36.8936   22.2058 H   0  0  0  0  0  0
  -23.7166  -37.6438   23.6681 H   0  0  0  0  0  0
  -26.0312  -31.6050   20.5933 H   0  0  0  0  0  0
  -26.8188  -30.8962   21.9752 H   0  0  0  0  0  0
  -28.0964  -29.1108   21.1584 H   0  0  0  0  0  0
  -26.0032  -26.0012   18.9851 H   0  0  0  0  0  0
  -23.9642  -27.3143   19.0326 H   0  0  0  0  0  0
  -23.7064  -30.6079   19.4108 H   0  0  0  0  0  0
  -22.7272  -29.2496   19.8766 H   0  0  0  0  0  0
  -25.1278  -36.1938   25.0828 H   0  0  0  0  0  0
  -20.9930  -28.3189   24.1475 H   0  0  0  0  0  0
  -20.5600  -26.2248   23.3642 H   0  0  0  0  0  0
  -21.6623  -26.7411   22.1269 H   0  0  0  0  0  0
  -19.6904  -25.6293   21.1231 H   0  0  0  0  0  0
  -19.6744  -27.3207   20.6794 H   0  0  0  0  0  0
  -17.4225  -26.6821   21.3899 H   0  0  0  0  0  0
  -18.0195  -26.0050   22.8888 H   0  0  0  0  0  0
  -19.7927  -30.7262   24.2273 H   0  0  0  0  0  0
  -17.5014  -31.6271   24.5176 H   0  0  0  0  0  0
  -15.5344  -30.2998   23.7694 H   0  0  0  0  0  0
  -15.8638  -28.0862   22.7032 H   0  0  0  0  0  0
  -24.5978  -30.6964   25.7888 H   0  0  0  0  0  0
  -24.8829  -32.2906   26.4796 H   0  0  0  0  0  0
  -25.8108  -30.9077   27.0323 H   0  0  0  0  0  0
  -26.2760  -29.6849   24.1115 H   0  0  0  0  0  0
  -27.4059  -29.7233   25.4456 H   0  0  0  0  0  0
  -27.8582  -30.4370   23.9141 H   0  0  0  0  0  0
  -27.2681  -33.3649   26.2004 H   0  0  0  0  0  0
  -28.3878  -32.6834   25.0302 H   0  0  0  0  0  0
  -28.0681  -31.8474   26.5423 H   0  0  0  0  0  0
  -28.2567  -38.0121   24.7572 H   0  0  0  0  0  0
  -28.1138  -36.2673   24.6135 H   0  0  0  0  0  0
  -27.2360  -37.1248   25.8855 H   0  0  0  0  0  0
  -20.9283  -29.8754   21.7017 H   0  0  0  0  0  0
  -26.0155  -38.2853   24.1541 H   0  0  0  0  0  0
  -33.3060  -21.6569   21.8391 H   0  0  0  0  0  0
  -32.4355  -19.3536   22.1158 H   0  0  0  0  0  0
  -31.8388  -23.4593   21.0459 H   0  0  0  0  0  0
  -28.4298  -18.6474   23.1291 H   0  0  0  0  0  0
  -28.1232  -17.2190   22.0150 H   0  0  0  0  0  0
  -30.0065  -17.0348   19.7882 H   0  0  0  0  0  0
  -31.5628  -17.8655   20.0789 H   0  0  0  0  0  0
  -30.8083  -17.8664   23.4972 H   0  0  0  0  0  0
  -32.0534  -16.4696   21.9230 H   0  0  0  0  0  0
  -28.2333  -20.0083   19.5074 H   0  0  0  0  0  0
  -27.5648  -21.4146   20.3159 H   0  0  0  0  0  0
  -27.6483  -19.9000   21.1699 H   0  0  0  0  0  0
  -27.6103  -25.0536   21.0556 H   0  0  0  0  0  0
  -27.7319  -24.8830   19.3129 H   0  0  0  0  0  0
  -30.0809  -24.8432   21.2303 H   0  0  0  0  0  0
  -30.1985  -24.6952   19.4652 H   0  0  0  0  0  0
  -29.5253  -14.9924   22.0837 H   0  0  0  0  0  0
  1 25  1  0  0  0
  1 30  2  0  0  0
  1 85  1  0  0  0
  2  3  1  0  0  0
  2 25  1  0  0  0
  2 87  1  0  0  0
  2 88  1  0  0  0
  3  4  1  0  0  0
  3 89  1  0  0  0
  3 90  1  0  0  0
  4  5  1  0  0  0
  4 91  1  0  0  0
  4 92  1  0  0  0
  5  6  1  0  0  0
  5 26  1  0  0  0
  5 93  1  0  0  0
  6 25  1  0  0  0
  6 94  1  0  0  0
  6 95  1  0  0  0
  7  8  2  0  0  0
  7 26  1  0  0  0
  7 29  1  0  0  0
  8  9  1  0  0  0
  8 22  1  0  0  0
  9 10  1  0  0  0
  9 27  2  0  0  0
 10 11  2  0  0  0
 10 15  1  0  0  0
 11 12  1  0  0  0
 11 96  1  0  0  0
 12 13  2  0  0  0
 12 97  1  0  0  0
 13 14  1  0  0  0
 13 31  1  0  0  0
 14 15  2  0  0  0
 14 98  1  0  0  0
 15 99  1  0  0  0
 16 17  2  0  0  0
 16 21  1  0  0  0
 16 31  1  0  0  0
 17 18  1  0  0  0
 17100  1  0  0  0
 18 19  2  0  0  0
 18101  1  0  0  0
 19 20  1  0  0  0
 19 24  1  0  0  0
 20 21  2  0  0  0
 20102  1  0  0  0
 21 23  1  0  0  0
 22 28  1  0  0  0
 22 32  2  0  0  0
 26 27  1  0  0  0
 28103  1  0  0  0
 28104  1  0  0  0
 29105  1  0  0  0
 29106  1  0  0  0
 33 34  1  0  0  0
 33 66  1  0  0  0
 33 70  2  0  0  0
 34 36  1  0  0  0
 34 59  1  0  0  0
 34107  1  0  0  0
 35 44  2  0  0  0
 35 45  1  0  0  0
 35 68  1  0  0  0
 36 56  1  0  0  0
 36108  1  0  0  0
 37 39  1  0  0  0
 37 47  1  0  0  0
 37 66  1  0  0  0
 37109  1  0  0  0
 38 43  2  0  0  0
 38 46  1  0  0  0
 38 47  1  0  0  0
 39 64  1  0  0  0
 39 67  2  0  0  0
 40 52  1  0  0  0
 40 53  2  0  0  0
 40 58  1  0  0  0
 41110  1  0  0  0
 41111  1  0  0  0
 41112  1  0  0  0
 41 48  1  0  0  0
 42 43  1  0  0  0
 42 66  1  0  0  0
 42113  1  0  0  0
 42114  1  0  0  0
 43 44  1  0  0  0
 44115  1  0  0  0
 45 46  2  0  0  0
 45116  1  0  0  0
 46117  1  0  0  0
 47118  1  0  0  0
 47119  1  0  0  0
 48 56  1  0  0  0
 48 65  1  0  0  0
 48120  1  0  0  0
 49 50  1  0  0  0
 49 53  1  0  0  0
 49 64  1  0  0  0
 49121  1  0  0  0
 50 51  1  0  0  0
 50122  1  0  0  0
 50123  1  0  0  0
 51 52  1  0  0  0
 51124  1  0  0  0
 51125  1  0  0  0
 52126  1  0  0  0
 52127  1  0  0  0
 53 54  1  0  0  0
 54 55  2  0  0  0
 54128  1  0  0  0
 55 57  1  0  0  0
 55129  1  0  0  0
 56 69  2  0  0  0
 57 58  2  0  0  0
 57130  1  0  0  0
 58131  1  0  0  0
 59 60  1  0  0  0
 59 61  1  0  0  0
 59 62  1  0  0  0
 60132  1  0  0  0
 60133  1  0  0  0
 60134  1  0  0  0
 61135  1  0  0  0
 61136  1  0  0  0
 61137  1  0  0  0
 62138  1  0  0  0
 62139  1  0  0  0
 62140  1  0  0  0
 63 65  1  0  0  0
 63141  1  0  0  0
 63142  1  0  0  0
 63143  1  0  0  0
 64144  1  0  0  0
 65145  1  0  0  0
 68 83  1  0  0  0
 71 72  2  0  0  0
 71 73  1  0  0  0
 71146  1  0  0  0
 72 74  1  0  0  0
 72147  1  0  0  0
 73 76  2  0  0  0
 73148  1  0  0  0
 74 75  2  0  0  0
 74 81  1  0  0  0
 75 76  1  0  0  0
 75 82  1  0  0  0
 76 86  1  0  0  0
 77 81  1  0  0  0
 77149  1  0  0  0
 77150  1  0  0  0
 77 79  1  0  0  0
 78 80  1  0  0  0
 78 81  1  0  0  0
 78151  1  0  0  0
 78152  1  0  0  0
 79 80  1  0  0  0
 79 81  1  0  0  0
 79153  1  0  0  0
 80 85  1  0  0  0
 80154  1  0  0  0
 82155  1  0  0  0
 82156  1  0  0  0
 82157  1  0  0  0
 83 84  1  0  0  0
 83158  1  0  0  0
 83159  1  0  0  0
 84 86  1  0  0  0
 84160  1  0  0  0
 84161  1  0  0  0
 85162  1  0  0  0
M  ISO  4   1 100  68 101  83 101  85 100
M  END
> <chiral flag>
0

> <version>
0

> <s_m_source_file>
/data/baiqing/PycharmProjects/Reinvent-master-3.2/result/LINK_invent/BTK/process_docking_weight1_custom_sum_contain_oxygen_bond_distance_aromatic_linkinvent_7_9_3/rearranged_h_0163.sdf

> <i_m_source_file_index>
36

> <r_mmod_Potential_Energy-OPLS-2005>
279.595550537109

> <r_mmod_Stretch_Energy-OPLS-2005>
34.509521484375

> <r_mmod_Bend_Energy-OPLS-2005>
396.361175537109

> <r_mmod_Torsional_Energy-OPLS-2005>
272.057159423828

> <r_mmod_Improper_Torsional_Energy-OPLS-2005>
2.04593062400818

> <r_mmod_Van_der_Waal_Energy-OPLS-2005>
164.442642211914

> <r_mmod_Electrostatic_Energy-OPLS-2005>
-392.264282226562

> <r_mmod_Solvation_Energy-OPLS-2005>
-207.073913574219

> <b_mmod_Minimization_Converged-OPLS-2005>
0

> <r_mmod_RMS_Derivative-OPLS-2005>
2.69050168991089

$$$$
36
                    3D
 Structure written by MMmdl.
176185  0  0  1  0            999 V2000
  -30.7509  -14.4540   20.6223 C   0  0  0  0  0  0
  -30.4116  -12.3146   19.4282 C   0  0  0  0  0  0
  -29.4896  -12.5299   18.2125 C   0  0  0  0  0  0
  -28.0146  -12.3675   18.6219 C   0  0  0  0  0  0
  -27.6579  -13.1958   19.8826 C   0  0  2  0  0  0
  -28.7039  -12.9767   21.0045 C   0  0  0  0  0  0
  -25.2552  -13.8107   20.5709 C   0  0  0  0  0  0
  -24.1805  -13.0387   20.9206 C   0  0  0  0  0  0
  -24.6356  -11.6868   20.8768 C   0  0  0  0  0  0
  -23.9009  -10.4265   21.0411 C   0  0  0  0  0  0
  -24.3555   -9.4177   21.9176 C   0  0  0  0  0  0
  -23.6248   -8.2222   22.0766 C   0  0  0  0  0  0
  -22.4239   -8.0240   21.3542 C   0  0  0  0  0  0
  -21.9869   -9.0215   20.4646 C   0  0  0  0  0  0
  -22.7189  -10.2102   20.3051 C   0  0  0  0  0  0
  -21.6856   -6.0706   22.5288 C   0  0  0  0  0  0
  -21.4014   -6.5620   23.8219 C   0  0  0  0  0  0
  -21.3676   -5.6783   24.9196 C   0  0  0  0  0  0
  -21.6057   -4.3046   24.7252 C   0  0  0  0  0  0
  -21.8815   -3.8125   23.4372 C   0  0  0  0  0  0
  -21.9193   -4.6936   22.3419 C   0  0  0  0  0  0
  -22.7838  -13.5195   21.1885 C   0  0  0  0  0  0
  -22.1649   -4.2106   21.1005 F   0  0  0  0  0  0
  -21.5642   -3.4537   25.7771 F   0  0  0  0  0  0
  -30.0321  -13.3002   20.4589 N   0  0  0  0  0  0
  -26.2989  -12.9254   20.3425 N   0  0  0  0  0  0
  -25.9276  -11.6433   20.5808 N   0  0  0  0  0  0
  -22.0500  -12.8172   22.0440 N   0  0  0  0  0  0
  -25.4293  -15.1832   20.4087 N   0  0  0  0  0  0
  -31.8445  -14.6009   20.0680 O   0  0  0  0  0  0
  -21.6617   -6.8832   21.4227 O   0  0  0  0  0  0
  -22.3508  -14.5515   20.6781 O   0  0  0  0  0  0
  -24.6090  -31.8702   23.2145 C   0  0  0  0  0  0
  -25.8997  -32.4842   23.8417 C   0  0  1  0  0  0
  -27.2416  -27.4681   20.0855 C   0  0  0  0  0  0
  -25.5883  -33.8641   24.2363 N   0  0  0  0  0  0
  -23.3978  -30.4882   21.5544 C   0  0  2  0  0  0
  -24.8490  -28.9598   20.1151 C   0  0  0  0  0  0
  -22.7394  -29.4612   22.5023 C   0  0  0  0  0  0
  -18.0280  -28.1390   22.8488 C   0  0  0  0  0  0
  -24.1489  -36.7305   23.2638 C   0  0  0  0  0  0
  -25.9214  -30.8409   21.3671 C   0  0  0  0  0  0
  -26.0023  -29.4751   20.7197 C   0  0  0  0  0  0
  -27.1974  -28.7266   20.7200 C   0  0  0  0  0  0
  -26.0729  -26.9527   19.4882 C   0  0  0  0  0  0
  -24.8742  -27.6932   19.5016 C   0  0  0  0  0  0
  -23.6094  -29.8221   20.1669 C   0  0  0  0  0  0
  -25.4109  -36.3128   24.0351 C   0  0  1  0  0  0
  -20.5862  -28.3649   23.1361 C   0  0  2  0  0  0
  -20.6768  -26.9389   22.5435 C   0  0  0  0  0  0
  -19.5751  -26.6380   21.5224 C   0  0  0  0  0  0
  -18.1923  -26.7935   22.1617 C   0  0  0  0  0  0
  -19.1526  -28.8853   23.2909 C   0  0  0  0  0  0
  -18.9446  -30.1474   23.8899 C   0  0  0  0  0  0
  -17.6448  -30.6594   24.0570 C   0  0  0  0  0  0
  -25.9029  -34.9484   23.5163 C   0  0  0  0  0  0
  -16.5345  -29.9083   23.6336 C   0  0  0  0  0  0
  -16.7269  -28.6510   23.0330 C   0  0  0  0  0  0
  -26.4447  -31.6591   25.0711 C   0  0  0  0  0  0
  -25.3744  -31.3658   26.1472 C   0  0  0  0  0  0
  -27.0276  -30.3065   24.6017 C   0  0  0  0  0  0
  -27.6033  -32.4283   25.7503 C   0  0  0  0  0  0
  -27.5594  -37.1808   24.8456 C   0  0  0  0  0  0
  -21.4131  -29.3000   22.3781 N   0  0  0  0  0  0
  -26.4296  -37.3810   23.9412 N   0  0  0  0  0  0
  -24.6611  -31.0792   22.1056 N   0  0  0  0  0  0
  -23.4162  -28.8147   23.3064 O   0  0  0  0  0  0
  -28.4108  -26.7466   20.0966 O   0  0  0  0  0  0
  -26.5563  -34.8927   22.4708 O   0  0  0  0  0  0
  -23.5291  -32.1430   23.7569 O   0  0  0  0  0  0
  -31.2852  -22.5203   18.8002 C   0  0  0  0  0  0
  -29.9141  -22.1115   20.7946 C   0  0  0  0  0  0
  -30.3775  -23.0006   19.7843 C   0  0  0  0  0  0
  -31.7079  -21.1718   18.8666 C   0  0  0  0  0  0
  -30.3588  -20.7536   20.7937 C   0  0  0  0  0  0
  -28.8204  -17.5853   21.4920 C   0  0  0  0  0  0
  -30.9599  -17.6622   22.6120 C   0  0  0  0  0  0
  -29.0125  -16.1246   21.0396 C   0  0  0  0  0  0
  -31.2644  -16.1817   22.2746 C   0  0  0  0  0  0
  -30.1396  -18.3464   21.5191 C   0  0  0  0  0  0
  -31.8369  -23.4302   17.7092 C   0  0  0  0  0  0
  -28.9504  -22.6326   21.8585 C   0  0  0  0  0  0
  -32.7005  -20.5472   17.9004 C   0  0  0  0  0  0
  -30.2788  -27.1612   18.6834 C   0  0  0  0  0  0
  -29.1173  -24.8585   18.7505 C   0  0  0  0  0  0
  -28.9565  -26.3924   18.8285 C   0  0  1  0  0  0
  -31.2377  -20.3733   19.8408 N   0  3  0  0  0  0
  -30.2674  -15.4336   21.4476 N   0  0  0  0  0  0
  -29.9862  -24.3568   19.8151 N   0  0  0  0  0  0
  -29.9529  -19.7895   21.7434 N   0  0  0  0  0  0
  -31.4574  -12.3921   19.1250 H   0  0  0  0  0  0
  -30.2971  -11.3009   19.8171 H   0  0  0  0  0  0
  -29.7363  -11.8299   17.4135 H   0  0  0  0  0  0
  -29.6480  -13.5290   17.8004 H   0  0  0  0  0  0
  -27.8372  -11.3071   18.8061 H   0  0  0  0  0  0
  -27.3623  -12.6423   17.7914 H   0  0  0  0  0  0
  -27.6860  -14.2366   19.5680 H   0  0  0  0  0  0
  -28.6888  -11.9317   21.3174 H   0  0  0  0  0  0
  -28.4671  -13.5337   21.9100 H   0  0  0  0  0  0
  -25.2688   -9.5649   22.4746 H   0  0  0  0  0  0
  -23.9970   -7.4603   22.7455 H   0  0  0  0  0  0
  -21.0829   -8.8687   19.8910 H   0  0  0  0  0  0
  -22.3627  -10.9625   19.6151 H   0  0  0  0  0  0
  -21.1981   -7.6120   23.9694 H   0  0  0  0  0  0
  -21.1523   -6.0540   25.9093 H   0  0  0  0  0  0
  -22.0579   -2.7579   23.2926 H   0  0  0  0  0  0
  -22.4112  -11.9786   22.4739 H   0  0  0  0  0  0
  -21.1118  -13.1207   22.2661 H   0  0  0  0  0  0
  -24.6645  -15.8435   20.4960 H   0  0  0  0  0  0
  -26.2851  -15.6176   20.0906 H   0  0  0  0  0  0
  -26.7054  -32.5592   23.1167 H   0  0  0  0  0  0
  -25.0102  -33.9832   25.0553 H   0  0  0  0  0  0
  -22.6825  -31.3037   21.4191 H   0  0  0  0  0  0
  -23.3775  -35.9609   23.3263 H   0  0  0  0  0  0
  -24.3594  -36.8950   22.2056 H   0  0  0  0  0  0
  -23.7192  -37.6482   23.6657 H   0  0  0  0  0  0
  -26.0172  -31.6044   20.5933 H   0  0  0  0  0  0
  -26.8140  -30.9062   21.9776 H   0  0  0  0  0  0
  -28.0880  -29.1152   21.1936 H   0  0  0  0  0  0
  -26.0856  -25.9780   19.0236 H   0  0  0  0  0  0
  -23.9858  -27.2871   19.0387 H   0  0  0  0  0  0
  -23.7186  -30.5993   19.4109 H   0  0  0  0  0  0
  -22.7341  -29.2454   19.8668 H   0  0  0  0  0  0
  -25.1279  -36.2006   25.0841 H   0  0  0  0  0  0
  -20.9953  -28.3189   24.1487 H   0  0  0  0  0  0
  -20.5729  -26.2220   23.3596 H   0  0  0  0  0  0
  -21.6636  -26.7458   22.1213 H   0  0  0  0  0  0
  -19.6899  -25.6291   21.1254 H   0  0  0  0  0  0
  -19.6726  -27.3207   20.6774 H   0  0  0  0  0  0
  -17.4210  -26.6746   21.3991 H   0  0  0  0  0  0
  -18.0274  -26.0084   22.9020 H   0  0  0  0  0  0
  -19.7924  -30.7318   24.2230 H   0  0  0  0  0  0
  -17.4989  -31.6280   24.5168 H   0  0  0  0  0  0
  -15.5346  -30.2976   23.7661 H   0  0  0  0  0  0
  -15.8676  -28.0859   22.6985 H   0  0  0  0  0  0
  -24.5903  -30.7025   25.7780 H   0  0  0  0  0  0
  -24.8969  -32.2827   26.4964 H   0  0  0  0  0  0
  -25.8148  -30.8775   27.0186 H   0  0  0  0  0  0
  -26.2811  -29.6851   24.1067 H   0  0  0  0  0  0
  -27.4068  -29.7256   25.4428 H   0  0  0  0  0  0
  -27.8619  -30.4403   23.9129 H   0  0  0  0  0  0
  -27.2628  -33.3527   26.2178 H   0  0  0  0  0  0
  -28.3822  -32.6930   25.0338 H   0  0  0  0  0  0
  -28.0698  -31.8329   26.5355 H   0  0  0  0  0  0
  -28.2576  -38.0147   24.7587 H   0  0  0  0  0  0
  -28.1151  -36.2687   24.6208 H   0  0  0  0  0  0
  -27.2326  -37.1370   25.8865 H   0  0  0  0  0  0
  -20.9292  -29.8708   21.7015 H   0  0  0  0  0  0
  -26.0191  -38.2879   24.1480 H   0  0  0  0  0  0
  -28.3665  -17.6015   22.4846 H   0  0  0  0  0  0
  -28.1088  -18.0765   20.8301 H   0  0  0  0  0  0
  -31.8969  -18.1970   22.7773 H   0  0  0  0  0  0
  -30.4287  -17.7164   23.5621 H   0  0  0  0  0  0
  -28.9550  -16.1225   19.9489 H   0  0  0  0  0  0
  -28.1452  -15.5754   21.3946 H   0  0  0  0  0  0
  -31.4315  -15.6280   23.1991 H   0  0  0  0  0  0
  -32.2401  -16.1927   21.7878 H   0  0  0  0  0  0
  -30.6334  -18.1697   20.5674 H   0  0  0  0  0  0
  -31.9384  -24.4588   18.0574 H   0  0  0  0  0  0
  -31.1740  -23.4203   16.8432 H   0  0  0  0  0  0
  -32.8251  -23.1182   17.3758 H   0  0  0  0  0  0
  -29.3838  -23.4852   22.3813 H   0  0  0  0  0  0
  -28.6943  -21.8913   22.6132 H   0  0  0  0  0  0
  -28.0246  -22.9704   21.3896 H   0  0  0  0  0  0
  -32.4389  -20.7776   16.8674 H   0  0  0  0  0  0
  -32.7283  -19.4617   17.9987 H   0  0  0  0  0  0
  -33.7047  -20.9247   18.0946 H   0  0  0  0  0  0
  -30.7505  -26.9660   17.7211 H   0  0  0  0  0  0
  -30.9878  -26.8873   19.4652 H   0  0  0  0  0  0
  -30.1084  -28.2357   18.7586 H   0  0  0  0  0  0
  -29.4915  -24.5862   17.7646 H   0  0  0  0  0  0
  -28.1382  -24.3875   18.8433 H   0  0  0  0  0  0
  -28.3064  -26.7122   18.0118 H   0  0  0  0  0  0
  -31.5762  -19.4115   19.8686 H   0  0  0  0  0  0
  -29.6598  -24.6605   20.7235 H   0  0  0  0  0  0
  -29.2587  -20.0679   22.4236 H   0  0  0  0  0  0
  1 25  1  0  0  0
  1 30  2  0  0  0
  1 88  1  0  0  0
  2  3  1  0  0  0
  2 25  1  0  0  0
  2 91  1  0  0  0
  2 92  1  0  0  0
  3  4  1  0  0  0
  3 93  1  0  0  0
  3 94  1  0  0  0
  4  5  1  0  0  0
  4 95  1  0  0  0
  4 96  1  0  0  0
  5  6  1  0  0  0
  5 26  1  0  0  0
  5 97  1  0  0  0
  6 25  1  0  0  0
  6 98  1  0  0  0
  6 99  1  0  0  0
  7  8  2  0  0  0
  7 26  1  0  0  0
  7 29  1  0  0  0
  8  9  1  0  0  0
  8 22  1  0  0  0
  9 10  1  0  0  0
  9 27  2  0  0  0
 10 11  2  0  0  0
 10 15  1  0  0  0
 11 12  1  0  0  0
 11100  1  0  0  0
 12 13  2  0  0  0
 12101  1  0  0  0
 13 14  1  0  0  0
 13 31  1  0  0  0
 14 15  2  0  0  0
 14102  1  0  0  0
 15103  1  0  0  0
 16 17  2  0  0  0
 16 21  1  0  0  0
 16 31  1  0  0  0
 17 18  1  0  0  0
 17104  1  0  0  0
 18 19  2  0  0  0
 18105  1  0  0  0
 19 20  1  0  0  0
 19 24  1  0  0  0
 20 21  2  0  0  0
 20106  1  0  0  0
 21 23  1  0  0  0
 22 28  1  0  0  0
 22 32  2  0  0  0
 26 27  1  0  0  0
 28107  1  0  0  0
 28108  1  0  0  0
 29109  1  0  0  0
 29110  1  0  0  0
 33 34  1  0  0  0
 33 66  1  0  0  0
 33 70  2  0  0  0
 34 36  1  0  0  0
 34 59  1  0  0  0
 34111  1  0  0  0
 35 44  2  0  0  0
 35 45  1  0  0  0
 35 68  1  0  0  0
 36 56  1  0  0  0
 36112  1  0  0  0
 37 39  1  0  0  0
 37 47  1  0  0  0
 37 66  1  0  0  0
 37113  1  0  0  0
 38 43  2  0  0  0
 38 46  1  0  0  0
 38 47  1  0  0  0
 39 64  1  0  0  0
 39 67  2  0  0  0
 40 52  1  0  0  0
 40 53  2  0  0  0
 40 58  1  0  0  0
 41114  1  0  0  0
 41115  1  0  0  0
 41116  1  0  0  0
 41 48  1  0  0  0
 42 43  1  0  0  0
 42 66  1  0  0  0
 42117  1  0  0  0
 42118  1  0  0  0
 43 44  1  0  0  0
 44119  1  0  0  0
 45 46  2  0  0  0
 45120  1  0  0  0
 46121  1  0  0  0
 47122  1  0  0  0
 47123  1  0  0  0
 48 56  1  0  0  0
 48 65  1  0  0  0
 48124  1  0  0  0
 49 50  1  0  0  0
 49 53  1  0  0  0
 49 64  1  0  0  0
 49125  1  0  0  0
 50 51  1  0  0  0
 50126  1  0  0  0
 50127  1  0  0  0
 51 52  1  0  0  0
 51128  1  0  0  0
 51129  1  0  0  0
 52130  1  0  0  0
 52131  1  0  0  0
 53 54  1  0  0  0
 54 55  2  0  0  0
 54132  1  0  0  0
 55 57  1  0  0  0
 55133  1  0  0  0
 56 69  2  0  0  0
 57 58  2  0  0  0
 57134  1  0  0  0
 58135  1  0  0  0
 59 60  1  0  0  0
 59 61  1  0  0  0
 59 62  1  0  0  0
 60136  1  0  0  0
 60137  1  0  0  0
 60138  1  0  0  0
 61139  1  0  0  0
 61140  1  0  0  0
 61141  1  0  0  0
 62142  1  0  0  0
 62143  1  0  0  0
 62144  1  0  0  0
 63 65  1  0  0  0
 63145  1  0  0  0
 63146  1  0  0  0
 63147  1  0  0  0
 64148  1  0  0  0
 65149  1  0  0  0
 68 86  1  0  0  0
 71 73  2  0  0  0
 71 74  1  0  0  0
 71 81  1  0  0  0
 72 73  1  0  0  0
 72 75  2  0  0  0
 72 82  1  0  0  0
 73 89  1  0  0  0
 74 83  1  0  0  0
 74 87  2  0  0  0
 75 87  1  0  0  0
 75 90  1  0  0  0
 76 78  1  0  0  0
 76 80  1  0  0  0
 76150  1  0  0  0
 76151  1  0  0  0
 77 79  1  0  0  0
 77 80  1  0  0  0
 77152  1  0  0  0
 77153  1  0  0  0
 78 88  1  0  0  0
 78154  1  0  0  0
 78155  1  0  0  0
 79 88  1  0  0  0
 79156  1  0  0  0
 79157  1  0  0  0
 80 90  1  0  0  0
 80158  1  0  0  0
 81159  1  0  0  0
 81160  1  0  0  0
 81161  1  0  0  0
 82162  1  0  0  0
 82163  1  0  0  0
 82164  1  0  0  0
 83165  1  0  0  0
 83166  1  0  0  0
 83167  1  0  0  0
 84168  1  0  0  0
 84169  1  0  0  0
 84170  1  0  0  0
 84 86  1  0  0  0
 85 86  1  0  0  0
 85 89  1  0  0  0
 85171  1  0  0  0
 85172  1  0  0  0
 86173  1  0  0  0
 87174  1  0  0  0
 89175  1  0  0  0
 90176  1  0  0  0
M  CHG  1  87   1
M  ISO  4   1 100  68 101  86 101  88 100
M  END
> <chiral flag>
0

> <version>
0

> <s_m_source_file>
/data/baiqing/PycharmProjects/Reinvent-master-3.2/result/LINK_invent/BTK/process_docking_weight1_custom_sum_contain_oxygen_bond_distance_aromatic_linkinvent_7_9_3/rearranged_h_0163.sdf

> <i_m_source_file_index>
37

> <r_mmod_Potential_Energy-OPLS-2005>
125.718482971191

> <r_mmod_Stretch_Energy-OPLS-2005>
46.7369651794434

> <r_mmod_Bend_Energy-OPLS-2005>
134.144393920898

> <r_mmod_Torsional_Energy-OPLS-2005>
353.940155029297

> <r_mmod_Improper_Torsional_Energy-OPLS-2005>
9.46054363250732

> <r_mmod_Van_der_Waal_Energy-OPLS-2005>
178.804153442383

> <r_mmod_Electrostatic_Energy-OPLS-2005>
-237.154907226562

> <r_mmod_Solvation_Energy-OPLS-2005>
-370.815765380859

> <b_mmod_Minimization_Converged-OPLS-2005>
0

> <r_mmod_RMS_Derivative-OPLS-2005>
3.89360737800598

$$$$
37
                    3D
 Structure written by MMmdl.
184193  0  0  1  0            999 V2000
  -30.5648  -14.7162   20.3933 C   0  0  0  0  0  0
  -30.4331  -12.4176   19.4686 C   0  0  0  0  0  0
  -29.5237  -12.5121   18.2275 C   0  0  0  0  0  0
  -28.0392  -12.3230   18.6199 C   0  0  0  0  0  0
  -27.6374  -13.2077   19.8320 C   0  0  2  0  0  0
  -28.6803  -13.1436   20.9708 C   0  0  0  0  0  0
  -25.2558  -13.8102   20.5678 C   0  0  0  0  0  0
  -24.1832  -13.0434   20.9193 C   0  0  0  0  0  0
  -24.6365  -11.6880   20.8726 C   0  0  0  0  0  0
  -23.9029  -10.4304   21.0413 C   0  0  0  0  0  0
  -24.3642   -9.4233   21.9178 C   0  0  0  0  0  0
  -23.6378   -8.2230   22.0720 C   0  0  0  0  0  0
  -22.4339   -8.0290   21.3525 C   0  0  0  0  0  0
  -21.9947   -9.0197   20.4600 C   0  0  0  0  0  0
  -22.7211  -10.2131   20.3029 C   0  0  0  0  0  0
  -21.6871   -6.0789   22.5284 C   0  0  0  0  0  0
  -21.4010   -6.5658   23.8230 C   0  0  0  0  0  0
  -21.3659   -5.6803   24.9182 C   0  0  0  0  0  0
  -21.6045   -4.3064   24.7183 C   0  0  0  0  0  0
  -21.8820   -3.8177   23.4318 C   0  0  0  0  0  0
  -21.9185   -4.6995   22.3372 C   0  0  0  0  0  0
  -22.7882  -13.5247   21.1848 C   0  0  0  0  0  0
  -22.1669   -4.2209   21.0959 F   0  0  0  0  0  0
  -21.5620   -3.4537   25.7697 F   0  0  0  0  0  0
  -29.9864  -13.4772   20.3865 N   0  0  0  0  0  0
  -26.2940  -12.9265   20.3172 N   0  0  0  0  0  0
  -25.9298  -11.6432   20.5669 N   0  0  0  0  0  0
  -22.0551  -12.8217   22.0411 N   0  0  0  0  0  0
  -25.4233  -15.1787   20.4046 N   0  0  0  0  0  0
  -31.7720  -14.8660   20.2043 O   0  0  0  0  0  0
  -21.6646   -6.8914   21.4268 O   0  0  0  0  0  0
  -22.3569  -14.5593   20.6716 O   0  0  0  0  0  0
  -24.6318  -31.8601   23.1981 C   0  0  0  0  0  0
  -25.9113  -32.4805   23.8304 C   0  0  1  0  0  0
  -27.2125  -27.2665   20.1026 C   0  0  0  0  0  0
  -25.5872  -33.8606   24.2214 N   0  0  0  0  0  0
  -23.4292  -30.4754   21.5545 C   0  0  2  0  0  0
  -24.8635  -28.9192   20.1211 C   0  0  0  0  0  0
  -22.7534  -29.4570   22.5049 C   0  0  0  0  0  0
  -18.0263  -28.1451   22.8453 C   0  0  0  0  0  0
  -24.1489  -36.7305   23.2625 C   0  0  0  0  0  0
  -25.9751  -30.7580   21.3817 C   0  0  0  0  0  0
  -26.0388  -29.3813   20.7234 C   0  0  0  0  0  0
  -27.2156  -28.5640   20.7079 C   0  0  0  0  0  0
  -26.0131  -26.8761   19.4653 C   0  0  0  0  0  0
  -24.8515  -27.6689   19.4862 C   0  0  0  0  0  0
  -23.6373  -29.8111   20.1726 C   0  0  0  0  0  0
  -25.4130  -36.3122   24.0322 C   0  0  1  0  0  0
  -20.5875  -28.3689   23.1343 C   0  0  2  0  0  0
  -20.6788  -26.9419   22.5452 C   0  0  0  0  0  0
  -19.5770  -26.6398   21.5263 C   0  0  0  0  0  0
  -18.1916  -26.7980   22.1613 C   0  0  0  0  0  0
  -19.1516  -28.8902   23.2863 C   0  0  0  0  0  0
  -18.9429  -30.1493   23.8880 C   0  0  0  0  0  0
  -17.6430  -30.6635   24.0553 C   0  0  0  0  0  0
  -25.9065  -34.9481   23.5096 C   0  0  0  0  0  0
  -16.5327  -29.9120   23.6347 C   0  0  0  0  0  0
  -16.7240  -28.6561   23.0324 C   0  0  0  0  0  0
  -26.4368  -31.6659   25.0744 C   0  0  0  0  0  0
  -25.3519  -31.3931   26.1444 C   0  0  0  0  0  0
  -27.0053  -30.3005   24.6286 C   0  0  0  0  0  0
  -27.5948  -32.4358   25.7498 C   0  0  0  0  0  0
  -27.5611  -37.1821   24.8428 C   0  0  0  0  0  0
  -21.4252  -29.2987   22.3747 N   0  0  0  0  0  0
  -26.4315  -37.3812   23.9381 N   0  0  0  0  0  0
  -24.6982  -31.0510   22.0993 N   0  0  0  0  0  0
  -23.4242  -28.8164   23.3176 O   0  0  0  0  0  0
  -28.3192  -26.3850   20.1016 O   0  0  0  0  0  0
  -26.5680  -34.8956   22.4700 O   0  0  0  0  0  0
  -23.5447  -32.1406   23.7283 O   0  0  0  0  0  0
  -27.2525  -16.2623   16.9593 C   0  0  0  0  0  0
  -30.0105  -16.7418   17.2088 C   0  0  0  0  0  0
  -27.7263  -17.1876   17.9123 C   0  0  0  0  0  0
  -29.1050  -17.4048   18.0648 C   0  0  0  0  0  0
  -28.1551  -15.5730   16.1195 C   0  0  0  0  0  0
  -29.5477  -15.8210   16.2419 C   0  0  0  0  0  0
  -26.8028  -17.9898   18.8008 C   0  0  0  0  0  0
  -27.3385  -19.4453   18.9806 C   0  0  0  0  0  0
  -29.5842  -18.2566   19.2525 C   0  0  2  0  0  0
  -27.5988  -14.5688   15.1155 C   0  0  0  0  0  0
  -30.5690  -15.0580   15.4120 C   0  0  0  0  0  0
  -28.8657  -17.6642   21.7421 C   0  0  0  0  0  0
  -30.4751  -24.0119   20.6936 C   0  0  0  0  0  0
  -28.4283  -21.8599   21.4544 C   0  0  0  0  0  0
  -29.7081  -21.2798   17.7769 C   0  0  0  0  0  0
  -28.0705  -24.9216   20.3130 C   0  0  0  0  0  0
  -29.7861  -17.2884   20.5447 C   0  0  1  0  0  0
  -29.1513  -23.7901   19.9051 C   0  0  2  0  0  0
  -28.6225  -22.2343   19.9755 C   0  0  1  0  0  0
  -29.3882  -20.9727   19.2691 C   0  0  1  0  0  0
  -29.6835  -15.7771   20.3837 N   0  0  0  0  0  0
  -28.7579  -19.5562   19.4784 N   0  3  1  0  0  0
  -31.4857  -12.5317   19.2001 H   0  0  0  0  0  0
  -30.3405  -11.4349   19.9316 H   0  0  0  0  0  0
  -29.8346  -11.7838   17.4788 H   0  0  0  0  0  0
  -29.6495  -13.4970   17.7717 H   0  0  0  0  0  0
  -27.8889  -11.2665   18.8575 H   0  0  0  0  0  0
  -27.3919  -12.5268   17.7632 H   0  0  0  0  0  0
  -27.6249  -14.2245   19.4420 H   0  0  0  0  0  0
  -28.7138  -12.1570   21.4377 H   0  0  0  0  0  0
  -28.4141  -13.8541   21.7561 H   0  0  0  0  0  0
  -25.2829   -9.5735   22.4715 H   0  0  0  0  0  0
  -24.0133   -7.4600   22.7406 H   0  0  0  0  0  0
  -21.0901   -8.8657   19.8901 H   0  0  0  0  0  0
  -22.3679  -10.9634   19.6104 H   0  0  0  0  0  0
  -21.2026   -7.6160   23.9771 H   0  0  0  0  0  0
  -21.1502   -6.0501   25.9095 H   0  0  0  0  0  0
  -22.0628   -2.7635   23.2746 H   0  0  0  0  0  0
  -22.4260  -11.9904   22.4743 H   0  0  0  0  0  0
  -21.1144  -13.1118   22.2655 H   0  0  0  0  0  0
  -24.6087  -15.7846   20.4216 H   0  0  0  0  0  0
  -26.1870  -15.5676   19.8788 H   0  0  0  0  0  0
  -26.7222  -32.5416   23.1060 H   0  0  0  0  0  0
  -24.9819  -33.9694   25.0227 H   0  0  0  0  0  0
  -22.7239  -31.2977   21.4216 H   0  0  0  0  0  0
  -23.3809  -35.9575   23.3243 H   0  0  0  0  0  0
  -24.3572  -36.8984   22.2045 H   0  0  0  0  0  0
  -23.7180  -37.6476   23.6667 H   0  0  0  0  0  0
  -26.1218  -31.5087   20.6057 H   0  0  0  0  0  0
  -26.8554  -30.8024   22.0121 H   0  0  0  0  0  0
  -28.1188  -28.9053   21.1916 H   0  0  0  0  0  0
  -25.9388  -25.9459   18.9262 H   0  0  0  0  0  0
  -23.9550  -27.3084   18.9994 H   0  0  0  0  0  0
  -23.7579  -30.5893   19.4181 H   0  0  0  0  0  0
  -22.7508  -29.2500   19.8736 H   0  0  0  0  0  0
  -25.1344  -36.1965   25.0823 H   0  0  0  0  0  0
  -20.9892  -28.3239   24.1497 H   0  0  0  0  0  0
  -20.5805  -26.2256   23.3619 H   0  0  0  0  0  0
  -21.6646  -26.7512   22.1179 H   0  0  0  0  0  0
  -19.6909  -25.6315   21.1272 H   0  0  0  0  0  0
  -19.6786  -27.3236   20.6834 H   0  0  0  0  0  0
  -17.4232  -26.6711   21.3973 H   0  0  0  0  0  0
  -18.0232  -26.0186   22.9055 H   0  0  0  0  0  0
  -19.7913  -30.7286   24.2274 H   0  0  0  0  0  0
  -17.4999  -31.6332   24.5135 H   0  0  0  0  0  0
  -15.5327  -30.3003   23.7784 H   0  0  0  0  0  0
  -15.8614  -28.0920   22.7031 H   0  0  0  0  0  0
  -24.5716  -30.7240   25.7804 H   0  0  0  0  0  0
  -24.8635  -32.3130   26.4673 H   0  0  0  0  0  0
  -25.7739  -30.9262   27.0347 H   0  0  0  0  0  0
  -26.2574  -29.6954   24.1157 H   0  0  0  0  0  0
  -27.3403  -29.7140   25.4840 H   0  0  0  0  0  0
  -27.8626  -30.4146   23.9661 H   0  0  0  0  0  0
  -27.2577  -33.3651   26.2096 H   0  0  0  0  0  0
  -28.3714  -32.6968   25.0303 H   0  0  0  0  0  0
  -28.0635  -31.8482   26.5393 H   0  0  0  0  0  0
  -28.2639  -38.0117   24.7532 H   0  0  0  0  0  0
  -28.1131  -36.2682   24.6214 H   0  0  0  0  0  0
  -27.2317  -37.1379   25.8821 H   0  0  0  0  0  0
  -20.9505  -29.8634   21.6848 H   0  0  0  0  0  0
  -26.0232  -38.2886   24.1473 H   0  0  0  0  0  0
  -26.1899  -16.0720   16.8656 H   0  0  0  0  0  0
  -31.0743  -16.9006   17.3339 H   0  0  0  0  0  0
  -26.6901  -17.4855   19.7579 H   0  0  0  0  0  0
  -25.8025  -17.9792   18.3668 H   0  0  0  0  0  0
  -26.6938  -19.9706   19.6819 H   0  0  0  0  0  0
  -27.2371  -19.9639   18.0253 H   0  0  0  0  0  0
  -30.5751  -18.6054   18.9599 H   0  0  0  0  0  0
  -26.5814  -14.2822   15.3861 H   0  0  0  0  0  0
  -28.1821  -13.6474   15.0782 H   0  0  0  0  0  0
  -27.5580  -14.9946   14.1111 H   0  0  0  0  0  0
  -31.5823  -15.2114   15.7917 H   0  0  0  0  0  0
  -30.5491  -15.3558   14.3610 H   0  0  0  0  0  0
  -30.3772  -13.9885   15.4856 H   0  0  0  0  0  0
  -28.9511  -18.7091   22.0339 H   0  0  0  0  0  0
  -29.1224  -17.0879   22.6326 H   0  0  0  0  0  0
  -27.8079  -17.4714   21.5537 H   0  0  0  0  0  0
  -30.7467  -25.0708   20.7632 H   0  0  0  0  0  0
  -31.3135  -23.5120   20.2118 H   0  0  0  0  0  0
  -30.4258  -23.6573   21.7234 H   0  0  0  0  0  0
  -27.9498  -22.6523   22.0297 H   0  0  0  0  0  0
  -29.4012  -21.6689   21.9038 H   0  0  0  0  0  0
  -27.8287  -20.9602   21.5787 H   0  0  0  0  0  0
  -30.2583  -22.2173   17.6777 H   0  0  0  0  0  0
  -28.8250  -21.3870   17.1471 H   0  0  0  0  0  0
  -30.3447  -20.5175   17.3259 H   0  0  0  0  0  0
  -27.8394  -24.8339   21.3763 H   0  0  0  0  0  0
  -27.1541  -24.6016   19.8246 H   0  0  0  0  0  0
  -30.8138  -17.4689   20.8769 H   0  0  0  0  0  0
  -29.3879  -24.0140   18.8661 H   0  0  0  0  0  0
  -27.6370  -22.2726   19.5120 H   0  0  0  0  0  0
  -30.3531  -20.9284   19.7696 H   0  0  0  0  0  0
  -28.7303  -15.4516   20.3387 H   0  0  0  0  0  0
  -28.6497  -19.5069   20.4796 H   0  0  0  0  0  0
  1 25  1  0  0  0
  1 30  2  0  0  0
  1 91  1  0  0  0
  2  3  1  0  0  0
  2 25  1  0  0  0
  2 93  1  0  0  0
  2 94  1  0  0  0
  3  4  1  0  0  0
  3 95  1  0  0  0
  3 96  1  0  0  0
  4  5  1  0  0  0
  4 97  1  0  0  0
  4 98  1  0  0  0
  5  6  1  0  0  0
  5 26  1  0  0  0
  5 99  1  0  0  0
  6 25  1  0  0  0
  6100  1  0  0  0
  6101  1  0  0  0
  7  8  2  0  0  0
  7 26  1  0  0  0
  7 29  1  0  0  0
  8  9  1  0  0  0
  8 22  1  0  0  0
  9 10  1  0  0  0
  9 27  2  0  0  0
 10 11  2  0  0  0
 10 15  1  0  0  0
 11 12  1  0  0  0
 11102  1  0  0  0
 12 13  2  0  0  0
 12103  1  0  0  0
 13 14  1  0  0  0
 13 31  1  0  0  0
 14 15  2  0  0  0
 14104  1  0  0  0
 15105  1  0  0  0
 16 17  2  0  0  0
 16 21  1  0  0  0
 16 31  1  0  0  0
 17 18  1  0  0  0
 17106  1  0  0  0
 18 19  2  0  0  0
 18107  1  0  0  0
 19 20  1  0  0  0
 19 24  1  0  0  0
 20 21  2  0  0  0
 20108  1  0  0  0
 21 23  1  0  0  0
 22 28  1  0  0  0
 22 32  2  0  0  0
 26 27  1  0  0  0
 28109  1  0  0  0
 28110  1  0  0  0
 29111  1  0  0  0
 29112  1  0  0  0
 33 34  1  0  0  0
 33 66  1  0  0  0
 33 70  2  0  0  0
 34 36  1  0  0  0
 34 59  1  0  0  0
 34113  1  0  0  0
 35 44  2  0  0  0
 35 45  1  0  0  0
 35 68  1  0  0  0
 36 56  1  0  0  0
 36114  1  0  0  0
 37 39  1  0  0  0
 37 47  1  0  0  0
 37 66  1  0  0  0
 37115  1  0  0  0
 38 43  2  0  0  0
 38 46  1  0  0  0
 38 47  1  0  0  0
 39 64  1  0  0  0
 39 67  2  0  0  0
 40 52  1  0  0  0
 40 53  2  0  0  0
 40 58  1  0  0  0
 41116  1  0  0  0
 41117  1  0  0  0
 41118  1  0  0  0
 41 48  1  0  0  0
 42 43  1  0  0  0
 42 66  1  0  0  0
 42119  1  0  0  0
 42120  1  0  0  0
 43 44  1  0  0  0
 44121  1  0  0  0
 45 46  2  0  0  0
 45122  1  0  0  0
 46123  1  0  0  0
 47124  1  0  0  0
 47125  1  0  0  0
 48 56  1  0  0  0
 48 65  1  0  0  0
 48126  1  0  0  0
 49 50  1  0  0  0
 49 53  1  0  0  0
 49 64  1  0  0  0
 49127  1  0  0  0
 50 51  1  0  0  0
 50128  1  0  0  0
 50129  1  0  0  0
 51 52  1  0  0  0
 51130  1  0  0  0
 51131  1  0  0  0
 52132  1  0  0  0
 52133  1  0  0  0
 53 54  1  0  0  0
 54 55  2  0  0  0
 54134  1  0  0  0
 55 57  1  0  0  0
 55135  1  0  0  0
 56 69  2  0  0  0
 57 58  2  0  0  0
 57136  1  0  0  0
 58137  1  0  0  0
 59 60  1  0  0  0
 59 61  1  0  0  0
 59 62  1  0  0  0
 60138  1  0  0  0
 60139  1  0  0  0
 60140  1  0  0  0
 61141  1  0  0  0
 61142  1  0  0  0
 61143  1  0  0  0
 62144  1  0  0  0
 62145  1  0  0  0
 62146  1  0  0  0
 63 65  1  0  0  0
 63147  1  0  0  0
 63148  1  0  0  0
 63149  1  0  0  0
 64150  1  0  0  0
 65151  1  0  0  0
 68 86  1  0  0  0
 71 73  2  0  0  0
 71 75  1  0  0  0
 71152  1  0  0  0
 72 74  2  0  0  0
 72 76  1  0  0  0
 72153  1  0  0  0
 73 74  1  0  0  0
 73 77  1  0  0  0
 74 79  1  0  0  0
 75 76  2  0  0  0
 75 80  1  0  0  0
 76 81  1  0  0  0
 77 78  1  0  0  0
 77154  1  0  0  0
 77155  1  0  0  0
 78156  1  0  0  0
 78157  1  0  0  0
 78 92  1  0  0  0
 79 87  1  0  0  0
 79 92  1  0  0  0
 79158  1  0  0  0
 80159  1  0  0  0
 80160  1  0  0  0
 80161  1  0  0  0
 81162  1  0  0  0
 81163  1  0  0  0
 81164  1  0  0  0
 82165  1  0  0  0
 82166  1  0  0  0
 82167  1  0  0  0
 82 87  1  0  0  0
 83168  1  0  0  0
 83169  1  0  0  0
 83170  1  0  0  0
 83 88  1  0  0  0
 84171  1  0  0  0
 84172  1  0  0  0
 84173  1  0  0  0
 84 89  1  0  0  0
 85174  1  0  0  0
 85175  1  0  0  0
 85176  1  0  0  0
 85 90  1  0  0  0
 86 88  1  0  0  0
 86177  1  0  0  0
 86178  1  0  0  0
 87 91  1  0  0  0
 87179  1  0  0  0
 88 89  1  0  0  0
 88180  1  0  0  0
 89 90  1  0  0  0
 89181  1  0  0  0
 90 92  1  0  0  0
 90182  1  0  0  0
 91183  1  0  0  0
 92184  1  0  0  0
M  CHG  1  92   1
M  ISO  4   1 100  68 101  86 101  91 100
M  END
> <chiral flag>
0

> <version>
0

> <s_m_source_file>
/data/baiqing/PycharmProjects/Reinvent-master-3.2/result/LINK_invent/BTK/process_docking_weight1_custom_sum_contain_oxygen_bond_distance_aromatic_linkinvent_7_9_3/rearranged_h_0163.sdf

> <i_m_source_file_index>
38

> <r_mmod_Potential_Energy-OPLS-2005>
129.373565673828

> <r_mmod_Stretch_Energy-OPLS-2005>
143.511825561523

> <r_mmod_Bend_Energy-OPLS-2005>
196.057952880859

> <r_mmod_Torsional_Energy-OPLS-2005>
316.869995117188

> <r_mmod_Improper_Torsional_Energy-OPLS-2005>
7.80191421508789

> <r_mmod_Van_der_Waal_Energy-OPLS-2005>
123.657302856445

> <r_mmod_Electrostatic_Energy-OPLS-2005>
-320.097076416016

> <r_mmod_Solvation_Energy-OPLS-2005>
-422.476654052734

> <b_mmod_Minimization_Converged-OPLS-2005>
0

> <r_mmod_RMS_Derivative-OPLS-2005>
9.65255832672119

$$$$
38
                    3D
 Structure written by MMmdl.
171180  0  0  1  0            999 V2000
  -30.6270  -14.6753   20.5843 C   0  0  0  0  0  0
  -30.4192  -12.4589   19.3957 C   0  0  0  0  0  0
  -29.4893  -12.5381   18.1681 C   0  0  0  0  0  0
  -28.0154  -12.3547   18.5802 C   0  0  0  0  0  0
  -27.6329  -13.2255   19.8059 C   0  0  2  0  0  0
  -28.6669  -13.1009   20.9321 C   0  0  0  0  0  0
  -25.2512  -13.8167   20.5559 C   0  0  0  0  0  0
  -24.1809  -13.0445   20.9105 C   0  0  0  0  0  0
  -24.6371  -11.6925   20.8633 C   0  0  0  0  0  0
  -23.9051  -10.4331   21.0419 C   0  0  0  0  0  0
  -24.3627   -9.4252   21.9198 C   0  0  0  0  0  0
  -23.6288   -8.2278   22.0773 C   0  0  0  0  0  0
  -22.4258   -8.0323   21.3583 C   0  0  0  0  0  0
  -21.9911   -9.0285   20.4686 C   0  0  0  0  0  0
  -22.7244  -10.2152   20.3077 C   0  0  0  0  0  0
  -21.6860   -6.0754   22.5289 C   0  0  0  0  0  0
  -21.4021   -6.5636   23.8214 C   0  0  0  0  0  0
  -21.3661   -5.6771   24.9168 C   0  0  0  0  0  0
  -21.6027   -4.3028   24.7218 C   0  0  0  0  0  0
  -21.8816   -3.8159   23.4354 C   0  0  0  0  0  0
  -21.9211   -4.6985   22.3412 C   0  0  0  0  0  0
  -22.7828  -13.5296   21.1789 C   0  0  0  0  0  0
  -22.1696   -4.2175   21.0989 F   0  0  0  0  0  0
  -21.5625   -3.4523   25.7745 F   0  0  0  0  0  0
  -29.9780  -13.4760   20.3732 N   0  0  0  0  0  0
  -26.2871  -12.9354   20.2909 N   0  0  0  0  0  0
  -25.9245  -11.6521   20.5410 N   0  0  0  0  0  0
  -22.0484  -12.8288   22.0362 N   0  0  0  0  0  0
  -25.4240  -15.1889   20.4158 N   0  0  0  0  0  0
  -31.7177  -14.8935   20.0425 O   0  0  0  0  0  0
  -21.6663   -6.8898   21.4249 O   0  0  0  0  0  0
  -22.3555  -14.5636   20.6690 O   0  0  0  0  0  0
  -24.6303  -31.8549   23.1937 C   0  0  0  0  0  0
  -25.9115  -32.4739   23.8302 C   0  0  1  0  0  0
  -27.2353  -27.2579   20.1282 C   0  0  0  0  0  0
  -25.5912  -33.8541   24.2218 N   0  0  0  0  0  0
  -23.4274  -30.4731   21.5378 C   0  0  2  0  0  0
  -24.8816  -28.9208   20.1075 C   0  0  0  0  0  0
  -22.7490  -29.4600   22.4900 C   0  0  0  0  0  0
  -18.0290  -28.1396   22.8450 C   0  0  0  0  0  0
  -24.1490  -36.7270   23.2643 C   0  0  0  0  0  0
  -25.9745  -30.7635   21.3804 C   0  0  0  0  0  0
  -26.0491  -29.3866   20.7211 C   0  0  0  0  0  0
  -27.2277  -28.5670   20.7220 C   0  0  0  0  0  0
  -26.0487  -26.8743   19.4624 C   0  0  0  0  0  0
  -24.8858  -27.6722   19.4667 C   0  0  0  0  0  0
  -23.6476  -29.8030   20.1556 C   0  0  0  0  0  0
  -25.4118  -36.3056   24.0319 C   0  0  1  0  0  0
  -20.5884  -28.3706   23.1242 C   0  0  2  0  0  0
  -20.6777  -26.9423   22.5402 C   0  0  0  0  0  0
  -19.5774  -26.6392   21.5185 C   0  0  0  0  0  0
  -18.1935  -26.7933   22.1582 C   0  0  0  0  0  0
  -19.1542  -28.8865   23.2838 C   0  0  0  0  0  0
  -18.9482  -30.1461   23.8855 C   0  0  0  0  0  0
  -17.6484  -30.6582   24.0550 C   0  0  0  0  0  0
  -25.9067  -34.9443   23.5085 C   0  0  0  0  0  0
  -16.5365  -29.9076   23.6342 C   0  0  0  0  0  0
  -16.7283  -28.6511   23.0324 C   0  0  0  0  0  0
  -26.4498  -31.6549   25.0686 C   0  0  0  0  0  0
  -25.3711  -31.3689   26.1394 C   0  0  0  0  0  0
  -27.0355  -30.2953   24.6203 C   0  0  0  0  0  0
  -27.6048  -32.4298   25.7456 C   0  0  0  0  0  0
  -27.5572  -37.1788   24.8459 C   0  0  0  0  0  0
  -21.4193  -29.3032   22.3619 N   0  0  0  0  0  0
  -26.4286  -37.3756   23.9413 N   0  0  0  0  0  0
  -24.6949  -31.0481   22.0928 N   0  0  0  0  0  0
  -23.4178  -28.8142   23.3027 O   0  0  0  0  0  0
  -28.3320  -26.3565   20.2138 O   0  0  0  0  0  0
  -26.5655  -34.8924   22.4658 O   0  0  0  0  0  0
  -23.5440  -32.1394   23.7209 O   0  0  0  0  0  0
  -29.0123  -16.9696   23.9208 C   0  0  0  0  0  0
  -30.1032  -15.6499   21.6771 C   0  0  0  0  0  0
  -29.5095  -17.0183   21.4910 C   0  0  0  0  0  0
  -28.7861  -17.4903   22.6375 C   0  0  0  0  0  0
  -29.7682  -15.8195   24.1283 C   0  0  0  0  0  0
  -30.2433  -15.0969   23.0112 C   0  0  0  0  0  0
  -28.4278  -18.7914   19.5763 C   0  0  0  0  0  0
  -29.5714  -17.9868   20.1960 C   0  0  1  0  0  0
  -29.6686  -19.6176   19.8758 C   0  0  1  0  0  0
  -27.6056  -18.4467   22.5678 C   0  0  0  0  0  0
  -29.9652  -15.3613   25.5710 C   0  0  0  0  0  0
  -30.9203  -13.7255   23.2938 C   0  0  0  0  0  0
  -30.6632  -19.9749   18.7587 C   0  0  0  0  0  0
  -29.5165  -21.0211   20.6970 C   0  0  0  0  0  0
  -29.0957  -23.6967   20.5181 C   0  0  0  0  0  0
  -28.1352  -24.8812   19.9359 C   0  0  0  0  0  0
  -28.8936  -22.2527   19.9878 N   0  3  0  0  0  0
  -30.1165  -17.2729   19.1081 O   0  0  0  0  0  0
  -31.4547  -12.6033   19.0813 H   0  0  0  0  0  0
  -30.3760  -11.4634   19.8405 H   0  0  0  0  0  0
  -29.7740  -11.7919   17.4263 H   0  0  0  0  0  0
  -29.6102  -13.5063   17.6765 H   0  0  0  0  0  0
  -27.8427  -11.2967   18.7919 H   0  0  0  0  0  0
  -27.3683  -12.6052   17.7389 H   0  0  0  0  0  0
  -27.6507  -14.2612   19.4609 H   0  0  0  0  0  0
  -28.6901  -12.0833   21.3212 H   0  0  0  0  0  0
  -28.3577  -13.7343   21.7612 H   0  0  0  0  0  0
  -25.2811   -9.5727   22.4723 H   0  0  0  0  0  0
  -24.0066   -7.4662   22.7462 H   0  0  0  0  0  0
  -21.0858   -8.8790   19.8981 H   0  0  0  0  0  0
  -22.3743  -10.9671   19.6160 H   0  0  0  0  0  0
  -21.2015   -7.6138   23.9718 H   0  0  0  0  0  0
  -21.1465   -6.0502   25.9048 H   0  0  0  0  0  0
  -22.0603   -2.7630   23.2818 H   0  0  0  0  0  0
  -22.4131  -12.0001   22.4796 H   0  0  0  0  0  0
  -21.1081  -13.1298   22.2546 H   0  0  0  0  0  0
  -24.6567  -15.8333   20.5685 H   0  0  0  0  0  0
  -26.2765  -15.6408   20.1128 H   0  0  0  0  0  0
  -26.7162  -32.5401   23.1025 H   0  0  0  0  0  0
  -24.9981  -33.9689   25.0311 H   0  0  0  0  0  0
  -22.7226  -31.2940   21.3874 H   0  0  0  0  0  0
  -23.3762  -35.9590   23.3301 H   0  0  0  0  0  0
  -24.3565  -36.8913   22.2059 H   0  0  0  0  0  0
  -23.7261  -37.6465   23.6697 H   0  0  0  0  0  0
  -26.1212  -31.5269   20.6147 H   0  0  0  0  0  0
  -26.8442  -30.8069   22.0229 H   0  0  0  0  0  0
  -28.1186  -28.9185   21.2217 H   0  0  0  0  0  0
  -25.9795  -25.9330   18.9365 H   0  0  0  0  0  0
  -23.9984  -27.3098   18.9676 H   0  0  0  0  0  0
  -23.7638  -30.5764   19.3968 H   0  0  0  0  0  0
  -22.7692  -29.2293   19.8554 H   0  0  0  0  0  0
  -25.1303  -36.1874   25.0807 H   0  0  0  0  0  0
  -20.9966  -28.3316   24.1369 H   0  0  0  0  0  0
  -20.5639  -26.2336   23.3614 H   0  0  0  0  0  0
  -21.6662  -26.7432   22.1239 H   0  0  0  0  0  0
  -19.6942  -25.6292   21.1250 H   0  0  0  0  0  0
  -19.6709  -27.3178   20.6688 H   0  0  0  0  0  0
  -17.4201  -26.6639   21.3980 H   0  0  0  0  0  0
  -18.0347  -26.0085   22.8997 H   0  0  0  0  0  0
  -19.7964  -30.7270   24.2195 H   0  0  0  0  0  0
  -17.5055  -31.6258   24.5166 H   0  0  0  0  0  0
  -15.5367  -30.2969   23.7708 H   0  0  0  0  0  0
  -15.8679  -28.0844   22.7034 H   0  0  0  0  0  0
  -24.5892  -30.7038   25.7700 H   0  0  0  0  0  0
  -24.8897  -32.2854   26.4816 H   0  0  0  0  0  0
  -25.8024  -30.8853   27.0170 H   0  0  0  0  0  0
  -26.2936  -29.6663   24.1263 H   0  0  0  0  0  0
  -27.4043  -29.7254   25.4746 H   0  0  0  0  0  0
  -27.8825  -30.4185   23.9446 H   0  0  0  0  0  0
  -27.2644  -33.3605   26.2008 H   0  0  0  0  0  0
  -28.3862  -32.6836   25.0277 H   0  0  0  0  0  0
  -28.0712  -31.8437   26.5389 H   0  0  0  0  0  0
  -28.2591  -38.0082   24.7501 H   0  0  0  0  0  0
  -28.1068  -36.2618   24.6279 H   0  0  0  0  0  0
  -27.2297  -37.1431   25.8863 H   0  0  0  0  0  0
  -20.9372  -29.8717   21.6786 H   0  0  0  0  0  0
  -26.0156  -38.2831   24.1391 H   0  0  0  0  0  0
  -28.5575  -17.4437   24.7789 H   0  0  0  0  0  0
  -27.5538  -19.0992   20.1364 H   0  0  0  0  0  0
  -28.1873  -18.6340   18.5247 H   0  0  0  0  0  0
  -27.0907  -18.5458   23.5235 H   0  0  0  0  0  0
  -26.8511  -18.0499   21.8883 H   0  0  0  0  0  0
  -27.8574  -19.4492   22.2798 H   0  0  0  0  0  0
  -29.9592  -16.2205   26.2420 H   0  0  0  0  0  0
  -30.9225  -14.8661   25.7279 H   0  0  0  0  0  0
  -29.1612  -14.6958   25.8907 H   0  0  0  0  0  0
  -32.0088  -13.7722   23.2199 H   0  0  0  0  0  0
  -30.5973  -12.9070   22.6580 H   0  0  0  0  0  0
  -30.6625  -13.3268   24.2699 H   0  0  0  0  0  0
  -30.5528  -19.3455   17.8771 H   0  0  0  0  0  0
  -31.6883  -19.8878   19.1283 H   0  0  0  0  0  0
  -30.5258  -20.9930   18.3953 H   0  0  0  0  0  0
  -30.5246  -21.3039   21.0016 H   0  0  0  0  0  0
  -28.9980  -20.9142   21.6368 H   0  0  0  0  0  0
  -28.9812  -23.6866   21.6032 H   0  0  0  0  0  0
  -30.1373  -23.9662   20.3380 H   0  0  0  0  0  0
  -27.1350  -24.6141   20.2790 H   0  0  0  0  0  0
  -28.1189  -24.7792   18.8514 H   0  0  0  0  0  0
  -27.9004  -22.0855   19.9445 H   0  0  0  0  0  0
  -29.2209  -22.2403   19.0326 H   0  0  0  0  0  0
  -30.5706  -17.9048   18.5634 H   0  0  0  0  0  0
  1 25  1  0  0  0
  1 30  2  0  0  0
  1 72  1  0  0  0
  2  3  1  0  0  0
  2 25  1  0  0  0
  2 89  1  0  0  0
  2 90  1  0  0  0
  3  4  1  0  0  0
  3 91  1  0  0  0
  3 92  1  0  0  0
  4  5  1  0  0  0
  4 93  1  0  0  0
  4 94  1  0  0  0
  5  6  1  0  0  0
  5 26  1  0  0  0
  5 95  1  0  0  0
  6 25  1  0  0  0
  6 96  1  0  0  0
  6 97  1  0  0  0
  7  8  2  0  0  0
  7 26  1  0  0  0
  7 29  1  0  0  0
  8  9  1  0  0  0
  8 22  1  0  0  0
  9 10  1  0  0  0
  9 27  2  0  0  0
 10 11  2  0  0  0
 10 15  1  0  0  0
 11 12  1  0  0  0
 11 98  1  0  0  0
 12 13  2  0  0  0
 12 99  1  0  0  0
 13 14  1  0  0  0
 13 31  1  0  0  0
 14 15  2  0  0  0
 14100  1  0  0  0
 15101  1  0  0  0
 16 17  2  0  0  0
 16 21  1  0  0  0
 16 31  1  0  0  0
 17 18  1  0  0  0
 17102  1  0  0  0
 18 19  2  0  0  0
 18103  1  0  0  0
 19 20  1  0  0  0
 19 24  1  0  0  0
 20 21  2  0  0  0
 20104  1  0  0  0
 21 23  1  0  0  0
 22 28  1  0  0  0
 22 32  2  0  0  0
 26 27  1  0  0  0
 28105  1  0  0  0
 28106  1  0  0  0
 29107  1  0  0  0
 29108  1  0  0  0
 33 34  1  0  0  0
 33 66  1  0  0  0
 33 70  2  0  0  0
 34 36  1  0  0  0
 34 59  1  0  0  0
 34109  1  0  0  0
 35 44  2  0  0  0
 35 45  1  0  0  0
 35 68  1  0  0  0
 36 56  1  0  0  0
 36110  1  0  0  0
 37 39  1  0  0  0
 37 47  1  0  0  0
 37 66  1  0  0  0
 37111  1  0  0  0
 38 43  2  0  0  0
 38 46  1  0  0  0
 38 47  1  0  0  0
 39 64  1  0  0  0
 39 67  2  0  0  0
 40 52  1  0  0  0
 40 53  2  0  0  0
 40 58  1  0  0  0
 41112  1  0  0  0
 41113  1  0  0  0
 41114  1  0  0  0
 41 48  1  0  0  0
 42 43  1  0  0  0
 42 66  1  0  0  0
 42115  1  0  0  0
 42116  1  0  0  0
 43 44  1  0  0  0
 44117  1  0  0  0
 45 46  2  0  0  0
 45118  1  0  0  0
 46119  1  0  0  0
 47120  1  0  0  0
 47121  1  0  0  0
 48 56  1  0  0  0
 48 65  1  0  0  0
 48122  1  0  0  0
 49 50  1  0  0  0
 49 53  1  0  0  0
 49 64  1  0  0  0
 49123  1  0  0  0
 50 51  1  0  0  0
 50124  1  0  0  0
 50125  1  0  0  0
 51 52  1  0  0  0
 51126  1  0  0  0
 51127  1  0  0  0
 52128  1  0  0  0
 52129  1  0  0  0
 53 54  1  0  0  0
 54 55  2  0  0  0
 54130  1  0  0  0
 55 57  1  0  0  0
 55131  1  0  0  0
 56 69  2  0  0  0
 57 58  2  0  0  0
 57132  1  0  0  0
 58133  1  0  0  0
 59 60  1  0  0  0
 59 61  1  0  0  0
 59 62  1  0  0  0
 60134  1  0  0  0
 60135  1  0  0  0
 60136  1  0  0  0
 61137  1  0  0  0
 61138  1  0  0  0
 61139  1  0  0  0
 62140  1  0  0  0
 62141  1  0  0  0
 62142  1  0  0  0
 63 65  1  0  0  0
 63143  1  0  0  0
 63144  1  0  0  0
 63145  1  0  0  0
 64146  1  0  0  0
 65147  1  0  0  0
 68 86  1  0  0  0
 71 74  2  0  0  0
 71 75  1  0  0  0
 71148  1  0  0  0
 72 73  2  0  0  0
 72 76  1  0  0  0
 73 74  1  0  0  0
 73 78  1  0  0  0
 74 80  1  0  0  0
 75 76  2  0  0  0
 75 81  1  0  0  0
 76 82  1  0  0  0
 77 78  1  0  0  0
 77 79  1  0  0  0
 77149  1  0  0  0
 77150  1  0  0  0
 78 79  1  0  0  0
 78 88  1  0  0  0
 79 83  1  0  0  0
 79 84  1  0  0  0
 80151  1  0  0  0
 80152  1  0  0  0
 80153  1  0  0  0
 81154  1  0  0  0
 81155  1  0  0  0
 81156  1  0  0  0
 82157  1  0  0  0
 82158  1  0  0  0
 82159  1  0  0  0
 83160  1  0  0  0
 83161  1  0  0  0
 83162  1  0  0  0
 84 87  1  0  0  0
 84163  1  0  0  0
 84164  1  0  0  0
 85 86  1  0  0  0
 85 87  1  0  0  0
 85165  1  0  0  0
 85166  1  0  0  0
 86167  1  0  0  0
 86168  1  0  0  0
 87169  1  0  0  0
 87170  1  0  0  0
 88171  1  0  0  0
M  CHG  1  87   1
M  ISO  4   1 100  68 101  72 100  86 101
M  END
> <chiral flag>
0

> <version>
0

> <s_m_source_file>
/data/baiqing/PycharmProjects/Reinvent-master-3.2/result/LINK_invent/BTK/process_docking_weight1_custom_sum_contain_oxygen_bond_distance_aromatic_linkinvent_7_9_3/rearranged_h_0163.sdf

> <i_m_source_file_index>
39

> <r_mmod_Potential_Energy-OPLS-2005>
315.059967041016

> <r_mmod_Stretch_Energy-OPLS-2005>
196.138488769531

> <r_mmod_Bend_Energy-OPLS-2005>
248.857498168945

> <r_mmod_Torsional_Energy-OPLS-2005>
301.468383789062

> <r_mmod_Improper_Torsional_Energy-OPLS-2005>
4.80227136611938

> <r_mmod_Van_der_Waal_Energy-OPLS-2005>
181.984222412109

> <r_mmod_Electrostatic_Energy-OPLS-2005>
-234.900085449219

> <r_mmod_Solvation_Energy-OPLS-2005>
-459.772827148438

> <b_mmod_Minimization_Converged-OPLS-2005>
0

> <r_mmod_RMS_Derivative-OPLS-2005>
5.96010446548462

$$$$
39
                    3D
 Structure written by MMmdl.
175184  0  0  1  0            999 V2000
  -30.6060  -14.8869   20.4676 C   0  0  0  0  0  0
  -30.4339  -12.5582   19.4801 C   0  0  0  0  0  0
  -29.5211  -12.5402   18.2341 C   0  0  0  0  0  0
  -28.0468  -12.3457   18.6399 C   0  0  0  0  0  0
  -27.6376  -13.2430   19.8384 C   0  0  2  0  0  0
  -28.6851  -13.2131   20.9706 C   0  0  0  0  0  0
  -25.2504  -13.8114   20.5690 C   0  0  0  0  0  0
  -24.1811  -13.0388   20.9222 C   0  0  0  0  0  0
  -24.6412  -11.6868   20.8753 C   0  0  0  0  0  0
  -23.9077  -10.4263   21.0408 C   0  0  0  0  0  0
  -24.3619   -9.4180   21.9189 C   0  0  0  0  0  0
  -23.6300   -8.2214   22.0766 C   0  0  0  0  0  0
  -22.4276   -8.0267   21.3540 C   0  0  0  0  0  0
  -21.9908   -9.0247   20.4647 C   0  0  0  0  0  0
  -22.7242  -10.2113   20.3051 C   0  0  0  0  0  0
  -21.6851   -6.0722   22.5280 C   0  0  0  0  0  0
  -21.4032   -6.5622   23.8211 C   0  0  0  0  0  0
  -21.3673   -5.6766   24.9169 C   0  0  0  0  0  0
  -21.6052   -4.3026   24.7218 C   0  0  0  0  0  0
  -21.8835   -3.8136   23.4327 C   0  0  0  0  0  0
  -21.9211   -4.6954   22.3393 C   0  0  0  0  0  0
  -22.7836  -13.5235   21.1841 C   0  0  0  0  0  0
  -22.1671   -4.2142   21.0965 F   0  0  0  0  0  0
  -21.5627   -3.4522   25.7727 F   0  0  0  0  0  0
  -29.9579  -13.6535   20.3780 N   0  0  0  0  0  0
  -26.2945  -12.9369   20.3211 N   0  0  0  0  0  0
  -25.9356  -11.6506   20.5684 N   0  0  0  0  0  0
  -22.0414  -12.8278   22.0383 N   0  0  0  0  0  0
  -25.4137  -15.1787   20.4069 N   0  0  0  0  0  0
  -31.8067  -14.8851   20.1730 O   0  0  0  0  0  0
  -21.6631   -6.8866   21.4243 O   0  0  0  0  0  0
  -22.3577  -14.5600   20.6720 O   0  0  0  0  0  0
  -24.6436  -31.8452   23.1856 C   0  0  0  0  0  0
  -25.9200  -32.4707   23.8254 C   0  0  1  0  0  0
  -27.2317  -27.1413   20.1670 C   0  0  0  0  0  0
  -25.5958  -33.8518   24.2183 N   0  0  0  0  0  0
  -23.4487  -30.4611   21.5309 C   0  0  2  0  0  0
  -24.9005  -28.8816   20.1144 C   0  0  0  0  0  0
  -22.7580  -29.4553   22.4849 C   0  0  0  0  0  0
  -18.0315  -28.1417   22.8469 C   0  0  0  0  0  0
  -24.1489  -36.7249   23.2641 C   0  0  0  0  0  0
  -26.0026  -30.7189   21.3837 C   0  0  0  0  0  0
  -26.0757  -29.3288   20.7297 C   0  0  0  0  0  0
  -27.2417  -28.4760   20.7370 C   0  0  0  0  0  0
  -26.0281  -26.7881   19.5156 C   0  0  0  0  0  0
  -24.8881  -27.6223   19.4931 C   0  0  0  0  0  0
  -23.6769  -29.7862   20.1520 C   0  0  0  0  0  0
  -25.4123  -36.3040   24.0313 C   0  0  1  0  0  0
  -20.5931  -28.3743   23.1231 C   0  0  2  0  0  0
  -20.6802  -26.9443   22.5407 C   0  0  0  0  0  0
  -19.5779  -26.6386   21.5217 C   0  0  0  0  0  0
  -18.1953  -26.7957   22.1614 C   0  0  0  0  0  0
  -19.1568  -28.8889   23.2842 C   0  0  0  0  0  0
  -18.9497  -30.1486   23.8868 C   0  0  0  0  0  0
  -17.6491  -30.6607   24.0562 C   0  0  0  0  0  0
  -25.9077  -34.9414   23.5057 C   0  0  0  0  0  0
  -16.5382  -29.9104   23.6338 C   0  0  0  0  0  0
  -16.7295  -28.6527   23.0346 C   0  0  0  0  0  0
  -26.4520  -31.6575   25.0698 C   0  0  0  0  0  0
  -25.3692  -31.3783   26.1387 C   0  0  0  0  0  0
  -27.0396  -30.2978   24.6265 C   0  0  0  0  0  0
  -27.6041  -32.4348   25.7500 C   0  0  0  0  0  0
  -27.5580  -37.1783   24.8461 C   0  0  0  0  0  0
  -21.4278  -29.3062   22.3593 N   0  0  0  0  0  0
  -26.4287  -37.3753   23.9409 N   0  0  0  0  0  0
  -24.7171  -31.0302   22.0891 N   0  0  0  0  0  0
  -23.4214  -28.8101   23.3012 O   0  0  0  0  0  0
  -28.2989  -26.1742   20.2576 O   0  0  0  0  0  0
  -26.5659  -34.8919   22.4636 O   0  0  0  0  0  0
  -23.5545  -32.1324   23.7066 O   0  0  0  0  0  0
  -26.8385  -18.4487   19.5734 C   0  0  0  0  0  0
  -28.5174  -19.2119   18.0129 C   0  0  0  0  0  0
  -28.1903  -18.7662   19.3177 C   0  0  0  0  0  0
  -25.8442  -18.5583   18.5829 C   0  0  0  0  0  0
  -27.5344  -19.3434   17.0036 C   0  0  0  0  0  0
  -26.1805  -19.0269   17.2872 C   0  0  0  0  0  0
  -28.7662  -18.0169   21.7311 C   0  0  0  0  0  0
  -28.8304  -16.4583   21.5082 C   0  0  0  0  0  0
  -30.3948  -17.5846   20.2238 C   0  0  2  0  0  0
  -29.2507  -18.7590   20.4455 C   0  0  1  0  0  0
  -24.4281  -18.1616   18.9662 C   0  0  0  0  0  0
  -27.9544  -19.8380   15.6243 C   0  0  0  0  0  0
  -25.1123  -19.1850   16.2064 C   0  0  0  0  0  0
  -31.1735  -17.6701   18.8976 C   0  0  0  0  0  0
  -29.6380  -20.3877   20.7044 C   0  0  0  0  0  0
  -28.6456  -21.7326   20.4433 C   0  0  0  0  0  0
  -29.0738  -23.3645   20.5104 C   0  0  0  0  0  0
  -28.0536  -24.6458   20.1157 C   0  0  0  0  0  0
  -29.9208  -16.1448   20.5693 N   0  0  0  0  0  0
  -31.4726  -12.6875   19.1733 H   0  0  0  0  0  0
  -30.3995  -11.5939   19.9884 H   0  0  0  0  0  0
  -29.8308  -11.7518   17.5458 H   0  0  0  0  0  0
  -29.6319  -13.4783   17.6874 H   0  0  0  0  0  0
  -27.9157  -11.2973   18.9028 H   0  0  0  0  0  0
  -27.3931  -12.5273   17.7855 H   0  0  0  0  0  0
  -27.6158  -14.2598   19.4459 H   0  0  0  0  0  0
  -28.7713  -12.2080   21.3858 H   0  0  0  0  0  0
  -28.3866  -13.8532   21.7977 H   0  0  0  0  0  0
  -25.2750   -9.5686   22.4775 H   0  0  0  0  0  0
  -24.0018   -7.4620   22.7510 H   0  0  0  0  0  0
  -21.0804   -8.8787   19.8963 H   0  0  0  0  0  0
  -22.3705  -10.9680   19.6176 H   0  0  0  0  0  0
  -21.2033   -7.6129   23.9736 H   0  0  0  0  0  0
  -21.1484   -6.0458   25.9069 H   0  0  0  0  0  0
  -22.0618   -2.7599   23.2812 H   0  0  0  0  0  0
  -22.3924  -11.9927   22.4825 H   0  0  0  0  0  0
  -21.1074  -13.1459   22.2545 H   0  0  0  0  0  0
  -24.6250  -15.8069   20.5012 H   0  0  0  0  0  0
  -26.2260  -15.6155   19.9943 H   0  0  0  0  0  0
  -26.7269  -32.5316   23.0980 H   0  0  0  0  0  0
  -25.0106  -33.9629   25.0331 H   0  0  0  0  0  0
  -22.7515  -31.2864   21.3738 H   0  0  0  0  0  0
  -23.3776  -35.9564   23.3293 H   0  0  0  0  0  0
  -24.3565  -36.8894   22.2061 H   0  0  0  0  0  0
  -23.7225  -37.6432   23.6682 H   0  0  0  0  0  0
  -26.1569  -31.4693   20.6061 H   0  0  0  0  0  0
  -26.8741  -30.7730   22.0243 H   0  0  0  0  0  0
  -28.1358  -28.8133   21.2419 H   0  0  0  0  0  0
  -25.9373  -25.8212   19.0431 H   0  0  0  0  0  0
  -23.9889  -27.2688   19.0079 H   0  0  0  0  0  0
  -23.8198  -30.5597   19.3967 H   0  0  0  0  0  0
  -22.7914  -29.2311   19.8378 H   0  0  0  0  0  0
  -25.1316  -36.1871   25.0807 H   0  0  0  0  0  0
  -21.0021  -28.3345   24.1354 H   0  0  0  0  0  0
  -20.5720  -26.2358   23.3632 H   0  0  0  0  0  0
  -21.6671  -26.7460   22.1196 H   0  0  0  0  0  0
  -19.6943  -25.6283   21.1278 H   0  0  0  0  0  0
  -19.6728  -27.3167   20.6728 H   0  0  0  0  0  0
  -17.4233  -26.6714   21.4001 H   0  0  0  0  0  0
  -18.0329  -26.0107   22.9016 H   0  0  0  0  0  0
  -19.7974  -30.7310   24.2218 H   0  0  0  0  0  0
  -17.5055  -31.6284   24.5185 H   0  0  0  0  0  0
  -15.5381  -30.3006   23.7683 H   0  0  0  0  0  0
  -15.8700  -28.0850   22.7061 H   0  0  0  0  0  0
  -24.5852  -30.7157   25.7696 H   0  0  0  0  0  0
  -24.8898  -32.2986   26.4746 H   0  0  0  0  0  0
  -25.7952  -30.8985   27.0207 H   0  0  0  0  0  0
  -26.3009  -29.6701   24.1261 H   0  0  0  0  0  0
  -27.4027  -29.7275   25.4828 H   0  0  0  0  0  0
  -27.8910  -30.4245   23.9571 H   0  0  0  0  0  0
  -27.2603  -33.3643   26.2058 H   0  0  0  0  0  0
  -28.3864  -32.6930   25.0347 H   0  0  0  0  0  0
  -28.0698  -31.8496   26.5439 H   0  0  0  0  0  0
  -28.2583  -38.0092   24.7522 H   0  0  0  0  0  0
  -28.1088  -36.2624   24.6270 H   0  0  0  0  0  0
  -27.2295  -37.1408   25.8861 H   0  0  0  0  0  0
  -20.9483  -29.8774   21.6767 H   0  0  0  0  0  0
  -26.0160  -38.2825   24.1422 H   0  0  0  0  0  0
  -26.5203  -18.1245   20.5498 H   0  0  0  0  0  0
  -29.5362  -19.4902   17.7848 H   0  0  0  0  0  0
  -29.4597  -18.2454   22.5405 H   0  0  0  0  0  0
  -27.8099  -18.3539   22.1245 H   0  0  0  0  0  0
  -27.8940  -16.1046   21.0837 H   0  0  0  0  0  0
  -28.9712  -15.9430   22.4616 H   0  0  0  0  0  0
  -31.1503  -17.7801   20.9879 H   0  0  0  0  0  0
  -24.4186  -17.6679   19.9384 H   0  0  0  0  0  0
  -24.0017  -17.4597   18.2494 H   0  0  0  0  0  0
  -23.7768  -19.0324   19.0421 H   0  0  0  0  0  0
  -29.0372  -19.8031   15.5033 H   0  0  0  0  0  0
  -27.6362  -20.8700   15.4653 H   0  0  0  0  0  0
  -27.5259  -19.2249   14.8305 H   0  0  0  0  0  0
  -24.0950  -19.1507   16.5970 H   0  0  0  0  0  0
  -25.2061  -18.3929   15.4634 H   0  0  0  0  0  0
  -25.2069  -20.1397   15.6885 H   0  0  0  0  0  0
  -30.5744  -17.3464   18.0474 H   0  0  0  0  0  0
  -32.0726  -17.0558   18.9152 H   0  0  0  0  0  0
  -31.5083  -18.6896   18.7147 H   0  0  0  0  0  0
  -30.5261  -20.5643   20.1001 H   0  0  0  0  0  0
  -30.0045  -20.4586   21.7299 H   0  0  0  0  0  0
  -27.8183  -21.6216   21.1449 H   0  0  0  0  0  0
  -28.1850  -21.5955   19.4664 H   0  0  0  0  0  0
  -29.9544  -23.4755   19.8763 H   0  0  0  0  0  0
  -29.4445  -23.5585   21.5171 H   0  0  0  0  0  0
  -27.1145  -24.4410   20.6283 H   0  0  0  0  0  0
  -27.8349  -24.5020   19.0576 H   0  0  0  0  0  0
  1 25  1  0  0  0
  1 30  2  0  0  0
  1 89  1  0  0  0
  2  3  1  0  0  0
  2 25  1  0  0  0
  2 90  1  0  0  0
  2 91  1  0  0  0
  3  4  1  0  0  0
  3 92  1  0  0  0
  3 93  1  0  0  0
  4  5  1  0  0  0
  4 94  1  0  0  0
  4 95  1  0  0  0
  5  6  1  0  0  0
  5 26  1  0  0  0
  5 96  1  0  0  0
  6 25  1  0  0  0
  6 97  1  0  0  0
  6 98  1  0  0  0
  7  8  2  0  0  0
  7 26  1  0  0  0
  7 29  1  0  0  0
  8  9  1  0  0  0
  8 22  1  0  0  0
  9 10  1  0  0  0
  9 27  2  0  0  0
 10 11  2  0  0  0
 10 15  1  0  0  0
 11 12  1  0  0  0
 11 99  1  0  0  0
 12 13  2  0  0  0
 12100  1  0  0  0
 13 14  1  0  0  0
 13 31  1  0  0  0
 14 15  2  0  0  0
 14101  1  0  0  0
 15102  1  0  0  0
 16 17  2  0  0  0
 16 21  1  0  0  0
 16 31  1  0  0  0
 17 18  1  0  0  0
 17103  1  0  0  0
 18 19  2  0  0  0
 18104  1  0  0  0
 19 20  1  0  0  0
 19 24  1  0  0  0
 20 21  2  0  0  0
 20105  1  0  0  0
 21 23  1  0  0  0
 22 28  1  0  0  0
 22 32  2  0  0  0
 26 27  1  0  0  0
 28106  1  0  0  0
 28107  1  0  0  0
 29108  1  0  0  0
 29109  1  0  0  0
 33 34  1  0  0  0
 33 66  1  0  0  0
 33 70  2  0  0  0
 34 36  1  0  0  0
 34 59  1  0  0  0
 34110  1  0  0  0
 35 44  2  0  0  0
 35 45  1  0  0  0
 35 68  1  0  0  0
 36 56  1  0  0  0
 36111  1  0  0  0
 37 39  1  0  0  0
 37 47  1  0  0  0
 37 66  1  0  0  0
 37112  1  0  0  0
 38 43  2  0  0  0
 38 46  1  0  0  0
 38 47  1  0  0  0
 39 64  1  0  0  0
 39 67  2  0  0  0
 40 52  1  0  0  0
 40 53  2  0  0  0
 40 58  1  0  0  0
 41113  1  0  0  0
 41114  1  0  0  0
 41115  1  0  0  0
 41 48  1  0  0  0
 42 43  1  0  0  0
 42 66  1  0  0  0
 42116  1  0  0  0
 42117  1  0  0  0
 43 44  1  0  0  0
 44118  1  0  0  0
 45 46  2  0  0  0
 45119  1  0  0  0
 46120  1  0  0  0
 47121  1  0  0  0
 47122  1  0  0  0
 48 56  1  0  0  0
 48 65  1  0  0  0
 48123  1  0  0  0
 49 50  1  0  0  0
 49 53  1  0  0  0
 49 64  1  0  0  0
 49124  1  0  0  0
 50 51  1  0  0  0
 50125  1  0  0  0
 50126  1  0  0  0
 51 52  1  0  0  0
 51127  1  0  0  0
 51128  1  0  0  0
 52129  1  0  0  0
 52130  1  0  0  0
 53 54  1  0  0  0
 54 55  2  0  0  0
 54131  1  0  0  0
 55 57  1  0  0  0
 55132  1  0  0  0
 56 69  2  0  0  0
 57 58  2  0  0  0
 57133  1  0  0  0
 58134  1  0  0  0
 59 60  1  0  0  0
 59 61  1  0  0  0
 59 62  1  0  0  0
 60135  1  0  0  0
 60136  1  0  0  0
 60137  1  0  0  0
 61138  1  0  0  0
 61139  1  0  0  0
 61140  1  0  0  0
 62141  1  0  0  0
 62142  1  0  0  0
 62143  1  0  0  0
 63 65  1  0  0  0
 63144  1  0  0  0
 63145  1  0  0  0
 63146  1  0  0  0
 64147  1  0  0  0
 65148  1  0  0  0
 68 88  1  0  0  0
 71 73  2  0  0  0
 71 74  1  0  0  0
 71149  1  0  0  0
 72 73  1  0  0  0
 72 75  2  0  0  0
 72150  1  0  0  0
 73 80  1  0  0  0
 74 76  2  0  0  0
 74 81  1  0  0  0
 75 76  1  0  0  0
 75 82  1  0  0  0
 76 83  1  0  0  0
 77 78  1  0  0  0
 77 80  1  0  0  0
 77151  1  0  0  0
 77152  1  0  0  0
 78 89  1  0  0  0
 78153  1  0  0  0
 78154  1  0  0  0
 79 80  1  0  0  0
 79 84  1  0  0  0
 79 89  1  0  0  0
 79155  1  0  0  0
 80 85  1  0  0  0
 81156  1  0  0  0
 81157  1  0  0  0
 81158  1  0  0  0
 82159  1  0  0  0
 82160  1  0  0  0
 82161  1  0  0  0
 83162  1  0  0  0
 83163  1  0  0  0
 83164  1  0  0  0
 84165  1  0  0  0
 84166  1  0  0  0
 84167  1  0  0  0
 85 86  1  0  0  0
 85168  1  0  0  0
 85169  1  0  0  0
 86 87  1  0  0  0
 86170  1  0  0  0
 86171  1  0  0  0
 87 88  1  0  0  0
 87172  1  0  0  0
 87173  1  0  0  0
 88174  1  0  0  0
 88175  1  0  0  0
M  ISO  4   1 100  68 101  88 101  89 100
M  END
> <chiral flag>
0

> <version>
0

> <s_m_source_file>
/data/baiqing/PycharmProjects/Reinvent-master-3.2/result/LINK_invent/BTK/process_docking_weight1_custom_sum_contain_oxygen_bond_distance_aromatic_linkinvent_7_9_3/rearranged_h_0163.sdf

> <i_m_source_file_index>
40

> <r_mmod_Potential_Energy-OPLS-2005>
708.252380371094

> <r_mmod_Stretch_Energy-OPLS-2005>
270.679046630859

> <r_mmod_Bend_Energy-OPLS-2005>
313.727874755859

> <r_mmod_Torsional_Energy-OPLS-2005>
324.124633789062

> <r_mmod_Improper_Torsional_Energy-OPLS-2005>
10.0755968093872

> <r_mmod_Van_der_Waal_Energy-OPLS-2005>
133.48388671875

> <r_mmod_Electrostatic_Energy-OPLS-2005>
-325.109436035156

> <r_mmod_Solvation_Energy-OPLS-2005>
-181.00032043457

> <b_mmod_Minimization_Converged-OPLS-2005>
0

> <r_mmod_RMS_Derivative-OPLS-2005>
4.5396876335144

$$$$
40
                    3D
 Structure written by MMmdl.
166175  0  0  1  0            999 V2000
  -30.7620  -14.6175   20.6394 C   0  0  0  0  0  0
  -30.4259  -12.4251   19.4721 C   0  0  0  0  0  0
  -29.5065  -12.4891   18.2326 C   0  0  0  0  0  0
  -28.0362  -12.3115   18.6417 C   0  0  0  0  0  0
  -27.6452  -13.2189   19.8313 C   0  0  2  0  0  0
  -28.6709  -13.1392   20.9733 C   0  0  0  0  0  0
  -25.2552  -13.8170   20.5651 C   0  0  0  0  0  0
  -24.1831  -13.0424   20.9184 C   0  0  0  0  0  0
  -24.6411  -11.6904   20.8728 C   0  0  0  0  0  0
  -23.9081  -10.4282   21.0418 C   0  0  0  0  0  0
  -24.3640   -9.4193   21.9194 C   0  0  0  0  0  0
  -23.6308   -8.2219   22.0754 C   0  0  0  0  0  0
  -22.4280   -8.0269   21.3545 C   0  0  0  0  0  0
  -21.9928   -9.0236   20.4628 C   0  0  0  0  0  0
  -22.7263  -10.2123   20.3037 C   0  0  0  0  0  0
  -21.6864   -6.0754   22.5282 C   0  0  0  0  0  0
  -21.4018   -6.5647   23.8220 C   0  0  0  0  0  0
  -21.3648   -5.6793   24.9176 C   0  0  0  0  0  0
  -21.6052   -4.3053   24.7227 C   0  0  0  0  0  0
  -21.8821   -3.8161   23.4344 C   0  0  0  0  0  0
  -21.9208   -4.6977   22.3416 C   0  0  0  0  0  0
  -22.7851  -13.5206   21.1892 C   0  0  0  0  0  0
  -22.1674   -4.2174   21.0987 F   0  0  0  0  0  0
  -21.5631   -3.4529   25.7739 F   0  0  0  0  0  0
  -30.0153  -13.4654   20.4530 N   0  0  0  0  0  0
  -26.2935  -12.9358   20.3121 N   0  0  0  0  0  0
  -25.9317  -11.6504   20.5625 N   0  0  0  0  0  0
  -22.0514  -12.8153   22.0410 N   0  0  0  0  0  0
  -25.4336  -15.1896   20.4194 N   0  0  0  0  0  0
  -31.8068  -14.7558   19.9937 O   0  0  0  0  0  0
  -21.6635   -6.8873   21.4234 O   0  0  0  0  0  0
  -22.3519  -14.5524   20.6791 O   0  0  0  0  0  0
  -24.6289  -31.8587   23.2037 C   0  0  0  0  0  0
  -25.9114  -32.4773   23.8381 C   0  0  1  0  0  0
  -27.2046  -27.2780   20.1517 C   0  0  0  0  0  0
  -25.5920  -33.8578   24.2291 N   0  0  0  0  0  0
  -23.4253  -30.4848   21.5446 C   0  0  2  0  0  0
  -24.8694  -28.9430   20.1090 C   0  0  0  0  0  0
  -22.7507  -29.4629   22.4919 C   0  0  0  0  0  0
  -18.0336  -28.1361   22.8538 C   0  0  0  0  0  0
  -24.1503  -36.7306   23.2640 C   0  0  0  0  0  0
  -25.9703  -30.7800   21.3810 C   0  0  0  0  0  0
  -26.0404  -29.4073   20.7215 C   0  0  0  0  0  0
  -27.2100  -28.5862   20.7308 C   0  0  0  0  0  0
  -26.0089  -26.8807   19.5054 C   0  0  0  0  0  0
  -24.8592  -27.6861   19.4883 C   0  0  0  0  0  0
  -23.6412  -29.8252   20.1582 C   0  0  0  0  0  0
  -25.4130  -36.3102   24.0332 C   0  0  1  0  0  0
  -20.5923  -28.3738   23.1297 C   0  0  2  0  0  0
  -20.6832  -26.9440   22.5418 C   0  0  0  0  0  0
  -19.5770  -26.6386   21.5278 C   0  0  0  0  0  0
  -18.1996  -26.7870   22.1760 C   0  0  0  0  0  0
  -19.1566  -28.8890   23.2865 C   0  0  0  0  0  0
  -18.9460  -30.1531   23.8805 C   0  0  0  0  0  0
  -17.6443  -30.6601   24.0483 C   0  0  0  0  0  0
  -25.9054  -34.9453   23.5115 C   0  0  0  0  0  0
  -16.5352  -29.9051   23.6292 C   0  0  0  0  0  0
  -16.7315  -28.6448   23.0388 C   0  0  0  0  0  0
  -26.4478  -31.6596   25.0766 C   0  0  0  0  0  0
  -25.3704  -31.3736   26.1491 C   0  0  0  0  0  0
  -27.0326  -30.3015   24.6244 C   0  0  0  0  0  0
  -27.6029  -32.4352   25.7529 C   0  0  0  0  0  0
  -27.5592  -37.1814   24.8463 C   0  0  0  0  0  0
  -21.4216  -29.3069   22.3658 N   0  0  0  0  0  0
  -26.4306  -37.3787   23.9394 N   0  0  0  0  0  0
  -24.6941  -31.0574   22.1002 N   0  0  0  0  0  0
  -23.4231  -28.8164   23.2993 O   0  0  0  0  0  0
  -28.2851  -26.3741   20.2516 O   0  0  0  0  0  0
  -26.5622  -34.8912   22.4681 O   0  0  0  0  0  0
  -23.5441  -32.1404   23.7344 O   0  0  0  0  0  0
  -30.4220  -20.8620   21.4474 C   0  0  0  0  0  0
  -29.2079  -20.9147   20.7241 C   0  0  0  0  0  0
  -31.0705  -19.6092   21.7082 C   0  0  0  0  0  0
  -30.4602  -18.3788   21.2859 C   0  0  0  0  0  0
  -28.7319  -19.6389   20.2853 C   0  0  0  0  0  0
  -31.2341  -15.6522   23.7223 C   0  0  0  0  0  0
  -31.6544  -16.9528   23.0808 C   0  0  0  0  0  0
  -30.0415  -15.2322   22.8848 C   0  0  0  0  0  0
  -31.0997  -16.9624   21.6302 C   0  0  1  0  0  0
  -27.5073  -19.5233   19.3989 C   0  0  0  0  0  0
  -32.5941  -20.5705   23.3038 C   0  0  0  0  0  0
  -28.3881  -22.2496   20.4462 C   0  0  0  0  0  0
  -28.9534  -23.7410   20.6314 C   0  0  0  0  0  0
  -27.9882  -24.9166   20.1143 C   0  0  0  0  0  0
  -29.3116  -18.4340   20.5736 N   0  0  0  0  0  0
  -30.3566  -15.6254   21.4992 N   0  0  0  0  0  0
  -32.2869  -19.5529   22.3579 O   0  0  0  0  0  0
  -31.4664  -12.5169   19.1578 H   0  0  0  0  0  0
  -30.3586  -11.4437   19.9452 H   0  0  0  0  0  0
  -29.7798  -11.7040   17.5248 H   0  0  0  0  0  0
  -29.6404  -13.4373   17.7137 H   0  0  0  0  0  0
  -27.9023  -11.2659   18.9219 H   0  0  0  0  0  0
  -27.3741  -12.4895   17.7941 H   0  0  0  0  0  0
  -27.6501  -14.2412   19.4512 H   0  0  0  0  0  0
  -28.6735  -12.1486   21.4308 H   0  0  0  0  0  0
  -28.3100  -13.8241   21.7354 H   0  0  0  0  0  0
  -25.2789   -9.5687   22.4756 H   0  0  0  0  0  0
  -24.0053   -7.4610   22.7460 H   0  0  0  0  0  0
  -21.0887   -8.8758   19.8896 H   0  0  0  0  0  0
  -22.3749  -10.9672   19.6130 H   0  0  0  0  0  0
  -21.1977   -7.6151   23.9738 H   0  0  0  0  0  0
  -21.1473   -6.0514   25.9093 H   0  0  0  0  0  0
  -22.0611   -2.7623   23.2841 H   0  0  0  0  0  0
  -22.4157  -11.9809   22.4781 H   0  0  0  0  0  0
  -21.1108  -13.1119   22.2574 H   0  0  0  0  0  0
  -24.6876  -15.8573   20.5763 H   0  0  0  0  0  0
  -26.3039  -15.6263   20.1396 H   0  0  0  0  0  0
  -26.7186  -32.5439   23.1132 H   0  0  0  0  0  0
  -25.0019  -33.9700   25.0411 H   0  0  0  0  0  0
  -22.7207  -31.3074   21.4037 H   0  0  0  0  0  0
  -23.3747  -35.9653   23.3341 H   0  0  0  0  0  0
  -24.3572  -36.8880   22.2036 H   0  0  0  0  0  0
  -23.7264  -37.6526   23.6646 H   0  0  0  0  0  0
  -26.1091  -31.5459   20.6160 H   0  0  0  0  0  0
  -26.8446  -30.8244   22.0200 H   0  0  0  0  0  0
  -28.1023  -28.9297   21.2378 H   0  0  0  0  0  0
  -25.9199  -25.9159   19.0330 H   0  0  0  0  0  0
  -23.9608  -27.3211   19.0093 H   0  0  0  0  0  0
  -23.7683  -30.6023   19.4028 H   0  0  0  0  0  0
  -22.7613  -29.2590   19.8518 H   0  0  0  0  0  0
  -25.1317  -36.1960   25.0822 H   0  0  0  0  0  0
  -21.0040  -28.3336   24.1392 H   0  0  0  0  0  0
  -20.5776  -26.2342   23.3623 H   0  0  0  0  0  0
  -21.6670  -26.7480   22.1158 H   0  0  0  0  0  0
  -19.6992  -25.6302   21.1276 H   0  0  0  0  0  0
  -19.6651  -27.3224   20.6822 H   0  0  0  0  0  0
  -17.4211  -26.6552   21.4234 H   0  0  0  0  0  0
  -18.0473  -26.0062   22.9227 H   0  0  0  0  0  0
  -19.7916  -30.7449   24.2087 H   0  0  0  0  0  0
  -17.4963  -31.6308   24.5016 H   0  0  0  0  0  0
  -15.5345  -30.2924   23.7569 H   0  0  0  0  0  0
  -15.8770  -28.0687   22.7139 H   0  0  0  0  0  0
  -24.5871  -30.7080   25.7851 H   0  0  0  0  0  0
  -24.8887  -32.2892   26.4934 H   0  0  0  0  0  0
  -25.8013  -30.8926   27.0269 H   0  0  0  0  0  0
  -26.2926  -29.6759   24.1231 H   0  0  0  0  0  0
  -27.3968  -29.7273   25.4766 H   0  0  0  0  0  0
  -27.8826  -30.4290   23.9533 H   0  0  0  0  0  0
  -27.2616  -33.3639   26.2105 H   0  0  0  0  0  0
  -28.3824  -32.6902   25.0350 H   0  0  0  0  0  0
  -28.0707  -31.8479   26.5431 H   0  0  0  0  0  0
  -28.2628  -38.0096   24.7500 H   0  0  0  0  0  0
  -28.1076  -36.2614   24.6344 H   0  0  0  0  0  0
  -27.2294  -37.1545   25.8863 H   0  0  0  0  0  0
  -20.9451  -29.8750   21.6820 H   0  0  0  0  0  0
  -26.0207  -38.2873   24.1368 H   0  0  0  0  0  0
  -30.8600  -21.7897   21.7843 H   0  0  0  0  0  0
  -30.9935  -15.7643   24.7813 H   0  0  0  0  0  0
  -32.0326  -14.9127   23.6413 H   0  0  0  0  0  0
  -32.7367  -17.0770   23.1001 H   0  0  0  0  0  0
  -31.2216  -17.7569   23.6767 H   0  0  0  0  0  0
  -29.1325  -15.7457   23.2035 H   0  0  0  0  0  0
  -29.9071  -14.1641   23.0558 H   0  0  0  0  0  0
  -31.9758  -16.9389   20.9807 H   0  0  0  0  0  0
  -26.6073  -19.8336   19.9267 H   0  0  0  0  0  0
  -27.3559  -18.4970   19.0604 H   0  0  0  0  0  0
  -27.6245  -20.1372   18.5067 H   0  0  0  0  0  0
  -33.3666  -20.2035   23.9790 H   0  0  0  0  0  0
  -31.7324  -20.8380   23.9173 H   0  0  0  0  0  0
  -32.9798  -21.4670   22.8187 H   0  0  0  0  0  0
  -27.4947  -22.1676   21.0695 H   0  0  0  0  0  0
  -28.0149  -22.1861   19.4260 H   0  0  0  0  0  0
  -29.9063  -23.8277   20.1129 H   0  0  0  0  0  0
  -29.1588  -23.8992   21.6903 H   0  0  0  0  0  0
  -27.0293  -24.7238   20.5974 H   0  0  0  0  0  0
  -27.8333  -24.7404   19.0482 H   0  0  0  0  0  0
  1 25  1  0  0  0
  1 30  2  0  0  0
  1 86  1  0  0  0
  2  3  1  0  0  0
  2 25  1  0  0  0
  2 88  1  0  0  0
  2 89  1  0  0  0
  3  4  1  0  0  0
  3 90  1  0  0  0
  3 91  1  0  0  0
  4  5  1  0  0  0
  4 92  1  0  0  0
  4 93  1  0  0  0
  5  6  1  0  0  0
  5 26  1  0  0  0
  5 94  1  0  0  0
  6 25  1  0  0  0
  6 95  1  0  0  0
  6 96  1  0  0  0
  7  8  2  0  0  0
  7 26  1  0  0  0
  7 29  1  0  0  0
  8  9  1  0  0  0
  8 22  1  0  0  0
  9 10  1  0  0  0
  9 27  2  0  0  0
 10 11  2  0  0  0
 10 15  1  0  0  0
 11 12  1  0  0  0
 11 97  1  0  0  0
 12 13  2  0  0  0
 12 98  1  0  0  0
 13 14  1  0  0  0
 13 31  1  0  0  0
 14 15  2  0  0  0
 14 99  1  0  0  0
 15100  1  0  0  0
 16 17  2  0  0  0
 16 21  1  0  0  0
 16 31  1  0  0  0
 17 18  1  0  0  0
 17101  1  0  0  0
 18 19  2  0  0  0
 18102  1  0  0  0
 19 20  1  0  0  0
 19 24  1  0  0  0
 20 21  2  0  0  0
 20103  1  0  0  0
 21 23  1  0  0  0
 22 28  1  0  0  0
 22 32  2  0  0  0
 26 27  1  0  0  0
 28104  1  0  0  0
 28105  1  0  0  0
 29106  1  0  0  0
 29107  1  0  0  0
 33 34  1  0  0  0
 33 66  1  0  0  0
 33 70  2  0  0  0
 34 36  1  0  0  0
 34 59  1  0  0  0
 34108  1  0  0  0
 35 44  2  0  0  0
 35 45  1  0  0  0
 35 68  1  0  0  0
 36 56  1  0  0  0
 36109  1  0  0  0
 37 39  1  0  0  0
 37 47  1  0  0  0
 37 66  1  0  0  0
 37110  1  0  0  0
 38 43  2  0  0  0
 38 46  1  0  0  0
 38 47  1  0  0  0
 39 64  1  0  0  0
 39 67  2  0  0  0
 40 52  1  0  0  0
 40 53  2  0  0  0
 40 58  1  0  0  0
 41111  1  0  0  0
 41112  1  0  0  0
 41113  1  0  0  0
 41 48  1  0  0  0
 42 43  1  0  0  0
 42 66  1  0  0  0
 42114  1  0  0  0
 42115  1  0  0  0
 43 44  1  0  0  0
 44116  1  0  0  0
 45 46  2  0  0  0
 45117  1  0  0  0
 46118  1  0  0  0
 47119  1  0  0  0
 47120  1  0  0  0
 48 56  1  0  0  0
 48 65  1  0  0  0
 48121  1  0  0  0
 49 50  1  0  0  0
 49 53  1  0  0  0
 49 64  1  0  0  0
 49122  1  0  0  0
 50 51  1  0  0  0
 50123  1  0  0  0
 50124  1  0  0  0
 51 52  1  0  0  0
 51125  1  0  0  0
 51126  1  0  0  0
 52127  1  0  0  0
 52128  1  0  0  0
 53 54  1  0  0  0
 54 55  2  0  0  0
 54129  1  0  0  0
 55 57  1  0  0  0
 55130  1  0  0  0
 56 69  2  0  0  0
 57 58  2  0  0  0
 57131  1  0  0  0
 58132  1  0  0  0
 59 60  1  0  0  0
 59 61  1  0  0  0
 59 62  1  0  0  0
 60133  1  0  0  0
 60134  1  0  0  0
 60135  1  0  0  0
 61136  1  0  0  0
 61137  1  0  0  0
 61138  1  0  0  0
 62139  1  0  0  0
 62140  1  0  0  0
 62141  1  0  0  0
 63 65  1  0  0  0
 63142  1  0  0  0
 63143  1  0  0  0
 63144  1  0  0  0
 64145  1  0  0  0
 65146  1  0  0  0
 68 84  1  0  0  0
 71 72  2  0  0  0
 71 73  1  0  0  0
 71147  1  0  0  0
 72 75  1  0  0  0
 72 82  1  0  0  0
 73 74  2  0  0  0
 73 87  1  0  0  0
 74 85  1  0  0  0
 74 79  1  0  0  0
 75 80  1  0  0  0
 75 85  2  0  0  0
 76 77  1  0  0  0
 76 78  1  0  0  0
 76148  1  0  0  0
 76149  1  0  0  0
 77 79  1  0  0  0
 77150  1  0  0  0
 77151  1  0  0  0
 78 86  1  0  0  0
 78152  1  0  0  0
 78153  1  0  0  0
 79 86  1  0  0  0
 79154  1  0  0  0
 80155  1  0  0  0
 80156  1  0  0  0
 80157  1  0  0  0
 81 87  1  0  0  0
 81158  1  0  0  0
 81159  1  0  0  0
 81160  1  0  0  0
 82 83  1  0  0  0
 82161  1  0  0  0
 82162  1  0  0  0
 83 84  1  0  0  0
 83163  1  0  0  0
 83164  1  0  0  0
 84165  1  0  0  0
 84166  1  0  0  0
M  ISO  4   1 100  68 101  84 101  86 100
M  END
> <chiral flag>
0

> <version>
0

> <s_m_source_file>
/data/baiqing/PycharmProjects/Reinvent-master-3.2/result/LINK_invent/BTK/process_docking_weight1_custom_sum_contain_oxygen_bond_distance_aromatic_linkinvent_7_9_3/rearranged_h_0163.sdf

> <i_m_source_file_index>
41

> <r_mmod_Potential_Energy-OPLS-2005>
228.174438476562

> <r_mmod_Stretch_Energy-OPLS-2005>
111.574234008789

> <r_mmod_Bend_Energy-OPLS-2005>
206.101089477539

> <r_mmod_Torsional_Energy-OPLS-2005>
316.393157958984

> <r_mmod_Improper_Torsional_Energy-OPLS-2005>
6.24311447143555

> <r_mmod_Van_der_Waal_Energy-OPLS-2005>
167.616744995117

> <r_mmod_Electrostatic_Energy-OPLS-2005>
-436.465301513672

> <r_mmod_Solvation_Energy-OPLS-2005>
-206.949234008789

> <b_mmod_Minimization_Converged-OPLS-2005>
0

> <r_mmod_RMS_Derivative-OPLS-2005>
5.4087610244751

$$$$
41
                    3D
 Structure written by MMmdl.
179189  0  0  1  0            999 V2000
  -30.6404  -14.7278   20.4804 C   0  0  0  0  0  0
  -30.4245  -12.4505   19.4690 C   0  0  0  0  0  0
  -29.4978  -12.4848   18.2345 C   0  0  0  0  0  0
  -28.0309  -12.2938   18.6632 C   0  0  0  0  0  0
  -27.6357  -13.2098   19.8502 C   0  0  2  0  0  0
  -28.6845  -13.1716   20.9842 C   0  0  0  0  0  0
  -25.2520  -13.8122   20.5735 C   0  0  0  0  0  0
  -24.1780  -13.0404   20.9235 C   0  0  0  0  0  0
  -24.6353  -11.6872   20.8794 C   0  0  0  0  0  0
  -23.9031  -10.4266   21.0451 C   0  0  0  0  0  0
  -24.3586   -9.4169   21.9222 C   0  0  0  0  0  0
  -23.6265   -8.2201   22.0763 C   0  0  0  0  0  0
  -22.4246   -8.0252   21.3557 C   0  0  0  0  0  0
  -21.9890   -9.0226   20.4655 C   0  0  0  0  0  0
  -22.7213  -10.2110   20.3082 C   0  0  0  0  0  0
  -21.6834   -6.0713   22.5283 C   0  0  0  0  0  0
  -21.3997   -6.5625   23.8211 C   0  0  0  0  0  0
  -21.3670   -5.6786   24.9186 C   0  0  0  0  0  0
  -21.6048   -4.3049   24.7238 C   0  0  0  0  0  0
  -21.8811   -3.8127   23.4365 C   0  0  0  0  0  0
  -21.9180   -4.6944   22.3410 C   0  0  0  0  0  0
  -22.7818  -13.5226   21.1873 C   0  0  0  0  0  0
  -22.1646   -4.2121   21.0994 F   0  0  0  0  0  0
  -21.5649   -3.4537   25.7762 F   0  0  0  0  0  0
  -29.9819  -13.5209   20.3932 N   0  0  0  0  0  0
  -26.2908  -12.9281   20.3335 N   0  0  0  0  0  0
  -25.9276  -11.6457   20.5823 N   0  0  0  0  0  0
  -22.0437  -12.8231   22.0438 N   0  0  0  0  0  0
  -25.4267  -15.1834   20.4150 N   0  0  0  0  0  0
  -31.8304  -14.7949   20.1573 O   0  0  0  0  0  0
  -21.6617   -6.8851   21.4240 O   0  0  0  0  0  0
  -22.3527  -14.5545   20.6728 O   0  0  0  0  0  0
  -24.6287  -31.8554   23.1917 C   0  0  0  0  0  0
  -25.9074  -32.4773   23.8325 C   0  0  1  0  0  0
  -27.2410  -27.2696   20.1178 C   0  0  0  0  0  0
  -25.5881  -33.8580   24.2239 N   0  0  0  0  0  0
  -23.4289  -30.4654   21.5359 C   0  0  2  0  0  0
  -24.8811  -28.9016   20.1074 C   0  0  0  0  0  0
  -22.7504  -29.4566   22.4940 C   0  0  0  0  0  0
  -18.0287  -28.1358   22.8487 C   0  0  0  0  0  0
  -24.1470  -36.7299   23.2659 C   0  0  0  0  0  0
  -25.9719  -30.7580   21.3769 C   0  0  0  0  0  0
  -26.0422  -29.3772   20.7276 C   0  0  0  0  0  0
  -27.2187  -28.5652   20.7321 C   0  0  0  0  0  0
  -26.0676  -26.8627   19.4525 C   0  0  0  0  0  0
  -24.8955  -27.6516   19.4632 C   0  0  0  0  0  0
  -23.6455  -29.7808   20.1565 C   0  0  0  0  0  0
  -25.4094  -36.3088   24.0337 C   0  0  1  0  0  0
  -20.5886  -28.3652   23.1288 C   0  0  2  0  0  0
  -20.6767  -26.9379   22.5402 C   0  0  0  0  0  0
  -19.5736  -26.6342   21.5225 C   0  0  0  0  0  0
  -18.1912  -26.7910   22.1619 C   0  0  0  0  0  0
  -19.1537  -28.8831   23.2873 C   0  0  0  0  0  0
  -18.9471  -30.1443   23.8875 C   0  0  0  0  0  0
  -17.6467  -30.6574   24.0551 C   0  0  0  0  0  0
  -25.9034  -34.9463   23.5090 C   0  0  0  0  0  0
  -16.5356  -29.9054   23.6358 C   0  0  0  0  0  0
  -16.7271  -28.6468   23.0386 C   0  0  0  0  0  0
  -26.4412  -31.6655   25.0769 C   0  0  0  0  0  0
  -25.3597  -31.3837   26.1479 C   0  0  0  0  0  0
  -27.0305  -30.3090   24.6276 C   0  0  0  0  0  0
  -27.5952  -32.4449   25.7535 C   0  0  0  0  0  0
  -27.5557  -37.1801   24.8463 C   0  0  0  0  0  0
  -21.4208  -29.3024   22.3709 N   0  0  0  0  0  0
  -26.4265  -37.3791   23.9417 N   0  0  0  0  0  0
  -24.6949  -31.0472   22.0907 N   0  0  0  0  0  0
  -23.4216  -28.8130   23.3046 O   0  0  0  0  0  0
  -28.3812  -26.4386   20.1409 O   0  0  0  0  0  0
  -26.5613  -34.8941   22.4669 O   0  0  0  0  0  0
  -23.5413  -32.1378   23.7173 O   0  0  0  0  0  0
  -27.9338  -22.6967   21.0609 C   0  0  0  0  0  0
  -29.8307  -22.9412   19.6036 C   0  0  0  0  0  0
  -29.1058  -22.0710   20.4993 C   0  0  0  0  0  0
  -27.6660  -24.1195   20.9689 C   0  0  0  0  0  0
  -29.5032  -24.3459   19.4406 C   0  0  0  0  0  0
  -28.4545  -25.0002   20.1630 C   0  0  0  0  0  0
  -30.9137  -22.4502   22.8430 C   0  0  0  0  0  0
  -31.0467  -21.0997   23.4959 C   0  0  0  0  0  0
  -30.7897  -18.2671   21.6222 C   0  0  0  0  0  0
  -28.8208  -18.2440   20.1885 C   0  0  0  0  0  0
  -30.3537  -16.7692   21.9230 C   0  0  0  0  0  0
  -29.2174  -16.7392   19.7864 C   0  0  0  0  0  0
  -30.9486  -21.1975   21.9840 C   0  0  0  0  0  0
  -30.0129  -19.1874   20.5736 C   0  0  0  0  0  0
  -26.9431  -21.8256   21.8313 C   0  0  0  0  0  0
  -31.0157  -22.3740   18.8215 C   0  0  0  0  0  0
  -26.5475  -24.7230   21.8146 C   0  0  0  0  0  0
  -30.3518  -25.2227   18.5166 C   0  0  0  0  0  0
  -29.7174  -20.7140   21.1893 C   0  0  2  0  0  0
  -29.9438  -15.8995   20.7947 N   0  0  0  0  0  0
  -30.8655  -19.3178   19.3801 N   0  3  0  0  0  0
  -31.4639  -12.5674   19.1585 H   0  0  0  0  0  0
  -30.3689  -11.4784   19.9621 H   0  0  0  0  0  0
  -29.7801  -11.7000   17.5306 H   0  0  0  0  0  0
  -29.6086  -13.4314   17.7042 H   0  0  0  0  0  0
  -27.9107  -11.2488   18.9525 H   0  0  0  0  0  0
  -27.3583  -12.4515   17.8185 H   0  0  0  0  0  0
  -27.6160  -14.2139   19.4396 H   0  0  0  0  0  0
  -28.7271  -12.1796   21.4374 H   0  0  0  0  0  0
  -28.4158  -13.8626   21.7853 H   0  0  0  0  0  0
  -25.2726   -9.5635   22.4811 H   0  0  0  0  0  0
  -23.9963   -7.4584   22.7477 H   0  0  0  0  0  0
  -21.0827   -8.8756   19.8954 H   0  0  0  0  0  0
  -22.3684  -10.9664   19.6192 H   0  0  0  0  0  0
  -21.1968   -7.6125   23.9712 H   0  0  0  0  0  0
  -21.1515   -6.0520   25.9093 H   0  0  0  0  0  0
  -22.0578   -2.7584   23.2878 H   0  0  0  0  0  0
  -22.4020  -11.9878   22.4829 H   0  0  0  0  0  0
  -21.1061  -13.1290   22.2629 H   0  0  0  0  0  0
  -24.6670  -15.8441   20.5366 H   0  0  0  0  0  0
  -26.2920  -15.6227   20.1295 H   0  0  0  0  0  0
  -26.7164  -32.5397   23.1092 H   0  0  0  0  0  0
  -25.0133  -33.9749   25.0447 H   0  0  0  0  0  0
  -22.7256  -31.2858   21.3781 H   0  0  0  0  0  0
  -23.3750  -35.9619   23.3324 H   0  0  0  0  0  0
  -24.3580  -36.8919   22.2081 H   0  0  0  0  0  0
  -23.7189  -37.6482   23.6692 H   0  0  0  0  0  0
  -26.1135  -31.5059   20.5955 H   0  0  0  0  0  0
  -26.8514  -30.8142   22.0084 H   0  0  0  0  0  0
  -28.1066  -28.9179   21.2360 H   0  0  0  0  0  0
  -26.0577  -25.9117   18.9394 H   0  0  0  0  0  0
  -24.0109  -27.2858   18.9623 H   0  0  0  0  0  0
  -23.7532  -30.5460   19.3868 H   0  0  0  0  0  0
  -22.7711  -29.1937   19.8689 H   0  0  0  0  0  0
  -25.1280  -36.1962   25.0831 H   0  0  0  0  0  0
  -20.9967  -28.3197   24.1415 H   0  0  0  0  0  0
  -20.5672  -26.2270   23.3598 H   0  0  0  0  0  0
  -21.6629  -26.7398   22.1190 H   0  0  0  0  0  0
  -19.6890  -25.6253   21.1261 H   0  0  0  0  0  0
  -19.6672  -27.3155   20.6761 H   0  0  0  0  0  0
  -17.4193  -26.6705   21.3999 H   0  0  0  0  0  0
  -18.0258  -26.0040   22.8988 H   0  0  0  0  0  0
  -19.7949  -30.7262   24.2221 H   0  0  0  0  0  0
  -17.5023  -31.6272   24.5126 H   0  0  0  0  0  0
  -15.5352  -30.2947   23.7692 H   0  0  0  0  0  0
  -15.8667  -28.0762   22.7144 H   0  0  0  0  0  0
  -24.5726  -30.7243   25.7796 H   0  0  0  0  0  0
  -24.8824  -32.3026   26.4913 H   0  0  0  0  0  0
  -25.7842  -30.8989   27.0269 H   0  0  0  0  0  0
  -26.2913  -29.6848   24.1230 H   0  0  0  0  0  0
  -27.3950  -29.7374   25.4820 H   0  0  0  0  0  0
  -27.8794  -30.4465   23.9573 H   0  0  0  0  0  0
  -27.2532  -33.3777   26.2041 H   0  0  0  0  0  0
  -28.3747  -32.6972   25.0340 H   0  0  0  0  0  0
  -28.0613  -31.8628   26.5495 H   0  0  0  0  0  0
  -28.2570  -38.0105   24.7530 H   0  0  0  0  0  0
  -28.1037  -36.2633   24.6242 H   0  0  0  0  0  0
  -27.2289  -37.1404   25.8868 H   0  0  0  0  0  0
  -20.9403  -29.8781   21.6939 H   0  0  0  0  0  0
  -26.0153  -38.2871   24.1397 H   0  0  0  0  0  0
  -31.7908  -23.0951   22.8252 H   0  0  0  0  0  0
  -29.9659  -22.9700   22.9656 H   0  0  0  0  0  0
  -30.1869  -20.7215   24.0464 H   0  0  0  0  0  0
  -32.0184  -20.8316   23.9103 H   0  0  0  0  0  0
  -31.8598  -18.2824   21.4142 H   0  0  0  0  0  0
  -30.7100  -18.7255   22.6037 H   0  0  0  0  0  0
  -28.1233  -18.2049   21.0262 H   0  0  0  0  0  0
  -28.2494  -18.6906   19.3737 H   0  0  0  0  0  0
  -29.4877  -16.7972   22.5868 H   0  0  0  0  0  0
  -31.1332  -16.2828   22.5141 H   0  0  0  0  0  0
  -29.7997  -16.7385   18.8637 H   0  0  0  0  0  0
  -28.2937  -16.2252   19.5364 H   0  0  0  0  0  0
  -31.8890  -21.0422   21.4603 H   0  0  0  0  0  0
  -27.1987  -21.7734   22.8897 H   0  0  0  0  0  0
  -26.9087  -20.8147   21.4263 H   0  0  0  0  0  0
  -25.9221  -22.1958   21.7401 H   0  0  0  0  0  0
  -31.8208  -22.0673   19.4854 H   0  0  0  0  0  0
  -31.4723  -23.0488   18.1040 H   0  0  0  0  0  0
  -30.6814  -21.5350   18.2183 H   0  0  0  0  0  0
  -26.3671  -24.1690   22.7334 H   0  0  0  0  0  0
  -25.6170  -24.7578   21.2478 H   0  0  0  0  0  0
  -26.7957  -25.7319   22.1409 H   0  0  0  0  0  0
  -31.3801  -25.2764   18.8786 H   0  0  0  0  0  0
  -29.9896  -26.2452   18.4317 H   0  0  0  0  0  0
  -30.3580  -24.8268   17.5008 H   0  0  0  0  0  0
  -29.0111  -20.4662   21.9751 H   0  0  0  0  0  0
  -31.0726  -18.4211   18.9794 H   0  0  0  0  0  0
  -31.7388  -19.7578   19.6135 H   0  0  0  0  0  0
  -30.3946  -19.8736   18.6865 H   0  0  0  0  0  0
  1 25  1  0  0  0
  1 30  2  0  0  0
  1 90  1  0  0  0
  2  3  1  0  0  0
  2 25  1  0  0  0
  2 92  1  0  0  0
  2 93  1  0  0  0
  3  4  1  0  0  0
  3 94  1  0  0  0
  3 95  1  0  0  0
  4  5  1  0  0  0
  4 96  1  0  0  0
  4 97  1  0  0  0
  5  6  1  0  0  0
  5 26  1  0  0  0
  5 98  1  0  0  0
  6 25  1  0  0  0
  6 99  1  0  0  0
  6100  1  0  0  0
  7  8  2  0  0  0
  7 26  1  0  0  0
  7 29  1  0  0  0
  8  9  1  0  0  0
  8 22  1  0  0  0
  9 10  1  0  0  0
  9 27  2  0  0  0
 10 11  2  0  0  0
 10 15  1  0  0  0
 11 12  1  0  0  0
 11101  1  0  0  0
 12 13  2  0  0  0
 12102  1  0  0  0
 13 14  1  0  0  0
 13 31  1  0  0  0
 14 15  2  0  0  0
 14103  1  0  0  0
 15104  1  0  0  0
 16 17  2  0  0  0
 16 21  1  0  0  0
 16 31  1  0  0  0
 17 18  1  0  0  0
 17105  1  0  0  0
 18 19  2  0  0  0
 18106  1  0  0  0
 19 20  1  0  0  0
 19 24  1  0  0  0
 20 21  2  0  0  0
 20107  1  0  0  0
 21 23  1  0  0  0
 22 28  1  0  0  0
 22 32  2  0  0  0
 26 27  1  0  0  0
 28108  1  0  0  0
 28109  1  0  0  0
 29110  1  0  0  0
 29111  1  0  0  0
 33 34  1  0  0  0
 33 66  1  0  0  0
 33 70  2  0  0  0
 34 36  1  0  0  0
 34 59  1  0  0  0
 34112  1  0  0  0
 35 44  2  0  0  0
 35 45  1  0  0  0
 35 68  1  0  0  0
 36 56  1  0  0  0
 36113  1  0  0  0
 37 39  1  0  0  0
 37 47  1  0  0  0
 37 66  1  0  0  0
 37114  1  0  0  0
 38 43  2  0  0  0
 38 46  1  0  0  0
 38 47  1  0  0  0
 39 64  1  0  0  0
 39 67  2  0  0  0
 40 52  1  0  0  0
 40 53  2  0  0  0
 40 58  1  0  0  0
 41115  1  0  0  0
 41116  1  0  0  0
 41117  1  0  0  0
 41 48  1  0  0  0
 42 43  1  0  0  0
 42 66  1  0  0  0
 42118  1  0  0  0
 42119  1  0  0  0
 43 44  1  0  0  0
 44120  1  0  0  0
 45 46  2  0  0  0
 45121  1  0  0  0
 46122  1  0  0  0
 47123  1  0  0  0
 47124  1  0  0  0
 48 56  1  0  0  0
 48 65  1  0  0  0
 48125  1  0  0  0
 49 50  1  0  0  0
 49 53  1  0  0  0
 49 64  1  0  0  0
 49126  1  0  0  0
 50 51  1  0  0  0
 50127  1  0  0  0
 50128  1  0  0  0
 51 52  1  0  0  0
 51129  1  0  0  0
 51130  1  0  0  0
 52131  1  0  0  0
 52132  1  0  0  0
 53 54  1  0  0  0
 54 55  2  0  0  0
 54133  1  0  0  0
 55 57  1  0  0  0
 55134  1  0  0  0
 56 69  2  0  0  0
 57 58  2  0  0  0
 57135  1  0  0  0
 58136  1  0  0  0
 59 60  1  0  0  0
 59 61  1  0  0  0
 59 62  1  0  0  0
 60137  1  0  0  0
 60138  1  0  0  0
 60139  1  0  0  0
 61140  1  0  0  0
 61141  1  0  0  0
 61142  1  0  0  0
 62143  1  0  0  0
 62144  1  0  0  0
 62145  1  0  0  0
 63 65  1  0  0  0
 63146  1  0  0  0
 63147  1  0  0  0
 63148  1  0  0  0
 64149  1  0  0  0
 65150  1  0  0  0
 68 76  1  0  0  0
 71 73  2  0  0  0
 71 74  1  0  0  0
 71 85  1  0  0  0
 72 73  1  0  0  0
 72 75  2  0  0  0
 72 86  1  0  0  0
 73 89  1  0  0  0
 74 76  2  0  0  0
 74 87  1  0  0  0
 75 76  1  0  0  0
 75 88  1  0  0  0
 77 78  1  0  0  0
 77151  1  0  0  0
 77152  1  0  0  0
 77 83  1  0  0  0
 78 83  1  0  0  0
 78153  1  0  0  0
 78154  1  0  0  0
 79 81  1  0  0  0
 79 84  1  0  0  0
 79155  1  0  0  0
 79156  1  0  0  0
 80 82  1  0  0  0
 80 84  1  0  0  0
 80157  1  0  0  0
 80158  1  0  0  0
 81 90  1  0  0  0
 81159  1  0  0  0
 81160  1  0  0  0
 82 90  1  0  0  0
 82161  1  0  0  0
 82162  1  0  0  0
 83 89  1  0  0  0
 83163  1  0  0  0
 84 89  1  0  0  0
 84 91  1  0  0  0
 85164  1  0  0  0
 85165  1  0  0  0
 85166  1  0  0  0
 86167  1  0  0  0
 86168  1  0  0  0
 86169  1  0  0  0
 87170  1  0  0  0
 87171  1  0  0  0
 87172  1  0  0  0
 88173  1  0  0  0
 88174  1  0  0  0
 88175  1  0  0  0
 89176  1  0  0  0
 91177  1  0  0  0
 91178  1  0  0  0
 91179  1  0  0  0
M  CHG  1  91   1
M  ISO  4   1 100  68 101  76 101  90 100
M  END
> <chiral flag>
0

> <version>
0

> <s_m_source_file>
/data/baiqing/PycharmProjects/Reinvent-master-3.2/result/LINK_invent/BTK/process_docking_weight1_custom_sum_contain_oxygen_bond_distance_aromatic_linkinvent_7_9_3/rearranged_h_0163.sdf

> <i_m_source_file_index>
42

> <r_mmod_Potential_Energy-OPLS-2005>
396.273773193359

> <r_mmod_Stretch_Energy-OPLS-2005>
154.670318603516

> <r_mmod_Bend_Energy-OPLS-2005>
240.326644897461

> <r_mmod_Torsional_Energy-OPLS-2005>
454.212280273438

> <r_mmod_Improper_Torsional_Energy-OPLS-2005>
8.96434593200684

> <r_mmod_Van_der_Waal_Energy-OPLS-2005>
164.554580688477

> <r_mmod_Electrostatic_Energy-OPLS-2005>
-254.591567993164

> <r_mmod_Solvation_Energy-OPLS-2005>
-449.142822265625

> <b_mmod_Minimization_Converged-OPLS-2005>
0

> <r_mmod_RMS_Derivative-OPLS-2005>
3.36360454559326

$$$$
42
                    3D
 Structure written by MMmdl.
158166  0  0  1  0            999 V2000
  -30.5470  -14.8556   20.3834 C   0  0  0  0  0  0
  -30.4274  -12.5051   19.4949 C   0  0  0  0  0  0
  -29.5240  -12.5065   18.2411 C   0  0  0  0  0  0
  -28.0496  -12.3166   18.6543 C   0  0  0  0  0  0
  -27.6357  -13.2340   19.8403 C   0  0  2  0  0  0
  -28.6773  -13.2139   20.9788 C   0  0  0  0  0  0
  -25.2512  -13.8164   20.5725 C   0  0  0  0  0  0
  -24.1810  -13.0403   20.9210 C   0  0  0  0  0  0
  -24.6379  -11.6883   20.8699 C   0  0  0  0  0  0
  -23.9046  -10.4272   21.0360 C   0  0  0  0  0  0
  -24.3598   -9.4214   21.9154 C   0  0  0  0  0  0
  -23.6289   -8.2247   22.0758 C   0  0  0  0  0  0
  -22.4276   -8.0258   21.3546 C   0  0  0  0  0  0
  -21.9884   -9.0228   20.4649 C   0  0  0  0  0  0
  -22.7198  -10.2108   20.3027 C   0  0  0  0  0  0
  -21.6870   -6.0712   22.5277 C   0  0  0  0  0  0
  -21.4015   -6.5621   23.8199 C   0  0  0  0  0  0
  -21.3682   -5.6783   24.9170 C   0  0  0  0  0  0
  -21.6050   -4.3045   24.7226 C   0  0  0  0  0  0
  -21.8822   -3.8115   23.4356 C   0  0  0  0  0  0
  -21.9195   -4.6934   22.3409 C   0  0  0  0  0  0
  -22.7829  -13.5214   21.1865 C   0  0  0  0  0  0
  -22.1676   -4.2115   21.0987 F   0  0  0  0  0  0
  -21.5641   -3.4533   25.7750 F   0  0  0  0  0  0
  -29.9585  -13.6010   20.3863 N   0  0  0  0  0  0
  -26.2911  -12.9362   20.3210 N   0  0  0  0  0  0
  -25.9292  -11.6499   20.5645 N   0  0  0  0  0  0
  -22.0463  -12.8223   22.0404 N   0  0  0  0  0  0
  -25.4121  -15.1898   20.4197 N   0  0  0  0  0  0
  -31.7448  -14.9297   20.0977 O   0  0  0  0  0  0
  -21.6649   -6.8852   21.4229 O   0  0  0  0  0  0
  -22.3549  -14.5554   20.6736 O   0  0  0  0  0  0
  -24.6414  -31.8490   23.1925 C   0  0  0  0  0  0
  -25.9223  -32.4701   23.8278 C   0  0  1  0  0  0
  -27.1992  -27.1734   20.1139 C   0  0  0  0  0  0
  -25.5992  -33.8501   24.2201 N   0  0  0  0  0  0
  -23.4383  -30.4763   21.5371 C   0  0  2  0  0  0
  -24.8779  -28.9079   20.1132 C   0  0  0  0  0  0
  -22.7552  -29.4614   22.4843 C   0  0  0  0  0  0
  -18.0334  -28.1453   22.8478 C   0  0  0  0  0  0
  -24.1502  -36.7258   23.2631 C   0  0  0  0  0  0
  -25.9955  -30.7289   21.3867 C   0  0  0  0  0  0
  -26.0616  -29.3474   20.7215 C   0  0  0  0  0  0
  -27.2268  -28.4986   20.7014 C   0  0  0  0  0  0
  -25.9884  -26.8306   19.4744 C   0  0  0  0  0  0
  -24.8531  -27.6594   19.4790 C   0  0  0  0  0  0
  -23.6599  -29.8126   20.1554 C   0  0  0  0  0  0
  -25.4133  -36.3012   24.0296 C   0  0  1  0  0  0
  -20.5941  -28.3766   23.1220 C   0  0  2  0  0  0
  -20.6822  -26.9472   22.5382 C   0  0  0  0  0  0
  -19.5799  -26.6424   21.5204 C   0  0  0  0  0  0
  -18.1985  -26.7976   22.1613 C   0  0  0  0  0  0
  -19.1582  -28.8931   23.2846 C   0  0  0  0  0  0
  -18.9481  -30.1520   23.8873 C   0  0  0  0  0  0
  -17.6475  -30.6621   24.0594 C   0  0  0  0  0  0
  -25.9087  -34.9396   23.5047 C   0  0  0  0  0  0
  -16.5374  -29.9113   23.6365 C   0  0  0  0  0  0
  -16.7306  -28.6552   23.0340 C   0  0  0  0  0  0
  -26.4546  -31.6562   25.0724 C   0  0  0  0  0  0
  -25.3723  -31.3771   26.1424 C   0  0  0  0  0  0
  -27.0404  -30.2947   24.6300 C   0  0  0  0  0  0
  -27.6081  -32.4315   25.7509 C   0  0  0  0  0  0
  -27.5580  -37.1787   24.8448 C   0  0  0  0  0  0
  -21.4255  -29.3083   22.3571 N   0  0  0  0  0  0
  -26.4283  -37.3740   23.9401 N   0  0  0  0  0  0
  -24.7116  -31.0384   22.0931 N   0  0  0  0  0  0
  -23.4220  -28.8148   23.2971 O   0  0  0  0  0  0
  -28.2658  -26.2159   20.1294 O   0  0  0  0  0  0
  -26.5637  -34.8873   22.4610 O   0  0  0  0  0  0
  -23.5561  -32.1342   23.7190 O   0  0  0  0  0  0
  -29.7973  -19.7364   21.2070 C   0  0  0  0  0  0
  -29.5759  -21.1788   21.2449 C   0  0  0  0  0  0
  -29.4663  -18.9342   20.0645 C   0  0  0  0  0  0
  -29.0149  -21.8994   20.1370 C   0  0  0  0  0  0
  -28.8088  -19.7335   19.0569 C   0  0  0  0  0  0
  -30.4874  -19.0612   22.3832 C   0  0  0  0  0  0
  -30.0076  -21.9631   22.4835 C   0  0  0  0  0  0
  -28.2994  -19.1108   17.7660 C   0  0  0  0  0  0
  -30.0512  -17.4103   19.7809 C   0  0  0  0  0  0
  -29.1278  -23.5236   19.9107 C   0  0  0  0  0  0
  -27.9874  -24.6921   20.1704 C   0  0  0  0  0  0
  -28.6127  -21.1081   19.0977 N   0  0  0  0  0  0
  -29.7507  -16.0256   20.4389 N   0  0  0  0  0  0
  -31.4769  -12.6141   19.2180 H   0  0  0  0  0  0
  -30.3561  -11.5415   20.0046 H   0  0  0  0  0  0
  -29.8290  -11.7099   17.5582 H   0  0  0  0  0  0
  -29.6409  -13.4403   17.6901 H   0  0  0  0  0  0
  -27.9320  -11.2720   18.9450 H   0  0  0  0  0  0
  -27.3908  -12.4689   17.8006 H   0  0  0  0  0  0
  -27.6167  -14.2457   19.4374 H   0  0  0  0  0  0
  -28.7424  -12.2222   21.4332 H   0  0  0  0  0  0
  -28.3997  -13.9001   21.7781 H   0  0  0  0  0  0
  -25.2744   -9.5736   22.4712 H   0  0  0  0  0  0
  -24.0025   -7.4653   22.7490 H   0  0  0  0  0  0
  -21.0819   -8.8706   19.8961 H   0  0  0  0  0  0
  -22.3622  -10.9633   19.6136 H   0  0  0  0  0  0
  -21.1984   -7.6116   23.9703 H   0  0  0  0  0  0
  -21.1530   -6.0507   25.9091 H   0  0  0  0  0  0
  -22.0571   -2.7571   23.2857 H   0  0  0  0  0  0
  -22.4097  -11.9937   22.4865 H   0  0  0  0  0  0
  -21.1067  -13.1241   22.2559 H   0  0  0  0  0  0
  -24.6272  -15.8210   20.5421 H   0  0  0  0  0  0
  -26.2418  -15.6498   20.0669 H   0  0  0  0  0  0
  -26.7277  -32.5289   23.0996 H   0  0  0  0  0  0
  -25.0144  -33.9599   25.0340 H   0  0  0  0  0  0
  -22.7406  -31.3039   21.3897 H   0  0  0  0  0  0
  -23.3736  -35.9616   23.3269 H   0  0  0  0  0  0
  -24.3591  -36.8930   22.2050 H   0  0  0  0  0  0
  -23.7286  -37.6453   23.6695 H   0  0  0  0  0  0
  -26.1554  -31.4846   20.6161 H   0  0  0  0  0  0
  -26.8669  -30.7705   22.0286 H   0  0  0  0  0  0
  -28.1375  -28.8347   21.1770 H   0  0  0  0  0  0
  -25.8715  -25.8974   18.9501 H   0  0  0  0  0  0
  -23.9525  -27.3124   18.9902 H   0  0  0  0  0  0
  -23.7994  -30.5866   19.4011 H   0  0  0  0  0  0
  -22.7717  -29.2610   19.8411 H   0  0  0  0  0  0
  -25.1329  -36.1828   25.0783 H   0  0  0  0  0  0
  -21.0069  -28.3373   24.1321 H   0  0  0  0  0  0
  -20.5744  -26.2389   23.3593 H   0  0  0  0  0  0
  -21.6696  -26.7507   22.1173 H   0  0  0  0  0  0
  -19.6939  -25.6315   21.1285 H   0  0  0  0  0  0
  -19.6733  -27.3197   20.6700 H   0  0  0  0  0  0
  -17.4243  -26.6733   21.4015 H   0  0  0  0  0  0
  -18.0379  -26.0123   22.9013 H   0  0  0  0  0  0
  -19.7949  -30.7399   24.2188 H   0  0  0  0  0  0
  -17.5014  -31.6279   24.5236 H   0  0  0  0  0  0
  -15.5375  -30.3008   23.7711 H   0  0  0  0  0  0
  -15.8707  -28.0895   22.7017 H   0  0  0  0  0  0
  -24.5909  -30.7106   25.7774 H   0  0  0  0  0  0
  -24.8896  -32.2955   26.4762 H   0  0  0  0  0  0
  -25.8011  -30.9022   27.0254 H   0  0  0  0  0  0
  -26.3019  -29.6667   24.1319 H   0  0  0  0  0  0
  -27.4014  -29.7274   25.4891 H   0  0  0  0  0  0
  -27.8938  -30.4177   23.9632 H   0  0  0  0  0  0
  -27.2693  -33.3639   26.2022 H   0  0  0  0  0  0
  -28.3939  -32.6833   25.0380 H   0  0  0  0  0  0
  -28.0680  -31.8468   26.5472 H   0  0  0  0  0  0
  -28.2580  -38.0104   24.7509 H   0  0  0  0  0  0
  -28.1099  -36.2630   24.6265 H   0  0  0  0  0  0
  -27.2288  -37.1431   25.8847 H   0  0  0  0  0  0
  -20.9441  -29.8760   21.6732 H   0  0  0  0  0  0
  -26.0126  -38.2798   24.1416 H   0  0  0  0  0  0
  -30.0296  -19.3518   23.3280 H   0  0  0  0  0  0
  -31.5389  -19.3433   22.4152 H   0  0  0  0  0  0
  -30.4276  -17.9735   22.3302 H   0  0  0  0  0  0
  -31.0638  -21.8044   22.7056 H   0  0  0  0  0  0
  -29.4271  -21.6473   23.3494 H   0  0  0  0  0  0
  -29.8529  -23.0383   22.3999 H   0  0  0  0  0  0
  -29.1108  -18.6856   17.1773 H   0  0  0  0  0  0
  -27.7905  -19.8433   17.1369 H   0  0  0  0  0  0
  -27.5827  -18.3221   17.9880 H   0  0  0  0  0  0
  -29.8770  -17.2188   18.7237 H   0  0  0  0  0  0
  -31.1354  -17.5242   19.8339 H   0  0  0  0  0  0
  -29.3920  -23.6145   18.8555 H   0  0  0  0  0  0
  -30.0381  -23.8550   20.4067 H   0  0  0  0  0  0
  -27.5440  -24.5016   21.1478 H   0  0  0  0  0  0
  -27.2103  -24.4466   19.4519 H   0  0  0  0  0  0
  -28.7858  -15.8618   20.6850 H   0  0  0  0  0  0
  1 25  1  0  0  0
  1 30  2  0  0  0
  1 83  1  0  0  0
  2  3  1  0  0  0
  2 25  1  0  0  0
  2 84  1  0  0  0
  2 85  1  0  0  0
  3  4  1  0  0  0
  3 86  1  0  0  0
  3 87  1  0  0  0
  4  5  1  0  0  0
  4 88  1  0  0  0
  4 89  1  0  0  0
  5  6  1  0  0  0
  5 26  1  0  0  0
  5 90  1  0  0  0
  6 25  1  0  0  0
  6 91  1  0  0  0
  6 92  1  0  0  0
  7  8  2  0  0  0
  7 26  1  0  0  0
  7 29  1  0  0  0
  8  9  1  0  0  0
  8 22  1  0  0  0
  9 10  1  0  0  0
  9 27  2  0  0  0
 10 11  2  0  0  0
 10 15  1  0  0  0
 11 12  1  0  0  0
 11 93  1  0  0  0
 12 13  2  0  0  0
 12 94  1  0  0  0
 13 14  1  0  0  0
 13 31  1  0  0  0
 14 15  2  0  0  0
 14 95  1  0  0  0
 15 96  1  0  0  0
 16 17  2  0  0  0
 16 21  1  0  0  0
 16 31  1  0  0  0
 17 18  1  0  0  0
 17 97  1  0  0  0
 18 19  2  0  0  0
 18 98  1  0  0  0
 19 20  1  0  0  0
 19 24  1  0  0  0
 20 21  2  0  0  0
 20 99  1  0  0  0
 21 23  1  0  0  0
 22 28  1  0  0  0
 22 32  2  0  0  0
 26 27  1  0  0  0
 28100  1  0  0  0
 28101  1  0  0  0
 29102  1  0  0  0
 29103  1  0  0  0
 33 34  1  0  0  0
 33 66  1  0  0  0
 33 70  2  0  0  0
 34 36  1  0  0  0
 34 59  1  0  0  0
 34104  1  0  0  0
 35 44  2  0  0  0
 35 45  1  0  0  0
 35 68  1  0  0  0
 36 56  1  0  0  0
 36105  1  0  0  0
 37 39  1  0  0  0
 37 47  1  0  0  0
 37 66  1  0  0  0
 37106  1  0  0  0
 38 43  2  0  0  0
 38 46  1  0  0  0
 38 47  1  0  0  0
 39 64  1  0  0  0
 39 67  2  0  0  0
 40 52  1  0  0  0
 40 53  2  0  0  0
 40 58  1  0  0  0
 41107  1  0  0  0
 41108  1  0  0  0
 41109  1  0  0  0
 41 48  1  0  0  0
 42 43  1  0  0  0
 42 66  1  0  0  0
 42110  1  0  0  0
 42111  1  0  0  0
 43 44  1  0  0  0
 44112  1  0  0  0
 45 46  2  0  0  0
 45113  1  0  0  0
 46114  1  0  0  0
 47115  1  0  0  0
 47116  1  0  0  0
 48 56  1  0  0  0
 48 65  1  0  0  0
 48117  1  0  0  0
 49 50  1  0  0  0
 49 53  1  0  0  0
 49 64  1  0  0  0
 49118  1  0  0  0
 50 51  1  0  0  0
 50119  1  0  0  0
 50120  1  0  0  0
 51 52  1  0  0  0
 51121  1  0  0  0
 51122  1  0  0  0
 52123  1  0  0  0
 52124  1  0  0  0
 53 54  1  0  0  0
 54 55  2  0  0  0
 54125  1  0  0  0
 55 57  1  0  0  0
 55126  1  0  0  0
 56 69  2  0  0  0
 57 58  2  0  0  0
 57127  1  0  0  0
 58128  1  0  0  0
 59 60  1  0  0  0
 59 61  1  0  0  0
 59 62  1  0  0  0
 60129  1  0  0  0
 60130  1  0  0  0
 60131  1  0  0  0
 61132  1  0  0  0
 61133  1  0  0  0
 61134  1  0  0  0
 62135  1  0  0  0
 62136  1  0  0  0
 62137  1  0  0  0
 63 65  1  0  0  0
 63138  1  0  0  0
 63139  1  0  0  0
 63140  1  0  0  0
 64141  1  0  0  0
 65142  1  0  0  0
 68 81  1  0  0  0
 71 72  2  0  0  0
 71 73  1  0  0  0
 71 76  1  0  0  0
 72 74  1  0  0  0
 72 77  1  0  0  0
 73 75  2  0  0  0
 73 79  1  0  0  0
 74 80  1  0  0  0
 74 82  2  0  0  0
 75 78  1  0  0  0
 75 82  1  0  0  0
 76143  1  0  0  0
 76144  1  0  0  0
 76145  1  0  0  0
 77146  1  0  0  0
 77147  1  0  0  0
 77148  1  0  0  0
 78149  1  0  0  0
 78150  1  0  0  0
 78151  1  0  0  0
 79 83  1  0  0  0
 79152  1  0  0  0
 79153  1  0  0  0
 80 81  1  0  0  0
 80154  1  0  0  0
 80155  1  0  0  0
 81156  1  0  0  0
 81157  1  0  0  0
 83158  1  0  0  0
M  ISO  4   1 100  68 101  81 101  83 100
M  END
> <chiral flag>
0

> <version>
0

> <s_m_source_file>
/data/baiqing/PycharmProjects/Reinvent-master-3.2/result/LINK_invent/BTK/process_docking_weight1_custom_sum_contain_oxygen_bond_distance_aromatic_linkinvent_7_9_3/rearranged_h_0163.sdf

> <i_m_source_file_index>
43

> <r_mmod_Potential_Energy-OPLS-2005>
239.793716430664

> <r_mmod_Stretch_Energy-OPLS-2005>
204.76953125

> <r_mmod_Bend_Energy-OPLS-2005>
241.377548217773

> <r_mmod_Torsional_Energy-OPLS-2005>
230.316223144531

> <r_mmod_Improper_Torsional_Energy-OPLS-2005>
11.1692323684692

> <r_mmod_Van_der_Waal_Energy-OPLS-2005>
144.910797119141

> <r_mmod_Electrostatic_Energy-OPLS-2005>
-509.865020751953

> <r_mmod_Solvation_Energy-OPLS-2005>
-227.525207519531

> <b_mmod_Minimization_Converged-OPLS-2005>
0

> <r_mmod_RMS_Derivative-OPLS-2005>
4.59459686279297

$$$$
43
                    3D
 Structure written by MMmdl.
174184  0  0  1  0            999 V2000
  -30.7124  -14.4677   20.5641 C   0  0  0  0  0  0
  -30.4151  -12.3014   19.4290 C   0  0  0  0  0  0
  -29.4950  -12.4976   18.2071 C   0  0  0  0  0  0
  -28.0142  -12.3631   18.6152 C   0  0  0  0  0  0
  -27.6571  -13.2096   19.8673 C   0  0  2  0  0  0
  -28.6955  -13.0054   20.9913 C   0  0  0  0  0  0
  -25.2581  -13.8178   20.5683 C   0  0  0  0  0  0
  -24.1828  -13.0451   20.9174 C   0  0  0  0  0  0
  -24.6387  -11.6916   20.8732 C   0  0  0  0  0  0
  -23.9057  -10.4295   21.0400 C   0  0  0  0  0  0
  -24.3610   -9.4215   21.9186 C   0  0  0  0  0  0
  -23.6289   -8.2249   22.0754 C   0  0  0  0  0  0
  -22.4270   -8.0282   21.3544 C   0  0  0  0  0  0
  -21.9912   -9.0250   20.4637 C   0  0  0  0  0  0
  -22.7239  -10.2131   20.3047 C   0  0  0  0  0  0
  -21.6855   -6.0741   22.5283 C   0  0  0  0  0  0
  -21.4005   -6.5643   23.8214 C   0  0  0  0  0  0
  -21.3655   -5.6795   24.9175 C   0  0  0  0  0  0
  -21.6043   -4.3057   24.7226 C   0  0  0  0  0  0
  -21.8820   -3.8154   23.4346 C   0  0  0  0  0  0
  -21.9188   -4.6971   22.3405 C   0  0  0  0  0  0
  -22.7850  -13.5246   21.1850 C   0  0  0  0  0  0
  -22.1661   -4.2157   21.0986 F   0  0  0  0  0  0
  -21.5633   -3.4538   25.7743 F   0  0  0  0  0  0
  -30.0246  -13.3007   20.4362 N   0  0  0  0  0  0
  -26.3002  -12.9341   20.3328 N   0  0  0  0  0  0
  -25.9310  -11.6500   20.5743 N   0  0  0  0  0  0
  -22.0480  -12.8216   22.0388 N   0  0  0  0  0  0
  -25.4324  -15.1893   20.4117 N   0  0  0  0  0  0
  -31.8608  -14.6044   20.1256 O   0  0  0  0  0  0
  -21.6636   -6.8880   21.4243 O   0  0  0  0  0  0
  -22.3541  -14.5560   20.6719 O   0  0  0  0  0  0
  -24.6148  -31.8677   23.2122 C   0  0  0  0  0  0
  -25.9046  -32.4828   23.8409 C   0  0  1  0  0  0
  -27.2246  -27.4316   20.1055 C   0  0  0  0  0  0
  -25.5910  -33.8630   24.2344 N   0  0  0  0  0  0
  -23.4033  -30.4903   21.5514 C   0  0  2  0  0  0
  -24.8521  -28.9608   20.1113 C   0  0  0  0  0  0
  -22.7417  -29.4642   22.4991 C   0  0  0  0  0  0
  -18.0264  -28.1364   22.8485 C   0  0  0  0  0  0
  -24.1473  -36.7293   23.2639 C   0  0  0  0  0  0
  -25.9311  -30.8322   21.3669 C   0  0  0  0  0  0
  -26.0092  -29.4632   20.7222 C   0  0  0  0  0  0
  -27.2009  -28.7008   20.7268 C   0  0  0  0  0  0
  -26.0699  -26.9646   19.4516 C   0  0  0  0  0  0
  -24.8771  -27.7095   19.4733 C   0  0  0  0  0  0
  -23.6123  -29.8256   20.1644 C   0  0  0  0  0  0
  -25.4096  -36.3124   24.0345 C   0  0  1  0  0  0
  -20.5858  -28.3645   23.1314 C   0  0  2  0  0  0
  -20.6758  -26.9380   22.5400 C   0  0  0  0  0  0
  -19.5739  -26.6372   21.5199 C   0  0  0  0  0  0
  -18.1915  -26.7913   22.1612 C   0  0  0  0  0  0
  -19.1518  -28.8824   23.2895 C   0  0  0  0  0  0
  -18.9460  -30.1435   23.8901 C   0  0  0  0  0  0
  -17.6464  -30.6573   24.0564 C   0  0  0  0  0  0
  -25.9029  -34.9485   23.5138 C   0  0  0  0  0  0
  -16.5349  -29.9073   23.6339 C   0  0  0  0  0  0
  -16.7256  -28.6492   23.0350 C   0  0  0  0  0  0
  -26.4482  -31.6599   25.0725 C   0  0  0  0  0  0
  -25.3745  -31.3650   26.1461 C   0  0  0  0  0  0
  -27.0349  -30.3073   24.6060 C   0  0  0  0  0  0
  -27.6056  -32.4318   25.7499 C   0  0  0  0  0  0
  -27.5571  -37.1806   24.8474 C   0  0  0  0  0  0
  -21.4140  -29.3028   22.3738 N   0  0  0  0  0  0
  -26.4285  -37.3808   23.9418 N   0  0  0  0  0  0
  -24.6677  -31.0774   22.1031 N   0  0  0  0  0  0
  -23.4187  -28.8178   23.3032 O   0  0  0  0  0  0
  -28.3549  -26.6504   20.0911 O   0  0  0  0  0  0
  -26.5574  -34.8938   22.4688 O   0  0  0  0  0  0
  -23.5344  -32.1432   23.7517 O   0  0  0  0  0  0
  -27.8466  -21.8824   21.3584 C   0  0  0  0  0  0
  -28.7671  -23.3296   23.0515 C   0  0  0  0  0  0
  -28.0882  -23.1956   21.8290 C   0  0  0  0  0  0
  -28.2270  -20.7678   22.1502 C   0  0  0  0  0  0
  -28.8874  -21.0298   23.3701 C   0  0  0  0  0  0
  -24.9188  -24.1645   20.9055 C   0  0  0  0  0  0
  -25.2064  -23.7642   22.3246 C   0  0  0  0  0  0
  -28.9959  -17.7661   20.1105 C   0  0  0  0  0  0
  -28.7533  -17.0499   22.4722 C   0  0  0  0  0  0
  -30.1200  -16.7237   19.9481 C   0  0  0  0  0  0
  -29.8777  -16.0057   22.2631 C   0  0  0  0  0  0
  -26.1236  -24.7512   21.6168 C   0  0  0  0  0  0
  -28.9199  -18.2863   21.5552 C   0  0  0  0  0  0
  -29.4285  -20.2388   25.6446 C   0  0  0  0  0  0
  -27.7917  -19.3473   21.7409 C   0  0  0  0  0  0
  -28.4768  -25.6834   21.1538 C   0  0  0  0  0  0
  -27.5334  -24.4309   21.0958 C   0  0  1  0  0  0
  -29.1686  -22.2779   23.7922 N   0  0  0  0  0  0
  -29.9731  -15.5701   20.8595 N   0  0  0  0  0  0
  -29.2550  -19.9845   24.2203 N   0  0  0  0  0  0
  -31.4625  -12.3852   19.1331 H   0  0  0  0  0  0
  -30.3032  -11.2958   19.8372 H   0  0  0  0  0  0
  -29.7364  -11.7671   17.4345 H   0  0  0  0  0  0
  -29.6680  -13.4793   17.7642 H   0  0  0  0  0  0
  -27.8220  -11.3082   18.8154 H   0  0  0  0  0  0
  -27.3679  -12.6350   17.7790 H   0  0  0  0  0  0
  -27.6958  -14.2556   19.5625 H   0  0  0  0  0  0
  -28.6695  -11.9772   21.3555 H   0  0  0  0  0  0
  -28.4522  -13.6299   21.8495 H   0  0  0  0  0  0
  -25.2752   -9.5702   22.4762 H   0  0  0  0  0  0
  -24.0002   -7.4644   22.7478 H   0  0  0  0  0  0
  -21.0854   -8.8765   19.8935 H   0  0  0  0  0  0
  -22.3707  -10.9665   19.6150 H   0  0  0  0  0  0
  -21.1989   -7.6146   23.9726 H   0  0  0  0  0  0
  -21.1476   -6.0520   25.9081 H   0  0  0  0  0  0
  -22.0600   -2.7617   23.2850 H   0  0  0  0  0  0
  -22.4073  -11.9855   22.4750 H   0  0  0  0  0  0
  -21.1092  -13.1236   22.2573 H   0  0  0  0  0  0
  -24.6729  -15.8506   20.5280 H   0  0  0  0  0  0
  -26.3005  -15.6254   20.1290 H   0  0  0  0  0  0
  -26.7120  -32.5553   23.1180 H   0  0  0  0  0  0
  -25.0158  -33.9801   25.0561 H   0  0  0  0  0  0
  -22.6929  -31.3083   21.4133 H   0  0  0  0  0  0
  -23.3769  -35.9596   23.3315 H   0  0  0  0  0  0
  -24.3573  -36.8898   22.2055 H   0  0  0  0  0  0
  -23.7193  -37.6484   23.6642 H   0  0  0  0  0  0
  -26.0338  -31.5925   20.5909 H   0  0  0  0  0  0
  -26.8243  -30.8961   21.9772 H   0  0  0  0  0  0
  -28.0940  -29.0754   21.2069 H   0  0  0  0  0  0
  -26.0872  -26.0080   18.9483 H   0  0  0  0  0  0
  -23.9932  -27.3213   18.9875 H   0  0  0  0  0  0
  -23.7128  -30.6022   19.4056 H   0  0  0  0  0  0
  -22.7379  -29.2424   19.8700 H   0  0  0  0  0  0
  -25.1274  -36.1998   25.0838 H   0  0  0  0  0  0
  -20.9943  -28.3202   24.1438 H   0  0  0  0  0  0
  -20.5678  -26.2241   23.3577 H   0  0  0  0  0  0
  -21.6627  -26.7427   22.1182 H   0  0  0  0  0  0
  -19.6903  -25.6292   21.1212 H   0  0  0  0  0  0
  -19.6695  -27.3201   20.6748 H   0  0  0  0  0  0
  -17.4185  -26.6688   21.4006 H   0  0  0  0  0  0
  -18.0304  -26.0030   22.8980 H   0  0  0  0  0  0
  -19.7942  -30.7236   24.2279 H   0  0  0  0  0  0
  -17.5023  -31.6269   24.5138 H   0  0  0  0  0  0
  -15.5355  -30.2980   23.7663 H   0  0  0  0  0  0
  -15.8649  -28.0817   22.7069 H   0  0  0  0  0  0
  -24.5962  -30.6951   25.7782 H   0  0  0  0  0  0
  -24.8874  -32.2772   26.4915 H   0  0  0  0  0  0
  -25.8095  -30.8827   27.0223 H   0  0  0  0  0  0
  -26.2896  -29.6800   24.1147 H   0  0  0  0  0  0
  -27.4228  -29.7320   25.4477 H   0  0  0  0  0  0
  -27.8664  -30.4470   23.9146 H   0  0  0  0  0  0
  -27.2699  -33.3643   26.2041 H   0  0  0  0  0  0
  -28.3883  -32.6818   25.0329 H   0  0  0  0  0  0
  -28.0682  -31.8443   26.5445 H   0  0  0  0  0  0
  -28.2574  -38.0113   24.7555 H   0  0  0  0  0  0
  -28.1082  -36.2650   24.6273 H   0  0  0  0  0  0
  -27.2283  -37.1418   25.8873 H   0  0  0  0  0  0
  -20.9298  -29.8770   21.6974 H   0  0  0  0  0  0
  -26.0181  -38.2882   24.1452 H   0  0  0  0  0  0
  -27.3022  -21.7347   20.4360 H   0  0  0  0  0  0
  -28.9632  -24.3017   23.4776 H   0  0  0  0  0  0
  -24.0705  -24.8232   20.7298 H   0  0  0  0  0  0
  -25.0971  -23.4204   20.1324 H   0  0  0  0  0  0
  -25.5346  -22.7412   22.4939 H   0  0  0  0  0  0
  -24.5446  -24.1619   23.0917 H   0  0  0  0  0  0
  -28.0421  -17.3232   19.8199 H   0  0  0  0  0  0
  -29.1679  -18.5969   19.4253 H   0  0  0  0  0  0
  -28.7364  -17.3479   23.5195 H   0  0  0  0  0  0
  -27.7883  -16.5775   22.2823 H   0  0  0  0  0  0
  -31.0889  -17.1990   20.1172 H   0  0  0  0  0  0
  -30.1245  -16.3765   18.9126 H   0  0  0  0  0  0
  -29.7079  -15.1527   22.9221 H   0  0  0  0  0  0
  -30.8370  -16.4283   22.5685 H   0  0  0  0  0  0
  -26.0116  -25.7758   21.9673 H   0  0  0  0  0  0
  -29.8795  -18.7544   21.7837 H   0  0  0  0  0  0
  -29.5439  -19.3003   26.1864 H   0  0  0  0  0  0
  -28.5629  -20.7623   26.0535 H   0  0  0  0  0  0
  -30.3165  -20.8460   25.8254 H   0  0  0  0  0  0
  -27.1933  -19.4126   20.8304 H   0  0  0  0  0  0
  -27.0859  -19.0049   22.5001 H   0  0  0  0  0  0
  -29.5058  -25.3299   21.0771 H   0  0  0  0  0  0
  -28.4099  -26.1805   22.1239 H   0  0  0  0  0  0
  -27.4519  -24.1532   20.0439 H   0  0  0  0  0  0
  -28.9884  -19.0487   23.9381 H   0  0  0  0  0  0
  1 25  1  0  0  0
  1 30  2  0  0  0
  1 89  1  0  0  0
  2  3  1  0  0  0
  2 25  1  0  0  0
  2 91  1  0  0  0
  2 92  1  0  0  0
  3  4  1  0  0  0
  3 93  1  0  0  0
  3 94  1  0  0  0
  4  5  1  0  0  0
  4 95  1  0  0  0
  4 96  1  0  0  0
  5  6  1  0  0  0
  5 26  1  0  0  0
  5 97  1  0  0  0
  6 25  1  0  0  0
  6 98  1  0  0  0
  6 99  1  0  0  0
  7  8  2  0  0  0
  7 26  1  0  0  0
  7 29  1  0  0  0
  8  9  1  0  0  0
  8 22  1  0  0  0
  9 10  1  0  0  0
  9 27  2  0  0  0
 10 11  2  0  0  0
 10 15  1  0  0  0
 11 12  1  0  0  0
 11100  1  0  0  0
 12 13  2  0  0  0
 12101  1  0  0  0
 13 14  1  0  0  0
 13 31  1  0  0  0
 14 15  2  0  0  0
 14102  1  0  0  0
 15103  1  0  0  0
 16 17  2  0  0  0
 16 21  1  0  0  0
 16 31  1  0  0  0
 17 18  1  0  0  0
 17104  1  0  0  0
 18 19  2  0  0  0
 18105  1  0  0  0
 19 20  1  0  0  0
 19 24  1  0  0  0
 20 21  2  0  0  0
 20106  1  0  0  0
 21 23  1  0  0  0
 22 28  1  0  0  0
 22 32  2  0  0  0
 26 27  1  0  0  0
 28107  1  0  0  0
 28108  1  0  0  0
 29109  1  0  0  0
 29110  1  0  0  0
 33 34  1  0  0  0
 33 66  1  0  0  0
 33 70  2  0  0  0
 34 36  1  0  0  0
 34 59  1  0  0  0
 34111  1  0  0  0
 35 44  2  0  0  0
 35 45  1  0  0  0
 35 68  1  0  0  0
 36 56  1  0  0  0
 36112  1  0  0  0
 37 39  1  0  0  0
 37 47  1  0  0  0
 37 66  1  0  0  0
 37113  1  0  0  0
 38 43  2  0  0  0
 38 46  1  0  0  0
 38 47  1  0  0  0
 39 64  1  0  0  0
 39 67  2  0  0  0
 40 52  1  0  0  0
 40 53  2  0  0  0
 40 58  1  0  0  0
 41114  1  0  0  0
 41115  1  0  0  0
 41116  1  0  0  0
 41 48  1  0  0  0
 42 43  1  0  0  0
 42 66  1  0  0  0
 42117  1  0  0  0
 42118  1  0  0  0
 43 44  1  0  0  0
 44119  1  0  0  0
 45 46  2  0  0  0
 45120  1  0  0  0
 46121  1  0  0  0
 47122  1  0  0  0
 47123  1  0  0  0
 48 56  1  0  0  0
 48 65  1  0  0  0
 48124  1  0  0  0
 49 50  1  0  0  0
 49 53  1  0  0  0
 49 64  1  0  0  0
 49125  1  0  0  0
 50 51  1  0  0  0
 50126  1  0  0  0
 50127  1  0  0  0
 51 52  1  0  0  0
 51128  1  0  0  0
 51129  1  0  0  0
 52130  1  0  0  0
 52131  1  0  0  0
 53 54  1  0  0  0
 54 55  2  0  0  0
 54132  1  0  0  0
 55 57  1  0  0  0
 55133  1  0  0  0
 56 69  2  0  0  0
 57 58  2  0  0  0
 57134  1  0  0  0
 58135  1  0  0  0
 59 60  1  0  0  0
 59 61  1  0  0  0
 59 62  1  0  0  0
 60136  1  0  0  0
 60137  1  0  0  0
 60138  1  0  0  0
 61139  1  0  0  0
 61140  1  0  0  0
 61141  1  0  0  0
 62142  1  0  0  0
 62143  1  0  0  0
 62144  1  0  0  0
 63 65  1  0  0  0
 63145  1  0  0  0
 63146  1  0  0  0
 63147  1  0  0  0
 64148  1  0  0  0
 65149  1  0  0  0
 68 86  1  0  0  0
 71 73  2  0  0  0
 71 74  1  0  0  0
 71150  1  0  0  0
 72 73  1  0  0  0
 72 88  2  0  0  0
 72151  1  0  0  0
 73 87  1  0  0  0
 74 75  2  0  0  0
 74 85  1  0  0  0
 75 88  1  0  0  0
 75 90  1  0  0  0
 76 77  1  0  0  0
 76152  1  0  0  0
 76153  1  0  0  0
 76 82  1  0  0  0
 77 82  1  0  0  0
 77154  1  0  0  0
 77155  1  0  0  0
 78 80  1  0  0  0
 78 83  1  0  0  0
 78156  1  0  0  0
 78157  1  0  0  0
 79 81  1  0  0  0
 79 83  1  0  0  0
 79158  1  0  0  0
 79159  1  0  0  0
 80 89  1  0  0  0
 80160  1  0  0  0
 80161  1  0  0  0
 81 89  1  0  0  0
 81162  1  0  0  0
 81163  1  0  0  0
 82 87  1  0  0  0
 82164  1  0  0  0
 83 85  1  0  0  0
 83165  1  0  0  0
 84 90  1  0  0  0
 84166  1  0  0  0
 84167  1  0  0  0
 84168  1  0  0  0
 85169  1  0  0  0
 85170  1  0  0  0
 86171  1  0  0  0
 86172  1  0  0  0
 86 87  1  0  0  0
 87173  1  0  0  0
 90174  1  0  0  0
M  ISO  4   1 100  68 101  86 101  89 100
M  END
> <chiral flag>
0

> <version>
0

> <s_m_source_file>
/data/baiqing/PycharmProjects/Reinvent-master-3.2/result/LINK_invent/BTK/process_docking_weight1_custom_sum_contain_oxygen_bond_distance_aromatic_linkinvent_7_9_3/rearranged_h_0163.sdf

> <i_m_source_file_index>
44

> <r_mmod_Potential_Energy-OPLS-2005>
-3.01336336135864

> <r_mmod_Stretch_Energy-OPLS-2005>
43.1887702941895

> <r_mmod_Bend_Energy-OPLS-2005>
116.478164672852

> <r_mmod_Torsional_Energy-OPLS-2005>
389.585052490234

> <r_mmod_Improper_Torsional_Energy-OPLS-2005>
15.4227228164673

> <r_mmod_Van_der_Waal_Energy-OPLS-2005>
153.754821777344

> <r_mmod_Electrostatic_Energy-OPLS-2005>
-520.43994140625

> <r_mmod_Solvation_Energy-OPLS-2005>
-215.815048217773

> <b_mmod_Minimization_Converged-OPLS-2005>
0

> <r_mmod_RMS_Derivative-OPLS-2005>
1.69857668876648

$$$$
44
                    3D
 Structure written by MMmdl.
167176  0  0  1  0            999 V2000
  -30.6484  -14.5767   20.4926 C   0  0  0  0  0  0
  -30.4252  -12.3501   19.4515 C   0  0  0  0  0  0
  -29.5002  -12.4930   18.2228 C   0  0  0  0  0  0
  -28.0210  -12.3511   18.6328 C   0  0  0  0  0  0
  -27.6524  -13.2176   19.8675 C   0  0  2  0  0  0
  -28.6954  -13.0594   20.9987 C   0  0  0  0  0  0
  -25.2518  -13.8181   20.5690 C   0  0  0  0  0  0
  -24.1793  -13.0436   20.9206 C   0  0  0  0  0  0
  -24.6365  -11.6915   20.8754 C   0  0  0  0  0  0
  -23.9048  -10.4292   21.0415 C   0  0  0  0  0  0
  -24.3597   -9.4206   21.9193 C   0  0  0  0  0  0
  -23.6278   -8.2235   22.0761 C   0  0  0  0  0  0
  -22.4264   -8.0270   21.3542 C   0  0  0  0  0  0
  -21.9890   -9.0250   20.4658 C   0  0  0  0  0  0
  -22.7214  -10.2134   20.3069 C   0  0  0  0  0  0
  -21.6854   -6.0728   22.5282 C   0  0  0  0  0  0
  -21.4016   -6.5636   23.8213 C   0  0  0  0  0  0
  -21.3660   -5.6789   24.9176 C   0  0  0  0  0  0
  -21.6036   -4.3051   24.7230 C   0  0  0  0  0  0
  -21.8817   -3.8139   23.4356 C   0  0  0  0  0  0
  -21.9182   -4.6954   22.3404 C   0  0  0  0  0  0
  -22.7805  -13.5244   21.1836 C   0  0  0  0  0  0
  -22.1647   -4.2134   21.0986 F   0  0  0  0  0  0
  -21.5625   -3.4539   25.7751 F   0  0  0  0  0  0
  -30.0160  -13.3699   20.4351 N   0  0  0  0  0  0
  -26.2965  -12.9369   20.3345 N   0  0  0  0  0  0
  -25.9299  -11.6525   20.5780 N   0  0  0  0  0  0
  -22.0421  -12.8282   22.0414 N   0  0  0  0  0  0
  -25.4196  -15.1902   20.4093 N   0  0  0  0  0  0
  -31.8126  -14.7190   20.1058 O   0  0  0  0  0  0
  -21.6627   -6.8869   21.4242 O   0  0  0  0  0  0
  -22.3508  -14.5534   20.6653 O   0  0  0  0  0  0
  -24.6198  -31.8654   23.2070 C   0  0  0  0  0  0
  -25.9085  -32.4797   23.8367 C   0  0  1  0  0  0
  -27.2242  -27.3785   20.1217 C   0  0  0  0  0  0
  -25.5951  -33.8601   24.2300 N   0  0  0  0  0  0
  -23.4095  -30.4892   21.5458 C   0  0  2  0  0  0
  -24.8551  -28.9465   20.1129 C   0  0  0  0  0  0
  -22.7433  -29.4668   22.4949 C   0  0  0  0  0  0
  -18.0279  -28.1407   22.8465 C   0  0  0  0  0  0
  -24.1507  -36.7292   23.2633 C   0  0  0  0  0  0
  -25.9432  -30.8180   21.3633 C   0  0  0  0  0  0
  -26.0189  -29.4465   20.7120 C   0  0  0  0  0  0
  -27.2082  -28.6735   20.7033 C   0  0  0  0  0  0
  -26.0461  -26.9103   19.5010 C   0  0  0  0  0  0
  -24.8670  -27.6821   19.4984 C   0  0  0  0  0  0
  -23.6210  -29.8215   20.1607 C   0  0  0  0  0  0
  -25.4127  -36.3080   24.0325 C   0  0  1  0  0  0
  -20.5875  -28.3701   23.1290 C   0  0  2  0  0  0
  -20.6791  -26.9429   22.5405 C   0  0  0  0  0  0
  -19.5776  -26.6400   21.5206 C   0  0  0  0  0  0
  -18.1943  -26.7949   22.1598 C   0  0  0  0  0  0
  -19.1527  -28.8867   23.2877 C   0  0  0  0  0  0
  -18.9454  -30.1475   23.8889 C   0  0  0  0  0  0
  -17.6455  -30.6602   24.0560 C   0  0  0  0  0  0
  -25.9054  -34.9458   23.5092 C   0  0  0  0  0  0
  -16.5347  -29.9097   23.6335 C   0  0  0  0  0  0
  -16.7265  -28.6526   23.0327 C   0  0  0  0  0  0
  -26.4510  -31.6580   25.0700 C   0  0  0  0  0  0
  -25.3772  -31.3692   26.1440 C   0  0  0  0  0  0
  -27.0324  -30.3012   24.6085 C   0  0  0  0  0  0
  -27.6086  -32.4298   25.7467 C   0  0  0  0  0  0
  -27.5583  -37.1801   24.8465 C   0  0  0  0  0  0
  -21.4151  -29.3053   22.3677 N   0  0  0  0  0  0
  -26.4303  -37.3769   23.9401 N   0  0  0  0  0  0
  -24.6757  -31.0730   22.0970 N   0  0  0  0  0  0
  -23.4184  -28.8217   23.3012 O   0  0  0  0  0  0
  -28.3733  -26.6007   20.1379 O   0  0  0  0  0  0
  -26.5596  -34.8916   22.4642 O   0  0  0  0  0  0
  -23.5383  -32.1427   23.7459 O   0  0  0  0  0  0
  -30.4878  -22.6388   21.3689 C   0  0  0  0  0  0
  -29.4877  -22.8260   20.3605 C   0  0  0  0  0  0
  -30.6982  -21.2940   21.5484 C   0  0  0  0  0  0
  -29.0736  -21.5420   20.0182 C   0  0  0  0  0  0
  -28.9678  -18.0548   20.1417 C   0  0  0  0  0  0
  -30.8066  -18.0569   21.0982 C   0  0  0  0  0  0
  -30.0596  -19.1624   20.2822 C   0  0  2  0  0  0
  -30.1347  -17.0218   20.1716 C   0  0  1  0  0  0
  -31.2801  -23.7274   22.0571 C   0  0  0  0  0  0
  -31.6974  -20.6322   22.4535 C   0  0  0  0  0  0
  -28.0249  -21.0905   19.0471 C   0  0  0  0  0  0
  -28.6366  -24.1640   18.2925 C   0  0  0  0  0  0
  -28.2573  -25.2127   20.5795 C   0  0  0  0  0  0
  -29.1419  -24.2252   19.7431 C   0  0  1  0  0  0
  -29.8916  -20.5886   20.6580 N   0  0  0  0  0  0
  -29.8636  -15.6646   20.7297 N   0  0  0  0  0  0
  -31.4696  -12.4546   19.1516 H   0  0  0  0  0  0
  -30.3423  -11.3533   19.8879 H   0  0  0  0  0  0
  -29.7530  -11.7416   17.4737 H   0  0  0  0  0  0
  -29.6578  -13.4622   17.7459 H   0  0  0  0  0  0
  -27.8425  -11.2994   18.8576 H   0  0  0  0  0  0
  -27.3697  -12.5940   17.7928 H   0  0  0  0  0  0
  -27.6744  -14.2552   19.5326 H   0  0  0  0  0  0
  -28.6867  -12.0392   21.3859 H   0  0  0  0  0  0
  -28.4620  -13.7039   21.8480 H   0  0  0  0  0  0
  -25.2734   -9.5683   22.4783 H   0  0  0  0  0  0
  -23.9971   -7.4632   22.7504 H   0  0  0  0  0  0
  -21.0800   -8.8782   19.8990 H   0  0  0  0  0  0
  -22.3658  -10.9675   19.6190 H   0  0  0  0  0  0
  -21.2024   -7.6147   23.9721 H   0  0  0  0  0  0
  -21.1477   -6.0520   25.9082 H   0  0  0  0  0  0
  -22.0593   -2.7603   23.2860 H   0  0  0  0  0  0
  -22.3994  -11.9968   22.4868 H   0  0  0  0  0  0
  -21.1045  -13.1358   22.2588 H   0  0  0  0  0  0
  -24.6485  -15.8400   20.5244 H   0  0  0  0  0  0
  -26.2627  -15.6327   20.0669 H   0  0  0  0  0  0
  -26.7150  -32.5484   23.1118 H   0  0  0  0  0  0
  -25.0169  -33.9776   25.0488 H   0  0  0  0  0  0
  -22.6997  -31.3071   21.4032 H   0  0  0  0  0  0
  -23.3772  -35.9620   23.3294 H   0  0  0  0  0  0
  -24.3600  -36.8909   22.2046 H   0  0  0  0  0  0
  -23.7269  -37.6497   23.6655 H   0  0  0  0  0  0
  -26.0600  -31.5832   20.5943 H   0  0  0  0  0  0
  -26.8319  -30.8765   21.9800 H   0  0  0  0  0  0
  -28.1083  -29.0512   21.1667 H   0  0  0  0  0  0
  -26.0329  -25.9443   19.0154 H   0  0  0  0  0  0
  -23.9729  -27.2987   19.0245 H   0  0  0  0  0  0
  -23.7363  -30.5983   19.4041 H   0  0  0  0  0  0
  -22.7425  -29.2488   19.8576 H   0  0  0  0  0  0
  -25.1307  -36.1930   25.0818 H   0  0  0  0  0  0
  -20.9974  -28.3298   24.1410 H   0  0  0  0  0  0
  -20.5738  -26.2298   23.3593 H   0  0  0  0  0  0
  -21.6656  -26.7497   22.1174 H   0  0  0  0  0  0
  -19.6946  -25.6312   21.1240 H   0  0  0  0  0  0
  -19.6741  -27.3200   20.6733 H   0  0  0  0  0  0
  -17.4217  -26.6686   21.3995 H   0  0  0  0  0  0
  -18.0339  -26.0110   22.9017 H   0  0  0  0  0  0
  -19.7936  -30.7296   24.2244 H   0  0  0  0  0  0
  -17.5014  -31.6276   24.5175 H   0  0  0  0  0  0
  -15.5350  -30.2991   23.7695 H   0  0  0  0  0  0
  -15.8662  -28.0867   22.7016 H   0  0  0  0  0  0
  -24.5953  -30.7024   25.7780 H   0  0  0  0  0  0
  -24.8957  -32.2851   26.4878 H   0  0  0  0  0  0
  -25.8136  -30.8871   27.0195 H   0  0  0  0  0  0
  -26.2842  -29.6761   24.1195 H   0  0  0  0  0  0
  -27.4130  -29.7264   25.4538 H   0  0  0  0  0  0
  -27.8677  -30.4299   23.9197 H   0  0  0  0  0  0
  -27.2714  -33.3619   26.2015 H   0  0  0  0  0  0
  -28.3932  -32.6812   25.0317 H   0  0  0  0  0  0
  -28.0710  -31.8425   26.5407 H   0  0  0  0  0  0
  -28.2589  -38.0106   24.7499 H   0  0  0  0  0  0
  -28.1079  -36.2625   24.6302 H   0  0  0  0  0  0
  -27.2290  -37.1480   25.8866 H   0  0  0  0  0  0
  -20.9324  -29.8714   21.6838 H   0  0  0  0  0  0
  -26.0181  -38.2837   24.1422 H   0  0  0  0  0  0
  -28.4164  -18.0727   19.2001 H   0  0  0  0  0  0
  -28.2927  -18.0032   20.9988 H   0  0  0  0  0  0
  -30.4826  -17.9784   22.1382 H   0  0  0  0  0  0
  -31.8928  -18.0801   21.0157 H   0  0  0  0  0  0
  -30.5599  -19.2568   19.3141 H   0  0  0  0  0  0
  -30.6304  -16.9751   19.1967 H   0  0  0  0  0  0
  -30.8382  -24.7127   21.9153 H   0  0  0  0  0  0
  -32.2929  -23.7544   21.6539 H   0  0  0  0  0  0
  -31.3555  -23.5422   23.1285 H   0  0  0  0  0  0
  -32.1937  -21.3554   23.1007 H   0  0  0  0  0  0
  -32.4803  -20.1311   21.8850 H   0  0  0  0  0  0
  -31.2212  -19.9025   23.1078 H   0  0  0  0  0  0
  -27.2409  -21.8340   18.9287 H   0  0  0  0  0  0
  -27.5121  -20.1987   19.4008 H   0  0  0  0  0  0
  -28.4567  -20.8729   18.0704 H   0  0  0  0  0  0
  -29.2663  -23.5190   17.6778 H   0  0  0  0  0  0
  -28.6388  -25.1575   17.8418 H   0  0  0  0  0  0
  -27.6093  -23.8120   18.2357 H   0  0  0  0  0  0
  -28.5888  -25.2002   21.6175 H   0  0  0  0  0  0
  -27.2293  -24.8534   20.6067 H   0  0  0  0  0  0
  -30.1174  -24.7084   19.6754 H   0  0  0  0  0  0
  -28.9263  -15.4743   21.0519 H   0  0  0  0  0  0
  1 25  1  0  0  0
  1 30  2  0  0  0
  1 86  1  0  0  0
  2  3  1  0  0  0
  2 25  1  0  0  0
  2 87  1  0  0  0
  2 88  1  0  0  0
  3  4  1  0  0  0
  3 89  1  0  0  0
  3 90  1  0  0  0
  4  5  1  0  0  0
  4 91  1  0  0  0
  4 92  1  0  0  0
  5  6  1  0  0  0
  5 26  1  0  0  0
  5 93  1  0  0  0
  6 25  1  0  0  0
  6 94  1  0  0  0
  6 95  1  0  0  0
  7  8  2  0  0  0
  7 26  1  0  0  0
  7 29  1  0  0  0
  8  9  1  0  0  0
  8 22  1  0  0  0
  9 10  1  0  0  0
  9 27  2  0  0  0
 10 11  2  0  0  0
 10 15  1  0  0  0
 11 12  1  0  0  0
 11 96  1  0  0  0
 12 13  2  0  0  0
 12 97  1  0  0  0
 13 14  1  0  0  0
 13 31  1  0  0  0
 14 15  2  0  0  0
 14 98  1  0  0  0
 15 99  1  0  0  0
 16 17  2  0  0  0
 16 21  1  0  0  0
 16 31  1  0  0  0
 17 18  1  0  0  0
 17100  1  0  0  0
 18 19  2  0  0  0
 18101  1  0  0  0
 19 20  1  0  0  0
 19 24  1  0  0  0
 20 21  2  0  0  0
 20102  1  0  0  0
 21 23  1  0  0  0
 22 28  1  0  0  0
 22 32  2  0  0  0
 26 27  1  0  0  0
 28103  1  0  0  0
 28104  1  0  0  0
 29105  1  0  0  0
 29106  1  0  0  0
 33 34  1  0  0  0
 33 66  1  0  0  0
 33 70  2  0  0  0
 34 36  1  0  0  0
 34 59  1  0  0  0
 34107  1  0  0  0
 35 44  2  0  0  0
 35 45  1  0  0  0
 35 68  1  0  0  0
 36 56  1  0  0  0
 36108  1  0  0  0
 37 39  1  0  0  0
 37 47  1  0  0  0
 37 66  1  0  0  0
 37109  1  0  0  0
 38 43  2  0  0  0
 38 46  1  0  0  0
 38 47  1  0  0  0
 39 64  1  0  0  0
 39 67  2  0  0  0
 40 52  1  0  0  0
 40 53  2  0  0  0
 40 58  1  0  0  0
 41110  1  0  0  0
 41111  1  0  0  0
 41112  1  0  0  0
 41 48  1  0  0  0
 42 43  1  0  0  0
 42 66  1  0  0  0
 42113  1  0  0  0
 42114  1  0  0  0
 43 44  1  0  0  0
 44115  1  0  0  0
 45 46  2  0  0  0
 45116  1  0  0  0
 46117  1  0  0  0
 47118  1  0  0  0
 47119  1  0  0  0
 48 56  1  0  0  0
 48 65  1  0  0  0
 48120  1  0  0  0
 49 50  1  0  0  0
 49 53  1  0  0  0
 49 64  1  0  0  0
 49121  1  0  0  0
 50 51  1  0  0  0
 50122  1  0  0  0
 50123  1  0  0  0
 51 52  1  0  0  0
 51124  1  0  0  0
 51125  1  0  0  0
 52126  1  0  0  0
 52127  1  0  0  0
 53 54  1  0  0  0
 54 55  2  0  0  0
 54128  1  0  0  0
 55 57  1  0  0  0
 55129  1  0  0  0
 56 69  2  0  0  0
 57 58  2  0  0  0
 57130  1  0  0  0
 58131  1  0  0  0
 59 60  1  0  0  0
 59 61  1  0  0  0
 59 62  1  0  0  0
 60132  1  0  0  0
 60133  1  0  0  0
 60134  1  0  0  0
 61135  1  0  0  0
 61136  1  0  0  0
 61137  1  0  0  0
 62138  1  0  0  0
 62139  1  0  0  0
 62140  1  0  0  0
 63 65  1  0  0  0
 63141  1  0  0  0
 63142  1  0  0  0
 63143  1  0  0  0
 64144  1  0  0  0
 65145  1  0  0  0
 68 83  1  0  0  0
 71 72  1  0  0  0
 71 73  2  0  0  0
 71 79  1  0  0  0
 72 74  2  0  0  0
 72 84  1  0  0  0
 73 80  1  0  0  0
 73 85  1  0  0  0
 74 81  1  0  0  0
 74 85  1  0  0  0
 75 77  1  0  0  0
 75 78  1  0  0  0
 75146  1  0  0  0
 75147  1  0  0  0
 76 77  1  0  0  0
 76 78  1  0  0  0
 76148  1  0  0  0
 76149  1  0  0  0
 77 85  1  0  0  0
 77150  1  0  0  0
 78 86  1  0  0  0
 78151  1  0  0  0
 79152  1  0  0  0
 79153  1  0  0  0
 79154  1  0  0  0
 80155  1  0  0  0
 80156  1  0  0  0
 80157  1  0  0  0
 81158  1  0  0  0
 81159  1  0  0  0
 81160  1  0  0  0
 82161  1  0  0  0
 82162  1  0  0  0
 82163  1  0  0  0
 82 84  1  0  0  0
 83 84  1  0  0  0
 83164  1  0  0  0
 83165  1  0  0  0
 84166  1  0  0  0
 86167  1  0  0  0
M  ISO  4   1 100  68 101  83 101  86 100
M  END
> <chiral flag>
0

> <version>
0

> <s_m_source_file>
/data/baiqing/PycharmProjects/Reinvent-master-3.2/result/LINK_invent/BTK/process_docking_weight1_custom_sum_contain_oxygen_bond_distance_aromatic_linkinvent_7_9_3/rearranged_h_0163.sdf

> <i_m_source_file_index>
45

> <r_mmod_Potential_Energy-OPLS-2005>
52.5020713806152

> <r_mmod_Stretch_Energy-OPLS-2005>
59.4239082336426

> <r_mmod_Bend_Energy-OPLS-2005>
159.5380859375

> <r_mmod_Torsional_Energy-OPLS-2005>
273.709442138672

> <r_mmod_Improper_Torsional_Energy-OPLS-2005>
10.4871139526367

> <r_mmod_Van_der_Waal_Energy-OPLS-2005>
129.263977050781

> <r_mmod_Electrostatic_Energy-OPLS-2005>
-403.0078125

> <r_mmod_Solvation_Energy-OPLS-2005>
-205.811111450195

> <b_mmod_Minimization_Converged-OPLS-2005>
0

> <r_mmod_RMS_Derivative-OPLS-2005>
2.35247278213501

$$$$
45
                    3D
 Structure written by MMmdl.
178188  0  0  1  0            999 V2000
  -30.7183  -14.4237   20.6243 C   0  0  0  0  0  0
  -30.4195  -12.2949   19.4101 C   0  0  0  0  0  0
  -29.4902  -12.5180   18.1999 C   0  0  0  0  0  0
  -28.0118  -12.3786   18.6134 C   0  0  0  0  0  0
  -27.6651  -13.2019   19.8819 C   0  0  2  0  0  0
  -28.7030  -12.9489   20.9978 C   0  0  0  0  0  0
  -25.2599  -13.8156   20.5673 C   0  0  0  0  0  0
  -24.1841  -13.0428   20.9159 C   0  0  0  0  0  0
  -24.6382  -11.6907   20.8730 C   0  0  0  0  0  0
  -23.9053  -10.4291   21.0406 C   0  0  0  0  0  0
  -24.3609   -9.4216   21.9187 C   0  0  0  0  0  0
  -23.6287   -8.2251   22.0763 C   0  0  0  0  0  0
  -22.4273   -8.0281   21.3549 C   0  0  0  0  0  0
  -21.9908   -9.0254   20.4649 C   0  0  0  0  0  0
  -22.7229  -10.2133   20.3054 C   0  0  0  0  0  0
  -21.6853   -6.0737   22.5280 C   0  0  0  0  0  0
  -21.4009   -6.5643   23.8213 C   0  0  0  0  0  0
  -21.3656   -5.6799   24.9179 C   0  0  0  0  0  0
  -21.6045   -4.3062   24.7231 C   0  0  0  0  0  0
  -21.8819   -3.8151   23.4355 C   0  0  0  0  0  0
  -21.9188   -4.6965   22.3404 C   0  0  0  0  0  0
  -22.7864  -13.5246   21.1827 C   0  0  0  0  0  0
  -22.1660   -4.2151   21.0981 F   0  0  0  0  0  0
  -21.5628   -3.4544   25.7745 F   0  0  0  0  0  0
  -30.0393  -13.2570   20.4564 N   0  0  0  0  0  0
  -26.3038  -12.9308   20.3378 N   0  0  0  0  0  0
  -25.9307  -11.6475   20.5756 N   0  0  0  0  0  0
  -22.0503  -12.8231   22.0378 N   0  0  0  0  0  0
  -25.4336  -15.1865   20.4100 N   0  0  0  0  0  0
  -31.7932  -14.6618   20.0652 O   0  0  0  0  0  0
  -21.6641   -6.8881   21.4243 O   0  0  0  0  0  0
  -22.3561  -14.5555   20.6688 O   0  0  0  0  0  0
  -24.6110  -31.8672   23.2028 C   0  0  0  0  0  0
  -25.9022  -32.4804   23.8342 C   0  0  1  0  0  0
  -27.2440  -27.4477   20.1021 C   0  0  0  0  0  0
  -25.5884  -33.8596   24.2298 N   0  0  0  0  0  0
  -23.3964  -30.4867   21.5417 C   0  0  2  0  0  0
  -24.8459  -28.9506   20.1103 C   0  0  0  0  0  0
  -22.7382  -29.4651   22.4953 C   0  0  0  0  0  0
  -18.0260  -28.1381   22.8495 C   0  0  0  0  0  0
  -24.1477  -36.7309   23.2624 C   0  0  0  0  0  0
  -25.9168  -30.8474   21.3412 C   0  0  0  0  0  0
  -25.9998  -29.4756   20.7037 C   0  0  0  0  0  0
  -27.1986  -28.7328   20.6895 C   0  0  0  0  0  0
  -26.0748  -26.9292   19.5075 C   0  0  0  0  0  0
  -24.8793  -27.6796   19.5048 C   0  0  0  0  0  0
  -23.6034  -29.8118   20.1583 C   0  0  0  0  0  0
  -25.4084  -36.3086   24.0322 C   0  0  1  0  0  0
  -20.5843  -28.3672   23.1334 C   0  0  2  0  0  0
  -20.6755  -26.9423   22.5424 C   0  0  0  0  0  0
  -19.5755  -26.6405   21.5203 C   0  0  0  0  0  0
  -18.1916  -26.7939   22.1605 C   0  0  0  0  0  0
  -19.1503  -28.8845   23.2916 C   0  0  0  0  0  0
  -18.9436  -30.1426   23.8981 C   0  0  0  0  0  0
  -17.6448  -30.6608   24.0569 C   0  0  0  0  0  0
  -25.9037  -34.9464   23.5117 C   0  0  0  0  0  0
  -16.5333  -29.9128   23.6306 C   0  0  0  0  0  0
  -16.7253  -28.6516   23.0377 C   0  0  0  0  0  0
  -26.4470  -31.6559   25.0646 C   0  0  0  0  0  0
  -25.3729  -31.3616   26.1373 C   0  0  0  0  0  0
  -27.0311  -30.3029   24.5947 C   0  0  0  0  0  0
  -27.6086  -32.4220   25.7423 C   0  0  0  0  0  0
  -27.5586  -37.1742   24.8418 C   0  0  0  0  0  0
  -21.4107  -29.3025   22.3721 N   0  0  0  0  0  0
  -26.4243  -37.3795   23.9458 N   0  0  0  0  0  0
  -24.6608  -31.0809   22.0896 N   0  0  0  0  0  0
  -23.4191  -28.8228   23.3000 O   0  0  0  0  0  0
  -28.4534  -26.7902   20.1085 O   0  0  0  0  0  0
  -26.5621  -34.8934   22.4687 O   0  0  0  0  0  0
  -23.5308  -32.1403   23.7440 O   0  0  0  0  0  0
  -29.4390  -20.7004   21.6906 C   0  0  0  0  0  0
  -27.7691  -21.9710   19.8267 C   0  0  0  0  0  0
  -28.3845  -22.7819   20.8282 C   0  0  0  0  0  0
  -28.0609  -20.5986   19.7267 C   0  0  0  0  0  0
  -29.1843  -22.0903   21.7936 C   0  0  0  0  0  0
  -28.8987  -19.9292   20.6441 C   0  0  0  0  0  0
  -29.5272  -25.0768   21.0050 C   0  0  0  0  0  0
  -26.2686  -20.9857   18.1944 C   0  0  0  0  0  0
  -28.2352  -24.3034   20.9444 C   0  0  1  0  0  0
  -27.3263  -19.9397   18.5853 C   0  0  1  0  0  0
  -28.5735  -25.3789   19.8829 C   0  0  2  0  0  0
  -26.6768  -22.3501   18.8214 C   0  0  0  0  0  0
  -29.7917  -22.7989   22.9962 C   0  0  0  0  0  0
  -28.2638  -19.5810   17.4193 C   0  0  0  0  0  0
  -27.1585  -23.2742   17.6907 C   0  0  0  0  0  0
  -25.4568  -22.9742   19.5293 C   0  0  0  0  0  0
  -31.3855  -16.8680   22.8304 C   0  0  0  0  0  0
  -29.2744  -17.6651   21.6536 C   0  0  0  0  0  0
  -30.5158  -16.7387   21.5704 C   0  0  2  0  0  0
  -29.1712  -18.5559   20.4983 N   0  0  0  0  0  0
  -30.1028  -15.3431   21.3863 N   0  0  0  0  0  0
  -31.4641  -12.3969   19.1103 H   0  0  0  0  0  0
  -30.3172  -11.2747   19.7854 H   0  0  0  0  0  0
  -29.7242  -11.8044   17.4091 H   0  0  0  0  0  0
  -29.6623  -13.5095   17.7773 H   0  0  0  0  0  0
  -27.8170  -11.3206   18.7935 H   0  0  0  0  0  0
  -27.3624  -12.6687   17.7865 H   0  0  0  0  0  0
  -27.7211  -14.2547   19.6056 H   0  0  0  0  0  0
  -28.6721  -11.9036   21.3104 H   0  0  0  0  0  0
  -28.4566  -13.5202   21.8925 H   0  0  0  0  0  0
  -25.2750   -9.5698   22.4770 H   0  0  0  0  0  0
  -23.9996   -7.4650   22.7488 H   0  0  0  0  0  0
  -21.0845   -8.8768   19.8954 H   0  0  0  0  0  0
  -22.3687  -10.9675   19.6170 H   0  0  0  0  0  0
  -21.2003   -7.6149   23.9716 H   0  0  0  0  0  0
  -21.1475   -6.0533   25.9084 H   0  0  0  0  0  0
  -22.0599   -2.7611   23.2857 H   0  0  0  0  0  0
  -22.4106  -11.9877   22.4743 H   0  0  0  0  0  0
  -21.1122  -13.1263   22.2578 H   0  0  0  0  0  0
  -24.6699  -15.8450   20.5227 H   0  0  0  0  0  0
  -26.2945  -15.6257   20.1081 H   0  0  0  0  0  0
  -26.7107  -32.5554   23.1134 H   0  0  0  0  0  0
  -24.9926  -33.9736   25.0369 H   0  0  0  0  0  0
  -22.6822  -31.2994   21.3993 H   0  0  0  0  0  0
  -23.3761  -35.9612   23.3158 H   0  0  0  0  0  0
  -24.3622  -36.9081   22.2076 H   0  0  0  0  0  0
  -23.7193  -37.6439   23.6762 H   0  0  0  0  0  0
  -25.9959  -31.6050   20.5592 H   0  0  0  0  0  0
  -26.8171  -30.9253   21.9387 H   0  0  0  0  0  0
  -28.0986  -29.1459   21.1237 H   0  0  0  0  0  0
  -26.0846  -25.9639   19.0276 H   0  0  0  0  0  0
  -23.9952  -27.2753   19.0304 H   0  0  0  0  0  0
  -23.7056  -30.5867   19.3973 H   0  0  0  0  0  0
  -22.7309  -29.2221   19.8656 H   0  0  0  0  0  0
  -25.1234  -36.1901   25.0804 H   0  0  0  0  0  0
  -20.9893  -28.3258   24.1474 H   0  0  0  0  0  0
  -20.5661  -26.2275   23.3588 H   0  0  0  0  0  0
  -21.6622  -26.7498   22.1215 H   0  0  0  0  0  0
  -19.6932  -25.6322   21.1223 H   0  0  0  0  0  0
  -19.6724  -27.3228   20.6748 H   0  0  0  0  0  0
  -17.4178  -26.6675   21.4009 H   0  0  0  0  0  0
  -18.0345  -26.0080   22.9011 H   0  0  0  0  0  0
  -19.7905  -30.7172   24.2456 H   0  0  0  0  0  0
  -17.5020  -31.6309   24.5130 H   0  0  0  0  0  0
  -15.5339  -30.3078   23.7575 H   0  0  0  0  0  0
  -15.8629  -28.0836   22.7143 H   0  0  0  0  0  0
  -24.5982  -30.6880   25.7678 H   0  0  0  0  0  0
  -24.8796  -32.2727   26.4767 H   0  0  0  0  0  0
  -25.8058  -30.8835   27.0167 H   0  0  0  0  0  0
  -26.2842  -29.6751   24.1062 H   0  0  0  0  0  0
  -27.4208  -29.7272   25.4351 H   0  0  0  0  0  0
  -27.8606  -30.4369   23.8995 H   0  0  0  0  0  0
  -27.2804  -33.3552   26.2002 H   0  0  0  0  0  0
  -28.3935  -32.6679   25.0264 H   0  0  0  0  0  0
  -28.0712  -31.8296   26.5327 H   0  0  0  0  0  0
  -28.2401  -38.0224   24.7725 H   0  0  0  0  0  0
  -28.1272  -36.2771   24.5903 H   0  0  0  0  0  0
  -27.2360  -37.0981   25.8815 H   0  0  0  0  0  0
  -20.9266  -29.8744   21.6939 H   0  0  0  0  0  0
  -26.0095  -38.2810   24.1664 H   0  0  0  0  0  0
  -30.0791  -20.2326   22.4238 H   0  0  0  0  0  0
  -30.4499  -24.5765   20.7169 H   0  0  0  0  0  0
  -29.6297  -25.7736   21.8360 H   0  0  0  0  0  0
  -25.3195  -20.6593   18.6234 H   0  0  0  0  0  0
  -26.0951  -21.0258   17.1180 H   0  0  0  0  0  0
  -27.4574  -24.5513   21.6639 H   0  0  0  0  0  0
  -26.8372  -19.0350   18.9479 H   0  0  0  0  0  0
  -28.9739  -25.1371   18.9005 H   0  0  0  0  0  0
  -29.9439  -22.1063   23.8249 H   0  0  0  0  0  0
  -29.1446  -23.5916   23.3710 H   0  0  0  0  0  0
  -30.7614  -23.2228   22.7347 H   0  0  0  0  0  0
  -28.7750  -20.4642   17.0348 H   0  0  0  0  0  0
  -27.7092  -19.1297   16.5968 H   0  0  0  0  0  0
  -29.0287  -18.8659   17.7237 H   0  0  0  0  0  0
  -28.1279  -22.9675   17.2984 H   0  0  0  0  0  0
  -27.2207  -24.3102   17.9986 H   0  0  0  0  0  0
  -26.4493  -23.2724   16.8614 H   0  0  0  0  0  0
  -25.0803  -22.3275   20.3237 H   0  0  0  0  0  0
  -24.6403  -23.1406   18.8243 H   0  0  0  0  0  0
  -25.6904  -23.9329   19.9875 H   0  0  0  0  0  0
  -31.7252  -17.8972   22.9548 H   0  0  0  0  0  0
  -32.2736  -16.2378   22.7724 H   0  0  0  0  0  0
  -30.8341  -16.5914   23.7299 H   0  0  0  0  0  0
  -29.2780  -18.2246   22.5902 H   0  0  0  0  0  0
  -28.3603  -17.0693   21.6933 H   0  0  0  0  0  0
  -31.1316  -17.0408   20.7209 H   0  0  0  0  0  0
  -28.8041  -18.1240   19.6557 H   0  0  0  0  0  0
  -29.2282  -15.0623   21.8043 H   0  0  0  0  0  0
  1 25  1  0  0  0
  1 30  2  0  0  0
  1 91  1  0  0  0
  2  3  1  0  0  0
  2 25  1  0  0  0
  2 92  1  0  0  0
  2 93  1  0  0  0
  3  4  1  0  0  0
  3 94  1  0  0  0
  3 95  1  0  0  0
  4  5  1  0  0  0
  4 96  1  0  0  0
  4 97  1  0  0  0
  5  6  1  0  0  0
  5 26  1  0  0  0
  5 98  1  0  0  0
  6 25  1  0  0  0
  6 99  1  0  0  0
  6100  1  0  0  0
  7  8  2  0  0  0
  7 26  1  0  0  0
  7 29  1  0  0  0
  8  9  1  0  0  0
  8 22  1  0  0  0
  9 10  1  0  0  0
  9 27  2  0  0  0
 10 11  2  0  0  0
 10 15  1  0  0  0
 11 12  1  0  0  0
 11101  1  0  0  0
 12 13  2  0  0  0
 12102  1  0  0  0
 13 14  1  0  0  0
 13 31  1  0  0  0
 14 15  2  0  0  0
 14103  1  0  0  0
 15104  1  0  0  0
 16 17  2  0  0  0
 16 21  1  0  0  0
 16 31  1  0  0  0
 17 18  1  0  0  0
 17105  1  0  0  0
 18 19  2  0  0  0
 18106  1  0  0  0
 19 20  1  0  0  0
 19 24  1  0  0  0
 20 21  2  0  0  0
 20107  1  0  0  0
 21 23  1  0  0  0
 22 28  1  0  0  0
 22 32  2  0  0  0
 26 27  1  0  0  0
 28108  1  0  0  0
 28109  1  0  0  0
 29110  1  0  0  0
 29111  1  0  0  0
 33 34  1  0  0  0
 33 66  1  0  0  0
 33 70  2  0  0  0
 34 36  1  0  0  0
 34 59  1  0  0  0
 34112  1  0  0  0
 35 44  2  0  0  0
 35 45  1  0  0  0
 35 68  1  0  0  0
 36 56  1  0  0  0
 36113  1  0  0  0
 37 39  1  0  0  0
 37 47  1  0  0  0
 37 66  1  0  0  0
 37114  1  0  0  0
 38 43  2  0  0  0
 38 46  1  0  0  0
 38 47  1  0  0  0
 39 64  1  0  0  0
 39 67  2  0  0  0
 40 52  1  0  0  0
 40 53  2  0  0  0
 40 58  1  0  0  0
 41115  1  0  0  0
 41116  1  0  0  0
 41117  1  0  0  0
 41 48  1  0  0  0
 42 43  1  0  0  0
 42 66  1  0  0  0
 42118  1  0  0  0
 42119  1  0  0  0
 43 44  1  0  0  0
 44120  1  0  0  0
 45 46  2  0  0  0
 45121  1  0  0  0
 46122  1  0  0  0
 47123  1  0  0  0
 47124  1  0  0  0
 48 56  1  0  0  0
 48 65  1  0  0  0
 48125  1  0  0  0
 49 50  1  0  0  0
 49 53  1  0  0  0
 49 64  1  0  0  0
 49126  1  0  0  0
 50 51  1  0  0  0
 50127  1  0  0  0
 50128  1  0  0  0
 51 52  1  0  0  0
 51129  1  0  0  0
 51130  1  0  0  0
 52131  1  0  0  0
 52132  1  0  0  0
 53 54  1  0  0  0
 54 55  2  0  0  0
 54133  1  0  0  0
 55 57  1  0  0  0
 55134  1  0  0  0
 56 69  2  0  0  0
 57 58  2  0  0  0
 57135  1  0  0  0
 58136  1  0  0  0
 59 60  1  0  0  0
 59 61  1  0  0  0
 59 62  1  0  0  0
 60137  1  0  0  0
 60138  1  0  0  0
 60139  1  0  0  0
 61140  1  0  0  0
 61141  1  0  0  0
 61142  1  0  0  0
 62143  1  0  0  0
 62144  1  0  0  0
 62145  1  0  0  0
 63 65  1  0  0  0
 63146  1  0  0  0
 63147  1  0  0  0
 63148  1  0  0  0
 64149  1  0  0  0
 65150  1  0  0  0
 68 81  1  0  0  0
 71 75  2  0  0  0
 71 76  1  0  0  0
 71151  1  0  0  0
 72 73  2  0  0  0
 72 74  1  0  0  0
 72 82  1  0  0  0
 73 75  1  0  0  0
 73 79  1  0  0  0
 74 76  2  0  0  0
 74 80  1  0  0  0
 75 83  1  0  0  0
 76 90  1  0  0  0
 77 79  1  0  0  0
 77 81  1  0  0  0
 77152  1  0  0  0
 77153  1  0  0  0
 78 80  1  0  0  0
 78 82  1  0  0  0
 78154  1  0  0  0
 78155  1  0  0  0
 79 81  1  0  0  0
 79156  1  0  0  0
 80 84  1  0  0  0
 80157  1  0  0  0
 81158  1  0  0  0
 82 85  1  0  0  0
 82 86  1  0  0  0
 83159  1  0  0  0
 83160  1  0  0  0
 83161  1  0  0  0
 84162  1  0  0  0
 84163  1  0  0  0
 84164  1  0  0  0
 85165  1  0  0  0
 85166  1  0  0  0
 85167  1  0  0  0
 86168  1  0  0  0
 86169  1  0  0  0
 86170  1  0  0  0
 87171  1  0  0  0
 87172  1  0  0  0
 87173  1  0  0  0
 87 89  1  0  0  0
 88 89  1  0  0  0
 88 90  1  0  0  0
 88174  1  0  0  0
 88175  1  0  0  0
 89 91  1  0  0  0
 89176  1  0  0  0
 90177  1  0  0  0
 91178  1  0  0  0
M  ISO  4   1 100  68 101  81 101  91 100
M  END
> <chiral flag>
0

> <version>
0

> <s_m_source_file>
/data/baiqing/PycharmProjects/Reinvent-master-3.2/result/LINK_invent/BTK/process_docking_weight1_custom_sum_contain_oxygen_bond_distance_aromatic_linkinvent_7_9_3/rearranged_h_0163.sdf

> <i_m_source_file_index>
46

> <r_mmod_Potential_Energy-OPLS-2005>
-22.5912456512451

> <r_mmod_Stretch_Energy-OPLS-2005>
43.0315132141113

> <r_mmod_Bend_Energy-OPLS-2005>
190.093383789062

> <r_mmod_Torsional_Energy-OPLS-2005>
257.623992919922

> <r_mmod_Improper_Torsional_Energy-OPLS-2005>
5.04837846755981

> <r_mmod_Van_der_Waal_Energy-OPLS-2005>
146.709426879883

> <r_mmod_Electrostatic_Energy-OPLS-2005>
-470.837219238281

> <r_mmod_Solvation_Energy-OPLS-2005>
-203.472900390625

> <b_mmod_Minimization_Converged-OPLS-2005>
0

> <r_mmod_RMS_Derivative-OPLS-2005>
2.95299983024597

$$$$
46
                    3D
 Structure written by MMmdl.
164173  0  0  1  0            999 V2000
  -30.4464  -15.2276   20.3956 C   0  0  0  0  0  0
  -30.4430  -12.7772   19.5386 C   0  0  0  0  0  0
  -29.5387  -12.5816   18.2935 C   0  0  0  0  0  0
  -28.0834  -12.3051   18.7091 C   0  0  0  0  0  0
  -27.6151  -13.2681   19.8263 C   0  0  2  0  0  0
  -28.6468  -13.4040   20.9643 C   0  0  0  0  0  0
  -25.2383  -13.8209   20.5729 C   0  0  0  0  0  0
  -24.1735  -13.0409   20.9240 C   0  0  0  0  0  0
  -24.6392  -11.6912   20.8752 C   0  0  0  0  0  0
  -23.9082  -10.4283   21.0398 C   0  0  0  0  0  0
  -24.3627   -9.4201   21.9181 C   0  0  0  0  0  0
  -23.6294   -8.2239   22.0755 C   0  0  0  0  0  0
  -22.4278   -8.0279   21.3541 C   0  0  0  0  0  0
  -21.9914   -9.0250   20.4639 C   0  0  0  0  0  0
  -22.7254  -10.2123   20.3042 C   0  0  0  0  0  0
  -21.6856   -6.0734   22.5278 C   0  0  0  0  0  0
  -21.4019   -6.5638   23.8212 C   0  0  0  0  0  0
  -21.3656   -5.6790   24.9173 C   0  0  0  0  0  0
  -21.6039   -4.3049   24.7224 C   0  0  0  0  0  0
  -21.8820   -3.8146   23.4345 C   0  0  0  0  0  0
  -21.9193   -4.6964   22.3400 C   0  0  0  0  0  0
  -22.7755  -13.5173   21.1901 C   0  0  0  0  0  0
  -22.1663   -4.2145   21.0976 F   0  0  0  0  0  0
  -21.5623   -3.4537   25.7738 F   0  0  0  0  0  0
  -29.8964  -13.9124   20.3713 N   0  0  0  0  0  0
  -26.2813  -12.9485   20.3200 N   0  0  0  0  0  0
  -25.9326  -11.6595   20.5701 N   0  0  0  0  0  0
  -22.0409  -12.8153   22.0452 N   0  0  0  0  0  0
  -25.3966  -15.1940   20.4215 N   0  0  0  0  0  0
  -31.6501  -15.2155   20.0992 O   0  0  0  0  0  0
  -21.6638   -6.8879   21.4239 O   0  0  0  0  0  0
  -22.3428  -14.5482   20.6758 O   0  0  0  0  0  0
  -24.6607  -31.8272   23.1712 C   0  0  0  0  0  0
  -25.9299  -32.4599   23.8175 C   0  0  1  0  0  0
  -27.2168  -26.9567   20.1716 C   0  0  0  0  0  0
  -25.5982  -33.8415   24.2087 N   0  0  0  0  0  0
  -23.4738  -30.4412   21.5208 C   0  0  2  0  0  0
  -24.9261  -28.8363   20.1104 C   0  0  0  0  0  0
  -22.7663  -29.4465   22.4772 C   0  0  0  0  0  0
  -18.0332  -28.1405   22.8471 C   0  0  0  0  0  0
  -24.1494  -36.7209   23.2648 C   0  0  0  0  0  0
  -26.0436  -30.6413   21.3989 C   0  0  0  0  0  0
  -26.1121  -29.2354   20.7413 C   0  0  0  0  0  0
  -27.2540  -28.3177   20.7482 C   0  0  0  0  0  0
  -26.0006  -26.7068   19.4952 C   0  0  0  0  0  0
  -24.8947  -27.5899   19.4685 C   0  0  0  0  0  0
  -23.7118  -29.7614   20.1457 C   0  0  0  0  0  0
  -25.4135  -36.2972   24.0300 C   0  0  1  0  0  0
  -20.5958  -28.3753   23.1185 C   0  0  2  0  0  0
  -20.6812  -26.9437   22.5394 C   0  0  0  0  0  0
  -19.5778  -26.6390   21.5211 C   0  0  0  0  0  0
  -18.1961  -26.7942   22.1619 C   0  0  0  0  0  0
  -19.1594  -28.8900   23.2819 C   0  0  0  0  0  0
  -18.9510  -30.1493   23.8857 C   0  0  0  0  0  0
  -17.6505  -30.6600   24.0564 C   0  0  0  0  0  0
  -25.9105  -34.9358   23.5013 C   0  0  0  0  0  0
  -16.5396  -29.9085   23.6352 C   0  0  0  0  0  0
  -16.7316  -28.6505   23.0366 C   0  0  0  0  0  0
  -26.4551  -31.6535   25.0695 C   0  0  0  0  0  0
  -25.3667  -31.3781   26.1345 C   0  0  0  0  0  0
  -27.0459  -30.2907   24.6423 C   0  0  0  0  0  0
  -27.6051  -32.4345   25.7486 C   0  0  0  0  0  0
  -27.5570  -37.1760   24.8467 C   0  0  0  0  0  0
  -21.4334  -29.3051   22.3535 N   0  0  0  0  0  0
  -26.4277  -37.3708   23.9411 N   0  0  0  0  0  0
  -24.7474  -30.9957   22.0836 N   0  0  0  0  0  0
  -23.4228  -28.8029   23.2999 O   0  0  0  0  0  0
  -28.2069  -25.8484   20.2473 O   0  0  0  0  0  0
  -26.5713  -34.8887   22.4609 O   0  0  0  0  0  0
  -23.5684  -32.1238   23.6819 O   0  0  0  0  0  0
  -28.5007  -20.0253   20.2339 C   0  0  0  0  0  0
  -29.8851  -19.8046   20.4263 C   0  0  0  0  0  0
  -27.9041  -21.4069   20.1626 C   0  0  0  0  0  0
  -30.6108  -21.0678   20.4769 C   0  0  0  0  0  0
  -30.0199  -22.4263   20.3830 C   0  0  0  0  0  0
  -28.6110  -22.7181   20.2330 C   0  0  0  0  0  0
  -27.7155  -18.6637   20.1409 C   0  0  0  0  0  0
  -30.5527  -18.2677   20.5349 C   0  0  0  0  0  0
  -28.4730  -17.2582   19.8355 C   0  0  0  0  0  0
  -29.7204  -16.8061   20.6996 C   0  0  1  0  0  0
  -26.3940  -21.5087   20.0065 C   0  0  0  0  0  0
  -32.1250  -20.9611   20.6373 C   0  0  0  0  0  0
  -30.9497  -23.6328   20.4192 C   0  0  0  0  0  0
  -29.2827  -16.7613   22.1799 C   0  0  0  0  0  0
  -27.8220  -24.2722   20.0628 C   0  0  0  0  0  0
  -31.4652  -12.9681   19.2107 H   0  0  0  0  0  0
  -30.4989  -11.8586   20.1244 H   0  0  0  0  0  0
  -29.9145  -11.7669   17.6741 H   0  0  0  0  0  0
  -29.5764  -13.4808   17.6768 H   0  0  0  0  0  0
  -28.0307  -11.2764   19.0675 H   0  0  0  0  0  0
  -27.4191  -12.3625   17.8456 H   0  0  0  0  0  0
  -27.5419  -14.2412   19.3435 H   0  0  0  0  0  0
  -28.8001  -12.4485   21.4684 H   0  0  0  0  0  0
  -28.2777  -14.0842   21.7275 H   0  0  0  0  0  0
  -25.2763   -9.5680   22.4771 H   0  0  0  0  0  0
  -23.9998   -7.4627   22.7479 H   0  0  0  0  0  0
  -21.0843   -8.8769   19.8941 H   0  0  0  0  0  0
  -22.3709  -10.9664   19.6155 H   0  0  0  0  0  0
  -21.2021   -7.6148   23.9715 H   0  0  0  0  0  0
  -21.1472   -6.0520   25.9073 H   0  0  0  0  0  0
  -22.0602   -2.7607   23.2848 H   0  0  0  0  0  0
  -22.4024  -11.9817   22.4841 H   0  0  0  0  0  0
  -21.1024  -13.1170   22.2659 H   0  0  0  0  0  0
  -24.6251  -15.8413   20.5401 H   0  0  0  0  0  0
  -26.2455  -15.6408   20.1053 H   0  0  0  0  0  0
  -26.7371  -32.5144   23.0894 H   0  0  0  0  0  0
  -25.0097  -33.9502   25.0211 H   0  0  0  0  0  0
  -22.7859  -31.2722   21.3532 H   0  0  0  0  0  0
  -23.3771  -35.9523   23.3276 H   0  0  0  0  0  0
  -24.3578  -36.8885   22.2071 H   0  0  0  0  0  0
  -23.7232  -37.6382   23.6724 H   0  0  0  0  0  0
  -26.2255  -31.3834   20.6204 H   0  0  0  0  0  0
  -26.9027  -30.6952   22.0559 H   0  0  0  0  0  0
  -28.1514  -28.6224   21.2678 H   0  0  0  0  0  0
  -25.8589  -25.7575   19.0025 H   0  0  0  0  0  0
  -23.9938  -27.2767   18.9584 H   0  0  0  0  0  0
  -23.8663  -30.5324   19.3899 H   0  0  0  0  0  0
  -22.8206  -29.2163   19.8278 H   0  0  0  0  0  0
  -25.1321  -36.1776   25.0788 H   0  0  0  0  0  0
  -21.0065  -28.3363   24.1298 H   0  0  0  0  0  0
  -20.5712  -26.2367   23.3631 H   0  0  0  0  0  0
  -21.6670  -26.7420   22.1185 H   0  0  0  0  0  0
  -19.6940  -25.6293   21.1260 H   0  0  0  0  0  0
  -19.6715  -27.3181   20.6724 H   0  0  0  0  0  0
  -17.4233  -26.6716   21.4015 H   0  0  0  0  0  0
  -18.0345  -26.0079   22.9007 H   0  0  0  0  0  0
  -19.7989  -30.7326   24.2195 H   0  0  0  0  0  0
  -17.5057  -31.6269   24.5180 H   0  0  0  0  0  0
  -15.5394  -30.2977   23.7690 H   0  0  0  0  0  0
  -15.8717  -28.0816   22.7090 H   0  0  0  0  0  0
  -24.5873  -30.7107   25.7639 H   0  0  0  0  0  0
  -24.8829  -32.2981   26.4631 H   0  0  0  0  0  0
  -25.7878  -30.9036   27.0215 H   0  0  0  0  0  0
  -26.3135  -29.6574   24.1408 H   0  0  0  0  0  0
  -27.3982  -29.7272   25.5071 H   0  0  0  0  0  0
  -27.9064  -30.4092   23.9837 H   0  0  0  0  0  0
  -27.2641  -33.3717   26.1890 H   0  0  0  0  0  0
  -28.3933  -32.6788   25.0351 H   0  0  0  0  0  0
  -28.0630  -31.8587   26.5539 H   0  0  0  0  0  0
  -28.2549  -38.0087   24.7530 H   0  0  0  0  0  0
  -28.1105  -36.2619   24.6275 H   0  0  0  0  0  0
  -27.2299  -37.1366   25.8871 H   0  0  0  0  0  0
  -20.9581  -29.8745   21.6671 H   0  0  0  0  0  0
  -26.0130  -38.2763   24.1436 H   0  0  0  0  0  0
  -26.9613  -18.7704   19.3610 H   0  0  0  0  0  0
  -27.1608  -18.5592   21.0739 H   0  0  0  0  0  0
  -31.2797  -18.3077   21.3466 H   0  0  0  0  0  0
  -31.1601  -18.1622   19.6356 H   0  0  0  0  0  0
  -28.7977  -17.2827   18.7946 H   0  0  0  0  0  0
  -27.7324  -16.4651   19.8695 H   0  0  0  0  0  0
  -25.8861  -20.5483   19.9775 H   0  0  0  0  0  0
  -26.1414  -22.0373   19.0874 H   0  0  0  0  0  0
  -25.9693  -22.0587   20.8461 H   0  0  0  0  0  0
  -32.5116  -19.9937   20.3218 H   0  0  0  0  0  0
  -32.4033  -21.1068   21.6821 H   0  0  0  0  0  0
  -32.6533  -21.6975   20.0325 H   0  0  0  0  0  0
  -31.4744  -23.7309   19.4685 H   0  0  0  0  0  0
  -31.6878  -23.5471   21.2162 H   0  0  0  0  0  0
  -30.4139  -24.5643   20.5924 H   0  0  0  0  0  0
  -29.0307  -17.7530   22.5566 H   0  0  0  0  0  0
  -30.0745  -16.3714   22.8205 H   0  0  0  0  0  0
  -28.3971  -16.1467   22.3280 H   0  0  0  0  0  0
  -26.9355  -24.1731   20.6882 H   0  0  0  0  0  0
  -27.4472  -24.2204   19.0408 H   0  0  0  0  0  0
  1 25  1  0  0  0
  1 30  2  0  0  0
  1 80  1  0  0  0
  2  3  1  0  0  0
  2 25  1  0  0  0
  2 86  1  0  0  0
  2 87  1  0  0  0
  3  4  1  0  0  0
  3 88  1  0  0  0
  3 89  1  0  0  0
  4  5  1  0  0  0
  4 90  1  0  0  0
  4 91  1  0  0  0
  5  6  1  0  0  0
  5 26  1  0  0  0
  5 92  1  0  0  0
  6 25  1  0  0  0
  6 93  1  0  0  0
  6 94  1  0  0  0
  7  8  2  0  0  0
  7 26  1  0  0  0
  7 29  1  0  0  0
  8  9  1  0  0  0
  8 22  1  0  0  0
  9 10  1  0  0  0
  9 27  2  0  0  0
 10 11  2  0  0  0
 10 15  1  0  0  0
 11 12  1  0  0  0
 11 95  1  0  0  0
 12 13  2  0  0  0
 12 96  1  0  0  0
 13 14  1  0  0  0
 13 31  1  0  0  0
 14 15  2  0  0  0
 14 97  1  0  0  0
 15 98  1  0  0  0
 16 17  2  0  0  0
 16 21  1  0  0  0
 16 31  1  0  0  0
 17 18  1  0  0  0
 17 99  1  0  0  0
 18 19  2  0  0  0
 18100  1  0  0  0
 19 20  1  0  0  0
 19 24  1  0  0  0
 20 21  2  0  0  0
 20101  1  0  0  0
 21 23  1  0  0  0
 22 28  1  0  0  0
 22 32  2  0  0  0
 26 27  1  0  0  0
 28102  1  0  0  0
 28103  1  0  0  0
 29104  1  0  0  0
 29105  1  0  0  0
 33 34  1  0  0  0
 33 66  1  0  0  0
 33 70  2  0  0  0
 34 36  1  0  0  0
 34 59  1  0  0  0
 34106  1  0  0  0
 35 44  2  0  0  0
 35 45  1  0  0  0
 35 68  1  0  0  0
 36 56  1  0  0  0
 36107  1  0  0  0
 37 39  1  0  0  0
 37 47  1  0  0  0
 37 66  1  0  0  0
 37108  1  0  0  0
 38 43  2  0  0  0
 38 46  1  0  0  0
 38 47  1  0  0  0
 39 64  1  0  0  0
 39 67  2  0  0  0
 40 52  1  0  0  0
 40 53  2  0  0  0
 40 58  1  0  0  0
 41109  1  0  0  0
 41110  1  0  0  0
 41111  1  0  0  0
 41 48  1  0  0  0
 42 43  1  0  0  0
 42 66  1  0  0  0
 42112  1  0  0  0
 42113  1  0  0  0
 43 44  1  0  0  0
 44114  1  0  0  0
 45 46  2  0  0  0
 45115  1  0  0  0
 46116  1  0  0  0
 47117  1  0  0  0
 47118  1  0  0  0
 48 56  1  0  0  0
 48 65  1  0  0  0
 48119  1  0  0  0
 49 50  1  0  0  0
 49 53  1  0  0  0
 49 64  1  0  0  0
 49120  1  0  0  0
 50 51  1  0  0  0
 50121  1  0  0  0
 50122  1  0  0  0
 51 52  1  0  0  0
 51123  1  0  0  0
 51124  1  0  0  0
 52125  1  0  0  0
 52126  1  0  0  0
 53 54  1  0  0  0
 54 55  2  0  0  0
 54127  1  0  0  0
 55 57  1  0  0  0
 55128  1  0  0  0
 56 69  2  0  0  0
 57 58  2  0  0  0
 57129  1  0  0  0
 58130  1  0  0  0
 59 60  1  0  0  0
 59 61  1  0  0  0
 59 62  1  0  0  0
 60131  1  0  0  0
 60132  1  0  0  0
 60133  1  0  0  0
 61134  1  0  0  0
 61135  1  0  0  0
 61136  1  0  0  0
 62137  1  0  0  0
 62138  1  0  0  0
 62139  1  0  0  0
 63 65  1  0  0  0
 63140  1  0  0  0
 63141  1  0  0  0
 63142  1  0  0  0
 64143  1  0  0  0
 65144  1  0  0  0
 68 85  1  0  0  0
 71 72  1  0  0  0
 71 73  2  0  0  0
 71 77  1  0  0  0
 72 74  2  0  0  0
 72 78  1  0  0  0
 73 76  1  0  0  0
 73 81  1  0  0  0
 74 75  1  0  0  0
 74 82  1  0  0  0
 75 76  2  0  0  0
 75 83  1  0  0  0
 76 85  1  0  0  0
 77 79  1  0  0  0
 77145  1  0  0  0
 77146  1  0  0  0
 78 80  1  0  0  0
 78147  1  0  0  0
 78148  1  0  0  0
 79 80  1  0  0  0
 79149  1  0  0  0
 79150  1  0  0  0
 80 84  1  0  0  0
 81151  1  0  0  0
 81152  1  0  0  0
 81153  1  0  0  0
 82154  1  0  0  0
 82155  1  0  0  0
 82156  1  0  0  0
 83157  1  0  0  0
 83158  1  0  0  0
 83159  1  0  0  0
 84160  1  0  0  0
 84161  1  0  0  0
 84162  1  0  0  0
 85163  1  0  0  0
 85164  1  0  0  0
M  ISO  4   1 100  68 101  80 100  85 101
M  END
> <chiral flag>
0

> <version>
0

> <s_m_source_file>
/data/baiqing/PycharmProjects/Reinvent-master-3.2/result/LINK_invent/BTK/process_docking_weight1_custom_sum_contain_oxygen_bond_distance_aromatic_linkinvent_7_9_3/rearranged_h_0163.sdf

> <i_m_source_file_index>
47

> <r_mmod_Potential_Energy-OPLS-2005>
1130.90502929688

> <r_mmod_Stretch_Energy-OPLS-2005>
479.459533691406

> <r_mmod_Bend_Energy-OPLS-2005>
400.904388427734

> <r_mmod_Torsional_Energy-OPLS-2005>
215.179809570312

> <r_mmod_Improper_Torsional_Energy-OPLS-2005>
1.96180260181427

> <r_mmod_Van_der_Waal_Energy-OPLS-2005>
137.939651489258

> <r_mmod_Electrostatic_Energy-OPLS-2005>
-327.648223876953

> <r_mmod_Solvation_Energy-OPLS-2005>
-189.746887207031

> <b_mmod_Minimization_Converged-OPLS-2005>
0

> <r_mmod_RMS_Derivative-OPLS-2005>
1.43779408931732

$$$$
47
                    3D
 Structure written by MMmdl.
171180  0  0  1  0            999 V2000
  -30.6063  -15.0786   20.4293 C   0  0  0  0  0  0
  -30.3979  -12.6748   19.5660 C   0  0  0  0  0  0
  -29.5421  -12.5287   18.2909 C   0  0  0  0  0  0
  -28.0742  -12.2805   18.6666 C   0  0  0  0  0  0
  -27.6210  -13.1926   19.8406 C   0  0  2  0  0  0
  -28.6385  -13.4313   20.9850 C   0  0  0  0  0  0
  -25.2251  -13.6801   20.4539 C   0  0  0  0  0  0
  -24.1768  -12.9810   20.9065 C   0  0  0  0  0  0
  -24.6531  -11.6261   20.9189 C   0  0  0  0  0  0
  -23.9181  -10.3900   21.0753 C   0  0  0  0  0  0
  -24.3665   -9.3768   21.9486 C   0  0  0  0  0  0
  -23.6266   -8.1881   22.0870 C   0  0  0  0  0  0
  -22.4257   -8.0118   21.3573 C   0  0  0  0  0  0
  -21.9969   -9.0168   20.4700 C   0  0  0  0  0  0
  -22.7386  -10.1959   20.3258 C   0  0  0  0  0  0
  -21.6760   -6.0682   22.5289 C   0  0  0  0  0  0
  -21.3942   -6.5604   23.8211 C   0  0  0  0  0  0
  -21.3624   -5.6772   24.9190 C   0  0  0  0  0  0
  -21.6026   -4.3028   24.7234 C   0  0  0  0  0  0
  -21.8811   -3.8119   23.4345 C   0  0  0  0  0  0
  -21.9140   -4.6937   22.3406 C   0  0  0  0  0  0
  -22.7815  -13.4868   21.1668 C   0  0  0  0  0  0
  -22.1633   -4.2118   21.0990 F   0  0  0  0  0  0
  -21.5639   -3.4521   25.7760 F   0  0  0  0  0  0
  -29.8986  -13.8587   20.3715 N   0  0  0  0  0  0
  -26.2950  -12.8443   20.3184 N   0  0  0  0  0  0
  -25.9532  -11.5757   20.6215 N   0  0  0  0  0  0
  -22.0448  -12.8258   22.0294 N   0  0  0  0  0  0
  -25.4256  -14.9732   20.0520 N   0  0  0  0  0  0
  -31.7967  -14.8799   20.1211 O   0  0  0  0  0  0
  -21.6482   -6.8817   21.4257 O   0  0  0  0  0  0
  -22.3677  -14.5300   20.6428 O   0  0  0  0  0  0
  -24.6497  -31.8479   23.1724 C   0  0  0  0  0  0
  -25.9210  -32.4619   23.8127 C   0  0  1  0  0  0
  -27.0780  -27.0214   20.0904 C   0  0  0  0  0  0
  -25.6052  -33.8373   24.2180 N   0  0  0  0  0  0
  -23.4383  -30.4651   21.5373 C   0  0  2  0  0  0
  -24.8333  -28.8566   20.1151 C   0  0  0  0  0  0
  -22.7342  -29.4795   22.5135 C   0  0  0  0  0  0
  -18.0504  -28.1027   22.7660 C   0  0  0  0  0  0
  -24.1480  -36.7243   23.2615 C   0  0  0  0  0  0
  -25.9885  -30.6859   21.3774 C   0  0  0  0  0  0
  -26.0291  -29.2813   20.7022 C   0  0  0  0  0  0
  -27.1598  -28.3724   20.6650 C   0  0  0  0  0  0
  -25.8574  -26.7147   19.4805 C   0  0  0  0  0  0
  -24.7570  -27.6021   19.4952 C   0  0  0  0  0  0
  -23.6430  -29.7839   20.1721 C   0  0  0  0  0  0
  -25.4104  -36.2916   24.0261 C   0  0  1  0  0  0
  -20.5939  -28.3619   23.1861 C   0  0  2  0  0  0
  -20.6971  -26.9406   22.6419 C   0  0  0  0  0  0
  -19.6451  -26.5513   21.5782 C   0  0  0  0  0  0
  -18.2201  -26.7799   22.0314 C   0  0  0  0  0  0
  -19.1434  -28.8216   23.2819 C   0  0  0  0  0  0
  -18.9786  -30.0580   23.9244 C   0  0  0  0  0  0
  -17.7066  -30.6084   24.0144 C   0  0  0  0  0  0
  -25.9083  -34.9380   23.5036 C   0  0  0  0  0  0
  -16.5690  -29.8759   23.5642 C   0  0  0  0  0  0
  -16.7642  -28.6171   22.9322 C   0  0  0  0  0  0
  -26.4518  -31.6518   25.0592 C   0  0  0  0  0  0
  -25.3708  -31.3772   26.1309 C   0  0  0  0  0  0
  -27.0465  -30.2920   24.6305 C   0  0  0  0  0  0
  -27.6038  -32.4273   25.7505 C   0  0  0  0  0  0
  -27.5583  -37.1755   24.8462 C   0  0  0  0  0  0
  -21.3909  -29.3219   22.4210 N   0  0  0  0  0  0
  -26.4293  -37.3667   23.9366 N   0  0  0  0  0  0
  -24.7109  -31.0121   22.0816 N   0  0  0  0  0  0
  -23.4092  -28.8246   23.3191 O   0  0  0  0  0  0
  -28.1205  -26.0218   20.0566 O   0  0  0  0  0  0
  -26.5685  -34.8889   22.4567 O   0  0  0  0  0  0
  -23.5655  -32.1499   23.6994 O   0  0  0  0  0  0
  -28.6659  -18.1136   22.0509 C   0  0  0  0  0  0
  -28.0351  -18.4766   20.1025 C   0  0  0  0  0  0
  -28.9010  -17.4326   20.8427 C   0  0  0  0  0  0
  -26.8886  -18.1245   20.8052 C   0  0  0  0  0  0
  -27.0277  -19.9055   24.1250 C   0  0  0  0  0  0
  -26.6472  -19.6285   22.7084 C   0  0  1  0  0  0
  -26.6203  -21.1214   22.5125 C   0  0  1  0  0  0
  -25.3260  -17.9838   20.7686 C   0  0  0  0  0  0
  -25.3021  -21.8747   22.2468 C   0  0  0  0  0  0
  -26.5284  -19.8931   18.5888 C   0  0  0  0  0  0
  -31.4062  -17.2385   21.1375 C   0  0  0  0  0  0
  -27.5138  -22.9047   19.4168 C   0  0  0  0  0  0
  -28.4907  -21.4628   19.1979 C   0  0  0  0  0  0
  -28.2196  -24.4169   19.8580 C   0  0  0  0  0  0
  -28.0307  -19.7736   18.9672 C   0  0  1  0  0  0
  -27.3950  -18.6778   21.9476 N   0  0  0  0  0  0
  -30.1817  -16.4956   20.6961 N   0  0  0  0  0  0
  -27.1267  -21.3311   23.8676 O   0  0  0  0  0  0
  -31.4410  -12.7544   19.2517 H   0  0  0  0  0  0
  -30.3603  -11.7615   20.1656 H   0  0  0  0  0  0
  -29.9370  -11.7212   17.6649 H   0  0  0  0  0  0
  -29.6125  -13.4531   17.7198 H   0  0  0  0  0  0
  -27.9752  -11.2190   18.9276 H   0  0  0  0  0  0
  -27.4503  -12.4570   17.7820 H   0  0  0  0  0  0
  -27.5445  -14.1617   19.3614 H   0  0  0  0  0  0
  -28.7802  -12.5661   21.6370 H   0  0  0  0  0  0
  -28.2618  -14.2279   21.6240 H   0  0  0  0  0  0
  -25.2786   -9.5088   22.5114 H   0  0  0  0  0  0
  -23.9824   -7.4177   22.7577 H   0  0  0  0  0  0
  -21.0865   -8.8835   19.9009 H   0  0  0  0  0  0
  -22.4028  -10.9619   19.6391 H   0  0  0  0  0  0
  -21.1942   -7.6104   23.9717 H   0  0  0  0  0  0
  -21.1476   -6.0505   25.9091 H   0  0  0  0  0  0
  -22.0649   -2.7585   23.2859 H   0  0  0  0  0  0
  -22.4051  -11.9883   22.4642 H   0  0  0  0  0  0
  -21.1254  -13.1643   22.2754 H   0  0  0  0  0  0
  -24.7153  -15.6861   19.9831 H   0  0  0  0  0  0
  -26.3501  -15.3425   19.8861 H   0  0  0  0  0  0
  -26.7400  -32.5272   23.1010 H   0  0  0  0  0  0
  -25.0109  -33.9574   25.0302 H   0  0  0  0  0  0
  -22.7398  -31.2784   21.3952 H   0  0  0  0  0  0
  -23.3727  -35.9613   23.3224 H   0  0  0  0  0  0
  -24.3587  -36.8953   22.2066 H   0  0  0  0  0  0
  -23.7371  -37.6424   23.6744 H   0  0  0  0  0  0
  -26.1562  -31.4264   20.5969 H   0  0  0  0  0  0
  -26.8590  -30.7089   22.0181 H   0  0  0  0  0  0
  -28.0898  -28.7007   21.1114 H   0  0  0  0  0  0
  -25.7516  -25.7464   19.0197 H   0  0  0  0  0  0
  -23.8268  -27.2742   19.0567 H   0  0  0  0  0  0
  -23.7686  -30.5406   19.4210 H   0  0  0  0  0  0
  -22.7485  -29.2384   19.9066 H   0  0  0  0  0  0
  -25.1321  -36.1675   25.0775 H   0  0  0  0  0  0
  -20.9600  -28.3175   24.2096 H   0  0  0  0  0  0
  -20.6784  -26.3103   23.5418 H   0  0  0  0  0  0
  -21.7085  -26.8532   22.2655 H   0  0  0  0  0  0
  -19.7056  -25.5041   21.2802 H   0  0  0  0  0  0
  -19.8361  -27.1552   20.6952 H   0  0  0  0  0  0
  -17.5765  -26.6837   21.1478 H   0  0  0  0  0  0
  -17.9238  -25.9834   22.7411 H   0  0  0  0  0  0
  -19.8717  -30.5512   24.2969 H   0  0  0  0  0  0
  -17.5923  -31.5409   24.5289 H   0  0  0  0  0  0
  -15.5678  -30.2774   23.6419 H   0  0  0  0  0  0
  -15.9203  -28.0549   22.5440 H   0  0  0  0  0  0
  -24.5863  -30.7125   25.7704 H   0  0  0  0  0  0
  -24.8898  -32.2978   26.4622 H   0  0  0  0  0  0
  -25.7892  -30.9059   27.0266 H   0  0  0  0  0  0
  -26.3198  -29.6585   24.1231 H   0  0  0  0  0  0
  -27.4068  -29.7138   25.4886 H   0  0  0  0  0  0
  -27.9063  -30.4145   23.9696 H   0  0  0  0  0  0
  -27.2605  -33.3622   26.2047 H   0  0  0  0  0  0
  -28.3941  -32.6863   25.0386 H   0  0  0  0  0  0
  -28.0717  -31.8459   26.5570 H   0  0  0  0  0  0
  -28.2504  -38.0139   24.7440 H   0  0  0  0  0  0
  -28.1155  -36.2624   24.6299 H   0  0  0  0  0  0
  -27.2284  -37.1418   25.8874 H   0  0  0  0  0  0
  -20.9587  -29.9782   21.7903 H   0  0  0  0  0  0
  -26.0090  -38.2680   24.1423 H   0  0  0  0  0  0
  -29.2880  -18.2040   22.9452 H   0  0  0  0  0  0
  -27.9952  -19.4970   24.4226 H   0  0  0  0  0  0
  -26.1631  -19.6701   24.7397 H   0  0  0  0  0  0
  -25.5925  -19.4746   22.6050 H   0  0  0  0  0  0
  -27.3826  -21.3746   21.7781 H   0  0  0  0  0  0
  -25.0136  -17.0094   20.6179 H   0  0  0  0  0  0
  -24.7551  -18.4640   19.9953 H   0  0  0  0  0  0
  -24.8238  -17.9036   21.7435 H   0  0  0  0  0  0
  -24.4500  -21.4791   22.8165 H   0  0  0  0  0  0
  -24.9004  -21.6409   21.2562 H   0  0  0  0  0  0
  -25.3846  -22.9797   22.4131 H   0  0  0  0  0  0
  -25.9294  -20.1710   19.4511 H   0  0  0  0  0  0
  -26.1759  -18.9229   18.2230 H   0  0  0  0  0  0
  -26.2855  -20.6645   17.8518 H   0  0  0  0  0  0
  -31.2312  -18.1753   21.6413 H   0  0  0  0  0  0
  -31.9934  -17.4791   20.2576 H   0  0  0  0  0  0
  -32.0830  -16.6839   21.8073 H   0  0  0  0  0  0
  -26.7887  -23.0359   18.6051 H   0  0  0  0  0  0
  -26.8581  -22.6703   20.2503 H   0  0  0  0  0  0
  -29.2228  -21.5134   20.0116 H   0  0  0  0  0  0
  -29.1285  -21.7339   18.2900 H   0  0  0  0  0  0
  -28.9974  -24.4145   19.1077 H   0  0  0  0  0  0
  -28.7656  -24.1474   20.7635 H   0  0  0  0  0  0
  -28.5965  -19.3629   18.1168 H   0  0  0  0  0  0
  1 25  1  0  0  0
  1 30  2  0  0  0
  1 87  1  0  0  0
  2  3  1  0  0  0
  2 25  1  0  0  0
  2 89  1  0  0  0
  2 90  1  0  0  0
  3  4  1  0  0  0
  3 91  1  0  0  0
  3 92  1  0  0  0
  4  5  1  0  0  0
  4 93  1  0  0  0
  4 94  1  0  0  0
  5  6  1  0  0  0
  5 26  1  0  0  0
  5 95  1  0  0  0
  6 25  1  0  0  0
  6 96  1  0  0  0
  6 97  1  0  0  0
  7  8  2  0  0  0
  7 26  1  0  0  0
  7 29  1  0  0  0
  8  9  1  0  0  0
  8 22  1  0  0  0
  9 10  1  0  0  0
  9 27  2  0  0  0
 10 11  2  0  0  0
 10 15  1  0  0  0
 11 12  1  0  0  0
 11 98  1  0  0  0
 12 13  2  0  0  0
 12 99  1  0  0  0
 13 14  1  0  0  0
 13 31  1  0  0  0
 14 15  2  0  0  0
 14100  1  0  0  0
 15101  1  0  0  0
 16 17  2  0  0  0
 16 21  1  0  0  0
 16 31  1  0  0  0
 17 18  1  0  0  0
 17102  1  0  0  0
 18 19  2  0  0  0
 18103  1  0  0  0
 19 20  1  0  0  0
 19 24  1  0  0  0
 20 21  2  0  0  0
 20104  1  0  0  0
 21 23  1  0  0  0
 22 28  1  0  0  0
 22 32  2  0  0  0
 26 27  1  0  0  0
 28105  1  0  0  0
 28106  1  0  0  0
 29107  1  0  0  0
 29108  1  0  0  0
 33 34  1  0  0  0
 33 66  1  0  0  0
 33 70  2  0  0  0
 34 36  1  0  0  0
 34 59  1  0  0  0
 34109  1  0  0  0
 35 44  2  0  0  0
 35 45  1  0  0  0
 35 68  1  0  0  0
 36 56  1  0  0  0
 36110  1  0  0  0
 37 39  1  0  0  0
 37 47  1  0  0  0
 37 66  1  0  0  0
 37111  1  0  0  0
 38 43  2  0  0  0
 38 46  1  0  0  0
 38 47  1  0  0  0
 39 64  1  0  0  0
 39 67  2  0  0  0
 40 52  1  0  0  0
 40 53  2  0  0  0
 40 58  1  0  0  0
 41112  1  0  0  0
 41113  1  0  0  0
 41114  1  0  0  0
 41 48  1  0  0  0
 42 43  1  0  0  0
 42 66  1  0  0  0
 42115  1  0  0  0
 42116  1  0  0  0
 43 44  1  0  0  0
 44117  1  0  0  0
 45 46  2  0  0  0
 45118  1  0  0  0
 46119  1  0  0  0
 47120  1  0  0  0
 47121  1  0  0  0
 48 56  1  0  0  0
 48 65  1  0  0  0
 48122  1  0  0  0
 49 50  1  0  0  0
 49 53  1  0  0  0
 49 64  1  0  0  0
 49123  1  0  0  0
 50 51  1  0  0  0
 50124  1  0  0  0
 50125  1  0  0  0
 51 52  1  0  0  0
 51126  1  0  0  0
 51127  1  0  0  0
 52128  1  0  0  0
 52129  1  0  0  0
 53 54  1  0  0  0
 54 55  2  0  0  0
 54130  1  0  0  0
 55 57  1  0  0  0
 55131  1  0  0  0
 56 69  2  0  0  0
 57 58  2  0  0  0
 57132  1  0  0  0
 58133  1  0  0  0
 59 60  1  0  0  0
 59 61  1  0  0  0
 59 62  1  0  0  0
 60134  1  0  0  0
 60135  1  0  0  0
 60136  1  0  0  0
 61137  1  0  0  0
 61138  1  0  0  0
 61139  1  0  0  0
 62140  1  0  0  0
 62141  1  0  0  0
 62142  1  0  0  0
 63 65  1  0  0  0
 63143  1  0  0  0
 63144  1  0  0  0
 63145  1  0  0  0
 64146  1  0  0  0
 65147  1  0  0  0
 68 84  1  0  0  0
 71 73  2  0  0  0
 71 86  1  0  0  0
 71148  1  0  0  0
 72 73  1  0  0  0
 72 74  2  0  0  0
 72 85  1  0  0  0
 73 87  1  0  0  0
 74 78  1  0  0  0
 74 86  1  0  0  0
 75 76  1  0  0  0
 75 88  1  0  0  0
 75149  1  0  0  0
 75150  1  0  0  0
 76 77  1  0  0  0
 76 86  1  0  0  0
 76151  1  0  0  0
 77 79  1  0  0  0
 77 88  1  0  0  0
 77152  1  0  0  0
 78153  1  0  0  0
 78154  1  0  0  0
 78155  1  0  0  0
 79156  1  0  0  0
 79157  1  0  0  0
 79158  1  0  0  0
 80159  1  0  0  0
 80160  1  0  0  0
 80161  1  0  0  0
 80 85  1  0  0  0
 81 87  1  0  0  0
 81162  1  0  0  0
 81163  1  0  0  0
 81164  1  0  0  0
 82 83  1  0  0  0
 82 84  1  0  0  0
 82165  1  0  0  0
 82166  1  0  0  0
 83 85  1  0  0  0
 83167  1  0  0  0
 83168  1  0  0  0
 84169  1  0  0  0
 84170  1  0  0  0
 85171  1  0  0  0
M  ISO  4   1 100  68 101  84 101  87 100
M  END
> <chiral flag>
0

> <version>
0

> <s_m_source_file>
/data/baiqing/PycharmProjects/Reinvent-master-3.2/result/LINK_invent/BTK/process_docking_weight1_custom_sum_contain_oxygen_bond_distance_aromatic_linkinvent_7_9_3/rearranged_h_0163.sdf

> <i_m_source_file_index>
48

> <r_mmod_Potential_Energy-OPLS-2005>
1917.853515625

> <r_mmod_Stretch_Energy-OPLS-2005>
540.74169921875

> <r_mmod_Bend_Energy-OPLS-2005>
805.879455566406

> <r_mmod_Torsional_Energy-OPLS-2005>
537.318176269531

> <r_mmod_Improper_Torsional_Energy-OPLS-2005>
23.1209316253662

> <r_mmod_Van_der_Waal_Energy-OPLS-2005>
188.702819824219

> <r_mmod_Electrostatic_Energy-OPLS-2005>
-306.195373535156

> <r_mmod_Solvation_Energy-OPLS-2005>
-202.324478149414

> <b_mmod_Minimization_Converged-OPLS-2005>
0

> <r_mmod_RMS_Derivative-OPLS-2005>
50.07666015625

$$$$
48
                    3D
 Structure written by MMmdl.
183194  0  0  1  0            999 V2000
  -30.7452  -14.4507   20.6541 C   0  0  0  0  0  0
  -30.4136  -12.3250   19.4210 C   0  0  0  0  0  0
  -29.4851  -12.5037   18.2062 C   0  0  0  0  0  0
  -28.0098  -12.3660   18.6221 C   0  0  0  0  0  0
  -27.6572  -13.2062   19.8774 C   0  0  2  0  0  0
  -28.6969  -13.0005   20.9990 C   0  0  0  0  0  0
  -25.2604  -13.8177   20.5737 C   0  0  0  0  0  0
  -24.1848  -13.0458   20.9167 C   0  0  0  0  0  0
  -24.6387  -11.6913   20.8714 C   0  0  0  0  0  0
  -23.9055  -10.4301   21.0377 C   0  0  0  0  0  0
  -24.3627   -9.4227   21.9164 C   0  0  0  0  0  0
  -23.6305   -8.2263   22.0749 C   0  0  0  0  0  0
  -22.4279   -8.0290   21.3547 C   0  0  0  0  0  0
  -21.9905   -9.0267   20.4644 C   0  0  0  0  0  0
  -22.7228  -10.2141   20.3038 C   0  0  0  0  0  0
  -21.6867   -6.0735   22.5271 C   0  0  0  0  0  0
  -21.4014   -6.5638   23.8205 C   0  0  0  0  0  0
  -21.3649   -5.6786   24.9166 C   0  0  0  0  0  0
  -21.6040   -4.3049   24.7215 C   0  0  0  0  0  0
  -21.8828   -3.8155   23.4331 C   0  0  0  0  0  0
  -21.9216   -4.6969   22.3391 C   0  0  0  0  0  0
  -22.7873  -13.5246   21.1854 C   0  0  0  0  0  0
  -22.1669   -4.2153   21.0964 F   0  0  0  0  0  0
  -21.5646   -3.4519   25.7725 F   0  0  0  0  0  0
  -30.0297  -13.3070   20.4508 N   0  0  0  0  0  0
  -26.3016  -12.9335   20.3401 N   0  0  0  0  0  0
  -25.9321  -11.6494   20.5794 N   0  0  0  0  0  0
  -22.0545  -12.8216   22.0414 N   0  0  0  0  0  0
  -25.4356  -15.1903   20.4192 N   0  0  0  0  0  0
  -31.8154  -14.6697   20.0765 O   0  0  0  0  0  0
  -21.6659   -6.8878   21.4235 O   0  0  0  0  0  0
  -22.3548  -14.5556   20.6715 O   0  0  0  0  0  0
  -24.6150  -31.8681   23.2117 C   0  0  0  0  0  0
  -25.9056  -32.4812   23.8411 C   0  0  1  0  0  0
  -27.2281  -27.4157   20.0966 C   0  0  0  0  0  0
  -25.5935  -33.8616   24.2341 N   0  0  0  0  0  0
  -23.4030  -30.4940   21.5521 C   0  0  2  0  0  0
  -24.8479  -28.9643   20.1119 C   0  0  0  0  0  0
  -22.7404  -29.4665   22.4978 C   0  0  0  0  0  0
  -18.0280  -28.1356   22.8477 C   0  0  0  0  0  0
  -24.1500  -36.7300   23.2637 C   0  0  0  0  0  0
  -25.9354  -30.8268   21.3721 C   0  0  0  0  0  0
  -26.0098  -29.4630   20.7126 C   0  0  0  0  0  0
  -27.2002  -28.6961   20.7031 C   0  0  0  0  0  0
  -26.0427  -26.9464   19.4765 C   0  0  0  0  0  0
  -24.8593  -27.7046   19.4937 C   0  0  0  0  0  0
  -23.6115  -29.8331   20.1645 C   0  0  0  0  0  0
  -25.4122  -36.3104   24.0341 C   0  0  1  0  0  0
  -20.5863  -28.3663   23.1300 C   0  0  2  0  0  0
  -20.6770  -26.9401   22.5406 C   0  0  0  0  0  0
  -19.5764  -26.6374   21.5192 C   0  0  0  0  0  0
  -18.1935  -26.7906   22.1601 C   0  0  0  0  0  0
  -19.1520  -28.8829   23.2882 C   0  0  0  0  0  0
  -18.9450  -30.1430   23.8896 C   0  0  0  0  0  0
  -17.6457  -30.6572   24.0554 C   0  0  0  0  0  0
  -25.9052  -34.9467   23.5130 C   0  0  0  0  0  0
  -16.5355  -29.9074   23.6311 C   0  0  0  0  0  0
  -16.7275  -28.6488   23.0348 C   0  0  0  0  0  0
  -26.4488  -31.6584   25.0736 C   0  0  0  0  0  0
  -25.3745  -31.3683   26.1471 C   0  0  0  0  0  0
  -27.0338  -30.3032   24.6117 C   0  0  0  0  0  0
  -27.6047  -32.4316   25.7513 C   0  0  0  0  0  0
  -27.5591  -37.1805   24.8463 C   0  0  0  0  0  0
  -21.4135  -29.3040   22.3706 N   0  0  0  0  0  0
  -26.4298  -37.3793   23.9413 N   0  0  0  0  0  0
  -24.6686  -31.0780   22.1023 N   0  0  0  0  0  0
  -23.4166  -28.8201   23.3024 O   0  0  0  0  0  0
  -28.3891  -26.6566   20.1438 O   0  0  0  0  0  0
  -26.5587  -34.8917   22.4677 O   0  0  0  0  0  0
  -23.5342  -32.1454   23.7501 O   0  0  0  0  0  0
  -28.0465  -16.7035   17.1506 C   0  0  0  0  0  0
  -27.5439  -17.9885   16.8528 C   0  0  0  0  0  0
  -28.8118  -16.4947   18.3161 C   0  0  0  0  0  0
  -27.8214  -19.0754   17.7075 C   0  0  0  0  0  0
  -29.0598  -17.5791   19.1768 C   0  0  0  0  0  0
  -28.5960  -18.8560   18.8670 C   0  0  0  0  0  0
  -30.3599  -16.6947   23.5728 C   0  0  0  0  0  0
  -29.0125  -16.7970   22.8749 C   0  0  0  0  0  0
  -29.8346  -19.0450   20.9091 C   0  0  0  0  0  0
  -30.0982  -20.8094   19.0352 C   0  0  0  0  0  0
  -31.0740  -15.5611   22.8250 C   0  0  0  0  0  0
  -28.4194  -22.1643   20.9707 C   0  0  0  0  0  0
  -29.8537  -17.5339   20.4601 C   0  0  1  0  0  0
  -27.9347  -20.8243   20.3594 C   0  0  1  0  0  0
  -29.3195  -16.3963   21.4247 C   0  0  1  0  0  0
  -30.5029  -22.1396   19.7179 C   0  0  1  0  0  0
  -29.0985  -19.9184   19.8274 C   0  0  1  0  0  0
  -26.9464  -20.1098   21.3027 C   0  0  0  0  0  0
  -31.5199  -22.8764   18.8188 C   0  0  0  0  0  0
  -29.4385  -24.3768   20.3979 C   0  0  0  0  0  0
  -28.2575  -25.2426   19.8899 C   0  0  0  0  0  0
  -30.2919  -15.2948   21.6132 N   0  0  0  0  0  0
  -29.2676  -22.9306   20.0160 N   0  3  2  0  0  0
  -31.4571  -12.4216   19.1160 H   0  0  0  0  0  0
  -30.3180  -11.3155   19.8218 H   0  0  0  0  0  0
  -29.7222  -11.7672   17.4382 H   0  0  0  0  0  0
  -29.6539  -13.4767   17.7482 H   0  0  0  0  0  0
  -27.8257  -11.3107   18.8250 H   0  0  0  0  0  0
  -27.3585  -12.6339   17.7892 H   0  0  0  0  0  0
  -27.6880  -14.2492   19.5776 H   0  0  0  0  0  0
  -28.6757  -11.9679   21.3497 H   0  0  0  0  0  0
  -28.4399  -13.6060   21.8693 H   0  0  0  0  0  0
  -25.2776   -9.5724   22.4726 H   0  0  0  0  0  0
  -24.0021   -7.4648   22.7461 H   0  0  0  0  0  0
  -21.0852   -8.8788   19.8933 H   0  0  0  0  0  0
  -22.3700  -10.9684   19.6142 H   0  0  0  0  0  0
  -21.1975   -7.6141   23.9708 H   0  0  0  0  0  0
  -21.1462   -6.0513   25.9069 H   0  0  0  0  0  0
  -22.0610   -2.7623   23.2836 H   0  0  0  0  0  0
  -22.4192  -11.9851   22.4726 H   0  0  0  0  0  0
  -21.1163  -13.1219   22.2666 H   0  0  0  0  0  0
  -24.6698  -15.8444   20.5267 H   0  0  0  0  0  0
  -26.2964  -15.6344   20.1267 H   0  0  0  0  0  0
  -26.7121  -32.5526   23.1165 H   0  0  0  0  0  0
  -25.0156  -33.9798   25.0533 H   0  0  0  0  0  0
  -22.6915  -31.3102   21.4159 H   0  0  0  0  0  0
  -23.3775  -35.9614   23.3283 H   0  0  0  0  0  0
  -24.3598  -36.8926   22.2050 H   0  0  0  0  0  0
  -23.7226  -37.6494   23.6660 H   0  0  0  0  0  0
  -26.0594  -31.5967   20.6091 H   0  0  0  0  0  0
  -26.8178  -30.8686   21.9988 H   0  0  0  0  0  0
  -28.0923  -29.0746   21.1830 H   0  0  0  0  0  0
  -25.9970  -25.9909   18.9762 H   0  0  0  0  0  0
  -23.9655  -27.3148   19.0267 H   0  0  0  0  0  0
  -23.7228  -30.6114   19.4086 H   0  0  0  0  0  0
  -22.7343  -29.2563   19.8655 H   0  0  0  0  0  0
  -25.1285  -36.1973   25.0829 H   0  0  0  0  0  0
  -20.9961  -28.3231   24.1419 H   0  0  0  0  0  0
  -20.5684  -26.2266   23.3589 H   0  0  0  0  0  0
  -21.6645  -26.7441   22.1215 H   0  0  0  0  0  0
  -19.6941  -25.6287   21.1227 H   0  0  0  0  0  0
  -19.6713  -27.3167   20.6707 H   0  0  0  0  0  0
  -17.4212  -26.6649   21.3998 H   0  0  0  0  0  0
  -18.0345  -26.0035   22.8989 H   0  0  0  0  0  0
  -19.7927  -30.7225   24.2288 H   0  0  0  0  0  0
  -17.5024  -31.6254   24.5149 H   0  0  0  0  0  0
  -15.5364  -30.2988   23.7629 H   0  0  0  0  0  0
  -15.8674  -28.0818   22.7070 H   0  0  0  0  0  0
  -24.5924  -30.7029   25.7798 H   0  0  0  0  0  0
  -24.8939  -32.2837   26.4930 H   0  0  0  0  0  0
  -25.8097  -30.8845   27.0221 H   0  0  0  0  0  0
  -26.2895  -29.6791   24.1156 H   0  0  0  0  0  0
  -27.4094  -29.7270   25.4581 H   0  0  0  0  0  0
  -27.8739  -30.4367   23.9292 H   0  0  0  0  0  0
  -27.2652  -33.3601   26.2118 H   0  0  0  0  0  0
  -28.3854  -32.6897   25.0344 H   0  0  0  0  0  0
  -28.0721  -31.8424   26.5411 H   0  0  0  0  0  0
  -28.2580  -38.0132   24.7547 H   0  0  0  0  0  0
  -28.1115  -36.2654   24.6251 H   0  0  0  0  0  0
  -27.2309  -37.1417   25.8867 H   0  0  0  0  0  0
  -20.9286  -29.8772   21.6944 H   0  0  0  0  0  0
  -26.0184  -38.2868   24.1424 H   0  0  0  0  0  0
  -27.8521  -15.8807   16.4778 H   0  0  0  0  0  0
  -26.9663  -18.1447   15.9519 H   0  0  0  0  0  0
  -29.2107  -15.5168   18.5279 H   0  0  0  0  0  0
  -27.4611  -20.0622   17.4555 H   0  0  0  0  0  0
  -30.2615  -16.4948   24.6405 H   0  0  0  0  0  0
  -30.9153  -17.6273   23.4620 H   0  0  0  0  0  0
  -28.4995  -17.7466   23.0149 H   0  0  0  0  0  0
  -28.3441  -16.0489   23.3051 H   0  0  0  0  0  0
  -30.8645  -19.3812   21.0289 H   0  0  0  0  0  0
  -29.4085  -19.2060   21.8908 H   0  0  0  0  0  0
  -30.9862  -20.2260   18.7891 H   0  0  0  0  0  0
  -29.6622  -21.0672   18.0693 H   0  0  0  0  0  0
  -31.1226  -14.6594   23.4392 H   0  0  0  0  0  0
  -32.0977  -15.8468   22.5775 H   0  0  0  0  0  0
  -28.9713  -21.9870   21.8956 H   0  0  0  0  0  0
  -27.5499  -22.7597   21.2512 H   0  0  0  0  0  0
  -30.8818  -17.3068   20.1709 H   0  0  0  0  0  0
  -27.3431  -21.1189   19.4927 H   0  0  0  0  0  0
  -28.3986  -15.9858   21.0121 H   0  0  0  0  0  0
  -31.0080  -21.9088   20.6577 H   0  0  0  0  0  0
  -27.3678  -19.9402   22.2930 H   0  0  0  0  0  0
  -26.6336  -19.1474   20.8983 H   0  0  0  0  0  0
  -26.0465  -20.7091   21.4407 H   0  0  0  0  0  0
  -31.0465  -23.3264   17.9461 H   0  0  0  0  0  0
  -32.2867  -22.1916   18.4531 H   0  0  0  0  0  0
  -32.0558  -23.6557   19.3605 H   0  0  0  0  0  0
  -29.5471  -24.4685   21.4798 H   0  0  0  0  0  0
  -30.3381  -24.8123   19.9724 H   0  0  0  0  0  0
  -27.3467  -24.8660   20.3581 H   0  0  0  0  0  0
  -28.1516  -25.1052   18.8117 H   0  0  0  0  0  0
  -28.7545  -22.9544   19.1461 H   0  0  0  0  0  0
  1 25  1  0  0  0
  1 30  2  0  0  0
  1 92  1  0  0  0
  2  3  1  0  0  0
  2 25  1  0  0  0
  2 94  1  0  0  0
  2 95  1  0  0  0
  3  4  1  0  0  0
  3 96  1  0  0  0
  3 97  1  0  0  0
  4  5  1  0  0  0
  4 98  1  0  0  0
  4 99  1  0  0  0
  5  6  1  0  0  0
  5 26  1  0  0  0
  5100  1  0  0  0
  6 25  1  0  0  0
  6101  1  0  0  0
  6102  1  0  0  0
  7  8  2  0  0  0
  7 26  1  0  0  0
  7 29  1  0  0  0
  8  9  1  0  0  0
  8 22  1  0  0  0
  9 10  1  0  0  0
  9 27  2  0  0  0
 10 11  2  0  0  0
 10 15  1  0  0  0
 11 12  1  0  0  0
 11103  1  0  0  0
 12 13  2  0  0  0
 12104  1  0  0  0
 13 14  1  0  0  0
 13 31  1  0  0  0
 14 15  2  0  0  0
 14105  1  0  0  0
 15106  1  0  0  0
 16 17  2  0  0  0
 16 21  1  0  0  0
 16 31  1  0  0  0
 17 18  1  0  0  0
 17107  1  0  0  0
 18 19  2  0  0  0
 18108  1  0  0  0
 19 20  1  0  0  0
 19 24  1  0  0  0
 20 21  2  0  0  0
 20109  1  0  0  0
 21 23  1  0  0  0
 22 28  1  0  0  0
 22 32  2  0  0  0
 26 27  1  0  0  0
 28110  1  0  0  0
 28111  1  0  0  0
 29112  1  0  0  0
 29113  1  0  0  0
 33 34  1  0  0  0
 33 66  1  0  0  0
 33 70  2  0  0  0
 34 36  1  0  0  0
 34 59  1  0  0  0
 34114  1  0  0  0
 35 44  2  0  0  0
 35 45  1  0  0  0
 35 68  1  0  0  0
 36 56  1  0  0  0
 36115  1  0  0  0
 37 39  1  0  0  0
 37 47  1  0  0  0
 37 66  1  0  0  0
 37116  1  0  0  0
 38 43  2  0  0  0
 38 46  1  0  0  0
 38 47  1  0  0  0
 39 64  1  0  0  0
 39 67  2  0  0  0
 40 52  1  0  0  0
 40 53  2  0  0  0
 40 58  1  0  0  0
 41117  1  0  0  0
 41118  1  0  0  0
 41119  1  0  0  0
 41 48  1  0  0  0
 42 43  1  0  0  0
 42 66  1  0  0  0
 42120  1  0  0  0
 42121  1  0  0  0
 43 44  1  0  0  0
 44122  1  0  0  0
 45 46  2  0  0  0
 45123  1  0  0  0
 46124  1  0  0  0
 47125  1  0  0  0
 47126  1  0  0  0
 48 56  1  0  0  0
 48 65  1  0  0  0
 48127  1  0  0  0
 49 50  1  0  0  0
 49 53  1  0  0  0
 49 64  1  0  0  0
 49128  1  0  0  0
 50 51  1  0  0  0
 50129  1  0  0  0
 50130  1  0  0  0
 51 52  1  0  0  0
 51131  1  0  0  0
 51132  1  0  0  0
 52133  1  0  0  0
 52134  1  0  0  0
 53 54  1  0  0  0
 54 55  2  0  0  0
 54135  1  0  0  0
 55 57  1  0  0  0
 55136  1  0  0  0
 56 69  2  0  0  0
 57 58  2  0  0  0
 57137  1  0  0  0
 58138  1  0  0  0
 59 60  1  0  0  0
 59 61  1  0  0  0
 59 62  1  0  0  0
 60139  1  0  0  0
 60140  1  0  0  0
 60141  1  0  0  0
 61142  1  0  0  0
 61143  1  0  0  0
 61144  1  0  0  0
 62145  1  0  0  0
 62146  1  0  0  0
 62147  1  0  0  0
 63 65  1  0  0  0
 63148  1  0  0  0
 63149  1  0  0  0
 63150  1  0  0  0
 64151  1  0  0  0
 65152  1  0  0  0
 68 91  1  0  0  0
 71 72  2  0  0  0
 71 73  1  0  0  0
 71153  1  0  0  0
 72 74  1  0  0  0
 72154  1  0  0  0
 73 75  2  0  0  0
 73155  1  0  0  0
 74 76  2  0  0  0
 74156  1  0  0  0
 75 76  1  0  0  0
 75 83  1  0  0  0
 76 87  1  0  0  0
 77 78  1  0  0  0
 77 81  1  0  0  0
 77157  1  0  0  0
 77158  1  0  0  0
 78159  1  0  0  0
 78160  1  0  0  0
 78 85  1  0  0  0
 79161  1  0  0  0
 79162  1  0  0  0
 79 83  1  0  0  0
 79 87  1  0  0  0
 80 86  1  0  0  0
 80 87  1  0  0  0
 80163  1  0  0  0
 80164  1  0  0  0
 81 92  1  0  0  0
 81165  1  0  0  0
 81166  1  0  0  0
 82 84  1  0  0  0
 82 93  1  0  0  0
 82167  1  0  0  0
 82168  1  0  0  0
 83 85  1  0  0  0
 83169  1  0  0  0
 84 87  1  0  0  0
 84 88  1  0  0  0
 84170  1  0  0  0
 85 92  1  0  0  0
 85171  1  0  0  0
 86 89  1  0  0  0
 86 93  1  0  0  0
 86172  1  0  0  0
 88173  1  0  0  0
 88174  1  0  0  0
 88175  1  0  0  0
 89176  1  0  0  0
 89177  1  0  0  0
 89178  1  0  0  0
 90 91  1  0  0  0
 90179  1  0  0  0
 90180  1  0  0  0
 90 93  1  0  0  0
 91181  1  0  0  0
 91182  1  0  0  0
 93183  1  0  0  0
M  CHG  1  93   1
M  ISO  4   1 100  68 101  91 101  92 100
M  END
> <chiral flag>
0

> <version>
0

> <s_m_source_file>
/data/baiqing/PycharmProjects/Reinvent-master-3.2/result/LINK_invent/BTK/process_docking_weight1_custom_sum_contain_oxygen_bond_distance_aromatic_linkinvent_7_9_3/rearranged_h_0163.sdf

> <i_m_source_file_index>
49

> <r_mmod_Potential_Energy-OPLS-2005>
270.694580078125

> <r_mmod_Stretch_Energy-OPLS-2005>
52.5341911315918

> <r_mmod_Bend_Energy-OPLS-2005>
184.779937744141

> <r_mmod_Torsional_Energy-OPLS-2005>
446.536834716797

> <r_mmod_Improper_Torsional_Energy-OPLS-2005>
3.97097992897034

> <r_mmod_Van_der_Waal_Energy-OPLS-2005>
143.627410888672

> <r_mmod_Electrostatic_Energy-OPLS-2005>
-176.681350708008

> <r_mmod_Solvation_Energy-OPLS-2005>
-397.648223876953

> <b_mmod_Minimization_Converged-OPLS-2005>
0

> <r_mmod_RMS_Derivative-OPLS-2005>
2.56070756912231

$$$$
49
                    3D
 Structure written by MMmdl.
165173  0  0  1  0            999 V2000
  -30.4406  -15.3069   20.3575 C   0  0  0  0  0  0
  -30.4495  -12.8316   19.5416 C   0  0  0  0  0  0
  -29.5715  -12.6296   18.2839 C   0  0  0  0  0  0
  -28.1134  -12.3265   18.6907 C   0  0  0  0  0  0
  -27.6219  -13.2847   19.8124 C   0  0  2  0  0  0
  -28.6523  -13.4705   20.9498 C   0  0  0  0  0  0
  -25.2482  -13.8174   20.5768 C   0  0  0  0  0  0
  -24.1800  -13.0409   20.9258 C   0  0  0  0  0  0
  -24.6436  -11.6916   20.8729 C   0  0  0  0  0  0
  -23.9140  -10.4282   21.0357 C   0  0  0  0  0  0
  -24.3677   -9.4202   21.9173 C   0  0  0  0  0  0
  -23.6337   -8.2271   22.0794 C   0  0  0  0  0  0
  -22.4308   -8.0307   21.3600 C   0  0  0  0  0  0
  -21.9937   -9.0272   20.4675 C   0  0  0  0  0  0
  -22.7292  -10.2119   20.3022 C   0  0  0  0  0  0
  -21.6843   -6.0792   22.5292 C   0  0  0  0  0  0
  -21.4042   -6.5676   23.8248 C   0  0  0  0  0  0
  -21.3643   -5.6808   24.9169 C   0  0  0  0  0  0
  -21.6030   -4.3064   24.7188 C   0  0  0  0  0  0
  -21.8812   -3.8194   23.4294 C   0  0  0  0  0  0
  -21.9177   -4.7019   22.3365 C   0  0  0  0  0  0
  -22.7796  -13.5238   21.1734 C   0  0  0  0  0  0
  -22.1626   -4.2239   21.0937 F   0  0  0  0  0  0
  -21.5571   -3.4543   25.7702 F   0  0  0  0  0  0
  -29.8767  -13.9928   20.3218 N   0  0  0  0  0  0
  -26.2893  -12.9493   20.3150 N   0  0  0  0  0  0
  -25.9395  -11.6592   20.5641 N   0  0  0  0  0  0
  -22.0285  -12.8398   22.0270 N   0  0  0  0  0  0
  -25.4060  -15.1887   20.4242 N   0  0  0  0  0  0
  -31.6645  -15.2765   20.1656 O   0  0  0  0  0  0
  -21.6657   -6.8942   21.4280 O   0  0  0  0  0  0
  -22.3579  -14.5512   20.6452 O   0  0  0  0  0  0
  -24.6657  -31.8163   23.1667 C   0  0  0  0  0  0
  -25.9274  -32.4589   23.8169 C   0  0  1  0  0  0
  -27.2399  -26.8739   20.2231 C   0  0  0  0  0  0
  -25.5925  -33.8422   24.2062 N   0  0  0  0  0  0
  -23.4858  -30.4186   21.5157 C   0  0  2  0  0  0
  -24.9483  -28.7971   20.1100 C   0  0  0  0  0  0
  -22.7711  -29.4353   22.4797 C   0  0  0  0  0  0
  -18.0308  -28.1413   22.8486 C   0  0  0  0  0  0
  -24.1464  -36.7231   23.2656 C   0  0  0  0  0  0
  -26.0517  -30.6039   21.4029 C   0  0  0  0  0  0
  -26.1208  -29.1863   20.7616 C   0  0  0  0  0  0
  -27.2472  -28.2425   20.8037 C   0  0  0  0  0  0
  -26.0518  -26.6593   19.4848 C   0  0  0  0  0  0
  -24.9451  -27.5539   19.4446 C   0  0  0  0  0  0
  -23.7321  -29.7250   20.1433 C   0  0  0  0  0  0
  -25.4116  -36.3020   24.0323 C   0  0  1  0  0  0
  -20.5950  -28.3756   23.1206 C   0  0  2  0  0  0
  -20.6792  -26.9442   22.5421 C   0  0  0  0  0  0
  -19.5774  -26.6365   21.5224 C   0  0  0  0  0  0
  -18.1946  -26.7953   22.1614 C   0  0  0  0  0  0
  -19.1565  -28.8908   23.2842 C   0  0  0  0  0  0
  -18.9481  -30.1482   23.8908 C   0  0  0  0  0  0
  -17.6472  -30.6638   24.0535 C   0  0  0  0  0  0
  -25.9073  -34.9373   23.5060 C   0  0  0  0  0  0
  -16.5367  -29.9117   23.6326 C   0  0  0  0  0  0
  -16.7284  -28.6506   23.0415 C   0  0  0  0  0  0
  -26.4501  -31.6599   25.0751 C   0  0  0  0  0  0
  -25.3607  -31.3852   26.1405 C   0  0  0  0  0  0
  -27.0365  -30.2972   24.6477 C   0  0  0  0  0  0
  -27.6023  -32.4371   25.7575 C   0  0  0  0  0  0
  -27.5572  -37.1769   24.8464 C   0  0  0  0  0  0
  -21.4368  -29.3015   22.3556 N   0  0  0  0  0  0
  -26.4256  -37.3755   23.9436 N   0  0  0  0  0  0
  -24.7565  -30.9757   22.0841 N   0  0  0  0  0  0
  -23.4208  -28.7922   23.3056 O   0  0  0  0  0  0
  -28.2246  -25.7589   20.4795 O   0  0  0  0  0  0
  -26.5749  -34.8884   22.4660 O   0  0  0  0  0  0
  -23.5701  -32.1124   23.6729 O   0  0  0  0  0  0
  -26.6828  -20.7152   19.9978 C   0  0  0  0  0  0
  -27.6331  -19.6306   19.8771 C   0  0  0  0  0  0
  -27.0427  -22.0778   20.2757 C   0  0  0  0  0  0
  -29.3099  -21.2801   20.4536 C   0  0  0  0  0  0
  -28.9958  -19.7612   20.2683 C   0  0  0  0  0  0
  -28.3805  -22.5274   20.2987 C   0  0  0  0  0  0
  -25.1886  -20.4337   19.7879 C   0  0  0  0  0  0
  -27.2002  -18.2953   19.2654 C   0  0  0  0  0  0
  -25.9813  -23.1593   20.4891 C   0  0  0  0  0  0
  -30.6968  -21.5858   20.9778 C   0  0  0  0  0  0
  -31.1387  -18.4658   19.3384 C   0  0  0  0  0  0
  -30.0596  -24.4595   19.4768 C   0  0  0  0  0  0
  -30.0032  -18.2872   20.3683 C   0  0  2  0  0  0
  -28.5995  -24.2474   19.8778 C   0  0  2  0  0  0
  -29.6971  -16.6108   20.4185 N   0  0  0  0  0  0
  -31.4898  -12.9977   19.2619 H   0  0  0  0  0  0
  -30.4679  -11.9213   20.1461 H   0  0  0  0  0  0
  -29.9769  -11.8409   17.6498 H   0  0  0  0  0  0
  -29.6140  -13.5430   17.6862 H   0  0  0  0  0  0
  -28.0730  -11.2942   19.0399 H   0  0  0  0  0  0
  -27.4614  -12.3837   17.8137 H   0  0  0  0  0  0
  -27.5329  -14.2573   19.3195 H   0  0  0  0  0  0
  -28.8184  -12.5341   21.4893 H   0  0  0  0  0  0
  -28.2954  -14.1940   21.6832 H   0  0  0  0  0  0
  -25.2774   -9.5724   22.4794 H   0  0  0  0  0  0
  -23.9992   -7.4690   22.7556 H   0  0  0  0  0  0
  -21.0816   -8.8823   19.9015 H   0  0  0  0  0  0
  -22.3715  -10.9695   19.6154 H   0  0  0  0  0  0
  -21.2090   -7.6205   23.9792 H   0  0  0  0  0  0
  -21.1456   -6.0521   25.9109 H   0  0  0  0  0  0
  -22.0583   -2.7671   23.2747 H   0  0  0  0  0  0
  -22.3806  -12.0228   22.5009 H   0  0  0  0  0  0
  -21.0894  -13.1591   22.2192 H   0  0  0  0  0  0
  -24.6328  -15.8283   20.5510 H   0  0  0  0  0  0
  -26.2355  -15.6294   20.0592 H   0  0  0  0  0  0
  -26.7389  -32.5114   23.0907 H   0  0  0  0  0  0
  -24.9903  -33.9462   25.0120 H   0  0  0  0  0  0
  -22.8029  -31.2523   21.3365 H   0  0  0  0  0  0
  -23.3767  -35.9516   23.3284 H   0  0  0  0  0  0
  -24.3523  -36.8921   22.2071 H   0  0  0  0  0  0
  -23.7134  -37.6382   23.6716 H   0  0  0  0  0  0
  -26.2167  -31.3205   20.5966 H   0  0  0  0  0  0
  -26.9254  -30.6879   22.0405 H   0  0  0  0  0  0
  -28.1175  -28.5364   21.3706 H   0  0  0  0  0  0
  -25.9134  -25.7160   18.9816 H   0  0  0  0  0  0
  -24.0570  -27.2546   18.9087 H   0  0  0  0  0  0
  -23.8924  -30.4866   19.3782 H   0  0  0  0  0  0
  -22.8446  -29.1737   19.8285 H   0  0  0  0  0  0
  -25.1281  -36.1865   25.0822 H   0  0  0  0  0  0
  -20.9991  -28.3370   24.1338 H   0  0  0  0  0  0
  -20.5651  -26.2393   23.3680 H   0  0  0  0  0  0
  -21.6670  -26.7438   22.1241 H   0  0  0  0  0  0
  -19.6946  -25.6233   21.1347 H   0  0  0  0  0  0
  -19.6728  -27.3112   20.6703 H   0  0  0  0  0  0
  -17.4231  -26.6722   21.4010 H   0  0  0  0  0  0
  -18.0333  -26.0101   22.9010 H   0  0  0  0  0  0
  -19.7949  -30.7273   24.2359 H   0  0  0  0  0  0
  -17.5033  -31.6328   24.5090 H   0  0  0  0  0  0
  -15.5379  -30.3032   23.7630 H   0  0  0  0  0  0
  -15.8679  -28.0768   22.7245 H   0  0  0  0  0  0
  -24.5770  -30.7249   25.7682 H   0  0  0  0  0  0
  -24.8780  -32.3047   26.4731 H   0  0  0  0  0  0
  -25.7772  -30.9051   27.0266 H   0  0  0  0  0  0
  -26.2976  -29.6711   24.1459 H   0  0  0  0  0  0
  -27.3879  -29.7301   25.5101 H   0  0  0  0  0  0
  -27.8957  -30.4188   23.9882 H   0  0  0  0  0  0
  -27.2638  -33.3698   26.2089 H   0  0  0  0  0  0
  -28.3891  -32.6897   25.0467 H   0  0  0  0  0  0
  -28.0656  -31.8551   26.5541 H   0  0  0  0  0  0
  -28.2595  -38.0068   24.7555 H   0  0  0  0  0  0
  -28.1069  -36.2599   24.6252 H   0  0  0  0  0  0
  -27.2303  -37.1409   25.8871 H   0  0  0  0  0  0
  -20.9680  -29.8726   21.6693 H   0  0  0  0  0  0
  -26.0153  -38.2836   24.1447 H   0  0  0  0  0  0
  -24.9531  -19.4158   19.4890 H   0  0  0  0  0  0
  -24.7527  -21.0912   19.0310 H   0  0  0  0  0  0
  -24.6554  -20.5946   20.7241 H   0  0  0  0  0  0
  -26.7141  -17.6480   19.9979 H   0  0  0  0  0  0
  -28.0414  -17.7526   18.8313 H   0  0  0  0  0  0
  -26.5377  -18.4523   18.4123 H   0  0  0  0  0  0
  -25.0413  -22.8134   20.9283 H   0  0  0  0  0  0
  -25.7710  -23.6454   19.5322 H   0  0  0  0  0  0
  -26.3619  -23.9091   21.1909 H   0  0  0  0  0  0
  -31.1234  -20.7090   21.4688 H   0  0  0  0  0  0
  -30.6472  -22.3527   21.7571 H   0  0  0  0  0  0
  -31.3472  -21.9211   20.1696 H   0  0  0  0  0  0
  -31.5555  -19.4719   19.3529 H   0  0  0  0  0  0
  -30.7909  -18.2816   18.3210 H   0  0  0  0  0  0
  -31.9692  -17.7876   19.5410 H   0  0  0  0  0  0
  -30.2597  -25.5084   19.2800 H   0  0  0  0  0  0
  -30.3119  -23.9111   18.5720 H   0  0  0  0  0  0
  -30.7421  -24.1519   20.2674 H   0  0  0  0  0  0
  -30.4687  -18.4232   21.3420 H   0  0  0  0  0  0
  -28.0448  -24.2793   18.9396 H   0  0  0  0  0  0
  -28.7117  -16.4324   20.5204 H   0  0  0  0  0  0
  1 25  1  0  0  0
  1 30  2  0  0  0
  1 85  1  0  0  0
  2  3  1  0  0  0
  2 25  1  0  0  0
  2 86  1  0  0  0
  2 87  1  0  0  0
  3  4  1  0  0  0
  3 88  1  0  0  0
  3 89  1  0  0  0
  4  5  1  0  0  0
  4 90  1  0  0  0
  4 91  1  0  0  0
  5  6  1  0  0  0
  5 26  1  0  0  0
  5 92  1  0  0  0
  6 25  1  0  0  0
  6 93  1  0  0  0
  6 94  1  0  0  0
  7  8  2  0  0  0
  7 26  1  0  0  0
  7 29  1  0  0  0
  8  9  1  0  0  0
  8 22  1  0  0  0
  9 10  1  0  0  0
  9 27  2  0  0  0
 10 11  2  0  0  0
 10 15  1  0  0  0
 11 12  1  0  0  0
 11 95  1  0  0  0
 12 13  2  0  0  0
 12 96  1  0  0  0
 13 14  1  0  0  0
 13 31  1  0  0  0
 14 15  2  0  0  0
 14 97  1  0  0  0
 15 98  1  0  0  0
 16 17  2  0  0  0
 16 21  1  0  0  0
 16 31  1  0  0  0
 17 18  1  0  0  0
 17 99  1  0  0  0
 18 19  2  0  0  0
 18100  1  0  0  0
 19 20  1  0  0  0
 19 24  1  0  0  0
 20 21  2  0  0  0
 20101  1  0  0  0
 21 23  1  0  0  0
 22 28  1  0  0  0
 22 32  2  0  0  0
 26 27  1  0  0  0
 28102  1  0  0  0
 28103  1  0  0  0
 29104  1  0  0  0
 29105  1  0  0  0
 33 34  1  0  0  0
 33 66  1  0  0  0
 33 70  2  0  0  0
 34 36  1  0  0  0
 34 59  1  0  0  0
 34106  1  0  0  0
 35 44  2  0  0  0
 35 45  1  0  0  0
 35 68  1  0  0  0
 36 56  1  0  0  0
 36107  1  0  0  0
 37 39  1  0  0  0
 37 47  1  0  0  0
 37 66  1  0  0  0
 37108  1  0  0  0
 38 43  2  0  0  0
 38 46  1  0  0  0
 38 47  1  0  0  0
 39 64  1  0  0  0
 39 67  2  0  0  0
 40 52  1  0  0  0
 40 53  2  0  0  0
 40 58  1  0  0  0
 41109  1  0  0  0
 41110  1  0  0  0
 41111  1  0  0  0
 41 48  1  0  0  0
 42 43  1  0  0  0
 42 66  1  0  0  0
 42112  1  0  0  0
 42113  1  0  0  0
 43 44  1  0  0  0
 44114  1  0  0  0
 45 46  2  0  0  0
 45115  1  0  0  0
 46116  1  0  0  0
 47117  1  0  0  0
 47118  1  0  0  0
 48 56  1  0  0  0
 48 65  1  0  0  0
 48119  1  0  0  0
 49 50  1  0  0  0
 49 53  1  0  0  0
 49 64  1  0  0  0
 49120  1  0  0  0
 50 51  1  0  0  0
 50121  1  0  0  0
 50122  1  0  0  0
 51 52  1  0  0  0
 51123  1  0  0  0
 51124  1  0  0  0
 52125  1  0  0  0
 52126  1  0  0  0
 53 54  1  0  0  0
 54 55  2  0  0  0
 54127  1  0  0  0
 55 57  1  0  0  0
 55128  1  0  0  0
 56 69  2  0  0  0
 57 58  2  0  0  0
 57129  1  0  0  0
 58130  1  0  0  0
 59 60  1  0  0  0
 59 61  1  0  0  0
 59 62  1  0  0  0
 60131  1  0  0  0
 60132  1  0  0  0
 60133  1  0  0  0
 61134  1  0  0  0
 61135  1  0  0  0
 61136  1  0  0  0
 62137  1  0  0  0
 62138  1  0  0  0
 62139  1  0  0  0
 63 65  1  0  0  0
 63140  1  0  0  0
 63141  1  0  0  0
 63142  1  0  0  0
 64143  1  0  0  0
 65144  1  0  0  0
 68 84  1  0  0  0
 71 72  2  0  0  0
 71 73  1  0  0  0
 71 77  1  0  0  0
 72 75  1  0  0  0
 72 78  1  0  0  0
 73 76  2  0  0  0
 73 79  1  0  0  0
 74 75  2  0  0  0
 74 76  1  0  0  0
 74 80  1  0  0  0
 75 83  1  0  0  0
 76 84  1  0  0  0
 77145  1  0  0  0
 77146  1  0  0  0
 77147  1  0  0  0
 78148  1  0  0  0
 78149  1  0  0  0
 78150  1  0  0  0
 79151  1  0  0  0
 79152  1  0  0  0
 79153  1  0  0  0
 80154  1  0  0  0
 80155  1  0  0  0
 80156  1  0  0  0
 81157  1  0  0  0
 81158  1  0  0  0
 81159  1  0  0  0
 81 83  1  0  0  0
 82160  1  0  0  0
 82161  1  0  0  0
 82162  1  0  0  0
 82 84  1  0  0  0
 83 85  1  0  0  0
 83163  1  0  0  0
 84164  1  0  0  0
 85165  1  0  0  0
M  ISO  4   1 100  68 101  84 101  85 100
M  END
> <chiral flag>
0

> <version>
0

> <s_m_source_file>
/data/baiqing/PycharmProjects/Reinvent-master-3.2/result/LINK_invent/BTK/process_docking_weight1_custom_sum_contain_oxygen_bond_distance_aromatic_linkinvent_7_9_3/rearranged_h_0163.sdf

> <i_m_source_file_index>
50

> <r_mmod_Potential_Energy-OPLS-2005>
1522.8955078125

> <r_mmod_Stretch_Energy-OPLS-2005>
684.428405761719

> <r_mmod_Bend_Energy-OPLS-2005>
515.560607910156

> <r_mmod_Torsional_Energy-OPLS-2005>
270.793243408203

> <r_mmod_Improper_Torsional_Energy-OPLS-2005>
6.94473600387573

> <r_mmod_Van_der_Waal_Energy-OPLS-2005>
134.541778564453

> <r_mmod_Electrostatic_Energy-OPLS-2005>
-414.991638183594

> <r_mmod_Solvation_Energy-OPLS-2005>
-203.131866455078

> <b_mmod_Minimization_Converged-OPLS-2005>
0

> <r_mmod_RMS_Derivative-OPLS-2005>
9.88441467285156

$$$$
50
                    3D
 Structure written by MMmdl.
178187  0  0  1  0            999 V2000
  -30.7282  -14.5975   20.5366 C   0  0  0  0  0  0
  -30.4092  -12.3839   19.4531 C   0  0  0  0  0  0
  -29.4963  -12.5105   18.2173 C   0  0  0  0  0  0
  -28.0247  -12.3367   18.6347 C   0  0  0  0  0  0
  -27.6515  -13.2115   19.8614 C   0  0  2  0  0  0
  -28.6995  -13.0693   20.9961 C   0  0  0  0  0  0
  -25.2530  -13.8158   20.5632 C   0  0  0  0  0  0
  -24.1792  -13.0436   20.9159 C   0  0  0  0  0  0
  -24.6360  -11.6913   20.8700 C   0  0  0  0  0  0
  -23.9027  -10.4301   21.0370 C   0  0  0  0  0  0
  -24.3602   -9.4233   21.9148 C   0  0  0  0  0  0
  -23.6285   -8.2263   22.0755 C   0  0  0  0  0  0
  -22.4259   -8.0293   21.3561 C   0  0  0  0  0  0
  -21.9875   -9.0246   20.4663 C   0  0  0  0  0  0
  -22.7190  -10.2130   20.3033 C   0  0  0  0  0  0
  -21.6863   -6.0726   22.5277 C   0  0  0  0  0  0
  -21.4028   -6.5633   23.8211 C   0  0  0  0  0  0
  -21.3655   -5.6781   24.9168 C   0  0  0  0  0  0
  -21.6035   -4.3050   24.7222 C   0  0  0  0  0  0
  -21.8822   -3.8139   23.4345 C   0  0  0  0  0  0
  -21.9196   -4.6957   22.3400 C   0  0  0  0  0  0
  -22.7816  -13.5227   21.1832 C   0  0  0  0  0  0
  -22.1666   -4.2141   21.0977 F   0  0  0  0  0  0
  -21.5627   -3.4533   25.7742 F   0  0  0  0  0  0
  -30.0051  -13.4281   20.4279 N   0  0  0  0  0  0
  -26.2969  -12.9341   20.3306 N   0  0  0  0  0  0
  -25.9294  -11.6504   20.5747 N   0  0  0  0  0  0
  -22.0463  -12.8250   22.0415 N   0  0  0  0  0  0
  -25.4220  -15.1870   20.3982 N   0  0  0  0  0  0
  -31.8706  -14.6253   20.0708 O   0  0  0  0  0  0
  -21.6654   -6.8870   21.4242 O   0  0  0  0  0  0
  -22.3488  -14.5526   20.6675 O   0  0  0  0  0  0
  -24.6243  -31.8631   23.2073 C   0  0  0  0  0  0
  -25.9097  -32.4797   23.8382 C   0  0  1  0  0  0
  -27.2122  -27.3419   20.0859 C   0  0  0  0  0  0
  -25.5920  -33.8601   24.2289 N   0  0  0  0  0  0
  -23.4149  -30.4931   21.5510 C   0  0  2  0  0  0
  -24.8554  -28.9556   20.1105 C   0  0  0  0  0  0
  -22.7456  -29.4653   22.4944 C   0  0  0  0  0  0
  -18.0285  -28.1398   22.8474 C   0  0  0  0  0  0
  -24.1496  -36.7298   23.2630 C   0  0  0  0  0  0
  -25.9582  -30.7972   21.3803 C   0  0  0  0  0  0
  -26.0279  -29.4311   20.7121 C   0  0  0  0  0  0
  -27.2084  -28.6343   20.6919 C   0  0  0  0  0  0
  -26.0124  -26.9181   19.4647 C   0  0  0  0  0  0
  -24.8483  -27.7028   19.4838 C   0  0  0  0  0  0
  -23.6272  -29.8379   20.1624 C   0  0  0  0  0  0
  -25.4118  -36.3088   24.0322 C   0  0  1  0  0  0
  -20.5879  -28.3694   23.1286 C   0  0  2  0  0  0
  -20.6777  -26.9420   22.5416 C   0  0  0  0  0  0
  -19.5767  -26.6392   21.5203 C   0  0  0  0  0  0
  -18.1935  -26.7946   22.1600 C   0  0  0  0  0  0
  -19.1534  -28.8856   23.2885 C   0  0  0  0  0  0
  -18.9457  -30.1453   23.8909 C   0  0  0  0  0  0
  -17.6461  -30.6597   24.0565 C   0  0  0  0  0  0
  -25.9054  -34.9463   23.5096 C   0  0  0  0  0  0
  -16.5350  -29.9101   23.6333 C   0  0  0  0  0  0
  -16.7274  -28.6524   23.0342 C   0  0  0  0  0  0
  -26.4470  -31.6622   25.0764 C   0  0  0  0  0  0
  -25.3701  -31.3809   26.1496 C   0  0  0  0  0  0
  -27.0273  -30.3022   24.6249 C   0  0  0  0  0  0
  -27.6053  -32.4352   25.7510 C   0  0  0  0  0  0
  -27.5591  -37.1794   24.8446 C   0  0  0  0  0  0
  -21.4169  -29.3049   22.3673 N   0  0  0  0  0  0
  -26.4293  -37.3787   23.9407 N   0  0  0  0  0  0
  -24.6845  -31.0657   22.1024 N   0  0  0  0  0  0
  -23.4183  -28.8167   23.2995 O   0  0  0  0  0  0
  -28.3329  -26.5020   20.1209 O   0  0  0  0  0  0
  -26.5618  -34.8919   22.4667 O   0  0  0  0  0  0
  -23.5409  -32.1415   23.7418 O   0  0  0  0  0  0
  -29.0678  -22.4298   18.2703 C   0  0  0  0  0  0
  -29.4558  -20.0563   19.8155 C   0  0  0  0  0  0
  -29.1633  -21.1845   17.6282 C   0  0  0  0  0  0
  -29.1897  -22.5783   19.6582 C   0  0  0  0  0  0
  -29.3194  -21.3682   20.4366 C   0  0  0  0  0  0
  -29.4204  -19.9909   18.3745 C   0  0  0  0  0  0
  -28.5661  -17.6240   20.5937 C   0  0  0  0  0  0
  -31.0791  -18.1106   20.6567 C   0  0  0  0  0  0
  -28.8799  -16.2848   21.3508 C   0  0  0  0  0  0
  -31.1875  -16.8350   21.5401 C   0  0  0  0  0  0
  -29.6594  -18.7448   20.6974 C   0  0  0  0  0  0
  -28.9691  -21.2380   16.1120 C   0  0  0  0  0  0
  -29.3084  -21.4648   21.9597 C   0  0  0  0  0  0
  -31.1712  -17.5236   15.8131 C   0  0  0  0  0  0
  -28.4213  -18.1691   16.8370 C   0  0  0  0  0  0
  -29.2859  -24.0627   20.1809 C   0  0  0  0  0  0
  -31.0119  -18.6626   16.8317 C   0  0  0  0  0  0
  -28.1359  -25.0751   19.8011 C   0  0  0  0  0  0
  -29.6657  -18.6653   17.6094 C   0  0  1  0  0  0
  -30.2484  -15.7585   21.1260 N   0  0  0  0  0  0
  -31.4557  -12.4489   19.1533 H   0  0  0  0  0  0
  -30.3052  -11.3908   19.8962 H   0  0  0  0  0  0
  -29.7647  -11.7631   17.4702 H   0  0  0  0  0  0
  -29.6404  -13.4809   17.7390 H   0  0  0  0  0  0
  -27.8766  -11.2830   18.8773 H   0  0  0  0  0  0
  -27.3609  -12.5494   17.7947 H   0  0  0  0  0  0
  -27.6700  -14.2362   19.4920 H   0  0  0  0  0  0
  -28.7178  -12.0363   21.3526 H   0  0  0  0  0  0
  -28.4599  -13.6570   21.8800 H   0  0  0  0  0  0
  -25.2756   -9.5733   22.4693 H   0  0  0  0  0  0
  -24.0026   -7.4653   22.7453 H   0  0  0  0  0  0
  -21.0818   -8.8722   19.8962 H   0  0  0  0  0  0
  -22.3620  -10.9646   19.6137 H   0  0  0  0  0  0
  -21.2047   -7.6139   23.9711 H   0  0  0  0  0  0
  -21.1465   -6.0515   25.9067 H   0  0  0  0  0  0
  -22.0606   -2.7603   23.2837 H   0  0  0  0  0  0
  -22.4103  -11.9945   22.4841 H   0  0  0  0  0  0
  -21.1070  -13.1276   22.2605 H   0  0  0  0  0  0
  -24.6516  -15.8394   20.4971 H   0  0  0  0  0  0
  -26.2731  -15.6252   20.0722 H   0  0  0  0  0  0
  -26.7164  -32.5443   23.1128 H   0  0  0  0  0  0
  -25.0062  -33.9776   25.0424 H   0  0  0  0  0  0
  -22.7079  -31.3135   21.4158 H   0  0  0  0  0  0
  -23.3766  -35.9619   23.3276 H   0  0  0  0  0  0
  -24.3591  -36.8942   22.2049 H   0  0  0  0  0  0
  -23.7240  -37.6492   23.6669 H   0  0  0  0  0  0
  -26.0996  -31.5706   20.6237 H   0  0  0  0  0  0
  -26.8345  -30.8306   22.0159 H   0  0  0  0  0  0
  -28.1110  -28.9954   21.1649 H   0  0  0  0  0  0
  -25.9368  -25.9679   18.9582 H   0  0  0  0  0  0
  -23.9479  -27.3348   19.0108 H   0  0  0  0  0  0
  -23.7516  -30.6216   19.4147 H   0  0  0  0  0  0
  -22.7431  -29.2768   19.8544 H   0  0  0  0  0  0
  -25.1303  -36.1940   25.0814 H   0  0  0  0  0  0
  -20.9979  -28.3278   24.1399 H   0  0  0  0  0  0
  -20.5664  -26.2299   23.3611 H   0  0  0  0  0  0
  -21.6656  -26.7451   22.1222 H   0  0  0  0  0  0
  -19.6930  -25.6293   21.1251 H   0  0  0  0  0  0
  -19.6727  -27.3186   20.6717 H   0  0  0  0  0  0
  -17.4210  -26.6688   21.4001 H   0  0  0  0  0  0
  -18.0338  -26.0096   22.9007 H   0  0  0  0  0  0
  -19.7928  -30.7264   24.2299 H   0  0  0  0  0  0
  -17.5016  -31.6280   24.5167 H   0  0  0  0  0  0
  -15.5355  -30.3004   23.7662 H   0  0  0  0  0  0
  -15.8668  -28.0851   22.7051 H   0  0  0  0  0  0
  -24.5881  -30.7133   25.7856 H   0  0  0  0  0  0
  -24.8867  -32.2992   26.4853 H   0  0  0  0  0  0
  -25.8013  -30.9056   27.0313 H   0  0  0  0  0  0
  -26.2842  -29.6830   24.1208 H   0  0  0  0  0  0
  -27.3845  -29.7251   25.4787 H   0  0  0  0  0  0
  -27.8781  -30.4264   23.9547 H   0  0  0  0  0  0
  -27.2675  -33.3644   26.2118 H   0  0  0  0  0  0
  -28.3831  -32.6938   25.0314 H   0  0  0  0  0  0
  -28.0756  -31.8465   26.5396 H   0  0  0  0  0  0
  -28.2599  -38.0103   24.7515 H   0  0  0  0  0  0
  -28.1099  -36.2637   24.6235 H   0  0  0  0  0  0
  -27.2318  -37.1412   25.8852 H   0  0  0  0  0  0
  -20.9322  -29.8774   21.6899 H   0  0  0  0  0  0
  -26.0173  -38.2853   24.1448 H   0  0  0  0  0  0
  -28.9284  -23.3114   17.6611 H   0  0  0  0  0  0
  -27.6310  -18.0250   20.9862 H   0  0  0  0  0  0
  -28.3220  -17.3606   19.5718 H   0  0  0  0  0  0
  -31.4059  -17.8513   19.6549 H   0  0  0  0  0  0
  -31.8018  -18.8504   21.0052 H   0  0  0  0  0  0
  -28.1008  -15.5841   21.0917 H   0  0  0  0  0  0
  -28.7667  -16.4462   22.4246 H   0  0  0  0  0  0
  -30.9814  -17.1011   22.5773 H   0  0  0  0  0  0
  -32.2248  -16.4965   21.5631 H   0  0  0  0  0  0
  -29.5759  -19.0346   21.7398 H   0  0  0  0  0  0
  -27.9046  -21.2072   15.8757 H   0  0  0  0  0  0
  -29.4508  -20.4469   15.5476 H   0  0  0  0  0  0
  -29.3615  -22.1688   15.7016 H   0  0  0  0  0  0
  -30.2593  -21.1314   22.3735 H   0  0  0  0  0  0
  -28.5118  -20.8382   22.3607 H   0  0  0  0  0  0
  -29.1120  -22.4530   22.3592 H   0  0  0  0  0  0
  -32.1814  -17.5127   15.4018 H   0  0  0  0  0  0
  -30.4841  -17.6460   14.9749 H   0  0  0  0  0  0
  -30.9853  -16.5487   16.2653 H   0  0  0  0  0  0
  -27.5426  -18.1724   17.4823 H   0  0  0  0  0  0
  -28.5527  -17.1423   16.4958 H   0  0  0  0  0  0
  -28.1711  -18.7597   15.9598 H   0  0  0  0  0  0
  -30.2053  -24.4593   19.7493 H   0  0  0  0  0  0
  -29.4552  -24.1223   21.2501 H   0  0  0  0  0  0
  -31.1926  -19.6045   16.3200 H   0  0  0  0  0  0
  -31.8293  -18.5966   17.5504 H   0  0  0  0  0  0
  -27.2322  -24.7117   20.2936 H   0  0  0  0  0  0
  -27.9584  -25.0144   18.7275 H   0  0  0  0  0  0
  -29.8318  -17.8605   18.3064 H   0  0  0  0  0  0
  1 25  1  0  0  0
  1 30  2  0  0  0
  1 90  1  0  0  0
  2  3  1  0  0  0
  2 25  1  0  0  0
  2 91  1  0  0  0
  2 92  1  0  0  0
  3  4  1  0  0  0
  3 93  1  0  0  0
  3 94  1  0  0  0
  4  5  1  0  0  0
  4 95  1  0  0  0
  4 96  1  0  0  0
  5  6  1  0  0  0
  5 26  1  0  0  0
  5 97  1  0  0  0
  6 25  1  0  0  0
  6 98  1  0  0  0
  6 99  1  0  0  0
  7  8  2  0  0  0
  7 26  1  0  0  0
  7 29  1  0  0  0
  8  9  1  0  0  0
  8 22  1  0  0  0
  9 10  1  0  0  0
  9 27  2  0  0  0
 10 11  2  0  0  0
 10 15  1  0  0  0
 11 12  1  0  0  0
 11100  1  0  0  0
 12 13  2  0  0  0
 12101  1  0  0  0
 13 14  1  0  0  0
 13 31  1  0  0  0
 14 15  2  0  0  0
 14102  1  0  0  0
 15103  1  0  0  0
 16 17  2  0  0  0
 16 21  1  0  0  0
 16 31  1  0  0  0
 17 18  1  0  0  0
 17104  1  0  0  0
 18 19  2  0  0  0
 18105  1  0  0  0
 19 20  1  0  0  0
 19 24  1  0  0  0
 20 21  2  0  0  0
 20106  1  0  0  0
 21 23  1  0  0  0
 22 28  1  0  0  0
 22 32  2  0  0  0
 26 27  1  0  0  0
 28107  1  0  0  0
 28108  1  0  0  0
 29109  1  0  0  0
 29110  1  0  0  0
 33 34  1  0  0  0
 33 66  1  0  0  0
 33 70  2  0  0  0
 34 36  1  0  0  0
 34 59  1  0  0  0
 34111  1  0  0  0
 35 44  2  0  0  0
 35 45  1  0  0  0
 35 68  1  0  0  0
 36 56  1  0  0  0
 36112  1  0  0  0
 37 39  1  0  0  0
 37 47  1  0  0  0
 37 66  1  0  0  0
 37113  1  0  0  0
 38 43  2  0  0  0
 38 46  1  0  0  0
 38 47  1  0  0  0
 39 64  1  0  0  0
 39 67  2  0  0  0
 40 52  1  0  0  0
 40 53  2  0  0  0
 40 58  1  0  0  0
 41114  1  0  0  0
 41115  1  0  0  0
 41116  1  0  0  0
 41 48  1  0  0  0
 42 43  1  0  0  0
 42 66  1  0  0  0
 42117  1  0  0  0
 42118  1  0  0  0
 43 44  1  0  0  0
 44119  1  0  0  0
 45 46  2  0  0  0
 45120  1  0  0  0
 46121  1  0  0  0
 47122  1  0  0  0
 47123  1  0  0  0
 48 56  1  0  0  0
 48 65  1  0  0  0
 48124  1  0  0  0
 49 50  1  0  0  0
 49 53  1  0  0  0
 49 64  1  0  0  0
 49125  1  0  0  0
 50 51  1  0  0  0
 50126  1  0  0  0
 50127  1  0  0  0
 51 52  1  0  0  0
 51128  1  0  0  0
 51129  1  0  0  0
 52130  1  0  0  0
 52131  1  0  0  0
 53 54  1  0  0  0
 54 55  2  0  0  0
 54132  1  0  0  0
 55 57  1  0  0  0
 55133  1  0  0  0
 56 69  2  0  0  0
 57 58  2  0  0  0
 57134  1  0  0  0
 58135  1  0  0  0
 59 60  1  0  0  0
 59 61  1  0  0  0
 59 62  1  0  0  0
 60136  1  0  0  0
 60137  1  0  0  0
 60138  1  0  0  0
 61139  1  0  0  0
 61140  1  0  0  0
 61141  1  0  0  0
 62142  1  0  0  0
 62143  1  0  0  0
 62144  1  0  0  0
 63 65  1  0  0  0
 63145  1  0  0  0
 63146  1  0  0  0
 63147  1  0  0  0
 64148  1  0  0  0
 65149  1  0  0  0
 68 88  1  0  0  0
 71 73  2  0  0  0
 71 74  1  0  0  0
 71150  1  0  0  0
 72 75  1  0  0  0
 72 76  2  0  0  0
 72 81  1  0  0  0
 73 76  1  0  0  0
 73 82  1  0  0  0
 74 75  2  0  0  0
 74 86  1  0  0  0
 75 83  1  0  0  0
 76 89  1  0  0  0
 77 79  1  0  0  0
 77 81  1  0  0  0
 77151  1  0  0  0
 77152  1  0  0  0
 78 80  1  0  0  0
 78 81  1  0  0  0
 78153  1  0  0  0
 78154  1  0  0  0
 79 90  1  0  0  0
 79155  1  0  0  0
 79156  1  0  0  0
 80 90  1  0  0  0
 80157  1  0  0  0
 80158  1  0  0  0
 81159  1  0  0  0
 82160  1  0  0  0
 82161  1  0  0  0
 82162  1  0  0  0
 83163  1  0  0  0
 83164  1  0  0  0
 83165  1  0  0  0
 84 87  1  0  0  0
 84166  1  0  0  0
 84167  1  0  0  0
 84168  1  0  0  0
 85169  1  0  0  0
 85170  1  0  0  0
 85171  1  0  0  0
 85 89  1  0  0  0
 86 88  1  0  0  0
 86172  1  0  0  0
 86173  1  0  0  0
 87 89  1  0  0  0
 87174  1  0  0  0
 87175  1  0  0  0
 88176  1  0  0  0
 88177  1  0  0  0
 89178  1  0  0  0
M  ISO  4   1 100  68 101  88 101  90 100
M  END
> <chiral flag>
0

> <version>
0

> <s_m_source_file>
/data/baiqing/PycharmProjects/Reinvent-master-3.2/result/LINK_invent/BTK/process_docking_weight1_custom_sum_contain_oxygen_bond_distance_aromatic_linkinvent_7_9_3/rearranged_h_0163.sdf

> <i_m_source_file_index>
51

> <r_mmod_Potential_Energy-OPLS-2005>
314.219604492188

> <r_mmod_Stretch_Energy-OPLS-2005>
96.9259948730469

> <r_mmod_Bend_Energy-OPLS-2005>
192.812103271484

> <r_mmod_Torsional_Energy-OPLS-2005>
301.290893554688

> <r_mmod_Improper_Torsional_Energy-OPLS-2005>
2.01580762863159

> <r_mmod_Van_der_Waal_Energy-OPLS-2005>
186.499496459961

> <r_mmod_Electrostatic_Energy-OPLS-2005>
-314.776519775391

> <r_mmod_Solvation_Energy-OPLS-2005>
-189.889770507812

> <b_mmod_Minimization_Converged-OPLS-2005>
0

> <r_mmod_RMS_Derivative-OPLS-2005>
3.04222440719604

$$$$
51
                    3D
 Structure written by MMmdl.
167176  0  0  1  0            999 V2000
  -30.5197  -15.0036   20.4360 C   0  0  0  0  0  0
  -30.4305  -12.6234   19.5065 C   0  0  0  0  0  0
  -29.5209  -12.5312   18.2590 C   0  0  0  0  0  0
  -28.0475  -12.3173   18.6629 C   0  0  0  0  0  0
  -27.6179  -13.2540   19.8225 C   0  0  2  0  0  0
  -28.6583  -13.3038   20.9609 C   0  0  0  0  0  0
  -25.2441  -13.8187   20.5738 C   0  0  0  0  0  0
  -24.1755  -13.0416   20.9235 C   0  0  0  0  0  0
  -24.6348  -11.6899   20.8719 C   0  0  0  0  0  0
  -23.9038  -10.4279   21.0377 C   0  0  0  0  0  0
  -24.3591   -9.4199   21.9152 C   0  0  0  0  0  0
  -23.6292   -8.2209   22.0732 C   0  0  0  0  0  0
  -22.4280   -8.0253   21.3526 C   0  0  0  0  0  0
  -21.9910   -9.0231   20.4644 C   0  0  0  0  0  0
  -22.7202  -10.2120   20.3043 C   0  0  0  0  0  0
  -21.6841   -6.0722   22.5278 C   0  0  0  0  0  0
  -21.4018   -6.5643   23.8213 C   0  0  0  0  0  0
  -21.3674   -5.6791   24.9172 C   0  0  0  0  0  0
  -21.6060   -4.3043   24.7229 C   0  0  0  0  0  0
  -21.8825   -3.8138   23.4332 C   0  0  0  0  0  0
  -21.9195   -4.6950   22.3398 C   0  0  0  0  0  0
  -22.7782  -13.5216   21.1901 C   0  0  0  0  0  0
  -22.1669   -4.2138   21.0966 F   0  0  0  0  0  0
  -21.5628   -3.4523   25.7730 F   0  0  0  0  0  0
  -29.9218  -13.7394   20.3589 N   0  0  0  0  0  0
  -26.2824  -12.9437   20.3154 N   0  0  0  0  0  0
  -25.9271  -11.6560   20.5662 N   0  0  0  0  0  0
  -22.0423  -12.8239   22.0477 N   0  0  0  0  0  0
  -25.4149  -15.1905   20.4214 N   0  0  0  0  0  0
  -31.7323  -15.0352   20.2039 O   0  0  0  0  0  0
  -21.6633   -6.8849   21.4240 O   0  0  0  0  0  0
  -22.3487  -14.5507   20.6691 O   0  0  0  0  0  0
  -24.6477  -31.8378   23.1784 C   0  0  0  0  0  0
  -25.9251  -32.4665   23.8185 C   0  0  1  0  0  0
  -27.2194  -27.0643   20.1949 C   0  0  0  0  0  0
  -25.5975  -33.8467   24.2128 N   0  0  0  0  0  0
  -23.4542  -30.4453   21.5236 C   0  0  2  0  0  0
  -24.9015  -28.8415   20.1203 C   0  0  0  0  0  0
  -22.7612  -29.4469   22.4851 C   0  0  0  0  0  0
  -18.0296  -28.1391   22.8449 C   0  0  0  0  0  0
  -24.1502  -36.7231   23.2619 C   0  0  0  0  0  0
  -26.0081  -30.6893   21.3797 C   0  0  0  0  0  0
  -26.0773  -29.2866   20.7356 C   0  0  0  0  0  0
  -27.2340  -28.4176   20.7414 C   0  0  0  0  0  0
  -26.0159  -26.7141   19.5515 C   0  0  0  0  0  0
  -24.8861  -27.5739   19.5083 C   0  0  0  0  0  0
  -23.6834  -29.7587   20.1488 C   0  0  0  0  0  0
  -25.4137  -36.3014   24.0298 C   0  0  1  0  0  0
  -20.5911  -28.3712   23.1245 C   0  0  2  0  0  0
  -20.6779  -26.9416   22.5420 C   0  0  0  0  0  0
  -19.5776  -26.6370   21.5217 C   0  0  0  0  0  0
  -18.1949  -26.7927   22.1597 C   0  0  0  0  0  0
  -19.1546  -28.8878   23.2819 C   0  0  0  0  0  0
  -18.9476  -30.1495   23.8841 C   0  0  0  0  0  0
  -17.6472  -30.6587   24.0567 C   0  0  0  0  0  0
  -25.9091  -34.9386   23.5015 C   0  0  0  0  0  0
  -16.5364  -29.9102   23.6327 C   0  0  0  0  0  0
  -16.7278  -28.6511   23.0338 C   0  0  0  0  0  0
  -26.4548  -31.6544   25.0653 C   0  0  0  0  0  0
  -25.3740  -31.3791   26.1368 C   0  0  0  0  0  0
  -27.0346  -30.2898   24.6296 C   0  0  0  0  0  0
  -27.6127  -32.4269   25.7419 C   0  0  0  0  0  0
  -27.5586  -37.1776   24.8453 C   0  0  0  0  0  0
  -21.4297  -29.3018   22.3610 N   0  0  0  0  0  0
  -26.4285  -37.3750   23.9414 N   0  0  0  0  0  0
  -24.7228  -31.0167   22.0831 N   0  0  0  0  0  0
  -23.4226  -28.8082   23.3057 O   0  0  0  0  0  0
  -28.3585  -26.1684   20.2114 O   0  0  0  0  0  0
  -26.5704  -34.8896   22.4616 O   0  0  0  0  0  0
  -23.5607  -32.1247   23.7030 O   0  0  0  0  0  0
  -29.1709  -20.5477   20.9980 C   0  0  0  0  0  0
  -29.2552  -19.1611   20.4172 C   0  0  0  0  0  0
  -28.4438  -21.5119   20.2219 C   0  0  0  0  0  0
  -28.5577  -19.3525   19.2541 C   0  0  0  0  0  0
  -25.7674  -21.5840   18.3556 C   0  0  0  0  0  0
  -25.9442  -20.2133   17.7696 C   0  0  0  0  0  0
  -27.1672  -21.0890   18.0334 C   0  0  0  0  0  0
  -29.7990  -20.8942   22.3282 C   0  0  0  0  0  0
  -28.3621  -18.3326   18.1681 C   0  0  0  0  0  0
  -31.5463  -18.0294   20.9983 C   0  0  0  0  0  0
  -26.9860  -23.1353   21.6546 C   0  0  0  0  0  0
  -28.6589  -24.6011   20.3222 C   0  0  0  0  0  0
  -30.0332  -17.7522   20.9421 C   0  0  2  0  0  0
  -27.8623  -23.1013   20.3876 C   0  0  1  0  0  0
  -28.0087  -20.6671   19.1646 N   0  0  0  0  0  0
  -29.7452  -16.2106   20.5895 N   0  0  0  0  0  0
  -31.4652  -12.7775   19.1988 H   0  0  0  0  0  0
  -30.4207  -11.6840   20.0633 H   0  0  0  0  0  0
  -29.8516  -11.7241   17.6048 H   0  0  0  0  0  0
  -29.6096  -13.4497   17.6765 H   0  0  0  0  0  0
  -27.9464  -11.2790   18.9801 H   0  0  0  0  0  0
  -27.3876  -12.4342   17.7990 H   0  0  0  0  0  0
  -27.5705  -14.2514   19.3828 H   0  0  0  0  0  0
  -28.7591  -12.3306   21.4418 H   0  0  0  0  0  0
  -28.3457  -13.9968   21.7427 H   0  0  0  0  0  0
  -25.2692   -9.5702   22.4750 H   0  0  0  0  0  0
  -24.0019   -7.4620   22.7447 H   0  0  0  0  0  0
  -21.0822   -8.8726   19.8969 H   0  0  0  0  0  0
  -22.3592  -10.9675   19.6187 H   0  0  0  0  0  0
  -21.1995   -7.6153   23.9726 H   0  0  0  0  0  0
  -21.1516   -6.0496   25.9088 H   0  0  0  0  0  0
  -22.0584   -2.7600   23.2812 H   0  0  0  0  0  0
  -22.4032  -11.9919   22.4909 H   0  0  0  0  0  0
  -21.1044  -13.1312   22.2683 H   0  0  0  0  0  0
  -24.6399  -15.8383   20.5205 H   0  0  0  0  0  0
  -26.2556  -15.6312   20.0727 H   0  0  0  0  0  0
  -26.7345  -32.5268   23.0940 H   0  0  0  0  0  0
  -25.0172  -33.9558   25.0304 H   0  0  0  0  0  0
  -22.7549  -31.2659   21.3635 H   0  0  0  0  0  0
  -23.3792  -35.9535   23.3260 H   0  0  0  0  0  0
  -24.3552  -36.8884   22.2029 H   0  0  0  0  0  0
  -23.7230  -37.6410   23.6668 H   0  0  0  0  0  0
  -26.1675  -31.4268   20.5903 H   0  0  0  0  0  0
  -26.8772  -30.7478   22.0225 H   0  0  0  0  0  0
  -28.1451  -28.7690   21.2097 H   0  0  0  0  0  0
  -25.9316  -25.7427   19.0890 H   0  0  0  0  0  0
  -23.9861  -27.2275   19.0190 H   0  0  0  0  0  0
  -23.8448  -30.5219   19.3849 H   0  0  0  0  0  0
  -22.7957  -29.2040   19.8422 H   0  0  0  0  0  0
  -25.1330  -36.1822   25.0792 H   0  0  0  0  0  0
  -20.9954  -28.3333   24.1389 H   0  0  0  0  0  0
  -20.5671  -26.2354   23.3634 H   0  0  0  0  0  0
  -21.6668  -26.7422   22.1280 H   0  0  0  0  0  0
  -19.6941  -25.6282   21.1285 H   0  0  0  0  0  0
  -19.6775  -27.3151   20.6729 H   0  0  0  0  0  0
  -17.4258  -26.6684   21.3966 H   0  0  0  0  0  0
  -18.0344  -26.0063   22.8983 H   0  0  0  0  0  0
  -19.7957  -30.7319   24.2179 H   0  0  0  0  0  0
  -17.5029  -31.6242   24.5231 H   0  0  0  0  0  0
  -15.5371  -30.3006   23.7642 H   0  0  0  0  0  0
  -15.8670  -28.0834   22.7064 H   0  0  0  0  0  0
  -24.6029  -30.6980   25.7770 H   0  0  0  0  0  0
  -24.8803  -32.2987   26.4523 H   0  0  0  0  0  0
  -25.8020  -30.9236   27.0307 H   0  0  0  0  0  0
  -26.2922  -29.6675   24.1316 H   0  0  0  0  0  0
  -27.3897  -29.7166   25.4871 H   0  0  0  0  0  0
  -27.8878  -30.4027   23.9604 H   0  0  0  0  0  0
  -27.2776  -33.3619   26.1906 H   0  0  0  0  0  0
  -28.3968  -32.6744   25.0256 H   0  0  0  0  0  0
  -28.0786  -31.8468   26.5391 H   0  0  0  0  0  0
  -28.2624  -38.0060   24.7510 H   0  0  0  0  0  0
  -28.1064  -36.2601   24.6270 H   0  0  0  0  0  0
  -27.2301  -37.1397   25.8853 H   0  0  0  0  0  0
  -20.9539  -29.8673   21.6722 H   0  0  0  0  0  0
  -26.0152  -38.2812   24.1466 H   0  0  0  0  0  0
  -25.4632  -21.6480   19.3978 H   0  0  0  0  0  0
  -25.3343  -22.3365   17.6989 H   0  0  0  0  0  0
  -25.6176  -20.0800   16.7387 H   0  0  0  0  0  0
  -25.7335  -19.3795   18.4364 H   0  0  0  0  0  0
  -27.7343  -21.4926   17.1953 H   0  0  0  0  0  0
  -29.8834  -20.0098   22.9630 H   0  0  0  0  0  0
  -29.2137  -21.6207   22.8844 H   0  0  0  0  0  0
  -30.7934  -21.3253   22.1880 H   0  0  0  0  0  0
  -29.2083  -17.6453   18.1276 H   0  0  0  0  0  0
  -28.2898  -18.7868   17.1787 H   0  0  0  0  0  0
  -27.4643  -17.7424   18.3502 H   0  0  0  0  0  0
  -31.7548  -18.9376   21.5660 H   0  0  0  0  0  0
  -31.9842  -18.1419   20.0036 H   0  0  0  0  0  0
  -32.0760  -17.2365   21.5227 H   0  0  0  0  0  0
  -26.0896  -22.5233   21.5283 H   0  0  0  0  0  0
  -26.6892  -24.1559   21.9129 H   0  0  0  0  0  0
  -27.5140  -22.7440   22.5235 H   0  0  0  0  0  0
  -29.3937  -24.4611   19.5284 H   0  0  0  0  0  0
  -29.2587  -24.5901   21.2339 H   0  0  0  0  0  0
  -29.7395  -17.7539   21.9922 H   0  0  0  0  0  0
  -27.1829  -23.2537   19.5584 H   0  0  0  0  0  0
  -28.7604  -16.0056   20.6384 H   0  0  0  0  0  0
  1 25  1  0  0  0
  1 30  2  0  0  0
  1 86  1  0  0  0
  2  3  1  0  0  0
  2 25  1  0  0  0
  2 87  1  0  0  0
  2 88  1  0  0  0
  3  4  1  0  0  0
  3 89  1  0  0  0
  3 90  1  0  0  0
  4  5  1  0  0  0
  4 91  1  0  0  0
  4 92  1  0  0  0
  5  6  1  0  0  0
  5 26  1  0  0  0
  5 93  1  0  0  0
  6 25  1  0  0  0
  6 94  1  0  0  0
  6 95  1  0  0  0
  7  8  2  0  0  0
  7 26  1  0  0  0
  7 29  1  0  0  0
  8  9  1  0  0  0
  8 22  1  0  0  0
  9 10  1  0  0  0
  9 27  2  0  0  0
 10 11  2  0  0  0
 10 15  1  0  0  0
 11 12  1  0  0  0
 11 96  1  0  0  0
 12 13  2  0  0  0
 12 97  1  0  0  0
 13 14  1  0  0  0
 13 31  1  0  0  0
 14 15  2  0  0  0
 14 98  1  0  0  0
 15 99  1  0  0  0
 16 17  2  0  0  0
 16 21  1  0  0  0
 16 31  1  0  0  0
 17 18  1  0  0  0
 17100  1  0  0  0
 18 19  2  0  0  0
 18101  1  0  0  0
 19 20  1  0  0  0
 19 24  1  0  0  0
 20 21  2  0  0  0
 20102  1  0  0  0
 21 23  1  0  0  0
 22 28  1  0  0  0
 22 32  2  0  0  0
 26 27  1  0  0  0
 28103  1  0  0  0
 28104  1  0  0  0
 29105  1  0  0  0
 29106  1  0  0  0
 33 34  1  0  0  0
 33 66  1  0  0  0
 33 70  2  0  0  0
 34 36  1  0  0  0
 34 59  1  0  0  0
 34107  1  0  0  0
 35 44  2  0  0  0
 35 45  1  0  0  0
 35 68  1  0  0  0
 36 56  1  0  0  0
 36108  1  0  0  0
 37 39  1  0  0  0
 37 47  1  0  0  0
 37 66  1  0  0  0
 37109  1  0  0  0
 38 43  2  0  0  0
 38 46  1  0  0  0
 38 47  1  0  0  0
 39 64  1  0  0  0
 39 67  2  0  0  0
 40 52  1  0  0  0
 40 53  2  0  0  0
 40 58  1  0  0  0
 41110  1  0  0  0
 41111  1  0  0  0
 41112  1  0  0  0
 41 48  1  0  0  0
 42 43  1  0  0  0
 42 66  1  0  0  0
 42113  1  0  0  0
 42114  1  0  0  0
 43 44  1  0  0  0
 44115  1  0  0  0
 45 46  2  0  0  0
 45116  1  0  0  0
 46117  1  0  0  0
 47118  1  0  0  0
 47119  1  0  0  0
 48 56  1  0  0  0
 48 65  1  0  0  0
 48120  1  0  0  0
 49 50  1  0  0  0
 49 53  1  0  0  0
 49 64  1  0  0  0
 49121  1  0  0  0
 50 51  1  0  0  0
 50122  1  0  0  0
 50123  1  0  0  0
 51 52  1  0  0  0
 51124  1  0  0  0
 51125  1  0  0  0
 52126  1  0  0  0
 52127  1  0  0  0
 53 54  1  0  0  0
 54 55  2  0  0  0
 54128  1  0  0  0
 55 57  1  0  0  0
 55129  1  0  0  0
 56 69  2  0  0  0
 57 58  2  0  0  0
 57130  1  0  0  0
 58131  1  0  0  0
 59 60  1  0  0  0
 59 61  1  0  0  0
 59 62  1  0  0  0
 60132  1  0  0  0
 60133  1  0  0  0
 60134  1  0  0  0
 61135  1  0  0  0
 61136  1  0  0  0
 61137  1  0  0  0
 62138  1  0  0  0
 62139  1  0  0  0
 62140  1  0  0  0
 63 65  1  0  0  0
 63141  1  0  0  0
 63142  1  0  0  0
 63143  1  0  0  0
 64144  1  0  0  0
 65145  1  0  0  0
 68 82  1  0  0  0
 71 72  1  0  0  0
 71 73  2  0  0  0
 71 78  1  0  0  0
 72 74  2  0  0  0
 72 83  1  0  0  0
 73 84  1  0  0  0
 73 85  1  0  0  0
 74 79  1  0  0  0
 74 85  1  0  0  0
 75 76  1  0  0  0
 75 77  1  0  0  0
 75146  1  0  0  0
 75147  1  0  0  0
 76 77  1  0  0  0
 76148  1  0  0  0
 76149  1  0  0  0
 77 85  1  0  0  0
 77150  1  0  0  0
 78151  1  0  0  0
 78152  1  0  0  0
 78153  1  0  0  0
 79154  1  0  0  0
 79155  1  0  0  0
 79156  1  0  0  0
 80157  1  0  0  0
 80158  1  0  0  0
 80159  1  0  0  0
 80 83  1  0  0  0
 81160  1  0  0  0
 81161  1  0  0  0
 81162  1  0  0  0
 81 84  1  0  0  0
 82 84  1  0  0  0
 82163  1  0  0  0
 82164  1  0  0  0
 83 86  1  0  0  0
 83165  1  0  0  0
 84166  1  0  0  0
 86167  1  0  0  0
M  ISO  4   1 100  68 101  82 101  86 100
M  END
> <chiral flag>
0

> <version>
0

> <s_m_source_file>
/data/baiqing/PycharmProjects/Reinvent-master-3.2/result/LINK_invent/BTK/process_docking_weight1_custom_sum_contain_oxygen_bond_distance_aromatic_linkinvent_7_9_3/rearranged_h_0163.sdf

> <i_m_source_file_index>
52

> <r_mmod_Potential_Energy-OPLS-2005>
750.954528808594

> <r_mmod_Stretch_Energy-OPLS-2005>
341.226135253906

> <r_mmod_Bend_Energy-OPLS-2005>
420.4150390625

> <r_mmod_Torsional_Energy-OPLS-2005>
278.962341308594

> <r_mmod_Improper_Torsional_Energy-OPLS-2005>
5.29135084152222

> <r_mmod_Van_der_Waal_Energy-OPLS-2005>
103.013885498047

> <r_mmod_Electrostatic_Energy-OPLS-2005>
-423.52880859375

> <r_mmod_Solvation_Energy-OPLS-2005>
-204.018737792969

> <b_mmod_Minimization_Converged-OPLS-2005>
0

> <r_mmod_RMS_Derivative-OPLS-2005>
6.31518650054932

$$$$
52
                    3D
 Structure written by MMmdl.
178187  0  0  1  0            999 V2000
  -30.7220  -14.6469   20.4679 C   0  0  0  0  0  0
  -30.4153  -12.4181   19.4300 C   0  0  0  0  0  0
  -29.4867  -12.4948   18.2038 C   0  0  0  0  0  0
  -28.0157  -12.3277   18.6304 C   0  0  0  0  0  0
  -27.6369  -13.2195   19.8450 C   0  0  2  0  0  0
  -28.6991  -13.1358   20.9651 C   0  0  0  0  0  0
  -25.2492  -13.8180   20.5704 C   0  0  0  0  0  0
  -24.1777  -13.0428   20.9199 C   0  0  0  0  0  0
  -24.6357  -11.6909   20.8737 C   0  0  0  0  0  0
  -23.9048  -10.4284   21.0393 C   0  0  0  0  0  0
  -24.3606   -9.4204   21.9161 C   0  0  0  0  0  0
  -23.6294   -8.2230   22.0733 C   0  0  0  0  0  0
  -22.4277   -8.0258   21.3530 C   0  0  0  0  0  0
  -21.9907   -9.0233   20.4631 C   0  0  0  0  0  0
  -22.7225  -10.2117   20.3045 C   0  0  0  0  0  0
  -21.6852   -6.0725   22.5275 C   0  0  0  0  0  0
  -21.4008   -6.5632   23.8208 C   0  0  0  0  0  0
  -21.3659   -5.6780   24.9168 C   0  0  0  0  0  0
  -21.6049   -4.3046   24.7217 C   0  0  0  0  0  0
  -21.8819   -3.8135   23.4340 C   0  0  0  0  0  0
  -21.9187   -4.6951   22.3397 C   0  0  0  0  0  0
  -22.7802  -13.5221   21.1858 C   0  0  0  0  0  0
  -22.1659   -4.2138   21.0974 F   0  0  0  0  0  0
  -21.5637   -3.4532   25.7734 F   0  0  0  0  0  0
  -29.9843  -13.4924   20.3510 N   0  0  0  0  0  0
  -26.2910  -12.9363   20.3299 N   0  0  0  0  0  0
  -25.9285  -11.6523   20.5757 N   0  0  0  0  0  0
  -22.0442  -12.8221   22.0416 N   0  0  0  0  0  0
  -25.4158  -15.1910   20.4133 N   0  0  0  0  0  0
  -31.9414  -14.5707   20.3033 O   0  0  0  0  0  0
  -21.6640   -6.8865   21.4238 O   0  0  0  0  0  0
  -22.3487  -14.5520   20.6688 O   0  0  0  0  0  0
  -24.6232  -31.8632   23.2058 C   0  0  0  0  0  0
  -25.9089  -32.4803   23.8373 C   0  0  1  0  0  0
  -27.2157  -27.3490   20.1086 C   0  0  0  0  0  0
  -25.5915  -33.8601   24.2297 N   0  0  0  0  0  0
  -23.4150  -30.4893   21.5485 C   0  0  2  0  0  0
  -24.8595  -28.9540   20.1089 C   0  0  0  0  0  0
  -22.7459  -29.4648   22.4950 C   0  0  0  0  0  0
  -18.0280  -28.1383   22.8496 C   0  0  0  0  0  0
  -24.1490  -36.7304   23.2639 C   0  0  0  0  0  0
  -25.9547  -30.8042   21.3724 C   0  0  0  0  0  0
  -26.0290  -29.4361   20.7116 C   0  0  0  0  0  0
  -27.2121  -28.6446   20.7030 C   0  0  0  0  0  0
  -26.0266  -26.9189   19.4754 C   0  0  0  0  0  0
  -24.8585  -27.6997   19.4832 C   0  0  0  0  0  0
  -23.6267  -29.8298   20.1626 C   0  0  0  0  0  0
  -25.4113  -36.3100   24.0331 C   0  0  1  0  0  0
  -20.5880  -28.3681   23.1301 C   0  0  2  0  0  0
  -20.6772  -26.9408   22.5420 C   0  0  0  0  0  0
  -19.5748  -26.6384   21.5221 C   0  0  0  0  0  0
  -18.1926  -26.7929   22.1628 C   0  0  0  0  0  0
  -19.1531  -28.8845   23.2897 C   0  0  0  0  0  0
  -18.9452  -30.1446   23.8914 C   0  0  0  0  0  0
  -17.6455  -30.6590   24.0559 C   0  0  0  0  0  0
  -25.9047  -34.9469   23.5115 C   0  0  0  0  0  0
  -16.5348  -29.9090   23.6328 C   0  0  0  0  0  0
  -16.7268  -28.6504   23.0357 C   0  0  0  0  0  0
  -26.4473  -31.6602   25.0731 C   0  0  0  0  0  0
  -25.3706  -31.3742   26.1461 C   0  0  0  0  0  0
  -27.0300  -30.3030   24.6159 C   0  0  0  0  0  0
  -27.6054  -32.4316   25.7491 C   0  0  0  0  0  0
  -27.5580  -37.1813   24.8462 C   0  0  0  0  0  0
  -21.4174  -29.3039   22.3696 N   0  0  0  0  0  0
  -26.4297  -37.3786   23.9401 N   0  0  0  0  0  0
  -24.6837  -31.0676   22.1000 N   0  0  0  0  0  0
  -23.4198  -28.8183   23.3014 O   0  0  0  0  0  0
  -28.3258  -26.5007   20.1688 O   0  0  0  0  0  0
  -26.5613  -34.8924   22.4682 O   0  0  0  0  0  0
  -23.5405  -32.1416   23.7404 O   0  0  0  0  0  0
  -28.7616  -17.9032   21.1796 C   0  0  0  0  0  0
  -29.5369  -22.1823   19.2159 C   0  0  0  0  0  0
  -28.5437  -22.7130   21.3570 C   0  0  0  0  0  0
  -28.7983  -16.4277   20.6288 C   0  0  0  0  0  0
  -30.8819  -16.9522   19.5135 C   0  0  0  0  0  0
  -30.1329  -23.5080   19.7402 C   0  0  2  0  0  0
  -30.9717  -18.3626   20.1900 C   0  0  2  0  0  0
  -29.5469  -18.9753   20.3599 C   0  0  2  0  0  0
  -28.8106  -21.5023   20.3934 C   0  0  2  0  0  0
  -29.1387  -24.0650   20.7930 C   0  0  2  0  0  0
  -30.5576  -24.4818   18.6280 C   0  0  0  0  0  0
  -29.8882  -24.8086   21.9181 C   0  0  0  0  0  0
  -33.4462  -18.9572   19.8212 C   0  0  0  0  0  0
  -31.8095  -19.3442   17.9299 C   0  0  0  0  0  0
  -28.0354  -25.0566   20.2255 C   0  0  0  0  0  0
  -31.9882  -19.2952   19.4597 C   0  0  0  0  0  0
  -30.1449  -15.9034   20.2822 N   0  0  0  0  0  0
  -29.5466  -20.3371   21.0301 N   0  3  0  0  0  0
  -31.4544  -12.5177   19.1081 H   0  0  0  0  0  0
  -30.3483  -11.4421   19.9132 H   0  0  0  0  0  0
  -29.7574  -11.7292   17.4755 H   0  0  0  0  0  0
  -29.6154  -13.4546   17.7004 H   0  0  0  0  0  0
  -27.8619  -11.2778   18.8796 H   0  0  0  0  0  0
  -27.3575  -12.5376   17.7868 H   0  0  0  0  0  0
  -27.6269  -14.2362   19.4627 H   0  0  0  0  0  0
  -28.7392  -12.1255   21.3732 H   0  0  0  0  0  0
  -28.4614  -13.7722   21.8147 H   0  0  0  0  0  0
  -25.2744   -9.5707   22.4732 H   0  0  0  0  0  0
  -24.0004   -7.4640   22.7462 H   0  0  0  0  0  0
  -21.0836   -8.8757   19.8956 H   0  0  0  0  0  0
  -22.3666  -10.9654   19.6164 H   0  0  0  0  0  0
  -21.2002   -7.6139   23.9711 H   0  0  0  0  0  0
  -21.1489   -6.0507   25.9074 H   0  0  0  0  0  0
  -22.0603   -2.7598   23.2833 H   0  0  0  0  0  0
  -22.4071  -11.9909   22.4856 H   0  0  0  0  0  0
  -21.1044  -13.1232   22.2578 H   0  0  0  0  0  0
  -24.6456  -15.8421   20.5235 H   0  0  0  0  0  0
  -26.2653  -15.6325   20.0913 H   0  0  0  0  0  0
  -26.7163  -32.5476   23.1128 H   0  0  0  0  0  0
  -25.0039  -33.9751   25.0426 H   0  0  0  0  0  0
  -22.7070  -31.3091   21.4096 H   0  0  0  0  0  0
  -23.3757  -35.9632   23.3299 H   0  0  0  0  0  0
  -24.3591  -36.8927   22.2057 H   0  0  0  0  0  0
  -23.7233  -37.6503   23.6659 H   0  0  0  0  0  0
  -26.0791  -31.5707   20.6057 H   0  0  0  0  0  0
  -26.8391  -30.8522   21.9975 H   0  0  0  0  0  0
  -28.1081  -29.0047   21.1886 H   0  0  0  0  0  0
  -25.9684  -25.9628   18.9782 H   0  0  0  0  0  0
  -23.9623  -27.3250   19.0079 H   0  0  0  0  0  0
  -23.7419  -30.6075   19.4067 H   0  0  0  0  0  0
  -22.7471  -29.2569   19.8638 H   0  0  0  0  0  0
  -25.1291  -36.1964   25.0824 H   0  0  0  0  0  0
  -20.9970  -28.3252   24.1422 H   0  0  0  0  0  0
  -20.5693  -26.2280   23.3609 H   0  0  0  0  0  0
  -21.6639  -26.7456   22.1200 H   0  0  0  0  0  0
  -19.6909  -25.6297   21.1247 H   0  0  0  0  0  0
  -19.6699  -27.3199   20.6756 H   0  0  0  0  0  0
  -17.4200  -26.6683   21.4026 H   0  0  0  0  0  0
  -18.0324  -26.0073   22.9026 H   0  0  0  0  0  0
  -19.7926  -30.7253   24.2307 H   0  0  0  0  0  0
  -17.5010  -31.6280   24.5142 H   0  0  0  0  0  0
  -15.5348  -30.2995   23.7643 H   0  0  0  0  0  0
  -15.8668  -28.0826   22.7070 H   0  0  0  0  0  0
  -24.5872  -30.7103   25.7783 H   0  0  0  0  0  0
  -24.8898  -32.2911   26.4889 H   0  0  0  0  0  0
  -25.8020  -30.8911   27.0236 H   0  0  0  0  0  0
  -26.2865  -29.6805   24.1165 H   0  0  0  0  0  0
  -27.3987  -29.7262   25.4649 H   0  0  0  0  0  0
  -27.8738  -30.4324   23.9377 H   0  0  0  0  0  0
  -27.2696  -33.3634   26.2054 H   0  0  0  0  0  0
  -28.3869  -32.6844   25.0313 H   0  0  0  0  0  0
  -28.0707  -31.8437   26.5412 H   0  0  0  0  0  0
  -28.2605  -38.0104   24.7501 H   0  0  0  0  0  0
  -28.1068  -36.2634   24.6295 H   0  0  0  0  0  0
  -27.2298  -37.1473   25.8866 H   0  0  0  0  0  0
  -20.9336  -29.8753   21.6908 H   0  0  0  0  0  0
  -26.0183  -38.2867   24.1394 H   0  0  0  0  0  0
  -29.1476  -17.8869   22.2005 H   0  0  0  0  0  0
  -27.7184  -18.2119   21.2667 H   0  0  0  0  0  0
  -30.2840  -21.5521   18.7418 H   0  0  0  0  0  0
  -28.7982  -22.4094   18.4454 H   0  0  0  0  0  0
  -28.9713  -22.4942   22.3364 H   0  0  0  0  0  0
  -27.4733  -22.8089   21.5408 H   0  0  0  0  0  0
  -28.1953  -16.3897   19.7209 H   0  0  0  0  0  0
  -28.3012  -15.8026   21.3625 H   0  0  0  0  0  0
  -31.8895  -16.6423   19.2386 H   0  0  0  0  0  0
  -30.3700  -17.0471   18.5542 H   0  0  0  0  0  0
  -31.0459  -23.2320   20.2722 H   0  0  0  0  0  0
  -31.3669  -18.2084   21.1951 H   0  0  0  0  0  0
  -29.0882  -19.0782   19.3758 H   0  0  0  0  0  0
  -27.8492  -21.1195   20.0442 H   0  0  0  0  0  0
  -29.7294  -24.7311   17.9646 H   0  0  0  0  0  0
  -31.3466  -24.0469   18.0136 H   0  0  0  0  0  0
  -30.9443  -25.4132   19.0423 H   0  0  0  0  0  0
  -30.6420  -24.1832   22.3970 H   0  0  0  0  0  0
  -29.1987  -25.1430   22.6937 H   0  0  0  0  0  0
  -30.4016  -25.6909   21.5346 H   0  0  0  0  0  0
  -33.6043  -18.9702   20.9007 H   0  0  0  0  0  0
  -34.1375  -19.6845   19.3933 H   0  0  0  0  0  0
  -33.7431  -17.9740   19.4576 H   0  0  0  0  0  0
  -30.7755  -19.5355   17.6446 H   0  0  0  0  0  0
  -32.1154  -18.4111   17.4559 H   0  0  0  0  0  0
  -32.4170  -20.1376   17.4930 H   0  0  0  0  0  0
  -27.1585  -24.9406   20.8653 H   0  0  0  0  0  0
  -27.7281  -24.7077   19.2396 H   0  0  0  0  0  0
  -31.8473  -20.3107   19.8279 H   0  0  0  0  0  0
  -30.5017  -20.6132   21.1907 H   0  0  0  0  0  0
  -29.1385  -20.1941   21.9400 H   0  0  0  0  0  0
  1 25  1  0  0  0
  1 30  2  0  0  0
  1 87  1  0  0  0
  2  3  1  0  0  0
  2 25  1  0  0  0
  2 89  1  0  0  0
  2 90  1  0  0  0
  3  4  1  0  0  0
  3 91  1  0  0  0
  3 92  1  0  0  0
  4  5  1  0  0  0
  4 93  1  0  0  0
  4 94  1  0  0  0
  5  6  1  0  0  0
  5 26  1  0  0  0
  5 95  1  0  0  0
  6 25  1  0  0  0
  6 96  1  0  0  0
  6 97  1  0  0  0
  7  8  2  0  0  0
  7 26  1  0  0  0
  7 29  1  0  0  0
  8  9  1  0  0  0
  8 22  1  0  0  0
  9 10  1  0  0  0
  9 27  2  0  0  0
 10 11  2  0  0  0
 10 15  1  0  0  0
 11 12  1  0  0  0
 11 98  1  0  0  0
 12 13  2  0  0  0
 12 99  1  0  0  0
 13 14  1  0  0  0
 13 31  1  0  0  0
 14 15  2  0  0  0
 14100  1  0  0  0
 15101  1  0  0  0
 16 17  2  0  0  0
 16 21  1  0  0  0
 16 31  1  0  0  0
 17 18  1  0  0  0
 17102  1  0  0  0
 18 19  2  0  0  0
 18103  1  0  0  0
 19 20  1  0  0  0
 19 24  1  0  0  0
 20 21  2  0  0  0
 20104  1  0  0  0
 21 23  1  0  0  0
 22 28  1  0  0  0
 22 32  2  0  0  0
 26 27  1  0  0  0
 28105  1  0  0  0
 28106  1  0  0  0
 29107  1  0  0  0
 29108  1  0  0  0
 33 34  1  0  0  0
 33 66  1  0  0  0
 33 70  2  0  0  0
 34 36  1  0  0  0
 34 59  1  0  0  0
 34109  1  0  0  0
 35 44  2  0  0  0
 35 45  1  0  0  0
 35 68  1  0  0  0
 36 56  1  0  0  0
 36110  1  0  0  0
 37 39  1  0  0  0
 37 47  1  0  0  0
 37 66  1  0  0  0
 37111  1  0  0  0
 38 43  2  0  0  0
 38 46  1  0  0  0
 38 47  1  0  0  0
 39 64  1  0  0  0
 39 67  2  0  0  0
 40 52  1  0  0  0
 40 53  2  0  0  0
 40 58  1  0  0  0
 41112  1  0  0  0
 41113  1  0  0  0
 41114  1  0  0  0
 41 48  1  0  0  0
 42 43  1  0  0  0
 42 66  1  0  0  0
 42115  1  0  0  0
 42116  1  0  0  0
 43 44  1  0  0  0
 44117  1  0  0  0
 45 46  2  0  0  0
 45118  1  0  0  0
 46119  1  0  0  0
 47120  1  0  0  0
 47121  1  0  0  0
 48 56  1  0  0  0
 48 65  1  0  0  0
 48122  1  0  0  0
 49 50  1  0  0  0
 49 53  1  0  0  0
 49 64  1  0  0  0
 49123  1  0  0  0
 50 51  1  0  0  0
 50124  1  0  0  0
 50125  1  0  0  0
 51 52  1  0  0  0
 51126  1  0  0  0
 51127  1  0  0  0
 52128  1  0  0  0
 52129  1  0  0  0
 53 54  1  0  0  0
 54 55  2  0  0  0
 54130  1  0  0  0
 55 57  1  0  0  0
 55131  1  0  0  0
 56 69  2  0  0  0
 57 58  2  0  0  0
 57132  1  0  0  0
 58133  1  0  0  0
 59 60  1  0  0  0
 59 61  1  0  0  0
 59 62  1  0  0  0
 60134  1  0  0  0
 60135  1  0  0  0
 60136  1  0  0  0
 61137  1  0  0  0
 61138  1  0  0  0
 61139  1  0  0  0
 62140  1  0  0  0
 62141  1  0  0  0
 62142  1  0  0  0
 63 65  1  0  0  0
 63143  1  0  0  0
 63144  1  0  0  0
 63145  1  0  0  0
 64146  1  0  0  0
 65147  1  0  0  0
 68 85  1  0  0  0
 71 74  1  0  0  0
 71 78  1  0  0  0
 71148  1  0  0  0
 71149  1  0  0  0
 72 76  1  0  0  0
 72 79  1  0  0  0
 72150  1  0  0  0
 72151  1  0  0  0
 73 79  1  0  0  0
 73 80  1  0  0  0
 73152  1  0  0  0
 73153  1  0  0  0
 74 87  1  0  0  0
 74154  1  0  0  0
 74155  1  0  0  0
 75 87  1  0  0  0
 75156  1  0  0  0
 75157  1  0  0  0
 75 77  1  0  0  0
 76 80  1  0  0  0
 76 81  1  0  0  0
 76158  1  0  0  0
 77 78  1  0  0  0
 77 86  1  0  0  0
 77159  1  0  0  0
 78 88  1  0  0  0
 78160  1  0  0  0
 79 88  1  0  0  0
 79161  1  0  0  0
 80 82  1  0  0  0
 80 85  1  0  0  0
 81162  1  0  0  0
 81163  1  0  0  0
 81164  1  0  0  0
 82165  1  0  0  0
 82166  1  0  0  0
 82167  1  0  0  0
 83168  1  0  0  0
 83169  1  0  0  0
 83170  1  0  0  0
 83 86  1  0  0  0
 84 86  1  0  0  0
 84171  1  0  0  0
 84172  1  0  0  0
 84173  1  0  0  0
 85174  1  0  0  0
 85175  1  0  0  0
 86176  1  0  0  0
 88177  1  0  0  0
 88178  1  0  0  0
M  CHG  1  88   1
M  ISO  4   1 100  68 101  85 101  87 100
M  END
> <chiral flag>
0

> <version>
0

> <s_m_source_file>
/data/baiqing/PycharmProjects/Reinvent-master-3.2/result/LINK_invent/BTK/process_docking_weight1_custom_sum_contain_oxygen_bond_distance_aromatic_linkinvent_7_9_3/rearranged_h_0163.sdf

> <i_m_source_file_index>
53

> <r_mmod_Potential_Energy-OPLS-2005>
316.287506103516

> <r_mmod_Stretch_Energy-OPLS-2005>
78.1708679199219

> <r_mmod_Bend_Energy-OPLS-2005>
190.123672485352

> <r_mmod_Torsional_Energy-OPLS-2005>
428.044738769531

> <r_mmod_Improper_Torsional_Energy-OPLS-2005>
14.938232421875

> <r_mmod_Van_der_Waal_Energy-OPLS-2005>
137.303649902344

> <r_mmod_Electrostatic_Energy-OPLS-2005>
-157.30158996582

> <r_mmod_Solvation_Energy-OPLS-2005>
-435.283325195312

> <b_mmod_Minimization_Converged-OPLS-2005>
0

> <r_mmod_RMS_Derivative-OPLS-2005>
1.85312139987946

$$$$
53
                    3D
 Structure written by MMmdl.
179188  0  0  1  0            999 V2000
  -30.6481  -14.7188   20.4311 C   0  0  0  0  0  0
  -30.4225  -12.4372   19.4669 C   0  0  0  0  0  0
  -29.5046  -12.4983   18.2281 C   0  0  0  0  0  0
  -28.0296  -12.3334   18.6416 C   0  0  0  0  0  0
  -27.6374  -13.2367   19.8415 C   0  0  2  0  0  0
  -28.6847  -13.1885   20.9746 C   0  0  0  0  0  0
  -25.2497  -13.8194   20.5717 C   0  0  0  0  0  0
  -24.1792  -13.0430   20.9203 C   0  0  0  0  0  0
  -24.6396  -11.6914   20.8733 C   0  0  0  0  0  0
  -23.9069  -10.4292   21.0393 C   0  0  0  0  0  0
  -24.3622   -9.4211   21.9173 C   0  0  0  0  0  0
  -23.6305   -8.2243   22.0746 C   0  0  0  0  0  0
  -22.4283   -8.0277   21.3541 C   0  0  0  0  0  0
  -21.9911   -9.0248   20.4646 C   0  0  0  0  0  0
  -22.7235  -10.2130   20.3052 C   0  0  0  0  0  0
  -21.6860   -6.0736   22.5284 C   0  0  0  0  0  0
  -21.4014   -6.5640   23.8214 C   0  0  0  0  0  0
  -21.3660   -5.6790   24.9177 C   0  0  0  0  0  0
  -21.6046   -4.3058   24.7227 C   0  0  0  0  0  0
  -21.8819   -3.8149   23.4348 C   0  0  0  0  0  0
  -21.9197   -4.6964   22.3405 C   0  0  0  0  0  0
  -22.7817  -13.5215   21.1872 C   0  0  0  0  0  0
  -22.1668   -4.2153   21.0982 F   0  0  0  0  0  0
  -21.5626   -3.4539   25.7739 F   0  0  0  0  0  0
  -29.9854  -13.5156   20.3814 N   0  0  0  0  0  0
  -26.2924  -12.9425   20.3261 N   0  0  0  0  0  0
  -25.9327  -11.6555   20.5723 N   0  0  0  0  0  0
  -22.0462  -12.8209   22.0426 N   0  0  0  0  0  0
  -25.4167  -15.1919   20.4221 N   0  0  0  0  0  0
  -31.8595  -14.7470   20.2087 O   0  0  0  0  0  0
  -21.6645   -6.8878   21.4244 O   0  0  0  0  0  0
  -22.3505  -14.5518   20.6720 O   0  0  0  0  0  0
  -24.6298  -31.8566   23.1992 C   0  0  0  0  0  0
  -25.9135  -32.4754   23.8331 C   0  0  1  0  0  0
  -27.2173  -27.2846   20.1296 C   0  0  0  0  0  0
  -25.5942  -33.8555   24.2262 N   0  0  0  0  0  0
  -23.4253  -30.4794   21.5420 C   0  0  2  0  0  0
  -24.8719  -28.9277   20.1110 C   0  0  0  0  0  0
  -22.7495  -29.4607   22.4914 C   0  0  0  0  0  0
  -18.0292  -28.1392   22.8476 C   0  0  0  0  0  0
  -24.1494  -36.7282   23.2637 C   0  0  0  0  0  0
  -25.9687  -30.7771   21.3750 C   0  0  0  0  0  0
  -26.0428  -29.4012   20.7178 C   0  0  0  0  0  0
  -27.2223  -28.5927   20.7134 C   0  0  0  0  0  0
  -26.0292  -26.8736   19.4901 C   0  0  0  0  0  0
  -24.8686  -27.6708   19.4853 C   0  0  0  0  0  0
  -23.6423  -29.8127   20.1580 C   0  0  0  0  0  0
  -25.4115  -36.3064   24.0328 C   0  0  1  0  0  0
  -20.5894  -28.3695   23.1270 C   0  0  2  0  0  0
  -20.6777  -26.9412   22.5410 C   0  0  0  0  0  0
  -19.5757  -26.6383   21.5207 C   0  0  0  0  0  0
  -18.1935  -26.7933   22.1612 C   0  0  0  0  0  0
  -19.1545  -28.8859   23.2867 C   0  0  0  0  0  0
  -18.9466  -30.1459   23.8884 C   0  0  0  0  0  0
  -17.6465  -30.6587   24.0562 C   0  0  0  0  0  0
  -25.9054  -34.9438   23.5094 C   0  0  0  0  0  0
  -16.5355  -29.9081   23.6335 C   0  0  0  0  0  0
  -16.7280  -28.6506   23.0346 C   0  0  0  0  0  0
  -26.4508  -31.6572   25.0714 C   0  0  0  0  0  0
  -25.3740  -31.3737   26.1448 C   0  0  0  0  0  0
  -27.0336  -30.2979   24.6196 C   0  0  0  0  0  0
  -27.6072  -32.4307   25.7481 C   0  0  0  0  0  0
  -27.5582  -37.1791   24.8461 C   0  0  0  0  0  0
  -21.4202  -29.3044   22.3660 N   0  0  0  0  0  0
  -26.4289  -37.3766   23.9409 N   0  0  0  0  0  0
  -24.6934  -31.0552   22.0954 N   0  0  0  0  0  0
  -23.4200  -28.8154   23.3015 O   0  0  0  0  0  0
  -28.3075  -26.3942   20.1500 O   0  0  0  0  0  0
  -26.5618  -34.8914   22.4656 O   0  0  0  0  0  0
  -23.5456  -32.1377   23.7306 O   0  0  0  0  0  0
  -29.7843  -19.9556   20.7321 C   0  0  0  0  0  0
  -29.4959  -18.6124   20.2188 C   0  0  0  0  0  0
  -28.7392  -20.8438   20.4526 C   0  0  0  0  0  0
  -28.2696  -18.7507   19.6159 C   0  0  0  0  0  0
  -24.6438  -21.5273   19.1964 C   0  0  0  0  0  0
  -26.0701  -21.8884   18.7692 C   0  0  0  0  0  0
  -25.2555  -20.5201   20.1844 C   0  0  2  0  0  0
  -26.4891  -20.4901   19.2607 C   0  0  2  0  0  0
  -27.4929  -17.7108   18.8592 C   0  0  0  0  0  0
  -24.5071  -19.2318   20.4969 C   0  0  0  0  0  0
  -32.3277  -20.1978   20.6951 C   0  0  0  0  0  0
  -31.0985  -19.7086   22.8809 C   0  0  0  0  0  0
  -31.0738  -17.3524   18.7630 C   0  0  0  0  0  0
  -28.4625  -22.3222   20.9446 C   0  0  0  0  0  0
  -28.7578  -23.6782   20.1182 C   0  0  0  0  0  0
  -28.0663  -25.0201   20.6932 C   0  0  0  0  0  0
  -31.0305  -20.3745   21.4989 C   0  0  0  0  0  0
  -30.4294  -17.3150   20.1685 C   0  0  2  0  0  0
  -27.8018  -20.0752   19.7440 N   0  0  0  0  0  0
  -29.9190  -15.9000   20.4638 N   0  0  0  0  0  0
  -31.4656  -12.5430   19.1633 H   0  0  0  0  0  0
  -30.3499  -11.4665   19.9593 H   0  0  0  0  0  0
  -29.7813  -11.7221   17.5134 H   0  0  0  0  0  0
  -29.6398  -13.4509   17.7134 H   0  0  0  0  0  0
  -27.8790  -11.2858   18.9030 H   0  0  0  0  0  0
  -27.3751  -12.5308   17.7915 H   0  0  0  0  0  0
  -27.6251  -14.2549   19.4524 H   0  0  0  0  0  0
  -28.7133  -12.2033   21.4422 H   0  0  0  0  0  0
  -28.4295  -13.8988   21.7630 H   0  0  0  0  0  0
  -25.2765   -9.5705   22.4748 H   0  0  0  0  0  0
  -24.0026   -7.4638   22.7461 H   0  0  0  0  0  0
  -21.0841   -8.8769   19.8957 H   0  0  0  0  0  0
  -22.3683  -10.9672   19.6169 H   0  0  0  0  0  0
  -21.2006   -7.6148   23.9719 H   0  0  0  0  0  0
  -21.1477   -6.0522   25.9081 H   0  0  0  0  0  0
  -22.0597   -2.7612   23.2845 H   0  0  0  0  0  0
  -22.4074  -11.9882   22.4838 H   0  0  0  0  0  0
  -21.1078  -13.1249   22.2621 H   0  0  0  0  0  0
  -24.6482  -15.8403   20.5521 H   0  0  0  0  0  0
  -26.2769  -15.6411   20.1444 H   0  0  0  0  0  0
  -26.7199  -32.5419   23.1072 H   0  0  0  0  0  0
  -25.0116  -33.9692   25.0426 H   0  0  0  0  0  0
  -22.7203  -31.3005   21.3967 H   0  0  0  0  0  0
  -23.3758  -35.9613   23.3293 H   0  0  0  0  0  0
  -24.3589  -36.8909   22.2054 H   0  0  0  0  0  0
  -23.7247  -37.6479   23.6666 H   0  0  0  0  0  0
  -26.1053  -31.5387   20.6061 H   0  0  0  0  0  0
  -26.8466  -30.8253   22.0075 H   0  0  0  0  0  0
  -28.1217  -28.9499   21.1953 H   0  0  0  0  0  0
  -25.9895  -25.9108   19.0004 H   0  0  0  0  0  0
  -23.9740  -27.3057   19.0001 H   0  0  0  0  0  0
  -23.7649  -30.5885   19.4009 H   0  0  0  0  0  0
  -22.7612  -29.2441   19.8552 H   0  0  0  0  0  0
  -25.1299  -36.1907   25.0820 H   0  0  0  0  0  0
  -20.9986  -28.3279   24.1391 H   0  0  0  0  0  0
  -20.5666  -26.2307   23.3616 H   0  0  0  0  0  0
  -21.6649  -26.7433   22.1217 H   0  0  0  0  0  0
  -19.6918  -25.6289   21.1246 H   0  0  0  0  0  0
  -19.6706  -27.3184   20.6730 H   0  0  0  0  0  0
  -17.4212  -26.6688   21.4007 H   0  0  0  0  0  0
  -18.0327  -26.0077   22.9009 H   0  0  0  0  0  0
  -19.7943  -30.7278   24.2248 H   0  0  0  0  0  0
  -17.5021  -31.6265   24.5168 H   0  0  0  0  0  0
  -15.5351  -30.2975   23.7667 H   0  0  0  0  0  0
  -15.8684  -28.0821   22.7053 H   0  0  0  0  0  0
  -24.5924  -30.7062   25.7799 H   0  0  0  0  0  0
  -24.8920  -32.2911   26.4835 H   0  0  0  0  0  0
  -25.8070  -30.8957   27.0245 H   0  0  0  0  0  0
  -26.2905  -29.6729   24.1230 H   0  0  0  0  0  0
  -27.4012  -29.7241   25.4714 H   0  0  0  0  0  0
  -27.8794  -30.4230   23.9432 H   0  0  0  0  0  0
  -27.2690  -33.3619   26.2041 H   0  0  0  0  0  0
  -28.3891  -32.6844   25.0308 H   0  0  0  0  0  0
  -28.0734  -31.8442   26.5408 H   0  0  0  0  0  0
  -28.2594  -38.0095   24.7507 H   0  0  0  0  0  0
  -28.1081  -36.2622   24.6279 H   0  0  0  0  0  0
  -27.2310  -37.1446   25.8868 H   0  0  0  0  0  0
  -20.9384  -29.8758   21.6860 H   0  0  0  0  0  0
  -26.0168  -38.2838   24.1412 H   0  0  0  0  0  0
  -24.0704  -21.0493   18.3998 H   0  0  0  0  0  0
  -24.0824  -22.3407   19.6586 H   0  0  0  0  0  0
  -26.4189  -22.7359   19.3460 H   0  0  0  0  0  0
  -26.1953  -22.0552   17.6988 H   0  0  0  0  0  0
  -25.5126  -21.0407   21.1085 H   0  0  0  0  0  0
  -26.2760  -19.8388   18.4134 H   0  0  0  0  0  0
  -27.9495  -16.7268   18.9264 H   0  0  0  0  0  0
  -27.4425  -17.9589   17.7984 H   0  0  0  0  0  0
  -26.4761  -17.6214   19.2371 H   0  0  0  0  0  0
  -24.2408  -18.6925   19.5873 H   0  0  0  0  0  0
  -23.5832  -19.4334   21.0395 H   0  0  0  0  0  0
  -25.1114  -18.5651   21.1128 H   0  0  0  0  0  0
  -32.2551  -20.6868   19.7234 H   0  0  0  0  0  0
  -32.5822  -19.1541   20.5262 H   0  0  0  0  0  0
  -33.1698  -20.6478   21.2220 H   0  0  0  0  0  0
  -30.2100  -19.9432   23.4678 H   0  0  0  0  0  0
  -31.9622  -20.0640   23.4434 H   0  0  0  0  0  0
  -31.1711  -18.6240   22.8156 H   0  0  0  0  0  0
  -31.4954  -18.3355   18.5529 H   0  0  0  0  0  0
  -30.3361  -17.1519   17.9857 H   0  0  0  0  0  0
  -31.8882  -16.6417   18.6375 H   0  0  0  0  0  0
  -28.9766  -22.4448   21.8974 H   0  0  0  0  0  0
  -27.4209  -22.3628   21.2568 H   0  0  0  0  0  0
  -28.4471  -23.5488   19.0824 H   0  0  0  0  0  0
  -29.8368  -23.8244   20.0729 H   0  0  0  0  0  0
  -28.3585  -25.0893   21.7413 H   0  0  0  0  0  0
  -26.9958  -24.8207   20.7374 H   0  0  0  0  0  0
  -30.9537  -21.4464   21.6787 H   0  0  0  0  0  0
  -31.2216  -17.4692   20.8974 H   0  0  0  0  0  0
  -28.9306  -15.8109   20.6383 H   0  0  0  0  0  0
  1 25  1  0  0  0
  1 30  2  0  0  0
  1 90  1  0  0  0
  2  3  1  0  0  0
  2 25  1  0  0  0
  2 91  1  0  0  0
  2 92  1  0  0  0
  3  4  1  0  0  0
  3 93  1  0  0  0
  3 94  1  0  0  0
  4  5  1  0  0  0
  4 95  1  0  0  0
  4 96  1  0  0  0
  5  6  1  0  0  0
  5 26  1  0  0  0
  5 97  1  0  0  0
  6 25  1  0  0  0
  6 98  1  0  0  0
  6 99  1  0  0  0
  7  8  2  0  0  0
  7 26  1  0  0  0
  7 29  1  0  0  0
  8  9  1  0  0  0
  8 22  1  0  0  0
  9 10  1  0  0  0
  9 27  2  0  0  0
 10 11  2  0  0  0
 10 15  1  0  0  0
 11 12  1  0  0  0
 11100  1  0  0  0
 12 13  2  0  0  0
 12101  1  0  0  0
 13 14  1  0  0  0
 13 31  1  0  0  0
 14 15  2  0  0  0
 14102  1  0  0  0
 15103  1  0  0  0
 16 17  2  0  0  0
 16 21  1  0  0  0
 16 31  1  0  0  0
 17 18  1  0  0  0
 17104  1  0  0  0
 18 19  2  0  0  0
 18105  1  0  0  0
 19 20  1  0  0  0
 19 24  1  0  0  0
 20 21  2  0  0  0
 20106  1  0  0  0
 21 23  1  0  0  0
 22 28  1  0  0  0
 22 32  2  0  0  0
 26 27  1  0  0  0
 28107  1  0  0  0
 28108  1  0  0  0
 29109  1  0  0  0
 29110  1  0  0  0
 33 34  1  0  0  0
 33 66  1  0  0  0
 33 70  2  0  0  0
 34 36  1  0  0  0
 34 59  1  0  0  0
 34111  1  0  0  0
 35 44  2  0  0  0
 35 45  1  0  0  0
 35 68  1  0  0  0
 36 56  1  0  0  0
 36112  1  0  0  0
 37 39  1  0  0  0
 37 47  1  0  0  0
 37 66  1  0  0  0
 37113  1  0  0  0
 38 43  2  0  0  0
 38 46  1  0  0  0
 38 47  1  0  0  0
 39 64  1  0  0  0
 39 67  2  0  0  0
 40 52  1  0  0  0
 40 53  2  0  0  0
 40 58  1  0  0  0
 41114  1  0  0  0
 41115  1  0  0  0
 41116  1  0  0  0
 41 48  1  0  0  0
 42 43  1  0  0  0
 42 66  1  0  0  0
 42117  1  0  0  0
 42118  1  0  0  0
 43 44  1  0  0  0
 44119  1  0  0  0
 45 46  2  0  0  0
 45120  1  0  0  0
 46121  1  0  0  0
 47122  1  0  0  0
 47123  1  0  0  0
 48 56  1  0  0  0
 48 65  1  0  0  0
 48124  1  0  0  0
 49 50  1  0  0  0
 49 53  1  0  0  0
 49 64  1  0  0  0
 49125  1  0  0  0
 50 51  1  0  0  0
 50126  1  0  0  0
 50127  1  0  0  0
 51 52  1  0  0  0
 51128  1  0  0  0
 51129  1  0  0  0
 52130  1  0  0  0
 52131  1  0  0  0
 53 54  1  0  0  0
 54 55  2  0  0  0
 54132  1  0  0  0
 55 57  1  0  0  0
 55133  1  0  0  0
 56 69  2  0  0  0
 57 58  2  0  0  0
 57134  1  0  0  0
 58135  1  0  0  0
 59 60  1  0  0  0
 59 61  1  0  0  0
 59 62  1  0  0  0
 60136  1  0  0  0
 60137  1  0  0  0
 60138  1  0  0  0
 61139  1  0  0  0
 61140  1  0  0  0
 61141  1  0  0  0
 62142  1  0  0  0
 62143  1  0  0  0
 62144  1  0  0  0
 63 65  1  0  0  0
 63145  1  0  0  0
 63146  1  0  0  0
 63147  1  0  0  0
 64148  1  0  0  0
 65149  1  0  0  0
 68 86  1  0  0  0
 71 72  1  0  0  0
 71 73  2  0  0  0
 71 87  1  0  0  0
 72 74  2  0  0  0
 72 88  1  0  0  0
 73 84  1  0  0  0
 73 89  1  0  0  0
 74 79  1  0  0  0
 74 89  1  0  0  0
 75 76  1  0  0  0
 75 77  1  0  0  0
 75150  1  0  0  0
 75151  1  0  0  0
 76 78  1  0  0  0
 76152  1  0  0  0
 76153  1  0  0  0
 77 78  1  0  0  0
 77 80  1  0  0  0
 77154  1  0  0  0
 78 89  1  0  0  0
 78155  1  0  0  0
 79156  1  0  0  0
 79157  1  0  0  0
 79158  1  0  0  0
 80159  1  0  0  0
 80160  1  0  0  0
 80161  1  0  0  0
 81162  1  0  0  0
 81163  1  0  0  0
 81164  1  0  0  0
 81 87  1  0  0  0
 82 87  1  0  0  0
 82165  1  0  0  0
 82166  1  0  0  0
 82167  1  0  0  0
 83168  1  0  0  0
 83169  1  0  0  0
 83170  1  0  0  0
 83 88  1  0  0  0
 84 85  1  0  0  0
 84171  1  0  0  0
 84172  1  0  0  0
 85 86  1  0  0  0
 85173  1  0  0  0
 85174  1  0  0  0
 86175  1  0  0  0
 86176  1  0  0  0
 87177  1  0  0  0
 88 90  1  0  0  0
 88178  1  0  0  0
 90179  1  0  0  0
M  ISO  4   1 100  68 101  86 101  90 100
M  END
> <chiral flag>
0

> <version>
0

> <s_m_source_file>
/data/baiqing/PycharmProjects/Reinvent-master-3.2/result/LINK_invent/BTK/process_docking_weight1_custom_sum_contain_oxygen_bond_distance_aromatic_linkinvent_7_9_3/rearranged_h_0163.sdf

> <i_m_source_file_index>
54

> <r_mmod_Potential_Energy-OPLS-2005>
144.140182495117

> <r_mmod_Stretch_Energy-OPLS-2005>
115.954414367676

> <r_mmod_Bend_Energy-OPLS-2005>
196.972122192383

> <r_mmod_Torsional_Energy-OPLS-2005>
276.886291503906

> <r_mmod_Improper_Torsional_Energy-OPLS-2005>
7.52800559997559

> <r_mmod_Van_der_Waal_Energy-OPLS-2005>
111.393539428711

> <r_mmod_Electrostatic_Energy-OPLS-2005>
-450.169586181641

> <r_mmod_Solvation_Energy-OPLS-2005>
-192.693176269531

> <b_mmod_Minimization_Converged-OPLS-2005>
0

> <r_mmod_RMS_Derivative-OPLS-2005>
1.09835016727448

$$$$
54
                    3D
 Structure written by MMmdl.
171182  0  0  1  0            999 V2000
  -30.7022  -14.4418   20.5980 C   0  0  0  0  0  0
  -30.4255  -12.2919   19.4177 C   0  0  0  0  0  0
  -29.4958  -12.5096   18.2061 C   0  0  0  0  0  0
  -28.0160  -12.3716   18.6160 C   0  0  0  0  0  0
  -27.6662  -13.2006   19.8802 C   0  0  2  0  0  0
  -28.7044  -12.9510   20.9977 C   0  0  0  0  0  0
  -25.2612  -13.8155   20.5676 C   0  0  0  0  0  0
  -24.1849  -13.0441   20.9162 C   0  0  0  0  0  0
  -24.6389  -11.6903   20.8724 C   0  0  0  0  0  0
  -23.9054  -10.4293   21.0397 C   0  0  0  0  0  0
  -24.3609   -9.4210   21.9177 C   0  0  0  0  0  0
  -23.6282   -8.2250   22.0753 C   0  0  0  0  0  0
  -22.4265   -8.0286   21.3546 C   0  0  0  0  0  0
  -21.9894   -9.0258   20.4651 C   0  0  0  0  0  0
  -22.7224  -10.2134   20.3054 C   0  0  0  0  0  0
  -21.6855   -6.0733   22.5275 C   0  0  0  0  0  0
  -21.4019   -6.5636   23.8208 C   0  0  0  0  0  0
  -21.3658   -5.6790   24.9170 C   0  0  0  0  0  0
  -21.6041   -4.3051   24.7224 C   0  0  0  0  0  0
  -21.8820   -3.8144   23.4345 C   0  0  0  0  0  0
  -21.9193   -4.6960   22.3401 C   0  0  0  0  0  0
  -22.7873  -13.5248   21.1829 C   0  0  0  0  0  0
  -22.1660   -4.2144   21.0979 F   0  0  0  0  0  0
  -21.5624   -3.4536   25.7738 F   0  0  0  0  0  0
  -30.0434  -13.2583   20.4583 N   0  0  0  0  0  0
  -26.3040  -12.9310   20.3372 N   0  0  0  0  0  0
  -25.9315  -11.6473   20.5755 N   0  0  0  0  0  0
  -22.0507  -12.8251   22.0392 N   0  0  0  0  0  0
  -25.4360  -15.1875   20.4103 N   0  0  0  0  0  0
  -31.8095  -14.6472   20.0861 O   0  0  0  0  0  0
  -21.6637   -6.8880   21.4237 O   0  0  0  0  0  0
  -22.3564  -14.5555   20.6681 O   0  0  0  0  0  0
  -24.6099  -31.8700   23.2119 C   0  0  0  0  0  0
  -25.9000  -32.4838   23.8408 C   0  0  1  0  0  0
  -27.2478  -27.4606   20.1016 C   0  0  0  0  0  0
  -25.5862  -33.8635   24.2334 N   0  0  0  0  0  0
  -23.3982  -30.4912   21.5507 C   0  0  2  0  0  0
  -24.8497  -28.9574   20.1184 C   0  0  0  0  0  0
  -22.7390  -29.4660   22.5004 C   0  0  0  0  0  0
  -18.0268  -28.1379   22.8498 C   0  0  0  0  0  0
  -24.1480  -36.7330   23.2642 C   0  0  0  0  0  0
  -25.9221  -30.8434   21.3618 C   0  0  0  0  0  0
  -26.0032  -29.4747   20.7208 C   0  0  0  0  0  0
  -27.2033  -28.7325   20.7205 C   0  0  0  0  0  0
  -26.0835  -26.9593   19.4853 C   0  0  0  0  0  0
  -24.8822  -27.6946   19.5004 C   0  0  0  0  0  0
  -23.6079  -29.8191   20.1663 C   0  0  0  0  0  0
  -25.4097  -36.3122   24.0343 C   0  0  1  0  0  0
  -20.5856  -28.3653   23.1333 C   0  0  2  0  0  0
  -20.6752  -26.9392   22.5428 C   0  0  0  0  0  0
  -19.5735  -26.6389   21.5217 C   0  0  0  0  0  0
  -18.1913  -26.7928   22.1627 C   0  0  0  0  0  0
  -19.1517  -28.8832   23.2914 C   0  0  0  0  0  0
  -18.9450  -30.1440   23.8923 C   0  0  0  0  0  0
  -17.6452  -30.6585   24.0574 C   0  0  0  0  0  0
  -25.9018  -34.9486   23.5138 C   0  0  0  0  0  0
  -16.5342  -29.9090   23.6328 C   0  0  0  0  0  0
  -16.7258  -28.6508   23.0346 C   0  0  0  0  0  0
  -26.4450  -31.6614   25.0723 C   0  0  0  0  0  0
  -25.3738  -31.3721   26.1496 C   0  0  0  0  0  0
  -27.0279  -30.3063   24.6075 C   0  0  0  0  0  0
  -27.6040  -32.4336   25.7461 C   0  0  0  0  0  0
  -27.5578  -37.1813   24.8461 C   0  0  0  0  0  0
  -21.4124  -29.3022   22.3739 N   0  0  0  0  0  0
  -26.4288  -37.3801   23.9410 N   0  0  0  0  0  0
  -24.6613  -31.0821   22.1007 N   0  0  0  0  0  0
  -23.4175  -28.8206   23.3040 O   0  0  0  0  0  0
  -28.3838  -26.6864   20.0362 O   0  0  0  0  0  0
  -26.5598  -34.8932   22.4709 O   0  0  0  0  0  0
  -23.5300  -32.1436   23.7530 O   0  0  0  0  0  0
  -28.9567  -17.4615   21.7731 C   0  0  0  0  0  0
  -29.8050  -19.5775   20.9202 C   0  0  0  0  0  0
  -28.8298  -18.8603   21.6512 C   0  0  0  0  0  0
  -30.0274  -16.7874   21.1542 C   0  0  0  0  0  0
  -30.8529  -18.8284   20.3408 C   0  0  0  0  0  0
  -34.1614  -19.5966   18.9618 C   0  0  0  0  0  0
  -34.0694  -18.6526   20.1424 C   0  0  0  0  0  0
  -29.2317  -23.4636   21.8473 C   0  0  0  0  0  0
  -30.9973  -23.3393   20.1946 C   0  0  0  0  0  0
  -29.7104  -21.0788   20.7272 C   0  0  1  0  0  0
  -29.8055  -22.0612   21.8843 C   0  0  1  0  0  0
  -30.9065  -21.9978   20.8834 C   0  0  2  0  0  0
  -32.9382  -18.7328   19.1450 C   0  0  0  0  0  0
  -27.6421  -19.5610   22.2871 C   0  0  0  0  0  0
  -30.3092  -25.5858   21.0103 C   0  0  0  0  0  0
  -29.1424  -26.5668   21.2378 C   0  0  0  0  0  0
  -30.9546  -17.4833   20.4585 N   0  0  0  0  0  0
  -30.0199  -15.3721   21.2905 N   0  0  0  0  0  0
  -29.8886  -24.1847   20.7200 N   0  3  2  0  0  0
  -31.8163  -19.4818   19.6005 O   0  0  0  0  0  0
  -31.4701  -12.3904   19.1169 H   0  0  0  0  0  0
  -30.3245  -11.2750   19.7997 H   0  0  0  0  0  0
  -29.7321  -11.7935   17.4179 H   0  0  0  0  0  0
  -29.6699  -13.4995   17.7816 H   0  0  0  0  0  0
  -27.8216  -11.3145   18.8019 H   0  0  0  0  0  0
  -27.3681  -12.6574   17.7872 H   0  0  0  0  0  0
  -27.7203  -14.2527   19.5997 H   0  0  0  0  0  0
  -28.6734  -11.9064   21.3108 H   0  0  0  0  0  0
  -28.4562  -13.5197   21.8943 H   0  0  0  0  0  0
  -25.2752   -9.5683   22.4751 H   0  0  0  0  0  0
  -23.9990   -7.4640   22.7469 H   0  0  0  0  0  0
  -21.0824   -8.8777   19.8962 H   0  0  0  0  0  0
  -22.3678  -10.9673   19.6168 H   0  0  0  0  0  0
  -21.2019   -7.6146   23.9711 H   0  0  0  0  0  0
  -21.1475   -6.0520   25.9072 H   0  0  0  0  0  0
  -22.0602   -2.7606   23.2849 H   0  0  0  0  0  0
  -22.4108  -11.9905   22.4778 H   0  0  0  0  0  0
  -21.1133  -13.1297   22.2603 H   0  0  0  0  0  0
  -24.6716  -15.8450   20.5204 H   0  0  0  0  0  0
  -26.2919  -15.6253   20.0934 H   0  0  0  0  0  0
  -26.7077  -32.5574   23.1188 H   0  0  0  0  0  0
  -24.9985  -33.9806   25.0459 H   0  0  0  0  0  0
  -22.6849  -31.3058   21.4102 H   0  0  0  0  0  0
  -23.3733  -35.9673   23.3313 H   0  0  0  0  0  0
  -24.3576  -36.8937   22.2056 H   0  0  0  0  0  0
  -23.7242  -37.6542   23.6651 H   0  0  0  0  0  0
  -26.0238  -31.6038   20.5862 H   0  0  0  0  0  0
  -26.8132  -30.9085   21.9734 H   0  0  0  0  0  0
  -28.0862  -29.1562   21.1767 H   0  0  0  0  0  0
  -26.1069  -25.9942   18.9988 H   0  0  0  0  0  0
  -23.9972  -27.2898   19.0287 H   0  0  0  0  0  0
  -23.7105  -30.5914   19.4033 H   0  0  0  0  0  0
  -22.7346  -29.2330   19.8742 H   0  0  0  0  0  0
  -25.1271  -36.1996   25.0836 H   0  0  0  0  0  0
  -20.9948  -28.3219   24.1452 H   0  0  0  0  0  0
  -20.5642  -26.2261   23.3611 H   0  0  0  0  0  0
  -21.6626  -26.7432   22.1228 H   0  0  0  0  0  0
  -19.6892  -25.6309   21.1225 H   0  0  0  0  0  0
  -19.6675  -27.3218   20.6761 H   0  0  0  0  0  0
  -17.4182  -26.6684   21.4029 H   0  0  0  0  0  0
  -18.0308  -26.0064   22.9017 H   0  0  0  0  0  0
  -19.7924  -30.7251   24.2305 H   0  0  0  0  0  0
  -17.5007  -31.6264   24.5175 H   0  0  0  0  0  0
  -15.5344  -30.3000   23.7640 H   0  0  0  0  0  0
  -15.8656  -28.0837   22.7047 H   0  0  0  0  0  0
  -24.5870  -30.7110   25.7844 H   0  0  0  0  0  0
  -24.8978  -32.2886   26.4996 H   0  0  0  0  0  0
  -25.8105  -30.8849   27.0223 H   0  0  0  0  0  0
  -26.2807  -29.6822   24.1160 H   0  0  0  0  0  0
  -27.4096  -29.7303   25.4516 H   0  0  0  0  0  0
  -27.8619  -30.4402   23.9182 H   0  0  0  0  0  0
  -27.2664  -33.3624   26.2075 H   0  0  0  0  0  0
  -28.3807  -32.6926   25.0252 H   0  0  0  0  0  0
  -28.0754  -31.8446   26.5339 H   0  0  0  0  0  0
  -28.2606  -38.0101   24.7500 H   0  0  0  0  0  0
  -28.1060  -36.2635   24.6281 H   0  0  0  0  0  0
  -27.2304  -37.1465   25.8866 H   0  0  0  0  0  0
  -20.9277  -29.8738   21.6962 H   0  0  0  0  0  0
  -26.0182  -38.2881   24.1409 H   0  0  0  0  0  0
  -28.2109  -16.9061   22.3264 H   0  0  0  0  0  0
  -34.8485  -19.3307   18.1611 H   0  0  0  0  0  0
  -34.0646  -20.6625   19.1591 H   0  0  0  0  0  0
  -33.9064  -19.0856   21.1272 H   0  0  0  0  0  0
  -34.6873  -17.7572   20.1238 H   0  0  0  0  0  0
  -29.4431  -23.9487   22.8010 H   0  0  0  0  0  0
  -28.1492  -23.4312   21.7192 H   0  0  0  0  0  0
  -30.9251  -23.2211   19.1132 H   0  0  0  0  0  0
  -31.9712  -23.7773   20.4184 H   0  0  0  0  0  0
  -29.0083  -21.3052   19.9267 H   0  0  0  0  0  0
  -29.9947  -21.6508   22.8743 H   0  0  0  0  0  0
  -31.8516  -21.5604   21.2000 H   0  0  0  0  0  0
  -32.7378  -17.9227   18.4451 H   0  0  0  0  0  0
  -26.8916  -18.8447   22.6222 H   0  0  0  0  0  0
  -27.1602  -20.2319   21.5757 H   0  0  0  0  0  0
  -27.9571  -20.1437   23.1524 H   0  0  0  0  0  0
  -30.9658  -25.5915   21.8814 H   0  0  0  0  0  0
  -30.9062  -25.9587   20.1768 H   0  0  0  0  0  0
  -29.5587  -27.5343   21.5188 H   0  0  0  0  0  0
  -28.5067  -26.2381   22.0616 H   0  0  0  0  0  0
  -29.2159  -15.0017   21.7683 H   0  0  0  0  0  0
  -29.2047  -24.2337   19.9771 H   0  0  0  0  0  0
  1 25  1  0  0  0
  1 30  2  0  0  0
  1 88  1  0  0  0
  2  3  1  0  0  0
  2 25  1  0  0  0
  2 91  1  0  0  0
  2 92  1  0  0  0
  3  4  1  0  0  0
  3 93  1  0  0  0
  3 94  1  0  0  0
  4  5  1  0  0  0
  4 95  1  0  0  0
  4 96  1  0  0  0
  5  6  1  0  0  0
  5 26  1  0  0  0
  5 97  1  0  0  0
  6 25  1  0  0  0
  6 98  1  0  0  0
  6 99  1  0  0  0
  7  8  2  0  0  0
  7 26  1  0  0  0
  7 29  1  0  0  0
  8  9  1  0  0  0
  8 22  1  0  0  0
  9 10  1  0  0  0
  9 27  2  0  0  0
 10 11  2  0  0  0
 10 15  1  0  0  0
 11 12  1  0  0  0
 11100  1  0  0  0
 12 13  2  0  0  0
 12101  1  0  0  0
 13 14  1  0  0  0
 13 31  1  0  0  0
 14 15  2  0  0  0
 14102  1  0  0  0
 15103  1  0  0  0
 16 17  2  0  0  0
 16 21  1  0  0  0
 16 31  1  0  0  0
 17 18  1  0  0  0
 17104  1  0  0  0
 18 19  2  0  0  0
 18105  1  0  0  0
 19 20  1  0  0  0
 19 24  1  0  0  0
 20 21  2  0  0  0
 20106  1  0  0  0
 21 23  1  0  0  0
 22 28  1  0  0  0
 22 32  2  0  0  0
 26 27  1  0  0  0
 28107  1  0  0  0
 28108  1  0  0  0
 29109  1  0  0  0
 29110  1  0  0  0
 33 34  1  0  0  0
 33 66  1  0  0  0
 33 70  2  0  0  0
 34 36  1  0  0  0
 34 59  1  0  0  0
 34111  1  0  0  0
 35 44  2  0  0  0
 35 45  1  0  0  0
 35 68  1  0  0  0
 36 56  1  0  0  0
 36112  1  0  0  0
 37 39  1  0  0  0
 37 47  1  0  0  0
 37 66  1  0  0  0
 37113  1  0  0  0
 38 43  2  0  0  0
 38 46  1  0  0  0
 38 47  1  0  0  0
 39 64  1  0  0  0
 39 67  2  0  0  0
 40 52  1  0  0  0
 40 53  2  0  0  0
 40 58  1  0  0  0
 41114  1  0  0  0
 41115  1  0  0  0
 41116  1  0  0  0
 41 48  1  0  0  0
 42 43  1  0  0  0
 42 66  1  0  0  0
 42117  1  0  0  0
 42118  1  0  0  0
 43 44  1  0  0  0
 44119  1  0  0  0
 45 46  2  0  0  0
 45120  1  0  0  0
 46121  1  0  0  0
 47122  1  0  0  0
 47123  1  0  0  0
 48 56  1  0  0  0
 48 65  1  0  0  0
 48124  1  0  0  0
 49 50  1  0  0  0
 49 53  1  0  0  0
 49 64  1  0  0  0
 49125  1  0  0  0
 50 51  1  0  0  0
 50126  1  0  0  0
 50127  1  0  0  0
 51 52  1  0  0  0
 51128  1  0  0  0
 51129  1  0  0  0
 52130  1  0  0  0
 52131  1  0  0  0
 53 54  1  0  0  0
 54 55  2  0  0  0
 54132  1  0  0  0
 55 57  1  0  0  0
 55133  1  0  0  0
 56 69  2  0  0  0
 57 58  2  0  0  0
 57134  1  0  0  0
 58135  1  0  0  0
 59 60  1  0  0  0
 59 61  1  0  0  0
 59 62  1  0  0  0
 60136  1  0  0  0
 60137  1  0  0  0
 60138  1  0  0  0
 61139  1  0  0  0
 61140  1  0  0  0
 61141  1  0  0  0
 62142  1  0  0  0
 62143  1  0  0  0
 62144  1  0  0  0
 63 65  1  0  0  0
 63145  1  0  0  0
 63146  1  0  0  0
 63147  1  0  0  0
 64148  1  0  0  0
 65149  1  0  0  0
 68 86  1  0  0  0
 71 73  2  0  0  0
 71 74  1  0  0  0
 71150  1  0  0  0
 72 73  1  0  0  0
 72 75  2  0  0  0
 72 80  1  0  0  0
 73 84  1  0  0  0
 74 87  2  0  0  0
 74 88  1  0  0  0
 75 87  1  0  0  0
 75 90  1  0  0  0
 76 77  1  0  0  0
 76 83  1  0  0  0
 76151  1  0  0  0
 76152  1  0  0  0
 77 83  1  0  0  0
 77153  1  0  0  0
 77154  1  0  0  0
 78 89  1  0  0  0
 78155  1  0  0  0
 78156  1  0  0  0
 78 81  1  0  0  0
 79 89  1  0  0  0
 79157  1  0  0  0
 79158  1  0  0  0
 79 82  1  0  0  0
 80 81  1  0  0  0
 80 82  1  0  0  0
 80159  1  0  0  0
 81 82  1  0  0  0
 81160  1  0  0  0
 82161  1  0  0  0
 83 90  1  0  0  0
 83162  1  0  0  0
 84163  1  0  0  0
 84164  1  0  0  0
 84165  1  0  0  0
 85 86  1  0  0  0
 85166  1  0  0  0
 85167  1  0  0  0
 85 89  1  0  0  0
 86168  1  0  0  0
 86169  1  0  0  0
 88170  1  0  0  0
 89171  1  0  0  0
M  CHG  1  89   1
M  ISO  4   1 100  68 101  86 101  88 100
M  END
> <chiral flag>
0

> <version>
0

> <s_m_source_file>
/data/baiqing/PycharmProjects/Reinvent-master-3.2/result/LINK_invent/BTK/process_docking_weight1_custom_sum_contain_oxygen_bond_distance_aromatic_linkinvent_7_9_3/rearranged_h_0163.sdf

> <i_m_source_file_index>
55

> <r_mmod_Potential_Energy-OPLS-2005>
-130.753295898438

> <r_mmod_Stretch_Energy-OPLS-2005>
36.5027503967285

> <r_mmod_Bend_Energy-OPLS-2005>
141.145233154297

> <r_mmod_Torsional_Energy-OPLS-2005>
348.755065917969

> <r_mmod_Improper_Torsional_Energy-OPLS-2005>
3.26021218299866

> <r_mmod_Van_der_Waal_Energy-OPLS-2005>
150.654403686523

> <r_mmod_Electrostatic_Energy-OPLS-2005>
-385.156555175781

> <r_mmod_Solvation_Energy-OPLS-2005>
-434.418670654297

> <b_mmod_Minimization_Converged-OPLS-2005>
0

> <r_mmod_RMS_Derivative-OPLS-2005>
0.88371741771698

$$$$
55
                    3D
 Structure written by MMmdl.
171181  0  0  1  0            999 V2000
  -30.6747  -14.7488   20.4787 C   0  0  0  0  0  0
  -30.4148  -12.4731   19.4690 C   0  0  0  0  0  0
  -29.4946  -12.5051   18.2323 C   0  0  0  0  0  0
  -28.0265  -12.3181   18.6549 C   0  0  0  0  0  0
  -27.6328  -13.2280   19.8475 C   0  0  2  0  0  0
  -28.6849  -13.1962   20.9807 C   0  0  0  0  0  0
  -25.2444  -13.8176   20.5688 C   0  0  0  0  0  0
  -24.1755  -13.0420   20.9231 C   0  0  0  0  0  0
  -24.6361  -11.6905   20.8779 C   0  0  0  0  0  0
  -23.9051  -10.4281   21.0428 C   0  0  0  0  0  0
  -24.3607   -9.4196   21.9198 C   0  0  0  0  0  0
  -23.6287   -8.2228   22.0758 C   0  0  0  0  0  0
  -22.4272   -8.0265   21.3545 C   0  0  0  0  0  0
  -21.9904   -9.0240   20.4654 C   0  0  0  0  0  0
  -22.7228  -10.2122   20.3071 C   0  0  0  0  0  0
  -21.6850   -6.0721   22.5275 C   0  0  0  0  0  0
  -21.4007   -6.5631   23.8204 C   0  0  0  0  0  0
  -21.3663   -5.6791   24.9171 C   0  0  0  0  0  0
  -21.6047   -4.3052   24.7228 C   0  0  0  0  0  0
  -21.8817   -3.8137   23.4350 C   0  0  0  0  0  0
  -21.9188   -4.6948   22.3402 C   0  0  0  0  0  0
  -22.7778  -13.5205   21.1881 C   0  0  0  0  0  0
  -22.1658   -4.2127   21.0982 F   0  0  0  0  0  0
  -21.5641   -3.4543   25.7746 F   0  0  0  0  0  0
  -29.9748  -13.5597   20.3819 N   0  0  0  0  0  0
  -26.2887  -12.9388   20.3318 N   0  0  0  0  0  0
  -25.9292  -11.6536   20.5807 N   0  0  0  0  0  0
  -22.0434  -12.8196   22.0447 N   0  0  0  0  0  0
  -25.4060  -15.1892   20.4022 N   0  0  0  0  0  0
  -31.8716  -14.7348   20.1732 O   0  0  0  0  0  0
  -21.6639   -6.8861   21.4236 O   0  0  0  0  0  0
  -22.3460  -14.5506   20.6718 O   0  0  0  0  0  0
  -24.6313  -31.8556   23.1994 C   0  0  0  0  0  0
  -25.9139  -32.4759   23.8340 C   0  0  1  0  0  0
  -27.2139  -27.2690   20.1355 C   0  0  0  0  0  0
  -25.5938  -33.8561   24.2266 N   0  0  0  0  0  0
  -23.4289  -30.4790   21.5412 C   0  0  2  0  0  0
  -24.8776  -28.9286   20.1082 C   0  0  0  0  0  0
  -22.7506  -29.4603   22.4899 C   0  0  0  0  0  0
  -18.0295  -28.1382   22.8484 C   0  0  0  0  0  0
  -24.1488  -36.7283   23.2639 C   0  0  0  0  0  0
  -25.9744  -30.7715   21.3791 C   0  0  0  0  0  0
  -26.0494  -29.3945   20.7210 C   0  0  0  0  0  0
  -27.2259  -28.5769   20.7243 C   0  0  0  0  0  0
  -26.0269  -26.8736   19.4846 C   0  0  0  0  0  0
  -24.8709  -27.6753   19.4774 C   0  0  0  0  0  0
  -23.6478  -29.8146   20.1567 C   0  0  0  0  0  0
  -25.4114  -36.3071   24.0329 C   0  0  1  0  0  0
  -20.5902  -28.3695   23.1263 C   0  0  2  0  0  0
  -20.6781  -26.9411   22.5405 C   0  0  0  0  0  0
  -19.5758  -26.6380   21.5209 C   0  0  0  0  0  0
  -18.1937  -26.7927   22.1620 C   0  0  0  0  0  0
  -19.1551  -28.8856   23.2872 C   0  0  0  0  0  0
  -18.9468  -30.1453   23.8889 C   0  0  0  0  0  0
  -17.6467  -30.6585   24.0558 C   0  0  0  0  0  0
  -25.9053  -34.9442   23.5099 C   0  0  0  0  0  0
  -16.5356  -29.9079   23.6330 C   0  0  0  0  0  0
  -16.7282  -28.6497   23.0357 C   0  0  0  0  0  0
  -26.4509  -31.6579   25.0723 C   0  0  0  0  0  0
  -25.3736  -31.3732   26.1447 C   0  0  0  0  0  0
  -27.0358  -30.2994   24.6210 C   0  0  0  0  0  0
  -27.6066  -32.4320   25.7492 C   0  0  0  0  0  0
  -27.5579  -37.1794   24.8463 C   0  0  0  0  0  0
  -21.4209  -29.3047   22.3646 N   0  0  0  0  0  0
  -26.4287  -37.3771   23.9410 N   0  0  0  0  0  0
  -24.6970  -31.0533   22.0963 N   0  0  0  0  0  0
  -23.4205  -28.8143   23.2995 O   0  0  0  0  0  0
  -28.2602  -26.3235   20.1847 O   0  0  0  0  0  0
  -26.5620  -34.8921   22.4662 O   0  0  0  0  0  0
  -23.5462  -32.1364   23.7296 O   0  0  0  0  0  0
  -28.9021  -21.2857   21.7293 C   0  0  0  0  0  0
  -28.5728  -22.6865   21.8565 C   0  0  0  0  0  0
  -29.1495  -20.6575   20.4695 C   0  0  0  0  0  0
  -28.4837  -23.5866   20.7370 C   0  0  0  0  0  0
  -29.1123  -21.5680   19.3515 C   0  0  0  0  0  0
  -28.7410  -22.9678   19.4729 C   0  0  0  0  0  0
  -28.9703  -20.4490   23.0029 C   0  0  0  0  0  0
  -28.2994  -23.2378   23.2645 C   0  0  0  0  0  0
  -30.8456  -18.5205   20.6972 C   0  0  0  0  0  0
  -28.4063  -18.0139   20.8223 C   0  0  0  0  0  0
  -30.9122  -17.0976   21.4014 C   0  0  0  0  0  0
  -28.7423  -16.4989   20.4591 C   0  0  0  0  0  0
  -29.1882  -21.2943   24.2566 C   0  0  0  0  0  0
  -29.4367  -19.0673   20.3004 C   0  0  0  0  0  0
  -29.4871  -21.0241   17.9716 C   0  0  0  0  0  0
  -28.5740  -23.8085   18.2107 C   0  0  0  0  0  0
  -27.9355  -25.0894   20.9711 C   0  0  0  0  0  0
  -30.0899  -15.9771   20.8376 N   0  0  0  0  0  0
  -28.1546  -22.2585   24.2854 O   0  0  0  0  0  0
  -31.4547  -12.5746   19.1551 H   0  0  0  0  0  0
  -30.3543  -11.5058   19.9703 H   0  0  0  0  0  0
  -29.7816  -11.7246   17.5265 H   0  0  0  0  0  0
  -29.6103  -13.4537   17.7064 H   0  0  0  0  0  0
  -27.8989  -11.2713   18.9325 H   0  0  0  0  0  0
  -27.3601  -12.4923   17.8092 H   0  0  0  0  0  0
  -27.6103  -14.2332   19.4337 H   0  0  0  0  0  0
  -28.7379  -12.2041   21.4314 H   0  0  0  0  0  0
  -28.4244  -13.8764   21.7915 H   0  0  0  0  0  0
  -25.2742   -9.5675   22.4785 H   0  0  0  0  0  0
  -23.9995   -7.4616   22.7472 H   0  0  0  0  0  0
  -21.0837   -8.8751   19.8963 H   0  0  0  0  0  0
  -22.3674  -10.9663   19.6190 H   0  0  0  0  0  0
  -21.1995   -7.6138   23.9696 H   0  0  0  0  0  0
  -21.1499   -6.0530   25.9074 H   0  0  0  0  0  0
  -22.0596   -2.7598   23.2858 H   0  0  0  0  0  0
  -22.4062  -11.9855   22.4821 H   0  0  0  0  0  0
  -21.1061  -13.1223   22.2689 H   0  0  0  0  0  0
  -24.6346  -15.8384   20.5126 H   0  0  0  0  0  0
  -26.2487  -15.6312   20.0616 H   0  0  0  0  0  0
  -26.7206  -32.5412   23.1084 H   0  0  0  0  0  0
  -25.0107  -33.9694   25.0431 H   0  0  0  0  0  0
  -22.7256  -31.3012   21.3959 H   0  0  0  0  0  0
  -23.3757  -35.9610   23.3298 H   0  0  0  0  0  0
  -24.3583  -36.8903   22.2054 H   0  0  0  0  0  0
  -23.7235  -37.6481   23.6663 H   0  0  0  0  0  0
  -26.1136  -31.5331   20.6108 H   0  0  0  0  0  0
  -26.8519  -30.8198   22.0120 H   0  0  0  0  0  0
  -28.1205  -28.9232   21.2232 H   0  0  0  0  0  0
  -25.9786  -25.9058   19.0060 H   0  0  0  0  0  0
  -23.9748  -27.3144   18.9910 H   0  0  0  0  0  0
  -23.7715  -30.5912   19.4009 H   0  0  0  0  0  0
  -22.7666  -29.2472   19.8512 H   0  0  0  0  0  0
  -25.1298  -36.1918   25.0823 H   0  0  0  0  0  0
  -21.0000  -28.3274   24.1382 H   0  0  0  0  0  0
  -20.5668  -26.2309   23.3613 H   0  0  0  0  0  0
  -21.6649  -26.7424   22.1209 H   0  0  0  0  0  0
  -19.6914  -25.6288   21.1245 H   0  0  0  0  0  0
  -19.6696  -27.3183   20.6735 H   0  0  0  0  0  0
  -17.4207  -26.6676   21.4017 H   0  0  0  0  0  0
  -18.0334  -26.0069   22.9015 H   0  0  0  0  0  0
  -19.7944  -30.7274   24.2253 H   0  0  0  0  0  0
  -17.5022  -31.6265   24.5159 H   0  0  0  0  0  0
  -15.5357  -30.2979   23.7661 H   0  0  0  0  0  0
  -15.8682  -28.0810   22.7076 H   0  0  0  0  0  0
  -24.5922  -30.7063   25.7784 H   0  0  0  0  0  0
  -24.8915  -32.2901   26.4845 H   0  0  0  0  0  0
  -25.8062  -30.8935   27.0236 H   0  0  0  0  0  0
  -26.2937  -29.6736   24.1235 H   0  0  0  0  0  0
  -27.4034  -29.7263   25.4733 H   0  0  0  0  0  0
  -27.8825  -30.4267   23.9463 H   0  0  0  0  0  0
  -27.2676  -33.3628   26.2054 H   0  0  0  0  0  0
  -28.3885  -32.6860   25.0321 H   0  0  0  0  0  0
  -28.0731  -31.8450   26.5415 H   0  0  0  0  0  0
  -28.2596  -38.0092   24.7520 H   0  0  0  0  0  0
  -28.1076  -36.2624   24.6281 H   0  0  0  0  0  0
  -27.2302  -37.1437   25.8867 H   0  0  0  0  0  0
  -20.9385  -29.8775   21.6861 H   0  0  0  0  0  0
  -26.0167  -38.2844   24.1418 H   0  0  0  0  0  0
  -29.7633  -19.7064   22.9464 H   0  0  0  0  0  0
  -28.0285  -19.9109   23.1070 H   0  0  0  0  0  0
  -27.3731  -23.8125   23.2676 H   0  0  0  0  0  0
  -29.1067  -23.9165   23.5440 H   0  0  0  0  0  0
  -31.4750  -18.5095   19.8065 H   0  0  0  0  0  0
  -31.3292  -19.2382   21.3603 H   0  0  0  0  0  0
  -28.3062  -18.0811   21.9026 H   0  0  0  0  0  0
  -27.4207  -18.2596   20.4253 H   0  0  0  0  0  0
  -30.5844  -17.2166   22.4356 H   0  0  0  0  0  0
  -31.9612  -16.8119   21.4897 H   0  0  0  0  0  0
  -28.6202  -16.3580   19.3842 H   0  0  0  0  0  0
  -27.9920  -15.8854   20.9499 H   0  0  0  0  0  0
  -30.1693  -21.7732   24.2530 H   0  0  0  0  0  0
  -29.1352  -20.6692   25.1487 H   0  0  0  0  0  0
  -29.3720  -18.8725   19.2336 H   0  0  0  0  0  0
  -30.3651  -20.3813   18.0349 H   0  0  0  0  0  0
  -29.7637  -21.7922   17.2528 H   0  0  0  0  0  0
  -28.6644  -20.4464   17.5495 H   0  0  0  0  0  0
  -27.9764  -24.7015   18.3702 H   0  0  0  0  0  0
  -28.0535  -23.2470   17.4343 H   0  0  0  0  0  0
  -29.5455  -24.1185   17.8248 H   0  0  0  0  0  0
  -28.2537  -25.4007   21.9640 H   0  0  0  0  0  0
  -26.8543  -24.9735   21.0551 H   0  0  0  0  0  0
  1 25  1  0  0  0
  1 30  2  0  0  0
  1 88  1  0  0  0
  2  3  1  0  0  0
  2 25  1  0  0  0
  2 90  1  0  0  0
  2 91  1  0  0  0
  3  4  1  0  0  0
  3 92  1  0  0  0
  3 93  1  0  0  0
  4  5  1  0  0  0
  4 94  1  0  0  0
  4 95  1  0  0  0
  5  6  1  0  0  0
  5 26  1  0  0  0
  5 96  1  0  0  0
  6 25  1  0  0  0
  6 97  1  0  0  0
  6 98  1  0  0  0
  7  8  2  0  0  0
  7 26  1  0  0  0
  7 29  1  0  0  0
  8  9  1  0  0  0
  8 22  1  0  0  0
  9 10  1  0  0  0
  9 27  2  0  0  0
 10 11  2  0  0  0
 10 15  1  0  0  0
 11 12  1  0  0  0
 11 99  1  0  0  0
 12 13  2  0  0  0
 12100  1  0  0  0
 13 14  1  0  0  0
 13 31  1  0  0  0
 14 15  2  0  0  0
 14101  1  0  0  0
 15102  1  0  0  0
 16 17  2  0  0  0
 16 21  1  0  0  0
 16 31  1  0  0  0
 17 18  1  0  0  0
 17103  1  0  0  0
 18 19  2  0  0  0
 18104  1  0  0  0
 19 20  1  0  0  0
 19 24  1  0  0  0
 20 21  2  0  0  0
 20105  1  0  0  0
 21 23  1  0  0  0
 22 28  1  0  0  0
 22 32  2  0  0  0
 26 27  1  0  0  0
 28106  1  0  0  0
 28107  1  0  0  0
 29108  1  0  0  0
 29109  1  0  0  0
 33 34  1  0  0  0
 33 66  1  0  0  0
 33 70  2  0  0  0
 34 36  1  0  0  0
 34 59  1  0  0  0
 34110  1  0  0  0
 35 44  2  0  0  0
 35 45  1  0  0  0
 35 68  1  0  0  0
 36 56  1  0  0  0
 36111  1  0  0  0
 37 39  1  0  0  0
 37 47  1  0  0  0
 37 66  1  0  0  0
 37112  1  0  0  0
 38 43  2  0  0  0
 38 46  1  0  0  0
 38 47  1  0  0  0
 39 64  1  0  0  0
 39 67  2  0  0  0
 40 52  1  0  0  0
 40 53  2  0  0  0
 40 58  1  0  0  0
 41113  1  0  0  0
 41114  1  0  0  0
 41115  1  0  0  0
 41 48  1  0  0  0
 42 43  1  0  0  0
 42 66  1  0  0  0
 42116  1  0  0  0
 42117  1  0  0  0
 43 44  1  0  0  0
 44118  1  0  0  0
 45 46  2  0  0  0
 45119  1  0  0  0
 46120  1  0  0  0
 47121  1  0  0  0
 47122  1  0  0  0
 48 56  1  0  0  0
 48 65  1  0  0  0
 48123  1  0  0  0
 49 50  1  0  0  0
 49 53  1  0  0  0
 49 64  1  0  0  0
 49124  1  0  0  0
 50 51  1  0  0  0
 50125  1  0  0  0
 50126  1  0  0  0
 51 52  1  0  0  0
 51127  1  0  0  0
 51128  1  0  0  0
 52129  1  0  0  0
 52130  1  0  0  0
 53 54  1  0  0  0
 54 55  2  0  0  0
 54131  1  0  0  0
 55 57  1  0  0  0
 55132  1  0  0  0
 56 69  2  0  0  0
 57 58  2  0  0  0
 57133  1  0  0  0
 58134  1  0  0  0
 59 60  1  0  0  0
 59 61  1  0  0  0
 59 62  1  0  0  0
 60135  1  0  0  0
 60136  1  0  0  0
 60137  1  0  0  0
 61138  1  0  0  0
 61139  1  0  0  0
 61140  1  0  0  0
 62141  1  0  0  0
 62142  1  0  0  0
 62143  1  0  0  0
 63 65  1  0  0  0
 63144  1  0  0  0
 63145  1  0  0  0
 63146  1  0  0  0
 64147  1  0  0  0
 65148  1  0  0  0
 68 87  1  0  0  0
 71 72  2  0  0  0
 71 73  1  0  0  0
 71 77  1  0  0  0
 72 74  1  0  0  0
 72 78  1  0  0  0
 73 75  2  0  0  0
 73 84  1  0  0  0
 74 76  2  0  0  0
 74 87  1  0  0  0
 75 76  1  0  0  0
 75 85  1  0  0  0
 76 86  1  0  0  0
 77 83  1  0  0  0
 77149  1  0  0  0
 77150  1  0  0  0
 78 89  1  0  0  0
 78151  1  0  0  0
 78152  1  0  0  0
 79 81  1  0  0  0
 79 84  1  0  0  0
 79153  1  0  0  0
 79154  1  0  0  0
 80 82  1  0  0  0
 80 84  1  0  0  0
 80155  1  0  0  0
 80156  1  0  0  0
 81 88  1  0  0  0
 81157  1  0  0  0
 81158  1  0  0  0
 82 88  1  0  0  0
 82159  1  0  0  0
 82160  1  0  0  0
 83 89  1  0  0  0
 83161  1  0  0  0
 83162  1  0  0  0
 84163  1  0  0  0
 85164  1  0  0  0
 85165  1  0  0  0
 85166  1  0  0  0
 86167  1  0  0  0
 86168  1  0  0  0
 86169  1  0  0  0
 87170  1  0  0  0
 87171  1  0  0  0
M  ISO  4   1 100  68 101  87 101  88 100
M  END
> <chiral flag>
0

> <version>
0

> <s_m_source_file>
/data/baiqing/PycharmProjects/Reinvent-master-3.2/result/LINK_invent/BTK/process_docking_weight1_custom_sum_contain_oxygen_bond_distance_aromatic_linkinvent_7_9_3/rearranged_h_0163.sdf

> <i_m_source_file_index>
56

> <r_mmod_Potential_Energy-OPLS-2005>
492.36962890625

> <r_mmod_Stretch_Energy-OPLS-2005>
136.329238891602

> <r_mmod_Bend_Energy-OPLS-2005>
211.844543457031

> <r_mmod_Torsional_Energy-OPLS-2005>
356.0146484375

> <r_mmod_Improper_Torsional_Energy-OPLS-2005>
3.20362782478333

> <r_mmod_Van_der_Waal_Energy-OPLS-2005>
173.961364746094

> <r_mmod_Electrostatic_Energy-OPLS-2005>
-275.917663574219

> <r_mmod_Solvation_Energy-OPLS-2005>
-204.800277709961

> <b_mmod_Minimization_Converged-OPLS-2005>
0

> <r_mmod_RMS_Derivative-OPLS-2005>
1.07652318477631

$$$$
56
                    3D
 Structure written by MMmdl.
168177  0  0  1  0            999 V2000
  -30.6759  -14.6256   20.4988 C   0  0  0  0  0  0
  -30.4240  -12.3866   19.4579 C   0  0  0  0  0  0
  -29.5028  -12.5026   18.2256 C   0  0  0  0  0  0
  -28.0271  -12.3446   18.6390 C   0  0  0  0  0  0
  -27.6500  -13.2258   19.8604 C   0  0  2  0  0  0
  -28.6959  -13.1132   20.9927 C   0  0  0  0  0  0
  -25.2538  -13.8193   20.5692 C   0  0  0  0  0  0
  -24.1816  -13.0444   20.9200 C   0  0  0  0  0  0
  -24.6399  -11.6920   20.8748 C   0  0  0  0  0  0
  -23.9071  -10.4298   21.0406 C   0  0  0  0  0  0
  -24.3617   -9.4214   21.9187 C   0  0  0  0  0  0
  -23.6291   -8.2250   22.0759 C   0  0  0  0  0  0
  -22.4276   -8.0283   21.3545 C   0  0  0  0  0  0
  -21.9915   -9.0257   20.4646 C   0  0  0  0  0  0
  -22.7244  -10.2137   20.3053 C   0  0  0  0  0  0
  -21.6853   -6.0736   22.5277 C   0  0  0  0  0  0
  -21.4014   -6.5641   23.8212 C   0  0  0  0  0  0
  -21.3661   -5.6794   24.9174 C   0  0  0  0  0  0
  -21.6045   -4.3057   24.7225 C   0  0  0  0  0  0
  -21.8820   -3.8147   23.4347 C   0  0  0  0  0  0
  -21.9194   -4.6964   22.3403 C   0  0  0  0  0  0
  -22.7835  -13.5229   21.1853 C   0  0  0  0  0  0
  -22.1661   -4.2149   21.0980 F   0  0  0  0  0  0
  -21.5631   -3.4539   25.7737 F   0  0  0  0  0  0
  -30.0105  -13.4303   20.4185 N   0  0  0  0  0  0
  -26.2977  -12.9395   20.3327 N   0  0  0  0  0  0
  -25.9332  -11.6540   20.5769 N   0  0  0  0  0  0
  -22.0475  -12.8213   22.0402 N   0  0  0  0  0  0
  -25.4228  -15.1913   20.4091 N   0  0  0  0  0  0
  -31.8482  -14.7236   20.1305 O   0  0  0  0  0  0
  -21.6641   -6.8879   21.4239 O   0  0  0  0  0  0
  -22.3522  -14.5537   20.6706 O   0  0  0  0  0  0
  -24.6285  -31.8618   23.2072 C   0  0  0  0  0  0
  -25.9136  -32.4786   23.8388 C   0  0  1  0  0  0
  -27.2096  -27.3066   20.1042 C   0  0  0  0  0  0
  -25.5953  -33.8587   24.2306 N   0  0  0  0  0  0
  -23.4209  -30.4915   21.5510 C   0  0  2  0  0  0
  -24.8649  -28.9606   20.1076 C   0  0  0  0  0  0
  -22.7487  -29.4640   22.4937 C   0  0  0  0  0  0
  -18.0287  -28.1387   22.8481 C   0  0  0  0  0  0
  -24.1488  -36.7285   23.2637 C   0  0  0  0  0  0
  -25.9681  -30.7863   21.3857 C   0  0  0  0  0  0
  -26.0384  -29.4170   20.7213 C   0  0  0  0  0  0
  -27.2128  -28.6002   20.7185 C   0  0  0  0  0  0
  -26.0136  -26.9371   19.4341 C   0  0  0  0  0  0
  -24.8555  -27.7249   19.4561 C   0  0  0  0  0  0
  -23.6349  -29.8402   20.1626 C   0  0  0  0  0  0
  -25.4112  -36.3083   24.0332 C   0  0  1  0  0  0
  -20.5890  -28.3697   23.1269 C   0  0  2  0  0  0
  -20.6777  -26.9420   22.5397 C   0  0  0  0  0  0
  -19.5749  -26.6387   21.5203 C   0  0  0  0  0  0
  -18.1930  -26.7931   22.1617 C   0  0  0  0  0  0
  -19.1541  -28.8858   23.2869 C   0  0  0  0  0  0
  -18.9464  -30.1460   23.8886 C   0  0  0  0  0  0
  -17.6464  -30.6589   24.0562 C   0  0  0  0  0  0
  -25.9057  -34.9453   23.5112 C   0  0  0  0  0  0
  -16.5354  -29.9087   23.6334 C   0  0  0  0  0  0
  -16.7275  -28.6504   23.0354 C   0  0  0  0  0  0
  -26.4511  -31.6590   25.0755 C   0  0  0  0  0  0
  -25.3737  -31.3705   26.1467 C   0  0  0  0  0  0
  -27.0373  -30.3018   24.6219 C   0  0  0  0  0  0
  -27.6059  -32.4334   25.7533 C   0  0  0  0  0  0
  -27.5579  -37.1800   24.8463 C   0  0  0  0  0  0
  -21.4199  -29.3054   22.3670 N   0  0  0  0  0  0
  -26.4286  -37.3782   23.9415 N   0  0  0  0  0  0
  -24.6914  -31.0625   22.1038 N   0  0  0  0  0  0
  -23.4208  -28.8160   23.3004 O   0  0  0  0  0  0
  -28.2856  -26.3920   20.1879 O   0  0  0  0  0  0
  -26.5612  -34.8916   22.4671 O   0  0  0  0  0  0
  -23.5445  -32.1428   23.7389 O   0  0  0  0  0  0
  -28.3393  -22.9761   21.4064 C   0  0  0  0  0  0
  -28.7255  -21.6312   21.6289 C   0  0  0  0  0  0
  -28.7555  -23.6986   20.2642 C   0  0  0  0  0  0
  -29.6684  -23.0309   19.3865 C   0  0  0  0  0  0
  -30.0744  -21.6509   19.6086 C   0  0  0  0  0  0
  -29.5534  -20.9167   20.7318 C   0  0  0  0  0  0
  -31.0624  -17.7060   21.9938 C   0  0  0  0  0  0
  -31.0267  -19.2423   21.8625 C   0  0  0  0  0  0
  -29.4082  -18.3173   20.3568 C   0  0  0  0  0  0
  -30.4462  -17.1754   20.6898 C   0  0  2  0  0  0
  -30.1318  -23.8303   18.1713 C   0  0  0  0  0  0
  -32.5243  -21.3920   18.8471 C   0  0  0  0  0  0
  -30.6165  -20.8360   17.1953 C   0  0  0  0  0  0
  -27.9408  -24.9848   19.8514 C   0  0  0  0  0  0
  -31.0659  -20.9283   18.6668 C   0  0  0  0  0  0
  -29.8513  -19.5477   21.0605 N   0  0  0  0  0  0
  -29.9568  -15.7524   20.7969 N   0  0  0  0  0  0
  -31.4685  -12.4844   19.1565 H   0  0  0  0  0  0
  -30.3374  -11.3987   19.9131 H   0  0  0  0  0  0
  -29.7661  -11.7477   17.4835 H   0  0  0  0  0  0
  -29.6494  -13.4708   17.7440 H   0  0  0  0  0  0
  -27.8644  -11.2929   18.8778 H   0  0  0  0  0  0
  -27.3726  -12.5683   17.7957 H   0  0  0  0  0  0
  -27.6612  -14.2568   19.5061 H   0  0  0  0  0  0
  -28.7030  -12.1069   21.4139 H   0  0  0  0  0  0
  -28.4493  -13.7846   21.8167 H   0  0  0  0  0  0
  -25.2759   -9.5693   22.4768 H   0  0  0  0  0  0
  -23.9998   -7.4644   22.7483 H   0  0  0  0  0  0
  -21.0850   -8.8774   19.8946 H   0  0  0  0  0  0
  -22.3703  -10.9674   19.6160 H   0  0  0  0  0  0
  -21.2005   -7.6150   23.9713 H   0  0  0  0  0  0
  -21.1483   -6.0525   25.9077 H   0  0  0  0  0  0
  -22.0598   -2.7609   23.2847 H   0  0  0  0  0  0
  -22.4085  -11.9867   22.4779 H   0  0  0  0  0  0
  -21.1089  -13.1234   22.2596 H   0  0  0  0  0  0
  -24.6528  -15.8433   20.5130 H   0  0  0  0  0  0
  -26.2679  -15.6300   20.0666 H   0  0  0  0  0  0
  -26.7201  -32.5449   23.1134 H   0  0  0  0  0  0
  -25.0129  -33.9735   25.0470 H   0  0  0  0  0  0
  -22.7147  -31.3134   21.4145 H   0  0  0  0  0  0
  -23.3764  -35.9603   23.3282 H   0  0  0  0  0  0
  -24.3584  -36.8925   22.2056 H   0  0  0  0  0  0
  -23.7221  -37.6472   23.6671 H   0  0  0  0  0  0
  -26.1077  -31.5524   20.6217 H   0  0  0  0  0  0
  -26.8457  -30.8274   22.0188 H   0  0  0  0  0  0
  -28.1047  -28.9396   21.2263 H   0  0  0  0  0  0
  -25.9119  -26.0121   18.8887 H   0  0  0  0  0  0
  -23.9617  -27.3746   18.9580 H   0  0  0  0  0  0
  -23.7554  -30.6228   19.4126 H   0  0  0  0  0  0
  -22.7536  -29.2739   19.8554 H   0  0  0  0  0  0
  -25.1288  -36.1936   25.0824 H   0  0  0  0  0  0
  -20.9982  -28.3271   24.1390 H   0  0  0  0  0  0
  -20.5682  -26.2307   23.3597 H   0  0  0  0  0  0
  -21.6646  -26.7452   22.1188 H   0  0  0  0  0  0
  -19.6911  -25.6297   21.1234 H   0  0  0  0  0  0
  -19.6683  -27.3193   20.6727 H   0  0  0  0  0  0
  -17.4201  -26.6682   21.4017 H   0  0  0  0  0  0
  -18.0331  -26.0070   22.9010 H   0  0  0  0  0  0
  -19.7942  -30.7275   24.2251 H   0  0  0  0  0  0
  -17.5022  -31.6267   24.5167 H   0  0  0  0  0  0
  -15.5355  -30.2984   23.7664 H   0  0  0  0  0  0
  -15.8674  -28.0818   22.7077 H   0  0  0  0  0  0
  -24.5939  -30.7026   25.7785 H   0  0  0  0  0  0
  -24.8893  -32.2857   26.4882 H   0  0  0  0  0  0
  -25.8066  -30.8895   27.0249 H   0  0  0  0  0  0
  -26.2964  -29.6756   24.1236 H   0  0  0  0  0  0
  -27.4063  -29.7281   25.4732 H   0  0  0  0  0  0
  -27.8839  -30.4306   23.9471 H   0  0  0  0  0  0
  -27.2669  -33.3655   26.2068 H   0  0  0  0  0  0
  -28.3898  -32.6859   25.0378 H   0  0  0  0  0  0
  -28.0697  -31.8483   26.5486 H   0  0  0  0  0  0
  -28.2573  -38.0121   24.7549 H   0  0  0  0  0  0
  -28.1100  -36.2652   24.6252 H   0  0  0  0  0  0
  -27.2299  -37.1405   25.8865 H   0  0  0  0  0  0
  -20.9378  -29.8804   21.6902 H   0  0  0  0  0  0
  -26.0164  -38.2852   24.1432 H   0  0  0  0  0  0
  -27.6333  -23.4266   22.0898 H   0  0  0  0  0  0
  -28.3368  -21.1248   22.5013 H   0  0  0  0  0  0
  -30.4508  -17.4040   22.8454 H   0  0  0  0  0  0
  -32.0718  -17.3299   22.1659 H   0  0  0  0  0  0
  -31.9205  -19.6009   21.3506 H   0  0  0  0  0  0
  -30.9855  -19.7270   22.8393 H   0  0  0  0  0  0
  -28.4168  -18.0518   20.7260 H   0  0  0  0  0  0
  -29.3194  -18.4761   19.2810 H   0  0  0  0  0  0
  -31.2177  -17.2202   19.9180 H   0  0  0  0  0  0
  -30.1570  -24.8981   18.3899 H   0  0  0  0  0  0
  -29.4467  -23.6790   17.3368 H   0  0  0  0  0  0
  -31.1331  -23.5867   17.8369 H   0  0  0  0  0  0
  -32.8527  -21.2329   19.8742 H   0  0  0  0  0  0
  -32.6867  -22.4429   18.6252 H   0  0  0  0  0  0
  -33.1946  -20.8211   18.2041 H   0  0  0  0  0  0
  -29.6023  -20.4419   17.1241 H   0  0  0  0  0  0
  -31.2635  -20.1536   16.6432 H   0  0  0  0  0  0
  -30.6450  -21.7812   16.6607 H   0  0  0  0  0  0
  -26.9662  -24.7723   20.2930 H   0  0  0  0  0  0
  -27.7911  -24.9306   18.7727 H   0  0  0  0  0  0
  -31.1070  -19.8837   18.9608 H   0  0  0  0  0  0
  -28.9900  -15.6165   21.0511 H   0  0  0  0  0  0
  1 25  1  0  0  0
  1 30  2  0  0  0
  1 87  1  0  0  0
  2  3  1  0  0  0
  2 25  1  0  0  0
  2 88  1  0  0  0
  2 89  1  0  0  0
  3  4  1  0  0  0
  3 90  1  0  0  0
  3 91  1  0  0  0
  4  5  1  0  0  0
  4 92  1  0  0  0
  4 93  1  0  0  0
  5  6  1  0  0  0
  5 26  1  0  0  0
  5 94  1  0  0  0
  6 25  1  0  0  0
  6 95  1  0  0  0
  6 96  1  0  0  0
  7  8  2  0  0  0
  7 26  1  0  0  0
  7 29  1  0  0  0
  8  9  1  0  0  0
  8 22  1  0  0  0
  9 10  1  0  0  0
  9 27  2  0  0  0
 10 11  2  0  0  0
 10 15  1  0  0  0
 11 12  1  0  0  0
 11 97  1  0  0  0
 12 13  2  0  0  0
 12 98  1  0  0  0
 13 14  1  0  0  0
 13 31  1  0  0  0
 14 15  2  0  0  0
 14 99  1  0  0  0
 15100  1  0  0  0
 16 17  2  0  0  0
 16 21  1  0  0  0
 16 31  1  0  0  0
 17 18  1  0  0  0
 17101  1  0  0  0
 18 19  2  0  0  0
 18102  1  0  0  0
 19 20  1  0  0  0
 19 24  1  0  0  0
 20 21  2  0  0  0
 20103  1  0  0  0
 21 23  1  0  0  0
 22 28  1  0  0  0
 22 32  2  0  0  0
 26 27  1  0  0  0
 28104  1  0  0  0
 28105  1  0  0  0
 29106  1  0  0  0
 29107  1  0  0  0
 33 34  1  0  0  0
 33 66  1  0  0  0
 33 70  2  0  0  0
 34 36  1  0  0  0
 34 59  1  0  0  0
 34108  1  0  0  0
 35 44  2  0  0  0
 35 45  1  0  0  0
 35 68  1  0  0  0
 36 56  1  0  0  0
 36109  1  0  0  0
 37 39  1  0  0  0
 37 47  1  0  0  0
 37 66  1  0  0  0
 37110  1  0  0  0
 38 43  2  0  0  0
 38 46  1  0  0  0
 38 47  1  0  0  0
 39 64  1  0  0  0
 39 67  2  0  0  0
 40 52  1  0  0  0
 40 53  2  0  0  0
 40 58  1  0  0  0
 41111  1  0  0  0
 41112  1  0  0  0
 41113  1  0  0  0
 41 48  1  0  0  0
 42 43  1  0  0  0
 42 66  1  0  0  0
 42114  1  0  0  0
 42115  1  0  0  0
 43 44  1  0  0  0
 44116  1  0  0  0
 45 46  2  0  0  0
 45117  1  0  0  0
 46118  1  0  0  0
 47119  1  0  0  0
 47120  1  0  0  0
 48 56  1  0  0  0
 48 65  1  0  0  0
 48121  1  0  0  0
 49 50  1  0  0  0
 49 53  1  0  0  0
 49 64  1  0  0  0
 49122  1  0  0  0
 50 51  1  0  0  0
 50123  1  0  0  0
 50124  1  0  0  0
 51 52  1  0  0  0
 51125  1  0  0  0
 51126  1  0  0  0
 52127  1  0  0  0
 52128  1  0  0  0
 53 54  1  0  0  0
 54 55  2  0  0  0
 54129  1  0  0  0
 55 57  1  0  0  0
 55130  1  0  0  0
 56 69  2  0  0  0
 57 58  2  0  0  0
 57131  1  0  0  0
 58132  1  0  0  0
 59 60  1  0  0  0
 59 61  1  0  0  0
 59 62  1  0  0  0
 60133  1  0  0  0
 60134  1  0  0  0
 60135  1  0  0  0
 61136  1  0  0  0
 61137  1  0  0  0
 61138  1  0  0  0
 62139  1  0  0  0
 62140  1  0  0  0
 62141  1  0  0  0
 63 65  1  0  0  0
 63142  1  0  0  0
 63143  1  0  0  0
 63144  1  0  0  0
 64145  1  0  0  0
 65146  1  0  0  0
 68 84  1  0  0  0
 71 72  2  0  0  0
 71 73  1  0  0  0
 71147  1  0  0  0
 72 76  1  0  0  0
 72148  1  0  0  0
 73 74  2  0  0  0
 73 84  1  0  0  0
 74 75  1  0  0  0
 74 81  1  0  0  0
 75 76  2  0  0  0
 75 85  1  0  0  0
 76 86  1  0  0  0
 77 78  1  0  0  0
 77 80  1  0  0  0
 77149  1  0  0  0
 77150  1  0  0  0
 78 86  1  0  0  0
 78151  1  0  0  0
 78152  1  0  0  0
 79 80  1  0  0  0
 79 86  1  0  0  0
 79153  1  0  0  0
 79154  1  0  0  0
 80 87  1  0  0  0
 80155  1  0  0  0
 81156  1  0  0  0
 81157  1  0  0  0
 81158  1  0  0  0
 82159  1  0  0  0
 82160  1  0  0  0
 82161  1  0  0  0
 82 85  1  0  0  0
 83 85  1  0  0  0
 83162  1  0  0  0
 83163  1  0  0  0
 83164  1  0  0  0
 84165  1  0  0  0
 84166  1  0  0  0
 85167  1  0  0  0
 87168  1  0  0  0
M  ISO  4   1 100  68 101  84 101  87 100
M  END
> <chiral flag>
0

> <version>
0

> <s_m_source_file>
/data/baiqing/PycharmProjects/Reinvent-master-3.2/result/LINK_invent/BTK/process_docking_weight1_custom_sum_contain_oxygen_bond_distance_aromatic_linkinvent_7_9_3/rearranged_h_0163.sdf

> <i_m_source_file_index>
57

> <r_mmod_Potential_Energy-OPLS-2005>
191.661468505859

> <r_mmod_Stretch_Energy-OPLS-2005>
85.9919662475586

> <r_mmod_Bend_Energy-OPLS-2005>
194.621536254883

> <r_mmod_Torsional_Energy-OPLS-2005>
300.176086425781

> <r_mmod_Improper_Torsional_Energy-OPLS-2005>
8.68591403961182

> <r_mmod_Van_der_Waal_Energy-OPLS-2005>
160.709732055664

> <r_mmod_Electrostatic_Energy-OPLS-2005>
-401.376068115234

> <r_mmod_Solvation_Energy-OPLS-2005>
-213.655380249023

> <b_mmod_Minimization_Converged-OPLS-2005>
0

> <r_mmod_RMS_Derivative-OPLS-2005>
0.476660758256912

$$$$
57
                    3D
 Structure written by MMmdl.
171180  0  0  1  0            999 V2000
  -30.6459  -14.6256   20.5149 C   0  0  0  0  0  0
  -30.4288  -12.3736   19.4816 C   0  0  0  0  0  0
  -29.5260  -12.5199   18.2374 C   0  0  0  0  0  0
  -28.0398  -12.3699   18.6247 C   0  0  0  0  0  0
  -27.6574  -13.2226   19.8632 C   0  0  2  0  0  0
  -28.6929  -13.0845   21.0070 C   0  0  0  0  0  0
  -25.2590  -13.8191   20.5634 C   0  0  0  0  0  0
  -24.1849  -13.0452   20.9116 C   0  0  0  0  0  0
  -24.6416  -11.6925   20.8653 C   0  0  0  0  0  0
  -23.9071  -10.4313   21.0334 C   0  0  0  0  0  0
  -24.3628   -9.4260   21.9155 C   0  0  0  0  0  0
  -23.6313   -8.2306   22.0781 C   0  0  0  0  0  0
  -22.4302   -8.0309   21.3562 C   0  0  0  0  0  0
  -21.9888   -9.0266   20.4663 C   0  0  0  0  0  0
  -22.7200  -10.2155   20.3018 C   0  0  0  0  0  0
  -21.6897   -6.0737   22.5247 C   0  0  0  0  0  0
  -21.4031   -6.5626   23.8172 C   0  0  0  0  0  0
  -21.3670   -5.6783   24.9122 C   0  0  0  0  0  0
  -21.6051   -4.3047   24.7176 C   0  0  0  0  0  0
  -21.8837   -3.8140   23.4298 C   0  0  0  0  0  0
  -21.9218   -4.6960   22.3356 C   0  0  0  0  0  0
  -22.7874  -13.5250   21.1811 C   0  0  0  0  0  0
  -22.1700   -4.2146   21.0935 F   0  0  0  0  0  0
  -21.5634   -3.4532   25.7691 F   0  0  0  0  0  0
  -30.0239  -13.4030   20.4626 N   0  0  0  0  0  0
  -26.3000  -12.9365   20.3252 N   0  0  0  0  0  0
  -25.9339  -11.6508   20.5656 N   0  0  0  0  0  0
  -22.0567  -12.8228   22.0392 N   0  0  0  0  0  0
  -25.4344  -15.1900   20.4100 N   0  0  0  0  0  0
  -31.7754  -14.7944   20.0451 O   0  0  0  0  0  0
  -21.6704   -6.8888   21.4222 O   0  0  0  0  0  0
  -22.3532  -14.5540   20.6669 O   0  0  0  0  0  0
  -24.6233  -31.8612   23.2010 C   0  0  0  0  0  0
  -25.9093  -32.4781   23.8343 C   0  0  1  0  0  0
  -27.2380  -27.3656   20.1251 C   0  0  0  0  0  0
  -25.5912  -33.8574   24.2281 N   0  0  0  0  0  0
  -23.4142  -30.4858   21.5393 C   0  0  2  0  0  0
  -24.8628  -28.9416   20.1107 C   0  0  0  0  0  0
  -22.7458  -29.4663   22.4915 C   0  0  0  0  0  0
  -18.0283  -28.1404   22.8487 C   0  0  0  0  0  0
  -24.1479  -36.7319   23.2640 C   0  0  0  0  0  0
  -25.9478  -30.8123   21.3584 C   0  0  0  0  0  0
  -26.0263  -29.4397   20.7109 C   0  0  0  0  0  0
  -27.2162  -28.6654   20.7052 C   0  0  0  0  0  0
  -26.0523  -26.8988   19.5134 C   0  0  0  0  0  0
  -24.8783  -27.6767   19.4996 C   0  0  0  0  0  0
  -23.6258  -29.8135   20.1564 C   0  0  0  0  0  0
  -25.4094  -36.3083   24.0336 C   0  0  1  0  0  0
  -20.5882  -28.3714   23.1278 C   0  0  2  0  0  0
  -20.6763  -26.9427   22.5414 C   0  0  0  0  0  0
  -19.5733  -26.6395   21.5223 C   0  0  0  0  0  0
  -18.1921  -26.7951   22.1639 C   0  0  0  0  0  0
  -19.1535  -28.8874   23.2893 C   0  0  0  0  0  0
  -18.9464  -30.1465   23.8909 C   0  0  0  0  0  0
  -17.6462  -30.6599   24.0578 C   0  0  0  0  0  0
  -25.9034  -34.9455   23.5099 C   0  0  0  0  0  0
  -16.5351  -29.9101   23.6326 C   0  0  0  0  0  0
  -16.7274  -28.6533   23.0333 C   0  0  0  0  0  0
  -26.4477  -31.6575   25.0701 C   0  0  0  0  0  0
  -25.3743  -31.3721   26.1457 C   0  0  0  0  0  0
  -27.0311  -30.2999   24.6141 C   0  0  0  0  0  0
  -27.6030  -32.4325   25.7483 C   0  0  0  0  0  0
  -27.5579  -37.1803   24.8458 C   0  0  0  0  0  0
  -21.4175  -29.3075   22.3665 N   0  0  0  0  0  0
  -26.4271  -37.3784   23.9422 N   0  0  0  0  0  0
  -24.6802  -31.0696   22.0918 N   0  0  0  0  0  0
  -23.4198  -28.8192   23.2985 O   0  0  0  0  0  0
  -28.3926  -26.5895   20.1670 O   0  0  0  0  0  0
  -26.5612  -34.8924   22.4685 O   0  0  0  0  0  0
  -23.5414  -32.1366   23.7391 O   0  0  0  0  0  0
  -30.7957  -25.0644   20.1096 C   0  0  0  0  0  0
  -32.0232  -24.3987   20.0958 C   0  0  0  0  0  0
  -32.0341  -22.9906   20.2741 C   0  0  0  0  0  0
  -30.8050  -22.3064   20.5428 C   0  0  0  0  0  0
  -29.6047  -24.3497   20.2936 C   0  0  0  0  0  0
  -30.1138  -20.3547   22.2168 C   0  0  0  0  0  0
  -30.0946  -18.7959   22.1974 C   0  0  0  0  0  0
  -30.8139  -20.7716   20.9223 C   0  0  1  0  0  0
  -30.4687  -18.3140   20.7631 C   0  0  2  0  0  0
  -30.3551  -19.6626   19.9307 C   0  0  2  0  0  0
  -33.2812  -25.2349   19.8982 C   0  0  0  0  0  0
  -33.3658  -22.2431   20.1668 C   0  0  0  0  0  0
  -29.6590  -16.8982   18.7127 C   0  0  0  0  0  0
  -28.2668  -25.1295   20.1894 C   0  0  0  0  0  0
  -29.6571  -17.0363   20.2517 C   0  0  1  0  0  0
  -29.6152  -22.9912   20.5155 N   0  0  0  0  0  0
  -29.8683  -15.6838   20.8996 N   0  0  0  0  0  0
  -31.1658  -19.6544   18.6974 N   0  3  0  0  0  0
  -31.4802  -12.4588   19.2048 H   0  0  0  0  0  0
  -30.3201  -11.3776   19.9155 H   0  0  0  0  0  0
  -29.7946  -11.7785   17.4839 H   0  0  0  0  0  0
  -29.6946  -13.4965   17.7830 H   0  0  0  0  0  0
  -27.8533  -11.3132   18.8179 H   0  0  0  0  0  0
  -27.4078  -12.6406   17.7776 H   0  0  0  0  0  0
  -27.6736  -14.2601   19.5273 H   0  0  0  0  0  0
  -28.6905  -12.0737   21.4172 H   0  0  0  0  0  0
  -28.4283  -13.7388   21.8371 H   0  0  0  0  0  0
  -25.2796   -9.5782   22.4661 H   0  0  0  0  0  0
  -24.0078   -7.4696   22.7480 H   0  0  0  0  0  0
  -21.0838   -8.8708   19.8931 H   0  0  0  0  0  0
  -22.3655  -10.9655   19.6080 H   0  0  0  0  0  0
  -21.2048   -7.6144   23.9647 H   0  0  0  0  0  0
  -21.1469   -6.0523   25.9017 H   0  0  0  0  0  0
  -22.0622   -2.7607   23.2765 H   0  0  0  0  0  0
  -22.4250  -11.9902   22.4734 H   0  0  0  0  0  0
  -21.1149  -13.1159   22.2557 H   0  0  0  0  0  0
  -24.6809  -15.8527   20.5414 H   0  0  0  0  0  0
  -26.2972  -15.6279   20.1100 H   0  0  0  0  0  0
  -26.7181  -32.5453   23.1117 H   0  0  0  0  0  0
  -25.0036  -33.9698   25.0406 H   0  0  0  0  0  0
  -22.7071  -31.3056   21.3959 H   0  0  0  0  0  0
  -23.3716  -35.9676   23.3281 H   0  0  0  0  0  0
  -24.3585  -36.8959   22.2060 H   0  0  0  0  0  0
  -23.7243  -37.6527   23.6666 H   0  0  0  0  0  0
  -26.0638  -31.5689   20.5802 H   0  0  0  0  0  0
  -26.8347  -30.8714   21.9785 H   0  0  0  0  0  0
  -28.1110  -29.0515   21.1736 H   0  0  0  0  0  0
  -26.0070  -25.9315   19.0385 H   0  0  0  0  0  0
  -23.9911  -27.2883   19.0203 H   0  0  0  0  0  0
  -23.7332  -30.5829   19.3919 H   0  0  0  0  0  0
  -22.7487  -29.2341   19.8636 H   0  0  0  0  0  0
  -25.1259  -36.1934   25.0826 H   0  0  0  0  0  0
  -21.0009  -28.3302   24.1388 H   0  0  0  0  0  0
  -20.5653  -26.2339   23.3631 H   0  0  0  0  0  0
  -21.6624  -26.7435   22.1208 H   0  0  0  0  0  0
  -19.6870  -25.6304   21.1253 H   0  0  0  0  0  0
  -19.6649  -27.3207   20.6751 H   0  0  0  0  0  0
  -17.4178  -26.6715   21.4045 H   0  0  0  0  0  0
  -18.0301  -26.0091   22.9041 H   0  0  0  0  0  0
  -19.7931  -30.7295   24.2279 H   0  0  0  0  0  0
  -17.5004  -31.6264   24.5198 H   0  0  0  0  0  0
  -15.5348  -30.3010   23.7625 H   0  0  0  0  0  0
  -15.8690  -28.0863   22.7010 H   0  0  0  0  0  0
  -24.5873  -30.7116   25.7794 H   0  0  0  0  0  0
  -24.8993  -32.2902   26.4932 H   0  0  0  0  0  0
  -25.8085  -30.8851   27.0201 H   0  0  0  0  0  0
  -26.2869  -29.6761   24.1174 H   0  0  0  0  0  0
  -27.4009  -29.7241   25.4636 H   0  0  0  0  0  0
  -27.8733  -30.4263   23.9337 H   0  0  0  0  0  0
  -27.2598  -33.3601   26.2084 H   0  0  0  0  0  0
  -28.3826  -32.6944   25.0316 H   0  0  0  0  0  0
  -28.0721  -31.8455   26.5391 H   0  0  0  0  0  0
  -28.2559  -38.0134   24.7521 H   0  0  0  0  0  0
  -28.1100  -36.2661   24.6222 H   0  0  0  0  0  0
  -27.2320  -37.1392   25.8868 H   0  0  0  0  0  0
  -20.9343  -29.8839   21.6912 H   0  0  0  0  0  0
  -26.0144  -38.2855   24.1440 H   0  0  0  0  0  0
  -30.7629  -26.1344   19.9531 H   0  0  0  0  0  0
  -30.6199  -20.7579   23.0957 H   0  0  0  0  0  0
  -29.0951  -20.7476   22.2307 H   0  0  0  0  0  0
  -29.1084  -18.4403   22.5020 H   0  0  0  0  0  0
  -30.8062  -18.4020   22.9279 H   0  0  0  0  0  0
  -31.8488  -20.5254   21.1412 H   0  0  0  0  0  0
  -31.5257  -18.0461   20.7806 H   0  0  0  0  0  0
  -29.3140  -19.8453   19.6628 H   0  0  0  0  0  0
  -33.0827  -26.2923   20.0727 H   0  0  0  0  0  0
  -33.6625  -25.1354   18.8827 H   0  0  0  0  0  0
  -34.0623  -24.9547   20.6027 H   0  0  0  0  0  0
  -33.6586  -21.8180   21.1270 H   0  0  0  0  0  0
  -34.1934  -22.8623   19.8223 H   0  0  0  0  0  0
  -33.2887  -21.4408   19.4346 H   0  0  0  0  0  0
  -29.1718  -17.7505   18.2382 H   0  0  0  0  0  0
  -29.1052  -16.0180   18.3819 H   0  0  0  0  0  0
  -30.6682  -16.8190   18.3073 H   0  0  0  0  0  0
  -27.6248  -24.8335   21.0211 H   0  0  0  0  0  0
  -27.7954  -24.7835   19.2697 H   0  0  0  0  0  0
  -28.6161  -17.2594   20.4957 H   0  0  0  0  0  0
  -29.0694  -15.3806   21.4384 H   0  0  0  0  0  0
  -32.1370  -19.4853   18.8992 H   0  0  0  0  0  0
  -31.0848  -20.5322   18.2111 H   0  0  0  0  0  0
  -30.8456  -18.9350   18.0712 H   0  0  0  0  0  0
  1 25  1  0  0  0
  1 30  2  0  0  0
  1 87  1  0  0  0
  2  3  1  0  0  0
  2 25  1  0  0  0
  2 89  1  0  0  0
  2 90  1  0  0  0
  3  4  1  0  0  0
  3 91  1  0  0  0
  3 92  1  0  0  0
  4  5  1  0  0  0
  4 93  1  0  0  0
  4 94  1  0  0  0
  5  6  1  0  0  0
  5 26  1  0  0  0
  5 95  1  0  0  0
  6 25  1  0  0  0
  6 96  1  0  0  0
  6 97  1  0  0  0
  7  8  2  0  0  0
  7 26  1  0  0  0
  7 29  1  0  0  0
  8  9  1  0  0  0
  8 22  1  0  0  0
  9 10  1  0  0  0
  9 27  2  0  0  0
 10 11  2  0  0  0
 10 15  1  0  0  0
 11 12  1  0  0  0
 11 98  1  0  0  0
 12 13  2  0  0  0
 12 99  1  0  0  0
 13 14  1  0  0  0
 13 31  1  0  0  0
 14 15  2  0  0  0
 14100  1  0  0  0
 15101  1  0  0  0
 16 17  2  0  0  0
 16 21  1  0  0  0
 16 31  1  0  0  0
 17 18  1  0  0  0
 17102  1  0  0  0
 18 19  2  0  0  0
 18103  1  0  0  0
 19 20  1  0  0  0
 19 24  1  0  0  0
 20 21  2  0  0  0
 20104  1  0  0  0
 21 23  1  0  0  0
 22 28  1  0  0  0
 22 32  2  0  0  0
 26 27  1  0  0  0
 28105  1  0  0  0
 28106  1  0  0  0
 29107  1  0  0  0
 29108  1  0  0  0
 33 34  1  0  0  0
 33 66  1  0  0  0
 33 70  2  0  0  0
 34 36  1  0  0  0
 34 59  1  0  0  0
 34109  1  0  0  0
 35 44  2  0  0  0
 35 45  1  0  0  0
 35 68  1  0  0  0
 36 56  1  0  0  0
 36110  1  0  0  0
 37 39  1  0  0  0
 37 47  1  0  0  0
 37 66  1  0  0  0
 37111  1  0  0  0
 38 43  2  0  0  0
 38 46  1  0  0  0
 38 47  1  0  0  0
 39 64  1  0  0  0
 39 67  2  0  0  0
 40 52  1  0  0  0
 40 53  2  0  0  0
 40 58  1  0  0  0
 41112  1  0  0  0
 41113  1  0  0  0
 41114  1  0  0  0
 41 48  1  0  0  0
 42 43  1  0  0  0
 42 66  1  0  0  0
 42115  1  0  0  0
 42116  1  0  0  0
 43 44  1  0  0  0
 44117  1  0  0  0
 45 46  2  0  0  0
 45118  1  0  0  0
 46119  1  0  0  0
 47120  1  0  0  0
 47121  1  0  0  0
 48 56  1  0  0  0
 48 65  1  0  0  0
 48122  1  0  0  0
 49 50  1  0  0  0
 49 53  1  0  0  0
 49 64  1  0  0  0
 49123  1  0  0  0
 50 51  1  0  0  0
 50124  1  0  0  0
 50125  1  0  0  0
 51 52  1  0  0  0
 51126  1  0  0  0
 51127  1  0  0  0
 52128  1  0  0  0
 52129  1  0  0  0
 53 54  1  0  0  0
 54 55  2  0  0  0
 54130  1  0  0  0
 55 57  1  0  0  0
 55131  1  0  0  0
 56 69  2  0  0  0
 57 58  2  0  0  0
 57132  1  0  0  0
 58133  1  0  0  0
 59 60  1  0  0  0
 59 61  1  0  0  0
 59 62  1  0  0  0
 60134  1  0  0  0
 60135  1  0  0  0
 60136  1  0  0  0
 61137  1  0  0  0
 61138  1  0  0  0
 61139  1  0  0  0
 62140  1  0  0  0
 62141  1  0  0  0
 62142  1  0  0  0
 63 65  1  0  0  0
 63143  1  0  0  0
 63144  1  0  0  0
 63145  1  0  0  0
 64146  1  0  0  0
 65147  1  0  0  0
 68 84  1  0  0  0
 71 72  2  0  0  0
 71 75  1  0  0  0
 71148  1  0  0  0
 72 73  1  0  0  0
 72 81  1  0  0  0
 73 74  2  0  0  0
 73 82  1  0  0  0
 74 86  1  0  0  0
 74 78  1  0  0  0
 75 84  1  0  0  0
 75 86  2  0  0  0
 76 77  1  0  0  0
 76 78  1  0  0  0
 76149  1  0  0  0
 76150  1  0  0  0
 77151  1  0  0  0
 77152  1  0  0  0
 77 79  1  0  0  0
 78 80  1  0  0  0
 78153  1  0  0  0
 79 80  1  0  0  0
 79 85  1  0  0  0
 79154  1  0  0  0
 80 88  1  0  0  0
 80155  1  0  0  0
 81156  1  0  0  0
 81157  1  0  0  0
 81158  1  0  0  0
 82159  1  0  0  0
 82160  1  0  0  0
 82161  1  0  0  0
 83162  1  0  0  0
 83163  1  0  0  0
 83164  1  0  0  0
 83 85  1  0  0  0
 84165  1  0  0  0
 84166  1  0  0  0
 85 87  1  0  0  0
 85167  1  0  0  0
 87168  1  0  0  0
 88169  1  0  0  0
 88170  1  0  0  0
 88171  1  0  0  0
M  CHG  1  88   1
M  ISO  4   1 100  68 101  84 101  87 100
M  END
> <chiral flag>
0

> <version>
0

> <s_m_source_file>
/data/baiqing/PycharmProjects/Reinvent-master-3.2/result/LINK_invent/BTK/process_docking_weight1_custom_sum_contain_oxygen_bond_distance_aromatic_linkinvent_7_9_3/rearranged_h_0163.sdf

> <i_m_source_file_index>
58

> <r_mmod_Potential_Energy-OPLS-2005>
-183.824905395508

> <r_mmod_Stretch_Energy-OPLS-2005>
78.0583801269531

> <r_mmod_Bend_Energy-OPLS-2005>
175.589080810547

> <r_mmod_Torsional_Energy-OPLS-2005>
290.022033691406

> <r_mmod_Improper_Torsional_Energy-OPLS-2005>
7.14238882064819

> <r_mmod_Van_der_Waal_Energy-OPLS-2005>
147.097717285156

> <r_mmod_Electrostatic_Energy-OPLS-2005>
-430.741516113281

> <r_mmod_Solvation_Energy-OPLS-2005>
-487.545074462891

> <b_mmod_Minimization_Converged-OPLS-2005>
0

> <r_mmod_RMS_Derivative-OPLS-2005>
5.02988052368164

$$$$
58
                    3D
 Structure written by MMmdl.
184194  0  0  1  0            999 V2000
  -29.4024  -14.0385   21.4526 C   0  0  0  0  0  0
  -30.4834  -12.6759   19.4795 C   0  0  0  0  0  0
  -29.6826  -12.8187   18.1008 C   0  0  0  0  0  0
  -28.1216  -12.6817   18.1353 C   0  0  0  0  0  0
  -27.6486  -13.2294   19.4792 C   0  0  2  0  0  0
  -28.4709  -12.2609   20.3769 C   0  0  0  0  0  0
  -25.1559  -13.9910   20.0208 C   0  0  0  0  0  0
  -24.1379  -13.1662   20.3978 C   0  0  0  0  0  0
  -24.7310  -11.9064   20.1097 C   0  0  0  0  0  0
  -24.5048  -10.6258   20.3498 C   0  0  0  0  0  0
  -25.7391   -9.7945   21.2382 C   0  0  0  0  0  0
  -25.2696   -8.7298   22.4512 C   0  0  0  0  0  0
  -22.7455   -8.5979   22.4640 C   0  0  0  0  0  0
  -22.0501   -9.5692   21.3651 C   0  0  0  0  0  0
  -22.8911  -10.4712   20.3813 C   0  0  0  0  0  0
  -21.5716   -6.3004   22.7868 C   0  0  0  0  0  0
  -21.2306   -6.5844   24.1058 C   0  0  0  0  0  0
  -21.2405   -5.5874   25.0806 C   0  0  0  0  0  0
  -21.5219   -4.2626   24.7341 C   0  0  0  0  0  0
  -21.7610   -3.9157   23.3903 C   0  0  0  0  0  0
  -21.7900   -4.9222   22.3951 C   0  0  0  0  0  0
  -22.7839  -13.5511   20.9713 C   0  0  0  0  0  0
  -22.0988   -4.5210   21.1292 F   0  0  0  0  0  0
  -21.5544   -3.3321   25.7130 F   0  0  0  0  0  0
  -29.6397  -12.9298   20.6986 N   0  0  0  0  0  0
  -26.2559  -13.1444   19.7843 N   0  0  0  0  0  0
  -25.9306  -11.9118   19.7753 N   0  0  0  0  0  0
  -22.2312  -12.8243   21.9427 N   0  0  0  0  0  0
  -25.2115  -15.3768   19.9045 N   0  0  0  0  0  0
  -30.3218  -14.8898   21.1563 O   0  0  0  0  0  0
  -21.8471   -7.4633   22.0730 O   0  0  0  0  0  0
  -22.2500  -14.5992   20.6153 O   0  0  0  0  0  0
  -24.6743  -31.8112   23.1651 C   0  0  0  0  0  0
  -25.9404  -32.4504   23.8133 C   0  0  1  0  0  0
  -26.9977  -26.6681   20.3616 C   0  0  0  0  0  0
  -25.6043  -33.8331   24.2008 N   0  0  0  0  0  0
  -23.4891  -30.4328   21.5143 C   0  0  2  0  0  0
  -24.9128  -28.7907   20.1111 C   0  0  0  0  0  0
  -22.7692  -29.4405   22.4675 C   0  0  0  0  0  0
  -18.0318  -28.1415   22.8464 C   0  0  0  0  0  0
  -24.1482  -36.7152   23.2642 C   0  0  0  0  0  0
  -26.0662  -30.5406   21.4339 C   0  0  0  0  0  0
  -26.0917  -29.1079   20.7961 C   0  0  0  0  0  0
  -27.1426  -28.0679   20.8892 C   0  0  0  0  0  0
  -25.8562  -26.5778   19.5419 C   0  0  0  0  0  0
  -24.8437  -27.5604   19.4441 C   0  0  0  0  0  0
  -23.7348  -29.7669   20.1329 C   0  0  0  0  0  0
  -25.4132  -36.2900   24.0277 C   0  0  1  0  0  0
  -20.5958  -28.3767   23.1126 C   0  0  2  0  0  0
  -20.6793  -26.9431   22.5380 C   0  0  0  0  0  0
  -19.5768  -26.6364   21.5200 C   0  0  0  0  0  0
  -18.1954  -26.7949   22.1617 C   0  0  0  0  0  0
  -19.1595  -28.8905   23.2779 C   0  0  0  0  0  0
  -18.9511  -30.1489   23.8817 C   0  0  0  0  0  0
  -17.6511  -30.6597   24.0556 C   0  0  0  0  0  0
  -25.9133  -34.9300   23.4969 C   0  0  0  0  0  0
  -16.5386  -29.9093   23.6355 C   0  0  0  0  0  0
  -16.7302  -28.6514   23.0363 C   0  0  0  0  0  0
  -26.4601  -31.6518   25.0729 C   0  0  0  0  0  0
  -25.3696  -31.3833   26.1364 C   0  0  0  0  0  0
  -27.0570  -30.2870   24.6637 C   0  0  0  0  0  0
  -27.6021  -32.4397   25.7577 C   0  0  0  0  0  0
  -27.5572  -37.1707   24.8441 C   0  0  0  0  0  0
  -21.4342  -29.3050   22.3442 N   0  0  0  0  0  0
  -26.4232  -37.3681   23.9452 N   0  0  0  0  0  0
  -24.7673  -30.9622   22.0889 N   0  0  0  0  0  0
  -23.4189  -28.7953   23.2933 O   0  0  0  0  0  0
  -27.7740  -25.3623   20.5212 O   0  0  0  0  0  0
  -26.5737  -34.8867   22.4557 O   0  0  0  0  0  0
  -23.5783  -32.1185   23.6657 O   0  0  0  0  0  0
  -24.0041  -10.4683   22.6049 C   0  0  0  0  0  0
  -23.9738   -9.7125   24.1742 C   0  0  0  0  0  0
  -24.0694   -8.0116   24.4043 C   0  0  0  0  0  0
  -24.0130   -8.3439   20.7485 C   0  0  0  0  0  0
  -24.1988   -6.7704   23.2147 C   0  0  0  0  0  0
  -26.6617  -20.9330   19.9322 C   0  0  0  0  0  0
  -26.5233  -19.3107   20.2598 C   0  0  0  0  0  0
  -25.4620  -13.9854   22.8387 C   0  0  0  0  0  0
  -27.4165  -20.4438   22.0282 C   0  0  0  0  0  0
  -27.1569  -12.6482   22.8433 C   0  0  0  0  0  0
  -25.3688  -12.1597   22.7696 C   0  0  1  0  0  0
  -27.5101  -21.8567   20.9232 C   0  0  2  0  0  0
  -27.2996  -18.7203   21.5247 C   0  0  1  0  0  0
  -26.8509  -15.1011   22.2971 C   0  0  1  0  0  0
  -24.1466  -10.5867   25.4020 C   0  0  0  0  0  0
  -24.2436   -7.5631   25.8505 C   0  0  0  0  0  0
  -24.1804   -8.1279   19.2166 C   0  0  0  0  0  0
  -24.6979   -5.4224   23.6844 C   0  0  0  0  0  0
  -27.5540  -17.2387   23.7804 C   0  0  0  0  0  0
  -27.2470  -23.7746   21.0418 C   0  0  0  0  0  0
  -26.8921  -17.0398   22.4167 C   0  0  1  0  0  0
  -24.1654   -6.8849   21.5575 N   0  0  0  0  0  0
  -28.0256  -14.0137   22.2245 N   0  0  0  0  0  0
  -31.3286  -13.3605   19.4613 H   0  0  0  0  0  0
  -30.9471  -11.6850   19.5446 H   0  0  0  0  0  0
  -30.1150  -12.1704   17.3379 H   0  0  0  0  0  0
  -29.8835  -13.8300   17.7403 H   0  0  0  0  0  0
  -27.8187  -11.6481   17.9507 H   0  0  0  0  0  0
  -27.6822  -13.2437   17.3080 H   0  0  0  0  0  0
  -27.9057  -14.2877   19.4782 H   0  0  0  0  0  0
  -28.7353  -11.3306   19.8539 H   0  0  0  0  0  0
  -27.9631  -11.6288   21.0507 H   0  0  0  0  0  0
  -26.7881  -10.0016   21.1735 H   0  0  0  0  0  0
  -26.0391   -8.2022   23.0163 H   0  0  0  0  0  0
  -20.9890   -9.5037   21.1922 H   0  0  0  0  0  0
  -22.3172  -11.1269   19.7353 H   0  0  0  0  0  0
  -21.0720   -7.6049   24.4214 H   0  0  0  0  0  0
  -21.0447   -5.8408   26.1133 H   0  0  0  0  0  0
  -21.9567   -2.8878   23.1237 H   0  0  0  0  0  0
  -22.6937  -11.9758   22.2727 H   0  0  0  0  0  0
  -21.3234  -13.0695   22.3058 H   0  0  0  0  0  0
  -24.4016  -15.9750   20.0335 H   0  0  0  0  0  0
  -26.0287  -15.9064   19.6153 H   0  0  0  0  0  0
  -26.7463  -32.4935   23.0809 H   0  0  0  0  0  0
  -25.0145  -33.9394   25.0138 H   0  0  0  0  0  0
  -22.8100  -31.2720   21.3484 H   0  0  0  0  0  0
  -23.3790  -35.9429   23.3179 H   0  0  0  0  0  0
  -24.3578  -36.8943   22.2086 H   0  0  0  0  0  0
  -23.7172  -37.6265   23.6802 H   0  0  0  0  0  0
  -26.2823  -31.2595   20.6437 H   0  0  0  0  0  0
  -26.9166  -30.5917   22.1013 H   0  0  0  0  0  0
  -28.0200  -28.2920   21.4806 H   0  0  0  0  0  0
  -25.6760  -25.6389   19.0406 H   0  0  0  0  0  0
  -23.9566  -27.3254   18.8694 H   0  0  0  0  0  0
  -23.9388  -30.5432   19.3938 H   0  0  0  0  0  0
  -22.8325  -29.2639   19.7842 H   0  0  0  0  0  0
  -25.1319  -36.1651   25.0758 H   0  0  0  0  0  0
  -21.0057  -28.3407   24.1249 H   0  0  0  0  0  0
  -20.5672  -26.2396   23.3643 H   0  0  0  0  0  0
  -21.6654  -26.7398   22.1195 H   0  0  0  0  0  0
  -19.6933  -25.6257   21.1279 H   0  0  0  0  0  0
  -19.6712  -27.3130   20.6700 H   0  0  0  0  0  0
  -17.4220  -26.6662   21.4024 H   0  0  0  0  0  0
  -18.0360  -26.0104   22.9030 H   0  0  0  0  0  0
  -19.7975  -30.7320   24.2167 H   0  0  0  0  0  0
  -17.5052  -31.6284   24.5159 H   0  0  0  0  0  0
  -15.5381  -30.2972   23.7722 H   0  0  0  0  0  0
  -15.8694  -28.0803   22.7130 H   0  0  0  0  0  0
  -24.5819  -30.7258   25.7663 H   0  0  0  0  0  0
  -24.8964  -32.3073   26.4705 H   0  0  0  0  0  0
  -25.7876  -30.9016   27.0217 H   0  0  0  0  0  0
  -26.3290  -29.6444   24.1665 H   0  0  0  0  0  0
  -27.4054  -29.7350   25.5384 H   0  0  0  0  0  0
  -27.9253  -30.4029   24.0142 H   0  0  0  0  0  0
  -27.2501  -33.3714   26.2039 H   0  0  0  0  0  0
  -28.3918  -32.6961   25.0497 H   0  0  0  0  0  0
  -28.0619  -31.8635   26.5625 H   0  0  0  0  0  0
  -28.2433  -38.0150   24.7666 H   0  0  0  0  0  0
  -28.1216  -36.2687   24.6028 H   0  0  0  0  0  0
  -27.2324  -37.1047   25.8838 H   0  0  0  0  0  0
  -20.9595  -29.8763   21.6589 H   0  0  0  0  0  0
  -26.0043  -38.2692   24.1591 H   0  0  0  0  0  0
  -25.6517  -21.3446   19.8808 H   0  0  0  0  0  0
  -27.0420  -21.0563   18.9149 H   0  0  0  0  0  0
  -26.8243  -18.7505   19.3720 H   0  0  0  0  0  0
  -25.4599  -19.0860   20.3681 H   0  0  0  0  0  0
  -25.4067  -14.1438   23.9186 H   0  0  0  0  0  0
  -24.5176  -14.4744   22.6227 H   0  0  0  0  0  0
  -26.5470  -20.6350   22.6575 H   0  0  0  0  0  0
  -28.2647  -20.5247   22.7068 H   0  0  0  0  0  0
  -27.8395  -11.8086   22.9170 H   0  0  0  0  0  0
  -27.2726  -12.9063   23.9075 H   0  0  0  0  0  0
  -25.4146  -11.9356   23.8225 H   0  0  0  0  0  0
  -28.5332  -21.7999   20.5495 H   0  0  0  0  0  0
  -28.3048  -18.5094   21.1560 H   0  0  0  0  0  0
  -26.9743  -15.1137   21.2507 H   0  0  0  0  0  0
  -23.8255  -11.5987   25.1945 H   0  0  0  0  0  0
  -25.2025  -10.5859   25.6903 H   0  0  0  0  0  0
  -23.5309  -10.2909   26.2479 H   0  0  0  0  0  0
  -25.2821   -7.6969   26.1507 H   0  0  0  0  0  0
  -23.9904   -6.5200   26.0297 H   0  0  0  0  0  0
  -23.6332   -8.1407   26.5419 H   0  0  0  0  0  0
  -24.2634   -9.0133   18.5832 H   0  0  0  0  0  0
  -23.3092   -7.5675   18.8786 H   0  0  0  0  0  0
  -25.0584   -7.5039   19.0404 H   0  0  0  0  0  0
  -24.1132   -5.0207   24.5069 H   0  0  0  0  0  0
  -25.7203   -5.5517   24.0430 H   0  0  0  0  0  0
  -24.7098   -4.6843   22.8779 H   0  0  0  0  0  0
  -27.3745  -18.2416   24.1686 H   0  0  0  0  0  0
  -28.6306  -17.1043   23.6795 H   0  0  0  0  0  0
  -27.1877  -16.5172   24.5142 H   0  0  0  0  0  0
  -27.5708  -23.8955   22.0742 H   0  0  0  0  0  0
  -26.1628  -23.8885   21.1020 H   0  0  0  0  0  0
  -25.8227  -17.1927   22.5824 H   0  0  0  0  0  0
  1 25  1  0  0  0
  1 30  2  0  0  0
  1 93  1  0  0  0
  2  3  1  0  0  0
  2 25  1  0  0  0
  2 94  1  0  0  0
  2 95  1  0  0  0
  3  4  1  0  0  0
  3 96  1  0  0  0
  3 97  1  0  0  0
  4  5  1  0  0  0
  4 98  1  0  0  0
  4 99  1  0  0  0
  5  6  1  0  0  0
  5 26  1  0  0  0
  5100  1  0  0  0
  6 25  1  0  0  0
  6101  1  0  0  0
  6102  1  0  0  0
  7  8  2  0  0  0
  7 26  1  0  0  0
  7 29  1  0  0  0
  8  9  1  0  0  0
  8 22  1  0  0  0
  9 10  1  0  0  0
  9 27  2  0  0  0
 10 11  2  0  0  0
 10 15  1  0  0  0
 11 12  1  0  0  0
 11103  1  0  0  0
 12 13  2  0  0  0
 12104  1  0  0  0
 13 14  1  0  0  0
 13 31  1  0  0  0
 14 15  2  0  0  0
 14105  1  0  0  0
 15106  1  0  0  0
 16 17  2  0  0  0
 16 21  1  0  0  0
 16 31  1  0  0  0
 17 18  1  0  0  0
 17107  1  0  0  0
 18 19  2  0  0  0
 18108  1  0  0  0
 19 20  1  0  0  0
 19 24  1  0  0  0
 20 21  2  0  0  0
 20109  1  0  0  0
 21 23  1  0  0  0
 22 28  1  0  0  0
 22 32  2  0  0  0
 26 27  1  0  0  0
 28110  1  0  0  0
 28111  1  0  0  0
 29112  1  0  0  0
 29113  1  0  0  0
 33 34  1  0  0  0
 33 66  1  0  0  0
 33 70  2  0  0  0
 34 36  1  0  0  0
 34 59  1  0  0  0
 34114  1  0  0  0
 35 44  2  0  0  0
 35 45  1  0  0  0
 35 68  1  0  0  0
 36 56  1  0  0  0
 36115  1  0  0  0
 37 39  1  0  0  0
 37 47  1  0  0  0
 37 66  1  0  0  0
 37116  1  0  0  0
 38 43  2  0  0  0
 38 46  1  0  0  0
 38 47  1  0  0  0
 39 64  1  0  0  0
 39 67  2  0  0  0
 40 52  1  0  0  0
 40 53  2  0  0  0
 40 58  1  0  0  0
 41117  1  0  0  0
 41118  1  0  0  0
 41119  1  0  0  0
 41 48  1  0  0  0
 42 43  1  0  0  0
 42 66  1  0  0  0
 42120  1  0  0  0
 42121  1  0  0  0
 43 44  1  0  0  0
 44122  1  0  0  0
 45 46  2  0  0  0
 45123  1  0  0  0
 46124  1  0  0  0
 47125  1  0  0  0
 47126  1  0  0  0
 48 56  1  0  0  0
 48 65  1  0  0  0
 48127  1  0  0  0
 49 50  1  0  0  0
 49 53  1  0  0  0
 49 64  1  0  0  0
 49128  1  0  0  0
 50 51  1  0  0  0
 50129  1  0  0  0
 50130  1  0  0  0
 51 52  1  0  0  0
 51131  1  0  0  0
 51132  1  0  0  0
 52133  1  0  0  0
 52134  1  0  0  0
 53 54  1  0  0  0
 54 55  2  0  0  0
 54135  1  0  0  0
 55 57  1  0  0  0
 55136  1  0  0  0
 56 69  2  0  0  0
 57 58  2  0  0  0
 57137  1  0  0  0
 58138  1  0  0  0
 59 60  1  0  0  0
 59 61  1  0  0  0
 59 62  1  0  0  0
 60139  1  0  0  0
 60140  1  0  0  0
 60141  1  0  0  0
 61142  1  0  0  0
 61143  1  0  0  0
 61144  1  0  0  0
 62145  1  0  0  0
 62146  1  0  0  0
 62147  1  0  0  0
 63 65  1  0  0  0
 63148  1  0  0  0
 63149  1  0  0  0
 63150  1  0  0  0
 64151  1  0  0  0
 65152  1  0  0  0
 68 90  1  0  0  0
 71 72  2  0  0  0
 71 74  1  0  0  0
 71 81  1  0  0  0
 72 73  1  0  0  0
 72 85  1  0  0  0
 73 75  2  0  0  0
 73 86  1  0  0  0
 74 87  1  0  0  0
 74 92  2  0  0  0
 75 88  1  0  0  0
 75 92  1  0  0  0
 76 77  1  0  0  0
 76 82  1  0  0  0
 76153  1  0  0  0
 76154  1  0  0  0
 77155  1  0  0  0
 77156  1  0  0  0
 77 83  1  0  0  0
 78 81  1  0  0  0
 78157  1  0  0  0
 78158  1  0  0  0
 78 84  1  0  0  0
 79 82  1  0  0  0
 79 83  1  0  0  0
 79159  1  0  0  0
 79160  1  0  0  0
 80 81  1  0  0  0
 80 93  1  0  0  0
 80161  1  0  0  0
 80162  1  0  0  0
 81163  1  0  0  0
 82 90  1  0  0  0
 82164  1  0  0  0
 83 91  1  0  0  0
 83165  1  0  0  0
 84 91  1  0  0  0
 84 93  1  0  0  0
 84166  1  0  0  0
 85167  1  0  0  0
 85168  1  0  0  0
 85169  1  0  0  0
 86170  1  0  0  0
 86171  1  0  0  0
 86172  1  0  0  0
 87173  1  0  0  0
 87174  1  0  0  0
 87175  1  0  0  0
 88176  1  0  0  0
 88177  1  0  0  0
 88178  1  0  0  0
 89179  1  0  0  0
 89180  1  0  0  0
 89181  1  0  0  0
 89 91  1  0  0  0
 90182  1  0  0  0
 90183  1  0  0  0
 91184  1  0  0  0
M  ISO  4   1 100  68 101  90 101  93 100
M  END
> <chiral flag>
0

> <version>
0

> <s_m_source_file>
/data/baiqing/PycharmProjects/Reinvent-master-3.2/result/LINK_invent/BTK/process_docking_weight1_custom_sum_contain_oxygen_bond_distance_aromatic_linkinvent_7_9_3/rearranged_h_0163.sdf

> <i_m_source_file_index>
59

> <r_mmod_Potential_Energy-OPLS-2005>
19112.4140625

> <r_mmod_Stretch_Energy-OPLS-2005>
10534.1328125

> <r_mmod_Bend_Energy-OPLS-2005>
1777.42272949219

> <r_mmod_Torsional_Energy-OPLS-2005>
675.556335449219

> <r_mmod_Improper_Torsional_Energy-OPLS-2005>
76.2742462158203

> <r_mmod_Van_der_Waal_Energy-OPLS-2005>
4117.07568359375

> <r_mmod_Electrostatic_Energy-OPLS-2005>
-475.701293945312

> <r_mmod_Solvation_Energy-OPLS-2005>
-189.101425170898

> <b_mmod_Minimization_Converged-OPLS-2005>
0

> <r_mmod_RMS_Derivative-OPLS-2005>
17.8133182525635

$$$$
59
                    3D
 Structure written by MMmdl.
175184  0  0  1  0            999 V2000
  -30.7442  -14.4295   20.5366 C   0  0  0  0  0  0
  -30.4098  -12.2713   19.4252 C   0  0  0  0  0  0
  -29.4981  -12.5147   18.2083 C   0  0  0  0  0  0
  -28.0175  -12.3843   18.6118 C   0  0  0  0  0  0
  -27.6645  -13.2118   19.8773 C   0  0  2  0  0  0
  -28.7082  -13.0023   21.0031 C   0  0  0  0  0  0
  -25.2594  -13.8191   20.5676 C   0  0  0  0  0  0
  -24.1851  -13.0460   20.9163 C   0  0  0  0  0  0
  -24.6392  -11.6924   20.8676 C   0  0  0  0  0  0
  -23.9039  -10.4306   21.0324 C   0  0  0  0  0  0
  -24.3605   -9.4232   21.9096 C   0  0  0  0  0  0
  -23.6287   -8.2262   22.0715 C   0  0  0  0  0  0
  -22.4277   -8.0268   21.3520 C   0  0  0  0  0  0
  -21.9886   -9.0226   20.4610 C   0  0  0  0  0  0
  -22.7212  -10.2107   20.2996 C   0  0  0  0  0  0
  -21.6872   -6.0705   22.5260 C   0  0  0  0  0  0
  -21.4027   -6.5601   23.8203 C   0  0  0  0  0  0
  -21.3670   -5.6751   24.9154 C   0  0  0  0  0  0
  -21.6061   -4.3020   24.7207 C   0  0  0  0  0  0
  -21.8826   -3.8119   23.4328 C   0  0  0  0  0  0
  -21.9201   -4.6921   22.3396 C   0  0  0  0  0  0
  -22.7880  -13.5236   21.1801 C   0  0  0  0  0  0
  -22.1672   -4.2114   21.0964 F   0  0  0  0  0  0
  -21.5626   -3.4506   25.7723 F   0  0  0  0  0  0
  -30.0480  -13.2662   20.4468 N   0  0  0  0  0  0
  -26.3033  -12.9359   20.3347 N   0  0  0  0  0  0
  -25.9318  -11.6511   20.5733 N   0  0  0  0  0  0
  -22.0534  -12.8250   22.0379 N   0  0  0  0  0  0
  -25.4302  -15.1910   20.4077 N   0  0  0  0  0  0
  -31.8571  -14.5811   20.0286 O   0  0  0  0  0  0
  -21.6658   -6.8852   21.4240 O   0  0  0  0  0  0
  -22.3567  -14.5530   20.6604 O   0  0  0  0  0  0
  -24.6140  -31.8699   23.2113 C   0  0  0  0  0  0
  -25.9078  -32.4773   23.8392 C   0  0  1  0  0  0
  -27.2092  -27.4236   20.0993 C   0  0  0  0  0  0
  -25.5968  -33.8579   24.2321 N   0  0  0  0  0  0
  -23.3963  -30.5083   21.5437 C   0  0  2  0  0  0
  -24.8359  -28.9779   20.1035 C   0  0  0  0  0  0
  -22.7355  -29.4759   22.4877 C   0  0  0  0  0  0
  -18.0311  -28.1411   22.8520 C   0  0  0  0  0  0
  -24.1487  -36.7242   23.2634 C   0  0  0  0  0  0
  -25.9281  -30.8332   21.3696 C   0  0  0  0  0  0
  -25.9979  -29.4728   20.7079 C   0  0  0  0  0  0
  -27.1831  -28.7024   20.7079 C   0  0  0  0  0  0
  -26.0215  -26.9471   19.4924 C   0  0  0  0  0  0
  -24.8452  -27.7127   19.4968 C   0  0  0  0  0  0
  -23.6025  -29.8499   20.1528 C   0  0  0  0  0  0
  -25.4111  -36.3050   24.0329 C   0  0  1  0  0  0
  -20.5894  -28.3704   23.1280 C   0  0  2  0  0  0
  -20.6804  -26.9437   22.5387 C   0  0  0  0  0  0
  -19.5757  -26.6408   21.5205 C   0  0  0  0  0  0
  -18.1949  -26.7978   22.1635 C   0  0  0  0  0  0
  -19.1563  -28.8873   23.2918 C   0  0  0  0  0  0
  -18.9491  -30.1492   23.8906 C   0  0  0  0  0  0
  -17.6489  -30.6619   24.0589 C   0  0  0  0  0  0
  -25.9040  -34.9436   23.5112 C   0  0  0  0  0  0
  -16.5379  -29.9114   23.6357 C   0  0  0  0  0  0
  -16.7298  -28.6532   23.0374 C   0  0  0  0  0  0
  -26.4535  -31.6565   25.0722 C   0  0  0  0  0  0
  -25.3812  -31.3678   26.1452 C   0  0  0  0  0  0
  -27.0415  -30.3000   24.6189 C   0  0  0  0  0  0
  -27.6083  -32.4310   25.7493 C   0  0  0  0  0  0
  -27.5575  -37.1770   24.8476 C   0  0  0  0  0  0
  -21.4089  -29.3071   22.3618 N   0  0  0  0  0  0
  -26.4287  -37.3755   23.9414 N   0  0  0  0  0  0
  -24.6624  -31.0883   22.0944 N   0  0  0  0  0  0
  -23.4137  -28.8313   23.2926 O   0  0  0  0  0  0
  -28.3850  -26.6942   20.1277 O   0  0  0  0  0  0
  -26.5556  -34.8936   22.4636 O   0  0  0  0  0  0
  -23.5358  -32.1424   23.7534 O   0  0  0  0  0  0
  -28.4758  -21.7190   20.5972 C   0  0  0  0  0  0
  -28.0277  -21.1041   17.9304 C   0  0  0  0  0  0
  -28.7258  -20.3964   20.1501 C   0  0  0  0  0  0
  -28.0282  -22.7691   19.7426 C   0  0  0  0  0  0
  -28.5460  -20.1062   18.7784 C   0  0  0  0  0  0
  -27.7478  -22.4088   18.3919 C   0  0  0  0  0  0
  -28.4513  -19.2400   22.5030 C   0  0  0  0  0  0
  -29.2238  -19.3744   21.1891 C   0  0  1  0  0  0
  -29.1814  -17.8139   21.2042 C   0  0  1  0  0  0
  -28.9293  -18.7734   18.1679 C   0  0  0  0  0  0
  -27.1167  -23.3573   17.3860 C   0  0  0  0  0  0
  -28.1436  -24.3521   21.8072 C   0  0  0  0  0  0
  -31.7514  -17.3534   21.2710 C   0  0  0  0  0  0
  -28.3898  -16.9261   23.4345 C   0  0  0  0  0  0
  -28.4584  -25.3885   19.5140 C   0  0  0  0  0  0
  -27.7821  -24.2086   20.3089 C   0  0  1  0  0  0
  -30.3589  -16.8977   20.7640 C   0  0  1  0  0  0
  -30.0715  -15.4738   21.0423 N   0  0  0  0  0  0
  -29.1228  -17.9573   22.6700 N   0  3  2  0  0  0
  -31.4551  -12.3371   19.1231 H   0  0  0  0  0  0
  -30.2811  -11.2600   19.8145 H   0  0  0  0  0  0
  -29.7385  -11.8129   17.4078 H   0  0  0  0  0  0
  -29.6850  -13.5122   17.8075 H   0  0  0  0  0  0
  -27.8182  -11.3297   18.7890 H   0  0  0  0  0  0
  -27.3785  -12.6790   17.7794 H   0  0  0  0  0  0
  -27.7085  -14.2608   19.5841 H   0  0  0  0  0  0
  -28.6704  -11.9819   21.3894 H   0  0  0  0  0  0
  -28.4846  -13.6429   21.8568 H   0  0  0  0  0  0
  -25.2757   -9.5727   22.4626 H   0  0  0  0  0  0
  -24.0006   -7.4685   22.7451 H   0  0  0  0  0  0
  -21.0801   -8.8701   19.8935 H   0  0  0  0  0  0
  -22.3629  -10.9589   19.6079 H   0  0  0  0  0  0
  -21.2040   -7.6110   23.9699 H   0  0  0  0  0  0
  -21.1486   -6.0471   25.9052 H   0  0  0  0  0  0
  -22.0609   -2.7575   23.2836 H   0  0  0  0  0  0
  -22.4189  -11.9937   22.4798 H   0  0  0  0  0  0
  -21.1103  -13.1192   22.2492 H   0  0  0  0  0  0
  -24.6445  -15.8281   20.4724 H   0  0  0  0  0  0
  -26.2445  -15.6142   19.9833 H   0  0  0  0  0  0
  -26.7128  -32.5475   23.1133 H   0  0  0  0  0  0
  -25.0249  -33.9757   25.0563 H   0  0  0  0  0  0
  -22.6868  -31.3269   21.4069 H   0  0  0  0  0  0
  -23.3776  -35.9558   23.3310 H   0  0  0  0  0  0
  -24.3566  -36.8824   22.2047 H   0  0  0  0  0  0
  -23.7256  -37.6456   23.6641 H   0  0  0  0  0  0
  -26.0782  -31.6214   20.6307 H   0  0  0  0  0  0
  -26.7935  -30.8466   22.0166 H   0  0  0  0  0  0
  -28.0697  -29.0881   21.1925 H   0  0  0  0  0  0
  -25.9674  -25.9855   19.0066 H   0  0  0  0  0  0
  -23.9479  -27.3284   19.0241 H   0  0  0  0  0  0
  -23.7035  -30.6263   19.3898 H   0  0  0  0  0  0
  -22.7242  -29.2715   19.8590 H   0  0  0  0  0  0
  -25.1323  -36.1854   25.0833 H   0  0  0  0  0  0
  -21.0070  -28.3304   24.1361 H   0  0  0  0  0  0
  -20.5730  -26.2322   23.3585 H   0  0  0  0  0  0
  -21.6680  -26.7479   22.1166 H   0  0  0  0  0  0
  -19.6887  -25.6301   21.1257 H   0  0  0  0  0  0
  -19.6716  -27.3217   20.6732 H   0  0  0  0  0  0
  -17.4226  -26.6781   21.4030 H   0  0  0  0  0  0
  -18.0327  -26.0111   22.9016 H   0  0  0  0  0  0
  -19.7961  -30.7355   24.2215 H   0  0  0  0  0  0
  -17.5036  -31.6283   24.5218 H   0  0  0  0  0  0
  -15.5383  -30.3016   23.7671 H   0  0  0  0  0  0
  -15.8701  -28.0848   22.7056 H   0  0  0  0  0  0
  -24.5982  -30.7025   25.7788 H   0  0  0  0  0  0
  -24.9044  -32.2867   26.4893 H   0  0  0  0  0  0
  -25.8188  -30.8843   27.0194 H   0  0  0  0  0  0
  -26.2989  -29.6631   24.1352 H   0  0  0  0  0  0
  -27.4270  -29.7373   25.4707 H   0  0  0  0  0  0
  -27.8811  -30.4287   23.9331 H   0  0  0  0  0  0
  -27.2661  -33.3592   26.2091 H   0  0  0  0  0  0
  -28.3912  -32.6864   25.0332 H   0  0  0  0  0  0
  -28.0746  -31.8414   26.5400 H   0  0  0  0  0  0
  -28.2580  -38.0070   24.7539 H   0  0  0  0  0  0
  -28.1085  -36.2616   24.6299 H   0  0  0  0  0  0
  -27.2288  -37.1394   25.8872 H   0  0  0  0  0  0
  -20.9166  -29.8743   21.6847 H   0  0  0  0  0  0
  -26.0142  -38.2812   24.1463 H   0  0  0  0  0  0
  -28.6323  -21.9092   21.6465 H   0  0  0  0  0  0
  -27.8456  -20.8653   16.8915 H   0  0  0  0  0  0
  -27.3698  -19.1495   22.3676 H   0  0  0  0  0  0
  -28.7025  -19.9827   23.2601 H   0  0  0  0  0  0
  -30.2335  -19.7217   21.4172 H   0  0  0  0  0  0
  -28.2205  -17.4568   20.8244 H   0  0  0  0  0  0
  -28.8085  -18.7786   17.0857 H   0  0  0  0  0  0
  -28.3281  -17.9539   18.5558 H   0  0  0  0  0  0
  -29.9855  -18.5838   18.3523 H   0  0  0  0  0  0
  -27.8406  -24.0716   17.0006 H   0  0  0  0  0  0
  -26.2592  -23.8777   17.8111 H   0  0  0  0  0  0
  -26.7549  -22.8106   16.5141 H   0  0  0  0  0  0
  -27.5946  -23.6504   22.4351 H   0  0  0  0  0  0
  -27.8926  -25.3440   22.1825 H   0  0  0  0  0  0
  -29.2119  -24.2078   21.9789 H   0  0  0  0  0  0
  -31.9335  -18.4086   21.0694 H   0  0  0  0  0  0
  -32.5616  -16.8398   20.7501 H   0  0  0  0  0  0
  -31.8925  -17.1684   22.3364 H   0  0  0  0  0  0
  -28.2419  -17.2596   24.4608 H   0  0  0  0  0  0
  -28.9780  -16.0108   23.4775 H   0  0  0  0  0  0
  -27.4158  -16.6954   23.0012 H   0  0  0  0  0  0
  -28.0805  -25.4955   18.5043 H   0  0  0  0  0  0
  -29.5207  -25.1793   19.3908 H   0  0  0  0  0  0
  -26.7021  -24.3346   20.2573 H   0  0  0  0  0  0
  -30.4160  -16.9446   19.6787 H   0  0  0  0  0  0
  -29.1606  -15.2312   21.4021 H   0  0  0  0  0  0
  -30.0454  -18.1088   23.0504 H   0  0  0  0  0  0
  1 25  1  0  0  0
  1 30  2  0  0  0
  1 88  1  0  0  0
  2  3  1  0  0  0
  2 25  1  0  0  0
  2 90  1  0  0  0
  2 91  1  0  0  0
  3  4  1  0  0  0
  3 92  1  0  0  0
  3 93  1  0  0  0
  4  5  1  0  0  0
  4 94  1  0  0  0
  4 95  1  0  0  0
  5  6  1  0  0  0
  5 26  1  0  0  0
  5 96  1  0  0  0
  6 25  1  0  0  0
  6 97  1  0  0  0
  6 98  1  0  0  0
  7  8  2  0  0  0
  7 26  1  0  0  0
  7 29  1  0  0  0
  8  9  1  0  0  0
  8 22  1  0  0  0
  9 10  1  0  0  0
  9 27  2  0  0  0
 10 11  2  0  0  0
 10 15  1  0  0  0
 11 12  1  0  0  0
 11 99  1  0  0  0
 12 13  2  0  0  0
 12100  1  0  0  0
 13 14  1  0  0  0
 13 31  1  0  0  0
 14 15  2  0  0  0
 14101  1  0  0  0
 15102  1  0  0  0
 16 17  2  0  0  0
 16 21  1  0  0  0
 16 31  1  0  0  0
 17 18  1  0  0  0
 17103  1  0  0  0
 18 19  2  0  0  0
 18104  1  0  0  0
 19 20  1  0  0  0
 19 24  1  0  0  0
 20 21  2  0  0  0
 20105  1  0  0  0
 21 23  1  0  0  0
 22 28  1  0  0  0
 22 32  2  0  0  0
 26 27  1  0  0  0
 28106  1  0  0  0
 28107  1  0  0  0
 29108  1  0  0  0
 29109  1  0  0  0
 33 34  1  0  0  0
 33 66  1  0  0  0
 33 70  2  0  0  0
 34 36  1  0  0  0
 34 59  1  0  0  0
 34110  1  0  0  0
 35 44  2  0  0  0
 35 45  1  0  0  0
 35 68  1  0  0  0
 36 56  1  0  0  0
 36111  1  0  0  0
 37 39  1  0  0  0
 37 47  1  0  0  0
 37 66  1  0  0  0
 37112  1  0  0  0
 38 43  2  0  0  0
 38 46  1  0  0  0
 38 47  1  0  0  0
 39 64  1  0  0  0
 39 67  2  0  0  0
 40 52  1  0  0  0
 40 53  2  0  0  0
 40 58  1  0  0  0
 41113  1  0  0  0
 41114  1  0  0  0
 41115  1  0  0  0
 41 48  1  0  0  0
 42 43  1  0  0  0
 42 66  1  0  0  0
 42116  1  0  0  0
 42117  1  0  0  0
 43 44  1  0  0  0
 44118  1  0  0  0
 45 46  2  0  0  0
 45119  1  0  0  0
 46120  1  0  0  0
 47121  1  0  0  0
 47122  1  0  0  0
 48 56  1  0  0  0
 48 65  1  0  0  0
 48123  1  0  0  0
 49 50  1  0  0  0
 49 53  1  0  0  0
 49 64  1  0  0  0
 49124  1  0  0  0
 50 51  1  0  0  0
 50125  1  0  0  0
 50126  1  0  0  0
 51 52  1  0  0  0
 51127  1  0  0  0
 51128  1  0  0  0
 52129  1  0  0  0
 52130  1  0  0  0
 53 54  1  0  0  0
 54 55  2  0  0  0
 54131  1  0  0  0
 55 57  1  0  0  0
 55132  1  0  0  0
 56 69  2  0  0  0
 57 58  2  0  0  0
 57133  1  0  0  0
 58134  1  0  0  0
 59 60  1  0  0  0
 59 61  1  0  0  0
 59 62  1  0  0  0
 60135  1  0  0  0
 60136  1  0  0  0
 60137  1  0  0  0
 61138  1  0  0  0
 61139  1  0  0  0
 61140  1  0  0  0
 62141  1  0  0  0
 62142  1  0  0  0
 62143  1  0  0  0
 63 65  1  0  0  0
 63144  1  0  0  0
 63145  1  0  0  0
 63146  1  0  0  0
 64147  1  0  0  0
 65148  1  0  0  0
 68 85  1  0  0  0
 71 73  2  0  0  0
 71 74  1  0  0  0
 71149  1  0  0  0
 72 75  2  0  0  0
 72 76  1  0  0  0
 72150  1  0  0  0
 73 75  1  0  0  0
 73 78  1  0  0  0
 74 76  2  0  0  0
 74 86  1  0  0  0
 75 80  1  0  0  0
 76 81  1  0  0  0
 77 78  1  0  0  0
 77 89  1  0  0  0
 77151  1  0  0  0
 77152  1  0  0  0
 78 79  1  0  0  0
 78153  1  0  0  0
 79 87  1  0  0  0
 79 89  1  0  0  0
 79154  1  0  0  0
 80155  1  0  0  0
 80156  1  0  0  0
 80157  1  0  0  0
 81158  1  0  0  0
 81159  1  0  0  0
 81160  1  0  0  0
 82161  1  0  0  0
 82162  1  0  0  0
 82163  1  0  0  0
 82 86  1  0  0  0
 83164  1  0  0  0
 83165  1  0  0  0
 83166  1  0  0  0
 83 87  1  0  0  0
 84167  1  0  0  0
 84168  1  0  0  0
 84169  1  0  0  0
 84 89  1  0  0  0
 85 86  1  0  0  0
 85170  1  0  0  0
 85171  1  0  0  0
 86172  1  0  0  0
 87 88  1  0  0  0
 87173  1  0  0  0
 88174  1  0  0  0
 89175  1  0  0  0
M  CHG  1  89   1
M  ISO  4   1 100  68 101  85 101  88 100
M  END
> <chiral flag>
0

> <version>
0

> <s_m_source_file>
/data/baiqing/PycharmProjects/Reinvent-master-3.2/result/LINK_invent/BTK/process_docking_weight1_custom_sum_contain_oxygen_bond_distance_aromatic_linkinvent_7_9_3/rearranged_h_0163.sdf

> <i_m_source_file_index>
60

> <r_mmod_Potential_Energy-OPLS-2005>
-113.910064697266

> <r_mmod_Stretch_Energy-OPLS-2005>
49.480411529541

> <r_mmod_Bend_Energy-OPLS-2005>
147.903457641602

> <r_mmod_Torsional_Energy-OPLS-2005>
263.797088623047

> <r_mmod_Improper_Torsional_Energy-OPLS-2005>
6.06952905654907

> <r_mmod_Van_der_Waal_Energy-OPLS-2005>
163.8642578125

> <r_mmod_Electrostatic_Energy-OPLS-2005>
-299.016357421875

> <r_mmod_Solvation_Energy-OPLS-2005>
-460.590179443359

> <b_mmod_Minimization_Converged-OPLS-2005>
0

> <r_mmod_RMS_Derivative-OPLS-2005>
5.3110990524292

$$$$
60
                    3D
 Structure written by MMmdl.
176187  0  0  1  0            999 V2000
  -30.6536  -14.7414   20.4604 C   0  0  0  0  0  0
  -30.4208  -12.4553   19.4609 C   0  0  0  0  0  0
  -29.5074  -12.4979   18.2192 C   0  0  0  0  0  0
  -28.0351  -12.3320   18.6382 C   0  0  0  0  0  0
  -27.6408  -13.2364   19.8386 C   0  0  2  0  0  0
  -28.6879  -13.1918   20.9727 C   0  0  0  0  0  0
  -25.2534  -13.8185   20.5678 C   0  0  0  0  0  0
  -24.1831  -13.0431   20.9171 C   0  0  0  0  0  0
  -24.6418  -11.6900   20.8727 C   0  0  0  0  0  0
  -23.9100  -10.4282   21.0408 C   0  0  0  0  0  0
  -24.3646   -9.4193   21.9183 C   0  0  0  0  0  0
  -23.6297   -8.2247   22.0769 C   0  0  0  0  0  0
  -22.4287   -8.0287   21.3551 C   0  0  0  0  0  0
  -21.9927   -9.0261   20.4651 C   0  0  0  0  0  0
  -22.7277  -10.2123   20.3050 C   0  0  0  0  0  0
  -21.6854   -6.0733   22.5272 C   0  0  0  0  0  0
  -21.4021   -6.5633   23.8205 C   0  0  0  0  0  0
  -21.3649   -5.6786   24.9166 C   0  0  0  0  0  0
  -21.6051   -4.3051   24.7224 C   0  0  0  0  0  0
  -21.8821   -3.8141   23.4343 C   0  0  0  0  0  0
  -21.9198   -4.6960   22.3397 C   0  0  0  0  0  0
  -22.7858  -13.5218   21.1825 C   0  0  0  0  0  0
  -22.1671   -4.2141   21.0977 F   0  0  0  0  0  0
  -21.5620   -3.4536   25.7734 F   0  0  0  0  0  0
  -29.9819  -13.5390   20.3724 N   0  0  0  0  0  0
  -26.2953  -12.9396   20.3218 N   0  0  0  0  0  0
  -25.9354  -11.6533   20.5719 N   0  0  0  0  0  0
  -22.0497  -12.8218   22.0361 N   0  0  0  0  0  0
  -25.4237  -15.1916   20.4098 N   0  0  0  0  0  0
  -31.8498  -14.7648   20.1500 O   0  0  0  0  0  0
  -21.6645   -6.8888   21.4243 O   0  0  0  0  0  0
  -22.3539  -14.5518   20.6649 O   0  0  0  0  0  0
  -24.6370  -31.8532   23.1950 C   0  0  0  0  0  0
  -25.9151  -32.4739   23.8328 C   0  0  1  0  0  0
  -27.1984  -27.2141   20.1466 C   0  0  0  0  0  0
  -25.5932  -33.8535   24.2262 N   0  0  0  0  0  0
  -23.4350  -30.4752   21.5410 C   0  0  2  0  0  0
  -24.8839  -28.9268   20.0938 C   0  0  0  0  0  0
  -22.7555  -29.4559   22.4883 C   0  0  0  0  0  0
  -18.0297  -28.1380   22.8434 C   0  0  0  0  0  0
  -24.1496  -36.7308   23.2640 C   0  0  0  0  0  0
  -25.9872  -30.7509   21.3839 C   0  0  0  0  0  0
  -26.0536  -29.3701   20.7271 C   0  0  0  0  0  0
  -27.2106  -28.5225   20.7468 C   0  0  0  0  0  0
  -26.0341  -26.8876   19.4147 C   0  0  0  0  0  0
  -24.8834  -27.6975   19.4193 C   0  0  0  0  0  0
  -23.6526  -29.8186   20.1544 C   0  0  0  0  0  0
  -25.4116  -36.3066   24.0335 C   0  0  1  0  0  0
  -20.5909  -28.3677   23.1269 C   0  0  2  0  0  0
  -20.6780  -26.9370   22.5409 C   0  0  0  0  0  0
  -19.5746  -26.6351   21.5218 C   0  0  0  0  0  0
  -18.1927  -26.7910   22.1608 C   0  0  0  0  0  0
  -19.1548  -28.8840   23.2849 C   0  0  0  0  0  0
  -18.9457  -30.1439   23.8854 C   0  0  0  0  0  0
  -17.6442  -30.6559   24.0534 C   0  0  0  0  0  0
  -25.9052  -34.9425   23.5131 C   0  0  0  0  0  0
  -16.5336  -29.9047   23.6322 C   0  0  0  0  0  0
  -16.7275  -28.6482   23.0336 C   0  0  0  0  0  0
  -26.4470  -31.6572   25.0731 C   0  0  0  0  0  0
  -25.3673  -31.3760   26.1452 C   0  0  0  0  0  0
  -27.0315  -30.2996   24.6226 C   0  0  0  0  0  0
  -27.6023  -32.4334   25.7496 C   0  0  0  0  0  0
  -27.5586  -37.1813   24.8460 C   0  0  0  0  0  0
  -21.4235  -29.3034   22.3672 N   0  0  0  0  0  0
  -26.4286  -37.3766   23.9421 N   0  0  0  0  0  0
  -24.7056  -31.0464   22.0953 N   0  0  0  0  0  0
  -23.4234  -28.8074   23.2968 O   0  0  0  0  0  0
  -28.2224  -26.2334   20.2995 O   0  0  0  0  0  0
  -26.5617  -34.8885   22.4707 O   0  0  0  0  0  0
  -23.5499  -32.1365   23.7247 O   0  0  0  0  0  0
  -29.7244  -18.5353   20.9625 C   0  0  0  0  0  0
  -30.0607  -19.6910   21.7888 C   0  0  0  0  0  0
  -31.0851  -19.4205   22.7551 C   0  0  0  0  0  0
  -29.4149  -21.0243   21.8529 C   0  0  0  0  0  0
  -30.3280  -21.2929   24.1319 C   0  0  0  0  0  0
  -29.3710  -21.6117   23.1479 C   0  0  0  0  0  0
  -31.2345  -20.2423   23.9040 C   0  0  0  0  0  0
  -31.9055  -18.2773   22.5702 C   0  0  0  0  0  0
  -30.4108  -17.2524   21.0960 C   0  0  0  0  0  0
  -30.4440  -23.5717   25.4543 C   0  0  0  0  0  0
  -31.6246  -22.7542   25.9066 C   0  0  0  0  0  0
  -29.5961  -22.6764   19.6922 C   0  0  0  0  0  0
  -28.7761  -21.9766   20.7504 C   0  0  2  0  0  0
  -30.3694  -22.0605   25.4278 C   0  0  0  0  0  0
  -28.9589  -23.6032   20.7144 C   0  0  2  0  0  0
  -28.2291  -22.5512   23.5364 C   0  0  0  0  0  0
  -33.2668  -18.0681   23.2253 C   0  0  0  0  0  0
  -26.6635  -24.4944   21.2524 C   0  0  0  0  0  0
  -31.6603  -19.1219   25.9426 C   0  0  0  0  0  0
  -27.8745  -24.7382   20.3200 C   0  0  2  0  0  0
  -31.5549  -17.2467   21.7934 N   0  0  0  0  0  0
  -29.9383  -15.9318   20.6129 N   0  0  0  0  0  0
  -32.1515  -19.9526   24.8892 O   0  0  0  0  0  0
  -31.4657  -12.5495   19.1602 H   0  0  0  0  0  0
  -30.3394  -11.4848   19.9533 H   0  0  0  0  0  0
  -29.7848  -11.7046   17.5234 H   0  0  0  0  0  0
  -29.6454  -13.4378   17.6793 H   0  0  0  0  0  0
  -27.8969  -11.2861   18.9114 H   0  0  0  0  0  0
  -27.3748  -12.5160   17.7896 H   0  0  0  0  0  0
  -27.6281  -14.2574   19.4537 H   0  0  0  0  0  0
  -28.7246  -12.2019   21.4305 H   0  0  0  0  0  0
  -28.4227  -13.8921   21.7680 H   0  0  0  0  0  0
  -25.2802   -9.5643   22.4749 H   0  0  0  0  0  0
  -23.9982   -7.4640   22.7511 H   0  0  0  0  0  0
  -21.0850   -8.8799   19.8964 H   0  0  0  0  0  0
  -22.3767  -10.9661   19.6143 H   0  0  0  0  0  0
  -21.2027   -7.6143   23.9700 H   0  0  0  0  0  0
  -21.1464   -6.0521   25.9063 H   0  0  0  0  0  0
  -22.0614   -2.7603   23.2849 H   0  0  0  0  0  0
  -22.4124  -11.9895   22.4780 H   0  0  0  0  0  0
  -21.1098  -13.1237   22.2534 H   0  0  0  0  0  0
  -24.6574  -15.8461   20.5263 H   0  0  0  0  0  0
  -26.2678  -15.6291   20.0642 H   0  0  0  0  0  0
  -26.7235  -32.5383   23.1074 H   0  0  0  0  0  0
  -25.0079  -33.9669   25.0402 H   0  0  0  0  0  0
  -22.7344  -31.2998   21.4003 H   0  0  0  0  0  0
  -23.3719  -35.9678   23.3286 H   0  0  0  0  0  0
  -24.3575  -36.8963   22.2054 H   0  0  0  0  0  0
  -23.7271  -37.6516   23.6678 H   0  0  0  0  0  0
  -26.1311  -31.5011   20.6062 H   0  0  0  0  0  0
  -26.8699  -30.8083   22.0131 H   0  0  0  0  0  0
  -28.0894  -28.8333   21.2925 H   0  0  0  0  0  0
  -25.9767  -25.9466   18.8880 H   0  0  0  0  0  0
  -24.0025  -27.3595   18.8906 H   0  0  0  0  0  0
  -23.7729  -30.6046   19.4088 H   0  0  0  0  0  0
  -22.7717  -29.2560   19.8431 H   0  0  0  0  0  0
  -25.1292  -36.1942   25.0818 H   0  0  0  0  0  0
  -20.9985  -28.3253   24.1403 H   0  0  0  0  0  0
  -20.5714  -26.2251   23.3611 H   0  0  0  0  0  0
  -21.6641  -26.7406   22.1171 H   0  0  0  0  0  0
  -19.6896  -25.6270   21.1243 H   0  0  0  0  0  0
  -19.6709  -27.3163   20.6746 H   0  0  0  0  0  0
  -17.4205  -26.6652   21.4002 H   0  0  0  0  0  0
  -18.0274  -26.0081   22.9027 H   0  0  0  0  0  0
  -19.7949  -30.7278   24.2176 H   0  0  0  0  0  0
  -17.5006  -31.6227   24.5160 H   0  0  0  0  0  0
  -15.5333  -30.2930   23.7686 H   0  0  0  0  0  0
  -15.8673  -28.0809   22.7042 H   0  0  0  0  0  0
  -24.5837  -30.7105   25.7802 H   0  0  0  0  0  0
  -24.8828  -32.2925   26.4820 H   0  0  0  0  0  0
  -25.7970  -30.8984   27.0269 H   0  0  0  0  0  0
  -26.2940  -29.6723   24.1202 H   0  0  0  0  0  0
  -27.3950  -29.7254   25.4751 H   0  0  0  0  0  0
  -27.8805  -30.4252   23.9514 H   0  0  0  0  0  0
  -27.2652  -33.3680   26.1995 H   0  0  0  0  0  0
  -28.3862  -32.6830   25.0335 H   0  0  0  0  0  0
  -28.0632  -31.8486   26.5473 H   0  0  0  0  0  0
  -28.2580  -38.0130   24.7503 H   0  0  0  0  0  0
  -28.1101  -36.2650   24.6280 H   0  0  0  0  0  0
  -27.2297  -37.1448   25.8860 H   0  0  0  0  0  0
  -20.9399  -29.8826   21.6933 H   0  0  0  0  0  0
  -26.0155  -38.2849   24.1398 H   0  0  0  0  0  0
  -28.8474  -18.6119   20.3357 H   0  0  0  0  0  0
  -30.5612  -24.1081   24.5159 H   0  0  0  0  0  0
  -29.8570  -24.0797   26.2156 H   0  0  0  0  0  0
  -31.8328  -22.7554   26.9738 H   0  0  0  0  0  0
  -32.4954  -22.7525   25.2530 H   0  0  0  0  0  0
  -29.1845  -22.6901   18.6851 H   0  0  0  0  0  0
  -30.6765  -22.5478   19.7268 H   0  0  0  0  0  0
  -27.8296  -21.5517   20.4173 H   0  0  0  0  0  0
  -29.7408  -21.5801   26.1758 H   0  0  0  0  0  0
  -29.6407  -23.9777   21.4778 H   0  0  0  0  0  0
  -27.3458  -22.3794   22.9262 H   0  0  0  0  0  0
  -28.5104  -23.6018   23.4706 H   0  0  0  0  0  0
  -27.8975  -22.3576   24.5585 H   0  0  0  0  0  0
  -33.8059  -19.0104   23.3238 H   0  0  0  0  0  0
  -33.8973  -17.4194   22.6145 H   0  0  0  0  0  0
  -33.1869  -17.6017   24.2061 H   0  0  0  0  0  0
  -26.3983  -23.4388   21.2627 H   0  0  0  0  0  0
  -25.7437  -24.9875   20.9527 H   0  0  0  0  0  0
  -26.8749  -24.8024   22.2757 H   0  0  0  0  0  0
  -32.4332  -18.9928   26.7006 H   0  0  0  0  0  0
  -31.3811  -18.1283   25.5908 H   0  0  0  0  0  0
  -30.7912  -19.5531   26.4352 H   0  0  0  0  0  0
  -27.5560  -24.4785   19.3115 H   0  0  0  0  0  0
  -28.9379  -15.8341   20.5399 H   0  0  0  0  0  0
  1 25  1  0  0  0
  1 30  2  0  0  0
  1 92  1  0  0  0
  2  3  1  0  0  0
  2 25  1  0  0  0
  2 94  1  0  0  0
  2 95  1  0  0  0
  3  4  1  0  0  0
  3 96  1  0  0  0
  3 97  1  0  0  0
  4  5  1  0  0  0
  4 98  1  0  0  0
  4 99  1  0  0  0
  5  6  1  0  0  0
  5 26  1  0  0  0
  5100  1  0  0  0
  6 25  1  0  0  0
  6101  1  0  0  0
  6102  1  0  0  0
  7  8  2  0  0  0
  7 26  1  0  0  0
  7 29  1  0  0  0
  8  9  1  0  0  0
  8 22  1  0  0  0
  9 10  1  0  0  0
  9 27  2  0  0  0
 10 11  2  0  0  0
 10 15  1  0  0  0
 11 12  1  0  0  0
 11103  1  0  0  0
 12 13  2  0  0  0
 12104  1  0  0  0
 13 14  1  0  0  0
 13 31  1  0  0  0
 14 15  2  0  0  0
 14105  1  0  0  0
 15106  1  0  0  0
 16 17  2  0  0  0
 16 21  1  0  0  0
 16 31  1  0  0  0
 17 18  1  0  0  0
 17107  1  0  0  0
 18 19  2  0  0  0
 18108  1  0  0  0
 19 20  1  0  0  0
 19 24  1  0  0  0
 20 21  2  0  0  0
 20109  1  0  0  0
 21 23  1  0  0  0
 22 28  1  0  0  0
 22 32  2  0  0  0
 26 27  1  0  0  0
 28110  1  0  0  0
 28111  1  0  0  0
 29112  1  0  0  0
 29113  1  0  0  0
 33 34  1  0  0  0
 33 66  1  0  0  0
 33 70  2  0  0  0
 34 36  1  0  0  0
 34 59  1  0  0  0
 34114  1  0  0  0
 35 44  2  0  0  0
 35 45  1  0  0  0
 35 68  1  0  0  0
 36 56  1  0  0  0
 36115  1  0  0  0
 37 39  1  0  0  0
 37 47  1  0  0  0
 37 66  1  0  0  0
 37116  1  0  0  0
 38 43  2  0  0  0
 38 46  1  0  0  0
 38 47  1  0  0  0
 39 64  1  0  0  0
 39 67  2  0  0  0
 40 52  1  0  0  0
 40 53  2  0  0  0
 40 58  1  0  0  0
 41117  1  0  0  0
 41118  1  0  0  0
 41119  1  0  0  0
 41 48  1  0  0  0
 42 43  1  0  0  0
 42 66  1  0  0  0
 42120  1  0  0  0
 42121  1  0  0  0
 43 44  1  0  0  0
 44122  1  0  0  0
 45 46  2  0  0  0
 45123  1  0  0  0
 46124  1  0  0  0
 47125  1  0  0  0
 47126  1  0  0  0
 48 56  1  0  0  0
 48 65  1  0  0  0
 48127  1  0  0  0
 49 50  1  0  0  0
 49 53  1  0  0  0
 49 64  1  0  0  0
 49128  1  0  0  0
 50 51  1  0  0  0
 50129  1  0  0  0
 50130  1  0  0  0
 51 52  1  0  0  0
 51131  1  0  0  0
 51132  1  0  0  0
 52133  1  0  0  0
 52134  1  0  0  0
 53 54  1  0  0  0
 54 55  2  0  0  0
 54135  1  0  0  0
 55 57  1  0  0  0
 55136  1  0  0  0
 56 69  2  0  0  0
 57 58  2  0  0  0
 57137  1  0  0  0
 58138  1  0  0  0
 59 60  1  0  0  0
 59 61  1  0  0  0
 59 62  1  0  0  0
 60139  1  0  0  0
 60140  1  0  0  0
 60141  1  0  0  0
 61142  1  0  0  0
 61143  1  0  0  0
 61144  1  0  0  0
 62145  1  0  0  0
 62146  1  0  0  0
 62147  1  0  0  0
 63 65  1  0  0  0
 63148  1  0  0  0
 63149  1  0  0  0
 63150  1  0  0  0
 64151  1  0  0  0
 65152  1  0  0  0
 68 90  1  0  0  0
 71 72  2  0  0  0
 71 79  1  0  0  0
 71153  1  0  0  0
 72 73  1  0  0  0
 72 74  1  0  0  0
 73 77  1  0  0  0
 73 78  2  0  0  0
 74 76  2  0  0  0
 74 83  1  0  0  0
 75 76  1  0  0  0
 75 77  2  0  0  0
 75 84  1  0  0  0
 76 86  1  0  0  0
 77 93  1  0  0  0
 78 87  1  0  0  0
 78 91  1  0  0  0
 79 91  2  0  0  0
 79 92  1  0  0  0
 80 81  1  0  0  0
 80 84  1  0  0  0
 80154  1  0  0  0
 80155  1  0  0  0
 81 84  1  0  0  0
 81156  1  0  0  0
 81157  1  0  0  0
 82 83  1  0  0  0
 82158  1  0  0  0
 82159  1  0  0  0
 82 85  1  0  0  0
 83 85  1  0  0  0
 83160  1  0  0  0
 84161  1  0  0  0
 85 90  1  0  0  0
 85162  1  0  0  0
 86163  1  0  0  0
 86164  1  0  0  0
 86165  1  0  0  0
 87166  1  0  0  0
 87167  1  0  0  0
 87168  1  0  0  0
 88169  1  0  0  0
 88170  1  0  0  0
 88171  1  0  0  0
 88 90  1  0  0  0
 89 93  1  0  0  0
 89172  1  0  0  0
 89173  1  0  0  0
 89174  1  0  0  0
 90175  1  0  0  0
 92176  1  0  0  0
M  ISO  4   1 100  68 101  90 101  92 100
M  END
> <chiral flag>
0

> <version>
0

> <s_m_source_file>
/data/baiqing/PycharmProjects/Reinvent-master-3.2/result/LINK_invent/BTK/process_docking_weight1_custom_sum_contain_oxygen_bond_distance_aromatic_linkinvent_7_9_3/rearranged_h_0163.sdf

> <i_m_source_file_index>
61

> <r_mmod_Potential_Energy-OPLS-2005>
354.490386962891

> <r_mmod_Stretch_Energy-OPLS-2005>
164.268829345703

> <r_mmod_Bend_Energy-OPLS-2005>
197.370635986328

> <r_mmod_Torsional_Energy-OPLS-2005>
428.038299560547

> <r_mmod_Improper_Torsional_Energy-OPLS-2005>
8.62003707885742

> <r_mmod_Van_der_Waal_Energy-OPLS-2005>
183.432327270508

> <r_mmod_Electrostatic_Energy-OPLS-2005>
-507.873901367188

> <r_mmod_Solvation_Energy-OPLS-2005>
-231.958831787109

> <b_mmod_Minimization_Converged-OPLS-2005>
0

> <r_mmod_RMS_Derivative-OPLS-2005>
5.02591800689697

$$$$
61
                    3D
 Structure written by MMmdl.
163172  0  0  1  0            999 V2000
  -30.5275  -14.8949   20.4215 C   0  0  0  0  0  0
  -30.4439  -12.5414   19.4994 C   0  0  0  0  0  0
  -29.5200  -12.5243   18.2549 C   0  0  0  0  0  0
  -28.0457  -12.3262   18.6628 C   0  0  0  0  0  0
  -27.6335  -13.2345   19.8463 C   0  0  2  0  0  0
  -28.6769  -13.1912   20.9782 C   0  0  0  0  0  0
  -25.2499  -13.8158   20.5704 C   0  0  0  0  0  0
  -24.1806  -13.0391   20.9246 C   0  0  0  0  0  0
  -24.6428  -11.6881   20.8802 C   0  0  0  0  0  0
  -23.9105  -10.4258   21.0483 C   0  0  0  0  0  0
  -24.3646   -9.4148   21.9234 C   0  0  0  0  0  0
  -23.6307   -8.2184   22.0767 C   0  0  0  0  0  0
  -22.4274   -8.0265   21.3565 C   0  0  0  0  0  0
  -21.9957   -9.0248   20.4656 C   0  0  0  0  0  0
  -22.7308  -10.2118   20.3096 C   0  0  0  0  0  0
  -21.6831   -6.0736   22.5291 C   0  0  0  0  0  0
  -21.3988   -6.5647   23.8223 C   0  0  0  0  0  0
  -21.3680   -5.6811   24.9198 C   0  0  0  0  0  0
  -21.6061   -4.3072   24.7247 C   0  0  0  0  0  0
  -21.8823   -3.8162   23.4369 C   0  0  0  0  0  0
  -21.9185   -4.6968   22.3424 C   0  0  0  0  0  0
  -22.7835  -13.5173   21.1929 C   0  0  0  0  0  0
  -22.1678   -4.2141   21.1007 F   0  0  0  0  0  0
  -21.5638   -3.4571   25.7775 F   0  0  0  0  0  0
  -29.9622  -13.6196   20.4073 N   0  0  0  0  0  0
  -26.2902  -12.9366   20.3276 N   0  0  0  0  0  0
  -25.9346  -11.6502   20.5781 N   0  0  0  0  0  0
  -22.0528  -12.8082   22.0474 N   0  0  0  0  0  0
  -25.4178  -15.1866   20.4110 N   0  0  0  0  0  0
  -31.7267  -14.9694   20.1323 O   0  0  0  0  0  0
  -21.6623   -6.8868   21.4245 O   0  0  0  0  0  0
  -22.3496  -14.5487   20.6819 O   0  0  0  0  0  0
  -24.6402  -31.8479   23.1908 C   0  0  0  0  0  0
  -25.9153  -32.4749   23.8339 C   0  0  1  0  0  0
  -27.2365  -27.1806   20.1252 C   0  0  0  0  0  0
  -25.5934  -33.8552   24.2251 N   0  0  0  0  0  0
  -23.4475  -30.4620   21.5377 C   0  0  2  0  0  0
  -24.9008  -28.8978   20.1099 C   0  0  0  0  0  0
  -22.7597  -29.4522   22.4916 C   0  0  0  0  0  0
  -18.0300  -28.1422   22.8443 C   0  0  0  0  0  0
  -24.1475  -36.7244   23.2637 C   0  0  0  0  0  0
  -25.9992  -30.7304   21.3859 C   0  0  0  0  0  0
  -26.0750  -29.3438   20.7284 C   0  0  0  0  0  0
  -27.2421  -28.4974   20.7263 C   0  0  0  0  0  0
  -26.0375  -26.8333   19.4602 C   0  0  0  0  0  0
  -24.8923  -27.6544   19.4625 C   0  0  0  0  0  0
  -23.6740  -29.7923   20.1567 C   0  0  0  0  0  0
  -25.4113  -36.3065   24.0328 C   0  0  1  0  0  0
  -20.5912  -28.3713   23.1242 C   0  0  2  0  0  0
  -20.6789  -26.9439   22.5392 C   0  0  0  0  0  0
  -19.5783  -26.6398   21.5192 C   0  0  0  0  0  0
  -18.1958  -26.7950   22.1595 C   0  0  0  0  0  0
  -19.1552  -28.8897   23.2821 C   0  0  0  0  0  0
  -18.9464  -30.1483   23.8870 C   0  0  0  0  0  0
  -17.6463  -30.6615   24.0549 C   0  0  0  0  0  0
  -25.9062  -34.9425   23.5090 C   0  0  0  0  0  0
  -16.5357  -29.9099   23.6329 C   0  0  0  0  0  0
  -16.7283  -28.6514   23.0347 C   0  0  0  0  0  0
  -26.4515  -31.6597   25.0745 C   0  0  0  0  0  0
  -25.3713  -31.3664   26.1428 C   0  0  0  0  0  0
  -27.0407  -30.3066   24.6197 C   0  0  0  0  0  0
  -27.6126  -32.4306   25.7505 C   0  0  0  0  0  0
  -27.5583  -37.1788   24.8477 C   0  0  0  0  0  0
  -21.4296  -29.3042   22.3661 N   0  0  0  0  0  0
  -26.4290  -37.3768   23.9423 N   0  0  0  0  0  0
  -24.7163  -31.0333   22.0946 N   0  0  0  0  0  0
  -23.4233  -28.8086   23.3081 O   0  0  0  0  0  0
  -28.3048  -26.2225   20.1908 O   0  0  0  0  0  0
  -26.5632  -34.8902   22.4667 O   0  0  0  0  0  0
  -23.5519  -32.1342   23.7121 O   0  0  0  0  0  0
  -27.7892  -19.2275   19.0184 C   0  0  0  0  0  0
  -28.9740  -19.2183   19.7879 C   0  0  0  0  0  0
  -29.3376  -20.5942   20.2174 C   0  0  0  0  0  0
  -28.6181  -21.8345   19.7883 C   0  0  0  0  0  0
  -27.5074  -21.5530   18.9422 C   0  0  0  0  0  0
  -29.0393  -16.5951   19.2530 C   0  0  0  0  0  0
  -29.7868  -17.7698   19.8481 C   0  0  2  0  0  0
  -29.6475  -16.2654   20.5798 C   0  0  1  0  0  0
  -30.5467  -20.7248   21.1262 C   0  0  0  0  0  0
  -26.6705  -22.5904   18.2100 C   0  0  0  0  0  0
  -28.9237  -16.3449   21.9112 C   0  0  0  0  0  0
  -30.3966  -23.7217   19.5181 C   0  0  0  0  0  0
  -28.0505  -24.7381   19.8738 C   0  0  0  0  0  0
  -29.0273  -23.4016   20.1470 C   0  0  1  0  0  0
  -27.1015  -20.3115   18.6296 N   0  0  0  0  0  0
  -31.4793  -12.6938   19.1915 H   0  0  0  0  0  0
  -30.4293  -11.5741   20.0076 H   0  0  0  0  0  0
  -29.8218  -11.7367   17.5630 H   0  0  0  0  0  0
  -29.6260  -13.4632   17.7095 H   0  0  0  0  0  0
  -27.9207  -11.2790   18.9424 H   0  0  0  0  0  0
  -27.3862  -12.4965   17.8112 H   0  0  0  0  0  0
  -27.6075  -14.2458   19.4486 H   0  0  0  0  0  0
  -28.7531  -12.1825   21.3883 H   0  0  0  0  0  0
  -28.3690  -13.8120   21.8123 H   0  0  0  0  0  0
  -25.2792   -9.5573   22.4815 H   0  0  0  0  0  0
  -24.0024   -7.4540   22.7444 H   0  0  0  0  0  0
  -21.0914   -8.8784   19.8920 H   0  0  0  0  0  0
  -22.3817  -10.9677   19.6192 H   0  0  0  0  0  0
  -21.1953   -7.6149   23.9702 H   0  0  0  0  0  0
  -21.1518   -6.0571   25.9109 H   0  0  0  0  0  0
  -22.0581   -2.7608   23.2881 H   0  0  0  0  0  0
  -22.4234  -11.9732   22.4771 H   0  0  0  0  0  0
  -21.1145  -13.1022   22.2750 H   0  0  0  0  0  0
  -24.6462  -15.8375   20.5085 H   0  0  0  0  0  0
  -26.2697  -15.6193   20.0818 H   0  0  0  0  0  0
  -26.7233  -32.5380   23.1096 H   0  0  0  0  0  0
  -25.0158  -33.9713   25.0460 H   0  0  0  0  0  0
  -22.7448  -31.2830   21.3836 H   0  0  0  0  0  0
  -23.3782  -35.9533   23.3269 H   0  0  0  0  0  0
  -24.3562  -36.8900   22.2059 H   0  0  0  0  0  0
  -23.7167  -37.6408   23.6680 H   0  0  0  0  0  0
  -26.1339  -31.4796   20.6047 H   0  0  0  0  0  0
  -26.8766  -30.7986   22.0170 H   0  0  0  0  0  0
  -28.1380  -28.8293   21.2327 H   0  0  0  0  0  0
  -25.9463  -25.8920   18.9390 H   0  0  0  0  0  0
  -23.9993  -27.3090   18.9596 H   0  0  0  0  0  0
  -23.8077  -30.5661   19.3994 H   0  0  0  0  0  0
  -22.7914  -29.2299   19.8510 H   0  0  0  0  0  0
  -25.1295  -36.1926   25.0827 H   0  0  0  0  0  0
  -20.9929  -28.3264   24.1380 H   0  0  0  0  0  0
  -20.5674  -26.2347   23.3590 H   0  0  0  0  0  0
  -21.6662  -26.7471   22.1218 H   0  0  0  0  0  0
  -19.6951  -25.6296   21.1258 H   0  0  0  0  0  0
  -19.6723  -27.3163   20.6681 H   0  0  0  0  0  0
  -17.4224  -26.6644   21.4006 H   0  0  0  0  0  0
  -18.0379  -26.0150   22.9049 H   0  0  0  0  0  0
  -19.7946  -30.7293   24.2256 H   0  0  0  0  0  0
  -17.5020  -31.6282   24.5169 H   0  0  0  0  0  0
  -15.5359  -30.2987   23.7684 H   0  0  0  0  0  0
  -15.8675  -28.0813   22.7093 H   0  0  0  0  0  0
  -24.5951  -30.6979   25.7659 H   0  0  0  0  0  0
  -24.8815  -32.2776   26.4877 H   0  0  0  0  0  0
  -25.8010  -30.8800   27.0192 H   0  0  0  0  0  0
  -26.2992  -29.6800   24.1220 H   0  0  0  0  0  0
  -27.4164  -29.7344   25.4686 H   0  0  0  0  0  0
  -27.8831  -30.4454   23.9417 H   0  0  0  0  0  0
  -27.2844  -33.3648   26.2065 H   0  0  0  0  0  0
  -28.3934  -32.6765   25.0293 H   0  0  0  0  0  0
  -28.0788  -31.8403   26.5405 H   0  0  0  0  0  0
  -28.2591  -38.0100   24.7588 H   0  0  0  0  0  0
  -28.1094  -36.2641   24.6248 H   0  0  0  0  0  0
  -27.2299  -37.1365   25.8876 H   0  0  0  0  0  0
  -20.9540  -29.8760   21.6825 H   0  0  0  0  0  0
  -26.0161  -38.2833   24.1474 H   0  0  0  0  0  0
  -27.3637  -18.3403   18.5811 H   0  0  0  0  0  0
  -29.4689  -16.1615   18.3496 H   0  0  0  0  0  0
  -27.9576  -16.5221   19.2874 H   0  0  0  0  0  0
  -30.7740  -17.9636   19.4352 H   0  0  0  0  0  0
  -30.7278  -19.8054   21.6822 H   0  0  0  0  0  0
  -30.4038  -21.5170   21.8622 H   0  0  0  0  0  0
  -31.4419  -20.9410   20.5427 H   0  0  0  0  0  0
  -26.1124  -23.2258   18.8924 H   0  0  0  0  0  0
  -25.9196  -22.1231   17.5700 H   0  0  0  0  0  0
  -27.2908  -23.1865   17.5414 H   0  0  0  0  0  0
  -27.8840  -16.0395   21.8110 H   0  0  0  0  0  0
  -28.9369  -17.3708   22.2777 H   0  0  0  0  0  0
  -29.4170  -15.7265   22.6639 H   0  0  0  0  0  0
  -31.1404  -22.9587   19.7261 H   0  0  0  0  0  0
  -30.7982  -24.6587   19.9033 H   0  0  0  0  0  0
  -30.3251  -23.8141   18.4338 H   0  0  0  0  0  0
  -27.1001  -24.5070   20.3525 H   0  0  0  0  0  0
  -27.8903  -24.7711   18.8006 H   0  0  0  0  0  0
  -29.1628  -23.3881   21.2272 H   0  0  0  0  0  0
  1 25  1  0  0  0
  1 30  2  0  0  0
  1 78  1  0  0  0
  2  3  1  0  0  0
  2 25  1  0  0  0
  2 86  1  0  0  0
  2 87  1  0  0  0
  3  4  1  0  0  0
  3 88  1  0  0  0
  3 89  1  0  0  0
  4  5  1  0  0  0
  4 90  1  0  0  0
  4 91  1  0  0  0
  5  6  1  0  0  0
  5 26  1  0  0  0
  5 92  1  0  0  0
  6 25  1  0  0  0
  6 93  1  0  0  0
  6 94  1  0  0  0
  7  8  2  0  0  0
  7 26  1  0  0  0
  7 29  1  0  0  0
  8  9  1  0  0  0
  8 22  1  0  0  0
  9 10  1  0  0  0
  9 27  2  0  0  0
 10 11  2  0  0  0
 10 15  1  0  0  0
 11 12  1  0  0  0
 11 95  1  0  0  0
 12 13  2  0  0  0
 12 96  1  0  0  0
 13 14  1  0  0  0
 13 31  1  0  0  0
 14 15  2  0  0  0
 14 97  1  0  0  0
 15 98  1  0  0  0
 16 17  2  0  0  0
 16 21  1  0  0  0
 16 31  1  0  0  0
 17 18  1  0  0  0
 17 99  1  0  0  0
 18 19  2  0  0  0
 18100  1  0  0  0
 19 20  1  0  0  0
 19 24  1  0  0  0
 20 21  2  0  0  0
 20101  1  0  0  0
 21 23  1  0  0  0
 22 28  1  0  0  0
 22 32  2  0  0  0
 26 27  1  0  0  0
 28102  1  0  0  0
 28103  1  0  0  0
 29104  1  0  0  0
 29105  1  0  0  0
 33 34  1  0  0  0
 33 66  1  0  0  0
 33 70  2  0  0  0
 34 36  1  0  0  0
 34 59  1  0  0  0
 34106  1  0  0  0
 35 44  2  0  0  0
 35 45  1  0  0  0
 35 68  1  0  0  0
 36 56  1  0  0  0
 36107  1  0  0  0
 37 39  1  0  0  0
 37 47  1  0  0  0
 37 66  1  0  0  0
 37108  1  0  0  0
 38 43  2  0  0  0
 38 46  1  0  0  0
 38 47  1  0  0  0
 39 64  1  0  0  0
 39 67  2  0  0  0
 40 52  1  0  0  0
 40 53  2  0  0  0
 40 58  1  0  0  0
 41109  1  0  0  0
 41110  1  0  0  0
 41111  1  0  0  0
 41 48  1  0  0  0
 42 43  1  0  0  0
 42 66  1  0  0  0
 42112  1  0  0  0
 42113  1  0  0  0
 43 44  1  0  0  0
 44114  1  0  0  0
 45 46  2  0  0  0
 45115  1  0  0  0
 46116  1  0  0  0
 47117  1  0  0  0
 47118  1  0  0  0
 48 56  1  0  0  0
 48 65  1  0  0  0
 48119  1  0  0  0
 49 50  1  0  0  0
 49 53  1  0  0  0
 49 64  1  0  0  0
 49120  1  0  0  0
 50 51  1  0  0  0
 50121  1  0  0  0
 50122  1  0  0  0
 51 52  1  0  0  0
 51123  1  0  0  0
 51124  1  0  0  0
 52125  1  0  0  0
 52126  1  0  0  0
 53 54  1  0  0  0
 54 55  2  0  0  0
 54127  1  0  0  0
 55 57  1  0  0  0
 55128  1  0  0  0
 56 69  2  0  0  0
 57 58  2  0  0  0
 57129  1  0  0  0
 58130  1  0  0  0
 59 60  1  0  0  0
 59 61  1  0  0  0
 59 62  1  0  0  0
 60131  1  0  0  0
 60132  1  0  0  0
 60133  1  0  0  0
 61134  1  0  0  0
 61135  1  0  0  0
 61136  1  0  0  0
 62137  1  0  0  0
 62138  1  0  0  0
 62139  1  0  0  0
 63 65  1  0  0  0
 63140  1  0  0  0
 63141  1  0  0  0
 63142  1  0  0  0
 64143  1  0  0  0
 65144  1  0  0  0
 68 83  1  0  0  0
 71 72  2  0  0  0
 71 85  1  0  0  0
 71145  1  0  0  0
 72 73  1  0  0  0
 72 77  1  0  0  0
 73 74  2  0  0  0
 73 79  1  0  0  0
 74 75  1  0  0  0
 74 84  1  0  0  0
 75 80  1  0  0  0
 75 85  2  0  0  0
 76 77  1  0  0  0
 76 78  1  0  0  0
 76146  1  0  0  0
 76147  1  0  0  0
 77 78  1  0  0  0
 77148  1  0  0  0
 78 81  1  0  0  0
 79149  1  0  0  0
 79150  1  0  0  0
 79151  1  0  0  0
 80152  1  0  0  0
 80153  1  0  0  0
 80154  1  0  0  0
 81155  1  0  0  0
 81156  1  0  0  0
 81157  1  0  0  0
 82158  1  0  0  0
 82159  1  0  0  0
 82160  1  0  0  0
 82 84  1  0  0  0
 83 84  1  0  0  0
 83161  1  0  0  0
 83162  1  0  0  0
 84163  1  0  0  0
M  ISO  4   1 100  68 101  78 100  83 101
M  END
> <chiral flag>
0

> <version>
0

> <s_m_source_file>
/data/baiqing/PycharmProjects/Reinvent-master-3.2/result/LINK_invent/BTK/process_docking_weight1_custom_sum_contain_oxygen_bond_distance_aromatic_linkinvent_7_9_3/rearranged_h_0163.sdf

> <i_m_source_file_index>
62

> <r_mmod_Potential_Energy-OPLS-2005>
437.259613037109

> <r_mmod_Stretch_Energy-OPLS-2005>
265.286071777344

> <r_mmod_Bend_Energy-OPLS-2005>
277.538696289062

> <r_mmod_Torsional_Energy-OPLS-2005>
224.513702392578

> <r_mmod_Improper_Torsional_Energy-OPLS-2005>
5.6928071975708

> <r_mmod_Van_der_Waal_Energy-OPLS-2005>
148.514465332031

> <r_mmod_Electrostatic_Energy-OPLS-2005>
-434.253967285156

> <r_mmod_Solvation_Energy-OPLS-2005>
-202.091873168945

> <b_mmod_Minimization_Converged-OPLS-2005>
0

> <r_mmod_RMS_Derivative-OPLS-2005>
4.44893980026245

$$$$
62
                    3D
 Structure written by MMmdl.
175184  0  0  1  0            999 V2000
  -30.7072  -14.5692   20.4465 C   0  0  0  0  0  0
  -30.4281  -12.3421   19.4252 C   0  0  0  0  0  0
  -29.4899  -12.4419   18.2042 C   0  0  0  0  0  0
  -28.0103  -12.3294   18.6285 C   0  0  0  0  0  0
  -27.6448  -13.2049   19.8595 C   0  0  2  0  0  0
  -28.7134  -13.0791   20.9698 C   0  0  0  0  0  0
  -25.2447  -13.8081   20.5570 C   0  0  0  0  0  0
  -24.1776  -13.0356   20.9237 C   0  0  0  0  0  0
  -24.6371  -11.6851   20.8832 C   0  0  0  0  0  0
  -23.9042  -10.4247   21.0444 C   0  0  0  0  0  0
  -24.3594   -9.4165   21.9207 C   0  0  0  0  0  0
  -23.6277   -8.2200   22.0755 C   0  0  0  0  0  0
  -22.4266   -8.0244   21.3528 C   0  0  0  0  0  0
  -21.9894   -9.0229   20.4644 C   0  0  0  0  0  0
  -22.7223  -10.2108   20.3072 C   0  0  0  0  0  0
  -21.6836   -6.0719   22.5270 C   0  0  0  0  0  0
  -21.4009   -6.5632   23.8201 C   0  0  0  0  0  0
  -21.3656   -5.6788   24.9169 C   0  0  0  0  0  0
  -21.6042   -4.3050   24.7227 C   0  0  0  0  0  0
  -21.8821   -3.8138   23.4353 C   0  0  0  0  0  0
  -21.9189   -4.6950   22.3404 C   0  0  0  0  0  0
  -22.7806  -13.5181   21.1867 C   0  0  0  0  0  0
  -22.1662   -4.2136   21.0987 F   0  0  0  0  0  0
  -21.5631   -3.4538   25.7746 F   0  0  0  0  0  0
  -30.0172  -13.3903   20.3718 N   0  0  0  0  0  0
  -26.2953  -12.9280   20.3403 N   0  0  0  0  0  0
  -25.9313  -11.6452   20.5916 N   0  0  0  0  0  0
  -22.0428  -12.8215   22.0443 N   0  0  0  0  0  0
  -25.3857  -15.1766   20.3583 N   0  0  0  0  0  0
  -31.9256  -14.6012   20.2726 O   0  0  0  0  0  0
  -21.6619   -6.8851   21.4222 O   0  0  0  0  0  0
  -22.3520  -14.5483   20.6689 O   0  0  0  0  0  0
  -24.6149  -31.8692   23.2137 C   0  0  0  0  0  0
  -25.9051  -32.4827   23.8412 C   0  0  1  0  0  0
  -27.2276  -27.4181   20.0982 C   0  0  0  0  0  0
  -25.5920  -33.8628   24.2345 N   0  0  0  0  0  0
  -23.4014  -30.4946   21.5548 C   0  0  2  0  0  0
  -24.8459  -28.9620   20.1166 C   0  0  0  0  0  0
  -22.7421  -29.4663   22.5016 C   0  0  0  0  0  0
  -18.0283  -28.1365   22.8502 C   0  0  0  0  0  0
  -24.1486  -36.7302   23.2639 C   0  0  0  0  0  0
  -25.9331  -30.8272   21.3723 C   0  0  0  0  0  0
  -26.0077  -29.4629   20.7152 C   0  0  0  0  0  0
  -27.2006  -28.7005   20.7007 C   0  0  0  0  0  0
  -26.0482  -26.9503   19.4703 C   0  0  0  0  0  0
  -24.8628  -27.7059   19.4901 C   0  0  0  0  0  0
  -23.6092  -29.8314   20.1679 C   0  0  0  0  0  0
  -25.4108  -36.3115   24.0343 C   0  0  1  0  0  0
  -20.5868  -28.3655   23.1329 C   0  0  2  0  0  0
  -20.6768  -26.9395   22.5418 C   0  0  0  0  0  0
  -19.5743  -26.6381   21.5215 C   0  0  0  0  0  0
  -18.1923  -26.7915   22.1624 C   0  0  0  0  0  0
  -19.1525  -28.8825   23.2911 C   0  0  0  0  0  0
  -18.9452  -30.1437   23.8914 C   0  0  0  0  0  0
  -17.6450  -30.6578   24.0558 C   0  0  0  0  0  0
  -25.9031  -34.9479   23.5132 C   0  0  0  0  0  0
  -16.5346  -29.9074   23.6322 C   0  0  0  0  0  0
  -16.7270  -28.6482   23.0361 C   0  0  0  0  0  0
  -26.4479  -31.6607   25.0743 C   0  0  0  0  0  0
  -25.3739  -31.3707   26.1487 C   0  0  0  0  0  0
  -27.0311  -30.3049   24.6113 C   0  0  0  0  0  0
  -27.6059  -32.4329   25.7495 C   0  0  0  0  0  0
  -27.5581  -37.1808   24.8468 C   0  0  0  0  0  0
  -21.4146  -29.3026   22.3741 N   0  0  0  0  0  0
  -26.4299  -37.3799   23.9405 N   0  0  0  0  0  0
  -24.6677  -31.0787   22.1043 N   0  0  0  0  0  0
  -23.4197  -28.8206   23.3052 O   0  0  0  0  0  0
  -28.4028  -26.6849   20.1200 O   0  0  0  0  0  0
  -26.5586  -34.8933   22.4691 O   0  0  0  0  0  0
  -23.5344  -32.1466   23.7530 O   0  0  0  0  0  0
  -28.9204  -18.6499   22.2160 C   0  0  0  0  0  0
  -29.8619  -19.6491   21.8836 C   0  0  0  0  0  0
  -29.0410  -17.3214   21.7651 C   0  0  0  0  0  0
  -31.0139  -19.2496   21.1538 C   0  0  0  0  0  0
  -31.1107  -17.9246   20.6245 C   0  0  0  0  0  0
  -30.1008  -16.9425   20.9026 C   0  0  0  0  0  0
  -29.3704  -22.1129   21.1325 C   0  0  0  0  0  0
  -28.2995  -22.9419   23.0971 C   0  0  0  0  0  0
  -29.6263  -21.1235   22.3060 C   0  0  1  0  0  0
  -28.4487  -21.4221   23.2458 C   0  0  1  0  0  0
  -27.9600  -16.3455   22.1817 C   0  0  0  0  0  0
  -32.1485  -20.2488   20.9076 C   0  0  0  0  0  0
  -32.3080  -17.6000   19.7277 C   0  0  0  0  0  0
  -28.6557  -20.9601   24.7003 C   0  0  0  0  0  0
  -29.7269  -15.9370   18.7230 C   0  0  0  0  0  0
  -28.9821  -24.6374   21.3851 C   0  0  0  0  0  0
  -28.3406  -25.2389   20.1095 C   0  0  0  0  0  0
  -29.9914  -15.7019   20.1597 N   0  0  0  0  0  0
  -28.5410  -23.2325   21.6670 N   0  3  1  0  0  0
  -31.4655  -12.4546   19.1033 H   0  0  0  0  0  0
  -30.3633  -11.3589   19.8931 H   0  0  0  0  0  0
  -29.7291  -11.6540   17.4891 H   0  0  0  0  0  0
  -29.6612  -13.3781   17.6748 H   0  0  0  0  0  0
  -27.8239  -11.2813   18.8613 H   0  0  0  0  0  0
  -27.3583  -12.5709   17.7882 H   0  0  0  0  0  0
  -27.6299  -14.2322   19.5179 H   0  0  0  0  0  0
  -28.7230  -12.0678   21.3775 H   0  0  0  0  0  0
  -28.5065  -13.7319   21.8130 H   0  0  0  0  0  0
  -25.2722   -9.5666   22.4801 H   0  0  0  0  0  0
  -23.9973   -7.4592   22.7476 H   0  0  0  0  0  0
  -21.0817   -8.8762   19.8959 H   0  0  0  0  0  0
  -22.3666  -10.9661   19.6204 H   0  0  0  0  0  0
  -21.2005   -7.6142   23.9704 H   0  0  0  0  0  0
  -21.1469   -6.0520   25.9068 H   0  0  0  0  0  0
  -22.0606   -2.7603   23.2854 H   0  0  0  0  0  0
  -22.4023  -11.9909   22.4910 H   0  0  0  0  0  0
  -21.1024  -13.1238   22.2575 H   0  0  0  0  0  0
  -24.5870  -15.7991   20.4131 H   0  0  0  0  0  0
  -26.2072  -15.6207   19.9692 H   0  0  0  0  0  0
  -26.7116  -32.5526   23.1163 H   0  0  0  0  0  0
  -25.0113  -33.9788   25.0517 H   0  0  0  0  0  0
  -22.6891  -31.3111   21.4191 H   0  0  0  0  0  0
  -23.3758  -35.9625   23.3325 H   0  0  0  0  0  0
  -24.3578  -36.8890   22.2047 H   0  0  0  0  0  0
  -23.7227  -37.6511   23.6634 H   0  0  0  0  0  0
  -26.0525  -31.5976   20.6092 H   0  0  0  0  0  0
  -26.8184  -30.8728   21.9951 H   0  0  0  0  0  0
  -28.0993  -29.0851   21.1638 H   0  0  0  0  0  0
  -26.0184  -26.0124   18.9355 H   0  0  0  0  0  0
  -23.9740  -27.3232   19.0076 H   0  0  0  0  0  0
  -23.7192  -30.6091   19.4116 H   0  0  0  0  0  0
  -22.7287  -29.2584   19.8707 H   0  0  0  0  0  0
  -25.1285  -36.1984   25.0838 H   0  0  0  0  0  0
  -20.9956  -28.3212   24.1449 H   0  0  0  0  0  0
  -20.5673  -26.2262   23.3605 H   0  0  0  0  0  0
  -21.6638  -26.7443   22.1197 H   0  0  0  0  0  0
  -19.6908  -25.6297   21.1229 H   0  0  0  0  0  0
  -19.6676  -27.3201   20.6753 H   0  0  0  0  0  0
  -17.4196  -26.6692   21.4025 H   0  0  0  0  0  0
  -18.0315  -26.0045   22.9001 H   0  0  0  0  0  0
  -19.7926  -30.7252   24.2292 H   0  0  0  0  0  0
  -17.5005  -31.6264   24.5150 H   0  0  0  0  0  0
  -15.5342  -30.2977   23.7636 H   0  0  0  0  0  0
  -15.8674  -28.0799   22.7078 H   0  0  0  0  0  0
  -24.5902  -30.7064   25.7825 H   0  0  0  0  0  0
  -24.8933  -32.2865   26.4951 H   0  0  0  0  0  0
  -25.8092  -30.8866   27.0238 H   0  0  0  0  0  0
  -26.2858  -29.6819   24.1148 H   0  0  0  0  0  0
  -27.4073  -29.7278   25.4569 H   0  0  0  0  0  0
  -27.8707  -30.4386   23.9282 H   0  0  0  0  0  0
  -27.2679  -33.3619   26.2100 H   0  0  0  0  0  0
  -28.3846  -32.6905   25.0303 H   0  0  0  0  0  0
  -28.0751  -31.8436   26.5383 H   0  0  0  0  0  0
  -28.2613  -38.0094   24.7513 H   0  0  0  0  0  0
  -28.1070  -36.2626   24.6304 H   0  0  0  0  0  0
  -27.2300  -37.1465   25.8875 H   0  0  0  0  0  0
  -20.9319  -29.8749   21.6955 H   0  0  0  0  0  0
  -26.0196  -38.2883   24.1408 H   0  0  0  0  0  0
  -28.0531  -18.8877   22.8124 H   0  0  0  0  0  0
  -28.7916  -21.6253   20.3460 H   0  0  0  0  0  0
  -30.3010  -22.4524   20.6783 H   0  0  0  0  0  0
  -29.0491  -23.4524   23.7046 H   0  0  0  0  0  0
  -27.3168  -23.2981   23.4103 H   0  0  0  0  0  0
  -30.5124  -21.4565   22.8468 H   0  0  0  0  0  0
  -27.5386  -20.9770   22.8457 H   0  0  0  0  0  0
  -28.3226  -15.6775   22.9622 H   0  0  0  0  0  0
  -27.6517  -15.7556   21.3278 H   0  0  0  0  0  0
  -27.0714  -16.8499   22.5632 H   0  0  0  0  0  0
  -32.2119  -21.0362   21.6548 H   0  0  0  0  0  0
  -32.0404  -20.7222   19.9318 H   0  0  0  0  0  0
  -33.1217  -19.7600   20.9424 H   0  0  0  0  0  0
  -33.1671  -17.3216   20.3372 H   0  0  0  0  0  0
  -32.5884  -18.4502   19.1069 H   0  0  0  0  0  0
  -32.1352  -16.7928   19.0244 H   0  0  0  0  0  0
  -27.7994  -21.2234   25.3219 H   0  0  0  0  0  0
  -29.5422  -21.4165   25.1407 H   0  0  0  0  0  0
  -28.7835  -19.8804   24.7629 H   0  0  0  0  0  0
  -29.6871  -17.0012   18.4871 H   0  0  0  0  0  0
  -28.7766  -15.5316   18.3928 H   0  0  0  0  0  0
  -30.5001  -15.5129   18.0807 H   0  0  0  0  0  0
  -28.6610  -25.2667   22.2155 H   0  0  0  0  0  0
  -30.0694  -24.7166   21.3576 H   0  0  0  0  0  0
  -27.3251  -24.8530   20.0534 H   0  0  0  0  0  0
  -28.8577  -24.8732   19.2219 H   0  0  0  0  0  0
  -27.6365  -23.1170   21.2306 H   0  0  0  0  0  0
  1 25  1  0  0  0
  1 30  2  0  0  0
  1 88  1  0  0  0
  2  3  1  0  0  0
  2 25  1  0  0  0
  2 90  1  0  0  0
  2 91  1  0  0  0
  3  4  1  0  0  0
  3 92  1  0  0  0
  3 93  1  0  0  0
  4  5  1  0  0  0
  4 94  1  0  0  0
  4 95  1  0  0  0
  5  6  1  0  0  0
  5 26  1  0  0  0
  5 96  1  0  0  0
  6 25  1  0  0  0
  6 97  1  0  0  0
  6 98  1  0  0  0
  7  8  2  0  0  0
  7 26  1  0  0  0
  7 29  1  0  0  0
  8  9  1  0  0  0
  8 22  1  0  0  0
  9 10  1  0  0  0
  9 27  2  0  0  0
 10 11  2  0  0  0
 10 15  1  0  0  0
 11 12  1  0  0  0
 11 99  1  0  0  0
 12 13  2  0  0  0
 12100  1  0  0  0
 13 14  1  0  0  0
 13 31  1  0  0  0
 14 15  2  0  0  0
 14101  1  0  0  0
 15102  1  0  0  0
 16 17  2  0  0  0
 16 21  1  0  0  0
 16 31  1  0  0  0
 17 18  1  0  0  0
 17103  1  0  0  0
 18 19  2  0  0  0
 18104  1  0  0  0
 19 20  1  0  0  0
 19 24  1  0  0  0
 20 21  2  0  0  0
 20105  1  0  0  0
 21 23  1  0  0  0
 22 28  1  0  0  0
 22 32  2  0  0  0
 26 27  1  0  0  0
 28106  1  0  0  0
 28107  1  0  0  0
 29108  1  0  0  0
 29109  1  0  0  0
 33 34  1  0  0  0
 33 66  1  0  0  0
 33 70  2  0  0  0
 34 36  1  0  0  0
 34 59  1  0  0  0
 34110  1  0  0  0
 35 44  2  0  0  0
 35 45  1  0  0  0
 35 68  1  0  0  0
 36 56  1  0  0  0
 36111  1  0  0  0
 37 39  1  0  0  0
 37 47  1  0  0  0
 37 66  1  0  0  0
 37112  1  0  0  0
 38 43  2  0  0  0
 38 46  1  0  0  0
 38 47  1  0  0  0
 39 64  1  0  0  0
 39 67  2  0  0  0
 40 52  1  0  0  0
 40 53  2  0  0  0
 40 58  1  0  0  0
 41113  1  0  0  0
 41114  1  0  0  0
 41115  1  0  0  0
 41 48  1  0  0  0
 42 43  1  0  0  0
 42 66  1  0  0  0
 42116  1  0  0  0
 42117  1  0  0  0
 43 44  1  0  0  0
 44118  1  0  0  0
 45 46  2  0  0  0
 45119  1  0  0  0
 46120  1  0  0  0
 47121  1  0  0  0
 47122  1  0  0  0
 48 56  1  0  0  0
 48 65  1  0  0  0
 48123  1  0  0  0
 49 50  1  0  0  0
 49 53  1  0  0  0
 49 64  1  0  0  0
 49124  1  0  0  0
 50 51  1  0  0  0
 50125  1  0  0  0
 50126  1  0  0  0
 51 52  1  0  0  0
 51127  1  0  0  0
 51128  1  0  0  0
 52129  1  0  0  0
 52130  1  0  0  0
 53 54  1  0  0  0
 54 55  2  0  0  0
 54131  1  0  0  0
 55 57  1  0  0  0
 55132  1  0  0  0
 56 69  2  0  0  0
 57 58  2  0  0  0
 57133  1  0  0  0
 58134  1  0  0  0
 59 60  1  0  0  0
 59 61  1  0  0  0
 59 62  1  0  0  0
 60135  1  0  0  0
 60136  1  0  0  0
 60137  1  0  0  0
 61138  1  0  0  0
 61139  1  0  0  0
 61140  1  0  0  0
 62141  1  0  0  0
 62142  1  0  0  0
 62143  1  0  0  0
 63 65  1  0  0  0
 63144  1  0  0  0
 63145  1  0  0  0
 63146  1  0  0  0
 64147  1  0  0  0
 65148  1  0  0  0
 68 87  1  0  0  0
 71 72  2  0  0  0
 71 73  1  0  0  0
 71149  1  0  0  0
 72 74  1  0  0  0
 72 79  1  0  0  0
 73 76  2  0  0  0
 73 81  1  0  0  0
 74 75  2  0  0  0
 74 82  1  0  0  0
 75 76  1  0  0  0
 75 83  1  0  0  0
 76 88  1  0  0  0
 77 79  1  0  0  0
 77 89  1  0  0  0
 77150  1  0  0  0
 77151  1  0  0  0
 78 80  1  0  0  0
 78 89  1  0  0  0
 78152  1  0  0  0
 78153  1  0  0  0
 79 80  1  0  0  0
 79154  1  0  0  0
 80 84  1  0  0  0
 80155  1  0  0  0
 81156  1  0  0  0
 81157  1  0  0  0
 81158  1  0  0  0
 82159  1  0  0  0
 82160  1  0  0  0
 82161  1  0  0  0
 83162  1  0  0  0
 83163  1  0  0  0
 83164  1  0  0  0
 84165  1  0  0  0
 84166  1  0  0  0
 84167  1  0  0  0
 85 88  1  0  0  0
 85168  1  0  0  0
 85169  1  0  0  0
 85170  1  0  0  0
 86 87  1  0  0  0
 86171  1  0  0  0
 86172  1  0  0  0
 86 89  1  0  0  0
 87173  1  0  0  0
 87174  1  0  0  0
 89175  1  0  0  0
M  CHG  1  89   1
M  ISO  4   1 100  68 101  87 101  88 100
M  END
> <chiral flag>
0

> <version>
0

> <s_m_source_file>
/data/baiqing/PycharmProjects/Reinvent-master-3.2/result/LINK_invent/BTK/process_docking_weight1_custom_sum_contain_oxygen_bond_distance_aromatic_linkinvent_7_9_3/rearranged_h_0163.sdf

> <i_m_source_file_index>
63

> <r_mmod_Potential_Energy-OPLS-2005>
222.03092956543

> <r_mmod_Stretch_Energy-OPLS-2005>
53.2962188720703

> <r_mmod_Bend_Energy-OPLS-2005>
151.310653686523

> <r_mmod_Torsional_Energy-OPLS-2005>
404.540863037109

> <r_mmod_Improper_Torsional_Energy-OPLS-2005>
22.7263565063477

> <r_mmod_Van_der_Waal_Energy-OPLS-2005>
169.379776000977

> <r_mmod_Electrostatic_Energy-OPLS-2005>
-208.460601806641

> <r_mmod_Solvation_Energy-OPLS-2005>
-405.748962402344

> <b_mmod_Minimization_Converged-OPLS-2005>
0

> <r_mmod_RMS_Derivative-OPLS-2005>
2.21829509735107

$$$$
63
                    3D
 Structure written by MMmdl.
166175  0  0  1  0            999 V2000
  -30.5321  -14.9890   20.4212 C   0  0  0  0  0  0
  -30.4429  -12.6182   19.4998 C   0  0  0  0  0  0
  -29.5259  -12.5402   18.2574 C   0  0  0  0  0  0
  -28.0608  -12.3134   18.6768 C   0  0  0  0  0  0
  -27.6279  -13.2514   19.8335 C   0  0  2  0  0  0
  -28.6700  -13.2981   20.9702 C   0  0  0  0  0  0
  -25.2465  -13.8216   20.5709 C   0  0  0  0  0  0
  -24.1779  -13.0443   20.9229 C   0  0  0  0  0  0
  -24.6396  -11.6930   20.8754 C   0  0  0  0  0  0
  -23.9081  -10.4296   21.0406 C   0  0  0  0  0  0
  -24.3623   -9.4207   21.9183 C   0  0  0  0  0  0
  -23.6290   -8.2248   22.0755 C   0  0  0  0  0  0
  -22.4268   -8.0288   21.3548 C   0  0  0  0  0  0
  -21.9911   -9.0268   20.4654 C   0  0  0  0  0  0
  -22.7251  -10.2141   20.3057 C   0  0  0  0  0  0
  -21.6855   -6.0736   22.5280 C   0  0  0  0  0  0
  -21.4018   -6.5637   23.8214 C   0  0  0  0  0  0
  -21.3659   -5.6782   24.9176 C   0  0  0  0  0  0
  -21.6040   -4.3048   24.7219 C   0  0  0  0  0  0
  -21.8819   -3.8146   23.4337 C   0  0  0  0  0  0
  -21.9193   -4.6965   22.3396 C   0  0  0  0  0  0
  -22.7798  -13.5225   21.1875 C   0  0  0  0  0  0
  -22.1660   -4.2157   21.0973 F   0  0  0  0  0  0
  -21.5626   -3.4528   25.7731 F   0  0  0  0  0  0
  -29.9388  -13.7244   20.3655 N   0  0  0  0  0  0
  -26.2885  -12.9454   20.3224 N   0  0  0  0  0  0
  -25.9328  -11.6583   20.5722 N   0  0  0  0  0  0
  -22.0431  -12.8229   22.0426 N   0  0  0  0  0  0
  -25.4129  -15.1942   20.4129 N   0  0  0  0  0  0
  -31.7442  -15.0342   20.1855 O   0  0  0  0  0  0
  -21.6636   -6.8881   21.4241 O   0  0  0  0  0  0
  -22.3485  -14.5523   20.6704 O   0  0  0  0  0  0
  -24.6477  -31.8403   23.1863 C   0  0  0  0  0  0
  -25.9233  -32.4675   23.8269 C   0  0  1  0  0  0
  -27.2155  -27.0980   20.1607 C   0  0  0  0  0  0
  -25.5963  -33.8485   24.2184 N   0  0  0  0  0  0
  -23.4534  -30.4595   21.5320 C   0  0  2  0  0  0
  -24.9041  -28.8821   20.1116 C   0  0  0  0  0  0
  -22.7592  -29.4533   22.4846 C   0  0  0  0  0  0
  -18.0312  -28.1399   22.8472 C   0  0  0  0  0  0
  -24.1490  -36.7241   23.2643 C   0  0  0  0  0  0
  -26.0129  -30.7032   21.3917 C   0  0  0  0  0  0
  -26.0836  -29.3113   20.7330 C   0  0  0  0  0  0
  -27.2401  -28.4366   20.7386 C   0  0  0  0  0  0
  -26.0075  -26.7824   19.4973 C   0  0  0  0  0  0
  -24.8816  -27.6328   19.4763 C   0  0  0  0  0  0
  -23.6828  -29.7885   20.1521 C   0  0  0  0  0  0
  -25.4124  -36.3020   24.0316 C   0  0  1  0  0  0
  -20.5927  -28.3731   23.1217 C   0  0  2  0  0  0
  -20.6793  -26.9428   22.5400 C   0  0  0  0  0  0
  -19.5770  -26.6381   21.5206 C   0  0  0  0  0  0
  -18.1950  -26.7935   22.1616 C   0  0  0  0  0  0
  -19.1570  -28.8884   23.2837 C   0  0  0  0  0  0
  -18.9484  -30.1477   23.8866 C   0  0  0  0  0  0
  -17.6480  -30.6593   24.0557 C   0  0  0  0  0  0
  -25.9075  -34.9395   23.5058 C   0  0  0  0  0  0
  -16.5369  -29.9083   23.6340 C   0  0  0  0  0  0
  -16.7297  -28.6503   23.0356 C   0  0  0  0  0  0
  -26.4537  -31.6556   25.0727 C   0  0  0  0  0  0
  -25.3703  -31.3768   26.1410 C   0  0  0  0  0  0
  -27.0396  -30.2939   24.6340 C   0  0  0  0  0  0
  -27.6073  -32.4321   25.7506 C   0  0  0  0  0  0
  -27.5578  -37.1777   24.8467 C   0  0  0  0  0  0
  -21.4280  -29.3048   22.3585 N   0  0  0  0  0  0
  -26.4286  -37.3736   23.9408 N   0  0  0  0  0  0
  -24.7246  -31.0229   22.0913 N   0  0  0  0  0  0
  -23.4214  -28.8082   23.3015 O   0  0  0  0  0  0
  -28.2488  -26.0796   20.2384 O   0  0  0  0  0  0
  -26.5667  -34.8897   22.4641 O   0  0  0  0  0  0
  -23.5585  -32.1301   23.7053 O   0  0  0  0  0  0
  -31.1400  -22.1852   20.5236 C   0  0  0  0  0  0
  -28.4453  -21.7830   20.2953 C   0  0  0  0  0  0
  -30.6860  -20.8375   20.4779 C   0  0  0  0  0  0
  -29.3052  -20.5637   20.3824 C   0  0  0  0  0  0
  -30.2925  -23.3310   20.4494 C   0  0  0  0  0  0
  -28.8852  -23.2086   20.3089 C   0  0  0  0  0  0
  -31.7201  -19.6978   20.5706 C   0  0  0  0  0  0
  -31.3077  -18.2887   20.0401 C   0  0  0  0  0  0
  -28.8697  -18.9707   20.3537 C   0  0  2  0  0  0
  -30.0020  -17.7635   20.6658 C   0  0  1  0  0  0
  -30.9335  -24.7046   20.5265 C   0  0  0  0  0  0
  -26.5666  -18.6845   19.2533 C   0  0  0  0  0  0
  -28.5059  -19.4279   17.8060 C   0  0  0  0  0  0
  -27.9017  -24.5476   20.1272 C   0  0  0  0  0  0
  -28.0900  -18.6160   19.0493 C   0  0  0  0  0  0
  -29.7468  -16.1810   20.5440 N   0  0  0  0  0  0
  -31.4763  -12.7815   19.1877 H   0  0  0  0  0  0
  -30.4425  -11.6723   20.0435 H   0  0  0  0  0  0
  -29.8549  -11.7425   17.5909 H   0  0  0  0  0  0
  -29.6035  -13.4677   17.6877 H   0  0  0  0  0  0
  -27.9672  -11.2745   18.9945 H   0  0  0  0  0  0
  -27.3975  -12.4317   17.8195 H   0  0  0  0  0  0
  -27.5853  -14.2485   19.3941 H   0  0  0  0  0  0
  -28.7692  -12.3271   21.4582 H   0  0  0  0  0  0
  -28.3628  -14.0036   21.7437 H   0  0  0  0  0  0
  -25.2769   -9.5684   22.4761 H   0  0  0  0  0  0
  -24.0004   -7.4634   22.7471 H   0  0  0  0  0  0
  -21.0848   -8.8792   19.8955 H   0  0  0  0  0  0
  -22.3715  -10.9680   19.6169 H   0  0  0  0  0  0
  -21.2015   -7.6142   23.9722 H   0  0  0  0  0  0
  -21.1477   -6.0510   25.9079 H   0  0  0  0  0  0
  -22.0597   -2.7609   23.2831 H   0  0  0  0  0  0
  -22.4026  -11.9906   22.4857 H   0  0  0  0  0  0
  -21.1048  -13.1280   22.2609 H   0  0  0  0  0  0
  -24.6403  -15.8417   20.5184 H   0  0  0  0  0  0
  -26.2457  -15.6302   20.0417 H   0  0  0  0  0  0
  -26.7298  -32.5272   23.0998 H   0  0  0  0  0  0
  -25.0087  -33.9591   25.0314 H   0  0  0  0  0  0
  -22.7586  -31.2871   21.3751 H   0  0  0  0  0  0
  -23.3762  -35.9562   23.3294 H   0  0  0  0  0  0
  -24.3577  -36.8883   22.2060 H   0  0  0  0  0  0
  -23.7238  -37.6429   23.6688 H   0  0  0  0  0  0
  -26.1728  -31.4562   20.6190 H   0  0  0  0  0  0
  -26.8813  -30.7533   22.0370 H   0  0  0  0  0  0
  -28.1360  -28.7582   21.2507 H   0  0  0  0  0  0
  -25.8909  -25.8291   19.0056 H   0  0  0  0  0  0
  -23.9823  -27.2994   18.9766 H   0  0  0  0  0  0
  -23.8246  -30.5623   19.3966 H   0  0  0  0  0  0
  -22.7970  -29.2330   19.8396 H   0  0  0  0  0  0
  -25.1311  -36.1844   25.0808 H   0  0  0  0  0  0
  -21.0017  -28.3326   24.1338 H   0  0  0  0  0  0
  -20.5672  -26.2348   23.3625 H   0  0  0  0  0  0
  -21.6662  -26.7420   22.1208 H   0  0  0  0  0  0
  -19.6927  -25.6280   21.1264 H   0  0  0  0  0  0
  -19.6704  -27.3166   20.6714 H   0  0  0  0  0  0
  -17.4216  -26.6681   21.4021 H   0  0  0  0  0  0
  -18.0350  -26.0083   22.9018 H   0  0  0  0  0  0
  -19.7960  -30.7305   24.2219 H   0  0  0  0  0  0
  -17.5031  -31.6265   24.5166 H   0  0  0  0  0  0
  -15.5368  -30.2972   23.7675 H   0  0  0  0  0  0
  -15.8700  -28.0807   22.7088 H   0  0  0  0  0  0
  -24.5884  -30.7113   25.7734 H   0  0  0  0  0  0
  -24.8885  -32.2953   26.4767 H   0  0  0  0  0  0
  -25.7961  -30.8987   27.0237 H   0  0  0  0  0  0
  -26.3015  -29.6659   24.1332 H   0  0  0  0  0  0
  -27.3965  -29.7252   25.4939 H   0  0  0  0  0  0
  -27.8948  -30.4161   23.9693 H   0  0  0  0  0  0
  -27.2677  -33.3648   26.2023 H   0  0  0  0  0  0
  -28.3906  -32.6831   25.0342 H   0  0  0  0  0  0
  -28.0708  -31.8479   26.5466 H   0  0  0  0  0  0
  -28.2588  -38.0079   24.7508 H   0  0  0  0  0  0
  -28.1077  -36.2609   24.6290 H   0  0  0  0  0  0
  -27.2299  -37.1424   25.8870 H   0  0  0  0  0  0
  -20.9502  -29.8752   21.6748 H   0  0  0  0  0  0
  -26.0152  -38.2801   24.1407 H   0  0  0  0  0  0
  -32.2055  -22.3477   20.6208 H   0  0  0  0  0  0
  -27.3831  -21.6157   20.1962 H   0  0  0  0  0  0
  -32.0097  -19.6094   21.6190 H   0  0  0  0  0  0
  -32.6208  -20.0117   20.0416 H   0  0  0  0  0  0
  -32.1284  -17.6024   20.2451 H   0  0  0  0  0  0
  -31.2041  -18.3190   18.9556 H   0  0  0  0  0  0
  -28.1636  -18.8828   21.1799 H   0  0  0  0  0  0
  -30.1741  -17.8538   21.7399 H   0  0  0  0  0  0
  -32.0136  -24.6403   20.6612 H   0  0  0  0  0  0
  -30.5330  -25.2651   21.3716 H   0  0  0  0  0  0
  -30.7461  -25.2707   19.6144 H   0  0  0  0  0  0
  -26.2470  -18.0440   20.0756 H   0  0  0  0  0  0
  -26.0345  -18.3510   18.3613 H   0  0  0  0  0  0
  -26.2349  -19.6980   19.4774 H   0  0  0  0  0  0
  -29.5879  -19.4318   17.6752 H   0  0  0  0  0  0
  -28.1762  -20.4651   17.8633 H   0  0  0  0  0  0
  -28.0718  -19.0039   16.8998 H   0  0  0  0  0  0
  -27.0624  -24.3781   20.8024 H   0  0  0  0  0  0
  -27.4984  -24.4107   19.1249 H   0  0  0  0  0  0
  -28.2969  -17.5725   18.8146 H   0  0  0  0  0  0
  -28.7712  -15.9514   20.6614 H   0  0  0  0  0  0
  1 25  1  0  0  0
  1 30  2  0  0  0
  1 86  1  0  0  0
  2  3  1  0  0  0
  2 25  1  0  0  0
  2 87  1  0  0  0
  2 88  1  0  0  0
  3  4  1  0  0  0
  3 89  1  0  0  0
  3 90  1  0  0  0
  4  5  1  0  0  0
  4 91  1  0  0  0
  4 92  1  0  0  0
  5  6  1  0  0  0
  5 26  1  0  0  0
  5 93  1  0  0  0
  6 25  1  0  0  0
  6 94  1  0  0  0
  6 95  1  0  0  0
  7  8  2  0  0  0
  7 26  1  0  0  0
  7 29  1  0  0  0
  8  9  1  0  0  0
  8 22  1  0  0  0
  9 10  1  0  0  0
  9 27  2  0  0  0
 10 11  2  0  0  0
 10 15  1  0  0  0
 11 12  1  0  0  0
 11 96  1  0  0  0
 12 13  2  0  0  0
 12 97  1  0  0  0
 13 14  1  0  0  0
 13 31  1  0  0  0
 14 15  2  0  0  0
 14 98  1  0  0  0
 15 99  1  0  0  0
 16 17  2  0  0  0
 16 21  1  0  0  0
 16 31  1  0  0  0
 17 18  1  0  0  0
 17100  1  0  0  0
 18 19  2  0  0  0
 18101  1  0  0  0
 19 20  1  0  0  0
 19 24  1  0  0  0
 20 21  2  0  0  0
 20102  1  0  0  0
 21 23  1  0  0  0
 22 28  1  0  0  0
 22 32  2  0  0  0
 26 27  1  0  0  0
 28103  1  0  0  0
 28104  1  0  0  0
 29105  1  0  0  0
 29106  1  0  0  0
 33 34  1  0  0  0
 33 66  1  0  0  0
 33 70  2  0  0  0
 34 36  1  0  0  0
 34 59  1  0  0  0
 34107  1  0  0  0
 35 44  2  0  0  0
 35 45  1  0  0  0
 35 68  1  0  0  0
 36 56  1  0  0  0
 36108  1  0  0  0
 37 39  1  0  0  0
 37 47  1  0  0  0
 37 66  1  0  0  0
 37109  1  0  0  0
 38 43  2  0  0  0
 38 46  1  0  0  0
 38 47  1  0  0  0
 39 64  1  0  0  0
 39 67  2  0  0  0
 40 52  1  0  0  0
 40 53  2  0  0  0
 40 58  1  0  0  0
 41110  1  0  0  0
 41111  1  0  0  0
 41112  1  0  0  0
 41 48  1  0  0  0
 42 43  1  0  0  0
 42 66  1  0  0  0
 42113  1  0  0  0
 42114  1  0  0  0
 43 44  1  0  0  0
 44115  1  0  0  0
 45 46  2  0  0  0
 45116  1  0  0  0
 46117  1  0  0  0
 47118  1  0  0  0
 47119  1  0  0  0
 48 56  1  0  0  0
 48 65  1  0  0  0
 48120  1  0  0  0
 49 50  1  0  0  0
 49 53  1  0  0  0
 49 64  1  0  0  0
 49121  1  0  0  0
 50 51  1  0  0  0
 50122  1  0  0  0
 50123  1  0  0  0
 51 52  1  0  0  0
 51124  1  0  0  0
 51125  1  0  0  0
 52126  1  0  0  0
 52127  1  0  0  0
 53 54  1  0  0  0
 54 55  2  0  0  0
 54128  1  0  0  0
 55 57  1  0  0  0
 55129  1  0  0  0
 56 69  2  0  0  0
 57 58  2  0  0  0
 57130  1  0  0  0
 58131  1  0  0  0
 59 60  1  0  0  0
 59 61  1  0  0  0
 59 62  1  0  0  0
 60132  1  0  0  0
 60133  1  0  0  0
 60134  1  0  0  0
 61135  1  0  0  0
 61136  1  0  0  0
 61137  1  0  0  0
 62138  1  0  0  0
 62139  1  0  0  0
 62140  1  0  0  0
 63 65  1  0  0  0
 63141  1  0  0  0
 63142  1  0  0  0
 63143  1  0  0  0
 64144  1  0  0  0
 65145  1  0  0  0
 68 84  1  0  0  0
 71 73  2  0  0  0
 71 75  1  0  0  0
 71146  1  0  0  0
 72 74  2  0  0  0
 72 76  1  0  0  0
 72147  1  0  0  0
 73 74  1  0  0  0
 73 77  1  0  0  0
 74 79  1  0  0  0
 75 76  2  0  0  0
 75 81  1  0  0  0
 76 84  1  0  0  0
 77 78  1  0  0  0
 77148  1  0  0  0
 77149  1  0  0  0
 78 80  1  0  0  0
 78150  1  0  0  0
 78151  1  0  0  0
 79 80  1  0  0  0
 79 85  1  0  0  0
 79152  1  0  0  0
 80 86  1  0  0  0
 80153  1  0  0  0
 81154  1  0  0  0
 81155  1  0  0  0
 81156  1  0  0  0
 82157  1  0  0  0
 82158  1  0  0  0
 82159  1  0  0  0
 82 85  1  0  0  0
 83 85  1  0  0  0
 83160  1  0  0  0
 83161  1  0  0  0
 83162  1  0  0  0
 84163  1  0  0  0
 84164  1  0  0  0
 85165  1  0  0  0
 86166  1  0  0  0
M  ISO  4   1 100  68 101  84 101  86 100
M  END
> <chiral flag>
0

> <version>
0

> <s_m_source_file>
/data/baiqing/PycharmProjects/Reinvent-master-3.2/result/LINK_invent/BTK/process_docking_weight1_custom_sum_contain_oxygen_bond_distance_aromatic_linkinvent_7_9_3/rearranged_h_0163.sdf

> <i_m_source_file_index>
64

> <r_mmod_Potential_Energy-OPLS-2005>
587.972473144531

> <r_mmod_Stretch_Energy-OPLS-2005>
289.681243896484

> <r_mmod_Bend_Energy-OPLS-2005>
267.198944091797

> <r_mmod_Torsional_Energy-OPLS-2005>
230.752334594727

> <r_mmod_Improper_Torsional_Energy-OPLS-2005>
4.32698202133179

> <r_mmod_Van_der_Waal_Energy-OPLS-2005>
129.355697631836

> <r_mmod_Electrostatic_Energy-OPLS-2005>
-360.365142822266

> <r_mmod_Solvation_Energy-OPLS-2005>
-199.895706176758

> <b_mmod_Minimization_Converged-OPLS-2005>
0

> <r_mmod_RMS_Derivative-OPLS-2005>
1.38191378116608

$$$$
64
                    3D
 Structure written by MMmdl.
167176  0  0  1  0            999 V2000
  -30.5275  -14.9882   20.4095 C   0  0  0  0  0  0
  -30.4419  -12.6126   19.5069 C   0  0  0  0  0  0
  -29.5255  -12.5383   18.2623 C   0  0  0  0  0  0
  -28.0587  -12.3210   18.6781 C   0  0  0  0  0  0
  -27.6320  -13.2515   19.8439 C   0  0  2  0  0  0
  -28.6739  -13.2917   20.9826 C   0  0  0  0  0  0
  -25.2472  -13.8210   20.5718 C   0  0  0  0  0  0
  -24.1790  -13.0441   20.9212 C   0  0  0  0  0  0
  -24.6405  -11.6928   20.8756 C   0  0  0  0  0  0
  -23.9091  -10.4296   21.0401 C   0  0  0  0  0  0
  -24.3636   -9.4209   21.9176 C   0  0  0  0  0  0
  -23.6306   -8.2247   22.0749 C   0  0  0  0  0  0
  -22.4288   -8.0285   21.3535 C   0  0  0  0  0  0
  -21.9925   -9.0262   20.4639 C   0  0  0  0  0  0
  -22.7263  -10.2141   20.3050 C   0  0  0  0  0  0
  -21.6856   -6.0739   22.5273 C   0  0  0  0  0  0
  -21.4013   -6.5637   23.8206 C   0  0  0  0  0  0
  -21.3662   -5.6786   24.9163 C   0  0  0  0  0  0
  -21.6045   -4.3052   24.7214 C   0  0  0  0  0  0
  -21.8826   -3.8150   23.4334 C   0  0  0  0  0  0
  -21.9198   -4.6964   22.3395 C   0  0  0  0  0  0
  -22.7807  -13.5211   21.1872 C   0  0  0  0  0  0
  -22.1669   -4.2153   21.0973 F   0  0  0  0  0  0
  -21.5633   -3.4536   25.7729 F   0  0  0  0  0  0
  -29.9449  -13.7170   20.3824 N   0  0  0  0  0  0
  -26.2912  -12.9451   20.3284 N   0  0  0  0  0  0
  -25.9347  -11.6579   20.5762 N   0  0  0  0  0  0
  -22.0480  -12.8190   22.0429 N   0  0  0  0  0  0
  -25.4114  -15.1950   20.4146 N   0  0  0  0  0  0
  -31.7250  -15.0534   20.1144 O   0  0  0  0  0  0
  -21.6650   -6.8888   21.4238 O   0  0  0  0  0  0
  -22.3486  -14.5511   20.6717 O   0  0  0  0  0  0
  -24.6476  -31.8401   23.1843 C   0  0  0  0  0  0
  -25.9220  -32.4682   23.8267 C   0  0  1  0  0  0
  -27.2248  -27.1023   20.1719 C   0  0  0  0  0  0
  -25.5960  -33.8489   24.2178 N   0  0  0  0  0  0
  -23.4561  -30.4546   21.5295 C   0  0  2  0  0  0
  -24.9099  -28.8755   20.1131 C   0  0  0  0  0  0
  -22.7606  -29.4490   22.4829 C   0  0  0  0  0  0
  -18.0299  -28.1400   22.8466 C   0  0  0  0  0  0
  -24.1483  -36.7251   23.2642 C   0  0  0  0  0  0
  -26.0132  -30.7063   21.3875 C   0  0  0  0  0  0
  -26.0859  -29.3107   20.7363 C   0  0  0  0  0  0
  -27.2444  -28.4415   20.7453 C   0  0  0  0  0  0
  -26.0248  -26.7770   19.5034 C   0  0  0  0  0  0
  -24.8935  -27.6234   19.4796 C   0  0  0  0  0  0
  -23.6869  -29.7802   20.1508 C   0  0  0  0  0  0
  -25.4119  -36.3024   24.0309 C   0  0  1  0  0  0
  -20.5920  -28.3718   23.1237 C   0  0  2  0  0  0
  -20.6781  -26.9414   22.5421 C   0  0  0  0  0  0
  -19.5748  -26.6370   21.5233 C   0  0  0  0  0  0
  -18.1920  -26.7931   22.1629 C   0  0  0  0  0  0
  -19.1563  -28.8879   23.2835 C   0  0  0  0  0  0
  -18.9476  -30.1460   23.8879 C   0  0  0  0  0  0
  -17.6476  -30.6596   24.0545 C   0  0  0  0  0  0
  -25.9078  -34.9402   23.5060 C   0  0  0  0  0  0
  -16.5364  -29.9092   23.6345 C   0  0  0  0  0  0
  -16.7283  -28.6506   23.0373 C   0  0  0  0  0  0
  -26.4531  -31.6578   25.0730 C   0  0  0  0  0  0
  -25.3705  -31.3777   26.1425 C   0  0  0  0  0  0
  -27.0416  -30.2981   24.6338 C   0  0  0  0  0  0
  -27.6048  -32.4361   25.7521 C   0  0  0  0  0  0
  -27.5565  -37.1774   24.8455 C   0  0  0  0  0  0
  -21.4286  -29.3026   22.3604 N   0  0  0  0  0  0
  -26.4270  -37.3751   23.9415 N   0  0  0  0  0  0
  -24.7251  -31.0229   22.0886 N   0  0  0  0  0  0
  -23.4222  -28.8019   23.2990 O   0  0  0  0  0  0
  -28.2815  -26.1107   20.2046 O   0  0  0  0  0  0
  -26.5661  -34.8903   22.4638 O   0  0  0  0  0  0
  -23.5586  -32.1281   23.7050 O   0  0  0  0  0  0
  -28.8253  -20.3264   23.8550 C   0  0  0  0  0  0
  -29.2076  -20.4088   21.4027 C   0  0  0  0  0  0
  -29.4017  -19.0681   23.9613 C   0  0  0  0  0  0
  -29.6318  -18.9264   21.4852 C   0  0  0  0  0  0
  -29.8766  -18.4170   22.8081 C   0  0  0  0  0  0
  -28.8150  -21.0264   22.6344 C   0  0  0  0  0  0
  -27.9738  -22.0750   19.5604 C   0  0  0  0  0  0
  -29.2017  -21.5438   20.2059 C   0  0  1  0  0  0
  -28.9055  -23.2320   19.9615 C   0  0  1  0  0  0
  -29.5378  -18.4615   25.3534 C   0  0  0  0  0  0
  -30.7331  -17.1720   23.0648 C   0  0  0  0  0  0
  -29.8765  -23.8349   18.9608 C   0  0  0  0  0  0
  -28.4476  -23.0852   23.8578 C   0  0  0  0  0  0
  -29.9502  -17.7529   20.3585 C   0  0  0  0  0  0
  -28.0363  -24.5807   20.4954 C   0  0  0  0  0  0
  -29.7405  -16.1727   20.5732 N   0  0  0  0  0  0
  -28.4257  -22.3519   22.6280 O   0  0  0  0  0  0
  -31.4752  -12.7728   19.1968 H   0  0  0  0  0  0
  -30.4392  -11.6639   20.0465 H   0  0  0  0  0  0
  -29.8496  -11.7355   17.5993 H   0  0  0  0  0  0
  -29.6103  -13.4631   17.6898 H   0  0  0  0  0  0
  -27.9546  -11.2794   18.9823 H   0  0  0  0  0  0
  -27.3968  -12.4569   17.8222 H   0  0  0  0  0  0
  -27.5919  -14.2527   19.4149 H   0  0  0  0  0  0
  -28.7711  -12.3187   21.4660 H   0  0  0  0  0  0
  -28.3688  -13.9938   21.7599 H   0  0  0  0  0  0
  -25.2780   -9.5687   22.4747 H   0  0  0  0  0  0
  -24.0015   -7.4638   22.7465 H   0  0  0  0  0  0
  -21.0854   -8.8788   19.8938 H   0  0  0  0  0  0
  -22.3720  -10.9682   19.6162 H   0  0  0  0  0  0
  -21.2002   -7.6145   23.9706 H   0  0  0  0  0  0
  -21.1475   -6.0517   25.9065 H   0  0  0  0  0  0
  -22.0606   -2.7614   23.2832 H   0  0  0  0  0  0
  -22.4122  -11.9866   22.4821 H   0  0  0  0  0  0
  -21.1096  -13.1195   22.2651 H   0  0  0  0  0  0
  -24.6344  -15.8400   20.5082 H   0  0  0  0  0  0
  -26.2560  -15.6420   20.0834 H   0  0  0  0  0  0
  -26.7292  -32.5280   23.1005 H   0  0  0  0  0  0
  -25.0109  -33.9612   25.0329 H   0  0  0  0  0  0
  -22.7601  -31.2808   21.3670 H   0  0  0  0  0  0
  -23.3761  -35.9563   23.3286 H   0  0  0  0  0  0
  -24.3564  -36.8925   22.2056 H   0  0  0  0  0  0
  -23.7225  -37.6435   23.6709 H   0  0  0  0  0  0
  -26.1668  -31.4552   20.6087 H   0  0  0  0  0  0
  -26.8849  -30.7665   22.0276 H   0  0  0  0  0  0
  -28.1403  -28.7690   21.2526 H   0  0  0  0  0  0
  -25.9396  -25.8258   19.0000 H   0  0  0  0  0  0
  -24.0011  -27.2874   18.9706 H   0  0  0  0  0  0
  -23.8265  -30.5515   19.3914 H   0  0  0  0  0  0
  -22.8046  -29.2187   19.8380 H   0  0  0  0  0  0
  -25.1299  -36.1843   25.0798 H   0  0  0  0  0  0
  -20.9994  -28.3304   24.1371 H   0  0  0  0  0  0
  -20.5705  -26.2312   23.3635 H   0  0  0  0  0  0
  -21.6633  -26.7427   22.1189 H   0  0  0  0  0  0
  -19.6920  -25.6277   21.1271 H   0  0  0  0  0  0
  -19.6714  -27.3168   20.6749 H   0  0  0  0  0  0
  -17.4204  -26.6695   21.4012 H   0  0  0  0  0  0
  -18.0280  -26.0096   22.9039 H   0  0  0  0  0  0
  -19.7957  -30.7247   24.2279 H   0  0  0  0  0  0
  -17.5046  -31.6290   24.5117 H   0  0  0  0  0  0
  -15.5363  -30.2983   23.7699 H   0  0  0  0  0  0
  -15.8670  -28.0805   22.7145 H   0  0  0  0  0  0
  -24.5900  -30.7112   25.7749 H   0  0  0  0  0  0
  -24.8864  -32.2949   26.4783 H   0  0  0  0  0  0
  -25.7968  -30.9010   27.0261 H   0  0  0  0  0  0
  -26.3050  -29.6691   24.1337 H   0  0  0  0  0  0
  -27.4026  -29.7296   25.4920 H   0  0  0  0  0  0
  -27.8947  -30.4241   23.9672 H   0  0  0  0  0  0
  -27.2661  -33.3723   26.1991 H   0  0  0  0  0  0
  -28.3918  -32.6852   25.0378 H   0  0  0  0  0  0
  -28.0661  -31.8567   26.5538 H   0  0  0  0  0  0
  -28.2546  -38.0107   24.7541 H   0  0  0  0  0  0
  -28.1107  -36.2635   24.6236 H   0  0  0  0  0  0
  -27.2289  -37.1354   25.8863 H   0  0  0  0  0  0
  -20.9513  -29.8796   21.6815 H   0  0  0  0  0  0
  -26.0135  -38.2808   24.1484 H   0  0  0  0  0  0
  -28.4766  -20.7829   24.7703 H   0  0  0  0  0  0
  -27.0564  -21.9709   20.1369 H   0  0  0  0  0  0
  -27.8484  -21.8726   18.4982 H   0  0  0  0  0  0
  -29.9435  -21.1436   19.5184 H   0  0  0  0  0  0
  -28.8454  -18.9182   26.0608 H   0  0  0  0  0  0
  -30.5497  -18.6097   25.7345 H   0  0  0  0  0  0
  -29.3252  -17.3919   25.3497 H   0  0  0  0  0  0
  -31.3200  -17.2575   23.9771 H   0  0  0  0  0  0
  -31.4836  -17.0188   22.2911 H   0  0  0  0  0  0
  -30.1111  -16.2823   23.1656 H   0  0  0  0  0  0
  -30.5026  -23.0730   18.4991 H   0  0  0  0  0  0
  -30.5312  -24.5546   19.4556 H   0  0  0  0  0  0
  -29.3328  -24.3530   18.1694 H   0  0  0  0  0  0
  -28.4342  -24.1567   23.6670 H   0  0  0  0  0  0
  -29.3503  -22.8919   24.4391 H   0  0  0  0  0  0
  -27.5726  -22.8627   24.4688 H   0  0  0  0  0  0
  -30.9915  -17.8925   20.0664 H   0  0  0  0  0  0
  -29.3783  -18.0227   19.4694 H   0  0  0  0  0  0
  -28.0100  -24.5326   21.5763 H   0  0  0  0  0  0
  -27.0036  -24.3747   20.2216 H   0  0  0  0  0  0
  -28.7847  -15.9552   20.8085 H   0  0  0  0  0  0
  1 25  1  0  0  0
  1 30  2  0  0  0
  1 86  1  0  0  0
  2  3  1  0  0  0
  2 25  1  0  0  0
  2 88  1  0  0  0
  2 89  1  0  0  0
  3  4  1  0  0  0
  3 90  1  0  0  0
  3 91  1  0  0  0
  4  5  1  0  0  0
  4 92  1  0  0  0
  4 93  1  0  0  0
  5  6  1  0  0  0
  5 26  1  0  0  0
  5 94  1  0  0  0
  6 25  1  0  0  0
  6 95  1  0  0  0
  6 96  1  0  0  0
  7  8  2  0  0  0
  7 26  1  0  0  0
  7 29  1  0  0  0
  8  9  1  0  0  0
  8 22  1  0  0  0
  9 10  1  0  0  0
  9 27  2  0  0  0
 10 11  2  0  0  0
 10 15  1  0  0  0
 11 12  1  0  0  0
 11 97  1  0  0  0
 12 13  2  0  0  0
 12 98  1  0  0  0
 13 14  1  0  0  0
 13 31  1  0  0  0
 14 15  2  0  0  0
 14 99  1  0  0  0
 15100  1  0  0  0
 16 17  2  0  0  0
 16 21  1  0  0  0
 16 31  1  0  0  0
 17 18  1  0  0  0
 17101  1  0  0  0
 18 19  2  0  0  0
 18102  1  0  0  0
 19 20  1  0  0  0
 19 24  1  0  0  0
 20 21  2  0  0  0
 20103  1  0  0  0
 21 23  1  0  0  0
 22 28  1  0  0  0
 22 32  2  0  0  0
 26 27  1  0  0  0
 28104  1  0  0  0
 28105  1  0  0  0
 29106  1  0  0  0
 29107  1  0  0  0
 33 34  1  0  0  0
 33 66  1  0  0  0
 33 70  2  0  0  0
 34 36  1  0  0  0
 34 59  1  0  0  0
 34108  1  0  0  0
 35 44  2  0  0  0
 35 45  1  0  0  0
 35 68  1  0  0  0
 36 56  1  0  0  0
 36109  1  0  0  0
 37 39  1  0  0  0
 37 47  1  0  0  0
 37 66  1  0  0  0
 37110  1  0  0  0
 38 43  2  0  0  0
 38 46  1  0  0  0
 38 47  1  0  0  0
 39 64  1  0  0  0
 39 67  2  0  0  0
 40 52  1  0  0  0
 40 53  2  0  0  0
 40 58  1  0  0  0
 41111  1  0  0  0
 41112  1  0  0  0
 41113  1  0  0  0
 41 48  1  0  0  0
 42 43  1  0  0  0
 42 66  1  0  0  0
 42114  1  0  0  0
 42115  1  0  0  0
 43 44  1  0  0  0
 44116  1  0  0  0
 45 46  2  0  0  0
 45117  1  0  0  0
 46118  1  0  0  0
 47119  1  0  0  0
 47120  1  0  0  0
 48 56  1  0  0  0
 48 65  1  0  0  0
 48121  1  0  0  0
 49 50  1  0  0  0
 49 53  1  0  0  0
 49 64  1  0  0  0
 49122  1  0  0  0
 50 51  1  0  0  0
 50123  1  0  0  0
 50124  1  0  0  0
 51 52  1  0  0  0
 51125  1  0  0  0
 51126  1  0  0  0
 52127  1  0  0  0
 52128  1  0  0  0
 53 54  1  0  0  0
 54 55  2  0  0  0
 54129  1  0  0  0
 55 57  1  0  0  0
 55130  1  0  0  0
 56 69  2  0  0  0
 57 58  2  0  0  0
 57131  1  0  0  0
 58132  1  0  0  0
 59 60  1  0  0  0
 59 61  1  0  0  0
 59 62  1  0  0  0
 60133  1  0  0  0
 60134  1  0  0  0
 60135  1  0  0  0
 61136  1  0  0  0
 61137  1  0  0  0
 61138  1  0  0  0
 62139  1  0  0  0
 62140  1  0  0  0
 62141  1  0  0  0
 63 65  1  0  0  0
 63142  1  0  0  0
 63143  1  0  0  0
 63144  1  0  0  0
 64145  1  0  0  0
 65146  1  0  0  0
 68 85  1  0  0  0
 71 73  2  0  0  0
 71 76  1  0  0  0
 71147  1  0  0  0
 72 74  1  0  0  0
 72 76  2  0  0  0
 72 78  1  0  0  0
 73 75  1  0  0  0
 73 80  1  0  0  0
 74 75  2  0  0  0
 74 84  1  0  0  0
 75 81  1  0  0  0
 76 87  1  0  0  0
 77 78  1  0  0  0
 77 79  1  0  0  0
 77148  1  0  0  0
 77149  1  0  0  0
 78 79  1  0  0  0
 78150  1  0  0  0
 79 82  1  0  0  0
 79 85  1  0  0  0
 80151  1  0  0  0
 80152  1  0  0  0
 80153  1  0  0  0
 81154  1  0  0  0
 81155  1  0  0  0
 81156  1  0  0  0
 82157  1  0  0  0
 82158  1  0  0  0
 82159  1  0  0  0
 83 87  1  0  0  0
 83160  1  0  0  0
 83161  1  0  0  0
 83162  1  0  0  0
 84 86  1  0  0  0
 84163  1  0  0  0
 84164  1  0  0  0
 85165  1  0  0  0
 85166  1  0  0  0
 86167  1  0  0  0
M  ISO  4   1 100  68 101  85 101  86 100
M  END
> <chiral flag>
0

> <version>
0

> <s_m_source_file>
/data/baiqing/PycharmProjects/Reinvent-master-3.2/result/LINK_invent/BTK/process_docking_weight1_custom_sum_contain_oxygen_bond_distance_aromatic_linkinvent_7_9_3/rearranged_h_0163.sdf

> <i_m_source_file_index>
65

> <r_mmod_Potential_Energy-OPLS-2005>
764.986938476562

> <r_mmod_Stretch_Energy-OPLS-2005>
359.881225585938

> <r_mmod_Bend_Energy-OPLS-2005>
369.225036621094

> <r_mmod_Torsional_Energy-OPLS-2005>
281.991790771484

> <r_mmod_Improper_Torsional_Energy-OPLS-2005>
4.72446250915527

> <r_mmod_Van_der_Waal_Energy-OPLS-2005>
164.06526184082

> <r_mmod_Electrostatic_Energy-OPLS-2005>
-426.652038574219

> <r_mmod_Solvation_Energy-OPLS-2005>
-207.408264160156

> <b_mmod_Minimization_Converged-OPLS-2005>
0

> <r_mmod_RMS_Derivative-OPLS-2005>
2.29536175727844

$$$$
65
                    3D
 Structure written by MMmdl.
188198  0  0  1  0            999 V2000
  -30.5960  -14.5359   20.4282 C   0  0  0  0  0  0
  -30.4456  -12.2875   19.4531 C   0  0  0  0  0  0
  -29.4981  -12.3778   18.2319 C   0  0  0  0  0  0
  -28.0215  -12.2678   18.6591 C   0  0  0  0  0  0
  -27.6751  -13.1388   19.8884 C   0  0  2  0  0  0
  -28.7189  -12.9789   21.0113 C   0  0  0  0  0  0
  -25.2797  -13.7945   20.5779 C   0  0  0  0  0  0
  -24.1992  -13.0362   20.9191 C   0  0  0  0  0  0
  -24.6441  -11.6790   20.8864 C   0  0  0  0  0  0
  -23.9006  -10.4246   21.0454 C   0  0  0  0  0  0
  -24.3547   -9.4147   21.9235 C   0  0  0  0  0  0
  -23.6229   -8.2202   22.0775 C   0  0  0  0  0  0
  -22.4228   -8.0298   21.3544 C   0  0  0  0  0  0
  -21.9856   -9.0238   20.4642 C   0  0  0  0  0  0
  -22.7170  -10.2120   20.3069 C   0  0  0  0  0  0
  -21.6853   -6.0734   22.5272 C   0  0  0  0  0  0
  -21.4036   -6.5632   23.8212 C   0  0  0  0  0  0
  -21.3633   -5.6785   24.9166 C   0  0  0  0  0  0
  -21.6037   -4.3047   24.7252 C   0  0  0  0  0  0
  -21.8815   -3.8137   23.4380 C   0  0  0  0  0  0
  -21.9212   -4.6953   22.3425 C   0  0  0  0  0  0
  -22.8034  -13.5226   21.1759 C   0  0  0  0  0  0
  -22.1694   -4.2175   21.1003 F   0  0  0  0  0  0
  -21.5636   -3.4511   25.7743 F   0  0  0  0  0  0
  -30.0248  -13.3045   20.4237 N   0  0  0  0  0  0
  -26.3160  -12.9002   20.3473 N   0  0  0  0  0  0
  -25.9348  -11.6223   20.5935 N   0  0  0  0  0  0
  -22.0623  -12.8291   22.0315 N   0  0  0  0  0  0
  -25.4611  -15.1654   20.4169 N   0  0  0  0  0  0
  -31.7851  -14.7037   20.1481 O   0  0  0  0  0  0
  -21.6605   -6.8900   21.4260 O   0  0  0  0  0  0
  -22.3768  -14.5493   20.6539 O   0  0  0  0  0  0
  -24.5980  -31.8749   23.2203 C   0  0  0  0  0  0
  -25.8908  -32.4903   23.8410 C   0  0  1  0  0  0
  -27.2637  -27.5204   20.0866 C   0  0  0  0  0  0
  -25.5831  -33.8706   24.2374 N   0  0  0  0  0  0
  -23.3917  -30.4888   21.5584 C   0  0  2  0  0  0
  -24.8515  -28.9900   20.0839 C   0  0  0  0  0  0
  -22.7402  -29.4665   22.5077 C   0  0  0  0  0  0
  -18.0329  -28.1275   22.8557 C   0  0  0  0  0  0
  -24.1486  -36.7361   23.2632 C   0  0  0  0  0  0
  -25.9069  -30.8510   21.3754 C   0  0  0  0  0  0
  -25.9879  -29.4929   20.7263 C   0  0  0  0  0  0
  -27.1854  -28.7571   20.7470 C   0  0  0  0  0  0
  -26.1421  -27.0702   19.3476 C   0  0  0  0  0  0
  -24.9285  -27.7851   19.3661 C   0  0  0  0  0  0
  -23.5829  -29.8079   20.1700 C   0  0  0  0  0  0
  -25.4141  -36.3166   24.0324 C   0  0  1  0  0  0
  -20.5902  -28.3710   23.1434 C   0  0  2  0  0  0
  -20.6866  -26.9385   22.5673 C   0  0  0  0  0  0
  -19.5839  -26.6350   21.5444 C   0  0  0  0  0  0
  -18.2033  -26.7749   22.1943 C   0  0  0  0  0  0
  -19.1526  -28.8816   23.2857 C   0  0  0  0  0  0
  -18.9446  -30.1427   23.8834 C   0  0  0  0  0  0
  -17.6406  -30.6485   24.0514 C   0  0  0  0  0  0
  -25.9033  -34.9517   23.5136 C   0  0  0  0  0  0
  -16.5297  -29.8937   23.6327 C   0  0  0  0  0  0
  -16.7286  -28.6342   23.0364 C   0  0  0  0  0  0
  -26.4402  -31.6641   25.0716 C   0  0  0  0  0  0
  -25.3718  -31.3726   26.1502 C   0  0  0  0  0  0
  -27.0281  -30.3111   24.6056 C   0  0  0  0  0  0
  -27.5999  -32.4318   25.7518 C   0  0  0  0  0  0
  -27.5607  -37.1858   24.8467 C   0  0  0  0  0  0
  -21.4188  -29.2974   22.3794 N   0  0  0  0  0  0
  -26.4344  -37.3833   23.9378 N   0  0  0  0  0  0
  -24.6484  -31.0854   22.1088 N   0  0  0  0  0  0
  -23.4203  -28.8351   23.3206 O   0  0  0  0  0  0
  -28.4525  -26.8467   20.1802 O   0  0  0  0  0  0
  -26.5584  -34.8934   22.4702 O   0  0  0  0  0  0
  -23.5205  -32.1402   23.7662 O   0  0  0  0  0  0
  -26.7492  -22.5146   20.3839 C   0  0  0  0  0  0
  -27.6012  -21.8293   21.3078 C   0  0  0  0  0  0
  -26.5694  -23.8979   20.5360 C   0  0  0  0  0  0
  -26.1662  -21.8595   19.2601 C   0  0  0  0  0  0
  -28.3352  -22.6247   22.2689 C   0  0  0  0  0  0
  -27.7085  -20.4050   21.1476 C   0  0  0  0  0  0
  -28.4237  -24.0337   22.0456 C   0  0  0  0  0  0
  -27.6721  -24.6193   21.0062 C   0  0  0  0  0  0
  -26.6365  -20.5636   18.9465 C   0  0  0  0  0  0
  -27.4535  -19.8483   19.8670 C   0  0  0  0  0  0
  -28.5559  -16.9657   17.0991 C   0  0  0  0  0  0
  -29.9631  -16.4308   17.3897 C   0  0  0  0  0  0
  -27.6344  -16.8572   18.3345 C   0  0  0  0  0  0
  -30.5999  -17.0908   18.6219 C   0  0  1  0  0  0
  -29.7083  -16.9366   19.9017 C   0  0  2  0  0  0
  -28.2503  -17.4790   19.6160 C   0  0  2  0  0  0
  -25.1715  -24.4843   20.7047 C   0  0  0  0  0  0
  -25.2838  -22.5916   18.2385 C   0  0  0  0  0  0
  -29.2698  -22.0422   23.3275 C   0  0  0  0  0  0
  -28.0321  -19.4320   22.2834 C   0  0  0  0  0  0
  -29.4161  -24.9151   22.8013 C   0  0  0  0  0  0
  -26.3148  -19.9825   17.5723 C   0  0  0  0  0  0
  -31.0207  -18.5315   18.3046 C   0  0  0  0  0  0
  -28.4472  -25.4489   19.9673 C   0  0  0  0  0  0
  -29.6893  -15.5481   20.4637 N   0  0  0  0  0  0
  -28.3181  -18.8891   19.3612 O   0  0  0  0  0  0
  -31.4829  -12.4056   19.1365 H   0  0  0  0  0  0
  -30.3976  -11.3037   19.9294 H   0  0  0  0  0  0
  -29.7364  -11.5887   17.5194 H   0  0  0  0  0  0
  -29.6441  -13.3083   17.6898 H   0  0  0  0  0  0
  -27.8440  -11.2184   18.8954 H   0  0  0  0  0  0
  -27.3540  -12.5041   17.8306 H   0  0  0  0  0  0
  -27.7241  -14.1677   19.5747 H   0  0  0  0  0  0
  -28.7168  -11.9522   21.3910 H   0  0  0  0  0  0
  -28.4832  -13.6144   21.8677 H   0  0  0  0  0  0
  -25.2704   -9.5647   22.4817 H   0  0  0  0  0  0
  -23.9951   -7.4592   22.7453 H   0  0  0  0  0  0
  -21.0815   -8.8753   19.8904 H   0  0  0  0  0  0
  -22.3638  -10.9709   19.6203 H   0  0  0  0  0  0
  -21.2052   -7.6151   23.9751 H   0  0  0  0  0  0
  -21.1411   -6.0498   25.9078 H   0  0  0  0  0  0
  -22.0612   -2.7624   23.2840 H   0  0  0  0  0  0
  -22.4107  -11.9960   22.4848 H   0  0  0  0  0  0
  -21.1267  -13.1462   22.2396 H   0  0  0  0  0  0
  -24.6926  -15.8211   20.5100 H   0  0  0  0  0  0
  -26.2978  -15.5858   20.0452 H   0  0  0  0  0  0
  -26.6971  -32.5603   23.1159 H   0  0  0  0  0  0
  -25.0019  -33.9890   25.0533 H   0  0  0  0  0  0
  -22.6697  -31.3001   21.4172 H   0  0  0  0  0  0
  -23.3750  -35.9682   23.3354 H   0  0  0  0  0  0
  -24.3491  -36.8938   22.2019 H   0  0  0  0  0  0
  -23.7279  -37.6606   23.6616 H   0  0  0  0  0  0
  -25.9950  -31.6143   20.6059 H   0  0  0  0  0  0
  -26.7990  -30.9157   21.9851 H   0  0  0  0  0  0
  -28.0578  -29.1302   21.2651 H   0  0  0  0  0  0
  -26.2064  -26.1926   18.7200 H   0  0  0  0  0  0
  -24.0851  -27.4434   18.7806 H   0  0  0  0  0  0
  -23.6289  -30.5730   19.3978 H   0  0  0  0  0  0
  -22.7237  -29.1843   19.9085 H   0  0  0  0  0  0
  -25.1311  -36.2044   25.0829 H   0  0  0  0  0  0
  -20.9782  -28.3364   24.1615 H   0  0  0  0  0  0
  -20.5822  -26.2277   23.3924 H   0  0  0  0  0  0
  -21.6802  -26.7510   22.1550 H   0  0  0  0  0  0
  -19.7075  -25.6259   21.1488 H   0  0  0  0  0  0
  -19.6771  -27.3127   20.6911 H   0  0  0  0  0  0
  -17.4230  -26.6291   21.4494 H   0  0  0  0  0  0
  -18.0599  -26.0106   22.9594 H   0  0  0  0  0  0
  -19.7870  -30.7316   24.2193 H   0  0  0  0  0  0
  -17.4897  -31.6194   24.5084 H   0  0  0  0  0  0
  -15.5257  -30.2763   23.7692 H   0  0  0  0  0  0
  -15.8729  -28.0656   22.7069 H   0  0  0  0  0  0
  -24.5827  -30.7164   25.7836 H   0  0  0  0  0  0
  -24.9011  -32.2897   26.5036 H   0  0  0  0  0  0
  -25.8087  -30.8794   27.0204 H   0  0  0  0  0  0
  -26.2804  -29.6864   24.1207 H   0  0  0  0  0  0
  -27.4172  -29.7349   25.4457 H   0  0  0  0  0  0
  -27.8547  -30.4459   23.9107 H   0  0  0  0  0  0
  -27.2614  -33.3541   26.2228 H   0  0  0  0  0  0
  -28.3795  -32.7024   25.0399 H   0  0  0  0  0  0
  -28.0699  -31.8403   26.5371 H   0  0  0  0  0  0
  -28.2704  -38.0082   24.7514 H   0  0  0  0  0  0
  -28.1024  -36.2655   24.6303 H   0  0  0  0  0  0
  -27.2280  -37.1516   25.8846 H   0  0  0  0  0  0
  -20.9398  -29.8527   21.6883 H   0  0  0  0  0  0
  -26.0250  -38.2941   24.1296 H   0  0  0  0  0  0
  -28.1277  -16.4182   16.2612 H   0  0  0  0  0  0
  -28.6296  -18.0028   16.7669 H   0  0  0  0  0  0
  -30.6149  -16.5700   16.5249 H   0  0  0  0  0  0
  -29.9125  -15.3645   17.5485 H   0  0  0  0  0  0
  -27.4085  -15.8111   18.4841 H   0  0  0  0  0  0
  -26.6659  -17.3113   18.1311 H   0  0  0  0  0  0
  -31.5536  -16.6087   18.7904 H   0  0  0  0  0  0
  -30.1422  -17.5646   20.6815 H   0  0  0  0  0  0
  -27.5886  -17.2679   20.4520 H   0  0  0  0  0  0
  -24.7674  -24.9026   19.7877 H   0  0  0  0  0  0
  -25.1407  -25.2594   21.4756 H   0  0  0  0  0  0
  -24.4947  -23.6915   21.0261 H   0  0  0  0  0  0
  -24.5421  -23.2520   18.6699 H   0  0  0  0  0  0
  -24.6654  -21.9068   17.6628 H   0  0  0  0  0  0
  -25.8903  -23.1724   17.5399 H   0  0  0  0  0  0
  -28.8723  -21.1883   23.8574 H   0  0  0  0  0  0
  -29.4552  -22.7487   24.1346 H   0  0  0  0  0  0
  -30.2275  -21.7776   22.8727 H   0  0  0  0  0  0
  -27.5885  -18.4525   22.1169 H   0  0  0  0  0  0
  -27.5145  -19.7330   23.1946 H   0  0  0  0  0  0
  -29.0996  -19.2990   22.4493 H   0  0  0  0  0  0
  -29.1956  -24.9575   23.8687 H   0  0  0  0  0  0
  -29.3924  -25.9476   22.4420 H   0  0  0  0  0  0
  -30.4393  -24.5579   22.6722 H   0  0  0  0  0  0
  -25.3680  -19.4381   17.5915 H   0  0  0  0  0  0
  -27.0971  -19.3280   17.2413 H   0  0  0  0  0  0
  -26.2482  -20.7364   16.7867 H   0  0  0  0  0  0
  -31.7976  -18.5165   17.5430 H   0  0  0  0  0  0
  -31.4375  -19.0214   19.1798 H   0  0  0  0  0  0
  -30.2042  -19.1515   17.9338 H   0  0  0  0  0  0
  -28.1294  -25.2090   18.9504 H   0  0  0  0  0  0
  -29.4980  -25.1423   19.9912 H   0  0  0  0  0  0
  -28.7936  -15.2509   20.8277 H   0  0  0  0  0  0
  1 25  1  0  0  0
  1 30  2  0  0  0
  1 95  1  0  0  0
  2  3  1  0  0  0
  2 25  1  0  0  0
  2 97  1  0  0  0
  2 98  1  0  0  0
  3  4  1  0  0  0
  3 99  1  0  0  0
  3100  1  0  0  0
  4  5  1  0  0  0
  4101  1  0  0  0
  4102  1  0  0  0
  5  6  1  0  0  0
  5 26  1  0  0  0
  5103  1  0  0  0
  6 25  1  0  0  0
  6104  1  0  0  0
  6105  1  0  0  0
  7  8  2  0  0  0
  7 26  1  0  0  0
  7 29  1  0  0  0
  8  9  1  0  0  0
  8 22  1  0  0  0
  9 10  1  0  0  0
  9 27  2  0  0  0
 10 11  2  0  0  0
 10 15  1  0  0  0
 11 12  1  0  0  0
 11106  1  0  0  0
 12 13  2  0  0  0
 12107  1  0  0  0
 13 14  1  0  0  0
 13 31  1  0  0  0
 14 15  2  0  0  0
 14108  1  0  0  0
 15109  1  0  0  0
 16 17  2  0  0  0
 16 21  1  0  0  0
 16 31  1  0  0  0
 17 18  1  0  0  0
 17110  1  0  0  0
 18 19  2  0  0  0
 18111  1  0  0  0
 19 20  1  0  0  0
 19 24  1  0  0  0
 20 21  2  0  0  0
 20112  1  0  0  0
 21 23  1  0  0  0
 22 28  1  0  0  0
 22 32  2  0  0  0
 26 27  1  0  0  0
 28113  1  0  0  0
 28114  1  0  0  0
 29115  1  0  0  0
 29116  1  0  0  0
 33 34  1  0  0  0
 33 66  1  0  0  0
 33 70  2  0  0  0
 34 36  1  0  0  0
 34 59  1  0  0  0
 34117  1  0  0  0
 35 44  2  0  0  0
 35 45  1  0  0  0
 35 68  1  0  0  0
 36 56  1  0  0  0
 36118  1  0  0  0
 37 39  1  0  0  0
 37 47  1  0  0  0
 37 66  1  0  0  0
 37119  1  0  0  0
 38 43  2  0  0  0
 38 46  1  0  0  0
 38 47  1  0  0  0
 39 64  1  0  0  0
 39 67  2  0  0  0
 40 52  1  0  0  0
 40 53  2  0  0  0
 40 58  1  0  0  0
 41120  1  0  0  0
 41121  1  0  0  0
 41122  1  0  0  0
 41 48  1  0  0  0
 42 43  1  0  0  0
 42 66  1  0  0  0
 42123  1  0  0  0
 42124  1  0  0  0
 43 44  1  0  0  0
 44125  1  0  0  0
 45 46  2  0  0  0
 45126  1  0  0  0
 46127  1  0  0  0
 47128  1  0  0  0
 47129  1  0  0  0
 48 56  1  0  0  0
 48 65  1  0  0  0
 48130  1  0  0  0
 49 50  1  0  0  0
 49 53  1  0  0  0
 49 64  1  0  0  0
 49131  1  0  0  0
 50 51  1  0  0  0
 50132  1  0  0  0
 50133  1  0  0  0
 51 52  1  0  0  0
 51134  1  0  0  0
 51135  1  0  0  0
 52136  1  0  0  0
 52137  1  0  0  0
 53 54  1  0  0  0
 54 55  2  0  0  0
 54138  1  0  0  0
 55 57  1  0  0  0
 55139  1  0  0  0
 56 69  2  0  0  0
 57 58  2  0  0  0
 57140  1  0  0  0
 58141  1  0  0  0
 59 60  1  0  0  0
 59 61  1  0  0  0
 59 62  1  0  0  0
 60142  1  0  0  0
 60143  1  0  0  0
 60144  1  0  0  0
 61145  1  0  0  0
 61146  1  0  0  0
 61147  1  0  0  0
 62148  1  0  0  0
 62149  1  0  0  0
 62150  1  0  0  0
 63 65  1  0  0  0
 63151  1  0  0  0
 63152  1  0  0  0
 63153  1  0  0  0
 64154  1  0  0  0
 65155  1  0  0  0
 68 94  1  0  0  0
 71 72  1  0  0  0
 71 73  2  0  0  0
 71 74  1  0  0  0
 72 75  2  0  0  0
 72 76  1  0  0  0
 73 78  1  0  0  0
 73 87  1  0  0  0
 74 79  2  0  0  0
 74 88  1  0  0  0
 75 77  1  0  0  0
 75 89  1  0  0  0
 76 80  2  0  0  0
 76 90  1  0  0  0
 77 78  2  0  0  0
 77 91  1  0  0  0
 78 94  1  0  0  0
 79 80  1  0  0  0
 79 92  1  0  0  0
 80 96  1  0  0  0
 81 82  1  0  0  0
 81 83  1  0  0  0
 81156  1  0  0  0
 81157  1  0  0  0
 82 84  1  0  0  0
 82158  1  0  0  0
 82159  1  0  0  0
 83 86  1  0  0  0
 83160  1  0  0  0
 83161  1  0  0  0
 84 85  1  0  0  0
 84 93  1  0  0  0
 84162  1  0  0  0
 85 86  1  0  0  0
 85 95  1  0  0  0
 85163  1  0  0  0
 86 96  1  0  0  0
 86164  1  0  0  0
 87165  1  0  0  0
 87166  1  0  0  0
 87167  1  0  0  0
 88168  1  0  0  0
 88169  1  0  0  0
 88170  1  0  0  0
 89171  1  0  0  0
 89172  1  0  0  0
 89173  1  0  0  0
 90174  1  0  0  0
 90175  1  0  0  0
 90176  1  0  0  0
 91177  1  0  0  0
 91178  1  0  0  0
 91179  1  0  0  0
 92180  1  0  0  0
 92181  1  0  0  0
 92182  1  0  0  0
 93183  1  0  0  0
 93184  1  0  0  0
 93185  1  0  0  0
 94186  1  0  0  0
 94187  1  0  0  0
 95188  1  0  0  0
M  ISO  4   1 100  68 101  94 101  95 100
M  END
> <chiral flag>
0

> <version>
0

> <s_m_source_file>
/data/baiqing/PycharmProjects/Reinvent-master-3.2/result/LINK_invent/BTK/process_docking_weight1_custom_sum_contain_oxygen_bond_distance_aromatic_linkinvent_7_9_3/rearranged_h_0163.sdf

> <i_m_source_file_index>
66

> <r_mmod_Potential_Energy-OPLS-2005>
410.839080810547

> <r_mmod_Stretch_Energy-OPLS-2005>
58.456916809082

> <r_mmod_Bend_Energy-OPLS-2005>
159.482543945312

> <r_mmod_Torsional_Energy-OPLS-2005>
576.077575683594

> <r_mmod_Improper_Torsional_Energy-OPLS-2005>
32.9257774353027

> <r_mmod_Van_der_Waal_Energy-OPLS-2005>
216.309371948242

> <r_mmod_Electrostatic_Energy-OPLS-2005>
-470.099334716797

> <r_mmod_Solvation_Energy-OPLS-2005>
-199.923751831055

> <b_mmod_Minimization_Converged-OPLS-2005>
0

> <r_mmod_RMS_Derivative-OPLS-2005>
12.3704481124878

$$$$
66
                    3D
 Structure written by MMmdl.
177187  0  0  1  0            999 V2000
  -30.7247  -14.4028   20.5846 C   0  0  0  0  0  0
  -30.4153  -12.2728   19.4025 C   0  0  0  0  0  0
  -29.4830  -12.5001   18.1963 C   0  0  0  0  0  0
  -28.0052  -12.3701   18.6135 C   0  0  0  0  0  0
  -27.6629  -13.1952   19.8818 C   0  0  2  0  0  0
  -28.7064  -12.9529   20.9956 C   0  0  0  0  0  0
  -25.2610  -13.8137   20.5721 C   0  0  0  0  0  0
  -24.1833  -13.0419   20.9174 C   0  0  0  0  0  0
  -24.6381  -11.6888   20.8760 C   0  0  0  0  0  0
  -23.9052  -10.4278   21.0419 C   0  0  0  0  0  0
  -24.3604   -9.4201   21.9201 C   0  0  0  0  0  0
  -23.6271   -8.2235   22.0771 C   0  0  0  0  0  0
  -22.4251   -8.0279   21.3556 C   0  0  0  0  0  0
  -21.9905   -9.0251   20.4643 C   0  0  0  0  0  0
  -22.7241  -10.2125   20.3055 C   0  0  0  0  0  0
  -21.6841   -6.0732   22.5280 C   0  0  0  0  0  0
  -21.4005   -6.5637   23.8211 C   0  0  0  0  0  0
  -21.3658   -5.6796   24.9181 C   0  0  0  0  0  0
  -21.6042   -4.3064   24.7225 C   0  0  0  0  0  0
  -21.8825   -3.8149   23.4352 C   0  0  0  0  0  0
  -21.9186   -4.6963   22.3410 C   0  0  0  0  0  0
  -22.7865  -13.5242   21.1833 C   0  0  0  0  0  0
  -22.1658   -4.2146   21.0985 F   0  0  0  0  0  0
  -21.5632   -3.4545   25.7738 F   0  0  0  0  0  0
  -30.0410  -13.2417   20.4411 N   0  0  0  0  0  0
  -26.3030  -12.9277   20.3414 N   0  0  0  0  0  0
  -25.9306  -11.6452   20.5796 N   0  0  0  0  0  0
  -22.0485  -12.8225   22.0364 N   0  0  0  0  0  0
  -25.4372  -15.1851   20.4221 N   0  0  0  0  0  0
  -31.8529  -14.5879   20.1148 O   0  0  0  0  0  0
  -21.6631   -6.8872   21.4236 O   0  0  0  0  0  0
  -22.3564  -14.5558   20.6685 O   0  0  0  0  0  0
  -24.6071  -31.8725   23.2153 C   0  0  0  0  0  0
  -25.8978  -32.4855   23.8439 C   0  0  1  0  0  0
  -27.2414  -27.4929   20.0842 C   0  0  0  0  0  0
  -25.5854  -33.8657   24.2358 N   0  0  0  0  0  0
  -23.3909  -30.4936   21.5562 C   0  0  2  0  0  0
  -24.8358  -28.9587   20.1224 C   0  0  0  0  0  0
  -22.7347  -29.4688   22.5073 C   0  0  0  0  0  0
  -18.0248  -28.1363   22.8522 C   0  0  0  0  0  0
  -24.1479  -36.7346   23.2638 C   0  0  0  0  0  0
  -25.9131  -30.8523   21.3602 C   0  0  0  0  0  0
  -25.9897  -29.4895   20.7098 C   0  0  0  0  0  0
  -27.1929  -28.7621   20.6881 C   0  0  0  0  0  0
  -26.0726  -26.9549   19.5003 C   0  0  0  0  0  0
  -24.8694  -27.6870   19.5188 C   0  0  0  0  0  0
  -23.5940  -29.8156   20.1735 C   0  0  0  0  0  0
  -25.4104  -36.3148   24.0343 C   0  0  1  0  0  0
  -20.5821  -28.3645   23.1377 C   0  0  2  0  0  0
  -20.6754  -26.9405   22.5412 C   0  0  0  0  0  0
  -19.5717  -26.6382   21.5227 C   0  0  0  0  0  0
  -18.1898  -26.7919   22.1631 C   0  0  0  0  0  0
  -19.1490  -28.8826   23.2939 C   0  0  0  0  0  0
  -18.9419  -30.1447   23.8929 C   0  0  0  0  0  0
  -17.6422  -30.6596   24.0548 C   0  0  0  0  0  0
  -25.9027  -34.9496   23.5153 C   0  0  0  0  0  0
  -16.5317  -29.9090   23.6315 C   0  0  0  0  0  0
  -16.7234  -28.6479   23.0382 C   0  0  0  0  0  0
  -26.4416  -31.6628   25.0753 C   0  0  0  0  0  0
  -25.3668  -31.3636   26.1465 C   0  0  0  0  0  0
  -27.0293  -30.3103   24.6089 C   0  0  0  0  0  0
  -27.6000  -32.4324   25.7526 C   0  0  0  0  0  0
  -27.5576  -37.1851   24.8454 C   0  0  0  0  0  0
  -21.4082  -29.3041   22.3821 N   0  0  0  0  0  0
  -26.4295  -37.3826   23.9383 N   0  0  0  0  0  0
  -24.6554  -31.0866   22.1024 N   0  0  0  0  0  0
  -23.4153  -28.8231   23.3084 O   0  0  0  0  0  0
  -28.4576  -26.8655   20.0377 O   0  0  0  0  0  0
  -26.5606  -34.8933   22.4722 O   0  0  0  0  0  0
  -23.5289  -32.1441   23.7603 O   0  0  0  0  0  0
  -31.6402  -18.7501   20.9814 C   0  0  0  0  0  0
  -31.3711  -17.4306   21.3832 C   0  0  0  0  0  0
  -29.6695  -18.7056   19.5366 C   0  0  0  0  0  0
  -30.7980  -19.3814   20.0462 C   0  0  0  0  0  0
  -30.2680  -16.7412   20.8377 C   0  0  0  0  0  0
  -29.3919  -17.3744   19.9283 C   0  0  0  0  0  0
  -28.9681  -24.8201   18.9498 C   0  0  0  0  0  0
  -29.4031  -23.3749   19.1795 C   0  0  0  0  0  0
  -29.4672  -25.2672   21.4663 C   0  0  0  0  0  0
  -31.9283  -23.8557   19.5689 C   0  0  0  0  0  0
  -30.6827  -24.3591   21.2274 C   0  0  1  0  0  0
  -28.5165  -25.4698   20.2617 C   0  0  1  0  0  0
  -30.6151  -23.2751   20.1274 C   0  0  1  0  0  0
  -32.0229  -24.9168   20.6735 C   0  0  0  0  0  0
  -33.2345  -24.7502   21.5954 C   0  0  0  0  0  0
  -32.0600  -26.3759   20.1898 C   0  0  0  0  0  0
  -27.4743  -17.2316   18.4818 C   0  0  0  0  0  0
  -31.0959  -20.7927   19.5889 C   0  0  0  0  0  0
  -30.6791  -21.8290   20.6454 C   0  0  0  0  0  0
  -30.0388  -15.3907   21.1703 N   0  0  0  0  0  0
  -28.3294  -16.6365   19.4501 O   0  0  0  0  0  0
  -31.4584  -12.3673   19.0937 H   0  0  0  0  0  0
  -30.3100  -11.2566   19.7853 H   0  0  0  0  0  0
  -29.7096  -11.7836   17.4051 H   0  0  0  0  0  0
  -29.6559  -13.4899   17.7725 H   0  0  0  0  0  0
  -27.8005  -11.3140   18.7914 H   0  0  0  0  0  0
  -27.3567  -12.6681   17.7890 H   0  0  0  0  0  0
  -27.7115  -14.2420   19.5939 H   0  0  0  0  0  0
  -28.6720  -11.9144   21.3283 H   0  0  0  0  0  0
  -28.4786  -13.5455   21.8831 H   0  0  0  0  0  0
  -25.2741   -9.5675   22.4797 H   0  0  0  0  0  0
  -23.9972   -7.4631   22.7510 H   0  0  0  0  0  0
  -21.0844   -8.8769   19.8942 H   0  0  0  0  0  0
  -22.3710  -10.9668   19.6165 H   0  0  0  0  0  0
  -21.1995   -7.6146   23.9712 H   0  0  0  0  0  0
  -21.1478   -6.0531   25.9081 H   0  0  0  0  0  0
  -22.0604   -2.7606   23.2857 H   0  0  0  0  0  0
  -22.4071  -11.9861   22.4721 H   0  0  0  0  0  0
  -21.1117  -13.1270   22.2564 H   0  0  0  0  0  0
  -24.6784  -15.8460   20.5530 H   0  0  0  0  0  0
  -26.3125  -15.6258   20.1630 H   0  0  0  0  0  0
  -26.7070  -32.5571   23.1251 H   0  0  0  0  0  0
  -24.9949  -33.9827   25.0458 H   0  0  0  0  0  0
  -22.6738  -31.3051   21.4167 H   0  0  0  0  0  0
  -23.3756  -35.9664   23.3294 H   0  0  0  0  0  0
  -24.3550  -36.8953   22.2044 H   0  0  0  0  0  0
  -23.7222  -37.6548   23.6658 H   0  0  0  0  0  0
  -26.0143  -31.6224   20.5949 H   0  0  0  0  0  0
  -26.8056  -30.9099   21.9727 H   0  0  0  0  0  0
  -28.0885  -29.1747   21.1311 H   0  0  0  0  0  0
  -26.0908  -25.9919   19.0106 H   0  0  0  0  0  0
  -23.9823  -27.2695   19.0634 H   0  0  0  0  0  0
  -23.6911  -30.5817   19.4039 H   0  0  0  0  0  0
  -22.7220  -29.2227   19.8898 H   0  0  0  0  0  0
  -25.1298  -36.2050   25.0848 H   0  0  0  0  0  0
  -20.9897  -28.3202   24.1504 H   0  0  0  0  0  0
  -20.5726  -26.2241   23.3576 H   0  0  0  0  0  0
  -21.6627  -26.7518   22.1159 H   0  0  0  0  0  0
  -19.6879  -25.6296   21.1262 H   0  0  0  0  0  0
  -19.6677  -27.3190   20.6758 H   0  0  0  0  0  0
  -17.4186  -26.6722   21.4013 H   0  0  0  0  0  0
  -18.0260  -26.0045   22.8999 H   0  0  0  0  0  0
  -19.7892  -30.7252   24.2328 H   0  0  0  0  0  0
  -17.4974  -31.6299   24.5108 H   0  0  0  0  0  0
  -15.5316  -30.3008   23.7610 H   0  0  0  0  0  0
  -15.8626  -28.0788   22.7135 H   0  0  0  0  0  0
  -24.5848  -30.7028   25.7702 H   0  0  0  0  0  0
  -24.8868  -32.2750   26.5030 H   0  0  0  0  0  0
  -25.8005  -30.8662   27.0144 H   0  0  0  0  0  0
  -26.2866  -29.6869   24.1095 H   0  0  0  0  0  0
  -27.4039  -29.7339   25.4563 H   0  0  0  0  0  0
  -27.8692  -30.4486   23.9270 H   0  0  0  0  0  0
  -27.2629  -33.3598   26.2159 H   0  0  0  0  0  0
  -28.3783  -32.6892   25.0333 H   0  0  0  0  0  0
  -28.0679  -31.8386   26.5384 H   0  0  0  0  0  0
  -28.2613  -38.0136   24.7535 H   0  0  0  0  0  0
  -28.1076  -36.2684   24.6299 H   0  0  0  0  0  0
  -27.2269  -37.1487   25.8846 H   0  0  0  0  0  0
  -20.9245  -29.8750   21.7036 H   0  0  0  0  0  0
  -26.0210  -38.2920   24.1356 H   0  0  0  0  0  0
  -32.4966  -19.2739   21.3843 H   0  0  0  0  0  0
  -32.0255  -16.9427   22.0915 H   0  0  0  0  0  0
  -29.0317  -19.2221   18.8345 H   0  0  0  0  0  0
  -28.1626  -24.8626   18.2172 H   0  0  0  0  0  0
  -29.7902  -25.3853   18.5139 H   0  0  0  0  0  0
  -29.6246  -22.9258   18.2112 H   0  0  0  0  0  0
  -28.5472  -22.8250   19.5783 H   0  0  0  0  0  0
  -29.7975  -26.2326   21.8524 H   0  0  0  0  0  0
  -28.8705  -24.8500   22.2788 H   0  0  0  0  0  0
  -31.8251  -24.2805   18.5696 H   0  0  0  0  0  0
  -32.7643  -23.1540   19.5768 H   0  0  0  0  0  0
  -30.9172  -23.8785   22.1802 H   0  0  0  0  0  0
  -27.5474  -25.0524   20.5403 H   0  0  0  0  0  0
  -33.3770  -23.7110   21.8918 H   0  0  0  0  0  0
  -33.1294  -25.3325   22.5117 H   0  0  0  0  0  0
  -34.1553  -25.0689   21.1060 H   0  0  0  0  0  0
  -31.1112  -26.7138   19.7788 H   0  0  0  0  0  0
  -32.8080  -26.5134   19.4079 H   0  0  0  0  0  0
  -32.3123  -27.0658   20.9969 H   0  0  0  0  0  0
  -26.7361  -16.5002   18.1541 H   0  0  0  0  0  0
  -28.0177  -17.5567   17.5935 H   0  0  0  0  0  0
  -26.9320  -18.0792   18.9029 H   0  0  0  0  0  0
  -30.5841  -20.9601   18.6431 H   0  0  0  0  0  0
  -32.1603  -20.8864   19.3727 H   0  0  0  0  0  0
  -29.7078  -21.5505   21.0596 H   0  0  0  0  0  0
  -31.3721  -21.7529   21.4848 H   0  0  0  0  0  0
  -29.0872  -15.1491   21.4009 H   0  0  0  0  0  0
  1 25  1  0  0  0
  1 30  2  0  0  0
  1 90  1  0  0  0
  2  3  1  0  0  0
  2 25  1  0  0  0
  2 92  1  0  0  0
  2 93  1  0  0  0
  3  4  1  0  0  0
  3 94  1  0  0  0
  3 95  1  0  0  0
  4  5  1  0  0  0
  4 96  1  0  0  0
  4 97  1  0  0  0
  5  6  1  0  0  0
  5 26  1  0  0  0
  5 98  1  0  0  0
  6 25  1  0  0  0
  6 99  1  0  0  0
  6100  1  0  0  0
  7  8  2  0  0  0
  7 26  1  0  0  0
  7 29  1  0  0  0
  8  9  1  0  0  0
  8 22  1  0  0  0
  9 10  1  0  0  0
  9 27  2  0  0  0
 10 11  2  0  0  0
 10 15  1  0  0  0
 11 12  1  0  0  0
 11101  1  0  0  0
 12 13  2  0  0  0
 12102  1  0  0  0
 13 14  1  0  0  0
 13 31  1  0  0  0
 14 15  2  0  0  0
 14103  1  0  0  0
 15104  1  0  0  0
 16 17  2  0  0  0
 16 21  1  0  0  0
 16 31  1  0  0  0
 17 18  1  0  0  0
 17105  1  0  0  0
 18 19  2  0  0  0
 18106  1  0  0  0
 19 20  1  0  0  0
 19 24  1  0  0  0
 20 21  2  0  0  0
 20107  1  0  0  0
 21 23  1  0  0  0
 22 28  1  0  0  0
 22 32  2  0  0  0
 26 27  1  0  0  0
 28108  1  0  0  0
 28109  1  0  0  0
 29110  1  0  0  0
 29111  1  0  0  0
 33 34  1  0  0  0
 33 66  1  0  0  0
 33 70  2  0  0  0
 34 36  1  0  0  0
 34 59  1  0  0  0
 34112  1  0  0  0
 35 44  2  0  0  0
 35 45  1  0  0  0
 35 68  1  0  0  0
 36 56  1  0  0  0
 36113  1  0  0  0
 37 39  1  0  0  0
 37 47  1  0  0  0
 37 66  1  0  0  0
 37114  1  0  0  0
 38 43  2  0  0  0
 38 46  1  0  0  0
 38 47  1  0  0  0
 39 64  1  0  0  0
 39 67  2  0  0  0
 40 52  1  0  0  0
 40 53  2  0  0  0
 40 58  1  0  0  0
 41115  1  0  0  0
 41116  1  0  0  0
 41117  1  0  0  0
 41 48  1  0  0  0
 42 43  1  0  0  0
 42 66  1  0  0  0
 42118  1  0  0  0
 42119  1  0  0  0
 43 44  1  0  0  0
 44120  1  0  0  0
 45 46  2  0  0  0
 45121  1  0  0  0
 46122  1  0  0  0
 47123  1  0  0  0
 47124  1  0  0  0
 48 56  1  0  0  0
 48 65  1  0  0  0
 48125  1  0  0  0
 49 50  1  0  0  0
 49 53  1  0  0  0
 49 64  1  0  0  0
 49126  1  0  0  0
 50 51  1  0  0  0
 50127  1  0  0  0
 50128  1  0  0  0
 51 52  1  0  0  0
 51129  1  0  0  0
 51130  1  0  0  0
 52131  1  0  0  0
 52132  1  0  0  0
 53 54  1  0  0  0
 54 55  2  0  0  0
 54133  1  0  0  0
 55 57  1  0  0  0
 55134  1  0  0  0
 56 69  2  0  0  0
 57 58  2  0  0  0
 57135  1  0  0  0
 58136  1  0  0  0
 59 60  1  0  0  0
 59 61  1  0  0  0
 59 62  1  0  0  0
 60137  1  0  0  0
 60138  1  0  0  0
 60139  1  0  0  0
 61140  1  0  0  0
 61141  1  0  0  0
 61142  1  0  0  0
 62143  1  0  0  0
 62144  1  0  0  0
 62145  1  0  0  0
 63 65  1  0  0  0
 63146  1  0  0  0
 63147  1  0  0  0
 63148  1  0  0  0
 64149  1  0  0  0
 65150  1  0  0  0
 68 82  1  0  0  0
 71 72  2  0  0  0
 71 74  1  0  0  0
 71151  1  0  0  0
 72 75  1  0  0  0
 72152  1  0  0  0
 73 74  2  0  0  0
 73 76  1  0  0  0
 73153  1  0  0  0
 74 88  1  0  0  0
 75 76  2  0  0  0
 75 90  1  0  0  0
 76 91  1  0  0  0
 77 78  1  0  0  0
 77 82  1  0  0  0
 77154  1  0  0  0
 77155  1  0  0  0
 78 83  1  0  0  0
 78156  1  0  0  0
 78157  1  0  0  0
 79 82  1  0  0  0
 79158  1  0  0  0
 79159  1  0  0  0
 79 81  1  0  0  0
 80 83  1  0  0  0
 80 84  1  0  0  0
 80160  1  0  0  0
 80161  1  0  0  0
 81 83  1  0  0  0
 81 84  1  0  0  0
 81162  1  0  0  0
 82163  1  0  0  0
 83 89  1  0  0  0
 84 85  1  0  0  0
 84 86  1  0  0  0
 85164  1  0  0  0
 85165  1  0  0  0
 85166  1  0  0  0
 86167  1  0  0  0
 86168  1  0  0  0
 86169  1  0  0  0
 87 91  1  0  0  0
 87170  1  0  0  0
 87171  1  0  0  0
 87172  1  0  0  0
 88 89  1  0  0  0
 88173  1  0  0  0
 88174  1  0  0  0
 89175  1  0  0  0
 89176  1  0  0  0
 90177  1  0  0  0
M  ISO  4   1 100  68 101  82 101  90 100
M  END
> <chiral flag>
0

> <version>
0

> <s_m_source_file>
/data/baiqing/PycharmProjects/Reinvent-master-3.2/result/LINK_invent/BTK/process_docking_weight1_custom_sum_contain_oxygen_bond_distance_aromatic_linkinvent_7_9_3/rearranged_h_0163.sdf

> <i_m_source_file_index>
67

> <r_mmod_Potential_Energy-OPLS-2005>
43.0945472717285

> <r_mmod_Stretch_Energy-OPLS-2005>
33.1811676025391

> <r_mmod_Bend_Energy-OPLS-2005>
127.211738586426

> <r_mmod_Torsional_Energy-OPLS-2005>
334.017425537109

> <r_mmod_Improper_Torsional_Energy-OPLS-2005>
5.41884708404541

> <r_mmod_Van_der_Waal_Energy-OPLS-2005>
162.807006835938

> <r_mmod_Electrostatic_Energy-OPLS-2005>
-440.628875732422

> <r_mmod_Solvation_Energy-OPLS-2005>
-189.335479736328

> <b_mmod_Minimization_Converged-OPLS-2005>
0

> <r_mmod_RMS_Derivative-OPLS-2005>
2.90579438209534

$$$$
67
                    3D
 Structure written by MMmdl.
178188  0  0  1  0            999 V2000
  -30.6444  -14.5238   20.4684 C   0  0  0  0  0  0
  -30.4330  -12.3058   19.4189 C   0  0  0  0  0  0
  -29.5007  -12.4905   18.1992 C   0  0  0  0  0  0
  -28.0149  -12.3652   18.6081 C   0  0  0  0  0  0
  -27.6524  -13.1898   19.8721 C   0  0  2  0  0  0
  -28.7090  -13.0023   20.9867 C   0  0  0  0  0  0
  -25.2567  -13.8078   20.5676 C   0  0  0  0  0  0
  -24.1797  -13.0383   20.9168 C   0  0  0  0  0  0
  -24.6337  -11.6846   20.8731 C   0  0  0  0  0  0
  -23.9006  -10.4261   21.0405 C   0  0  0  0  0  0
  -24.3587   -9.4193   21.9172 C   0  0  0  0  0  0
  -23.6293   -8.2209   22.0728 C   0  0  0  0  0  0
  -22.4273   -8.0247   21.3531 C   0  0  0  0  0  0
  -21.9900   -9.0217   20.4628 C   0  0  0  0  0  0
  -22.7208  -10.2097   20.3052 C   0  0  0  0  0  0
  -21.6840   -6.0730   22.5271 C   0  0  0  0  0  0
  -21.4023   -6.5639   23.8202 C   0  0  0  0  0  0
  -21.3660   -5.6786   24.9149 C   0  0  0  0  0  0
  -21.6044   -4.3056   24.7213 C   0  0  0  0  0  0
  -21.8825   -3.8148   23.4326 C   0  0  0  0  0  0
  -21.9189   -4.6965   22.3388 C   0  0  0  0  0  0
  -22.7824  -13.5216   21.1850 C   0  0  0  0  0  0
  -22.1662   -4.2153   21.0962 F   0  0  0  0  0  0
  -21.5624   -3.4559   25.7732 F   0  0  0  0  0  0
  -30.0317  -13.3072   20.4155 N   0  0  0  0  0  0
  -26.2979  -12.9195   20.3376 N   0  0  0  0  0  0
  -25.9262  -11.6375   20.5771 N   0  0  0  0  0  0
  -22.0451  -12.8227   22.0397 N   0  0  0  0  0  0
  -25.4319  -15.1794   20.4098 N   0  0  0  0  0  0
  -31.8340  -14.6996   20.1959 O   0  0  0  0  0  0
  -21.6608   -6.8878   21.4239 O   0  0  0  0  0  0
  -22.3540  -14.5534   20.6701 O   0  0  0  0  0  0
  -24.6124  -31.8687   23.2051 C   0  0  0  0  0  0
  -25.9009  -32.4828   23.8379 C   0  0  1  0  0  0
  -27.2506  -27.4430   20.1253 C   0  0  0  0  0  0
  -25.5868  -33.8619   24.2328 N   0  0  0  0  0  0
  -23.4046  -30.4855   21.5465 C   0  0  2  0  0  0
  -24.8550  -28.9456   20.1227 C   0  0  0  0  0  0
  -22.7427  -29.4641   22.4996 C   0  0  0  0  0  0
  -18.0286  -28.1424   22.8502 C   0  0  0  0  0  0
  -24.1484  -36.7299   23.2642 C   0  0  0  0  0  0
  -25.9265  -30.8428   21.3506 C   0  0  0  0  0  0
  -26.0106  -29.4723   20.7112 C   0  0  0  0  0  0
  -27.2126  -28.7315   20.7013 C   0  0  0  0  0  0
  -26.0784  -26.9202   19.5385 C   0  0  0  0  0  0
  -24.8830  -27.6673   19.5326 C   0  0  0  0  0  0
  -23.6157  -29.8111   20.1640 C   0  0  0  0  0  0
  -25.4101  -36.3120   24.0363 C   0  0  1  0  0  0
  -20.5873  -28.3687   23.1358 C   0  0  2  0  0  0
  -20.6782  -26.9430   22.5444 C   0  0  0  0  0  0
  -19.5747  -26.6430   21.5249 C   0  0  0  0  0  0
  -18.1929  -26.7970   22.1648 C   0  0  0  0  0  0
  -19.1540  -28.8873   23.2922 C   0  0  0  0  0  0
  -18.9454  -30.1485   23.8922 C   0  0  0  0  0  0
  -17.6460  -30.6612   24.0598 C   0  0  0  0  0  0
  -25.9027  -34.9482   23.5150 C   0  0  0  0  0  0
  -16.5353  -29.9122   23.6353 C   0  0  0  0  0  0
  -16.7278  -28.6552   23.0351 C   0  0  0  0  0  0
  -26.4437  -31.6591   25.0686 C   0  0  0  0  0  0
  -25.3689  -31.3685   26.1425 C   0  0  0  0  0  0
  -27.0272  -30.3055   24.5996 C   0  0  0  0  0  0
  -27.6049  -32.4284   25.7426 C   0  0  0  0  0  0
  -27.5594  -37.1797   24.8465 C   0  0  0  0  0  0
  -21.4162  -29.3027   22.3740 N   0  0  0  0  0  0
  -26.4291  -37.3804   23.9430 N   0  0  0  0  0  0
  -24.6672  -31.0806   22.0943 N   0  0  0  0  0  0
  -23.4197  -28.8227   23.3079 O   0  0  0  0  0  0
  -28.4411  -26.7495   20.1199 O   0  0  0  0  0  0
  -26.5619  -34.8943   22.4726 O   0  0  0  0  0  0
  -23.5322  -32.1423   23.7451 O   0  0  0  0  0  0
  -30.5339  -22.4939   21.3479 C   0  0  0  0  0  0
  -30.3266  -21.3631   23.5157 C   0  0  0  0  0  0
  -30.7267  -21.3439   22.1517 C   0  0  0  0  0  0
  -29.9492  -23.6794   21.8619 C   0  0  0  0  0  0
  -29.6363  -22.5040   24.0060 C   0  0  0  0  0  0
  -29.4988  -23.6681   23.2052 C   0  0  0  0  0  0
  -31.2485  -20.2559   25.7710 C   0  0  0  0  0  0
  -31.9940  -19.6399   24.6215 C   0  0  0  0  0  0
  -28.6956  -17.2528   20.1017 C   0  0  0  0  0  0
  -29.4130  -16.2621   19.2002 C   0  0  0  0  0  0
  -30.5884  -20.1648   24.4073 C   0  0  0  0  0  0
  -29.7119  -16.8462   21.1634 C   0  0  2  0  0  0
  -28.9840  -22.4606   25.3839 C   0  0  0  0  0  0
  -30.8266  -25.0272   19.8340 C   0  0  0  0  0  0
  -29.7030  -25.5145   24.6419 C   0  0  0  0  0  0
  -31.3436  -20.0859   21.5216 C   0  0  0  0  0  0
  -31.0014  -17.6847   21.2481 C   0  0  0  0  0  0
  -28.4187  -25.3949   20.5976 C   0  0  0  0  0  0
  -29.8547  -24.9829   21.0312 C   0  0  1  0  0  0
  -29.7639  -15.5499   20.4403 N   0  0  0  0  0  0
  -28.9014  -24.7967   23.7120 O   0  0  0  0  0  0
  -30.5497  -18.9296   21.7805 O   0  0  0  0  0  0
  -31.4816  -12.4120   19.1276 H   0  0  0  0  0  0
  -30.3336  -11.3005   19.8285 H   0  0  0  0  0  0
  -29.7391  -11.7583   17.4259 H   0  0  0  0  0  0
  -29.6733  -13.4668   17.7469 H   0  0  0  0  0  0
  -27.8023  -11.3101   18.7766 H   0  0  0  0  0  0
  -27.3761  -12.6726   17.7794 H   0  0  0  0  0  0
  -27.6594  -14.2281   19.5681 H   0  0  0  0  0  0
  -28.6939  -11.9763   21.3563 H   0  0  0  0  0  0
  -28.4828  -13.6438   21.8408 H   0  0  0  0  0  0
  -25.2722   -9.5704   22.4737 H   0  0  0  0  0  0
  -24.0022   -7.4624   22.7450 H   0  0  0  0  0  0
  -21.0832   -8.8734   19.8958 H   0  0  0  0  0  0
  -22.3661  -10.9631   19.6168 H   0  0  0  0  0  0
  -21.2023   -7.6147   23.9732 H   0  0  0  0  0  0
  -21.1481   -6.0482   25.9058 H   0  0  0  0  0  0
  -22.0617   -2.7620   23.2789 H   0  0  0  0  0  0
  -22.4064  -11.9890   22.4799 H   0  0  0  0  0  0
  -21.1070  -13.1263   22.2630 H   0  0  0  0  0  0
  -24.6752  -15.8439   20.5301 H   0  0  0  0  0  0
  -26.2968  -15.6157   20.1173 H   0  0  0  0  0  0
  -26.7088  -32.5584   23.1170 H   0  0  0  0  0  0
  -24.9983  -33.9759   25.0446 H   0  0  0  0  0  0
  -22.6934  -31.3009   21.4054 H   0  0  0  0  0  0
  -23.3773  -35.9608   23.3295 H   0  0  0  0  0  0
  -24.3578  -36.8902   22.2057 H   0  0  0  0  0  0
  -23.7207  -37.6493   23.6640 H   0  0  0  0  0  0
  -26.0248  -31.5990   20.5710 H   0  0  0  0  0  0
  -26.8185  -30.9114   21.9609 H   0  0  0  0  0  0
  -28.1076  -29.1405   21.1462 H   0  0  0  0  0  0
  -26.0919  -25.9427   19.0772 H   0  0  0  0  0  0
  -23.9923  -27.2543   19.0802 H   0  0  0  0  0  0
  -23.7282  -30.5828   19.3996 H   0  0  0  0  0  0
  -22.7399  -29.2283   19.8713 H   0  0  0  0  0  0
  -25.1274  -36.1995   25.0865 H   0  0  0  0  0  0
  -20.9978  -28.3258   24.1476 H   0  0  0  0  0  0
  -20.5758  -26.2282   23.3630 H   0  0  0  0  0  0
  -21.6649  -26.7511   22.1209 H   0  0  0  0  0  0
  -19.6905  -25.6356   21.1265 H   0  0  0  0  0  0
  -19.6707  -27.3261   20.6801 H   0  0  0  0  0  0
  -17.4228  -26.6776   21.4021 H   0  0  0  0  0  0
  -18.0273  -26.0111   22.9032 H   0  0  0  0  0  0
  -19.7917  -30.7319   24.2290 H   0  0  0  0  0  0
  -17.5002  -31.6286   24.5214 H   0  0  0  0  0  0
  -15.5351  -30.3042   23.7633 H   0  0  0  0  0  0
  -15.8687  -28.0887   22.7027 H   0  0  0  0  0  0
  -24.5866  -30.7032   25.7737 H   0  0  0  0  0  0
  -24.8857  -32.2833   26.4872 H   0  0  0  0  0  0
  -25.8014  -30.8844   27.0185 H   0  0  0  0  0  0
  -26.2799  -29.6818   24.1068 H   0  0  0  0  0  0
  -27.4118  -29.7271   25.4406 H   0  0  0  0  0  0
  -27.8595  -30.4428   23.9083 H   0  0  0  0  0  0
  -27.2719  -33.3599   26.2013 H   0  0  0  0  0  0
  -28.3830  -32.6803   25.0206 H   0  0  0  0  0  0
  -28.0740  -31.8381   26.5303 H   0  0  0  0  0  0
  -28.2609  -38.0100   24.7574 H   0  0  0  0  0  0
  -28.1100  -36.2646   24.6225 H   0  0  0  0  0  0
  -27.2325  -37.1382   25.8869 H   0  0  0  0  0  0
  -20.9355  -29.8689   21.6898 H   0  0  0  0  0  0
  -26.0192  -38.2881   24.1450 H   0  0  0  0  0  0
  -30.8663  -22.4574   20.3220 H   0  0  0  0  0  0
  -31.6050  -21.2208   26.1229 H   0  0  0  0  0  0
  -30.9245  -19.5687   26.5525 H   0  0  0  0  0  0
  -32.1298  -18.5613   24.6287 H   0  0  0  0  0  0
  -32.8338  -20.2121   24.2328 H   0  0  0  0  0  0
  -27.6744  -16.9679   20.3588 H   0  0  0  0  0  0
  -28.7585  -18.2918   19.7730 H   0  0  0  0  0  0
  -30.2611  -16.6852   18.6575 H   0  0  0  0  0  0
  -28.7487  -15.7395   18.5128 H   0  0  0  0  0  0
  -29.7916  -19.4318   24.2974 H   0  0  0  0  0  0
  -29.2258  -16.7513   22.1351 H   0  0  0  0  0  0
  -28.5753  -21.4713   25.5888 H   0  0  0  0  0  0
  -28.1485  -23.1567   25.4503 H   0  0  0  0  0  0
  -29.6950  -22.7043   26.1725 H   0  0  0  0  0  0
  -31.8547  -24.8521   20.1533 H   0  0  0  0  0  0
  -30.8029  -26.0044   19.3514 H   0  0  0  0  0  0
  -30.5738  -24.2891   19.0730 H   0  0  0  0  0  0
  -29.9685  -24.9164   25.5125 H   0  0  0  0  0  0
  -29.1565  -26.3845   25.0050 H   0  0  0  0  0  0
  -30.6244  -25.8717   24.1792 H   0  0  0  0  0  0
  -32.3633  -19.9478   21.8852 H   0  0  0  0  0  0
  -31.4114  -20.2222   20.4418 H   0  0  0  0  0  0
  -31.4545  -17.8356   20.2663 H   0  0  0  0  0  0
  -31.7486  -17.2315   21.8989 H   0  0  0  0  0  0
  -27.7389  -25.3379   21.4473 H   0  0  0  0  0  0
  -28.0383  -24.7240   19.8263 H   0  0  0  0  0  0
  -30.1998  -25.7674   21.7060 H   0  0  0  0  0  0
  1 25  1  0  0  0
  1 30  2  0  0  0
  1 90  1  0  0  0
  2  3  1  0  0  0
  2 25  1  0  0  0
  2 93  1  0  0  0
  2 94  1  0  0  0
  3  4  1  0  0  0
  3 95  1  0  0  0
  3 96  1  0  0  0
  4  5  1  0  0  0
  4 97  1  0  0  0
  4 98  1  0  0  0
  5  6  1  0  0  0
  5 26  1  0  0  0
  5 99  1  0  0  0
  6 25  1  0  0  0
  6100  1  0  0  0
  6101  1  0  0  0
  7  8  2  0  0  0
  7 26  1  0  0  0
  7 29  1  0  0  0
  8  9  1  0  0  0
  8 22  1  0  0  0
  9 10  1  0  0  0
  9 27  2  0  0  0
 10 11  2  0  0  0
 10 15  1  0  0  0
 11 12  1  0  0  0
 11102  1  0  0  0
 12 13  2  0  0  0
 12103  1  0  0  0
 13 14  1  0  0  0
 13 31  1  0  0  0
 14 15  2  0  0  0
 14104  1  0  0  0
 15105  1  0  0  0
 16 17  2  0  0  0
 16 21  1  0  0  0
 16 31  1  0  0  0
 17 18  1  0  0  0
 17106  1  0  0  0
 18 19  2  0  0  0
 18107  1  0  0  0
 19 20  1  0  0  0
 19 24  1  0  0  0
 20 21  2  0  0  0
 20108  1  0  0  0
 21 23  1  0  0  0
 22 28  1  0  0  0
 22 32  2  0  0  0
 26 27  1  0  0  0
 28109  1  0  0  0
 28110  1  0  0  0
 29111  1  0  0  0
 29112  1  0  0  0
 33 34  1  0  0  0
 33 66  1  0  0  0
 33 70  2  0  0  0
 34 36  1  0  0  0
 34 59  1  0  0  0
 34113  1  0  0  0
 35 44  2  0  0  0
 35 45  1  0  0  0
 35 68  1  0  0  0
 36 56  1  0  0  0
 36114  1  0  0  0
 37 39  1  0  0  0
 37 47  1  0  0  0
 37 66  1  0  0  0
 37115  1  0  0  0
 38 43  2  0  0  0
 38 46  1  0  0  0
 38 47  1  0  0  0
 39 64  1  0  0  0
 39 67  2  0  0  0
 40 52  1  0  0  0
 40 53  2  0  0  0
 40 58  1  0  0  0
 41116  1  0  0  0
 41117  1  0  0  0
 41118  1  0  0  0
 41 48  1  0  0  0
 42 43  1  0  0  0
 42 66  1  0  0  0
 42119  1  0  0  0
 42120  1  0  0  0
 43 44  1  0  0  0
 44121  1  0  0  0
 45 46  2  0  0  0
 45122  1  0  0  0
 46123  1  0  0  0
 47124  1  0  0  0
 47125  1  0  0  0
 48 56  1  0  0  0
 48 65  1  0  0  0
 48126  1  0  0  0
 49 50  1  0  0  0
 49 53  1  0  0  0
 49 64  1  0  0  0
 49127  1  0  0  0
 50 51  1  0  0  0
 50128  1  0  0  0
 50129  1  0  0  0
 51 52  1  0  0  0
 51130  1  0  0  0
 51131  1  0  0  0
 52132  1  0  0  0
 52133  1  0  0  0
 53 54  1  0  0  0
 54 55  2  0  0  0
 54134  1  0  0  0
 55 57  1  0  0  0
 55135  1  0  0  0
 56 69  2  0  0  0
 57 58  2  0  0  0
 57136  1  0  0  0
 58137  1  0  0  0
 59 60  1  0  0  0
 59 61  1  0  0  0
 59 62  1  0  0  0
 60138  1  0  0  0
 60139  1  0  0  0
 60140  1  0  0  0
 61141  1  0  0  0
 61142  1  0  0  0
 61143  1  0  0  0
 62144  1  0  0  0
 62145  1  0  0  0
 62146  1  0  0  0
 63 65  1  0  0  0
 63147  1  0  0  0
 63148  1  0  0  0
 63149  1  0  0  0
 64150  1  0  0  0
 65151  1  0  0  0
 68 88  1  0  0  0
 71 73  2  0  0  0
 71 74  1  0  0  0
 71152  1  0  0  0
 72 73  1  0  0  0
 72 75  2  0  0  0
 72 81  1  0  0  0
 73 86  1  0  0  0
 74 76  2  0  0  0
 74 89  1  0  0  0
 75 76  1  0  0  0
 75 83  1  0  0  0
 76 91  1  0  0  0
 77 78  1  0  0  0
 77 81  1  0  0  0
 77153  1  0  0  0
 77154  1  0  0  0
 78 81  1  0  0  0
 78155  1  0  0  0
 78156  1  0  0  0
 79 80  1  0  0  0
 79 82  1  0  0  0
 79157  1  0  0  0
 79158  1  0  0  0
 80 90  1  0  0  0
 80159  1  0  0  0
 80160  1  0  0  0
 81161  1  0  0  0
 82 87  1  0  0  0
 82 90  1  0  0  0
 82162  1  0  0  0
 83163  1  0  0  0
 83164  1  0  0  0
 83165  1  0  0  0
 84166  1  0  0  0
 84167  1  0  0  0
 84168  1  0  0  0
 84 89  1  0  0  0
 85 91  1  0  0  0
 85169  1  0  0  0
 85170  1  0  0  0
 85171  1  0  0  0
 86 92  1  0  0  0
 86172  1  0  0  0
 86173  1  0  0  0
 87 92  1  0  0  0
 87174  1  0  0  0
 87175  1  0  0  0
 88 89  1  0  0  0
 88176  1  0  0  0
 88177  1  0  0  0
 89178  1  0  0  0
M  ISO  4   1 100  68 101  88 101  90 100
M  END
> <chiral flag>
0

> <version>
0

> <s_m_source_file>
/data/baiqing/PycharmProjects/Reinvent-master-3.2/result/LINK_invent/BTK/process_docking_weight1_custom_sum_contain_oxygen_bond_distance_aromatic_linkinvent_7_9_3/rearranged_h_0163.sdf

> <i_m_source_file_index>
68

> <r_mmod_Potential_Energy-OPLS-2005>
161.014450073242

> <r_mmod_Stretch_Energy-OPLS-2005>
44.6783485412598

> <r_mmod_Bend_Energy-OPLS-2005>
123.642723083496

> <r_mmod_Torsional_Energy-OPLS-2005>
380.964538574219

> <r_mmod_Improper_Torsional_Energy-OPLS-2005>
17.0740451812744

> <r_mmod_Van_der_Waal_Energy-OPLS-2005>
148.487457275391

> <r_mmod_Electrostatic_Energy-OPLS-2005>
-377.053131103516

> <r_mmod_Solvation_Energy-OPLS-2005>
-197.559616088867

> <b_mmod_Minimization_Converged-OPLS-2005>
0

> <r_mmod_RMS_Derivative-OPLS-2005>
3.74041342735291

$$$$
68
                    3D
 Structure written by MMmdl.
163172  0  0  1  0            999 V2000
  -30.5771  -14.8736   20.4153 C   0  0  0  0  0  0
  -30.4328  -12.5309   19.5077 C   0  0  0  0  0  0
  -29.5211  -12.5176   18.2596 C   0  0  0  0  0  0
  -28.0501  -12.3241   18.6705 C   0  0  0  0  0  0
  -27.6353  -13.2475   19.8470 C   0  0  2  0  0  0
  -28.6755  -13.2487   20.9890 C   0  0  0  0  0  0
  -25.2470  -13.8226   20.5706 C   0  0  0  0  0  0
  -24.1786  -13.0449   20.9219 C   0  0  0  0  0  0
  -24.6402  -11.6931   20.8756 C   0  0  0  0  0  0
  -23.9083  -10.4298   21.0405 C   0  0  0  0  0  0
  -24.3625   -9.4210   21.9185 C   0  0  0  0  0  0
  -23.6295   -8.2247   22.0757 C   0  0  0  0  0  0
  -22.4279   -8.0285   21.3547 C   0  0  0  0  0  0
  -21.9919   -9.0260   20.4651 C   0  0  0  0  0  0
  -22.7251  -10.2138   20.3057 C   0  0  0  0  0  0
  -21.6857   -6.0738   22.5277 C   0  0  0  0  0  0
  -21.4017   -6.5641   23.8211 C   0  0  0  0  0  0
  -21.3655   -5.6795   24.9173 C   0  0  0  0  0  0
  -21.6044   -4.3057   24.7227 C   0  0  0  0  0  0
  -21.8819   -3.8148   23.4347 C   0  0  0  0  0  0
  -21.9192   -4.6963   22.3403 C   0  0  0  0  0  0
  -22.7803  -13.5215   21.1871 C   0  0  0  0  0  0
  -22.1660   -4.2149   21.0979 F   0  0  0  0  0  0
  -21.5624   -3.4539   25.7737 F   0  0  0  0  0  0
  -29.9654  -13.6271   20.4023 N   0  0  0  0  0  0
  -26.2906  -12.9461   20.3274 N   0  0  0  0  0  0
  -25.9339  -11.6589   20.5756 N   0  0  0  0  0  0
  -22.0455  -12.8203   22.0425 N   0  0  0  0  0  0
  -25.4145  -15.1956   20.4114 N   0  0  0  0  0  0
  -31.7667  -14.9281   20.0884 O   0  0  0  0  0  0
  -21.6642   -6.8881   21.4239 O   0  0  0  0  0  0
  -22.3481  -14.5520   20.6716 O   0  0  0  0  0  0
  -24.6393  -31.8466   23.1901 C   0  0  0  0  0  0
  -25.9190  -32.4700   23.8269 C   0  0  1  0  0  0
  -27.2199  -27.1775   20.1385 C   0  0  0  0  0  0
  -25.5950  -33.8501   24.2199 N   0  0  0  0  0  0
  -23.4406  -30.4663   21.5345 C   0  0  2  0  0  0
  -24.8896  -28.8978   20.1075 C   0  0  0  0  0  0
  -22.7551  -29.4557   22.4872 C   0  0  0  0  0  0
  -18.0308  -28.1370   22.8463 C   0  0  0  0  0  0
  -24.1500  -36.7256   23.2644 C   0  0  0  0  0  0
  -25.9927  -30.7331   21.3825 C   0  0  0  0  0  0
  -26.0638  -29.3475   20.7245 C   0  0  0  0  0  0
  -27.2295  -28.5011   20.7243 C   0  0  0  0  0  0
  -26.0226  -26.8180   19.4828 C   0  0  0  0  0  0
  -24.8791  -27.6463   19.4726 C   0  0  0  0  0  0
  -23.6636  -29.7941   20.1536 C   0  0  0  0  0  0
  -25.4125  -36.3027   24.0322 C   0  0  1  0  0  0
  -20.5915  -28.3702   23.1231 C   0  0  2  0  0  0
  -20.6799  -26.9405   22.5397 C   0  0  0  0  0  0
  -19.5778  -26.6359   21.5198 C   0  0  0  0  0  0
  -18.1951  -26.7916   22.1599 C   0  0  0  0  0  0
  -19.1561  -28.8854   23.2840 C   0  0  0  0  0  0
  -18.9483  -30.1454   23.8865 C   0  0  0  0  0  0
  -17.6483  -30.6576   24.0550 C   0  0  0  0  0  0
  -25.9070  -34.9402   23.5064 C   0  0  0  0  0  0
  -16.5369  -29.9065   23.6330 C   0  0  0  0  0  0
  -16.7293  -28.6486   23.0338 C   0  0  0  0  0  0
  -26.4531  -31.6555   25.0690 C   0  0  0  0  0  0
  -25.3731  -31.3722   26.1396 C   0  0  0  0  0  0
  -27.0418  -30.2971   24.6234 C   0  0  0  0  0  0
  -27.6061  -32.4334   25.7461 C   0  0  0  0  0  0
  -27.5579  -37.1782   24.8470 C   0  0  0  0  0  0
  -21.4249  -29.3036   22.3614 N   0  0  0  0  0  0
  -26.4289  -37.3737   23.9411 N   0  0  0  0  0  0
  -24.7103  -31.0360   22.0911 N   0  0  0  0  0  0
  -23.4216  -28.8110   23.3010 O   0  0  0  0  0  0
  -28.2961  -26.2360   20.2171 O   0  0  0  0  0  0
  -26.5648  -34.8896   22.4641 O   0  0  0  0  0  0
  -23.5519  -32.1317   23.7152 O   0  0  0  0  0  0
  -30.2456  -21.4352   19.6569 C   0  0  0  0  0  0
  -28.6020  -19.5262   20.7927 C   0  0  0  0  0  0
  -29.1480  -22.0061   20.3695 C   0  0  0  0  0  0
  -30.5350  -20.0237   19.5255 C   0  0  0  0  0  0
  -28.3266  -20.9570   20.9290 C   0  0  0  0  0  0
  -29.7283  -18.9705   20.0961 C   0  0  0  0  0  0
  -30.4455  -24.2068   21.1173 C   0  0  0  0  0  0
  -29.4032  -23.9481   22.1561 C   0  0  0  0  0  0
  -29.1027  -23.6176   20.7035 C   0  0  0  0  0  0
  -31.7861  -19.6732   18.7301 C   0  0  0  0  0  0
  -27.1116  -21.3576   21.7429 C   0  0  0  0  0  0
  -29.3097  -17.1342   18.3816 C   0  0  0  0  0  0
  -28.1257  -24.7171   19.9843 C   0  0  0  0  0  0
  -30.0208  -17.3856   19.7243 C   0  0  2  0  0  0
  -29.8200  -16.0634   20.5299 N   0  0  0  0  0  0
  -31.4742  -12.6558   19.2060 H   0  0  0  0  0  0
  -30.3904  -11.5723   20.0276 H   0  0  0  0  0  0
  -29.8259  -11.7237   17.5766 H   0  0  0  0  0  0
  -29.6319  -13.4544   17.7117 H   0  0  0  0  0  0
  -27.9268  -11.2801   18.9619 H   0  0  0  0  0  0
  -27.3929  -12.4797   17.8145 H   0  0  0  0  0  0
  -27.6099  -14.2561   19.4337 H   0  0  0  0  0  0
  -28.7385  -12.2690   21.4645 H   0  0  0  0  0  0
  -28.3898  -13.9548   21.7697 H   0  0  0  0  0  0
  -25.2766   -9.5684   22.4761 H   0  0  0  0  0  0
  -24.0000   -7.4640   22.7482 H   0  0  0  0  0  0
  -21.0849   -8.8787   19.8955 H   0  0  0  0  0  0
  -22.3713  -10.9678   19.6167 H   0  0  0  0  0  0
  -21.2017   -7.6151   23.9717 H   0  0  0  0  0  0
  -21.1474   -6.0524   25.9077 H   0  0  0  0  0  0
  -22.0602   -2.7609   23.2851 H   0  0  0  0  0  0
  -22.4070  -11.9865   22.4814 H   0  0  0  0  0  0
  -21.1071  -13.1223   22.2637 H   0  0  0  0  0  0
  -24.6442  -15.8460   20.5192 H   0  0  0  0  0  0
  -26.2552  -15.6334   20.0585 H   0  0  0  0  0  0
  -26.7258  -32.5315   23.0997 H   0  0  0  0  0  0
  -25.0083  -33.9607   25.0341 H   0  0  0  0  0  0
  -22.7412  -31.2911   21.3823 H   0  0  0  0  0  0
  -23.3754  -35.9598   23.3292 H   0  0  0  0  0  0
  -24.3588  -36.8893   22.2061 H   0  0  0  0  0  0
  -23.7267  -37.6453   23.6691 H   0  0  0  0  0  0
  -26.1447  -31.4901   20.6114 H   0  0  0  0  0  0
  -26.8649  -30.7807   22.0224 H   0  0  0  0  0  0
  -28.1271  -28.8363   21.2253 H   0  0  0  0  0  0
  -25.9427  -25.8638   18.9846 H   0  0  0  0  0  0
  -23.9823  -27.2996   18.9770 H   0  0  0  0  0  0
  -23.7941  -30.5664   19.3947 H   0  0  0  0  0  0
  -22.7809  -29.2297   19.8488 H   0  0  0  0  0  0
  -25.1317  -36.1851   25.0814 H   0  0  0  0  0  0
  -21.0011  -28.3288   24.1352 H   0  0  0  0  0  0
  -20.5692  -26.2308   23.3610 H   0  0  0  0  0  0
  -21.6662  -26.7410   22.1192 H   0  0  0  0  0  0
  -19.6942  -25.6267   21.1227 H   0  0  0  0  0  0
  -19.6714  -27.3169   20.6729 H   0  0  0  0  0  0
  -17.4224  -26.6654   21.3996 H   0  0  0  0  0  0
  -18.0360  -26.0053   22.8992 H   0  0  0  0  0  0
  -19.7962  -30.7267   24.2209 H   0  0  0  0  0  0
  -17.5037  -31.6250   24.5157 H   0  0  0  0  0  0
  -15.5368  -30.2954   23.7680 H   0  0  0  0  0  0
  -15.8691  -28.0806   22.7056 H   0  0  0  0  0  0
  -24.5928  -30.7052   25.7711 H   0  0  0  0  0  0
  -24.8894  -32.2896   26.4766 H   0  0  0  0  0  0
  -25.8026  -30.8930   27.0203 H   0  0  0  0  0  0
  -26.3041  -29.6670   24.1258 H   0  0  0  0  0  0
  -27.4092  -29.7287   25.4782 H   0  0  0  0  0  0
  -27.8909  -30.4228   23.9512 H   0  0  0  0  0  0
  -27.2669  -33.3671   26.1957 H   0  0  0  0  0  0
  -28.3901  -32.6839   25.0303 H   0  0  0  0  0  0
  -28.0702  -31.8512   26.5427 H   0  0  0  0  0  0
  -28.2584  -38.0094   24.7511 H   0  0  0  0  0  0
  -28.1087  -36.2612   24.6306 H   0  0  0  0  0  0
  -27.2293  -37.1441   25.8875 H   0  0  0  0  0  0
  -20.9455  -29.8736   21.6782 H   0  0  0  0  0  0
  -26.0150  -38.2799   24.1424 H   0  0  0  0  0  0
  -30.9453  -22.1325   19.2159 H   0  0  0  0  0  0
  -27.9067  -18.8275   21.2371 H   0  0  0  0  0  0
  -31.3205  -23.5606   21.1180 H   0  0  0  0  0  0
  -30.6454  -25.2491   20.8752 H   0  0  0  0  0  0
  -28.9198  -24.8197   22.5930 H   0  0  0  0  0  0
  -29.5782  -23.1227   22.8421 H   0  0  0  0  0  0
  -32.2600  -20.5597   18.3068 H   0  0  0  0  0  0
  -31.5595  -19.0061   17.8996 H   0  0  0  0  0  0
  -32.5242  -19.1882   19.3702 H   0  0  0  0  0  0
  -26.7095  -22.3152   21.4123 H   0  0  0  0  0  0
  -27.3753  -21.4421   22.7975 H   0  0  0  0  0  0
  -26.3151  -20.6187   21.6467 H   0  0  0  0  0  0
  -29.5740  -17.8836   17.6366 H   0  0  0  0  0  0
  -28.2271  -17.1750   18.5020 H   0  0  0  0  0  0
  -29.5591  -16.1610   17.9576 H   0  0  0  0  0  0
  -28.1936  -24.5566   18.9080 H   0  0  0  0  0  0
  -27.1098  -24.4388   20.2619 H   0  0  0  0  0  0
  -31.0898  -17.3546   19.5223 H   0  0  0  0  0  0
  -28.8882  -15.9311   20.8925 H   0  0  0  0  0  0
  1 25  1  0  0  0
  1 30  2  0  0  0
  1 85  1  0  0  0
  2  3  1  0  0  0
  2 25  1  0  0  0
  2 86  1  0  0  0
  2 87  1  0  0  0
  3  4  1  0  0  0
  3 88  1  0  0  0
  3 89  1  0  0  0
  4  5  1  0  0  0
  4 90  1  0  0  0
  4 91  1  0  0  0
  5  6  1  0  0  0
  5 26  1  0  0  0
  5 92  1  0  0  0
  6 25  1  0  0  0
  6 93  1  0  0  0
  6 94  1  0  0  0
  7  8  2  0  0  0
  7 26  1  0  0  0
  7 29  1  0  0  0
  8  9  1  0  0  0
  8 22  1  0  0  0
  9 10  1  0  0  0
  9 27  2  0  0  0
 10 11  2  0  0  0
 10 15  1  0  0  0
 11 12  1  0  0  0
 11 95  1  0  0  0
 12 13  2  0  0  0
 12 96  1  0  0  0
 13 14  1  0  0  0
 13 31  1  0  0  0
 14 15  2  0  0  0
 14 97  1  0  0  0
 15 98  1  0  0  0
 16 17  2  0  0  0
 16 21  1  0  0  0
 16 31  1  0  0  0
 17 18  1  0  0  0
 17 99  1  0  0  0
 18 19  2  0  0  0
 18100  1  0  0  0
 19 20  1  0  0  0
 19 24  1  0  0  0
 20 21  2  0  0  0
 20101  1  0  0  0
 21 23  1  0  0  0
 22 28  1  0  0  0
 22 32  2  0  0  0
 26 27  1  0  0  0
 28102  1  0  0  0
 28103  1  0  0  0
 29104  1  0  0  0
 29105  1  0  0  0
 33 34  1  0  0  0
 33 66  1  0  0  0
 33 70  2  0  0  0
 34 36  1  0  0  0
 34 59  1  0  0  0
 34106  1  0  0  0
 35 44  2  0  0  0
 35 45  1  0  0  0
 35 68  1  0  0  0
 36 56  1  0  0  0
 36107  1  0  0  0
 37 39  1  0  0  0
 37 47  1  0  0  0
 37 66  1  0  0  0
 37108  1  0  0  0
 38 43  2  0  0  0
 38 46  1  0  0  0
 38 47  1  0  0  0
 39 64  1  0  0  0
 39 67  2  0  0  0
 40 52  1  0  0  0
 40 53  2  0  0  0
 40 58  1  0  0  0
 41109  1  0  0  0
 41110  1  0  0  0
 41111  1  0  0  0
 41 48  1  0  0  0
 42 43  1  0  0  0
 42 66  1  0  0  0
 42112  1  0  0  0
 42113  1  0  0  0
 43 44  1  0  0  0
 44114  1  0  0  0
 45 46  2  0  0  0
 45115  1  0  0  0
 46116  1  0  0  0
 47117  1  0  0  0
 47118  1  0  0  0
 48 56  1  0  0  0
 48 65  1  0  0  0
 48119  1  0  0  0
 49 50  1  0  0  0
 49 53  1  0  0  0
 49 64  1  0  0  0
 49120  1  0  0  0
 50 51  1  0  0  0
 50121  1  0  0  0
 50122  1  0  0  0
 51 52  1  0  0  0
 51123  1  0  0  0
 51124  1  0  0  0
 52125  1  0  0  0
 52126  1  0  0  0
 53 54  1  0  0  0
 54 55  2  0  0  0
 54127  1  0  0  0
 55 57  1  0  0  0
 55128  1  0  0  0
 56 69  2  0  0  0
 57 58  2  0  0  0
 57129  1  0  0  0
 58130  1  0  0  0
 59 60  1  0  0  0
 59 61  1  0  0  0
 59 62  1  0  0  0
 60131  1  0  0  0
 60132  1  0  0  0
 60133  1  0  0  0
 61134  1  0  0  0
 61135  1  0  0  0
 61136  1  0  0  0
 62137  1  0  0  0
 62138  1  0  0  0
 62139  1  0  0  0
 63 65  1  0  0  0
 63140  1  0  0  0
 63141  1  0  0  0
 63142  1  0  0  0
 64143  1  0  0  0
 65144  1  0  0  0
 68 83  1  0  0  0
 71 73  2  0  0  0
 71 74  1  0  0  0
 71145  1  0  0  0
 72 75  2  0  0  0
 72 76  1  0  0  0
 72146  1  0  0  0
 73 75  1  0  0  0
 73 79  1  0  0  0
 74 76  2  0  0  0
 74 80  1  0  0  0
 75 81  1  0  0  0
 76 84  1  0  0  0
 77 78  1  0  0  0
 77 79  1  0  0  0
 77147  1  0  0  0
 77148  1  0  0  0
 78 79  1  0  0  0
 78149  1  0  0  0
 78150  1  0  0  0
 79 83  1  0  0  0
 80151  1  0  0  0
 80152  1  0  0  0
 80153  1  0  0  0
 81154  1  0  0  0
 81155  1  0  0  0
 81156  1  0  0  0
 82157  1  0  0  0
 82158  1  0  0  0
 82159  1  0  0  0
 82 84  1  0  0  0
 83160  1  0  0  0
 83161  1  0  0  0
 84 85  1  0  0  0
 84162  1  0  0  0
 85163  1  0  0  0
M  ISO  4   1 100  68 101  83 101  85 100
M  END
> <chiral flag>
0

> <version>
0

> <s_m_source_file>
/data/baiqing/PycharmProjects/Reinvent-master-3.2/result/LINK_invent/BTK/process_docking_weight1_custom_sum_contain_oxygen_bond_distance_aromatic_linkinvent_7_9_3/rearranged_h_0163.sdf

> <i_m_source_file_index>
69

> <r_mmod_Potential_Energy-OPLS-2005>
397.020324707031

> <r_mmod_Stretch_Energy-OPLS-2005>
210.018218994141

> <r_mmod_Bend_Energy-OPLS-2005>
251.478942871094

> <r_mmod_Torsional_Energy-OPLS-2005>
255.356719970703

> <r_mmod_Improper_Torsional_Energy-OPLS-2005>
10.606240272522

> <r_mmod_Van_der_Waal_Energy-OPLS-2005>
132.172515869141

> <r_mmod_Electrostatic_Energy-OPLS-2005>
-406.876678466797

> <r_mmod_Solvation_Energy-OPLS-2005>
-203.571762084961

> <b_mmod_Minimization_Converged-OPLS-2005>
0

> <r_mmod_RMS_Derivative-OPLS-2005>
1.37037169933319

$$$$
69
                    3D
 Structure written by MMmdl.
164173  0  0  1  0            999 V2000
  -30.5665  -14.8079   20.4422 C   0  0  0  0  0  0
  -30.4433  -12.4876   19.4899 C   0  0  0  0  0  0
  -29.5209  -12.5181   18.2483 C   0  0  0  0  0  0
  -28.0455  -12.3325   18.6552 C   0  0  0  0  0  0
  -27.6427  -13.2351   19.8510 C   0  0  2  0  0  0
  -28.6852  -13.1734   20.9869 C   0  0  0  0  0  0
  -25.2517  -13.8199   20.5698 C   0  0  0  0  0  0
  -24.1806  -13.0440   20.9196 C   0  0  0  0  0  0
  -24.6401  -11.6918   20.8736 C   0  0  0  0  0  0
  -23.9078  -10.4293   21.0401 C   0  0  0  0  0  0
  -24.3625   -9.4209   21.9182 C   0  0  0  0  0  0
  -23.6296   -8.2246   22.0755 C   0  0  0  0  0  0
  -22.4278   -8.0283   21.3545 C   0  0  0  0  0  0
  -21.9916   -9.0256   20.4647 C   0  0  0  0  0  0
  -22.7248  -10.2134   20.3053 C   0  0  0  0  0  0
  -21.6854   -6.0736   22.5279 C   0  0  0  0  0  0
  -21.4016   -6.5639   23.8212 C   0  0  0  0  0  0
  -21.3659   -5.6793   24.9174 C   0  0  0  0  0  0
  -21.6045   -4.3055   24.7225 C   0  0  0  0  0  0
  -21.8819   -3.8147   23.4347 C   0  0  0  0  0  0
  -21.9192   -4.6964   22.3403 C   0  0  0  0  0  0
  -22.7827  -13.5220   21.1863 C   0  0  0  0  0  0
  -22.1660   -4.2149   21.0980 F   0  0  0  0  0  0
  -21.5629   -3.4538   25.7738 F   0  0  0  0  0  0
  -29.9850  -13.5515   20.4182 N   0  0  0  0  0  0
  -26.2945  -12.9412   20.3277 N   0  0  0  0  0  0
  -25.9334  -11.6551   20.5737 N   0  0  0  0  0  0
  -22.0477  -12.8203   22.0419 N   0  0  0  0  0  0
  -25.4214  -15.1926   20.4143 N   0  0  0  0  0  0
  -31.7553  -14.8973   20.1186 O   0  0  0  0  0  0
  -21.6643   -6.8880   21.4241 O   0  0  0  0  0  0
  -22.3508  -14.5527   20.6715 O   0  0  0  0  0  0
  -24.6358  -31.8519   23.1957 C   0  0  0  0  0  0
  -25.9165  -32.4737   23.8316 C   0  0  1  0  0  0
  -27.2174  -27.2197   20.1324 C   0  0  0  0  0  0
  -25.5945  -33.8540   24.2233 N   0  0  0  0  0  0
  -23.4345  -30.4747   21.5400 C   0  0  2  0  0  0
  -24.8822  -28.9183   20.1096 C   0  0  0  0  0  0
  -22.7529  -29.4585   22.4894 C   0  0  0  0  0  0
  -18.0297  -28.1392   22.8481 C   0  0  0  0  0  0
  -24.1490  -36.7270   23.2640 C   0  0  0  0  0  0
  -25.9851  -30.7521   21.3825 C   0  0  0  0  0  0
  -26.0572  -29.3720   20.7221 C   0  0  0  0  0  0
  -27.2270  -28.5369   20.7204 C   0  0  0  0  0  0
  -26.0159  -26.8503   19.4841 C   0  0  0  0  0  0
  -24.8697  -27.6675   19.4779 C   0  0  0  0  0  0
  -23.6552  -29.8096   20.1567 C   0  0  0  0  0  0
  -25.4118  -36.3056   24.0322 C   0  0  1  0  0  0
  -20.5905  -28.3707   23.1258 C   0  0  2  0  0  0
  -20.6783  -26.9419   22.5406 C   0  0  0  0  0  0
  -19.5757  -26.6383   21.5211 C   0  0  0  0  0  0
  -18.1938  -26.7933   22.1621 C   0  0  0  0  0  0
  -19.1553  -28.8867   23.2863 C   0  0  0  0  0  0
  -18.9472  -30.1465   23.8885 C   0  0  0  0  0  0
  -17.6470  -30.6589   24.0564 C   0  0  0  0  0  0
  -25.9065  -34.9429   23.5082 C   0  0  0  0  0  0
  -16.5361  -29.9084   23.6338 C   0  0  0  0  0  0
  -16.7283  -28.6504   23.0355 C   0  0  0  0  0  0
  -26.4514  -31.6579   25.0724 C   0  0  0  0  0  0
  -25.3720  -31.3743   26.1432 C   0  0  0  0  0  0
  -27.0369  -30.2988   24.6243 C   0  0  0  0  0  0
  -27.6056  -32.4332   25.7503 C   0  0  0  0  0  0
  -27.5578  -37.1789   24.8463 C   0  0  0  0  0  0
  -21.4230  -29.3047   22.3642 N   0  0  0  0  0  0
  -26.4286  -37.3762   23.9413 N   0  0  0  0  0  0
  -24.7046  -31.0448   22.0953 N   0  0  0  0  0  0
  -23.4210  -28.8125   23.3006 O   0  0  0  0  0  0
  -28.2916  -26.2839   20.2017 O   0  0  0  0  0  0
  -26.5638  -34.8912   22.4652 O   0  0  0  0  0  0
  -23.5497  -32.1358   23.7226 O   0  0  0  0  0  0
  -29.3809  -17.0776   19.4075 C   0  0  0  0  0  0
  -30.2449  -17.1699   21.8298 C   0  0  0  0  0  0
  -29.5317  -18.6748   19.3616 C   0  0  0  0  0  0
  -30.4058  -18.7382   21.5970 C   0  0  0  0  0  0
  -29.8756  -21.7675   21.8645 C   0  0  0  0  0  0
  -28.6892  -22.0334   19.8601 C   0  0  0  0  0  0
  -29.7467  -16.2039   20.6849 C   0  0  2  0  0  0
  -29.3249  -23.2369   21.7867 C   0  0  2  0  0  0
  -29.0355  -23.5487   20.3063 C   0  0  2  0  0  0
  -29.3752  -19.5089   20.6833 C   0  0  1  0  0  0
  -30.2401  -24.2673   22.4666 C   0  0  0  0  0  0
  -28.0085  -24.7989   20.0071 C   0  0  0  0  0  0
  -29.6213  -21.0582   20.5782 N   0  3  2  0  0  0
  -31.4829  -12.6222   19.1873 H   0  0  0  0  0  0
  -30.4017  -11.5126   19.9779 H   0  0  0  0  0  0
  -29.8141  -11.7414   17.5409 H   0  0  0  0  0  0
  -29.6404  -13.4690   17.7265 H   0  0  0  0  0  0
  -27.9087  -11.2841   18.9230 H   0  0  0  0  0  0
  -27.3897  -12.5158   17.8034 H   0  0  0  0  0  0
  -27.6349  -14.2556   19.4684 H   0  0  0  0  0  0
  -28.7322  -12.1698   21.4123 H   0  0  0  0  0  0
  -28.4083  -13.8311   21.8113 H   0  0  0  0  0  0
  -25.2769   -9.5683   22.4757 H   0  0  0  0  0  0
  -24.0002   -7.4637   22.7474 H   0  0  0  0  0  0
  -21.0848   -8.8775   19.8952 H   0  0  0  0  0  0
  -22.3707  -10.9670   19.6160 H   0  0  0  0  0  0
  -21.2010   -7.6148   23.9715 H   0  0  0  0  0  0
  -21.1481   -6.0523   25.9076 H   0  0  0  0  0  0
  -22.0599   -2.7610   23.2847 H   0  0  0  0  0  0
  -22.4094  -11.9858   22.4794 H   0  0  0  0  0  0
  -21.1095  -13.1223   22.2633 H   0  0  0  0  0  0
  -24.6559  -15.8476   20.5298 H   0  0  0  0  0  0
  -26.2765  -15.6340   20.1023 H   0  0  0  0  0  0
  -26.7229  -32.5372   23.1052 H   0  0  0  0  0  0
  -25.0096  -33.9674   25.0383 H   0  0  0  0  0  0
  -22.7328  -31.2983   21.3920 H   0  0  0  0  0  0
  -23.3759  -35.9594   23.3291 H   0  0  0  0  0  0
  -24.3582  -36.8907   22.2057 H   0  0  0  0  0  0
  -23.7233  -37.6461   23.6678 H   0  0  0  0  0  0
  -26.1308  -31.5118   20.6135 H   0  0  0  0  0  0
  -26.8601  -30.7997   22.0191 H   0  0  0  0  0  0
  -28.1234  -28.8783   21.2188 H   0  0  0  0  0  0
  -25.9222  -25.8972   18.9873 H   0  0  0  0  0  0
  -23.9720  -27.3153   18.9886 H   0  0  0  0  0  0
  -23.7833  -30.5863   19.4019 H   0  0  0  0  0  0
  -22.7725  -29.2460   19.8492 H   0  0  0  0  0  0
  -25.1301  -36.1894   25.0813 H   0  0  0  0  0  0
  -20.9997  -28.3286   24.1379 H   0  0  0  0  0  0
  -20.5680  -26.2317   23.3616 H   0  0  0  0  0  0
  -21.6650  -26.7434   22.1201 H   0  0  0  0  0  0
  -19.6919  -25.6292   21.1246 H   0  0  0  0  0  0
  -19.6696  -27.3190   20.6740 H   0  0  0  0  0  0
  -17.4209  -26.6687   21.4021 H   0  0  0  0  0  0
  -18.0331  -26.0074   22.9016 H   0  0  0  0  0  0
  -19.7949  -30.7286   24.2245 H   0  0  0  0  0  0
  -17.5023  -31.6268   24.5166 H   0  0  0  0  0  0
  -15.5361  -30.2980   23.7669 H   0  0  0  0  0  0
  -15.8684  -28.0819   22.7075 H   0  0  0  0  0  0
  -24.5918  -30.7063   25.7763 H   0  0  0  0  0  0
  -24.8884  -32.2913   26.4806 H   0  0  0  0  0  0
  -25.8024  -30.8965   27.0240 H   0  0  0  0  0  0
  -26.2969  -29.6725   24.1248 H   0  0  0  0  0  0
  -27.4017  -29.7266   25.4783 H   0  0  0  0  0  0
  -27.8860  -30.4253   23.9522 H   0  0  0  0  0  0
  -27.2662  -33.3653   26.2031 H   0  0  0  0  0  0
  -28.3891  -32.6856   25.0346 H   0  0  0  0  0  0
  -28.0692  -31.8486   26.5459 H   0  0  0  0  0  0
  -28.2581  -38.0100   24.7525 H   0  0  0  0  0  0
  -28.1089  -36.2631   24.6270 H   0  0  0  0  0  0
  -27.2301  -37.1411   25.8867 H   0  0  0  0  0  0
  -20.9424  -29.8776   21.6848 H   0  0  0  0  0  0
  -26.0158  -38.2830   24.1427 H   0  0  0  0  0  0
  -29.9124  -16.6696   18.5466 H   0  0  0  0  0  0
  -28.3335  -16.8671   19.1859 H   0  0  0  0  0  0
  -29.5465  -17.0528   22.6599 H   0  0  0  0  0  0
  -31.1883  -16.7901   22.2245 H   0  0  0  0  0  0
  -28.8359  -19.0636   18.6171 H   0  0  0  0  0  0
  -30.5193  -18.8905   18.9514 H   0  0  0  0  0  0
  -31.4033  -18.9039   21.1871 H   0  0  0  0  0  0
  -30.4357  -19.1994   22.5835 H   0  0  0  0  0  0
  -29.3896  -21.2511   22.6933 H   0  0  0  0  0  0
  -30.9480  -21.7505   22.0629 H   0  0  0  0  0  0
  -28.7596  -21.9071   18.7796 H   0  0  0  0  0  0
  -27.6611  -21.7985   20.1396 H   0  0  0  0  0  0
  -28.7758  -15.8690   21.0458 H   0  0  0  0  0  0
  -28.3670  -23.2468   22.3105 H   0  0  0  0  0  0
  -29.9786  -23.8004   19.8192 H   0  0  0  0  0  0
  -28.3718  -19.3633   21.0858 H   0  0  0  0  0  0
  -31.2189  -24.3120   21.9877 H   0  0  0  0  0  0
  -30.3955  -24.0211   23.5176 H   0  0  0  0  0  0
  -29.8058  -25.2668   22.4256 H   0  0  0  0  0  0
  -27.0922  -24.5740   20.5547 H   0  0  0  0  0  0
  -27.7516  -24.6959   18.9527 H   0  0  0  0  0  0
  -30.4941  -21.1453   20.0789 H   0  0  0  0  0  0
  1 25  1  0  0  0
  1 30  2  0  0  0
  1 77  1  0  0  0
  2  3  1  0  0  0
  2 25  1  0  0  0
  2 84  1  0  0  0
  2 85  1  0  0  0
  3  4  1  0  0  0
  3 86  1  0  0  0
  3 87  1  0  0  0
  4  5  1  0  0  0
  4 88  1  0  0  0
  4 89  1  0  0  0
  5  6  1  0  0  0
  5 26  1  0  0  0
  5 90  1  0  0  0
  6 25  1  0  0  0
  6 91  1  0  0  0
  6 92  1  0  0  0
  7  8  2  0  0  0
  7 26  1  0  0  0
  7 29  1  0  0  0
  8  9  1  0  0  0
  8 22  1  0  0  0
  9 10  1  0  0  0
  9 27  2  0  0  0
 10 11  2  0  0  0
 10 15  1  0  0  0
 11 12  1  0  0  0
 11 93  1  0  0  0
 12 13  2  0  0  0
 12 94  1  0  0  0
 13 14  1  0  0  0
 13 31  1  0  0  0
 14 15  2  0  0  0
 14 95  1  0  0  0
 15 96  1  0  0  0
 16 17  2  0  0  0
 16 21  1  0  0  0
 16 31  1  0  0  0
 17 18  1  0  0  0
 17 97  1  0  0  0
 18 19  2  0  0  0
 18 98  1  0  0  0
 19 20  1  0  0  0
 19 24  1  0  0  0
 20 21  2  0  0  0
 20 99  1  0  0  0
 21 23  1  0  0  0
 22 28  1  0  0  0
 22 32  2  0  0  0
 26 27  1  0  0  0
 28100  1  0  0  0
 28101  1  0  0  0
 29102  1  0  0  0
 29103  1  0  0  0
 33 34  1  0  0  0
 33 66  1  0  0  0
 33 70  2  0  0  0
 34 36  1  0  0  0
 34 59  1  0  0  0
 34104  1  0  0  0
 35 44  2  0  0  0
 35 45  1  0  0  0
 35 68  1  0  0  0
 36 56  1  0  0  0
 36105  1  0  0  0
 37 39  1  0  0  0
 37 47  1  0  0  0
 37 66  1  0  0  0
 37106  1  0  0  0
 38 43  2  0  0  0
 38 46  1  0  0  0
 38 47  1  0  0  0
 39 64  1  0  0  0
 39 67  2  0  0  0
 40 52  1  0  0  0
 40 53  2  0  0  0
 40 58  1  0  0  0
 41107  1  0  0  0
 41108  1  0  0  0
 41109  1  0  0  0
 41 48  1  0  0  0
 42 43  1  0  0  0
 42 66  1  0  0  0
 42110  1  0  0  0
 42111  1  0  0  0
 43 44  1  0  0  0
 44112  1  0  0  0
 45 46  2  0  0  0
 45113  1  0  0  0
 46114  1  0  0  0
 47115  1  0  0  0
 47116  1  0  0  0
 48 56  1  0  0  0
 48 65  1  0  0  0
 48117  1  0  0  0
 49 50  1  0  0  0
 49 53  1  0  0  0
 49 64  1  0  0  0
 49118  1  0  0  0
 50 51  1  0  0  0
 50119  1  0  0  0
 50120  1  0  0  0
 51 52  1  0  0  0
 51121  1  0  0  0
 51122  1  0  0  0
 52123  1  0  0  0
 52124  1  0  0  0
 53 54  1  0  0  0
 54 55  2  0  0  0
 54125  1  0  0  0
 55 57  1  0  0  0
 55126  1  0  0  0
 56 69  2  0  0  0
 57 58  2  0  0  0
 57127  1  0  0  0
 58128  1  0  0  0
 59 60  1  0  0  0
 59 61  1  0  0  0
 59 62  1  0  0  0
 60129  1  0  0  0
 60130  1  0  0  0
 60131  1  0  0  0
 61132  1  0  0  0
 61133  1  0  0  0
 61134  1  0  0  0
 62135  1  0  0  0
 62136  1  0  0  0
 62137  1  0  0  0
 63 65  1  0  0  0
 63138  1  0  0  0
 63139  1  0  0  0
 63140  1  0  0  0
 64141  1  0  0  0
 65142  1  0  0  0
 68 82  1  0  0  0
 71 73  1  0  0  0
 71 77  1  0  0  0
 71143  1  0  0  0
 71144  1  0  0  0
 72 74  1  0  0  0
 72 77  1  0  0  0
 72145  1  0  0  0
 72146  1  0  0  0
 73147  1  0  0  0
 73148  1  0  0  0
 73 80  1  0  0  0
 74 80  1  0  0  0
 74149  1  0  0  0
 74150  1  0  0  0
 75 78  1  0  0  0
 75151  1  0  0  0
 75152  1  0  0  0
 75 83  1  0  0  0
 76 79  1  0  0  0
 76 83  1  0  0  0
 76153  1  0  0  0
 76154  1  0  0  0
 77155  1  0  0  0
 78 79  1  0  0  0
 78 81  1  0  0  0
 78156  1  0  0  0
 79 82  1  0  0  0
 79157  1  0  0  0
 80 83  1  0  0  0
 80158  1  0  0  0
 81159  1  0  0  0
 81160  1  0  0  0
 81161  1  0  0  0
 82162  1  0  0  0
 82163  1  0  0  0
 83164  1  0  0  0
M  CHG  1  83   1
M  ISO  4   1 100  68 101  77 100  82 101
M  END
> <chiral flag>
0

> <version>
0

> <s_m_source_file>
/data/baiqing/PycharmProjects/Reinvent-master-3.2/result/LINK_invent/BTK/process_docking_weight1_custom_sum_contain_oxygen_bond_distance_aromatic_linkinvent_7_9_3/rearranged_h_0163.sdf

> <i_m_source_file_index>
70

> <r_mmod_Potential_Energy-OPLS-2005>
356.554718017578

> <r_mmod_Stretch_Energy-OPLS-2005>
154.54524230957

> <r_mmod_Bend_Energy-OPLS-2005>
251.633148193359

> <r_mmod_Torsional_Energy-OPLS-2005>
296.503936767578

> <r_mmod_Improper_Torsional_Energy-OPLS-2005>
3.65548801422119

> <r_mmod_Van_der_Waal_Energy-OPLS-2005>
116.308044433594

> <r_mmod_Electrostatic_Energy-OPLS-2005>
-155.494018554688

> <r_mmod_Solvation_Energy-OPLS-2005>
-423.945007324219

> <b_mmod_Minimization_Converged-OPLS-2005>
0

> <r_mmod_RMS_Derivative-OPLS-2005>
0.350267201662064

$$$$
70
                    3D
 Structure written by MMmdl.
179189  0  0  1  0            999 V2000
  -30.6508  -14.8557   20.4275 C   0  0  0  0  0  0
  -30.4119  -12.5386   19.4761 C   0  0  0  0  0  0
  -29.5001  -12.5105   18.2341 C   0  0  0  0  0  0
  -28.0342  -12.3172   18.6609 C   0  0  0  0  0  0
  -27.6248  -13.2515   19.8322 C   0  0  2  0  0  0
  -28.6750  -13.2827   20.9627 C   0  0  0  0  0  0
  -25.2445  -13.8237   20.5717 C   0  0  0  0  0  0
  -24.1765  -13.0455   20.9227 C   0  0  0  0  0  0
  -24.6389  -11.6942   20.8760 C   0  0  0  0  0  0
  -23.9071  -10.4304   21.0412 C   0  0  0  0  0  0
  -24.3617   -9.4215   21.9186 C   0  0  0  0  0  0
  -23.6292   -8.2249   22.0755 C   0  0  0  0  0  0
  -22.4273   -8.0287   21.3548 C   0  0  0  0  0  0
  -21.9909   -9.0261   20.4648 C   0  0  0  0  0  0
  -22.7240  -10.2138   20.3058 C   0  0  0  0  0  0
  -21.6856   -6.0733   22.5278 C   0  0  0  0  0  0
  -21.4019   -6.5632   23.8211 C   0  0  0  0  0  0
  -21.3659   -5.6785   24.9172 C   0  0  0  0  0  0
  -21.6041   -4.3048   24.7223 C   0  0  0  0  0  0
  -21.8820   -3.8141   23.4345 C   0  0  0  0  0  0
  -21.9196   -4.6960   22.3403 C   0  0  0  0  0  0
  -22.7782  -13.5224   21.1869 C   0  0  0  0  0  0
  -22.1665   -4.2144   21.0981 F   0  0  0  0  0  0
  -21.5627   -3.4534   25.7737 F   0  0  0  0  0  0
  -29.9454  -13.6625   20.3368 N   0  0  0  0  0  0
  -26.2872  -12.9477   20.3252 N   0  0  0  0  0  0
  -25.9323  -11.6603   20.5758 N   0  0  0  0  0  0
  -22.0424  -12.8220   22.0420 N   0  0  0  0  0  0
  -25.4104  -15.1959   20.4135 N   0  0  0  0  0  0
  -31.8656  -14.7716   20.2144 O   0  0  0  0  0  0
  -21.6641   -6.8879   21.4242 O   0  0  0  0  0  0
  -22.3466  -14.5527   20.6709 O   0  0  0  0  0  0
  -24.6391  -31.8481   23.1915 C   0  0  0  0  0  0
  -25.9180  -32.4718   23.8290 C   0  0  1  0  0  0
  -27.2091  -27.1815   20.1416 C   0  0  0  0  0  0
  -25.5945  -33.8519   24.2209 N   0  0  0  0  0  0
  -23.4397  -30.4692   21.5367 C   0  0  2  0  0  0
  -24.8862  -28.9043   20.1074 C   0  0  0  0  0  0
  -22.7547  -29.4563   22.4880 C   0  0  0  0  0  0
  -18.0302  -28.1392   22.8477 C   0  0  0  0  0  0
  -24.1488  -36.7264   23.2642 C   0  0  0  0  0  0
  -25.9918  -30.7369   21.3828 C   0  0  0  0  0  0
  -26.0620  -29.3524   20.7232 C   0  0  0  0  0  0
  -27.2263  -28.5055   20.7240 C   0  0  0  0  0  0
  -26.0115  -26.8230   19.4871 C   0  0  0  0  0  0
  -24.8709  -27.6523   19.4743 C   0  0  0  0  0  0
  -23.6620  -29.8016   20.1540 C   0  0  0  0  0  0
  -25.4116  -36.3044   24.0320 C   0  0  1  0  0  0
  -20.5913  -28.3706   23.1256 C   0  0  2  0  0  0
  -20.6785  -26.9414   22.5414 C   0  0  0  0  0  0
  -19.5759  -26.6383   21.5217 C   0  0  0  0  0  0
  -18.1937  -26.7934   22.1623 C   0  0  0  0  0  0
  -19.1558  -28.8867   23.2859 C   0  0  0  0  0  0
  -18.9475  -30.1467   23.8880 C   0  0  0  0  0  0
  -17.6471  -30.6585   24.0565 C   0  0  0  0  0  0
  -25.9066  -34.9418   23.5069 C   0  0  0  0  0  0
  -16.5363  -29.9081   23.6338 C   0  0  0  0  0  0
  -16.7286  -28.6504   23.0349 C   0  0  0  0  0  0
  -26.4512  -31.6570   25.0716 C   0  0  0  0  0  0
  -25.3707  -31.3760   26.1421 C   0  0  0  0  0  0
  -27.0370  -30.2974   24.6264 C   0  0  0  0  0  0
  -27.6050  -32.4329   25.7496 C   0  0  0  0  0  0
  -27.5573  -37.1786   24.8460 C   0  0  0  0  0  0
  -21.4247  -29.3036   22.3628 N   0  0  0  0  0  0
  -26.4281  -37.3755   23.9413 N   0  0  0  0  0  0
  -24.7097  -31.0380   22.0925 N   0  0  0  0  0  0
  -23.4213  -28.8112   23.3010 O   0  0  0  0  0  0
  -28.2706  -26.2264   20.2173 O   0  0  0  0  0  0
  -26.5649  -34.8910   22.4647 O   0  0  0  0  0  0
  -23.5520  -32.1338   23.7163 O   0  0  0  0  0  0
  -30.0284  -23.8482   21.5940 C   0  0  0  0  0  0
  -30.9448  -22.8611   22.0857 C   0  0  0  0  0  0
  -29.7566  -21.0143   20.8415 C   0  0  0  0  0  0
  -28.9961  -23.5198   20.6691 C   0  0  0  0  0  0
  -30.8834  -21.5168   21.5771 C   0  0  0  0  0  0
  -28.8445  -22.0740   20.3676 C   0  0  0  0  0  0
  -30.1124  -25.3104   22.0576 C   0  0  0  0  0  0
  -31.0671  -25.6616   23.1898 C   0  0  0  0  0  0
  -31.3927  -24.4487   24.0342 C   0  0  0  0  0  0
  -28.5540  -18.3574   20.9520 C   0  0  0  0  0  0
  -30.3701  -18.6959   19.4156 C   0  0  0  0  0  0
  -28.9761  -16.7927   21.1464 C   0  0  0  0  0  0
  -30.9172  -17.2247   19.6680 C   0  0  0  0  0  0
  -29.7216  -19.3619   20.6542 C   0  0  0  0  0  0
  -31.9668  -23.2849   23.1971 C   0  0  0  0  0  0
  -32.0834  -20.5819   21.7797 C   0  0  0  0  0  0
  -27.6740  -21.6686   19.4907 C   0  0  0  0  0  0
  -32.2298  -22.1972   24.2756 C   0  0  0  0  0  0
  -33.3116  -23.7433   22.5763 C   0  0  0  0  0  0
  -28.0027  -24.7095   20.1214 C   0  0  0  0  0  0
  -30.0602  -16.1532   20.3044 N   0  0  0  0  0  0
  -31.4508  -12.6433   19.1597 H   0  0  0  0  0  0
  -30.3644  -11.5911   20.0153 H   0  0  0  0  0  0
  -29.8039  -11.7110   17.5561 H   0  0  0  0  0  0
  -29.6029  -13.4431   17.6772 H   0  0  0  0  0  0
  -27.9180  -11.2760   18.9631 H   0  0  0  0  0  0
  -27.3688  -12.4609   17.8089 H   0  0  0  0  0  0
  -27.5889  -14.2533   19.4038 H   0  0  0  0  0  0
  -28.7547  -12.3138   21.4574 H   0  0  0  0  0  0
  -28.3964  -14.0009   21.7340 H   0  0  0  0  0  0
  -25.2763   -9.5696   22.4758 H   0  0  0  0  0  0
  -24.0005   -7.4640   22.7471 H   0  0  0  0  0  0
  -21.0843   -8.8778   19.8954 H   0  0  0  0  0  0
  -22.3697  -10.9676   19.6165 H   0  0  0  0  0  0
  -21.2016   -7.6141   23.9709 H   0  0  0  0  0  0
  -21.1479   -6.0517   25.9070 H   0  0  0  0  0  0
  -22.0601   -2.7607   23.2845 H   0  0  0  0  0  0
  -22.4048  -11.9906   22.4851 H   0  0  0  0  0  0
  -21.1037  -13.1247   22.2602 H   0  0  0  0  0  0
  -24.6413  -15.8476   20.5242 H   0  0  0  0  0  0
  -26.2593  -15.6362   20.0832 H   0  0  0  0  0  0
  -26.7244  -32.5339   23.1022 H   0  0  0  0  0  0
  -25.0070  -33.9645   25.0342 H   0  0  0  0  0  0
  -22.7388  -31.2929   21.3868 H   0  0  0  0  0  0
  -23.3759  -35.9587   23.3290 H   0  0  0  0  0  0
  -24.3574  -36.8909   22.2059 H   0  0  0  0  0  0
  -23.7233  -37.6451   23.6686 H   0  0  0  0  0  0
  -26.1412  -31.4940   20.6119 H   0  0  0  0  0  0
  -26.8647  -30.7859   22.0222 H   0  0  0  0  0  0
  -28.1230  -28.8396   21.2270 H   0  0  0  0  0  0
  -25.9281  -25.8648   18.9965 H   0  0  0  0  0  0
  -23.9728  -27.3071   18.9808 H   0  0  0  0  0  0
  -23.7948  -30.5774   19.3992 H   0  0  0  0  0  0
  -22.7778  -29.2411   19.8448 H   0  0  0  0  0  0
  -25.1305  -36.1872   25.0812 H   0  0  0  0  0  0
  -21.0004  -28.3291   24.1378 H   0  0  0  0  0  0
  -20.5678  -26.2317   23.3628 H   0  0  0  0  0  0
  -21.6652  -26.7419   22.1216 H   0  0  0  0  0  0
  -19.6919  -25.6289   21.1256 H   0  0  0  0  0  0
  -19.6703  -27.3190   20.6744 H   0  0  0  0  0  0
  -17.4214  -26.6688   21.4018 H   0  0  0  0  0  0
  -18.0326  -26.0079   22.9022 H   0  0  0  0  0  0
  -19.7950  -30.7290   24.2242 H   0  0  0  0  0  0
  -17.5022  -31.6262   24.5175 H   0  0  0  0  0  0
  -15.5360  -30.2972   23.7672 H   0  0  0  0  0  0
  -15.8692  -28.0819   22.7062 H   0  0  0  0  0  0
  -24.5882  -30.7111   25.7749 H   0  0  0  0  0  0
  -24.8899  -32.2945   26.4795 H   0  0  0  0  0  0
  -25.7997  -30.8968   27.0231 H   0  0  0  0  0  0
  -26.2977  -29.6708   24.1265 H   0  0  0  0  0  0
  -27.3993  -29.7256   25.4816 H   0  0  0  0  0  0
  -27.8879  -30.4220   23.9565 H   0  0  0  0  0  0
  -27.2644  -33.3635   26.2045 H   0  0  0  0  0  0
  -28.3875  -32.6881   25.0340 H   0  0  0  0  0  0
  -28.0705  -31.8479   26.5437 H   0  0  0  0  0  0
  -28.2585  -38.0089   24.7512 H   0  0  0  0  0  0
  -28.1077  -36.2621   24.6276 H   0  0  0  0  0  0
  -27.2301  -37.1423   25.8865 H   0  0  0  0  0  0
  -20.9449  -29.8744   21.6812 H   0  0  0  0  0  0
  -26.0150  -38.2824   24.1426 H   0  0  0  0  0  0
  -29.1178  -25.6045   22.3953 H   0  0  0  0  0  0
  -30.3829  -25.9350   21.2063 H   0  0  0  0  0  0
  -30.6407  -26.4554   23.8048 H   0  0  0  0  0  0
  -31.9838  -26.0844   22.7810 H   0  0  0  0  0  0
  -30.4855  -24.1229   24.5471 H   0  0  0  0  0  0
  -32.0904  -24.7537   24.8163 H   0  0  0  0  0  0
  -28.0366  -18.6805   21.8562 H   0  0  0  0  0  0
  -27.8111  -18.4269   20.1575 H   0  0  0  0  0  0
  -29.6605  -18.6969   18.5871 H   0  0  0  0  0  0
  -31.2019  -19.3079   19.0670 H   0  0  0  0  0  0
  -28.0757  -16.1881   21.0517 H   0  0  0  0  0  0
  -29.2950  -16.6647   22.1816 H   0  0  0  0  0  0
  -31.8073  -17.3287   20.2922 H   0  0  0  0  0  0
  -31.2795  -16.8432   18.7112 H   0  0  0  0  0  0
  -30.3221  -19.0283   21.4926 H   0  0  0  0  0  0
  -33.0269  -21.1040   21.8517 H   0  0  0  0  0  0
  -32.2490  -19.9316   20.9253 H   0  0  0  0  0  0
  -31.9586  -19.9533   22.6615 H   0  0  0  0  0  0
  -27.6119  -20.5907   19.3596 H   0  0  0  0  0  0
  -27.7716  -22.1131   18.4999 H   0  0  0  0  0  0
  -26.7331  -22.0059   19.9263 H   0  0  0  0  0  0
  -31.3049  -21.7011   24.5725 H   0  0  0  0  0  0
  -32.6643  -22.6226   25.1809 H   0  0  0  0  0  0
  -32.9493  -21.4379   23.9842 H   0  0  0  0  0  0
  -33.1636  -24.4946   21.8010 H   0  0  0  0  0  0
  -33.8823  -22.9472   22.1082 H   0  0  0  0  0  0
  -33.9639  -24.1775   23.3340 H   0  0  0  0  0  0
  -27.0497  -24.5238   20.6186 H   0  0  0  0  0  0
  -27.8311  -24.5007   19.0654 H   0  0  0  0  0  0
  1 25  1  0  0  0
  1 30  2  0  0  0
  1 91  1  0  0  0
  2  3  1  0  0  0
  2 25  1  0  0  0
  2 92  1  0  0  0
  2 93  1  0  0  0
  3  4  1  0  0  0
  3 94  1  0  0  0
  3 95  1  0  0  0
  4  5  1  0  0  0
  4 96  1  0  0  0
  4 97  1  0  0  0
  5  6  1  0  0  0
  5 26  1  0  0  0
  5 98  1  0  0  0
  6 25  1  0  0  0
  6 99  1  0  0  0
  6100  1  0  0  0
  7  8  2  0  0  0
  7 26  1  0  0  0
  7 29  1  0  0  0
  8  9  1  0  0  0
  8 22  1  0  0  0
  9 10  1  0  0  0
  9 27  2  0  0  0
 10 11  2  0  0  0
 10 15  1  0  0  0
 11 12  1  0  0  0
 11101  1  0  0  0
 12 13  2  0  0  0
 12102  1  0  0  0
 13 14  1  0  0  0
 13 31  1  0  0  0
 14 15  2  0  0  0
 14103  1  0  0  0
 15104  1  0  0  0
 16 17  2  0  0  0
 16 21  1  0  0  0
 16 31  1  0  0  0
 17 18  1  0  0  0
 17105  1  0  0  0
 18 19  2  0  0  0
 18106  1  0  0  0
 19 20  1  0  0  0
 19 24  1  0  0  0
 20 21  2  0  0  0
 20107  1  0  0  0
 21 23  1  0  0  0
 22 28  1  0  0  0
 22 32  2  0  0  0
 26 27  1  0  0  0
 28108  1  0  0  0
 28109  1  0  0  0
 29110  1  0  0  0
 29111  1  0  0  0
 33 34  1  0  0  0
 33 66  1  0  0  0
 33 70  2  0  0  0
 34 36  1  0  0  0
 34 59  1  0  0  0
 34112  1  0  0  0
 35 44  2  0  0  0
 35 45  1  0  0  0
 35 68  1  0  0  0
 36 56  1  0  0  0
 36113  1  0  0  0
 37 39  1  0  0  0
 37 47  1  0  0  0
 37 66  1  0  0  0
 37114  1  0  0  0
 38 43  2  0  0  0
 38 46  1  0  0  0
 38 47  1  0  0  0
 39 64  1  0  0  0
 39 67  2  0  0  0
 40 52  1  0  0  0
 40 53  2  0  0  0
 40 58  1  0  0  0
 41115  1  0  0  0
 41116  1  0  0  0
 41117  1  0  0  0
 41 48  1  0  0  0
 42 43  1  0  0  0
 42 66  1  0  0  0
 42118  1  0  0  0
 42119  1  0  0  0
 43 44  1  0  0  0
 44120  1  0  0  0
 45 46  2  0  0  0
 45121  1  0  0  0
 46122  1  0  0  0
 47123  1  0  0  0
 47124  1  0  0  0
 48 56  1  0  0  0
 48 65  1  0  0  0
 48125  1  0  0  0
 49 50  1  0  0  0
 49 53  1  0  0  0
 49 64  1  0  0  0
 49126  1  0  0  0
 50 51  1  0  0  0
 50127  1  0  0  0
 50128  1  0  0  0
 51 52  1  0  0  0
 51129  1  0  0  0
 51130  1  0  0  0
 52131  1  0  0  0
 52132  1  0  0  0
 53 54  1  0  0  0
 54 55  2  0  0  0
 54133  1  0  0  0
 55 57  1  0  0  0
 55134  1  0  0  0
 56 69  2  0  0  0
 57 58  2  0  0  0
 57135  1  0  0  0
 58136  1  0  0  0
 59 60  1  0  0  0
 59 61  1  0  0  0
 59 62  1  0  0  0
 60137  1  0  0  0
 60138  1  0  0  0
 60139  1  0  0  0
 61140  1  0  0  0
 61141  1  0  0  0
 61142  1  0  0  0
 62143  1  0  0  0
 62144  1  0  0  0
 62145  1  0  0  0
 63 65  1  0  0  0
 63146  1  0  0  0
 63147  1  0  0  0
 63148  1  0  0  0
 64149  1  0  0  0
 65150  1  0  0  0
 68 90  1  0  0  0
 71 72  1  0  0  0
 71 74  2  0  0  0
 71 77  1  0  0  0
 72 75  2  0  0  0
 72 85  1  0  0  0
 73 75  1  0  0  0
 73 76  2  0  0  0
 73 84  1  0  0  0
 74 76  1  0  0  0
 74 90  1  0  0  0
 75 86  1  0  0  0
 76 87  1  0  0  0
 77 78  1  0  0  0
 77151  1  0  0  0
 77152  1  0  0  0
 78 79  1  0  0  0
 78153  1  0  0  0
 78154  1  0  0  0
 79 85  1  0  0  0
 79155  1  0  0  0
 79156  1  0  0  0
 80 82  1  0  0  0
 80 84  1  0  0  0
 80157  1  0  0  0
 80158  1  0  0  0
 81 83  1  0  0  0
 81 84  1  0  0  0
 81159  1  0  0  0
 81160  1  0  0  0
 82 91  1  0  0  0
 82161  1  0  0  0
 82162  1  0  0  0
 83 91  1  0  0  0
 83163  1  0  0  0
 83164  1  0  0  0
 84165  1  0  0  0
 85 88  1  0  0  0
 85 89  1  0  0  0
 86166  1  0  0  0
 86167  1  0  0  0
 86168  1  0  0  0
 87169  1  0  0  0
 87170  1  0  0  0
 87171  1  0  0  0
 88172  1  0  0  0
 88173  1  0  0  0
 88174  1  0  0  0
 89175  1  0  0  0
 89176  1  0  0  0
 89177  1  0  0  0
 90178  1  0  0  0
 90179  1  0  0  0
M  ISO  4   1 100  68 101  90 101  91 100
M  END
> <chiral flag>
0

> <version>
0

> <s_m_source_file>
/data/baiqing/PycharmProjects/Reinvent-master-3.2/result/LINK_invent/BTK/process_docking_weight1_custom_sum_contain_oxygen_bond_distance_aromatic_linkinvent_7_9_3/rearranged_h_0163.sdf

> <i_m_source_file_index>
71

> <r_mmod_Potential_Energy-OPLS-2005>
719.709655761719

> <r_mmod_Stretch_Energy-OPLS-2005>
223.480026245117

> <r_mmod_Bend_Energy-OPLS-2005>
299.151306152344

> <r_mmod_Torsional_Energy-OPLS-2005>
359.984252929688

> <r_mmod_Improper_Torsional_Energy-OPLS-2005>
15.4543600082397

> <r_mmod_Van_der_Waal_Energy-OPLS-2005>
188.704605102539

> <r_mmod_Electrostatic_Energy-OPLS-2005>
-323.4462890625

> <r_mmod_Solvation_Energy-OPLS-2005>
-191.438751220703

> <b_mmod_Minimization_Converged-OPLS-2005>
0

> <r_mmod_RMS_Derivative-OPLS-2005>
1.05901765823364

$$$$
71
                    3D
 Structure written by MMmdl.
158167  0  0  1  0            999 V2000
  -30.6564  -14.6127   20.4672 C   0  0  0  0  0  0
  -30.4143  -12.3417   19.4698 C   0  0  0  0  0  0
  -29.5000  -12.4731   18.2315 C   0  0  0  0  0  0
  -28.0215  -12.3249   18.6385 C   0  0  0  0  0  0
  -27.6403  -13.2205   19.8485 C   0  0  2  0  0  0
  -28.6669  -13.1064   20.9910 C   0  0  0  0  0  0
  -25.2514  -13.8186   20.5663 C   0  0  0  0  0  0
  -24.1789  -13.0446   20.9166 C   0  0  0  0  0  0
  -24.6363  -11.6916   20.8721 C   0  0  0  0  0  0
  -23.9055  -10.4298   21.0409 C   0  0  0  0  0  0
  -24.3614   -9.4216   21.9191 C   0  0  0  0  0  0
  -23.6289   -8.2249   22.0756 C   0  0  0  0  0  0
  -22.4269   -8.0280   21.3548 C   0  0  0  0  0  0
  -21.9910   -9.0255   20.4652 C   0  0  0  0  0  0
  -22.7234  -10.2137   20.3062 C   0  0  0  0  0  0
  -21.6851   -6.0729   22.5276 C   0  0  0  0  0  0
  -21.4013   -6.5632   23.8211 C   0  0  0  0  0  0
  -21.3656   -5.6790   24.9171 C   0  0  0  0  0  0
  -21.6052   -4.3050   24.7228 C   0  0  0  0  0  0
  -21.8823   -3.8139   23.4346 C   0  0  0  0  0  0
  -21.9193   -4.6957   22.3397 C   0  0  0  0  0  0
  -22.7821  -13.5237   21.1857 C   0  0  0  0  0  0
  -22.1663   -4.2136   21.0978 F   0  0  0  0  0  0
  -21.5631   -3.4542   25.7748 F   0  0  0  0  0  0
  -29.9928  -13.3690   20.4351 N   0  0  0  0  0  0
  -26.2907  -12.9378   20.3237 N   0  0  0  0  0  0
  -25.9279  -11.6535   20.5725 N   0  0  0  0  0  0
  -22.0505  -12.8205   22.0413 N   0  0  0  0  0  0
  -25.4280  -15.1910   20.4122 N   0  0  0  0  0  0
  -31.8279  -14.7577   20.1138 O   0  0  0  0  0  0
  -21.6647   -6.8874   21.4233 O   0  0  0  0  0  0
  -22.3507  -14.5554   20.6721 O   0  0  0  0  0  0
  -24.6216  -31.8603   23.2024 C   0  0  0  0  0  0
  -25.9060  -32.4780   23.8357 C   0  0  1  0  0  0
  -27.2244  -27.3393   20.1286 C   0  0  0  0  0  0
  -25.5900  -33.8574   24.2301 N   0  0  0  0  0  0
  -23.4186  -30.4779   21.5472 C   0  0  2  0  0  0
  -24.8636  -28.9272   20.1199 C   0  0  0  0  0  0
  -22.7443  -29.4593   22.4977 C   0  0  0  0  0  0
  -18.0269  -28.1374   22.8466 C   0  0  0  0  0  0
  -24.1496  -36.7295   23.2645 C   0  0  0  0  0  0
  -25.9522  -30.7978   21.3674 C   0  0  0  0  0  0
  -26.0318  -29.4238   20.7159 C   0  0  0  0  0  0
  -27.2189  -28.6432   20.7021 C   0  0  0  0  0  0
  -26.0409  -26.8725   19.5263 C   0  0  0  0  0  0
  -24.8679  -27.6530   19.5206 C   0  0  0  0  0  0
  -23.6296  -29.8041   20.1664 C   0  0  0  0  0  0
  -25.4121  -36.3090   24.0347 C   0  0  1  0  0  0
  -20.5864  -28.3666   23.1286 C   0  0  2  0  0  0
  -20.6755  -26.9399   22.5407 C   0  0  0  0  0  0
  -19.5734  -26.6382   21.5206 C   0  0  0  0  0  0
  -18.1898  -26.7920   22.1613 C   0  0  0  0  0  0
  -19.1519  -28.8840   23.2859 C   0  0  0  0  0  0
  -18.9472  -30.1436   23.8891 C   0  0  0  0  0  0
  -17.6476  -30.6571   24.0552 C   0  0  0  0  0  0
  -25.9067  -34.9456   23.5132 C   0  0  0  0  0  0
  -16.5359  -29.9077   23.6338 C   0  0  0  0  0  0
  -16.7261  -28.6501   23.0348 C   0  0  0  0  0  0
  -26.4464  -31.6583   25.0708 C   0  0  0  0  0  0
  -25.3716  -31.3705   26.1454 C   0  0  0  0  0  0
  -27.0314  -30.3024   24.6122 C   0  0  0  0  0  0
  -27.6043  -32.4309   25.7436 C   0  0  0  0  0  0
  -27.5594  -37.1788   24.8463 C   0  0  0  0  0  0
  -21.4165  -29.3023   22.3701 N   0  0  0  0  0  0
  -26.4307  -37.3773   23.9426 N   0  0  0  0  0  0
  -24.6828  -31.0607   22.0975 N   0  0  0  0  0  0
  -23.4150  -28.8175   23.3102 O   0  0  0  0  0  0
  -28.3583  -26.5347   20.0835 O   0  0  0  0  0  0
  -26.5636  -34.8913   22.4699 O   0  0  0  0  0  0
  -23.5373  -32.1401   23.7346 O   0  0  0  0  0  0
  -29.5705  -19.1714   21.7370 C   0  0  0  0  0  0
  -29.4915  -18.3677   20.5821 C   0  0  0  0  0  0
  -28.8267  -18.9653   19.4732 C   0  0  0  0  0  0
  -28.3770  -20.3324   19.5499 C   0  0  0  0  0  0
  -28.5673  -21.0885   20.7544 C   0  0  0  0  0  0
  -26.8191  -23.1486   20.7903 C   0  0  0  0  0  0
  -28.1742  -22.5723   21.1102 C   0  0  2  0  0  0
  -28.0436  -23.8974   20.2736 C   0  0  2  0  0  0
  -28.6342  -18.1679   18.1870 C   0  0  0  0  0  0
  -27.7334  -20.9471   18.3085 C   0  0  0  0  0  0
  -30.3586  -17.0574   20.4934 C   0  0  0  0  0  0
  -28.3816  -25.3028   20.8814 C   0  0  0  0  0  0
  -29.1248  -20.4534   21.8178 N   0  0  0  0  0  0
  -29.8115  -15.7205   20.7309 O   0  0  0  0  0  0
  -31.4628  -12.4448   19.1812 H   0  0  0  0  0  0
  -30.3202  -11.3505   19.9148 H   0  0  0  0  0  0
  -29.7575  -11.7116   17.4941 H   0  0  0  0  0  0
  -29.6566  -13.4368   17.7463 H   0  0  0  0  0  0
  -27.8586  -11.2764   18.8922 H   0  0  0  0  0  0
  -27.3686  -12.5353   17.7905 H   0  0  0  0  0  0
  -27.6585  -14.2499   19.4889 H   0  0  0  0  0  0
  -28.6445  -12.1106   21.4340 H   0  0  0  0  0  0
  -28.4288  -13.8032   21.7958 H   0  0  0  0  0  0
  -25.2760   -9.5682   22.4767 H   0  0  0  0  0  0
  -23.9988   -7.4646   22.7472 H   0  0  0  0  0  0
  -21.0850   -8.8795   19.8958 H   0  0  0  0  0  0
  -22.3708  -10.9686   19.6172 H   0  0  0  0  0  0
  -21.2012   -7.6146   23.9702 H   0  0  0  0  0  0
  -21.1470   -6.0528   25.9076 H   0  0  0  0  0  0
  -22.0603   -2.7598   23.2863 H   0  0  0  0  0  0
  -22.4133  -11.9836   22.4730 H   0  0  0  0  0  0
  -21.1135  -13.1231   22.2704 H   0  0  0  0  0  0
  -24.6753  -15.8562   20.5449 H   0  0  0  0  0  0
  -26.3023  -15.6253   20.1424 H   0  0  0  0  0  0
  -26.7094  -32.5500   23.1090 H   0  0  0  0  0  0
  -24.9995  -33.9724   25.0395 H   0  0  0  0  0  0
  -22.7164  -31.2998   21.3977 H   0  0  0  0  0  0
  -23.3775  -35.9619   23.3303 H   0  0  0  0  0  0
  -24.3564  -36.8938   22.2058 H   0  0  0  0  0  0
  -23.7244  -37.6497   23.6665 H   0  0  0  0  0  0
  -26.0748  -31.5626   20.5994 H   0  0  0  0  0  0
  -26.8348  -30.8542   21.9958 H   0  0  0  0  0  0
  -28.1251  -29.0205   21.1534 H   0  0  0  0  0  0
  -26.0317  -25.8998   19.0499 H   0  0  0  0  0  0
  -23.9731  -27.2646   19.0534 H   0  0  0  0  0  0
  -23.7516  -30.5753   19.4046 H   0  0  0  0  0  0
  -22.7502  -29.2290   19.8702 H   0  0  0  0  0  0
  -25.1280  -36.1961   25.0846 H   0  0  0  0  0  0
  -20.9937  -28.3267   24.1421 H   0  0  0  0  0  0
  -20.5669  -26.2295   23.3608 H   0  0  0  0  0  0
  -21.6617  -26.7439   22.1210 H   0  0  0  0  0  0
  -19.6925  -25.6307   21.1224 H   0  0  0  0  0  0
  -19.6689  -27.3197   20.6737 H   0  0  0  0  0  0
  -17.4181  -26.6668   21.3984 H   0  0  0  0  0  0
  -18.0264  -26.0060   22.9016 H   0  0  0  0  0  0
  -19.7976  -30.7181   24.2300 H   0  0  0  0  0  0
  -17.5069  -31.6265   24.5119 H   0  0  0  0  0  0
  -15.5367  -30.2971   23.7688 H   0  0  0  0  0  0
  -15.8666  -28.0807   22.7093 H   0  0  0  0  0  0
  -24.5913  -30.7024   25.7796 H   0  0  0  0  0  0
  -24.8837  -32.2832   26.4881 H   0  0  0  0  0  0
  -25.8038  -30.8903   27.0248 H   0  0  0  0  0  0
  -26.2863  -29.6741   24.1226 H   0  0  0  0  0  0
  -27.4134  -29.7305   25.4595 H   0  0  0  0  0  0
  -27.8684  -30.4334   23.9261 H   0  0  0  0  0  0
  -27.2716  -33.3637   26.2010 H   0  0  0  0  0  0
  -28.3830  -32.6847   25.0230 H   0  0  0  0  0  0
  -28.0742  -31.8442   26.5347 H   0  0  0  0  0  0
  -28.2598  -38.0088   24.7516 H   0  0  0  0  0  0
  -28.1100  -36.2619   24.6277 H   0  0  0  0  0  0
  -27.2293  -37.1437   25.8858 H   0  0  0  0  0  0
  -20.9370  -29.8785   21.6946 H   0  0  0  0  0  0
  -26.0215  -38.2871   24.1434 H   0  0  0  0  0  0
  -30.0791  -18.8013   22.6150 H   0  0  0  0  0  0
  -26.2742  -23.5806   21.6265 H   0  0  0  0  0  0
  -26.1902  -22.6356   20.0692 H   0  0  0  0  0  0
  -28.5031  -22.7537   22.1326 H   0  0  0  0  0  0
  -28.3312  -23.8036   19.2313 H   0  0  0  0  0  0
  -28.8191  -17.1027   18.3250 H   0  0  0  0  0  0
  -29.3036  -18.5293   17.4065 H   0  0  0  0  0  0
  -27.6092  -18.2503   17.8224 H   0  0  0  0  0  0
  -26.8395  -20.3949   18.0162 H   0  0  0  0  0  0
  -28.4281  -20.9233   17.4701 H   0  0  0  0  0  0
  -27.4349  -21.9809   18.4262 H   0  0  0  0  0  0
  -31.1890  -17.1874   21.1894 H   0  0  0  0  0  0
  -30.8187  -17.0609   19.5048 H   0  0  0  0  0  0
  -29.4100  -25.2312   21.2383 H   0  0  0  0  0  0
  -27.7882  -25.4488   21.7848 H   0  0  0  0  0  0
  1 25  1  0  0  0
  1 30  2  0  0  0
  1 84  1  0  0  0
  2  3  1  0  0  0
  2 25  1  0  0  0
  2 85  1  0  0  0
  2 86  1  0  0  0
  3  4  1  0  0  0
  3 87  1  0  0  0
  3 88  1  0  0  0
  4  5  1  0  0  0
  4 89  1  0  0  0
  4 90  1  0  0  0
  5  6  1  0  0  0
  5 26  1  0  0  0
  5 91  1  0  0  0
  6 25  1  0  0  0
  6 92  1  0  0  0
  6 93  1  0  0  0
  7  8  2  0  0  0
  7 26  1  0  0  0
  7 29  1  0  0  0
  8  9  1  0  0  0
  8 22  1  0  0  0
  9 10  1  0  0  0
  9 27  2  0  0  0
 10 11  2  0  0  0
 10 15  1  0  0  0
 11 12  1  0  0  0
 11 94  1  0  0  0
 12 13  2  0  0  0
 12 95  1  0  0  0
 13 14  1  0  0  0
 13 31  1  0  0  0
 14 15  2  0  0  0
 14 96  1  0  0  0
 15 97  1  0  0  0
 16 17  2  0  0  0
 16 21  1  0  0  0
 16 31  1  0  0  0
 17 18  1  0  0  0
 17 98  1  0  0  0
 18 19  2  0  0  0
 18 99  1  0  0  0
 19 20  1  0  0  0
 19 24  1  0  0  0
 20 21  2  0  0  0
 20100  1  0  0  0
 21 23  1  0  0  0
 22 28  1  0  0  0
 22 32  2  0  0  0
 26 27  1  0  0  0
 28101  1  0  0  0
 28102  1  0  0  0
 29103  1  0  0  0
 29104  1  0  0  0
 33 34  1  0  0  0
 33 66  1  0  0  0
 33 70  2  0  0  0
 34 36  1  0  0  0
 34 59  1  0  0  0
 34105  1  0  0  0
 35 44  2  0  0  0
 35 45  1  0  0  0
 35 68  1  0  0  0
 36 56  1  0  0  0
 36106  1  0  0  0
 37 39  1  0  0  0
 37 47  1  0  0  0
 37 66  1  0  0  0
 37107  1  0  0  0
 38 43  2  0  0  0
 38 46  1  0  0  0
 38 47  1  0  0  0
 39 64  1  0  0  0
 39 67  2  0  0  0
 40 52  1  0  0  0
 40 53  2  0  0  0
 40 58  1  0  0  0
 41108  1  0  0  0
 41109  1  0  0  0
 41110  1  0  0  0
 41 48  1  0  0  0
 42 43  1  0  0  0
 42 66  1  0  0  0
 42111  1  0  0  0
 42112  1  0  0  0
 43 44  1  0  0  0
 44113  1  0  0  0
 45 46  2  0  0  0
 45114  1  0  0  0
 46115  1  0  0  0
 47116  1  0  0  0
 47117  1  0  0  0
 48 56  1  0  0  0
 48 65  1  0  0  0
 48118  1  0  0  0
 49 50  1  0  0  0
 49 53  1  0  0  0
 49 64  1  0  0  0
 49119  1  0  0  0
 50 51  1  0  0  0
 50120  1  0  0  0
 50121  1  0  0  0
 51 52  1  0  0  0
 51122  1  0  0  0
 51123  1  0  0  0
 52124  1  0  0  0
 52125  1  0  0  0
 53 54  1  0  0  0
 54 55  2  0  0  0
 54126  1  0  0  0
 55 57  1  0  0  0
 55127  1  0  0  0
 56 69  2  0  0  0
 57 58  2  0  0  0
 57128  1  0  0  0
 58129  1  0  0  0
 59 60  1  0  0  0
 59 61  1  0  0  0
 59 62  1  0  0  0
 60130  1  0  0  0
 60131  1  0  0  0
 60132  1  0  0  0
 61133  1  0  0  0
 61134  1  0  0  0
 61135  1  0  0  0
 62136  1  0  0  0
 62137  1  0  0  0
 62138  1  0  0  0
 63 65  1  0  0  0
 63139  1  0  0  0
 63140  1  0  0  0
 63141  1  0  0  0
 64142  1  0  0  0
 65143  1  0  0  0
 68 82  1  0  0  0
 71 72  2  0  0  0
 71 83  1  0  0  0
 71144  1  0  0  0
 72 73  1  0  0  0
 72 81  1  0  0  0
 73 74  2  0  0  0
 73 79  1  0  0  0
 74 75  1  0  0  0
 74 80  1  0  0  0
 75 83  2  0  0  0
 75 77  1  0  0  0
 76 77  1  0  0  0
 76 78  1  0  0  0
 76145  1  0  0  0
 76146  1  0  0  0
 77 78  1  0  0  0
 77147  1  0  0  0
 78 82  1  0  0  0
 78148  1  0  0  0
 79149  1  0  0  0
 79150  1  0  0  0
 79151  1  0  0  0
 80152  1  0  0  0
 80153  1  0  0  0
 80154  1  0  0  0
 81 84  1  0  0  0
 81155  1  0  0  0
 81156  1  0  0  0
 82157  1  0  0  0
 82158  1  0  0  0
M  ISO  4   1 100  68 101  82 101  84 100
M  END
> <chiral flag>
0

> <version>
0

> <s_m_source_file>
/data/baiqing/PycharmProjects/Reinvent-master-3.2/result/LINK_invent/BTK/process_docking_weight1_custom_sum_contain_oxygen_bond_distance_aromatic_linkinvent_7_9_3/rearranged_h_0163.sdf

> <i_m_source_file_index>
72

> <r_mmod_Potential_Energy-OPLS-2005>
-9.7531681060791

> <r_mmod_Stretch_Energy-OPLS-2005>
79.5102996826172

> <r_mmod_Bend_Energy-OPLS-2005>
155.622695922852

> <r_mmod_Torsional_Energy-OPLS-2005>
240.634887695312

> <r_mmod_Improper_Torsional_Energy-OPLS-2005>
6.53231763839722

> <r_mmod_Van_der_Waal_Energy-OPLS-2005>
143.729293823242

> <r_mmod_Electrostatic_Energy-OPLS-2005>
-472.713806152344

> <r_mmod_Solvation_Energy-OPLS-2005>
-202.161346435547

> <b_mmod_Minimization_Converged-OPLS-2005>
0

> <r_mmod_RMS_Derivative-OPLS-2005>
3.86701464653015

$$$$
72
                    3D
 Structure written by MMmdl.
174184  0  0  1  0            999 V2000
  -30.7132  -14.5100   20.4944 C   0  0  0  0  0  0
  -30.4178  -12.3127   19.4203 C   0  0  0  0  0  0
  -29.4821  -12.4695   18.2039 C   0  0  0  0  0  0
  -28.0073  -12.3193   18.6293 C   0  0  0  0  0  0
  -27.6418  -13.1807   19.8673 C   0  0  2  0  0  0
  -28.7047  -13.0504   20.9849 C   0  0  0  0  0  0
  -25.2551  -13.8070   20.5770 C   0  0  0  0  0  0
  -24.1778  -13.0375   20.9237 C   0  0  0  0  0  0
  -24.6310  -11.6835   20.8792 C   0  0  0  0  0  0
  -23.8993  -10.4249   21.0453 C   0  0  0  0  0  0
  -24.3573   -9.4166   21.9207 C   0  0  0  0  0  0
  -23.6259   -8.2199   22.0762 C   0  0  0  0  0  0
  -22.4241   -8.0255   21.3549 C   0  0  0  0  0  0
  -21.9875   -9.0223   20.4648 C   0  0  0  0  0  0
  -22.7190  -10.2102   20.3076 C   0  0  0  0  0  0
  -21.6834   -6.0727   22.5287 C   0  0  0  0  0  0
  -21.4005   -6.5637   23.8221 C   0  0  0  0  0  0
  -21.3652   -5.6793   24.9185 C   0  0  0  0  0  0
  -21.6042   -4.3059   24.7235 C   0  0  0  0  0  0
  -21.8827   -3.8146   23.4360 C   0  0  0  0  0  0
  -21.9184   -4.6958   22.3411 C   0  0  0  0  0  0
  -22.7817  -13.5207   21.1882 C   0  0  0  0  0  0
  -22.1663   -4.2148   21.0988 F   0  0  0  0  0  0
  -21.5619   -3.4543   25.7746 F   0  0  0  0  0  0
  -30.0254  -13.3360   20.3997 N   0  0  0  0  0  0
  -26.2931  -12.9155   20.3446 N   0  0  0  0  0  0
  -25.9226  -11.6355   20.5847 N   0  0  0  0  0  0
  -22.0431  -12.8203   22.0425 N   0  0  0  0  0  0
  -25.4300  -15.1788   20.4207 N   0  0  0  0  0  0
  -31.8976  -14.6170   20.1709 O   0  0  0  0  0  0
  -21.6608   -6.8857   21.4244 O   0  0  0  0  0  0
  -22.3540  -14.5523   20.6724 O   0  0  0  0  0  0
  -24.6126  -31.8681   23.2082 C   0  0  0  0  0  0
  -25.9021  -32.4823   23.8391 C   0  0  1  0  0  0
  -27.2442  -27.4447   20.0981 C   0  0  0  0  0  0
  -25.5880  -33.8624   24.2322 N   0  0  0  0  0  0
  -23.4003  -30.4895   21.5479 C   0  0  2  0  0  0
  -24.8482  -28.9478   20.1180 C   0  0  0  0  0  0
  -22.7388  -29.4667   22.4982 C   0  0  0  0  0  0
  -18.0272  -28.1383   22.8491 C   0  0  0  0  0  0
  -24.1491  -36.7314   23.2636 C   0  0  0  0  0  0
  -25.9262  -30.8368   21.3578 C   0  0  0  0  0  0
  -26.0048  -29.4703   20.7080 C   0  0  0  0  0  0
  -27.2049  -28.7280   20.6863 C   0  0  0  0  0  0
  -26.0697  -26.9260   19.5102 C   0  0  0  0  0  0
  -24.8748  -27.6753   19.5178 C   0  0  0  0  0  0
  -23.6092  -29.8141   20.1652 C   0  0  0  0  0  0
  -25.4115  -36.3118   24.0338 C   0  0  1  0  0  0
  -20.5857  -28.3673   23.1320 C   0  0  2  0  0  0
  -20.6763  -26.9409   22.5415 C   0  0  0  0  0  0
  -19.5751  -26.6392   21.5208 C   0  0  0  0  0  0
  -18.1926  -26.7928   22.1618 C   0  0  0  0  0  0
  -19.1519  -28.8842   23.2901 C   0  0  0  0  0  0
  -18.9448  -30.1438   23.8926 C   0  0  0  0  0  0
  -17.6453  -30.6586   24.0573 C   0  0  0  0  0  0
  -25.9039  -34.9479   23.5128 C   0  0  0  0  0  0
  -16.5345  -29.9094   23.6322 C   0  0  0  0  0  0
  -16.7262  -28.6507   23.0353 C   0  0  0  0  0  0
  -26.4459  -31.6603   25.0710 C   0  0  0  0  0  0
  -25.3727  -31.3690   26.1453 C   0  0  0  0  0  0
  -27.0273  -30.3049   24.6060 C   0  0  0  0  0  0
  -27.6049  -32.4308   25.7457 C   0  0  0  0  0  0
  -27.5600  -37.1799   24.8455 C   0  0  0  0  0  0
  -21.4117  -29.3038   22.3718 N   0  0  0  0  0  0
  -26.4301  -37.3808   23.9418 N   0  0  0  0  0  0
  -24.6644  -31.0796   22.0969 N   0  0  0  0  0  0
  -23.4167  -28.8217   23.3024 O   0  0  0  0  0  0
  -28.4487  -26.7770   20.0811 O   0  0  0  0  0  0
  -26.5612  -34.8933   22.4695 O   0  0  0  0  0  0
  -23.5319  -32.1421   23.7488 O   0  0  0  0  0  0
  -30.6089  -19.7570   19.5815 C   0  0  0  0  0  0
  -31.1127  -19.0073   22.2336 C   0  0  0  0  0  0
  -30.3808  -18.4298   19.9971 C   0  0  0  0  0  0
  -30.6302  -18.0391   21.3272 C   0  0  0  0  0  0
  -31.1555  -20.7131   20.4660 C   0  0  0  0  0  0
  -31.4006  -20.3356   21.8135 C   0  0  0  0  0  0
  -29.9148  -17.4070   18.9912 C   0  0  0  0  0  0
  -30.3976  -16.5919   21.7929 C   0  0  0  0  0  0
  -29.4844  -23.2949   18.9741 C   0  0  0  0  0  0
  -30.1269  -23.6685   21.3493 C   0  0  0  0  0  0
  -28.8938  -24.7228   18.8650 C   0  0  0  0  0  0
  -29.5638  -25.1036   21.3210 C   0  0  0  0  0  0
  -29.2077  -16.2215   19.6539 C   0  0  0  0  0  0
  -30.6690  -23.2893   19.9607 C   0  0  1  0  0  0
  -28.5003  -25.3517   20.2243 C   0  0  1  0  0  0
  -32.3450  -21.9369   18.5529 C   0  0  0  0  0  0
  -32.4606  -20.8660   23.9095 C   0  0  0  0  0  0
  -31.6451  -22.0715   19.9228 C   0  0  2  0  0  0
  -29.9780  -15.6202   20.7585 N   0  0  0  0  0  0
  -31.9457  -21.2844   22.6531 O   0  0  0  0  0  0
  -31.4605  -12.4028   19.1102 H   0  0  0  0  0  0
  -30.3199  -11.3179   19.8579 H   0  0  0  0  0  0
  -29.7239  -11.7245   17.4443 H   0  0  0  0  0  0
  -29.6366  -13.4424   17.7357 H   0  0  0  0  0  0
  -27.8364  -11.2657   18.8525 H   0  0  0  0  0  0
  -27.3487  -12.5599   17.7943 H   0  0  0  0  0  0
  -27.6168  -14.2012   19.5194 H   0  0  0  0  0  0
  -28.6976  -12.0424   21.4039 H   0  0  0  0  0  0
  -28.4771  -13.7230   21.8133 H   0  0  0  0  0  0
  -25.2723   -9.5641   22.4777 H   0  0  0  0  0  0
  -23.9979   -7.4586   22.7470 H   0  0  0  0  0  0
  -21.0816   -8.8738   19.8938 H   0  0  0  0  0  0
  -22.3668  -10.9652   19.6196 H   0  0  0  0  0  0
  -21.2011   -7.6148   23.9726 H   0  0  0  0  0  0
  -21.1465   -6.0525   25.9085 H   0  0  0  0  0  0
  -22.0609   -2.7609   23.2861 H   0  0  0  0  0  0
  -22.4055  -11.9869   22.4823 H   0  0  0  0  0  0
  -21.1049  -13.1244   22.2626 H   0  0  0  0  0  0
  -24.6656  -15.8363   20.5330 H   0  0  0  0  0  0
  -26.2920  -15.6187   20.1278 H   0  0  0  0  0  0
  -26.7083  -32.5554   23.1153 H   0  0  0  0  0  0
  -25.0011  -33.9793   25.0456 H   0  0  0  0  0  0
  -22.6885  -31.3052   21.4039 H   0  0  0  0  0  0
  -23.3770  -35.9624   23.3274 H   0  0  0  0  0  0
  -24.3595  -36.8957   22.2053 H   0  0  0  0  0  0
  -23.7214  -37.6502   23.6668 H   0  0  0  0  0  0
  -26.0351  -31.6020   20.5883 H   0  0  0  0  0  0
  -26.8167  -30.8926   21.9735 H   0  0  0  0  0  0
  -28.1047  -29.1352   21.1265 H   0  0  0  0  0  0
  -26.0763  -25.9565   19.0329 H   0  0  0  0  0  0
  -23.9849  -27.2678   19.0581 H   0  0  0  0  0  0
  -23.7169  -30.5854   19.4011 H   0  0  0  0  0  0
  -22.7340  -29.2314   19.8722 H   0  0  0  0  0  0
  -25.1279  -36.1982   25.0828 H   0  0  0  0  0  0
  -20.9956  -28.3250   24.1440 H   0  0  0  0  0  0
  -20.5665  -26.2280   23.3593 H   0  0  0  0  0  0
  -21.6636  -26.7450   22.1220 H   0  0  0  0  0  0
  -19.6914  -25.6307   21.1228 H   0  0  0  0  0  0
  -19.6698  -27.3211   20.6739 H   0  0  0  0  0  0
  -17.4188  -26.6673   21.4028 H   0  0  0  0  0  0
  -18.0337  -26.0074   22.9016 H   0  0  0  0  0  0
  -19.7922  -30.7241   24.2332 H   0  0  0  0  0  0
  -17.5007  -31.6280   24.5157 H   0  0  0  0  0  0
  -15.5347  -30.3012   23.7619 H   0  0  0  0  0  0
  -15.8660  -28.0826   22.7069 H   0  0  0  0  0  0
  -24.5894  -30.7053   25.7785 H   0  0  0  0  0  0
  -24.8920  -32.2829   26.4955 H   0  0  0  0  0  0
  -25.8077  -30.8820   27.0186 H   0  0  0  0  0  0
  -26.2798  -29.6825   24.1131 H   0  0  0  0  0  0
  -27.4065  -29.7278   25.4506 H   0  0  0  0  0  0
  -27.8623  -30.4382   23.9176 H   0  0  0  0  0  0
  -27.2690  -33.3597   26.2087 H   0  0  0  0  0  0
  -28.3825  -32.6894   25.0253 H   0  0  0  0  0  0
  -28.0751  -31.8395   26.5324 H   0  0  0  0  0  0
  -28.2575  -38.0144   24.7586 H   0  0  0  0  0  0
  -28.1141  -36.2680   24.6176 H   0  0  0  0  0  0
  -27.2324  -37.1319   25.8858 H   0  0  0  0  0  0
  -20.9272  -29.8749   21.6935 H   0  0  0  0  0  0
  -26.0187  -38.2870   24.1490 H   0  0  0  0  0  0
  -30.4228  -20.0172   18.5503 H   0  0  0  0  0  0
  -31.2870  -18.6974   23.2538 H   0  0  0  0  0  0
  -30.7868  -17.0582   18.4361 H   0  0  0  0  0  0
  -29.2505  -17.8768   18.2636 H   0  0  0  0  0  0
  -29.6267  -16.6071   22.5642 H   0  0  0  0  0  0
  -31.3097  -16.2483   22.2863 H   0  0  0  0  0  0
  -29.8032  -22.9756   17.9833 H   0  0  0  0  0  0
  -28.7186  -22.5859   19.2941 H   0  0  0  0  0  0
  -29.3577  -22.9628   21.6666 H   0  0  0  0  0  0
  -30.9210  -23.6168   22.0931 H   0  0  0  0  0  0
  -28.0298  -24.7170   18.1995 H   0  0  0  0  0  0
  -29.6368  -25.3602   18.3835 H   0  0  0  0  0  0
  -30.3998  -25.7889   21.1688 H   0  0  0  0  0  0
  -29.1461  -25.3570   22.2963 H   0  0  0  0  0  0
  -29.0273  -15.5127   18.8481 H   0  0  0  0  0  0
  -28.2378  -16.5360   20.0406 H   0  0  0  0  0  0
  -31.3071  -24.1208   19.6553 H   0  0  0  0  0  0
  -27.5525  -24.9308   20.5646 H   0  0  0  0  0  0
  -33.1342  -21.1854   18.5922 H   0  0  0  0  0  0
  -32.8143  -22.8742   18.2538 H   0  0  0  0  0  0
  -31.6609  -21.6543   17.7544 H   0  0  0  0  0  0
  -32.9796  -21.7010   24.3807 H   0  0  0  0  0  0
  -33.1823  -20.0544   23.7996 H   0  0  0  0  0  0
  -31.6621  -20.5532   24.5829 H   0  0  0  0  0  0
  -32.4653  -22.3607   20.5817 H   0  0  0  0  0  0
  1 25  1  0  0  0
  1 30  2  0  0  0
  1 89  1  0  0  0
  2  3  1  0  0  0
  2 25  1  0  0  0
  2 91  1  0  0  0
  2 92  1  0  0  0
  3  4  1  0  0  0
  3 93  1  0  0  0
  3 94  1  0  0  0
  4  5  1  0  0  0
  4 95  1  0  0  0
  4 96  1  0  0  0
  5  6  1  0  0  0
  5 26  1  0  0  0
  5 97  1  0  0  0
  6 25  1  0  0  0
  6 98  1  0  0  0
  6 99  1  0  0  0
  7  8  2  0  0  0
  7 26  1  0  0  0
  7 29  1  0  0  0
  8  9  1  0  0  0
  8 22  1  0  0  0
  9 10  1  0  0  0
  9 27  2  0  0  0
 10 11  2  0  0  0
 10 15  1  0  0  0
 11 12  1  0  0  0
 11100  1  0  0  0
 12 13  2  0  0  0
 12101  1  0  0  0
 13 14  1  0  0  0
 13 31  1  0  0  0
 14 15  2  0  0  0
 14102  1  0  0  0
 15103  1  0  0  0
 16 17  2  0  0  0
 16 21  1  0  0  0
 16 31  1  0  0  0
 17 18  1  0  0  0
 17104  1  0  0  0
 18 19  2  0  0  0
 18105  1  0  0  0
 19 20  1  0  0  0
 19 24  1  0  0  0
 20 21  2  0  0  0
 20106  1  0  0  0
 21 23  1  0  0  0
 22 28  1  0  0  0
 22 32  2  0  0  0
 26 27  1  0  0  0
 28107  1  0  0  0
 28108  1  0  0  0
 29109  1  0  0  0
 29110  1  0  0  0
 33 34  1  0  0  0
 33 66  1  0  0  0
 33 70  2  0  0  0
 34 36  1  0  0  0
 34 59  1  0  0  0
 34111  1  0  0  0
 35 44  2  0  0  0
 35 45  1  0  0  0
 35 68  1  0  0  0
 36 56  1  0  0  0
 36112  1  0  0  0
 37 39  1  0  0  0
 37 47  1  0  0  0
 37 66  1  0  0  0
 37113  1  0  0  0
 38 43  2  0  0  0
 38 46  1  0  0  0
 38 47  1  0  0  0
 39 64  1  0  0  0
 39 67  2  0  0  0
 40 52  1  0  0  0
 40 53  2  0  0  0
 40 58  1  0  0  0
 41114  1  0  0  0
 41115  1  0  0  0
 41116  1  0  0  0
 41 48  1  0  0  0
 42 43  1  0  0  0
 42 66  1  0  0  0
 42117  1  0  0  0
 42118  1  0  0  0
 43 44  1  0  0  0
 44119  1  0  0  0
 45 46  2  0  0  0
 45120  1  0  0  0
 46121  1  0  0  0
 47122  1  0  0  0
 47123  1  0  0  0
 48 56  1  0  0  0
 48 65  1  0  0  0
 48124  1  0  0  0
 49 50  1  0  0  0
 49 53  1  0  0  0
 49 64  1  0  0  0
 49125  1  0  0  0
 50 51  1  0  0  0
 50126  1  0  0  0
 50127  1  0  0  0
 51 52  1  0  0  0
 51128  1  0  0  0
 51129  1  0  0  0
 52130  1  0  0  0
 52131  1  0  0  0
 53 54  1  0  0  0
 54 55  2  0  0  0
 54132  1  0  0  0
 55 57  1  0  0  0
 55133  1  0  0  0
 56 69  2  0  0  0
 57 58  2  0  0  0
 57134  1  0  0  0
 58135  1  0  0  0
 59 60  1  0  0  0
 59 61  1  0  0  0
 59 62  1  0  0  0
 60136  1  0  0  0
 60137  1  0  0  0
 60138  1  0  0  0
 61139  1  0  0  0
 61140  1  0  0  0
 61141  1  0  0  0
 62142  1  0  0  0
 62143  1  0  0  0
 62144  1  0  0  0
 63 65  1  0  0  0
 63145  1  0  0  0
 63146  1  0  0  0
 63147  1  0  0  0
 64148  1  0  0  0
 65149  1  0  0  0
 68 85  1  0  0  0
 71 73  2  0  0  0
 71 75  1  0  0  0
 71150  1  0  0  0
 72 74  2  0  0  0
 72 76  1  0  0  0
 72151  1  0  0  0
 73 74  1  0  0  0
 73 77  1  0  0  0
 74 78  1  0  0  0
 75 76  2  0  0  0
 75 88  1  0  0  0
 76 90  1  0  0  0
 77 83  1  0  0  0
 77152  1  0  0  0
 77153  1  0  0  0
 78 89  1  0  0  0
 78154  1  0  0  0
 78155  1  0  0  0
 79 81  1  0  0  0
 79156  1  0  0  0
 79157  1  0  0  0
 79 84  1  0  0  0
 80 82  1  0  0  0
 80 84  1  0  0  0
 80158  1  0  0  0
 80159  1  0  0  0
 81 85  1  0  0  0
 81160  1  0  0  0
 81161  1  0  0  0
 82 85  1  0  0  0
 82162  1  0  0  0
 82163  1  0  0  0
 83 89  1  0  0  0
 83164  1  0  0  0
 83165  1  0  0  0
 84 88  1  0  0  0
 84166  1  0  0  0
 85167  1  0  0  0
 86168  1  0  0  0
 86169  1  0  0  0
 86170  1  0  0  0
 86 88  1  0  0  0
 87 90  1  0  0  0
 87171  1  0  0  0
 87172  1  0  0  0
 87173  1  0  0  0
 88174  1  0  0  0
M  ISO  4   1 100  68 101  85 101  89 100
M  END
> <chiral flag>
0

> <version>
0

> <s_m_source_file>
/data/baiqing/PycharmProjects/Reinvent-master-3.2/result/LINK_invent/BTK/process_docking_weight1_custom_sum_contain_oxygen_bond_distance_aromatic_linkinvent_7_9_3/rearranged_h_0163.sdf

> <i_m_source_file_index>
73

> <r_mmod_Potential_Energy-OPLS-2005>
176.261825561523

> <r_mmod_Stretch_Energy-OPLS-2005>
42.1922264099121

> <r_mmod_Bend_Energy-OPLS-2005>
130.616561889648

> <r_mmod_Torsional_Energy-OPLS-2005>
338.8876953125

> <r_mmod_Improper_Torsional_Energy-OPLS-2005>
7.41665744781494

> <r_mmod_Van_der_Waal_Energy-OPLS-2005>
164.891098022461

> <r_mmod_Electrostatic_Energy-OPLS-2005>
-332.684844970703

> <r_mmod_Solvation_Energy-OPLS-2005>
-195.857894897461

> <b_mmod_Minimization_Converged-OPLS-2005>
0

> <r_mmod_RMS_Derivative-OPLS-2005>
1.70869338512421

$$$$
73
                    3D
 Structure written by MMmdl.
193203  0  0  1  0            999 V2000
  -30.5894  -14.9162   20.3719 C   0  0  0  0  0  0
  -30.4398  -12.5619   19.4830 C   0  0  0  0  0  0
  -29.5205  -12.4667   18.2455 C   0  0  0  0  0  0
  -28.0381  -12.3079   18.6517 C   0  0  0  0  0  0
  -27.6129  -13.2266   19.8347 C   0  0  2  0  0  0
  -28.6726  -13.2880   20.9551 C   0  0  0  0  0  0
  -25.2372  -13.8094   20.5802 C   0  0  0  0  0  0
  -24.1694  -13.0359   20.9269 C   0  0  0  0  0  0
  -24.6282  -11.6838   20.8793 C   0  0  0  0  0  0
  -23.8959  -10.4238   21.0374 C   0  0  0  0  0  0
  -24.3550   -9.4166   21.9142 C   0  0  0  0  0  0
  -23.6259   -8.2187   22.0703 C   0  0  0  0  0  0
  -22.4239   -8.0228   21.3506 C   0  0  0  0  0  0
  -21.9847   -9.0170   20.4598 C   0  0  0  0  0  0
  -22.7130  -10.2074   20.2997 C   0  0  0  0  0  0
  -21.6820   -6.0731   22.5284 C   0  0  0  0  0  0
  -21.3998   -6.5622   23.8225 C   0  0  0  0  0  0
  -21.3646   -5.6767   24.9180 C   0  0  0  0  0  0
  -21.6038   -4.3030   24.7221 C   0  0  0  0  0  0
  -21.8828   -3.8142   23.4337 C   0  0  0  0  0  0
  -21.9193   -4.6969   22.3408 C   0  0  0  0  0  0
  -22.7720  -13.5156   21.1890 C   0  0  0  0  0  0
  -22.1651   -4.2162   21.0979 F   0  0  0  0  0  0
  -21.5620   -3.4506   25.7732 F   0  0  0  0  0  0
  -29.9449  -13.6805   20.3276 N   0  0  0  0  0  0
  -26.2796  -12.9283   20.3325 N   0  0  0  0  0  0
  -25.9209  -11.6443   20.5807 N   0  0  0  0  0  0
  -22.0352  -12.8203   22.0451 N   0  0  0  0  0  0
  -25.3929  -15.1864   20.4372 N   0  0  0  0  0  0
  -31.8207  -14.8917   20.2962 O   0  0  0  0  0  0
  -21.6576   -6.8859   21.4244 O   0  0  0  0  0  0
  -22.3437  -14.5448   20.6681 O   0  0  0  0  0  0
  -24.6417  -31.8486   23.1936 C   0  0  0  0  0  0
  -25.9216  -32.4719   23.8303 C   0  0  1  0  0  0
  -27.2150  -27.1729   20.1587 C   0  0  0  0  0  0
  -25.5978  -33.8520   24.2220 N   0  0  0  0  0  0
  -23.4390  -30.4722   21.5399 C   0  0  2  0  0  0
  -24.8868  -28.9048   20.1121 C   0  0  0  0  0  0
  -22.7534  -29.4603   22.4903 C   0  0  0  0  0  0
  -18.0287  -28.1414   22.8471 C   0  0  0  0  0  0
  -24.1487  -36.7262   23.2644 C   0  0  0  0  0  0
  -25.9912  -30.7386   21.3823 C   0  0  0  0  0  0
  -26.0640  -29.3518   20.7270 C   0  0  0  0  0  0
  -27.2304  -28.5033   20.7289 C   0  0  0  0  0  0
  -26.0182  -26.8238   19.4916 C   0  0  0  0  0  0
  -24.8764  -27.6532   19.4771 C   0  0  0  0  0  0
  -23.6602  -29.8037   20.1571 C   0  0  0  0  0  0
  -25.4112  -36.3049   24.0326 C   0  0  1  0  0  0
  -20.5897  -28.3740   23.1230 C   0  0  2  0  0  0
  -20.6768  -26.9441   22.5406 C   0  0  0  0  0  0
  -19.5754  -26.6390   21.5206 C   0  0  0  0  0  0
  -18.1935  -26.7949   22.1614 C   0  0  0  0  0  0
  -19.1542  -28.8892   23.2843 C   0  0  0  0  0  0
  -18.9467  -30.1483   23.8870 C   0  0  0  0  0  0
  -17.6465  -30.6598   24.0573 C   0  0  0  0  0  0
  -25.9075  -34.9425   23.5079 C   0  0  0  0  0  0
  -16.5351  -29.9092   23.6351 C   0  0  0  0  0  0
  -16.7274  -28.6522   23.0350 C   0  0  0  0  0  0
  -26.4526  -31.6582   25.0740 C   0  0  0  0  0  0
  -25.3726  -31.3746   26.1446 C   0  0  0  0  0  0
  -27.0381  -30.2982   24.6312 C   0  0  0  0  0  0
  -27.6071  -32.4345   25.7516 C   0  0  0  0  0  0
  -27.5568  -37.1779   24.8455 C   0  0  0  0  0  0
  -21.4235  -29.3066   22.3613 N   0  0  0  0  0  0
  -26.4266  -37.3770   23.9428 N   0  0  0  0  0  0
  -24.7105  -31.0382   22.0952 N   0  0  0  0  0  0
  -23.4193  -28.8170   23.3059 O   0  0  0  0  0  0
  -28.2836  -26.2158   20.2147 O   0  0  0  0  0  0
  -26.5644  -34.8919   22.4646 O   0  0  0  0  0  0
  -23.5555  -32.1354   23.7200 O   0  0  0  0  0  0
  -31.2767  -17.7587   18.1179 C   0  0  0  0  0  0
  -31.4290  -18.1023   19.4826 C   0  0  0  0  0  0
  -32.1365  -18.3584   17.1482 C   0  0  0  0  0  0
  -32.5165  -18.9272   19.8542 C   0  0  0  0  0  0
  -33.1630  -19.2120   17.6357 C   0  0  0  0  0  0
  -30.2476  -16.6991   17.7416 C   0  0  0  0  0  0
  -28.4964  -20.9855   19.3894 C   0  0  0  0  0  0
  -30.3939  -17.6175   20.5044 C   0  0  1  0  0  0
  -29.5575  -20.4730   20.3416 C   0  0  1  0  0  0
  -28.7157  -21.8800   20.5857 C   0  0  1  0  0  0
  -29.2610  -16.2571   18.8437 C   0  0  1  0  0  0
  -34.1659  -19.9125   16.7308 C   0  0  0  0  0  0
  -27.9326  -17.0403   18.8168 C   0  0  0  0  0  0
  -30.7253  -18.9384   15.0973 C   0  0  0  0  0  0
  -32.0595  -16.7224   15.1116 C   0  0  0  0  0  0
  -30.3431  -23.7975   21.1597 C   0  0  0  0  0  0
  -34.6817  -19.2827   23.0487 C   0  0  0  0  0  0
  -33.6399  -17.0945   22.3271 C   0  0  0  0  0  0
  -32.8417  -19.3012   21.3002 C   0  0  0  0  0  0
  -29.3919  -18.9210   20.9009 C   0  0  0  0  0  0
  -28.0069  -24.7128   20.4545 C   0  0  0  0  0  0
  -31.9559  -18.1731   15.6259 C   0  0  0  0  0  0
  -29.1076  -23.4634   20.3160 C   0  0  2  0  0  0
  -34.0357  -18.5123   21.8864 C   0  0  0  0  0  0
  -33.3543  -19.4602   18.9436 N   0  0  0  0  0  0
  -29.8872  -16.1575   20.1858 N   0  0  0  0  0  0
  -31.4670  -12.7271   19.1542 H   0  0  0  0  0  0
  -30.4565  -11.6276   20.0459 H   0  0  0  0  0  0
  -29.8205  -11.6230   17.6213 H   0  0  0  0  0  0
  -29.6580  -13.3539   17.6261 H   0  0  0  0  0  0
  -27.8907  -11.2622   18.9263 H   0  0  0  0  0  0
  -27.3888  -12.4747   17.7896 H   0  0  0  0  0  0
  -27.5184  -14.2191   19.4158 H   0  0  0  0  0  0
  -28.7571  -12.3235   21.4595 H   0  0  0  0  0  0
  -28.3829  -14.0205   21.7107 H   0  0  0  0  0  0
  -25.2688   -9.5680   22.4701 H   0  0  0  0  0  0
  -23.9989   -7.4573   22.7396 H   0  0  0  0  0  0
  -21.0775   -8.8631   19.8907 H   0  0  0  0  0  0
  -22.3539  -10.9588   19.6101 H   0  0  0  0  0  0
  -21.1967   -7.6133   23.9728 H   0  0  0  0  0  0
  -21.1432   -6.0496   25.9087 H   0  0  0  0  0  0
  -22.0617   -2.7608   23.2825 H   0  0  0  0  0  0
  -22.4039  -12.0027   22.5086 H   0  0  0  0  0  0
  -21.0871  -13.1086   22.2354 H   0  0  0  0  0  0
  -24.6164  -15.8233   20.5743 H   0  0  0  0  0  0
  -26.2510  -15.6560   20.1821 H   0  0  0  0  0  0
  -26.7301  -32.5338   23.1054 H   0  0  0  0  0  0
  -25.0117  -33.9624   25.0360 H   0  0  0  0  0  0
  -22.7431  -31.3007   21.3937 H   0  0  0  0  0  0
  -23.3772  -35.9572   23.3271 H   0  0  0  0  0  0
  -24.3596  -36.8930   22.2071 H   0  0  0  0  0  0
  -23.7215  -37.6435   23.6698 H   0  0  0  0  0  0
  -26.1361  -31.4968   20.6104 H   0  0  0  0  0  0
  -26.8656  -30.7893   22.0199 H   0  0  0  0  0  0
  -28.1291  -28.8468   21.2229 H   0  0  0  0  0  0
  -25.9391  -25.8798   18.9746 H   0  0  0  0  0  0
  -23.9816  -27.3112   18.9747 H   0  0  0  0  0  0
  -23.7883  -30.5818   19.4028 H   0  0  0  0  0  0
  -22.7726  -29.2448   19.8517 H   0  0  0  0  0  0
  -25.1301  -36.1872   25.0818 H   0  0  0  0  0  0
  -20.9982  -28.3340   24.1352 H   0  0  0  0  0  0
  -20.5638  -26.2364   23.3639 H   0  0  0  0  0  0
  -21.6642  -26.7437   22.1222 H   0  0  0  0  0  0
  -19.6903  -25.6289   21.1266 H   0  0  0  0  0  0
  -19.6691  -27.3175   20.6721 H   0  0  0  0  0  0
  -17.4201  -26.6696   21.4020 H   0  0  0  0  0  0
  -18.0327  -26.0090   22.9012 H   0  0  0  0  0  0
  -19.7942  -30.7310   24.2221 H   0  0  0  0  0  0
  -17.5018  -31.6273   24.5191 H   0  0  0  0  0  0
  -15.5354  -30.2992   23.7684 H   0  0  0  0  0  0
  -15.8674  -28.0841   22.7063 H   0  0  0  0  0  0
  -24.5931  -30.7065   25.7763 H   0  0  0  0  0  0
  -24.8880  -32.2905   26.4838 H   0  0  0  0  0  0
  -25.8024  -30.8950   27.0255 H   0  0  0  0  0  0
  -26.2983  -29.6724   24.1311 H   0  0  0  0  0  0
  -27.3969  -29.7279   25.4894 H   0  0  0  0  0  0
  -27.8909  -30.4214   23.9637 H   0  0  0  0  0  0
  -27.2674  -33.3673   26.2037 H   0  0  0  0  0  0
  -28.3891  -32.6870   25.0340 H   0  0  0  0  0  0
  -28.0738  -31.8521   26.5472 H   0  0  0  0  0  0
  -28.2556  -38.0106   24.7553 H   0  0  0  0  0  0
  -28.1086  -36.2640   24.6201 H   0  0  0  0  0  0
  -27.2304  -37.1342   25.8860 H   0  0  0  0  0  0
  -20.9452  -29.8781   21.6789 H   0  0  0  0  0  0
  -26.0133  -38.2828   24.1478 H   0  0  0  0  0  0
  -30.8373  -15.8187   17.4883 H   0  0  0  0  0  0
  -29.6897  -16.9596   16.8488 H   0  0  0  0  0  0
  -27.5450  -20.4567   19.3578 H   0  0  0  0  0  0
  -28.8450  -21.3337   18.4187 H   0  0  0  0  0  0
  -30.9501  -17.4218   21.4195 H   0  0  0  0  0  0
  -30.5884  -20.6944   20.0839 H   0  0  0  0  0  0
  -27.9924  -21.7888   21.3934 H   0  0  0  0  0  0
  -28.9784  -15.2719   18.4989 H   0  0  0  0  0  0
  -34.7832  -19.1747   16.2163 H   0  0  0  0  0  0
  -34.8323  -20.5661   17.2936 H   0  0  0  0  0  0
  -33.6596  -20.5272   15.9869 H   0  0  0  0  0  0
  -28.1059  -18.1081   18.6901 H   0  0  0  0  0  0
  -27.3618  -16.8913   19.7308 H   0  0  0  0  0  0
  -27.3012  -16.7398   17.9834 H   0  0  0  0  0  0
  -30.7694  -19.9925   15.3818 H   0  0  0  0  0  0
  -29.7793  -18.5502   15.4707 H   0  0  0  0  0  0
  -30.6904  -18.9060   14.0070 H   0  0  0  0  0  0
  -32.9692  -16.2425   15.4726 H   0  0  0  0  0  0
  -32.1117  -16.7168   14.0225 H   0  0  0  0  0  0
  -31.2206  -16.0837   15.3761 H   0  0  0  0  0  0
  -31.1732  -23.1287   20.9202 H   0  0  0  0  0  0
  -30.1271  -23.7080   22.2245 H   0  0  0  0  0  0
  -30.6786  -24.8169   20.9730 H   0  0  0  0  0  0
  -35.5326  -18.7426   23.4676 H   0  0  0  0  0  0
  -33.9691  -19.4601   23.8548 H   0  0  0  0  0  0
  -35.0478  -20.2537   22.7114 H   0  0  0  0  0  0
  -34.4814  -16.5453   22.7489 H   0  0  0  0  0  0
  -33.2880  -16.5209   21.4729 H   0  0  0  0  0  0
  -32.8476  -17.1145   23.0767 H   0  0  0  0  0  0
  -31.9756  -19.2310   21.9574 H   0  0  0  0  0  0
  -33.0853  -20.3645   21.2970 H   0  0  0  0  0  0
  -29.4536  -19.0105   21.9867 H   0  0  0  0  0  0
  -28.3495  -18.6495   20.7829 H   0  0  0  0  0  0
  -27.6236  -24.6687   21.4764 H   0  0  0  0  0  0
  -27.1676  -24.4133   19.8332 H   0  0  0  0  0  0
  -32.7946  -18.6449   15.1196 H   0  0  0  0  0  0
  -29.4421  -23.4989   19.2796 H   0  0  0  0  0  0
  -34.7922  -18.4174   21.1040 H   0  0  0  0  0  0
  1 25  1  0  0  0
  1 30  2  0  0  0
  1 96  1  0  0  0
  2  3  1  0  0  0
  2 25  1  0  0  0
  2 97  1  0  0  0
  2 98  1  0  0  0
  3  4  1  0  0  0
  3 99  1  0  0  0
  3100  1  0  0  0
  4  5  1  0  0  0
  4101  1  0  0  0
  4102  1  0  0  0
  5  6  1  0  0  0
  5 26  1  0  0  0
  5103  1  0  0  0
  6 25  1  0  0  0
  6104  1  0  0  0
  6105  1  0  0  0
  7  8  2  0  0  0
  7 26  1  0  0  0
  7 29  1  0  0  0
  8  9  1  0  0  0
  8 22  1  0  0  0
  9 10  1  0  0  0
  9 27  2  0  0  0
 10 11  2  0  0  0
 10 15  1  0  0  0
 11 12  1  0  0  0
 11106  1  0  0  0
 12 13  2  0  0  0
 12107  1  0  0  0
 13 14  1  0  0  0
 13 31  1  0  0  0
 14 15  2  0  0  0
 14108  1  0  0  0
 15109  1  0  0  0
 16 17  2  0  0  0
 16 21  1  0  0  0
 16 31  1  0  0  0
 17 18  1  0  0  0
 17110  1  0  0  0
 18 19  2  0  0  0
 18111  1  0  0  0
 19 20  1  0  0  0
 19 24  1  0  0  0
 20 21  2  0  0  0
 20112  1  0  0  0
 21 23  1  0  0  0
 22 28  1  0  0  0
 22 32  2  0  0  0
 26 27  1  0  0  0
 28113  1  0  0  0
 28114  1  0  0  0
 29115  1  0  0  0
 29116  1  0  0  0
 33 34  1  0  0  0
 33 66  1  0  0  0
 33 70  2  0  0  0
 34 36  1  0  0  0
 34 59  1  0  0  0
 34117  1  0  0  0
 35 44  2  0  0  0
 35 45  1  0  0  0
 35 68  1  0  0  0
 36 56  1  0  0  0
 36118  1  0  0  0
 37 39  1  0  0  0
 37 47  1  0  0  0
 37 66  1  0  0  0
 37119  1  0  0  0
 38 43  2  0  0  0
 38 46  1  0  0  0
 38 47  1  0  0  0
 39 64  1  0  0  0
 39 67  2  0  0  0
 40 52  1  0  0  0
 40 53  2  0  0  0
 40 58  1  0  0  0
 41120  1  0  0  0
 41121  1  0  0  0
 41122  1  0  0  0
 41 48  1  0  0  0
 42 43  1  0  0  0
 42 66  1  0  0  0
 42123  1  0  0  0
 42124  1  0  0  0
 43 44  1  0  0  0
 44125  1  0  0  0
 45 46  2  0  0  0
 45126  1  0  0  0
 46127  1  0  0  0
 47128  1  0  0  0
 47129  1  0  0  0
 48 56  1  0  0  0
 48 65  1  0  0  0
 48130  1  0  0  0
 49 50  1  0  0  0
 49 53  1  0  0  0
 49 64  1  0  0  0
 49131  1  0  0  0
 50 51  1  0  0  0
 50132  1  0  0  0
 50133  1  0  0  0
 51 52  1  0  0  0
 51134  1  0  0  0
 51135  1  0  0  0
 52136  1  0  0  0
 52137  1  0  0  0
 53 54  1  0  0  0
 54 55  2  0  0  0
 54138  1  0  0  0
 55 57  1  0  0  0
 55139  1  0  0  0
 56 69  2  0  0  0
 57 58  2  0  0  0
 57140  1  0  0  0
 58141  1  0  0  0
 59 60  1  0  0  0
 59 61  1  0  0  0
 59 62  1  0  0  0
 60142  1  0  0  0
 60143  1  0  0  0
 60144  1  0  0  0
 61145  1  0  0  0
 61146  1  0  0  0
 61147  1  0  0  0
 62148  1  0  0  0
 62149  1  0  0  0
 62150  1  0  0  0
 63 65  1  0  0  0
 63151  1  0  0  0
 63152  1  0  0  0
 63153  1  0  0  0
 64154  1  0  0  0
 65155  1  0  0  0
 68 91  1  0  0  0
 71 72  1  0  0  0
 71 73  2  0  0  0
 71 76  1  0  0  0
 72 74  2  0  0  0
 72 78  1  0  0  0
 73 75  1  0  0  0
 73 92  1  0  0  0
 74 89  1  0  0  0
 74 95  1  0  0  0
 75 82  1  0  0  0
 75 95  2  0  0  0
 76 81  1  0  0  0
 76156  1  0  0  0
 76157  1  0  0  0
 77 79  1  0  0  0
 77158  1  0  0  0
 77159  1  0  0  0
 77 80  1  0  0  0
 78 90  1  0  0  0
 78 96  1  0  0  0
 78160  1  0  0  0
 79 80  1  0  0  0
 79 90  1  0  0  0
 79161  1  0  0  0
 80 93  1  0  0  0
 80162  1  0  0  0
 81 83  1  0  0  0
 81 96  1  0  0  0
 81163  1  0  0  0
 82164  1  0  0  0
 82165  1  0  0  0
 82166  1  0  0  0
 83167  1  0  0  0
 83168  1  0  0  0
 83169  1  0  0  0
 84170  1  0  0  0
 84171  1  0  0  0
 84172  1  0  0  0
 84 92  1  0  0  0
 85 92  1  0  0  0
 85173  1  0  0  0
 85174  1  0  0  0
 85175  1  0  0  0
 86176  1  0  0  0
 86177  1  0  0  0
 86178  1  0  0  0
 86 93  1  0  0  0
 87179  1  0  0  0
 87180  1  0  0  0
 87181  1  0  0  0
 87 94  1  0  0  0
 88 94  1  0  0  0
 88182  1  0  0  0
 88183  1  0  0  0
 88184  1  0  0  0
 89 94  1  0  0  0
 89185  1  0  0  0
 89186  1  0  0  0
 90187  1  0  0  0
 90188  1  0  0  0
 91 93  1  0  0  0
 91189  1  0  0  0
 91190  1  0  0  0
 92191  1  0  0  0
 93192  1  0  0  0
 94193  1  0  0  0
M  ISO  4   1 100  68 101  91 101  96 100
M  END
> <chiral flag>
0

> <version>
0

> <s_m_source_file>
/data/baiqing/PycharmProjects/Reinvent-master-3.2/result/LINK_invent/BTK/process_docking_weight1_custom_sum_contain_oxygen_bond_distance_aromatic_linkinvent_7_9_3/rearranged_h_0163.sdf

> <i_m_source_file_index>
74

> <r_mmod_Potential_Energy-OPLS-2005>
747.257202148438

> <r_mmod_Stretch_Energy-OPLS-2005>
262.185607910156

> <r_mmod_Bend_Energy-OPLS-2005>
287.306762695312

> <r_mmod_Torsional_Energy-OPLS-2005>
408.865570068359

> <r_mmod_Improper_Torsional_Energy-OPLS-2005>
12.2130241394043

> <r_mmod_Van_der_Waal_Energy-OPLS-2005>
145.666046142578

> <r_mmod_Electrostatic_Energy-OPLS-2005>
-337.425567626953

> <r_mmod_Solvation_Energy-OPLS-2005>
-203.159225463867

> <b_mmod_Minimization_Converged-OPLS-2005>
0

> <r_mmod_RMS_Derivative-OPLS-2005>
4.32953548431396

$$$$
74
                    3D
 Structure written by MMmdl.
167177  0  0  1  0            999 V2000
  -30.6903  -14.5683   20.4995 C   0  0  0  0  0  0
  -30.4136  -12.3494   19.4463 C   0  0  0  0  0  0
  -29.4940  -12.4894   18.2167 C   0  0  0  0  0  0
  -28.0169  -12.3475   18.6309 C   0  0  0  0  0  0
  -27.6480  -13.2209   19.8610 C   0  0  2  0  0  0
  -28.6938  -13.0943   20.9903 C   0  0  0  0  0  0
  -25.2541  -13.8189   20.5706 C   0  0  0  0  0  0
  -24.1809  -13.0448   20.9190 C   0  0  0  0  0  0
  -24.6384  -11.6919   20.8752 C   0  0  0  0  0  0
  -23.9059  -10.4298   21.0412 C   0  0  0  0  0  0
  -24.3611   -9.4210   21.9186 C   0  0  0  0  0  0
  -23.6289   -8.2244   22.0756 C   0  0  0  0  0  0
  -22.4272   -8.0283   21.3545 C   0  0  0  0  0  0
  -21.9906   -9.0257   20.4646 C   0  0  0  0  0  0
  -22.7233  -10.2138   20.3058 C   0  0  0  0  0  0
  -21.6850   -6.0735   22.5278 C   0  0  0  0  0  0
  -21.4014   -6.5638   23.8212 C   0  0  0  0  0  0
  -21.3659   -5.6793   24.9176 C   0  0  0  0  0  0
  -21.6043   -4.3055   24.7227 C   0  0  0  0  0  0
  -21.8820   -3.8147   23.4347 C   0  0  0  0  0  0
  -21.9194   -4.6963   22.3402 C   0  0  0  0  0  0
  -22.7833  -13.5240   21.1853 C   0  0  0  0  0  0
  -22.1661   -4.2147   21.0980 F   0  0  0  0  0  0
  -21.5630   -3.4540   25.7739 F   0  0  0  0  0  0
  -30.0089  -13.3885   20.4104 N   0  0  0  0  0  0
  -26.2967  -12.9373   20.3345 N   0  0  0  0  0  0
  -25.9315  -11.6523   20.5780 N   0  0  0  0  0  0
  -22.0475  -12.8232   22.0404 N   0  0  0  0  0  0
  -25.4272  -15.1910   20.4152 N   0  0  0  0  0  0
  -31.8748  -14.6513   20.1583 O   0  0  0  0  0  0
  -21.6639   -6.8878   21.4239 O   0  0  0  0  0  0
  -22.3521  -14.5550   20.6704 O   0  0  0  0  0  0
  -24.6185  -31.8652   23.2062 C   0  0  0  0  0  0
  -25.9063  -32.4802   23.8378 C   0  0  1  0  0  0
  -27.2286  -27.3773   20.1190 C   0  0  0  0  0  0
  -25.5898  -33.8599   24.2313 N   0  0  0  0  0  0
  -23.4106  -30.4868   21.5461 C   0  0  2  0  0  0
  -24.8618  -28.9449   20.1145 C   0  0  0  0  0  0
  -22.7429  -29.4650   22.4954 C   0  0  0  0  0  0
  -18.0272  -28.1383   22.8486 C   0  0  0  0  0  0
  -24.1485  -36.7305   23.2641 C   0  0  0  0  0  0
  -25.9447  -30.8118   21.3709 C   0  0  0  0  0  0
  -26.0231  -29.4395   20.7237 C   0  0  0  0  0  0
  -27.2111  -28.6614   20.7300 C   0  0  0  0  0  0
  -26.0584  -26.9191   19.4864 C   0  0  0  0  0  0
  -24.8765  -27.6850   19.4913 C   0  0  0  0  0  0
  -23.6248  -29.8171   20.1622 C   0  0  0  0  0  0
  -25.4106  -36.3098   24.0336 C   0  0  1  0  0  0
  -20.5869  -28.3685   23.1290 C   0  0  2  0  0  0
  -20.6765  -26.9416   22.5411 C   0  0  0  0  0  0
  -19.5743  -26.6387   21.5208 C   0  0  0  0  0  0
  -18.1919  -26.7925   22.1623 C   0  0  0  0  0  0
  -19.1525  -28.8848   23.2882 C   0  0  0  0  0  0
  -18.9459  -30.1448   23.8906 C   0  0  0  0  0  0
  -17.6464  -30.6591   24.0564 C   0  0  0  0  0  0
  -25.9039  -34.9464   23.5125 C   0  0  0  0  0  0
  -16.5351  -29.9095   23.6334 C   0  0  0  0  0  0
  -16.7262  -28.6509   23.0360 C   0  0  0  0  0  0
  -26.4471  -31.6588   25.0722 C   0  0  0  0  0  0
  -25.3714  -31.3705   26.1454 C   0  0  0  0  0  0
  -27.0320  -30.3023   24.6138 C   0  0  0  0  0  0
  -27.6050  -32.4304   25.7485 C   0  0  0  0  0  0
  -27.5579  -37.1802   24.8468 C   0  0  0  0  0  0
  -21.4153  -29.3044   22.3689 N   0  0  0  0  0  0
  -26.4291  -37.3785   23.9412 N   0  0  0  0  0  0
  -24.6756  -31.0705   22.0989 N   0  0  0  0  0  0
  -23.4172  -28.8193   23.3019 O   0  0  0  0  0  0
  -28.3274  -26.5324   20.0959 O   0  0  0  0  0  0
  -26.5614  -34.8923   22.4695 O   0  0  0  0  0  0
  -23.5364  -32.1436   23.7422 O   0  0  0  0  0  0
  -28.5075  -20.8148   21.5802 C   0  0  0  0  0  0
  -30.1560  -22.6633   20.2881 C   0  0  0  0  0  0
  -29.5453  -20.3046   20.7629 C   0  0  0  0  0  0
  -29.1971  -23.1722   21.1975 C   0  0  0  0  0  0
  -30.3303  -21.2684   20.0649 C   0  0  0  0  0  0
  -28.3302  -22.2124   21.7929 C   0  0  0  0  0  0
  -29.7101  -17.9614   21.9960 C   0  0  0  0  0  0
  -29.1115  -17.9517   19.6450 C   0  0  0  0  0  0
  -30.1980  -25.6695   21.1978 C   0  0  0  0  0  0
  -30.3382  -16.5344   21.8873 C   0  0  0  0  0  0
  -29.7298  -16.5298   19.4666 C   0  0  0  0  0  0
  -29.8721  -18.7725   20.6957 C   0  0  0  0  0  0
  -29.2926  -24.6099   21.7648 C   0  0  1  0  0  0
  -28.7312  -26.0171   21.3794 C   0  0  2  0  0  0
  -31.4298  -20.8357   19.1080 C   0  0  0  0  0  0
  -27.2487  -22.6589   22.7611 C   0  0  0  0  0  0
  -29.9681  -15.7203   20.6980 N   0  0  0  0  0  0
  -31.4596  -12.4352   19.1466 H   0  0  0  0  0  0
  -30.3115  -11.3598   19.8937 H   0  0  0  0  0  0
  -29.7451  -11.7353   17.4696 H   0  0  0  0  0  0
  -29.6525  -13.4579   17.7401 H   0  0  0  0  0  0
  -27.8405  -11.2957   18.8581 H   0  0  0  0  0  0
  -27.3643  -12.5873   17.7906 H   0  0  0  0  0  0
  -27.6603  -14.2540   19.5170 H   0  0  0  0  0  0
  -28.6876  -12.0898   21.4158 H   0  0  0  0  0  0
  -28.4613  -13.7776   21.8090 H   0  0  0  0  0  0
  -25.2754   -9.5691   22.4763 H   0  0  0  0  0  0
  -23.9998   -7.4637   22.7476 H   0  0  0  0  0  0
  -21.0837   -8.8776   19.8954 H   0  0  0  0  0  0
  -22.3687  -10.9678   19.6172 H   0  0  0  0  0  0
  -21.2005   -7.6146   23.9714 H   0  0  0  0  0  0
  -21.1480   -6.0523   25.9078 H   0  0  0  0  0  0
  -22.0599   -2.7610   23.2849 H   0  0  0  0  0  0
  -22.4083  -11.9886   22.4786 H   0  0  0  0  0  0
  -21.1101  -13.1266   22.2624 H   0  0  0  0  0  0
  -24.6683  -15.8522   20.5375 H   0  0  0  0  0  0
  -26.2966  -15.6302   20.1395 H   0  0  0  0  0  0
  -26.7131  -32.5511   23.1140 H   0  0  0  0  0  0
  -25.0029  -33.9752   25.0443 H   0  0  0  0  0  0
  -22.7024  -31.3052   21.4023 H   0  0  0  0  0  0
  -23.3743  -35.9642   23.3308 H   0  0  0  0  0  0
  -24.3579  -36.8919   22.2055 H   0  0  0  0  0  0
  -23.7240  -37.6510   23.6657 H   0  0  0  0  0  0
  -26.0642  -31.5730   20.5986 H   0  0  0  0  0  0
  -26.8297  -30.8680   21.9932 H   0  0  0  0  0  0
  -28.1045  -29.0384   21.2082 H   0  0  0  0  0  0
  -26.0583  -25.9500   19.0073 H   0  0  0  0  0  0
  -23.9857  -27.2982   19.0147 H   0  0  0  0  0  0
  -23.7350  -30.5911   19.4020 H   0  0  0  0  0  0
  -22.7480  -29.2385   19.8658 H   0  0  0  0  0  0
  -25.1276  -36.1964   25.0826 H   0  0  0  0  0  0
  -20.9955  -28.3273   24.1413 H   0  0  0  0  0  0
  -20.5665  -26.2306   23.3614 H   0  0  0  0  0  0
  -21.6636  -26.7456   22.1207 H   0  0  0  0  0  0
  -19.6916  -25.6295   21.1250 H   0  0  0  0  0  0
  -19.6684  -27.3192   20.6731 H   0  0  0  0  0  0
  -17.4188  -26.6666   21.4025 H   0  0  0  0  0  0
  -18.0323  -26.0065   22.9022 H   0  0  0  0  0  0
  -19.7939  -30.7247   24.2290 H   0  0  0  0  0  0
  -17.5031  -31.6279   24.5159 H   0  0  0  0  0  0
  -15.5354  -30.3009   23.7658 H   0  0  0  0  0  0
  -15.8658  -28.0832   22.7086 H   0  0  0  0  0  0
  -24.5894  -30.7050   25.7779 H   0  0  0  0  0  0
  -24.8887  -32.2856   26.4891 H   0  0  0  0  0  0
  -25.8035  -30.8876   27.0226 H   0  0  0  0  0  0
  -26.2890  -29.6764   24.1179 H   0  0  0  0  0  0
  -27.4060  -29.7281   25.4625 H   0  0  0  0  0  0
  -27.8732  -30.4334   23.9327 H   0  0  0  0  0  0
  -27.2688  -33.3612   26.2067 H   0  0  0  0  0  0
  -28.3851  -32.6845   25.0295 H   0  0  0  0  0  0
  -28.0723  -31.8416   26.5390 H   0  0  0  0  0  0
  -28.2594  -38.0104   24.7510 H   0  0  0  0  0  0
  -28.1069  -36.2628   24.6285 H   0  0  0  0  0  0
  -27.2293  -37.1442   25.8871 H   0  0  0  0  0  0
  -20.9327  -29.8768   21.6905 H   0  0  0  0  0  0
  -26.0177  -38.2861   24.1413 H   0  0  0  0  0  0
  -27.8702  -20.1198   22.1090 H   0  0  0  0  0  0
  -30.8444  -23.3470   19.8123 H   0  0  0  0  0  0
  -30.1867  -18.4932   22.8205 H   0  0  0  0  0  0
  -28.6547  -17.8789   22.2608 H   0  0  0  0  0  0
  -28.0582  -17.8746   19.9193 H   0  0  0  0  0  0
  -29.1347  -18.4694   18.6854 H   0  0  0  0  0  0
  -30.5485  -25.5603   20.1735 H   0  0  0  0  0  0
  -30.9100  -26.1353   21.8760 H   0  0  0  0  0  0
  -30.0895  -15.9682   22.7862 H   0  0  0  0  0  0
  -31.4243  -16.6505   21.9036 H   0  0  0  0  0  0
  -30.6815  -16.6560   18.9454 H   0  0  0  0  0  0
  -29.1019  -15.9569   18.7829 H   0  0  0  0  0  0
  -30.9324  -18.7064   20.4529 H   0  0  0  0  0  0
  -29.3949  -24.4723   22.8400 H   0  0  0  0  0  0
  -28.5089  -26.7033   22.1961 H   0  0  0  0  0  0
  -31.7568  -21.6620   18.4764 H   0  0  0  0  0  0
  -31.0838  -20.0409   18.4465 H   0  0  0  0  0  0
  -32.2979  -20.4756   19.6611 H   0  0  0  0  0  0
  -26.4211  -21.9488   22.7775 H   0  0  0  0  0  0
  -26.8394  -23.6291   22.4786 H   0  0  0  0  0  0
  -27.6503  -22.7362   23.7716 H   0  0  0  0  0  0
  1 25  1  0  0  0
  1 30  2  0  0  0
  1 87  1  0  0  0
  2  3  1  0  0  0
  2 25  1  0  0  0
  2 88  1  0  0  0
  2 89  1  0  0  0
  3  4  1  0  0  0
  3 90  1  0  0  0
  3 91  1  0  0  0
  4  5  1  0  0  0
  4 92  1  0  0  0
  4 93  1  0  0  0
  5  6  1  0  0  0
  5 26  1  0  0  0
  5 94  1  0  0  0
  6 25  1  0  0  0
  6 95  1  0  0  0
  6 96  1  0  0  0
  7  8  2  0  0  0
  7 26  1  0  0  0
  7 29  1  0  0  0
  8  9  1  0  0  0
  8 22  1  0  0  0
  9 10  1  0  0  0
  9 27  2  0  0  0
 10 11  2  0  0  0
 10 15  1  0  0  0
 11 12  1  0  0  0
 11 97  1  0  0  0
 12 13  2  0  0  0
 12 98  1  0  0  0
 13 14  1  0  0  0
 13 31  1  0  0  0
 14 15  2  0  0  0
 14 99  1  0  0  0
 15100  1  0  0  0
 16 17  2  0  0  0
 16 21  1  0  0  0
 16 31  1  0  0  0
 17 18  1  0  0  0
 17101  1  0  0  0
 18 19  2  0  0  0
 18102  1  0  0  0
 19 20  1  0  0  0
 19 24  1  0  0  0
 20 21  2  0  0  0
 20103  1  0  0  0
 21 23  1  0  0  0
 22 28  1  0  0  0
 22 32  2  0  0  0
 26 27  1  0  0  0
 28104  1  0  0  0
 28105  1  0  0  0
 29106  1  0  0  0
 29107  1  0  0  0
 33 34  1  0  0  0
 33 66  1  0  0  0
 33 70  2  0  0  0
 34 36  1  0  0  0
 34 59  1  0  0  0
 34108  1  0  0  0
 35 44  2  0  0  0
 35 45  1  0  0  0
 35 68  1  0  0  0
 36 56  1  0  0  0
 36109  1  0  0  0
 37 39  1  0  0  0
 37 47  1  0  0  0
 37 66  1  0  0  0
 37110  1  0  0  0
 38 43  2  0  0  0
 38 46  1  0  0  0
 38 47  1  0  0  0
 39 64  1  0  0  0
 39 67  2  0  0  0
 40 52  1  0  0  0
 40 53  2  0  0  0
 40 58  1  0  0  0
 41111  1  0  0  0
 41112  1  0  0  0
 41113  1  0  0  0
 41 48  1  0  0  0
 42 43  1  0  0  0
 42 66  1  0  0  0
 42114  1  0  0  0
 42115  1  0  0  0
 43 44  1  0  0  0
 44116  1  0  0  0
 45 46  2  0  0  0
 45117  1  0  0  0
 46118  1  0  0  0
 47119  1  0  0  0
 47120  1  0  0  0
 48 56  1  0  0  0
 48 65  1  0  0  0
 48121  1  0  0  0
 49 50  1  0  0  0
 49 53  1  0  0  0
 49 64  1  0  0  0
 49122  1  0  0  0
 50 51  1  0  0  0
 50123  1  0  0  0
 50124  1  0  0  0
 51 52  1  0  0  0
 51125  1  0  0  0
 51126  1  0  0  0
 52127  1  0  0  0
 52128  1  0  0  0
 53 54  1  0  0  0
 54 55  2  0  0  0
 54129  1  0  0  0
 55 57  1  0  0  0
 55130  1  0  0  0
 56 69  2  0  0  0
 57 58  2  0  0  0
 57131  1  0  0  0
 58132  1  0  0  0
 59 60  1  0  0  0
 59 61  1  0  0  0
 59 62  1  0  0  0
 60133  1  0  0  0
 60134  1  0  0  0
 60135  1  0  0  0
 61136  1  0  0  0
 61137  1  0  0  0
 61138  1  0  0  0
 62139  1  0  0  0
 62140  1  0  0  0
 62141  1  0  0  0
 63 65  1  0  0  0
 63142  1  0  0  0
 63143  1  0  0  0
 63144  1  0  0  0
 64145  1  0  0  0
 65146  1  0  0  0
 68 84  1  0  0  0
 71 73  2  0  0  0
 71 76  1  0  0  0
 71147  1  0  0  0
 72 74  1  0  0  0
 72 75  2  0  0  0
 72148  1  0  0  0
 73 75  1  0  0  0
 73 82  1  0  0  0
 74 76  2  0  0  0
 74 83  1  0  0  0
 75 85  1  0  0  0
 76 86  1  0  0  0
 77 80  1  0  0  0
 77 82  1  0  0  0
 77149  1  0  0  0
 77150  1  0  0  0
 78 81  1  0  0  0
 78 82  1  0  0  0
 78151  1  0  0  0
 78152  1  0  0  0
 79 83  1  0  0  0
 79 84  1  0  0  0
 79153  1  0  0  0
 79154  1  0  0  0
 80 87  1  0  0  0
 80155  1  0  0  0
 80156  1  0  0  0
 81 87  1  0  0  0
 81157  1  0  0  0
 81158  1  0  0  0
 82159  1  0  0  0
 83 84  1  0  0  0
 83160  1  0  0  0
 84161  1  0  0  0
 85162  1  0  0  0
 85163  1  0  0  0
 85164  1  0  0  0
 86165  1  0  0  0
 86166  1  0  0  0
 86167  1  0  0  0
M  ISO  4   1 100  68 101  84 101  87 100
M  END
> <chiral flag>
0

> <version>
0

> <s_m_source_file>
/data/baiqing/PycharmProjects/Reinvent-master-3.2/result/LINK_invent/BTK/process_docking_weight1_custom_sum_contain_oxygen_bond_distance_aromatic_linkinvent_7_9_3/rearranged_h_0163.sdf

> <i_m_source_file_index>
75

> <r_mmod_Potential_Energy-OPLS-2005>
315.876403808594

> <r_mmod_Stretch_Energy-OPLS-2005>
61.3504638671875

> <r_mmod_Bend_Energy-OPLS-2005>
175.920181274414

> <r_mmod_Torsional_Energy-OPLS-2005>
383.11376953125

> <r_mmod_Improper_Torsional_Energy-OPLS-2005>
13.0690822601318

> <r_mmod_Van_der_Waal_Energy-OPLS-2005>
143.676315307617

> <r_mmod_Electrostatic_Energy-OPLS-2005>
-303.505859375

> <r_mmod_Solvation_Energy-OPLS-2005>
-190.27131652832

> <b_mmod_Minimization_Converged-OPLS-2005>
0

> <r_mmod_RMS_Derivative-OPLS-2005>
0.980379402637482

$$$$
75
                    3D
 Structure written by MMmdl.
171180  0  0  1  0            999 V2000
  -30.6112  -14.8315   20.4564 C   0  0  0  0  0  0
  -30.4234  -12.5183   19.4884 C   0  0  0  0  0  0
  -29.5072  -12.5202   18.2460 C   0  0  0  0  0  0
  -28.0371  -12.3316   18.6624 C   0  0  0  0  0  0
  -27.6309  -13.2502   19.8447 C   0  0  2  0  0  0
  -28.6731  -13.2498   20.9825 C   0  0  0  0  0  0
  -25.2460  -13.8242   20.5718 C   0  0  0  0  0  0
  -24.1775  -13.0463   20.9205 C   0  0  0  0  0  0
  -24.6387  -11.6949   20.8739 C   0  0  0  0  0  0
  -23.9081  -10.4314   21.0406 C   0  0  0  0  0  0
  -24.3633   -9.4228   21.9187 C   0  0  0  0  0  0
  -23.6309   -8.2261   22.0754 C   0  0  0  0  0  0
  -22.4286   -8.0296   21.3547 C   0  0  0  0  0  0
  -21.9925   -9.0272   20.4643 C   0  0  0  0  0  0
  -22.7253  -10.2151   20.3058 C   0  0  0  0  0  0
  -21.6860   -6.0747   22.5281 C   0  0  0  0  0  0
  -21.4016   -6.5649   23.8213 C   0  0  0  0  0  0
  -21.3651   -5.6798   24.9173 C   0  0  0  0  0  0
  -21.6041   -4.3060   24.7223 C   0  0  0  0  0  0
  -21.8821   -3.8158   23.4342 C   0  0  0  0  0  0
  -21.9195   -4.6975   22.3402 C   0  0  0  0  0  0
  -22.7792  -13.5219   21.1879 C   0  0  0  0  0  0
  -22.1667   -4.2161   21.0976 F   0  0  0  0  0  0
  -21.5619   -3.4539   25.7731 F   0  0  0  0  0  0
  -29.9613  -13.6101   20.3858 N   0  0  0  0  0  0
  -26.2888  -12.9481   20.3289 N   0  0  0  0  0  0
  -25.9324  -11.6605   20.5765 N   0  0  0  0  0  0
  -22.0457  -12.8200   22.0424 N   0  0  0  0  0  0
  -25.4174  -15.1969   20.4146 N   0  0  0  0  0  0
  -31.8146  -14.8620   20.1722 O   0  0  0  0  0  0
  -21.6651   -6.8895   21.4245 O   0  0  0  0  0  0
  -22.3470  -14.5535   20.6735 O   0  0  0  0  0  0
  -24.6408  -31.8495   23.1914 C   0  0  0  0  0  0
  -25.9190  -32.4726   23.8277 C   0  0  1  0  0  0
  -27.1943  -27.1741   20.1149 C   0  0  0  0  0  0
  -25.5977  -33.8538   24.2211 N   0  0  0  0  0  0
  -23.4409  -30.4713   21.5401 C   0  0  2  0  0  0
  -24.8809  -28.9108   20.1072 C   0  0  0  0  0  0
  -22.7552  -29.4571   22.4881 C   0  0  0  0  0  0
  -18.0305  -28.1396   22.8501 C   0  0  0  0  0  0
  -24.1493  -36.7252   23.2638 C   0  0  0  0  0  0
  -25.9953  -30.7313   21.3849 C   0  0  0  0  0  0
  -26.0609  -29.3486   20.7207 C   0  0  0  0  0  0
  -27.2222  -28.4927   20.7125 C   0  0  0  0  0  0
  -25.9920  -26.8426   19.4478 C   0  0  0  0  0  0
  -24.8539  -27.6680   19.4633 C   0  0  0  0  0  0
  -23.6617  -29.8115   20.1560 C   0  0  0  0  0  0
  -25.4124  -36.3048   24.0313 C   0  0  1  0  0  0
  -20.5912  -28.3713   23.1252 C   0  0  2  0  0  0
  -20.6797  -26.9427   22.5400 C   0  0  0  0  0  0
  -19.5766  -26.6385   21.5224 C   0  0  0  0  0  0
  -18.1949  -26.7938   22.1640 C   0  0  0  0  0  0
  -19.1564  -28.8875   23.2875 C   0  0  0  0  0  0
  -18.9479  -30.1474   23.8889 C   0  0  0  0  0  0
  -17.6478  -30.6598   24.0576 C   0  0  0  0  0  0
  -25.9076  -34.9436   23.5067 C   0  0  0  0  0  0
  -16.5365  -29.9096   23.6351 C   0  0  0  0  0  0
  -16.7290  -28.6516   23.0368 C   0  0  0  0  0  0
  -26.4522  -31.6579   25.0709 C   0  0  0  0  0  0
  -25.3709  -31.3757   26.1399 C   0  0  0  0  0  0
  -27.0372  -30.2991   24.6244 C   0  0  0  0  0  0
  -27.6074  -32.4333   25.7475 C   0  0  0  0  0  0
  -27.5581  -37.1784   24.8472 C   0  0  0  0  0  0
  -21.4247  -29.3048   22.3625 N   0  0  0  0  0  0
  -26.4293  -37.3764   23.9415 N   0  0  0  0  0  0
  -24.7132  -31.0351   22.0948 N   0  0  0  0  0  0
  -23.4216  -28.8108   23.3016 O   0  0  0  0  0  0
  -28.2363  -26.1924   20.1896 O   0  0  0  0  0  0
  -26.5645  -34.8933   22.4632 O   0  0  0  0  0  0
  -23.5527  -32.1373   23.7134 O   0  0  0  0  0  0
  -27.1687  -21.7398   19.1190 C   0  0  0  0  0  0
  -28.2730  -21.8470   20.0013 C   0  0  0  0  0  0
  -26.0349  -21.0054   19.5471 C   0  0  0  0  0  0
  -28.4130  -20.6595   20.8676 C   0  0  0  0  0  0
  -26.1119  -20.3381   20.7915 C   0  0  0  0  0  0
  -29.5872  -18.4016   21.8571 C   0  0  0  0  0  0
  -28.8320  -18.2781   19.5734 C   0  0  0  0  0  0
  -30.4054  -17.0440   21.6339 C   0  0  0  0  0  0
  -29.6619  -16.9128   19.4156 C   0  0  0  0  0  0
  -29.3434  -19.3479   20.6129 C   0  0  0  0  0  0
  -27.1796  -22.4023   17.7527 C   0  0  0  0  0  0
  -24.7560  -21.0103   18.7137 C   0  0  0  0  0  0
  -24.9258  -19.6355   21.4355 C   0  0  0  0  0  0
  -30.2539  -23.4872   19.7382 C   0  0  0  0  0  0
  -27.9390  -24.7142   19.8730 C   0  0  0  0  0  0
  -28.8256  -23.3594   20.2876 C   0  0  1  0  0  0
  -27.2821  -20.1869   21.4369 N   0  0  0  0  0  0
  -29.9068  -16.0488   20.6238 N   0  0  0  0  0  0
  -31.4628  -12.6443   19.1792 H   0  0  0  0  0  0
  -30.3820  -11.5581   20.0032 H   0  0  0  0  0  0
  -29.8036  -11.7341   17.5518 H   0  0  0  0  0  0
  -29.6158  -13.4641   17.7094 H   0  0  0  0  0  0
  -27.9071  -11.2861   18.9439 H   0  0  0  0  0  0
  -27.3781  -12.5021   17.8099 H   0  0  0  0  0  0
  -27.6047  -14.2609   19.4357 H   0  0  0  0  0  0
  -28.7293  -12.2770   21.4727 H   0  0  0  0  0  0
  -28.3944  -13.9721   21.7517 H   0  0  0  0  0  0
  -25.2774   -9.5706   22.4770 H   0  0  0  0  0  0
  -24.0015   -7.4653   22.7475 H   0  0  0  0  0  0
  -21.0856   -8.8792   19.8952 H   0  0  0  0  0  0
  -22.3709  -10.9696   19.6171 H   0  0  0  0  0  0
  -21.2017   -7.6157   23.9721 H   0  0  0  0  0  0
  -21.1463   -6.0525   25.9073 H   0  0  0  0  0  0
  -22.0607   -2.7621   23.2834 H   0  0  0  0  0  0
  -22.4066  -11.9828   22.4772 H   0  0  0  0  0  0
  -21.1086  -13.1234   22.2679 H   0  0  0  0  0  0
  -24.6563  -15.8566   20.5284 H   0  0  0  0  0  0
  -26.2856  -15.6366   20.1356 H   0  0  0  0  0  0
  -26.7257  -32.5330   23.1004 H   0  0  0  0  0  0
  -25.0192  -33.9672   25.0410 H   0  0  0  0  0  0
  -22.7445  -31.2994   21.3910 H   0  0  0  0  0  0
  -23.3769  -35.9568   23.3293 H   0  0  0  0  0  0
  -24.3585  -36.8887   22.2057 H   0  0  0  0  0  0
  -23.7230  -37.6443   23.6668 H   0  0  0  0  0  0
  -26.1463  -31.4873   20.6128 H   0  0  0  0  0  0
  -26.8673  -30.7763   22.0237 H   0  0  0  0  0  0
  -28.1250  -28.8170   21.2109 H   0  0  0  0  0  0
  -25.8868  -25.9082   18.9184 H   0  0  0  0  0  0
  -23.9453  -27.3329   18.9801 H   0  0  0  0  0  0
  -23.8098  -30.5910   19.4077 H   0  0  0  0  0  0
  -22.7740  -29.2621   19.8375 H   0  0  0  0  0  0
  -25.1306  -36.1876   25.0799 H   0  0  0  0  0  0
  -21.0041  -28.3291   24.1363 H   0  0  0  0  0  0
  -20.5728  -26.2335   23.3608 H   0  0  0  0  0  0
  -21.6661  -26.7458   22.1182 H   0  0  0  0  0  0
  -19.6946  -25.6298   21.1266 H   0  0  0  0  0  0
  -19.6699  -27.3197   20.6753 H   0  0  0  0  0  0
  -17.4228  -26.6715   21.4026 H   0  0  0  0  0  0
  -18.0331  -26.0050   22.9002 H   0  0  0  0  0  0
  -19.7946  -30.7306   24.2257 H   0  0  0  0  0  0
  -17.5024  -31.6282   24.5167 H   0  0  0  0  0  0
  -15.5372  -30.3004   23.7655 H   0  0  0  0  0  0
  -15.8691  -28.0832   22.7082 H   0  0  0  0  0  0
  -24.5887  -30.7119   25.7696 H   0  0  0  0  0  0
  -24.8889  -32.2939   26.4773 H   0  0  0  0  0  0
  -25.7974  -30.8947   27.0209 H   0  0  0  0  0  0
  -26.2966  -29.6737   24.1253 H   0  0  0  0  0  0
  -27.4031  -29.7264   25.4770 H   0  0  0  0  0  0
  -27.8859  -30.4248   23.9517 H   0  0  0  0  0  0
  -27.2696  -33.3667   26.1979 H   0  0  0  0  0  0
  -28.3899  -32.6840   25.0304 H   0  0  0  0  0  0
  -28.0722  -31.8506   26.5433 H   0  0  0  0  0  0
  -28.2588  -38.0095   24.7528 H   0  0  0  0  0  0
  -28.1085  -36.2623   24.6269 H   0  0  0  0  0  0
  -27.2303  -37.1396   25.8880 H   0  0  0  0  0  0
  -20.9455  -29.8765   21.6800 H   0  0  0  0  0  0
  -26.0153  -38.2827   24.1432 H   0  0  0  0  0  0
  -30.0743  -18.9844   22.6390 H   0  0  0  0  0  0
  -28.6212  -18.1181   22.2772 H   0  0  0  0  0  0
  -27.8049  -18.0127   19.8275 H   0  0  0  0  0  0
  -28.7677  -18.7652   18.5999 H   0  0  0  0  0  0
  -30.4707  -16.5285   22.5936 H   0  0  0  0  0  0
  -31.4339  -17.3075   21.3774 H   0  0  0  0  0  0
  -30.6340  -17.1578   18.9817 H   0  0  0  0  0  0
  -29.1630  -16.2990   18.6650 H   0  0  0  0  0  0
  -30.3117  -19.7220   20.2790 H   0  0  0  0  0  0
  -28.1598  -22.8100   17.5088 H   0  0  0  0  0  0
  -26.4310  -23.1905   17.6859 H   0  0  0  0  0  0
  -26.9564  -21.6550   16.9880 H   0  0  0  0  0  0
  -24.9477  -20.6022   17.7207 H   0  0  0  0  0  0
  -24.3833  -22.0291   18.6002 H   0  0  0  0  0  0
  -23.9460  -20.4249   19.1441 H   0  0  0  0  0  0
  -24.1826  -20.3588   21.7723 H   0  0  0  0  0  0
  -25.2275  -19.0458   22.3017 H   0  0  0  0  0  0
  -24.4517  -18.9456   20.7369 H   0  0  0  0  0  0
  -30.9116  -22.7266   20.1609 H   0  0  0  0  0  0
  -30.6800  -24.4603   19.9860 H   0  0  0  0  0  0
  -30.2789  -23.3835   18.6539 H   0  0  0  0  0  0
  -26.9358  -24.5097   20.2466 H   0  0  0  0  0  0
  -27.8534  -24.7080   18.7883 H   0  0  0  0  0  0
  -28.9099  -23.4051   21.3731 H   0  0  0  0  0  0
  1 25  1  0  0  0
  1 30  2  0  0  0
  1 88  1  0  0  0
  2  3  1  0  0  0
  2 25  1  0  0  0
  2 89  1  0  0  0
  2 90  1  0  0  0
  3  4  1  0  0  0
  3 91  1  0  0  0
  3 92  1  0  0  0
  4  5  1  0  0  0
  4 93  1  0  0  0
  4 94  1  0  0  0
  5  6  1  0  0  0
  5 26  1  0  0  0
  5 95  1  0  0  0
  6 25  1  0  0  0
  6 96  1  0  0  0
  6 97  1  0  0  0
  7  8  2  0  0  0
  7 26  1  0  0  0
  7 29  1  0  0  0
  8  9  1  0  0  0
  8 22  1  0  0  0
  9 10  1  0  0  0
  9 27  2  0  0  0
 10 11  2  0  0  0
 10 15  1  0  0  0
 11 12  1  0  0  0
 11 98  1  0  0  0
 12 13  2  0  0  0
 12 99  1  0  0  0
 13 14  1  0  0  0
 13 31  1  0  0  0
 14 15  2  0  0  0
 14100  1  0  0  0
 15101  1  0  0  0
 16 17  2  0  0  0
 16 21  1  0  0  0
 16 31  1  0  0  0
 17 18  1  0  0  0
 17102  1  0  0  0
 18 19  2  0  0  0
 18103  1  0  0  0
 19 20  1  0  0  0
 19 24  1  0  0  0
 20 21  2  0  0  0
 20104  1  0  0  0
 21 23  1  0  0  0
 22 28  1  0  0  0
 22 32  2  0  0  0
 26 27  1  0  0  0
 28105  1  0  0  0
 28106  1  0  0  0
 29107  1  0  0  0
 29108  1  0  0  0
 33 34  1  0  0  0
 33 66  1  0  0  0
 33 70  2  0  0  0
 34 36  1  0  0  0
 34 59  1  0  0  0
 34109  1  0  0  0
 35 44  2  0  0  0
 35 45  1  0  0  0
 35 68  1  0  0  0
 36 56  1  0  0  0
 36110  1  0  0  0
 37 39  1  0  0  0
 37 47  1  0  0  0
 37 66  1  0  0  0
 37111  1  0  0  0
 38 43  2  0  0  0
 38 46  1  0  0  0
 38 47  1  0  0  0
 39 64  1  0  0  0
 39 67  2  0  0  0
 40 52  1  0  0  0
 40 53  2  0  0  0
 40 58  1  0  0  0
 41112  1  0  0  0
 41113  1  0  0  0
 41114  1  0  0  0
 41 48  1  0  0  0
 42 43  1  0  0  0
 42 66  1  0  0  0
 42115  1  0  0  0
 42116  1  0  0  0
 43 44  1  0  0  0
 44117  1  0  0  0
 45 46  2  0  0  0
 45118  1  0  0  0
 46119  1  0  0  0
 47120  1  0  0  0
 47121  1  0  0  0
 48 56  1  0  0  0
 48 65  1  0  0  0
 48122  1  0  0  0
 49 50  1  0  0  0
 49 53  1  0  0  0
 49 64  1  0  0  0
 49123  1  0  0  0
 50 51  1  0  0  0
 50124  1  0  0  0
 50125  1  0  0  0
 51 52  1  0  0  0
 51126  1  0  0  0
 51127  1  0  0  0
 52128  1  0  0  0
 52129  1  0  0  0
 53 54  1  0  0  0
 54 55  2  0  0  0
 54130  1  0  0  0
 55 57  1  0  0  0
 55131  1  0  0  0
 56 69  2  0  0  0
 57 58  2  0  0  0
 57132  1  0  0  0
 58133  1  0  0  0
 59 60  1  0  0  0
 59 61  1  0  0  0
 59 62  1  0  0  0
 60134  1  0  0  0
 60135  1  0  0  0
 60136  1  0  0  0
 61137  1  0  0  0
 61138  1  0  0  0
 61139  1  0  0  0
 62140  1  0  0  0
 62141  1  0  0  0
 62142  1  0  0  0
 63 65  1  0  0  0
 63143  1  0  0  0
 63144  1  0  0  0
 63145  1  0  0  0
 64146  1  0  0  0
 65147  1  0  0  0
 68 85  1  0  0  0
 71 72  2  0  0  0
 71 73  1  0  0  0
 71 81  1  0  0  0
 72 74  1  0  0  0
 72 86  1  0  0  0
 73 75  2  0  0  0
 73 82  1  0  0  0
 74 87  2  0  0  0
 74 80  1  0  0  0
 75 83  1  0  0  0
 75 87  1  0  0  0
 76 78  1  0  0  0
 76 80  1  0  0  0
 76148  1  0  0  0
 76149  1  0  0  0
 77 79  1  0  0  0
 77 80  1  0  0  0
 77150  1  0  0  0
 77151  1  0  0  0
 78 88  1  0  0  0
 78152  1  0  0  0
 78153  1  0  0  0
 79 88  1  0  0  0
 79154  1  0  0  0
 79155  1  0  0  0
 80156  1  0  0  0
 81157  1  0  0  0
 81158  1  0  0  0
 81159  1  0  0  0
 82160  1  0  0  0
 82161  1  0  0  0
 82162  1  0  0  0
 83163  1  0  0  0
 83164  1  0  0  0
 83165  1  0  0  0
 84166  1  0  0  0
 84167  1  0  0  0
 84168  1  0  0  0
 84 86  1  0  0  0
 85 86  1  0  0  0
 85169  1  0  0  0
 85170  1  0  0  0
 86171  1  0  0  0
M  ISO  4   1 100  68 101  85 101  88 100
M  END
> <chiral flag>
0

> <version>
0

> <s_m_source_file>
/data/baiqing/PycharmProjects/Reinvent-master-3.2/result/LINK_invent/BTK/process_docking_weight1_custom_sum_contain_oxygen_bond_distance_aromatic_linkinvent_7_9_3/rearranged_h_0163.sdf

> <i_m_source_file_index>
76

> <r_mmod_Potential_Energy-OPLS-2005>
582.23681640625

> <r_mmod_Stretch_Energy-OPLS-2005>
192.886871337891

> <r_mmod_Bend_Energy-OPLS-2005>
248.659439086914

> <r_mmod_Torsional_Energy-OPLS-2005>
497.576904296875

> <r_mmod_Improper_Torsional_Energy-OPLS-2005>
28.3310966491699

> <r_mmod_Van_der_Waal_Energy-OPLS-2005>
145.089416503906

> <r_mmod_Electrostatic_Energy-OPLS-2005>
-469.166259765625

> <r_mmod_Solvation_Energy-OPLS-2005>
-203.528457641602

> <b_mmod_Minimization_Converged-OPLS-2005>
0

> <r_mmod_RMS_Derivative-OPLS-2005>
3.05859780311584

$$$$
76
                    3D
 Structure written by MMmdl.
168178  0  0  1  0            999 V2000
  -30.6530  -14.8700   20.4411 C   0  0  0  0  0  0
  -30.4105  -12.5517   19.4845 C   0  0  0  0  0  0
  -29.5000  -12.5060   18.2414 C   0  0  0  0  0  0
  -28.0390  -12.2839   18.6687 C   0  0  0  0  0  0
  -27.6166  -13.2275   19.8226 C   0  0  2  0  0  0
  -28.6637  -13.3053   20.9573 C   0  0  0  0  0  0
  -25.2444  -13.8161   20.5717 C   0  0  0  0  0  0
  -24.1747  -13.0410   20.9240 C   0  0  0  0  0  0
  -24.6347  -11.6892   20.8781 C   0  0  0  0  0  0
  -23.9045  -10.4273   21.0429 C   0  0  0  0  0  0
  -24.3606   -9.4185   21.9196 C   0  0  0  0  0  0
  -23.6280   -8.2223   22.0760 C   0  0  0  0  0  0
  -22.4266   -8.0266   21.3546 C   0  0  0  0  0  0
  -21.9902   -9.0239   20.4649 C   0  0  0  0  0  0
  -22.7228  -10.2116   20.3062 C   0  0  0  0  0  0
  -21.6846   -6.0728   22.5280 C   0  0  0  0  0  0
  -21.4011   -6.5632   23.8212 C   0  0  0  0  0  0
  -21.3660   -5.6788   24.9177 C   0  0  0  0  0  0
  -21.6045   -4.3054   24.7231 C   0  0  0  0  0  0
  -21.8822   -3.8143   23.4355 C   0  0  0  0  0  0
  -21.9189   -4.6956   22.3409 C   0  0  0  0  0  0
  -22.7775  -13.5202   21.1892 C   0  0  0  0  0  0
  -22.1654   -4.2143   21.0988 F   0  0  0  0  0  0
  -21.5632   -3.4539   25.7743 F   0  0  0  0  0  0
  -29.9432  -13.6775   20.3439 N   0  0  0  0  0  0
  -26.2821  -12.9342   20.3221 N   0  0  0  0  0  0
  -25.9267  -11.6501   20.5766 N   0  0  0  0  0  0
  -22.0425  -12.8190   22.0444 N   0  0  0  0  0  0
  -25.4146  -15.1885   20.4147 N   0  0  0  0  0  0
  -31.8622  -14.8014   20.1990 O   0  0  0  0  0  0
  -21.6628   -6.8866   21.4240 O   0  0  0  0  0  0
  -22.3470  -14.5515   20.6739 O   0  0  0  0  0  0
  -24.6371  -31.8500   23.1933 C   0  0  0  0  0  0
  -25.9171  -32.4727   23.8307 C   0  0  1  0  0  0
  -27.2132  -27.2034   20.1518 C   0  0  0  0  0  0
  -25.5943  -33.8532   24.2222 N   0  0  0  0  0  0
  -23.4367  -30.4714   21.5377 C   0  0  2  0  0  0
  -24.8846  -28.9057   20.1133 C   0  0  0  0  0  0
  -22.7526  -29.4586   22.4886 C   0  0  0  0  0  0
  -18.0297  -28.1401   22.8491 C   0  0  0  0  0  0
  -24.1485  -36.7263   23.2644 C   0  0  0  0  0  0
  -25.9869  -30.7461   21.3804 C   0  0  0  0  0  0
  -26.0596  -29.3624   20.7255 C   0  0  0  0  0  0
  -27.2304  -28.5271   20.7258 C   0  0  0  0  0  0
  -26.0184  -26.8288   19.5029 C   0  0  0  0  0  0
  -24.8724  -27.6496   19.4877 C   0  0  0  0  0  0
  -23.6585  -29.8009   20.1564 C   0  0  0  0  0  0
  -25.4120  -36.3054   24.0320 C   0  0  1  0  0  0
  -20.5902  -28.3721   23.1250 C   0  0  2  0  0  0
  -20.6781  -26.9429   22.5407 C   0  0  0  0  0  0
  -19.5750  -26.6392   21.5214 C   0  0  0  0  0  0
  -18.1932  -26.7944   22.1627 C   0  0  0  0  0  0
  -19.1552  -28.8879   23.2867 C   0  0  0  0  0  0
  -18.9474  -30.1478   23.8889 C   0  0  0  0  0  0
  -17.6471  -30.6601   24.0568 C   0  0  0  0  0  0
  -25.9069  -34.9427   23.5080 C   0  0  0  0  0  0
  -16.5363  -29.9098   23.6338 C   0  0  0  0  0  0
  -16.7282  -28.6512   23.0369 C   0  0  0  0  0  0
  -26.4518  -31.6580   25.0727 C   0  0  0  0  0  0
  -25.3716  -31.3736   26.1427 C   0  0  0  0  0  0
  -27.0392  -30.2994   24.6263 C   0  0  0  0  0  0
  -27.6046  -32.4356   25.7505 C   0  0  0  0  0  0
  -27.5583  -37.1788   24.8469 C   0  0  0  0  0  0
  -21.4226  -29.3054   22.3626 N   0  0  0  0  0  0
  -26.4286  -37.3765   23.9420 N   0  0  0  0  0  0
  -24.7066  -31.0418   22.0936 N   0  0  0  0  0  0
  -23.4192  -28.8124   23.3013 O   0  0  0  0  0  0
  -28.2817  -26.2621   20.1713 O   0  0  0  0  0  0
  -26.5651  -34.8905   22.4655 O   0  0  0  0  0  0
  -23.5509  -32.1344   23.7194 O   0  0  0  0  0  0
  -29.2927  -20.9265   19.9001 C   0  0  0  0  0  0
  -29.2123  -23.5760   18.7012 C   0  0  0  0  0  0
  -28.7246  -22.1269   20.5724 C   0  0  0  0  0  0
  -29.7888  -21.1797   18.5770 C   0  0  0  0  0  0
  -28.6791  -23.4964   19.9958 C   0  0  0  0  0  0
  -29.7315  -22.4812   18.0285 C   0  0  0  0  0  0
  -29.3276  -24.7844   17.8293 C   0  0  0  0  0  0
  -28.4982  -18.2386   20.0120 C   0  0  0  0  0  0
  -30.8265  -18.7208   20.5667 C   0  0  0  0  0  0
  -28.7109  -16.7196   20.5309 C   0  0  0  0  0  0
  -30.9253  -17.2866   21.2449 C   0  0  0  0  0  0
  -29.8011  -24.1714   16.4999 C   0  0  0  0  0  0
  -29.4158  -19.4143   20.5503 C   0  0  0  0  0  0
  -28.1395  -21.9311   21.9612 C   0  0  0  0  0  0
  -30.4185  -20.1208   17.6808 C   0  0  0  0  0  0
  -28.0209  -24.8311   20.6477 C   0  0  0  0  0  0
  -30.0960  -16.1611   20.6896 N   0  0  0  0  0  0
  -30.1814  -22.8158   16.7785 O   0  0  0  0  0  0
  -31.4493  -12.6597   19.1690 H   0  0  0  0  0  0
  -30.3677  -11.6090   20.0323 H   0  0  0  0  0  0
  -29.8178  -11.7120   17.5645 H   0  0  0  0  0  0
  -29.5862  -13.4398   17.6832 H   0  0  0  0  0  0
  -27.9419  -11.2449   18.9857 H   0  0  0  0  0  0
  -27.3714  -12.4043   17.8141 H   0  0  0  0  0  0
  -27.5516  -14.1961   19.3406 H   0  0  0  0  0  0
  -28.7452  -12.3538   21.4840 H   0  0  0  0  0  0
  -28.3681  -14.0485   21.6991 H   0  0  0  0  0  0
  -25.2752   -9.5649   22.4771 H   0  0  0  0  0  0
  -23.9984   -7.4610   22.7475 H   0  0  0  0  0  0
  -21.0838   -8.8757   19.8950 H   0  0  0  0  0  0
  -22.3697  -10.9656   19.6167 H   0  0  0  0  0  0
  -21.2001   -7.6138   23.9714 H   0  0  0  0  0  0
  -21.1479   -6.0521   25.9079 H   0  0  0  0  0  0
  -22.0603   -2.7605   23.2861 H   0  0  0  0  0  0
  -22.4037  -11.9839   22.4812 H   0  0  0  0  0  0
  -21.1046  -13.1213   22.2671 H   0  0  0  0  0  0
  -24.6509  -15.8449   20.5361 H   0  0  0  0  0  0
  -26.2696  -15.6295   20.1045 H   0  0  0  0  0  0
  -26.7241  -32.5346   23.1045 H   0  0  0  0  0  0
  -25.0074  -33.9656   25.0359 H   0  0  0  0  0  0
  -22.7372  -31.2963   21.3877 H   0  0  0  0  0  0
  -23.3763  -35.9579   23.3284 H   0  0  0  0  0  0
  -24.3571  -36.8919   22.2064 H   0  0  0  0  0  0
  -23.7213  -37.6441   23.6692 H   0  0  0  0  0  0
  -26.1334  -31.5022   20.6077 H   0  0  0  0  0  0
  -26.8615  -30.7964   22.0177 H   0  0  0  0  0  0
  -28.1315  -28.8738   21.2118 H   0  0  0  0  0  0
  -25.9580  -25.8660   19.0151 H   0  0  0  0  0  0
  -23.9750  -27.2954   18.9989 H   0  0  0  0  0  0
  -23.7881  -30.5758   19.4004 H   0  0  0  0  0  0
  -22.7749  -29.2384   19.8493 H   0  0  0  0  0  0
  -25.1302  -36.1895   25.0810 H   0  0  0  0  0  0
  -21.0000  -28.3317   24.1368 H   0  0  0  0  0  0
  -20.5685  -26.2336   23.3626 H   0  0  0  0  0  0
  -21.6650  -26.7448   22.1198 H   0  0  0  0  0  0
  -19.6909  -25.6299   21.1256 H   0  0  0  0  0  0
  -19.6685  -27.3198   20.6738 H   0  0  0  0  0  0
  -17.4200  -26.6705   21.4027 H   0  0  0  0  0  0
  -18.0328  -26.0085   22.9024 H   0  0  0  0  0  0
  -19.7947  -30.7303   24.2252 H   0  0  0  0  0  0
  -17.5024  -31.6274   24.5188 H   0  0  0  0  0  0
  -15.5368  -30.3004   23.7661 H   0  0  0  0  0  0
  -15.8680  -28.0828   22.7100 H   0  0  0  0  0  0
  -24.5901  -30.7084   25.7738 H   0  0  0  0  0  0
  -24.8897  -32.2905   26.4831 H   0  0  0  0  0  0
  -25.8008  -30.8921   27.0221 H   0  0  0  0  0  0
  -26.3005  -29.6716   24.1270 H   0  0  0  0  0  0
  -27.4040  -29.7285   25.4812 H   0  0  0  0  0  0
  -27.8884  -30.4263   23.9546 H   0  0  0  0  0  0
  -27.2641  -33.3673   26.2033 H   0  0  0  0  0  0
  -28.3874  -32.6905   25.0350 H   0  0  0  0  0  0
  -28.0697  -31.8529   26.5465 H   0  0  0  0  0  0
  -28.2582  -38.0104   24.7551 H   0  0  0  0  0  0
  -28.1100  -36.2639   24.6260 H   0  0  0  0  0  0
  -27.2303  -37.1388   25.8871 H   0  0  0  0  0  0
  -20.9426  -29.8771   21.6814 H   0  0  0  0  0  0
  -26.0157  -38.2827   24.1453 H   0  0  0  0  0  0
  -30.0727  -25.4659   18.2410 H   0  0  0  0  0  0
  -28.3790  -25.3105   17.7197 H   0  0  0  0  0  0
  -27.4623  -18.5174   20.2075 H   0  0  0  0  0  0
  -28.5507  -18.2008   18.9291 H   0  0  0  0  0  0
  -31.2229  -18.6036   19.5640 H   0  0  0  0  0  0
  -31.5243  -19.3891   21.0724 H   0  0  0  0  0  0
  -28.1668  -16.0887   19.8403 H   0  0  0  0  0  0
  -28.2155  -16.6105   21.4962 H   0  0  0  0  0  0
  -30.6529  -17.3883   22.2960 H   0  0  0  0  0  0
  -31.9802  -17.0101   21.2617 H   0  0  0  0  0  0
  -30.6237  -24.7345   16.0585 H   0  0  0  0  0  0
  -28.9836  -24.1555   15.7779 H   0  0  0  0  0  0
  -29.1599  -19.5271   21.6027 H   0  0  0  0  0  0
  -27.4998  -21.0489   21.9887 H   0  0  0  0  0  0
  -27.5234  -22.7698   22.2805 H   0  0  0  0  0  0
  -28.9383  -21.8025   22.6921 H   0  0  0  0  0  0
  -31.4912  -20.0668   17.8631 H   0  0  0  0  0  0
  -30.2851  -20.3680   16.6273 H   0  0  0  0  0  0
  -29.9934  -19.1324   17.7958 H   0  0  0  0  0  0
  -28.3298  -24.8376   21.6929 H   0  0  0  0  0  0
  -26.9474  -24.6458   20.6820 H   0  0  0  0  0  0
  1 25  1  0  0  0
  1 30  2  0  0  0
  1 87  1  0  0  0
  2  3  1  0  0  0
  2 25  1  0  0  0
  2 89  1  0  0  0
  2 90  1  0  0  0
  3  4  1  0  0  0
  3 91  1  0  0  0
  3 92  1  0  0  0
  4  5  1  0  0  0
  4 93  1  0  0  0
  4 94  1  0  0  0
  5  6  1  0  0  0
  5 26  1  0  0  0
  5 95  1  0  0  0
  6 25  1  0  0  0
  6 96  1  0  0  0
  6 97  1  0  0  0
  7  8  2  0  0  0
  7 26  1  0  0  0
  7 29  1  0  0  0
  8  9  1  0  0  0
  8 22  1  0  0  0
  9 10  1  0  0  0
  9 27  2  0  0  0
 10 11  2  0  0  0
 10 15  1  0  0  0
 11 12  1  0  0  0
 11 98  1  0  0  0
 12 13  2  0  0  0
 12 99  1  0  0  0
 13 14  1  0  0  0
 13 31  1  0  0  0
 14 15  2  0  0  0
 14100  1  0  0  0
 15101  1  0  0  0
 16 17  2  0  0  0
 16 21  1  0  0  0
 16 31  1  0  0  0
 17 18  1  0  0  0
 17102  1  0  0  0
 18 19  2  0  0  0
 18103  1  0  0  0
 19 20  1  0  0  0
 19 24  1  0  0  0
 20 21  2  0  0  0
 20104  1  0  0  0
 21 23  1  0  0  0
 22 28  1  0  0  0
 22 32  2  0  0  0
 26 27  1  0  0  0
 28105  1  0  0  0
 28106  1  0  0  0
 29107  1  0  0  0
 29108  1  0  0  0
 33 34  1  0  0  0
 33 66  1  0  0  0
 33 70  2  0  0  0
 34 36  1  0  0  0
 34 59  1  0  0  0
 34109  1  0  0  0
 35 44  2  0  0  0
 35 45  1  0  0  0
 35 68  1  0  0  0
 36 56  1  0  0  0
 36110  1  0  0  0
 37 39  1  0  0  0
 37 47  1  0  0  0
 37 66  1  0  0  0
 37111  1  0  0  0
 38 43  2  0  0  0
 38 46  1  0  0  0
 38 47  1  0  0  0
 39 64  1  0  0  0
 39 67  2  0  0  0
 40 52  1  0  0  0
 40 53  2  0  0  0
 40 58  1  0  0  0
 41112  1  0  0  0
 41113  1  0  0  0
 41114  1  0  0  0
 41 48  1  0  0  0
 42 43  1  0  0  0
 42 66  1  0  0  0
 42115  1  0  0  0
 42116  1  0  0  0
 43 44  1  0  0  0
 44117  1  0  0  0
 45 46  2  0  0  0
 45118  1  0  0  0
 46119  1  0  0  0
 47120  1  0  0  0
 47121  1  0  0  0
 48 56  1  0  0  0
 48 65  1  0  0  0
 48122  1  0  0  0
 49 50  1  0  0  0
 49 53  1  0  0  0
 49 64  1  0  0  0
 49123  1  0  0  0
 50 51  1  0  0  0
 50124  1  0  0  0
 50125  1  0  0  0
 51 52  1  0  0  0
 51126  1  0  0  0
 51127  1  0  0  0
 52128  1  0  0  0
 52129  1  0  0  0
 53 54  1  0  0  0
 54 55  2  0  0  0
 54130  1  0  0  0
 55 57  1  0  0  0
 55131  1  0  0  0
 56 69  2  0  0  0
 57 58  2  0  0  0
 57132  1  0  0  0
 58133  1  0  0  0
 59 60  1  0  0  0
 59 61  1  0  0  0
 59 62  1  0  0  0
 60134  1  0  0  0
 60135  1  0  0  0
 60136  1  0  0  0
 61137  1  0  0  0
 61138  1  0  0  0
 61139  1  0  0  0
 62140  1  0  0  0
 62141  1  0  0  0
 62142  1  0  0  0
 63 65  1  0  0  0
 63143  1  0  0  0
 63144  1  0  0  0
 63145  1  0  0  0
 64146  1  0  0  0
 65147  1  0  0  0
 68 86  1  0  0  0
 71 73  2  0  0  0
 71 74  1  0  0  0
 71 83  1  0  0  0
 72 75  2  0  0  0
 72 76  1  0  0  0
 72 77  1  0  0  0
 73 75  1  0  0  0
 73 84  1  0  0  0
 74 76  2  0  0  0
 74 85  1  0  0  0
 75 86  1  0  0  0
 76 88  1  0  0  0
 77 82  1  0  0  0
 77148  1  0  0  0
 77149  1  0  0  0
 78 80  1  0  0  0
 78 83  1  0  0  0
 78150  1  0  0  0
 78151  1  0  0  0
 79 81  1  0  0  0
 79 83  1  0  0  0
 79152  1  0  0  0
 79153  1  0  0  0
 80 87  1  0  0  0
 80154  1  0  0  0
 80155  1  0  0  0
 81 87  1  0  0  0
 81156  1  0  0  0
 81157  1  0  0  0
 82 88  1  0  0  0
 82158  1  0  0  0
 82159  1  0  0  0
 83160  1  0  0  0
 84161  1  0  0  0
 84162  1  0  0  0
 84163  1  0  0  0
 85164  1  0  0  0
 85165  1  0  0  0
 85166  1  0  0  0
 86167  1  0  0  0
 86168  1  0  0  0
M  ISO  4   1 100  68 101  86 101  87 100
M  END
> <chiral flag>
0

> <version>
0

> <s_m_source_file>
/data/baiqing/PycharmProjects/Reinvent-master-3.2/result/LINK_invent/BTK/process_docking_weight1_custom_sum_contain_oxygen_bond_distance_aromatic_linkinvent_7_9_3/rearranged_h_0163.sdf

> <i_m_source_file_index>
77

> <r_mmod_Potential_Energy-OPLS-2005>
589.584289550781

> <r_mmod_Stretch_Energy-OPLS-2005>
193.897354125977

> <r_mmod_Bend_Energy-OPLS-2005>
278.049743652344

> <r_mmod_Torsional_Energy-OPLS-2005>
341.901977539062

> <r_mmod_Improper_Torsional_Energy-OPLS-2005>
2.17605304718018

> <r_mmod_Van_der_Waal_Energy-OPLS-2005>
144.700820922852

> <r_mmod_Electrostatic_Energy-OPLS-2005>
-309.848266601562

> <r_mmod_Solvation_Energy-OPLS-2005>
-205.458282470703

> <b_mmod_Minimization_Converged-OPLS-2005>
0

> <r_mmod_RMS_Derivative-OPLS-2005>
1.0066887140274

$$$$
77
                    3D
 Structure written by MMmdl.
166175  0  0  1  0            999 V2000
  -29.7363  -16.5315   19.8928 C   0  0  0  0  0  0
  -30.2582  -13.7241   19.3404 C   0  0  0  0  0  0
  -29.5591  -12.4487   18.7114 C   0  0  0  0  0  0
  -28.0365  -12.3767   18.6416 C   0  0  0  0  0  0
  -27.4587  -13.3835   19.6579 C   0  0  2  0  0  0
  -28.4360  -14.1015   20.6192 C   0  0  0  0  0  0
  -25.1787  -13.8721   20.6055 C   0  0  0  0  0  0
  -24.1291  -13.0472   20.9524 C   0  0  0  0  0  0
  -24.6007  -11.7169   20.8501 C   0  0  0  0  0  0
  -23.8744  -10.4338   20.9869 C   0  0  0  0  0  0
  -24.3213   -9.4467   21.8867 C   0  0  0  0  0  0
  -23.6069   -8.2356   22.0580 C   0  0  0  0  0  0
  -22.4175   -8.0138   21.3285 C   0  0  0  0  0  0
  -21.9583   -8.9943   20.4326 C   0  0  0  0  0  0
  -22.6770  -10.1997   20.2644 C   0  0  0  0  0  0
  -21.6833   -6.0631   22.5333 C   0  0  0  0  0  0
  -21.3921   -6.5560   23.8216 C   0  0  0  0  0  0
  -21.3549   -5.6719   24.9196 C   0  0  0  0  0  0
  -21.6049   -4.2982   24.7269 C   0  0  0  0  0  0
  -21.8860   -3.8084   23.4381 C   0  0  0  0  0  0
  -21.9226   -4.6898   22.3458 C   0  0  0  0  0  0
  -22.7215  -13.4999   21.2323 C   0  0  0  0  0  0
  -22.1665   -4.2066   21.1024 F   0  0  0  0  0  0
  -21.5629   -3.4481   25.7767 F   0  0  0  0  0  0
  -29.4140  -14.9843   19.8571 N   0  0  0  0  0  0
  -26.2050  -13.0078   20.2691 N   0  0  0  0  0  0
  -25.8866  -11.7049   20.5044 N   0  0  0  0  0  0
  -21.9772  -12.7778   22.0806 N   0  0  0  0  0  0
  -25.3218  -15.2434   20.5273 N   0  0  0  0  0  0
  -30.9939  -16.3500   19.9963 O   0  0  0  0  0  0
  -21.6561   -6.8759   21.4205 O   0  0  0  0  0  0
  -22.3001  -14.5178   20.7076 O   0  0  0  0  0  0
  -24.7763  -31.6693   23.0694 C   0  0  0  0  0  0
  -25.9873  -32.3824   23.7540 C   0  0  1  0  0  0
  -27.1597  -25.7927   20.1355 C   0  0  0  0  0  0
  -25.6050  -33.7703   24.1315 N   0  0  0  0  0  0
  -23.6319  -30.2360   21.4514 C   0  0  2  0  0  0
  -25.0548  -28.3846   20.1037 C   0  0  0  0  0  0
  -22.8140  -29.3627   22.4499 C   0  0  0  0  0  0
  -18.0337  -28.1439   22.8386 C   0  0  0  0  0  0
  -24.1482  -36.6858   23.2681 C   0  0  0  0  0  0
  -26.2346  -30.0693   21.4759 C   0  0  0  0  0  0
  -26.2578  -28.5478   20.8010 C   0  0  0  0  0  0
  -27.2603  -27.3068   20.7627 C   0  0  0  0  0  0
  -25.9444  -26.0581   19.4007 C   0  0  0  0  0  0
  -24.9907  -27.1672   19.3849 C   0  0  0  0  0  0
  -23.9090  -29.4606   20.1181 C   0  0  0  0  0  0
  -25.4172  -36.2511   24.0201 C   0  0  1  0  0  0
  -20.6030  -28.3817   23.1020 C   0  0  2  0  0  0
  -20.6759  -26.9388   22.5443 C   0  0  0  0  0  0
  -19.5768  -26.6312   21.5230 C   0  0  0  0  0  0
  -18.1958  -26.7946   22.1578 C   0  0  0  0  0  0
  -19.1623  -28.8975   23.2664 C   0  0  0  0  0  0
  -18.9539  -30.1565   23.8730 C   0  0  0  0  0  0
  -17.6522  -30.6623   24.0531 C   0  0  0  0  0  0
  -25.9227  -34.8930   23.4673 C   0  0  0  0  0  0
  -16.5414  -29.9103   23.6367 C   0  0  0  0  0  0
  -16.7330  -28.6527   23.0390 C   0  0  0  0  0  0
  -26.4749  -31.6359   25.0585 C   0  0  0  0  0  0
  -25.3582  -31.3942   26.1045 C   0  0  0  0  0  0
  -27.0869  -30.2635   24.7188 C   0  0  0  0  0  0
  -27.5984  -32.4498   25.7479 C   0  0  0  0  0  0
  -27.5519  -37.1571   24.8466 C   0  0  0  0  0  0
  -21.4702  -29.2862   22.3230 N   0  0  0  0  0  0
  -26.4196  -37.3400   23.9432 N   0  0  0  0  0  0
  -24.9198  -30.7191   22.0486 N   0  0  0  0  0  0
  -23.4129  -28.7346   23.3251 O   0  0  0  0  0  0
  -27.9540  -24.1853   20.1007 O   0  0  0  0  0  0
  -26.6043  -34.8735   22.4412 O   0  0  0  0  0  0
  -23.6613  -32.0231   23.5063 O   0  0  0  0  0  0
  -25.0512  -18.5399   15.8560 C   0  0  0  0  0  0
  -25.8138  -19.5521   16.3391 C   0  0  0  0  0  0
  -25.1810  -17.7390   17.0137 C   0  0  0  0  0  0
  -28.7898  -18.8236   17.4776 C   0  0  0  0  0  0
  -26.7472  -18.2078   20.3880 C   0  0  0  0  0  0
  -29.1880  -20.7519   18.4954 C   0  0  0  0  0  0
  -27.5036  -20.2403   20.9496 C   0  0  0  0  0  0
  -27.3271  -17.3867   18.3750 C   0  0  1  0  0  0
  -28.0069  -21.9923   19.7855 C   0  0  1  0  0  0
  -27.0938  -16.3257   16.0913 C   0  0  0  0  0  0
  -25.4050  -15.3790   17.5360 C   0  0  0  0  0  0
  -27.1214  -19.6561   18.7066 C   0  0  0  0  0  0
  -26.2333  -16.6922   17.3036 C   0  0  0  0  0  0
  -24.9394  -18.5239   18.0527 N   0  0  0  0  0  0
  -25.9527  -19.3444   17.7188 N   0  0  0  0  0  0
  -28.9719  -18.1963   19.6989 N   0  0  0  0  0  0
  -31.0281  -14.0392   18.6351 H   0  0  0  0  0  0
  -30.8925  -13.3521   20.1428 H   0  0  0  0  0  0
  -29.8373  -11.6797   19.4398 H   0  0  0  0  0  0
  -29.9663  -12.0746   17.7599 H   0  0  0  0  0  0
  -27.6326  -11.3763   18.8057 H   0  0  0  0  0  0
  -27.6954  -12.5513   17.6031 H   0  0  0  0  0  0
  -27.2561  -14.2070   19.0009 H   0  0  0  0  0  0
  -28.8735  -13.3755   21.2952 H   0  0  0  0  0  0
  -27.8428  -14.8232   21.1650 H   0  0  0  0  0  0
  -25.2117   -9.6454   22.4607 H   0  0  0  0  0  0
  -23.9908   -7.4777   22.7330 H   0  0  0  0  0  0
  -21.0489   -8.7882   19.8536 H   0  0  0  0  0  0
  -22.2642  -10.9267   19.5732 H   0  0  0  0  0  0
  -21.1729   -7.6019   23.9728 H   0  0  0  0  0  0
  -21.1304   -6.0374   25.9088 H   0  0  0  0  0  0
  -22.0758   -2.7561   23.2912 H   0  0  0  0  0  0
  -22.3077  -11.9369   22.5021 H   0  0  0  0  0  0
  -21.0425  -13.0733   22.3002 H   0  0  0  0  0  0
  -24.5208  -15.8687   20.3850 H   0  0  0  0  0  0
  -26.1693  -15.5917   20.0681 H   0  0  0  0  0  0
  -26.8113  -32.4109   23.0382 H   0  0  0  0  0  0
  -24.9885  -33.8537   24.9266 H   0  0  0  0  0  0
  -23.0173  -31.0947   21.1934 H   0  0  0  0  0  0
  -23.3812  -35.9110   23.3136 H   0  0  0  0  0  0
  -24.3522  -36.8806   22.2144 H   0  0  0  0  0  0
  -23.7181  -37.5890   23.6999 H   0  0  0  0  0  0
  -26.6041  -30.7383   20.6953 H   0  0  0  0  0  0
  -27.0303  -30.0511   22.2068 H   0  0  0  0  0  0
  -28.1540  -27.4752   21.3550 H   0  0  0  0  0  0
  -25.6415  -25.2154   18.8156 H   0  0  0  0  0  0
  -24.1062  -26.9969   18.7884 H   0  0  0  0  0  0
  -24.1921  -30.1812   19.3542 H   0  0  0  0  0  0
  -22.9913  -28.9910   19.7562 H   0  0  0  0  0  0
  -25.1437  -36.1067   25.0679 H   0  0  0  0  0  0
  -21.0043  -28.3505   24.1191 H   0  0  0  0  0  0
  -20.5533  -26.2454   23.3789 H   0  0  0  0  0  0
  -21.6628  -26.7187   22.1341 H   0  0  0  0  0  0
  -19.6917  -25.6196   21.1376 H   0  0  0  0  0  0
  -19.6783  -27.3039   20.6722 H   0  0  0  0  0  0
  -17.4250  -26.6729   21.3987 H   0  0  0  0  0  0
  -18.0283  -26.0147   22.9000 H   0  0  0  0  0  0
  -19.8057  -30.7395   24.2052 H   0  0  0  0  0  0
  -17.5108  -31.6282   24.5155 H   0  0  0  0  0  0
  -15.5436  -30.2957   23.7802 H   0  0  0  0  0  0
  -15.8739  -28.0812   22.7203 H   0  0  0  0  0  0
  -24.5862  -30.7197   25.7334 H   0  0  0  0  0  0
  -24.8693  -32.3248   26.3926 H   0  0  0  0  0  0
  -25.7557  -30.9462   27.0167 H   0  0  0  0  0  0
  -26.3621  -29.5822   24.2726 H   0  0  0  0  0  0
  -27.4490  -29.7635   25.6187 H   0  0  0  0  0  0
  -27.9542  -30.3611   24.0660 H   0  0  0  0  0  0
  -27.2362  -33.4014   26.1393 H   0  0  0  0  0  0
  -28.4120  -32.6713   25.0558 H   0  0  0  0  0  0
  -28.0279  -31.9094   26.5939 H   0  0  0  0  0  0
  -28.2396  -37.9988   24.7555 H   0  0  0  0  0  0
  -28.1144  -36.2494   24.6224 H   0  0  0  0  0  0
  -27.2246  -37.1097   25.8866 H   0  0  0  0  0  0
  -21.0215  -29.8385   21.6059 H   0  0  0  0  0  0
  -25.9901  -38.2368   24.1524 H   0  0  0  0  0  0
  -24.9010  -18.2749   14.8143 H   0  0  0  0  0  0
  -26.3905  -20.2768   15.7707 H   0  0  0  0  0  0
  -29.6845  -18.2443   17.3633 H   0  0  0  0  0  0
  -28.5261  -19.0450   16.4372 H   0  0  0  0  0  0
  -25.6643  -18.2258   20.4548 H   0  0  0  0  0  0
  -27.0397  -17.4966   21.1493 H   0  0  0  0  0  0
  -30.1881  -20.6505   18.9147 H   0  0  0  0  0  0
  -29.3369  -21.3916   17.6213 H   0  0  0  0  0  0
  -28.3960  -19.9788   21.5170 H   0  0  0  0  0  0
  -26.8296  -20.5623   21.7514 H   0  0  0  0  0  0
  -27.7844  -16.4195   18.4956 H   0  0  0  0  0  0
  -27.0997  -22.1367   19.2051 H   0  0  0  0  0  0
  -27.8834  -17.0367   15.8919 H   0  0  0  0  0  0
  -26.5041  -16.2282   15.1840 H   0  0  0  0  0  0
  -27.5316  -15.3553   16.2782 H   0  0  0  0  0  0
  -25.8801  -14.4168   17.5371 H   0  0  0  0  0  0
  -24.8255  -15.2086   16.6472 H   0  0  0  0  0  0
  -24.6410  -15.4964   18.2976 H   0  0  0  0  0  0
  -26.2880  -20.1525   19.2409 H   0  0  0  0  0  0
  -27.1997  -20.4808   18.0001 H   0  0  0  0  0  0
  -29.7292  -18.8512   19.8401 H   0  0  0  0  0  0
  1 25  1  0  0  0
  1 30  2  0  0  0
  1 86  1  0  0  0
  2  3  1  0  0  0
  2 25  1  0  0  0
  2 87  1  0  0  0
  2 88  1  0  0  0
  3  4  1  0  0  0
  3 89  1  0  0  0
  3 90  1  0  0  0
  4  5  1  0  0  0
  4 91  1  0  0  0
  4 92  1  0  0  0
  5  6  1  0  0  0
  5 26  1  0  0  0
  5 93  1  0  0  0
  6 25  1  0  0  0
  6 94  1  0  0  0
  6 95  1  0  0  0
  7  8  2  0  0  0
  7 26  1  0  0  0
  7 29  1  0  0  0
  8  9  1  0  0  0
  8 22  1  0  0  0
  9 10  1  0  0  0
  9 27  2  0  0  0
 10 11  2  0  0  0
 10 15  1  0  0  0
 11 12  1  0  0  0
 11 96  1  0  0  0
 12 13  2  0  0  0
 12 97  1  0  0  0
 13 14  1  0  0  0
 13 31  1  0  0  0
 14 15  2  0  0  0
 14 98  1  0  0  0
 15 99  1  0  0  0
 16 17  2  0  0  0
 16 21  1  0  0  0
 16 31  1  0  0  0
 17 18  1  0  0  0
 17100  1  0  0  0
 18 19  2  0  0  0
 18101  1  0  0  0
 19 20  1  0  0  0
 19 24  1  0  0  0
 20 21  2  0  0  0
 20102  1  0  0  0
 21 23  1  0  0  0
 22 28  1  0  0  0
 22 32  2  0  0  0
 26 27  1  0  0  0
 28103  1  0  0  0
 28104  1  0  0  0
 29105  1  0  0  0
 29106  1  0  0  0
 33 34  1  0  0  0
 33 66  1  0  0  0
 33 70  2  0  0  0
 34 36  1  0  0  0
 34 59  1  0  0  0
 34107  1  0  0  0
 35 44  2  0  0  0
 35 45  1  0  0  0
 35 68  1  0  0  0
 36 56  1  0  0  0
 36108  1  0  0  0
 37 39  1  0  0  0
 37 47  1  0  0  0
 37 66  1  0  0  0
 37109  1  0  0  0
 38 43  2  0  0  0
 38 46  1  0  0  0
 38 47  1  0  0  0
 39 64  1  0  0  0
 39 67  2  0  0  0
 40 52  1  0  0  0
 40 53  2  0  0  0
 40 58  1  0  0  0
 41110  1  0  0  0
 41111  1  0  0  0
 41112  1  0  0  0
 41 48  1  0  0  0
 42 43  1  0  0  0
 42 66  1  0  0  0
 42113  1  0  0  0
 42114  1  0  0  0
 43 44  1  0  0  0
 44115  1  0  0  0
 45 46  2  0  0  0
 45116  1  0  0  0
 46117  1  0  0  0
 47118  1  0  0  0
 47119  1  0  0  0
 48 56  1  0  0  0
 48 65  1  0  0  0
 48120  1  0  0  0
 49 50  1  0  0  0
 49 53  1  0  0  0
 49 64  1  0  0  0
 49121  1  0  0  0
 50 51  1  0  0  0
 50122  1  0  0  0
 50123  1  0  0  0
 51 52  1  0  0  0
 51124  1  0  0  0
 51125  1  0  0  0
 52126  1  0  0  0
 52127  1  0  0  0
 53 54  1  0  0  0
 54 55  2  0  0  0
 54128  1  0  0  0
 55 57  1  0  0  0
 55129  1  0  0  0
 56 69  2  0  0  0
 57 58  2  0  0  0
 57130  1  0  0  0
 58131  1  0  0  0
 59 60  1  0  0  0
 59 61  1  0  0  0
 59 62  1  0  0  0
 60132  1  0  0  0
 60133  1  0  0  0
 60134  1  0  0  0
 61135  1  0  0  0
 61136  1  0  0  0
 61137  1  0  0  0
 62138  1  0  0  0
 62139  1  0  0  0
 62140  1  0  0  0
 63 65  1  0  0  0
 63141  1  0  0  0
 63142  1  0  0  0
 63143  1  0  0  0
 64144  1  0  0  0
 65145  1  0  0  0
 68 79  1  0  0  0
 71 72  2  0  0  0
 71 73  1  0  0  0
 71146  1  0  0  0
 72 85  1  0  0  0
 72147  1  0  0  0
 73 83  1  0  0  0
 73 84  2  0  0  0
 74 76  1  0  0  0
 74148  1  0  0  0
 74149  1  0  0  0
 74 78  1  0  0  0
 75 77  1  0  0  0
 75 78  1  0  0  0
 75150  1  0  0  0
 75151  1  0  0  0
 76 79  1  0  0  0
 76152  1  0  0  0
 76153  1  0  0  0
 77 79  1  0  0  0
 77154  1  0  0  0
 77155  1  0  0  0
 78 83  1  0  0  0
 78156  1  0  0  0
 79157  1  0  0  0
 80158  1  0  0  0
 80159  1  0  0  0
 80160  1  0  0  0
 80 83  1  0  0  0
 81 83  1  0  0  0
 81161  1  0  0  0
 81162  1  0  0  0
 81163  1  0  0  0
 82 85  1  0  0  0
 82 86  1  0  0  0
 82164  1  0  0  0
 82165  1  0  0  0
 84 85  1  0  0  0
 86166  1  0  0  0
M  ISO  4   1 100  68 101  79 101  86 100
M  END
> <chiral flag>
0

> <version>
0

> <s_m_source_file>
/data/baiqing/PycharmProjects/Reinvent-master-3.2/result/LINK_invent/BTK/process_docking_weight1_custom_sum_contain_oxygen_bond_distance_aromatic_linkinvent_7_9_3/rearranged_h_0163.sdf

> <i_m_source_file_index>
78

> <r_mmod_Potential_Energy-OPLS-2005>
13618.001953125

> <r_mmod_Stretch_Energy-OPLS-2005>
7123.89990234375

> <r_mmod_Bend_Energy-OPLS-2005>
1424.75756835938

> <r_mmod_Torsional_Energy-OPLS-2005>
574.507568359375

> <r_mmod_Improper_Torsional_Energy-OPLS-2005>
25.0591068267822

> <r_mmod_Van_der_Waal_Energy-OPLS-2005>
1719.70056152344

> <r_mmod_Electrostatic_Energy-OPLS-2005>
-436.921417236328

> <r_mmod_Solvation_Energy-OPLS-2005>
-216.156555175781

> <b_mmod_Minimization_Converged-OPLS-2005>
0

> <r_mmod_RMS_Derivative-OPLS-2005>
48.0547485351562

$$$$
78
                    3D
 Structure written by MMmdl.
169178  0  0  1  0            999 V2000
  -30.5693  -15.0349   20.4191 C   0  0  0  0  0  0
  -30.4269  -12.6571   19.4982 C   0  0  0  0  0  0
  -29.5109  -12.5270   18.2601 C   0  0  0  0  0  0
  -28.0543  -12.2857   18.6926 C   0  0  0  0  0  0
  -27.6164  -13.2433   19.8285 C   0  0  2  0  0  0
  -28.6631  -13.3501   20.9589 C   0  0  0  0  0  0
  -25.2415  -13.8188   20.5750 C   0  0  0  0  0  0
  -24.1733  -13.0407   20.9248 C   0  0  0  0  0  0
  -24.6368  -11.6899   20.8775 C   0  0  0  0  0  0
  -23.9065  -10.4266   21.0411 C   0  0  0  0  0  0
  -24.3617   -9.4184   21.9190 C   0  0  0  0  0  0
  -23.6289   -8.2224   22.0760 C   0  0  0  0  0  0
  -22.4274   -8.0266   21.3546 C   0  0  0  0  0  0
  -21.9910   -9.0239   20.4647 C   0  0  0  0  0  0
  -22.7241  -10.2114   20.3058 C   0  0  0  0  0  0
  -21.6854   -6.0725   22.5275 C   0  0  0  0  0  0
  -21.4007   -6.5630   23.8204 C   0  0  0  0  0  0
  -21.3654   -5.6789   24.9167 C   0  0  0  0  0  0
  -21.6047   -4.3055   24.7222 C   0  0  0  0  0  0
  -21.8819   -3.8141   23.4347 C   0  0  0  0  0  0
  -21.9185   -4.6952   22.3401 C   0  0  0  0  0  0
  -22.7756  -13.5185   21.1895 C   0  0  0  0  0  0
  -22.1655   -4.2140   21.0980 F   0  0  0  0  0  0
  -21.5633   -3.4541   25.7735 F   0  0  0  0  0  0
  -29.9170  -13.7918   20.3340 N   0  0  0  0  0  0
  -26.2822  -12.9411   20.3264 N   0  0  0  0  0  0
  -25.9298  -11.6548   20.5784 N   0  0  0  0  0  0
  -22.0417  -12.8163   22.0456 N   0  0  0  0  0  0
  -25.4063  -15.1915   20.4205 N   0  0  0  0  0  0
  -31.7897  -14.9920   20.2210 O   0  0  0  0  0  0
  -21.6638   -6.8865   21.4239 O   0  0  0  0  0  0
  -22.3433  -14.5488   20.6747 O   0  0  0  0  0  0
  -24.6470  -31.8376   23.1828 C   0  0  0  0  0  0
  -25.9222  -32.4670   23.8212 C   0  0  1  0  0  0
  -27.2163  -27.0962   20.1514 C   0  0  0  0  0  0
  -25.5945  -33.8480   24.2131 N   0  0  0  0  0  0
  -23.4530  -30.4554   21.5288 C   0  0  2  0  0  0
  -24.9023  -28.8739   20.1072 C   0  0  0  0  0  0
  -22.7580  -29.4509   22.4825 C   0  0  0  0  0  0
  -18.0290  -28.1410   22.8456 C   0  0  0  0  0  0
  -24.1488  -36.7250   23.2649 C   0  0  0  0  0  0
  -26.0108  -30.7008   21.3845 C   0  0  0  0  0  0
  -26.0809  -29.3074   20.7268 C   0  0  0  0  0  0
  -27.2381  -28.4339   20.7312 C   0  0  0  0  0  0
  -26.0116  -26.7726   19.4906 C   0  0  0  0  0  0
  -24.8816  -27.6218   19.4739 C   0  0  0  0  0  0
  -23.6803  -29.7800   20.1497 C   0  0  0  0  0  0
  -25.4120  -36.3019   24.0313 C   0  0  1  0  0  0
  -20.5907  -28.3736   23.1223 C   0  0  2  0  0  0
  -20.6781  -26.9429   22.5420 C   0  0  0  0  0  0
  -19.5761  -26.6381   21.5224 C   0  0  0  0  0  0
  -18.1925  -26.7937   22.1614 C   0  0  0  0  0  0
  -19.1549  -28.8886   23.2824 C   0  0  0  0  0  0
  -18.9482  -30.1474   23.8864 C   0  0  0  0  0  0
  -17.6489  -30.6604   24.0552 C   0  0  0  0  0  0
  -25.9079  -34.9394   23.5033 C   0  0  0  0  0  0
  -16.5369  -29.9101   23.6358 C   0  0  0  0  0  0
  -16.7277  -28.6527   23.0352 C   0  0  0  0  0  0
  -26.4529  -31.6559   25.0677 C   0  0  0  0  0  0
  -25.3706  -31.3795   26.1373 C   0  0  0  0  0  0
  -27.0408  -30.2948   24.6301 C   0  0  0  0  0  0
  -27.6024  -32.4349   25.7492 C   0  0  0  0  0  0
  -27.5555  -37.1769   24.8459 C   0  0  0  0  0  0
  -21.4262  -29.3050   22.3588 N   0  0  0  0  0  0
  -26.4268  -37.3745   23.9410 N   0  0  0  0  0  0
  -24.7242  -31.0192   22.0879 N   0  0  0  0  0  0
  -23.4202  -28.8057   23.2998 O   0  0  0  0  0  0
  -28.2604  -26.0915   20.2352 O   0  0  0  0  0  0
  -26.5676  -34.8905   22.4621 O   0  0  0  0  0  0
  -23.5580  -32.1258   23.7039 O   0  0  0  0  0  0
  -28.8604  -21.8024   20.3575 C   0  0  0  0  0  0
  -31.2589  -22.6596   21.3264 C   0  0  0  0  0  0
  -29.8107  -20.7013   20.7695 C   0  0  0  0  0  0
  -29.0690  -23.2971   20.4323 C   0  0  0  0  0  0
  -31.0324  -21.2611   21.2847 C   0  0  0  0  0  0
  -30.3447  -23.6475   20.9216 C   0  0  0  0  0  0
  -30.5826  -17.7432   20.5561 C   0  0  0  0  0  0
  -28.5047  -16.7333   20.4971 C   0  0  0  0  0  0
  -29.5673  -19.0176   20.9044 C   0  0  2  0  0  0
  -28.3044  -18.3133   20.3709 C   0  0  2  0  0  0
  -30.7812  -25.0965   21.0609 C   0  0  0  0  0  0
  -27.0070  -18.7681   21.0596 C   0  0  0  0  0  0
  -31.9336  -20.3134   23.4487 C   0  0  0  0  0  0
  -33.5800  -20.8706   21.5931 C   0  0  0  0  0  0
  -28.0236  -24.5430   20.0314 C   0  0  0  0  0  0
  -32.1419  -20.4211   21.9288 C   0  0  0  0  0  0
  -29.9311  -16.3369   20.5158 N   0  0  0  0  0  0
  -31.4563  -12.8117   19.1725 H   0  0  0  0  0  0
  -30.4389  -11.7282   20.0707 H   0  0  0  0  0  0
  -29.8511  -11.7131   17.6188 H   0  0  0  0  0  0
  -29.5717  -13.4362   17.6601 H   0  0  0  0  0  0
  -27.9804  -11.2534   19.0372 H   0  0  0  0  0  0
  -27.3817  -12.3738   17.8385 H   0  0  0  0  0  0
  -27.5484  -14.2139   19.3476 H   0  0  0  0  0  0
  -28.7890  -12.3953   21.4717 H   0  0  0  0  0  0
  -28.3469  -14.0664   21.7170 H   0  0  0  0  0  0
  -25.2758   -9.5660   22.4772 H   0  0  0  0  0  0
  -23.9988   -7.4616   22.7491 H   0  0  0  0  0  0
  -21.0839   -8.8757   19.8962 H   0  0  0  0  0  0
  -22.3697  -10.9654   19.6170 H   0  0  0  0  0  0
  -21.2006   -7.6138   23.9701 H   0  0  0  0  0  0
  -21.1479   -6.0523   25.9068 H   0  0  0  0  0  0
  -22.0609   -2.7605   23.2848 H   0  0  0  0  0  0
  -22.4050  -11.9812   22.4796 H   0  0  0  0  0  0
  -21.1045  -13.1175   22.2713 H   0  0  0  0  0  0
  -24.6431  -15.8438   20.5619 H   0  0  0  0  0  0
  -26.2628  -15.6414   20.1285 H   0  0  0  0  0  0
  -26.7276  -32.5263   23.0922 H   0  0  0  0  0  0
  -25.0051  -33.9573   25.0251 H   0  0  0  0  0  0
  -22.7598  -31.2830   21.3688 H   0  0  0  0  0  0
  -23.3753  -35.9578   23.3302 H   0  0  0  0  0  0
  -24.3566  -36.8906   22.2065 H   0  0  0  0  0  0
  -23.7237  -37.6437   23.6703 H   0  0  0  0  0  0
  -26.1622  -31.4526   20.6083 H   0  0  0  0  0  0
  -26.8832  -30.7584   22.0240 H   0  0  0  0  0  0
  -28.1328  -28.7561   21.2451 H   0  0  0  0  0  0
  -25.9078  -25.8140   19.0044 H   0  0  0  0  0  0
  -23.9808  -27.2839   18.9808 H   0  0  0  0  0  0
  -23.8146  -30.5510   19.3906 H   0  0  0  0  0  0
  -22.7957  -29.2198   19.8437 H   0  0  0  0  0  0
  -25.1306  -36.1830   25.0806 H   0  0  0  0  0  0
  -20.9970  -28.3342   24.1355 H   0  0  0  0  0  0
  -20.5701  -26.2338   23.3642 H   0  0  0  0  0  0
  -21.6639  -26.7441   22.1199 H   0  0  0  0  0  0
  -19.6945  -25.6292   21.1255 H   0  0  0  0  0  0
  -19.6723  -27.3185   20.6750 H   0  0  0  0  0  0
  -17.4204  -26.6672   21.4006 H   0  0  0  0  0  0
  -18.0305  -26.0100   22.9037 H   0  0  0  0  0  0
  -19.7976  -30.7268   24.2218 H   0  0  0  0  0  0
  -17.5067  -31.6286   24.5150 H   0  0  0  0  0  0
  -15.5372  -30.3001   23.7732 H   0  0  0  0  0  0
  -15.8659  -28.0854   22.7087 H   0  0  0  0  0  0
  -24.5876  -30.7156   25.7707 H   0  0  0  0  0  0
  -24.8911  -32.3002   26.4700 H   0  0  0  0  0  0
  -25.7960  -30.9031   27.0211 H   0  0  0  0  0  0
  -26.3044  -29.6657   24.1285 H   0  0  0  0  0  0
  -27.3989  -29.7269   25.4894 H   0  0  0  0  0  0
  -27.8954  -30.4181   23.9647 H   0  0  0  0  0  0
  -27.2577  -33.3675   26.1973 H   0  0  0  0  0  0
  -28.3884  -32.6871   25.0368 H   0  0  0  0  0  0
  -28.0625  -31.8542   26.5496 H   0  0  0  0  0  0
  -28.2551  -38.0079   24.7492 H   0  0  0  0  0  0
  -28.1054  -36.2598   24.6286 H   0  0  0  0  0  0
  -27.2261  -37.1421   25.8858 H   0  0  0  0  0  0
  -20.9476  -29.8767   21.6763 H   0  0  0  0  0  0
  -26.0124  -38.2805   24.1454 H   0  0  0  0  0  0
  -27.8969  -21.4920   19.9844 H   0  0  0  0  0  0
  -32.1866  -23.0201   21.7421 H   0  0  0  0  0  0
  -31.3745  -17.6211   21.2907 H   0  0  0  0  0  0
  -31.0607  -17.9091   19.5899 H   0  0  0  0  0  0
  -28.0045  -16.2626   19.6553 H   0  0  0  0  0  0
  -28.0418  -16.3682   21.4138 H   0  0  0  0  0  0
  -29.4694  -18.9441   21.9885 H   0  0  0  0  0  0
  -28.2325  -18.5586   19.3097 H   0  0  0  0  0  0
  -31.7953  -25.1819   21.4508 H   0  0  0  0  0  0
  -30.1281  -25.6320   21.7504 H   0  0  0  0  0  0
  -30.7673  -25.5944   20.0907 H   0  0  0  0  0  0
  -27.0184  -18.5328   22.1242 H   0  0  0  0  0  0
  -26.1381  -18.2762   20.6238 H   0  0  0  0  0  0
  -26.8485  -19.8410   20.9732 H   0  0  0  0  0  0
  -30.9583  -19.8891   23.6899 H   0  0  0  0  0  0
  -31.9934  -21.2890   23.9323 H   0  0  0  0  0  0
  -32.6893  -19.6748   23.9061 H   0  0  0  0  0  0
  -33.7144  -21.0036   20.5181 H   0  0  0  0  0  0
  -34.2968  -20.1147   21.9161 H   0  0  0  0  0  0
  -33.8704  -21.7945   22.0913 H   0  0  0  0  0  0
  -27.0797  -24.2988   20.5184 H   0  0  0  0  0  0
  -27.8298  -24.4135   18.9658 H   0  0  0  0  0  0
  -32.1126  -19.4397   21.5069 H   0  0  0  0  0  0
  1 25  1  0  0  0
  1 30  2  0  0  0
  1 87  1  0  0  0
  2  3  1  0  0  0
  2 25  1  0  0  0
  2 88  1  0  0  0
  2 89  1  0  0  0
  3  4  1  0  0  0
  3 90  1  0  0  0
  3 91  1  0  0  0
  4  5  1  0  0  0
  4 92  1  0  0  0
  4 93  1  0  0  0
  5  6  1  0  0  0
  5 26  1  0  0  0
  5 94  1  0  0  0
  6 25  1  0  0  0
  6 95  1  0  0  0
  6 96  1  0  0  0
  7  8  2  0  0  0
  7 26  1  0  0  0
  7 29  1  0  0  0
  8  9  1  0  0  0
  8 22  1  0  0  0
  9 10  1  0  0  0
  9 27  2  0  0  0
 10 11  2  0  0  0
 10 15  1  0  0  0
 11 12  1  0  0  0
 11 97  1  0  0  0
 12 13  2  0  0  0
 12 98  1  0  0  0
 13 14  1  0  0  0
 13 31  1  0  0  0
 14 15  2  0  0  0
 14 99  1  0  0  0
 15100  1  0  0  0
 16 17  2  0  0  0
 16 21  1  0  0  0
 16 31  1  0  0  0
 17 18  1  0  0  0
 17101  1  0  0  0
 18 19  2  0  0  0
 18102  1  0  0  0
 19 20  1  0  0  0
 19 24  1  0  0  0
 20 21  2  0  0  0
 20103  1  0  0  0
 21 23  1  0  0  0
 22 28  1  0  0  0
 22 32  2  0  0  0
 26 27  1  0  0  0
 28104  1  0  0  0
 28105  1  0  0  0
 29106  1  0  0  0
 29107  1  0  0  0
 33 34  1  0  0  0
 33 66  1  0  0  0
 33 70  2  0  0  0
 34 36  1  0  0  0
 34 59  1  0  0  0
 34108  1  0  0  0
 35 44  2  0  0  0
 35 45  1  0  0  0
 35 68  1  0  0  0
 36 56  1  0  0  0
 36109  1  0  0  0
 37 39  1  0  0  0
 37 47  1  0  0  0
 37 66  1  0  0  0
 37110  1  0  0  0
 38 43  2  0  0  0
 38 46  1  0  0  0
 38 47  1  0  0  0
 39 64  1  0  0  0
 39 67  2  0  0  0
 40 52  1  0  0  0
 40 53  2  0  0  0
 40 58  1  0  0  0
 41111  1  0  0  0
 41112  1  0  0  0
 41113  1  0  0  0
 41 48  1  0  0  0
 42 43  1  0  0  0
 42 66  1  0  0  0
 42114  1  0  0  0
 42115  1  0  0  0
 43 44  1  0  0  0
 44116  1  0  0  0
 45 46  2  0  0  0
 45117  1  0  0  0
 46118  1  0  0  0
 47119  1  0  0  0
 47120  1  0  0  0
 48 56  1  0  0  0
 48 65  1  0  0  0
 48121  1  0  0  0
 49 50  1  0  0  0
 49 53  1  0  0  0
 49 64  1  0  0  0
 49122  1  0  0  0
 50 51  1  0  0  0
 50123  1  0  0  0
 50124  1  0  0  0
 51 52  1  0  0  0
 51125  1  0  0  0
 51126  1  0  0  0
 52127  1  0  0  0
 52128  1  0  0  0
 53 54  1  0  0  0
 54 55  2  0  0  0
 54129  1  0  0  0
 55 57  1  0  0  0
 55130  1  0  0  0
 56 69  2  0  0  0
 57 58  2  0  0  0
 57131  1  0  0  0
 58132  1  0  0  0
 59 60  1  0  0  0
 59 61  1  0  0  0
 59 62  1  0  0  0
 60133  1  0  0  0
 60134  1  0  0  0
 60135  1  0  0  0
 61136  1  0  0  0
 61137  1  0  0  0
 61138  1  0  0  0
 62139  1  0  0  0
 62140  1  0  0  0
 62141  1  0  0  0
 63 65  1  0  0  0
 63142  1  0  0  0
 63143  1  0  0  0
 63144  1  0  0  0
 64145  1  0  0  0
 65146  1  0  0  0
 68 85  1  0  0  0
 71 73  2  0  0  0
 71 74  1  0  0  0
 71147  1  0  0  0
 72 75  2  0  0  0
 72 76  1  0  0  0
 72148  1  0  0  0
 73 75  1  0  0  0
 73 79  1  0  0  0
 74 76  2  0  0  0
 74 85  1  0  0  0
 75 86  1  0  0  0
 76 81  1  0  0  0
 77 79  1  0  0  0
 77 87  1  0  0  0
 77149  1  0  0  0
 77150  1  0  0  0
 78 80  1  0  0  0
 78 87  1  0  0  0
 78151  1  0  0  0
 78152  1  0  0  0
 79 80  1  0  0  0
 79153  1  0  0  0
 80 82  1  0  0  0
 80154  1  0  0  0
 81155  1  0  0  0
 81156  1  0  0  0
 81157  1  0  0  0
 82158  1  0  0  0
 82159  1  0  0  0
 82160  1  0  0  0
 83161  1  0  0  0
 83162  1  0  0  0
 83163  1  0  0  0
 83 86  1  0  0  0
 84 86  1  0  0  0
 84164  1  0  0  0
 84165  1  0  0  0
 84166  1  0  0  0
 85167  1  0  0  0
 85168  1  0  0  0
 86169  1  0  0  0
M  ISO  4   1 100  68 101  85 101  87 100
M  END
> <chiral flag>
0

> <version>
0

> <s_m_source_file>
/data/baiqing/PycharmProjects/Reinvent-master-3.2/result/LINK_invent/BTK/process_docking_weight1_custom_sum_contain_oxygen_bond_distance_aromatic_linkinvent_7_9_3/rearranged_h_0163.sdf

> <i_m_source_file_index>
79

> <r_mmod_Potential_Energy-OPLS-2005>
861.828369140625

> <r_mmod_Stretch_Energy-OPLS-2005>
322.489013671875

> <r_mmod_Bend_Energy-OPLS-2005>
341.537994384766

> <r_mmod_Torsional_Energy-OPLS-2005>
318.059265136719

> <r_mmod_Improper_Torsional_Energy-OPLS-2005>
5.18899536132812

> <r_mmod_Van_der_Waal_Energy-OPLS-2005>
140.39990234375

> <r_mmod_Electrostatic_Energy-OPLS-2005>
-316.335327148438

> <r_mmod_Solvation_Energy-OPLS-2005>
-194.439682006836

> <b_mmod_Minimization_Converged-OPLS-2005>
0

> <r_mmod_RMS_Derivative-OPLS-2005>
2.13552141189575

$$$$
79
                    3D
 Structure written by MMmdl.
166176  0  0  1  0            999 V2000
  -30.6446  -14.8805   20.4473 C   0  0  0  0  0  0
  -30.4109  -12.5577   19.4899 C   0  0  0  0  0  0
  -29.5003  -12.5038   18.2470 C   0  0  0  0  0  0
  -28.0374  -12.2908   18.6705 C   0  0  0  0  0  0
  -27.6176  -13.2326   19.8262 C   0  0  2  0  0  0
  -28.6636  -13.3002   20.9634 C   0  0  0  0  0  0
  -25.2411  -13.8179   20.5704 C   0  0  0  0  0  0
  -24.1735  -13.0418   20.9249 C   0  0  0  0  0  0
  -24.6333  -11.6905   20.8798 C   0  0  0  0  0  0
  -23.9032  -10.4284   21.0445 C   0  0  0  0  0  0
  -24.3605   -9.4199   21.9204 C   0  0  0  0  0  0
  -23.6296   -8.2226   22.0768 C   0  0  0  0  0  0
  -22.4273   -8.0266   21.3557 C   0  0  0  0  0  0
  -21.9892   -9.0234   20.4654 C   0  0  0  0  0  0
  -22.7213  -10.2121   20.3073 C   0  0  0  0  0  0
  -21.6862   -6.0727   22.5284 C   0  0  0  0  0  0
  -21.4013   -6.5639   23.8212 C   0  0  0  0  0  0
  -21.3658   -5.6798   24.9175 C   0  0  0  0  0  0
  -21.6036   -4.3064   24.7229 C   0  0  0  0  0  0
  -21.8822   -3.8149   23.4355 C   0  0  0  0  0  0
  -21.9198   -4.6955   22.3404 C   0  0  0  0  0  0
  -22.7754  -13.5207   21.1907 C   0  0  0  0  0  0
  -22.1654   -4.2136   21.0981 F   0  0  0  0  0  0
  -21.5634   -3.4548   25.7743 F   0  0  0  0  0  0
  -29.9393  -13.6841   20.3484 N   0  0  0  0  0  0
  -26.2813  -12.9385   20.3228 N   0  0  0  0  0  0
  -25.9259  -11.6539   20.5778 N   0  0  0  0  0  0
  -22.0417  -12.8188   22.0471 N   0  0  0  0  0  0
  -25.4054  -15.1903   20.4108 N   0  0  0  0  0  0
  -31.8535  -14.8079   20.1969 O   0  0  0  0  0  0
  -21.6646   -6.8864   21.4243 O   0  0  0  0  0  0
  -22.3442  -14.5500   20.6739 O   0  0  0  0  0  0
  -24.6403  -31.8483   23.1922 C   0  0  0  0  0  0
  -25.9184  -32.4721   23.8312 C   0  0  1  0  0  0
  -27.2072  -27.1787   20.1456 C   0  0  0  0  0  0
  -25.5944  -33.8526   24.2230 N   0  0  0  0  0  0
  -23.4420  -30.4715   21.5375 C   0  0  2  0  0  0
  -24.8882  -28.9063   20.1153 C   0  0  0  0  0  0
  -22.7554  -29.4574   22.4874 C   0  0  0  0  0  0
  -18.0296  -28.1399   22.8487 C   0  0  0  0  0  0
  -24.1495  -36.7255   23.2653 C   0  0  0  0  0  0
  -25.9963  -30.7414   21.3786 C   0  0  0  0  0  0
  -26.0684  -29.3562   20.7219 C   0  0  0  0  0  0
  -27.2358  -28.5105   20.7123 C   0  0  0  0  0  0
  -25.9981  -26.8153   19.5194 C   0  0  0  0  0  0
  -24.8627  -27.6484   19.4988 C   0  0  0  0  0  0
  -23.6650  -29.8047   20.1554 C   0  0  0  0  0  0
  -25.4118  -36.3043   24.0328 C   0  0  1  0  0  0
  -20.5912  -28.3713   23.1253 C   0  0  2  0  0  0
  -20.6781  -26.9419   22.5418 C   0  0  0  0  0  0
  -19.5756  -26.6389   21.5229 C   0  0  0  0  0  0
  -18.1937  -26.7940   22.1636 C   0  0  0  0  0  0
  -19.1553  -28.8874   23.2867 C   0  0  0  0  0  0
  -18.9469  -30.1472   23.8895 C   0  0  0  0  0  0
  -17.6466  -30.6597   24.0558 C   0  0  0  0  0  0
  -25.9071  -34.9416   23.5081 C   0  0  0  0  0  0
  -16.5356  -29.9089   23.6340 C   0  0  0  0  0  0
  -16.7281  -28.6509   23.0363 C   0  0  0  0  0  0
  -26.4522  -31.6564   25.0728 C   0  0  0  0  0  0
  -25.3729  -31.3686   26.1427 C   0  0  0  0  0  0
  -27.0377  -30.2972   24.6262 C   0  0  0  0  0  0
  -27.6074  -32.4300   25.7491 C   0  0  0  0  0  0
  -27.5566  -37.1786   24.8467 C   0  0  0  0  0  0
  -21.4250  -29.3055   22.3626 N   0  0  0  0  0  0
  -26.4274  -37.3755   23.9424 N   0  0  0  0  0  0
  -24.7137  -31.0391   22.0929 N   0  0  0  0  0  0
  -23.4221  -28.8101   23.2988 O   0  0  0  0  0  0
  -28.2595  -26.2100   20.1647 O   0  0  0  0  0  0
  -26.5653  -34.8906   22.4658 O   0  0  0  0  0  0
  -23.5526  -32.1315   23.7173 O   0  0  0  0  0  0
  -29.1515  -20.0537   17.8838 C   0  0  0  0  0  0
  -29.0029  -20.6279   19.1685 C   0  0  0  0  0  0
  -28.6368  -22.0998   19.1910 C   0  0  0  0  0  0
  -28.3665  -22.6582   17.8881 C   0  0  0  0  0  0
  -28.5617  -21.9113   16.7040 C   0  0  0  0  0  0
  -28.3242  -18.1513   20.1239 C   0  0  0  0  0  0
  -30.6850  -18.7403   20.1703 C   0  0  0  0  0  0
  -29.3934  -24.2753   20.6885 C   0  0  0  0  0  0
  -28.6909  -16.7181   20.7789 C   0  0  0  0  0  0
  -30.9335  -17.3848   20.9693 C   0  0  0  0  0  0
  -29.2657  -19.4417   20.2657 C   0  0  0  0  0  0
  -28.4591  -23.1604   20.4042 C   0  0  1  0  0  0
  -27.9388  -24.7549   20.5654 C   0  0  2  0  0  0
  -27.7993  -24.0654   17.7203 C   0  0  0  0  0  0
  -28.3157  -22.4639   15.3080 C   0  0  0  0  0  0
  -28.9650  -20.6471   16.7074 N   0  0  0  0  0  0
  -30.0854  -16.1854   20.6370 N   0  0  0  0  0  0
  -31.4484  -12.6684   19.1717 H   0  0  0  0  0  0
  -30.3763  -11.6146   20.0376 H   0  0  0  0  0  0
  -29.8169  -11.7015   17.5800 H   0  0  0  0  0  0
  -29.5941  -13.4324   17.6816 H   0  0  0  0  0  0
  -27.9320  -11.2508   18.9832 H   0  0  0  0  0  0
  -27.3704  -12.4170   17.8169 H   0  0  0  0  0  0
  -27.5638  -14.2086   19.3520 H   0  0  0  0  0  0
  -28.7458  -12.3431   21.4818 H   0  0  0  0  0  0
  -28.3721  -14.0340   21.7155 H   0  0  0  0  0  0
  -25.2743   -9.5675   22.4791 H   0  0  0  0  0  0
  -24.0015   -7.4603   22.7469 H   0  0  0  0  0  0
  -21.0830   -8.8723   19.8955 H   0  0  0  0  0  0
  -22.3651  -10.9658   19.6193 H   0  0  0  0  0  0
  -21.1995   -7.6143   23.9712 H   0  0  0  0  0  0
  -21.1483   -6.0527   25.9079 H   0  0  0  0  0  0
  -22.0601   -2.7610   23.2858 H   0  0  0  0  0  0
  -22.4045  -11.9845   22.4840 H   0  0  0  0  0  0
  -21.1027  -13.1195   22.2689 H   0  0  0  0  0  0
  -24.6429  -15.8450   20.5466 H   0  0  0  0  0  0
  -26.2528  -15.6348   20.0872 H   0  0  0  0  0  0
  -26.7259  -32.5329   23.1056 H   0  0  0  0  0  0
  -25.0061  -33.9628   25.0355 H   0  0  0  0  0  0
  -22.7453  -31.2977   21.3856 H   0  0  0  0  0  0
  -23.3759  -35.9584   23.3292 H   0  0  0  0  0  0
  -24.3615  -36.8910   22.2084 H   0  0  0  0  0  0
  -23.7244  -37.6444   23.6695 H   0  0  0  0  0  0
  -26.1426  -31.4986   20.6065 H   0  0  0  0  0  0
  -26.8716  -30.7933   22.0151 H   0  0  0  0  0  0
  -28.1433  -28.8528   21.1897 H   0  0  0  0  0  0
  -25.9015  -25.8494   19.0543 H   0  0  0  0  0  0
  -23.9589  -27.2999   19.0198 H   0  0  0  0  0  0
  -23.7977  -30.5801   19.4007 H   0  0  0  0  0  0
  -22.7814  -29.2464   19.8434 H   0  0  0  0  0  0
  -25.1305  -36.1888   25.0822 H   0  0  0  0  0  0
  -21.0008  -28.3301   24.1375 H   0  0  0  0  0  0
  -20.5689  -26.2329   23.3637 H   0  0  0  0  0  0
  -21.6640  -26.7432   22.1210 H   0  0  0  0  0  0
  -19.6906  -25.6303   21.1261 H   0  0  0  0  0  0
  -19.6687  -27.3198   20.6762 H   0  0  0  0  0  0
  -17.4208  -26.6698   21.4041 H   0  0  0  0  0  0
  -18.0314  -26.0080   22.9031 H   0  0  0  0  0  0
  -19.7934  -30.7285   24.2284 H   0  0  0  0  0  0
  -17.5008  -31.6277   24.5152 H   0  0  0  0  0  0
  -15.5352  -30.2985   23.7673 H   0  0  0  0  0  0
  -15.8680  -28.0820   22.7097 H   0  0  0  0  0  0
  -24.5969  -30.6965   25.7743 H   0  0  0  0  0  0
  -24.8836  -32.2823   26.4811 H   0  0  0  0  0  0
  -25.8045  -30.8914   27.0236 H   0  0  0  0  0  0
  -26.2975  -29.6707   24.1278 H   0  0  0  0  0  0
  -27.4021  -29.7260   25.4815 H   0  0  0  0  0  0
  -27.8870  -30.4232   23.9540 H   0  0  0  0  0  0
  -27.2715  -33.3642   26.1997 H   0  0  0  0  0  0
  -28.3906  -32.6791   25.0317 H   0  0  0  0  0  0
  -28.0712  -31.8465   26.5458 H   0  0  0  0  0  0
  -28.2561  -38.0105   24.7518 H   0  0  0  0  0  0
  -28.1072  -36.2626   24.6265 H   0  0  0  0  0  0
  -27.2281  -37.1396   25.8870 H   0  0  0  0  0  0
  -20.9447  -29.8782   21.6827 H   0  0  0  0  0  0
  -26.0133  -38.2817   24.1441 H   0  0  0  0  0  0
  -29.4266  -19.0204   17.7530 H   0  0  0  0  0  0
  -27.3263  -18.4304   20.4651 H   0  0  0  0  0  0
  -28.1844  -17.9242   19.0695 H   0  0  0  0  0  0
  -30.9315  -18.5019   19.1372 H   0  0  0  0  0  0
  -31.4440  -19.4632   20.4704 H   0  0  0  0  0  0
  -30.0755  -24.5382   19.8828 H   0  0  0  0  0  0
  -29.8377  -24.3164   21.6805 H   0  0  0  0  0  0
  -28.0026  -15.9926   20.3697 H   0  0  0  0  0  0
  -28.4594  -16.7550   21.8445 H   0  0  0  0  0  0
  -30.8051  -17.5887   22.0337 H   0  0  0  0  0  0
  -31.9920  -17.1412   20.8716 H   0  0  0  0  0  0
  -29.1447  -19.8595   21.2654 H   0  0  0  0  0  0
  -28.1773  -22.5461   21.2568 H   0  0  0  0  0  0
  -27.3549  -24.8571   21.4789 H   0  0  0  0  0  0
  -26.8978  -24.1453   18.3207 H   0  0  0  0  0  0
  -27.4747  -24.3227   16.7155 H   0  0  0  0  0  0
  -28.5257  -24.8263   18.0033 H   0  0  0  0  0  0
  -28.8876  -23.3772   15.1440 H   0  0  0  0  0  0
  -27.2569  -22.6801   15.1592 H   0  0  0  0  0  0
  -28.6123  -21.7532   14.5353 H   0  0  0  0  0  0
  1 25  1  0  0  0
  1 30  2  0  0  0
  1 87  1  0  0  0
  2  3  1  0  0  0
  2 25  1  0  0  0
  2 88  1  0  0  0
  2 89  1  0  0  0
  3  4  1  0  0  0
  3 90  1  0  0  0
  3 91  1  0  0  0
  4  5  1  0  0  0
  4 92  1  0  0  0
  4 93  1  0  0  0
  5  6  1  0  0  0
  5 26  1  0  0  0
  5 94  1  0  0  0
  6 25  1  0  0  0
  6 95  1  0  0  0
  6 96  1  0  0  0
  7  8  2  0  0  0
  7 26  1  0  0  0
  7 29  1  0  0  0
  8  9  1  0  0  0
  8 22  1  0  0  0
  9 10  1  0  0  0
  9 27  2  0  0  0
 10 11  2  0  0  0
 10 15  1  0  0  0
 11 12  1  0  0  0
 11 97  1  0  0  0
 12 13  2  0  0  0
 12 98  1  0  0  0
 13 14  1  0  0  0
 13 31  1  0  0  0
 14 15  2  0  0  0
 14 99  1  0  0  0
 15100  1  0  0  0
 16 17  2  0  0  0
 16 21  1  0  0  0
 16 31  1  0  0  0
 17 18  1  0  0  0
 17101  1  0  0  0
 18 19  2  0  0  0
 18102  1  0  0  0
 19 20  1  0  0  0
 19 24  1  0  0  0
 20 21  2  0  0  0
 20103  1  0  0  0
 21 23  1  0  0  0
 22 28  1  0  0  0
 22 32  2  0  0  0
 26 27  1  0  0  0
 28104  1  0  0  0
 28105  1  0  0  0
 29106  1  0  0  0
 29107  1  0  0  0
 33 34  1  0  0  0
 33 66  1  0  0  0
 33 70  2  0  0  0
 34 36  1  0  0  0
 34 59  1  0  0  0
 34108  1  0  0  0
 35 44  2  0  0  0
 35 45  1  0  0  0
 35 68  1  0  0  0
 36 56  1  0  0  0
 36109  1  0  0  0
 37 39  1  0  0  0
 37 47  1  0  0  0
 37 66  1  0  0  0
 37110  1  0  0  0
 38 43  2  0  0  0
 38 46  1  0  0  0
 38 47  1  0  0  0
 39 64  1  0  0  0
 39 67  2  0  0  0
 40 52  1  0  0  0
 40 53  2  0  0  0
 40 58  1  0  0  0
 41111  1  0  0  0
 41112  1  0  0  0
 41113  1  0  0  0
 41 48  1  0  0  0
 42 43  1  0  0  0
 42 66  1  0  0  0
 42114  1  0  0  0
 42115  1  0  0  0
 43 44  1  0  0  0
 44116  1  0  0  0
 45 46  2  0  0  0
 45117  1  0  0  0
 46118  1  0  0  0
 47119  1  0  0  0
 47120  1  0  0  0
 48 56  1  0  0  0
 48 65  1  0  0  0
 48121  1  0  0  0
 49 50  1  0  0  0
 49 53  1  0  0  0
 49 64  1  0  0  0
 49122  1  0  0  0
 50 51  1  0  0  0
 50123  1  0  0  0
 50124  1  0  0  0
 51 52  1  0  0  0
 51125  1  0  0  0
 51126  1  0  0  0
 52127  1  0  0  0
 52128  1  0  0  0
 53 54  1  0  0  0
 54 55  2  0  0  0
 54129  1  0  0  0
 55 57  1  0  0  0
 55130  1  0  0  0
 56 69  2  0  0  0
 57 58  2  0  0  0
 57131  1  0  0  0
 58132  1  0  0  0
 59 60  1  0  0  0
 59 61  1  0  0  0
 59 62  1  0  0  0
 60133  1  0  0  0
 60134  1  0  0  0
 60135  1  0  0  0
 61136  1  0  0  0
 61137  1  0  0  0
 61138  1  0  0  0
 62139  1  0  0  0
 62140  1  0  0  0
 62141  1  0  0  0
 63 65  1  0  0  0
 63142  1  0  0  0
 63143  1  0  0  0
 63144  1  0  0  0
 64145  1  0  0  0
 65146  1  0  0  0
 68 83  1  0  0  0
 71 72  2  0  0  0
 71 86  1  0  0  0
 71147  1  0  0  0
 72 73  1  0  0  0
 72 81  1  0  0  0
 73 74  2  0  0  0
 73 82  1  0  0  0
 74 75  1  0  0  0
 74 84  1  0  0  0
 75 85  1  0  0  0
 75 86  2  0  0  0
 76 79  1  0  0  0
 76 81  1  0  0  0
 76148  1  0  0  0
 76149  1  0  0  0
 77 80  1  0  0  0
 77 81  1  0  0  0
 77150  1  0  0  0
 77151  1  0  0  0
 78 82  1  0  0  0
 78 83  1  0  0  0
 78152  1  0  0  0
 78153  1  0  0  0
 79 87  1  0  0  0
 79154  1  0  0  0
 79155  1  0  0  0
 80 87  1  0  0  0
 80156  1  0  0  0
 80157  1  0  0  0
 81158  1  0  0  0
 82 83  1  0  0  0
 82159  1  0  0  0
 83160  1  0  0  0
 84161  1  0  0  0
 84162  1  0  0  0
 84163  1  0  0  0
 85164  1  0  0  0
 85165  1  0  0  0
 85166  1  0  0  0
M  ISO  4   1 100  68 101  83 101  87 100
M  END
> <chiral flag>
0

> <version>
0

> <s_m_source_file>
/data/baiqing/PycharmProjects/Reinvent-master-3.2/result/LINK_invent/BTK/process_docking_weight1_custom_sum_contain_oxygen_bond_distance_aromatic_linkinvent_7_9_3/rearranged_h_0163.sdf

> <i_m_source_file_index>
80

> <r_mmod_Potential_Energy-OPLS-2005>
639.385681152344

> <r_mmod_Stretch_Energy-OPLS-2005>
238.544860839844

> <r_mmod_Bend_Energy-OPLS-2005>
386.980499267578

> <r_mmod_Torsional_Energy-OPLS-2005>
331.125549316406

> <r_mmod_Improper_Torsional_Energy-OPLS-2005>
3.63540053367615

> <r_mmod_Van_der_Waal_Energy-OPLS-2005>
169.347152709961

> <r_mmod_Electrostatic_Energy-OPLS-2005>
-424.99365234375

> <r_mmod_Solvation_Energy-OPLS-2005>
-220.716705322266

> <b_mmod_Minimization_Converged-OPLS-2005>
0

> <r_mmod_RMS_Derivative-OPLS-2005>
2.38681817054749

$$$$
80
                    3D
 Structure written by MMmdl.
158168  0  0  1  0            999 V2000
  -30.4782  -15.0523   20.4102 C   0  0  0  0  0  0
  -30.4495  -12.6587   19.4990 C   0  0  0  0  0  0
  -29.5264  -12.5319   18.2632 C   0  0  0  0  0  0
  -28.0642  -12.2965   18.6900 C   0  0  0  0  0  0
  -27.6238  -13.2474   19.8327 C   0  0  2  0  0  0
  -28.6671  -13.3155   20.9667 C   0  0  0  0  0  0
  -25.2446  -13.8209   20.5718 C   0  0  0  0  0  0
  -24.1770  -13.0430   20.9239 C   0  0  0  0  0  0
  -24.6385  -11.6913   20.8765 C   0  0  0  0  0  0
  -23.9073  -10.4278   21.0406 C   0  0  0  0  0  0
  -24.3613   -9.4194   21.9182 C   0  0  0  0  0  0
  -23.6286   -8.2230   22.0755 C   0  0  0  0  0  0
  -22.4267   -8.0270   21.3546 C   0  0  0  0  0  0
  -21.9906   -9.0248   20.4644 C   0  0  0  0  0  0
  -22.7243  -10.2124   20.3056 C   0  0  0  0  0  0
  -21.6856   -6.0721   22.5275 C   0  0  0  0  0  0
  -21.4016   -6.5626   23.8206 C   0  0  0  0  0  0
  -21.3656   -5.6781   24.9170 C   0  0  0  0  0  0
  -21.6052   -4.3046   24.7224 C   0  0  0  0  0  0
  -21.8819   -3.8134   23.4345 C   0  0  0  0  0  0
  -21.9195   -4.6950   22.3400 C   0  0  0  0  0  0
  -22.7789  -13.5196   21.1896 C   0  0  0  0  0  0
  -22.1663   -4.2133   21.0976 F   0  0  0  0  0  0
  -21.5630   -3.4532   25.7740 F   0  0  0  0  0  0
  -29.9222  -13.7667   20.3501 N   0  0  0  0  0  0
  -26.2865  -12.9434   20.3236 N   0  0  0  0  0  0
  -25.9314  -11.6571   20.5744 N   0  0  0  0  0  0
  -22.0440  -12.8183   22.0446 N   0  0  0  0  0  0
  -25.4071  -15.1937   20.4102 N   0  0  0  0  0  0
  -31.6991  -15.1247   20.2229 O   0  0  0  0  0  0
  -21.6644   -6.8863   21.4232 O   0  0  0  0  0  0
  -22.3466  -14.5491   20.6729 O   0  0  0  0  0  0
  -24.6497  -31.8359   23.1814 C   0  0  0  0  0  0
  -25.9234  -32.4665   23.8232 C   0  0  1  0  0  0
  -27.2174  -27.0714   20.1707 C   0  0  0  0  0  0
  -25.5946  -33.8467   24.2131 N   0  0  0  0  0  0
  -23.4590  -30.4534   21.5249 C   0  0  2  0  0  0
  -24.9100  -28.8658   20.1141 C   0  0  0  0  0  0
  -22.7607  -29.4505   22.4793 C   0  0  0  0  0  0
  -18.0318  -28.1415   22.8490 C   0  0  0  0  0  0
  -24.1473  -36.7226   23.2650 C   0  0  0  0  0  0
  -26.0197  -30.6920   21.3893 C   0  0  0  0  0  0
  -26.0904  -29.2961   20.7337 C   0  0  0  0  0  0
  -27.2469  -28.4180   20.7361 C   0  0  0  0  0  0
  -26.0100  -26.7549   19.5171 C   0  0  0  0  0  0
  -24.8856  -27.6115   19.4873 C   0  0  0  0  0  0
  -23.6919  -29.7767   20.1471 C   0  0  0  0  0  0
  -25.4112  -36.3003   24.0315 C   0  0  1  0  0  0
  -20.5950  -28.3730   23.1211 C   0  0  2  0  0  0
  -20.6793  -26.9427   22.5389 C   0  0  0  0  0  0
  -19.5759  -26.6394   21.5209 C   0  0  0  0  0  0
  -18.1946  -26.7958   22.1632 C   0  0  0  0  0  0
  -19.1586  -28.8894   23.2845 C   0  0  0  0  0  0
  -18.9502  -30.1491   23.8877 C   0  0  0  0  0  0
  -17.6497  -30.6612   24.0570 C   0  0  0  0  0  0
  -25.9070  -34.9391   23.5037 C   0  0  0  0  0  0
  -16.5389  -29.9112   23.6345 C   0  0  0  0  0  0
  -16.7303  -28.6531   23.0372 C   0  0  0  0  0  0
  -26.4531  -31.6565   25.0709 C   0  0  0  0  0  0
  -25.3699  -31.3789   26.1390 C   0  0  0  0  0  0
  -27.0393  -30.2953   24.6349 C   0  0  0  0  0  0
  -27.6051  -32.4342   25.7489 C   0  0  0  0  0  0
  -27.5550  -37.1759   24.8474 C   0  0  0  0  0  0
  -21.4293  -29.3051   22.3570 N   0  0  0  0  0  0
  -26.4257  -37.3735   23.9429 N   0  0  0  0  0  0
  -24.7298  -31.0165   22.0868 N   0  0  0  0  0  0
  -23.4217  -28.8050   23.2962 O   0  0  0  0  0  0
  -28.2602  -26.0533   20.1841 O   0  0  0  0  0  0
  -26.5679  -34.8921   22.4629 O   0  0  0  0  0  0
  -23.5597  -32.1236   23.7000 O   0  0  0  0  0  0
  -29.5194  -18.2551   21.9999 C   0  0  0  0  0  0
  -29.3807  -19.6467   21.9185 C   0  0  0  0  0  0
  -29.6625  -17.7392   20.6685 C   0  0  0  0  0  0
  -30.5627  -21.2317   23.6105 C   0  0  0  0  0  0
  -29.5708  -20.4817   24.4691 C   0  0  0  0  0  0
  -27.9992  -23.8924   19.2777 C   0  0  0  0  0  0
  -29.2935  -20.6936   22.9948 C   0  0  0  0  0  0
  -28.1953  -22.8501   20.3237 C   0  0  2  0  0  0
  -28.0239  -24.5527   20.6471 C   0  0  1  0  0  0
  -29.4948  -17.4175   23.2520 C   0  0  0  0  0  0
  -29.3249  -21.6152   20.0598 C   0  0  0  0  0  0
  -29.5055  -18.8694   19.8428 N   0  0  0  0  0  0
  -29.3176  -20.0868   20.5938 N   0  0  0  0  0  0
  -29.6203  -16.2109   20.3778 N   0  0  0  0  0  0
  -31.4725  -12.8563   19.1772 H   0  0  0  0  0  0
  -30.4880  -11.7226   20.0584 H   0  0  0  0  0  0
  -29.8646  -11.7193   17.6197 H   0  0  0  0  0  0
  -29.5908  -13.4418   17.6650 H   0  0  0  0  0  0
  -27.9869  -11.2624   19.0281 H   0  0  0  0  0  0
  -27.3953  -12.3864   17.8326 H   0  0  0  0  0  0
  -27.5690  -14.2367   19.3781 H   0  0  0  0  0  0
  -28.7871  -12.3481   21.4572 H   0  0  0  0  0  0
  -28.3508  -14.0211   21.7373 H   0  0  0  0  0  0
  -25.2752   -9.5673   22.4768 H   0  0  0  0  0  0
  -23.9994   -7.4616   22.7475 H   0  0  0  0  0  0
  -21.0842   -8.8756   19.8943 H   0  0  0  0  0  0
  -22.3691  -10.9658   19.6164 H   0  0  0  0  0  0
  -21.2001   -7.6136   23.9701 H   0  0  0  0  0  0
  -21.1490   -6.0516   25.9073 H   0  0  0  0  0  0
  -22.0601   -2.7596   23.2853 H   0  0  0  0  0  0
  -22.4071  -11.9845   22.4835 H   0  0  0  0  0  0
  -21.1049  -13.1193   22.2655 H   0  0  0  0  0  0
  -24.6274  -15.8344   20.5187 H   0  0  0  0  0  0
  -26.2259  -15.6368   20.0168 H   0  0  0  0  0  0
  -26.7295  -32.5253   23.0952 H   0  0  0  0  0  0
  -25.0065  -33.9557   25.0271 H   0  0  0  0  0  0
  -22.7672  -31.2813   21.3589 H   0  0  0  0  0  0
  -23.3750  -35.9541   23.3309 H   0  0  0  0  0  0
  -24.3547  -36.8869   22.2061 H   0  0  0  0  0  0
  -23.7210  -37.6412   23.6697 H   0  0  0  0  0  0
  -26.1859  -31.4434   20.6163 H   0  0  0  0  0  0
  -26.8864  -30.7449   22.0366 H   0  0  0  0  0  0
  -28.1485  -28.7504   21.2332 H   0  0  0  0  0  0
  -25.9119  -25.7952   19.0335 H   0  0  0  0  0  0
  -23.9872  -27.2793   18.9872 H   0  0  0  0  0  0
  -23.8435  -30.5441   19.3870 H   0  0  0  0  0  0
  -22.8061  -29.2239   19.8296 H   0  0  0  0  0  0
  -25.1304  -36.1796   25.0804 H   0  0  0  0  0  0
  -21.0058  -28.3318   24.1319 H   0  0  0  0  0  0
  -20.5678  -26.2345   23.3613 H   0  0  0  0  0  0
  -21.6656  -26.7417   22.1189 H   0  0  0  0  0  0
  -19.6908  -25.6296   21.1253 H   0  0  0  0  0  0
  -19.6695  -27.3199   20.6737 H   0  0  0  0  0  0
  -17.4209  -26.6709   21.4041 H   0  0  0  0  0  0
  -18.0343  -26.0112   22.9040 H   0  0  0  0  0  0
  -19.7979  -30.7309   24.2233 H   0  0  0  0  0  0
  -17.5064  -31.6296   24.5171 H   0  0  0  0  0  0
  -15.5395  -30.3023   23.7679 H   0  0  0  0  0  0
  -15.8695  -28.0841   22.7102 H   0  0  0  0  0  0
  -24.5897  -30.7112   25.7704 H   0  0  0  0  0  0
  -24.8860  -32.2974   26.4708 H   0  0  0  0  0  0
  -25.7962  -30.9026   27.0224 H   0  0  0  0  0  0
  -26.3006  -29.6672   24.1342 H   0  0  0  0  0  0
  -27.3973  -29.7273   25.4941 H   0  0  0  0  0  0
  -27.8944  -30.4189   23.9707 H   0  0  0  0  0  0
  -27.2647  -33.3688   26.1969 H   0  0  0  0  0  0
  -28.3906  -32.6834   25.0337 H   0  0  0  0  0  0
  -28.0680  -31.8531   26.5471 H   0  0  0  0  0  0
  -28.2572  -38.0051   24.7516 H   0  0  0  0  0  0
  -28.1043  -36.2580   24.6304 H   0  0  0  0  0  0
  -27.2278  -37.1414   25.8882 H   0  0  0  0  0  0
  -20.9515  -29.8763   21.6743 H   0  0  0  0  0  0
  -26.0115  -38.2792   24.1474 H   0  0  0  0  0  0
  -31.4932  -20.7244   23.3591 H   0  0  0  0  0  0
  -30.6371  -22.3099   23.7383 H   0  0  0  0  0  0
  -28.9701  -21.0668   25.1640 H   0  0  0  0  0  0
  -29.8842  -19.5107   24.8402 H   0  0  0  0  0  0
  -27.0551  -23.8722   18.7367 H   0  0  0  0  0  0
  -28.8571  -24.0978   18.6406 H   0  0  0  0  0  0
  -28.5216  -21.4217   22.7563 H   0  0  0  0  0  0
  -27.2859  -22.3494   20.6541 H   0  0  0  0  0  0
  -27.1104  -24.6546   21.2305 H   0  0  0  0  0  0
  -30.4257  -17.4939   23.8131 H   0  0  0  0  0  0
  -29.3376  -16.3598   23.0481 H   0  0  0  0  0  0
  -28.6867  -17.7201   23.9172 H   0  0  0  0  0  0
  -30.2822  -22.0290   20.3765 H   0  0  0  0  0  0
  -29.4208  -21.5344   18.9784 H   0  0  0  0  0  0
  -28.6679  -15.9004   20.2727 H   0  0  0  0  0  0
  1 25  1  0  0  0
  1 30  2  0  0  0
  1 84  1  0  0  0
  2  3  1  0  0  0
  2 25  1  0  0  0
  2 85  1  0  0  0
  2 86  1  0  0  0
  3  4  1  0  0  0
  3 87  1  0  0  0
  3 88  1  0  0  0
  4  5  1  0  0  0
  4 89  1  0  0  0
  4 90  1  0  0  0
  5  6  1  0  0  0
  5 26  1  0  0  0
  5 91  1  0  0  0
  6 25  1  0  0  0
  6 92  1  0  0  0
  6 93  1  0  0  0
  7  8  2  0  0  0
  7 26  1  0  0  0
  7 29  1  0  0  0
  8  9  1  0  0  0
  8 22  1  0  0  0
  9 10  1  0  0  0
  9 27  2  0  0  0
 10 11  2  0  0  0
 10 15  1  0  0  0
 11 12  1  0  0  0
 11 94  1  0  0  0
 12 13  2  0  0  0
 12 95  1  0  0  0
 13 14  1  0  0  0
 13 31  1  0  0  0
 14 15  2  0  0  0
 14 96  1  0  0  0
 15 97  1  0  0  0
 16 17  2  0  0  0
 16 21  1  0  0  0
 16 31  1  0  0  0
 17 18  1  0  0  0
 17 98  1  0  0  0
 18 19  2  0  0  0
 18 99  1  0  0  0
 19 20  1  0  0  0
 19 24  1  0  0  0
 20 21  2  0  0  0
 20100  1  0  0  0
 21 23  1  0  0  0
 22 28  1  0  0  0
 22 32  2  0  0  0
 26 27  1  0  0  0
 28101  1  0  0  0
 28102  1  0  0  0
 29103  1  0  0  0
 29104  1  0  0  0
 33 34  1  0  0  0
 33 66  1  0  0  0
 33 70  2  0  0  0
 34 36  1  0  0  0
 34 59  1  0  0  0
 34105  1  0  0  0
 35 44  2  0  0  0
 35 45  1  0  0  0
 35 68  1  0  0  0
 36 56  1  0  0  0
 36106  1  0  0  0
 37 39  1  0  0  0
 37 47  1  0  0  0
 37 66  1  0  0  0
 37107  1  0  0  0
 38 43  2  0  0  0
 38 46  1  0  0  0
 38 47  1  0  0  0
 39 64  1  0  0  0
 39 67  2  0  0  0
 40 52  1  0  0  0
 40 53  2  0  0  0
 40 58  1  0  0  0
 41108  1  0  0  0
 41109  1  0  0  0
 41110  1  0  0  0
 41 48  1  0  0  0
 42 43  1  0  0  0
 42 66  1  0  0  0
 42111  1  0  0  0
 42112  1  0  0  0
 43 44  1  0  0  0
 44113  1  0  0  0
 45 46  2  0  0  0
 45114  1  0  0  0
 46115  1  0  0  0
 47116  1  0  0  0
 47117  1  0  0  0
 48 56  1  0  0  0
 48 65  1  0  0  0
 48118  1  0  0  0
 49 50  1  0  0  0
 49 53  1  0  0  0
 49 64  1  0  0  0
 49119  1  0  0  0
 50 51  1  0  0  0
 50120  1  0  0  0
 50121  1  0  0  0
 51 52  1  0  0  0
 51122  1  0  0  0
 51123  1  0  0  0
 52124  1  0  0  0
 52125  1  0  0  0
 53 54  1  0  0  0
 54 55  2  0  0  0
 54126  1  0  0  0
 55 57  1  0  0  0
 55127  1  0  0  0
 56 69  2  0  0  0
 57 58  2  0  0  0
 57128  1  0  0  0
 58129  1  0  0  0
 59 60  1  0  0  0
 59 61  1  0  0  0
 59 62  1  0  0  0
 60130  1  0  0  0
 60131  1  0  0  0
 60132  1  0  0  0
 61133  1  0  0  0
 61134  1  0  0  0
 61135  1  0  0  0
 62136  1  0  0  0
 62137  1  0  0  0
 62138  1  0  0  0
 63 65  1  0  0  0
 63139  1  0  0  0
 63140  1  0  0  0
 63141  1  0  0  0
 64142  1  0  0  0
 65143  1  0  0  0
 68 79  1  0  0  0
 71 72  2  0  0  0
 71 73  1  0  0  0
 71 80  1  0  0  0
 72 83  1  0  0  0
 72 77  1  0  0  0
 73 82  2  0  0  0
 73 84  1  0  0  0
 74 75  1  0  0  0
 74 77  1  0  0  0
 74144  1  0  0  0
 74145  1  0  0  0
 75 77  1  0  0  0
 75146  1  0  0  0
 75147  1  0  0  0
 76 78  1  0  0  0
 76 79  1  0  0  0
 76148  1  0  0  0
 76149  1  0  0  0
 77150  1  0  0  0
 78 79  1  0  0  0
 78 81  1  0  0  0
 78151  1  0  0  0
 79152  1  0  0  0
 80153  1  0  0  0
 80154  1  0  0  0
 80155  1  0  0  0
 81 83  1  0  0  0
 81156  1  0  0  0
 81157  1  0  0  0
 82 83  1  0  0  0
 84158  1  0  0  0
M  ISO  4   1 100  68 101  79 101  84 100
M  END
> <chiral flag>
0

> <version>
0

> <s_m_source_file>
/data/baiqing/PycharmProjects/Reinvent-master-3.2/result/LINK_invent/BTK/process_docking_weight1_custom_sum_contain_oxygen_bond_distance_aromatic_linkinvent_7_9_3/rearranged_h_0163.sdf

> <i_m_source_file_index>
81

> <r_mmod_Potential_Energy-OPLS-2005>
838.437805175781

> <r_mmod_Stretch_Energy-OPLS-2005>
345.638214111328

> <r_mmod_Bend_Energy-OPLS-2005>
416.546722412109

> <r_mmod_Torsional_Energy-OPLS-2005>
326.897583007812

> <r_mmod_Improper_Torsional_Energy-OPLS-2005>
12.0809726715088

> <r_mmod_Van_der_Waal_Energy-OPLS-2005>
101.241821289062

> <r_mmod_Electrostatic_Energy-OPLS-2005>
-405.146728515625

> <r_mmod_Solvation_Energy-OPLS-2005>
-225.31298828125

> <b_mmod_Minimization_Converged-OPLS-2005>
0

> <r_mmod_RMS_Derivative-OPLS-2005>
2.44543504714966

$$$$
81
                    3D
 Structure written by MMmdl.
162171  0  0  1  0            999 V2000
  -30.6186  -14.8649   20.4367 C   0  0  0  0  0  0
  -30.4306  -12.5381   19.4801 C   0  0  0  0  0  0
  -29.5061  -12.5052   18.2446 C   0  0  0  0  0  0
  -28.0447  -12.2897   18.6768 C   0  0  0  0  0  0
  -27.6304  -13.2379   19.8309 C   0  0  2  0  0  0
  -28.6793  -13.2745   20.9615 C   0  0  0  0  0  0
  -25.2521  -13.8202   20.5735 C   0  0  0  0  0  0
  -24.1805  -13.0431   20.9247 C   0  0  0  0  0  0
  -24.6402  -11.6925   20.8790 C   0  0  0  0  0  0
  -23.9075  -10.4301   21.0446 C   0  0  0  0  0  0
  -24.3633   -9.4195   21.9212 C   0  0  0  0  0  0
  -23.6291   -8.2238   22.0761 C   0  0  0  0  0  0
  -22.4270   -8.0320   21.3550 C   0  0  0  0  0  0
  -21.9918   -9.0291   20.4652 C   0  0  0  0  0  0
  -22.7251  -10.2169   20.3071 C   0  0  0  0  0  0
  -21.6849   -6.0776   22.5309 C   0  0  0  0  0  0
  -21.4009   -6.5663   23.8252 C   0  0  0  0  0  0
  -21.3637   -5.6808   24.9201 C   0  0  0  0  0  0
  -21.6029   -4.3073   24.7222 C   0  0  0  0  0  0
  -21.8796   -3.8179   23.4331 C   0  0  0  0  0  0
  -21.9175   -4.7010   22.3406 C   0  0  0  0  0  0
  -22.7820  -13.5235   21.1870 C   0  0  0  0  0  0
  -22.1654   -4.2211   21.0978 F   0  0  0  0  0  0
  -21.5605   -3.4542   25.7715 F   0  0  0  0  0  0
  -29.9560  -13.6505   20.3454 N   0  0  0  0  0  0
  -26.2914  -12.9408   20.3256 N   0  0  0  0  0  0
  -25.9328  -11.6547   20.5752 N   0  0  0  0  0  0
  -22.0421  -12.8284   22.0447 N   0  0  0  0  0  0
  -25.4208  -15.1927   20.4189 N   0  0  0  0  0  0
  -31.8464  -14.8477   20.3066 O   0  0  0  0  0  0
  -21.6605   -6.8932   21.4276 O   0  0  0  0  0  0
  -22.3497  -14.5506   20.6683 O   0  0  0  0  0  0
  -24.6451  -31.8390   23.1893 C   0  0  0  0  0  0
  -25.9259  -32.4641   23.8232 C   0  0  1  0  0  0
  -27.2217  -27.1436   20.1622 C   0  0  0  0  0  0
  -25.6012  -33.8440   24.2172 N   0  0  0  0  0  0
  -23.4475  -30.4649   21.5313 C   0  0  2  0  0  0
  -24.9005  -28.8966   20.1036 C   0  0  0  0  0  0
  -22.7568  -29.4553   22.4813 C   0  0  0  0  0  0
  -18.0324  -28.1421   22.8473 C   0  0  0  0  0  0
  -24.1499  -36.7224   23.2634 C   0  0  0  0  0  0
  -26.0040  -30.7208   21.3868 C   0  0  0  0  0  0
  -26.0784  -29.3338   20.7275 C   0  0  0  0  0  0
  -27.2442  -28.4795   20.7293 C   0  0  0  0  0  0
  -26.0241  -26.8110   19.4951 C   0  0  0  0  0  0
  -24.8918  -27.6517   19.4584 C   0  0  0  0  0  0
  -23.6741  -29.7991   20.1482 C   0  0  0  0  0  0
  -25.4128  -36.2974   24.0302 C   0  0  1  0  0  0
  -20.5940  -28.3754   23.1223 C   0  0  2  0  0  0
  -20.6790  -26.9444   22.5407 C   0  0  0  0  0  0
  -19.5758  -26.6399   21.5213 C   0  0  0  0  0  0
  -18.1949  -26.7952   22.1633 C   0  0  0  0  0  0
  -19.1585  -28.8914   23.2841 C   0  0  0  0  0  0
  -18.9469  -30.1504   23.8867 C   0  0  0  0  0  0
  -17.6473  -30.6593   24.0579 C   0  0  0  0  0  0
  -25.9098  -34.9369   23.5046 C   0  0  0  0  0  0
  -16.5375  -29.9089   23.6334 C   0  0  0  0  0  0
  -16.7319  -28.6532   23.0315 C   0  0  0  0  0  0
  -26.4604  -31.6487   25.0657 C   0  0  0  0  0  0
  -25.3813  -31.3654   26.1366 C   0  0  0  0  0  0
  -27.0451  -30.2860   24.6241 C   0  0  0  0  0  0
  -27.6107  -32.4260   25.7458 C   0  0  0  0  0  0
  -27.5569  -37.1753   24.8467 C   0  0  0  0  0  0
  -21.4269  -29.3068   22.3560 N   0  0  0  0  0  0
  -26.4273  -37.3699   23.9418 N   0  0  0  0  0  0
  -24.7178  -31.0270   22.0916 N   0  0  0  0  0  0
  -23.4185  -28.8096   23.2976 O   0  0  0  0  0  0
  -28.2563  -26.1384   20.2020 O   0  0  0  0  0  0
  -26.5675  -34.8891   22.4620 O   0  0  0  0  0  0
  -23.5585  -32.1317   23.7120 O   0  0  0  0  0  0
  -28.1376  -22.3228   19.4667 C   0  0  0  0  0  0
  -28.5829  -23.2378   20.4707 C   0  0  0  0  0  0
  -29.4276  -22.5376   21.4143 C   0  0  0  0  0  0
  -29.7269  -21.1026   21.3232 C   0  0  0  0  0  0
  -29.1863  -20.2712   20.2813 C   0  0  0  0  0  0
  -29.5905  -17.3317   20.9448 C   0  0  0  0  0  0
  -30.2971  -16.7036   18.8219 C   0  0  0  0  0  0
  -29.4069  -18.6506   19.9799 C   0  0  2  0  0  0
  -30.4876  -18.2460   18.9735 C   0  0  2  0  0  0
  -29.9922  -23.3269   22.5885 C   0  0  0  0  0  0
  -30.6289  -20.4555   22.3720 C   0  0  0  0  0  0
  -30.4817  -19.0011   17.6351 C   0  0  0  0  0  0
  -27.8808  -24.7210   20.7084 C   0  0  0  0  0  0
  -28.4153  -20.9654   19.3821 N   0  0  0  0  0  0
  -29.9375  -16.0718   20.1182 N   0  0  0  0  0  0
  -31.4680  -12.6674   19.1667 H   0  0  0  0  0  0
  -30.3980  -11.5890   20.0127 H   0  0  0  0  0  0
  -29.8111  -11.7147   17.5572 H   0  0  0  0  0  0
  -29.5972  -13.4459   17.6971 H   0  0  0  0  0  0
  -27.9588  -11.2540   19.0081 H   0  0  0  0  0  0
  -27.3646  -12.3879   17.8290 H   0  0  0  0  0  0
  -27.5951  -14.2334   19.3903 H   0  0  0  0  0  0
  -28.7511  -12.3067   21.4575 H   0  0  0  0  0  0
  -28.3969  -13.9989   21.7271 H   0  0  0  0  0  0
  -25.2775   -9.5648   22.4793 H   0  0  0  0  0  0
  -23.9997   -7.4589   22.7451 H   0  0  0  0  0  0
  -21.0844   -8.8792   19.8944 H   0  0  0  0  0  0
  -22.3702  -10.9714   19.6179 H   0  0  0  0  0  0
  -21.2027   -7.6177   23.9791 H   0  0  0  0  0  0
  -21.1475   -6.0524   25.9113 H   0  0  0  0  0  0
  -22.0590   -2.7653   23.2805 H   0  0  0  0  0  0
  -22.4018  -11.9962   22.4893 H   0  0  0  0  0  0
  -21.1021  -13.1353   22.2571 H   0  0  0  0  0  0
  -24.6531  -15.8424   20.5454 H   0  0  0  0  0  0
  -26.2740  -15.6405   20.1035 H   0  0  0  0  0  0
  -26.7307  -32.5254   23.0924 H   0  0  0  0  0  0
  -25.0077  -33.9525   25.0270 H   0  0  0  0  0  0
  -22.7516  -31.2920   21.3773 H   0  0  0  0  0  0
  -23.3753  -35.9565   23.3285 H   0  0  0  0  0  0
  -24.3586  -36.8865   22.2051 H   0  0  0  0  0  0
  -23.7293  -37.6426   23.6698 H   0  0  0  0  0  0
  -26.1668  -31.4765   20.6167 H   0  0  0  0  0  0
  -26.8720  -30.7603   22.0336 H   0  0  0  0  0  0
  -28.1436  -28.8207   21.2221 H   0  0  0  0  0  0
  -25.9351  -25.8565   19.0003 H   0  0  0  0  0  0
  -24.0069  -27.3166   18.9358 H   0  0  0  0  0  0
  -23.8097  -30.5791   19.3958 H   0  0  0  0  0  0
  -22.7896  -29.2393   19.8333 H   0  0  0  0  0  0
  -25.1318  -36.1743   25.0787 H   0  0  0  0  0  0
  -21.0058  -28.3381   24.1334 H   0  0  0  0  0  0
  -20.5670  -26.2380   23.3647 H   0  0  0  0  0  0
  -21.6654  -26.7423   22.1209 H   0  0  0  0  0  0
  -19.6912  -25.6302   21.1247 H   0  0  0  0  0  0
  -19.6682  -27.3211   20.6751 H   0  0  0  0  0  0
  -17.4203  -26.6699   21.4050 H   0  0  0  0  0  0
  -18.0358  -26.0103   22.9050 H   0  0  0  0  0  0
  -19.7950  -30.7331   24.2182 H   0  0  0  0  0  0
  -17.5028  -31.6253   24.5203 H   0  0  0  0  0  0
  -15.5376  -30.2970   23.7680 H   0  0  0  0  0  0
  -15.8719  -28.0865   22.6980 H   0  0  0  0  0  0
  -24.6046  -30.6915   25.7738 H   0  0  0  0  0  0
  -24.8949  -32.2799   26.4741 H   0  0  0  0  0  0
  -25.8153  -30.8897   27.0165 H   0  0  0  0  0  0
  -26.3047  -29.6554   24.1293 H   0  0  0  0  0  0
  -27.4097  -29.7171   25.4807 H   0  0  0  0  0  0
  -27.8957  -30.4052   23.9525 H   0  0  0  0  0  0
  -27.2684  -33.3590   26.1951 H   0  0  0  0  0  0
  -28.3981  -32.6762   25.0335 H   0  0  0  0  0  0
  -28.0713  -31.8421   26.5437 H   0  0  0  0  0  0
  -28.2558  -38.0074   24.7512 H   0  0  0  0  0  0
  -28.1073  -36.2596   24.6267 H   0  0  0  0  0  0
  -27.2278  -37.1373   25.8864 H   0  0  0  0  0  0
  -20.9462  -29.8770   21.6732 H   0  0  0  0  0  0
  -26.0109  -38.2733   24.1463 H   0  0  0  0  0  0
  -27.4583  -22.6804   18.7094 H   0  0  0  0  0  0
  -30.4066  -17.4421   21.6614 H   0  0  0  0  0  0
  -28.6838  -17.1474   21.5260 H   0  0  0  0  0  0
  -31.1832  -16.2639   18.3586 H   0  0  0  0  0  0
  -29.4719  -16.5025   18.1388 H   0  0  0  0  0  0
  -28.4650  -18.4274   19.4716 H   0  0  0  0  0  0
  -31.4632  -18.4242   19.4353 H   0  0  0  0  0  0
  -29.4176  -23.1259   23.4929 H   0  0  0  0  0  0
  -29.9712  -24.3988   22.4040 H   0  0  0  0  0  0
  -31.0327  -23.0750   22.7806 H   0  0  0  0  0  0
  -30.8734  -19.4317   22.1147 H   0  0  0  0  0  0
  -30.1611  -20.4536   23.3580 H   0  0  0  0  0  0
  -31.5959  -20.9571   22.4348 H   0  0  0  0  0  0
  -30.7564  -20.0472   17.7707 H   0  0  0  0  0  0
  -29.5036  -18.9580   17.1577 H   0  0  0  0  0  0
  -31.2076  -18.5679   16.9456 H   0  0  0  0  0  0
  -27.8562  -24.8487   21.7900 H   0  0  0  0  0  0
  -26.8315  -24.5417   20.4745 H   0  0  0  0  0  0
  1 25  1  0  0  0
  1 30  2  0  0  0
  1 85  1  0  0  0
  2  3  1  0  0  0
  2 25  1  0  0  0
  2 86  1  0  0  0
  2 87  1  0  0  0
  3  4  1  0  0  0
  3 88  1  0  0  0
  3 89  1  0  0  0
  4  5  1  0  0  0
  4 90  1  0  0  0
  4 91  1  0  0  0
  5  6  1  0  0  0
  5 26  1  0  0  0
  5 92  1  0  0  0
  6 25  1  0  0  0
  6 93  1  0  0  0
  6 94  1  0  0  0
  7  8  2  0  0  0
  7 26  1  0  0  0
  7 29  1  0  0  0
  8  9  1  0  0  0
  8 22  1  0  0  0
  9 10  1  0  0  0
  9 27  2  0  0  0
 10 11  2  0  0  0
 10 15  1  0  0  0
 11 12  1  0  0  0
 11 95  1  0  0  0
 12 13  2  0  0  0
 12 96  1  0  0  0
 13 14  1  0  0  0
 13 31  1  0  0  0
 14 15  2  0  0  0
 14 97  1  0  0  0
 15 98  1  0  0  0
 16 17  2  0  0  0
 16 21  1  0  0  0
 16 31  1  0  0  0
 17 18  1  0  0  0
 17 99  1  0  0  0
 18 19  2  0  0  0
 18100  1  0  0  0
 19 20  1  0  0  0
 19 24  1  0  0  0
 20 21  2  0  0  0
 20101  1  0  0  0
 21 23  1  0  0  0
 22 28  1  0  0  0
 22 32  2  0  0  0
 26 27  1  0  0  0
 28102  1  0  0  0
 28103  1  0  0  0
 29104  1  0  0  0
 29105  1  0  0  0
 33 34  1  0  0  0
 33 66  1  0  0  0
 33 70  2  0  0  0
 34 36  1  0  0  0
 34 59  1  0  0  0
 34106  1  0  0  0
 35 44  2  0  0  0
 35 45  1  0  0  0
 35 68  1  0  0  0
 36 56  1  0  0  0
 36107  1  0  0  0
 37 39  1  0  0  0
 37 47  1  0  0  0
 37 66  1  0  0  0
 37108  1  0  0  0
 38 43  2  0  0  0
 38 46  1  0  0  0
 38 47  1  0  0  0
 39 64  1  0  0  0
 39 67  2  0  0  0
 40 52  1  0  0  0
 40 53  2  0  0  0
 40 58  1  0  0  0
 41109  1  0  0  0
 41110  1  0  0  0
 41111  1  0  0  0
 41 48  1  0  0  0
 42 43  1  0  0  0
 42 66  1  0  0  0
 42112  1  0  0  0
 42113  1  0  0  0
 43 44  1  0  0  0
 44114  1  0  0  0
 45 46  2  0  0  0
 45115  1  0  0  0
 46116  1  0  0  0
 47117  1  0  0  0
 47118  1  0  0  0
 48 56  1  0  0  0
 48 65  1  0  0  0
 48119  1  0  0  0
 49 50  1  0  0  0
 49 53  1  0  0  0
 49 64  1  0  0  0
 49120  1  0  0  0
 50 51  1  0  0  0
 50121  1  0  0  0
 50122  1  0  0  0
 51 52  1  0  0  0
 51123  1  0  0  0
 51124  1  0  0  0
 52125  1  0  0  0
 52126  1  0  0  0
 53 54  1  0  0  0
 54 55  2  0  0  0
 54127  1  0  0  0
 55 57  1  0  0  0
 55128  1  0  0  0
 56 69  2  0  0  0
 57 58  2  0  0  0
 57129  1  0  0  0
 58130  1  0  0  0
 59 60  1  0  0  0
 59 61  1  0  0  0
 59 62  1  0  0  0
 60131  1  0  0  0
 60132  1  0  0  0
 60133  1  0  0  0
 61134  1  0  0  0
 61135  1  0  0  0
 61136  1  0  0  0
 62137  1  0  0  0
 62138  1  0  0  0
 62139  1  0  0  0
 63 65  1  0  0  0
 63140  1  0  0  0
 63141  1  0  0  0
 63142  1  0  0  0
 64143  1  0  0  0
 65144  1  0  0  0
 68 83  1  0  0  0
 71 72  2  0  0  0
 71 84  1  0  0  0
 71145  1  0  0  0
 72 73  1  0  0  0
 72 83  1  0  0  0
 73 74  2  0  0  0
 73 80  1  0  0  0
 74 75  1  0  0  0
 74 81  1  0  0  0
 75 84  2  0  0  0
 75 78  1  0  0  0
 76 78  1  0  0  0
 76 85  1  0  0  0
 76146  1  0  0  0
 76147  1  0  0  0
 77 79  1  0  0  0
 77 85  1  0  0  0
 77148  1  0  0  0
 77149  1  0  0  0
 78 79  1  0  0  0
 78150  1  0  0  0
 79 82  1  0  0  0
 79151  1  0  0  0
 80152  1  0  0  0
 80153  1  0  0  0
 80154  1  0  0  0
 81155  1  0  0  0
 81156  1  0  0  0
 81157  1  0  0  0
 82158  1  0  0  0
 82159  1  0  0  0
 82160  1  0  0  0
 83161  1  0  0  0
 83162  1  0  0  0
M  ISO  4   1 100  68 101  83 101  85 100
M  END
> <chiral flag>
0

> <version>
0

> <s_m_source_file>
/data/baiqing/PycharmProjects/Reinvent-master-3.2/result/LINK_invent/BTK/process_docking_weight1_custom_sum_contain_oxygen_bond_distance_aromatic_linkinvent_7_9_3/rearranged_h_0163.sdf

> <i_m_source_file_index>
82

> <r_mmod_Potential_Energy-OPLS-2005>
625.886901855469

> <r_mmod_Stretch_Energy-OPLS-2005>
218.235931396484

> <r_mmod_Bend_Energy-OPLS-2005>
320.789672851562

> <r_mmod_Torsional_Energy-OPLS-2005>
356.022796630859

> <r_mmod_Improper_Torsional_Energy-OPLS-2005>
25.8850002288818

> <r_mmod_Van_der_Waal_Energy-OPLS-2005>
138.217834472656

> <r_mmod_Electrostatic_Energy-OPLS-2005>
-396.406890869141

> <r_mmod_Solvation_Energy-OPLS-2005>
-207.098327636719

> <b_mmod_Minimization_Converged-OPLS-2005>
0

> <r_mmod_RMS_Derivative-OPLS-2005>
5.75719356536865

$$$$
82
                    3D
 Structure written by MMmdl.
170179  0  0  1  0            999 V2000
  -30.6706  -14.5782   20.5046 C   0  0  0  0  0  0
  -30.4238  -12.3646   19.4286 C   0  0  0  0  0  0
  -29.4891  -12.5017   18.2085 C   0  0  0  0  0  0
  -28.0113  -12.3621   18.6282 C   0  0  0  0  0  0
  -27.6518  -13.2108   19.8792 C   0  0  2  0  0  0
  -28.7073  -13.0194   20.9905 C   0  0  0  0  0  0
  -25.2542  -13.8137   20.5732 C   0  0  0  0  0  0
  -24.1790  -13.0403   20.9211 C   0  0  0  0  0  0
  -24.6368  -11.6879   20.8800 C   0  0  0  0  0  0
  -23.9048  -10.4258   21.0472 C   0  0  0  0  0  0
  -24.3588   -9.4170   21.9252 C   0  0  0  0  0  0
  -23.6265   -8.2200   22.0797 C   0  0  0  0  0  0
  -22.4258   -8.0248   21.3575 C   0  0  0  0  0  0
  -21.9908   -9.0231   20.4683 C   0  0  0  0  0  0
  -22.7233  -10.2115   20.3113 C   0  0  0  0  0  0
  -21.6847   -6.0702   22.5281 C   0  0  0  0  0  0
  -21.4017   -6.5625   23.8209 C   0  0  0  0  0  0
  -21.3667   -5.6793   24.9182 C   0  0  0  0  0  0
  -21.6051   -4.3052   24.7257 C   0  0  0  0  0  0
  -21.8822   -3.8126   23.4384 C   0  0  0  0  0  0
  -21.9187   -4.6927   22.3425 C   0  0  0  0  0  0
  -22.7821  -13.5220   21.1869 C   0  0  0  0  0  0
  -22.1659   -4.2099   21.1008 F   0  0  0  0  0  0
  -21.5648   -3.4548   25.7780 F   0  0  0  0  0  0
  -30.0018  -13.3874   20.4057 N   0  0  0  0  0  0
  -26.2973  -12.9311   20.3452 N   0  0  0  0  0  0
  -25.9294  -11.6462   20.5846 N   0  0  0  0  0  0
  -22.0449  -12.8218   22.0426 N   0  0  0  0  0  0
  -25.4299  -15.1840   20.4135 N   0  0  0  0  0  0
  -31.8724  -14.6251   20.2214 O   0  0  0  0  0  0
  -21.6636   -6.8837   21.4239 O   0  0  0  0  0  0
  -22.3536  -14.5541   20.6728 O   0  0  0  0  0  0
  -24.6197  -31.8645   23.2055 C   0  0  0  0  0  0
  -25.9074  -32.4797   23.8357 C   0  0  1  0  0  0
  -27.2250  -27.3796   20.0896 C   0  0  0  0  0  0
  -25.5929  -33.8594   24.2289 N   0  0  0  0  0  0
  -23.4092  -30.4890   21.5480 C   0  0  2  0  0  0
  -24.8518  -28.9480   20.1129 C   0  0  0  0  0  0
  -22.7422  -29.4664   22.4971 C   0  0  0  0  0  0
  -18.0284  -28.1392   22.8487 C   0  0  0  0  0  0
  -24.1500  -36.7301   23.2632 C   0  0  0  0  0  0
  -25.9438  -30.8110   21.3681 C   0  0  0  0  0  0
  -26.0166  -29.4421   20.7122 C   0  0  0  0  0  0
  -27.2034  -28.6626   20.7023 C   0  0  0  0  0  0
  -26.0315  -26.9094   19.5041 C   0  0  0  0  0  0
  -24.8549  -27.6809   19.5092 C   0  0  0  0  0  0
  -23.6178  -29.8210   20.1634 C   0  0  0  0  0  0
  -25.4120  -36.3089   24.0323 C   0  0  1  0  0  0
  -20.5873  -28.3690   23.1301 C   0  0  2  0  0  0
  -20.6787  -26.9425   22.5410 C   0  0  0  0  0  0
  -19.5767  -26.6396   21.5213 C   0  0  0  0  0  0
  -18.1940  -26.7937   22.1616 C   0  0  0  0  0  0
  -19.1530  -28.8855   23.2892 C   0  0  0  0  0  0
  -18.9460  -30.1460   23.8903 C   0  0  0  0  0  0
  -17.6466  -30.6599   24.0568 C   0  0  0  0  0  0
  -25.9057  -34.9463   23.5105 C   0  0  0  0  0  0
  -16.5351  -29.9097   23.6337 C   0  0  0  0  0  0
  -16.7271  -28.6513   23.0350 C   0  0  0  0  0  0
  -26.4480  -31.6588   25.0705 C   0  0  0  0  0  0
  -25.3722  -31.3710   26.1439 C   0  0  0  0  0  0
  -27.0318  -30.3017   24.6124 C   0  0  0  0  0  0
  -27.6063  -32.4299   25.7469 C   0  0  0  0  0  0
  -27.5593  -37.1791   24.8446 C   0  0  0  0  0  0
  -21.4149  -29.3049   22.3692 N   0  0  0  0  0  0
  -26.4290  -37.3789   23.9418 N   0  0  0  0  0  0
  -24.6761  -31.0705   22.0980 N   0  0  0  0  0  0
  -23.4168  -28.8222   23.3047 O   0  0  0  0  0  0
  -28.3779  -26.6035   20.1135 O   0  0  0  0  0  0
  -26.5621  -34.8921   22.4668 O   0  0  0  0  0  0
  -23.5380  -32.1434   23.7424 O   0  0  0  0  0  0
  -29.2795  -23.4757   20.5410 C   0  0  0  0  0  0
  -27.7993  -23.1273   18.6387 C   0  0  0  0  0  0
  -28.4981  -24.0385   19.4879 C   0  0  0  0  0  0
  -29.4700  -22.0553   20.6615 C   0  0  0  0  0  0
  -27.8622  -21.7176   18.8649 C   0  0  0  0  0  0
  -28.7136  -21.1458   19.8521 C   0  0  0  0  0  0
  -28.3452  -17.6494   21.0912 C   0  0  0  0  0  0
  -30.6046  -18.1991   20.1578 C   0  0  0  0  0  0
  -29.0129  -16.2756   21.4444 C   0  0  0  0  0  0
  -30.3750  -16.8185   19.4699 C   0  0  0  0  0  0
  -29.3281  -18.8107   20.7828 C   0  0  0  0  0  0
  -29.9478  -24.4291   21.5312 C   0  0  0  0  0  0
  -27.0037  -23.6608   17.4417 C   0  0  0  0  0  0
  -30.5519  -21.5484   21.6113 C   0  0  0  0  0  0
  -27.0285  -20.7790   17.9853 C   0  0  0  0  0  0
  -28.5973  -25.5660   19.1179 C   0  0  0  0  0  0
  -29.9358  -15.7445   20.4058 N   0  0  0  0  0  0
  -28.7034  -19.7369   19.8606 O   0  0  0  0  0  0
  -31.4629  -12.4796   19.1136 H   0  0  0  0  0  0
  -30.3575  -11.3642   19.8596 H   0  0  0  0  0  0
  -29.7372  -11.7553   17.4522 H   0  0  0  0  0  0
  -29.6428  -13.4734   17.7366 H   0  0  0  0  0  0
  -27.8259  -11.3068   18.8313 H   0  0  0  0  0  0
  -27.3591  -12.6278   17.7958 H   0  0  0  0  0  0
  -27.6799  -14.2546   19.5657 H   0  0  0  0  0  0
  -28.7235  -11.9766   21.3127 H   0  0  0  0  0  0
  -28.4844  -13.5738   21.8986 H   0  0  0  0  0  0
  -25.2732   -9.5620   22.4843 H   0  0  0  0  0  0
  -23.9974   -7.4568   22.7504 H   0  0  0  0  0  0
  -21.0854   -8.8742   19.8966 H   0  0  0  0  0  0
  -22.3707  -10.9661   19.6224 H   0  0  0  0  0  0
  -21.2021   -7.6137   23.9697 H   0  0  0  0  0  0
  -21.1515   -6.0546   25.9086 H   0  0  0  0  0  0
  -22.0610   -2.7586   23.2912 H   0  0  0  0  0  0
  -22.4017  -11.9832   22.4756 H   0  0  0  0  0  0
  -21.1096  -13.1297   22.2693 H   0  0  0  0  0  0
  -24.6696  -15.8462   20.5179 H   0  0  0  0  0  0
  -26.2926  -15.6135   20.1056 H   0  0  0  0  0  0
  -26.7139  -32.5489   23.1113 H   0  0  0  0  0  0
  -25.0069  -33.9747   25.0428 H   0  0  0  0  0  0
  -22.7003  -31.3080   21.4070 H   0  0  0  0  0  0
  -23.3778  -35.9616   23.3246 H   0  0  0  0  0  0
  -24.3599  -36.8976   22.2056 H   0  0  0  0  0  0
  -23.7230  -37.6477   23.6689 H   0  0  0  0  0  0
  -26.0664  -31.5772   20.6012 H   0  0  0  0  0  0
  -26.8276  -30.8596   21.9922 H   0  0  0  0  0  0
  -28.1009  -29.0391   21.1726 H   0  0  0  0  0  0
  -25.9821  -25.9270   19.0690 H   0  0  0  0  0  0
  -23.9532  -27.2847   19.0627 H   0  0  0  0  0  0
  -23.7291  -30.5945   19.4030 H   0  0  0  0  0  0
  -22.7393  -29.2440   19.8685 H   0  0  0  0  0  0
  -25.1296  -36.1936   25.0813 H   0  0  0  0  0  0
  -20.9961  -28.3278   24.1425 H   0  0  0  0  0  0
  -20.5730  -26.2294   23.3598 H   0  0  0  0  0  0
  -21.6656  -26.7501   22.1192 H   0  0  0  0  0  0
  -19.6942  -25.6313   21.1239 H   0  0  0  0  0  0
  -19.6710  -27.3205   20.6743 H   0  0  0  0  0  0
  -17.4215  -26.6685   21.4010 H   0  0  0  0  0  0
  -18.0341  -26.0078   22.9008 H   0  0  0  0  0  0
  -19.7934  -30.7275   24.2267 H   0  0  0  0  0  0
  -17.5023  -31.6278   24.5173 H   0  0  0  0  0  0
  -15.5355  -30.3005   23.7665 H   0  0  0  0  0  0
  -15.8666  -28.0840   22.7062 H   0  0  0  0  0  0
  -24.5879  -30.7089   25.7747 H   0  0  0  0  0  0
  -24.8939  -32.2879   26.4889 H   0  0  0  0  0  0
  -25.8048  -30.8844   27.0189 H   0  0  0  0  0  0
  -26.2873  -29.6760   24.1182 H   0  0  0  0  0  0
  -27.4071  -29.7273   25.4606 H   0  0  0  0  0  0
  -27.8720  -30.4313   23.9297 H   0  0  0  0  0  0
  -27.2698  -33.3604   26.2048 H   0  0  0  0  0  0
  -28.3868  -32.6835   25.0283 H   0  0  0  0  0  0
  -28.0727  -31.8407   26.5374 H   0  0  0  0  0  0
  -28.2557  -38.0143   24.7585 H   0  0  0  0  0  0
  -28.1151  -36.2681   24.6170 H   0  0  0  0  0  0
  -27.2321  -37.1310   25.8847 H   0  0  0  0  0  0
  -20.9319  -29.8723   21.6865 H   0  0  0  0  0  0
  -26.0171  -38.2851   24.1479 H   0  0  0  0  0  0
  -27.6779  -17.9484   21.9008 H   0  0  0  0  0  0
  -27.6914  -17.4998   20.2316 H   0  0  0  0  0  0
  -31.0482  -18.9042   19.4540 H   0  0  0  0  0  0
  -31.3482  -18.0681   20.9448 H   0  0  0  0  0  0
  -28.1958  -15.5885   21.6359 H   0  0  0  0  0  0
  -29.5672  -16.3689   22.3800 H   0  0  0  0  0  0
  -31.2782  -16.5491   18.9213 H   0  0  0  0  0  0
  -29.6150  -16.9159   18.6948 H   0  0  0  0  0  0
  -29.5469  -19.2748   21.7388 H   0  0  0  0  0  0
  -29.2677  -25.2273   21.8202 H   0  0  0  0  0  0
  -30.8457  -24.8742   21.1041 H   0  0  0  0  0  0
  -30.2044  -23.9583   22.4785 H   0  0  0  0  0  0
  -27.6429  -24.2554   16.7899 H   0  0  0  0  0  0
  -26.1669  -24.2715   17.7711 H   0  0  0  0  0  0
  -26.5772  -22.9018   16.7909 H   0  0  0  0  0  0
  -31.3357  -22.2825   21.7900 H   0  0  0  0  0  0
  -31.0912  -20.7072   21.1822 H   0  0  0  0  0  0
  -30.1263  -21.2673   22.5752 H   0  0  0  0  0  0
  -25.9862  -21.0985   17.9717 H   0  0  0  0  0  0
  -27.0082  -19.7408   18.3126 H   0  0  0  0  0  0
  -27.4088  -20.7828   16.9632 H   0  0  0  0  0  0
  -28.0600  -25.8233   18.2094 H   0  0  0  0  0  0
  -29.6382  -25.7001   18.8217 H   0  0  0  0  0  0
  1 25  1  0  0  0
  1 30  2  0  0  0
  1 87  1  0  0  0
  2  3  1  0  0  0
  2 25  1  0  0  0
  2 89  1  0  0  0
  2 90  1  0  0  0
  3  4  1  0  0  0
  3 91  1  0  0  0
  3 92  1  0  0  0
  4  5  1  0  0  0
  4 93  1  0  0  0
  4 94  1  0  0  0
  5  6  1  0  0  0
  5 26  1  0  0  0
  5 95  1  0  0  0
  6 25  1  0  0  0
  6 96  1  0  0  0
  6 97  1  0  0  0
  7  8  2  0  0  0
  7 26  1  0  0  0
  7 29  1  0  0  0
  8  9  1  0  0  0
  8 22  1  0  0  0
  9 10  1  0  0  0
  9 27  2  0  0  0
 10 11  2  0  0  0
 10 15  1  0  0  0
 11 12  1  0  0  0
 11 98  1  0  0  0
 12 13  2  0  0  0
 12 99  1  0  0  0
 13 14  1  0  0  0
 13 31  1  0  0  0
 14 15  2  0  0  0
 14100  1  0  0  0
 15101  1  0  0  0
 16 17  2  0  0  0
 16 21  1  0  0  0
 16 31  1  0  0  0
 17 18  1  0  0  0
 17102  1  0  0  0
 18 19  2  0  0  0
 18103  1  0  0  0
 19 20  1  0  0  0
 19 24  1  0  0  0
 20 21  2  0  0  0
 20104  1  0  0  0
 21 23  1  0  0  0
 22 28  1  0  0  0
 22 32  2  0  0  0
 26 27  1  0  0  0
 28105  1  0  0  0
 28106  1  0  0  0
 29107  1  0  0  0
 29108  1  0  0  0
 33 34  1  0  0  0
 33 66  1  0  0  0
 33 70  2  0  0  0
 34 36  1  0  0  0
 34 59  1  0  0  0
 34109  1  0  0  0
 35 44  2  0  0  0
 35 45  1  0  0  0
 35 68  1  0  0  0
 36 56  1  0  0  0
 36110  1  0  0  0
 37 39  1  0  0  0
 37 47  1  0  0  0
 37 66  1  0  0  0
 37111  1  0  0  0
 38 43  2  0  0  0
 38 46  1  0  0  0
 38 47  1  0  0  0
 39 64  1  0  0  0
 39 67  2  0  0  0
 40 52  1  0  0  0
 40 53  2  0  0  0
 40 58  1  0  0  0
 41112  1  0  0  0
 41113  1  0  0  0
 41114  1  0  0  0
 41 48  1  0  0  0
 42 43  1  0  0  0
 42 66  1  0  0  0
 42115  1  0  0  0
 42116  1  0  0  0
 43 44  1  0  0  0
 44117  1  0  0  0
 45 46  2  0  0  0
 45118  1  0  0  0
 46119  1  0  0  0
 47120  1  0  0  0
 47121  1  0  0  0
 48 56  1  0  0  0
 48 65  1  0  0  0
 48122  1  0  0  0
 49 50  1  0  0  0
 49 53  1  0  0  0
 49 64  1  0  0  0
 49123  1  0  0  0
 50 51  1  0  0  0
 50124  1  0  0  0
 50125  1  0  0  0
 51 52  1  0  0  0
 51126  1  0  0  0
 51127  1  0  0  0
 52128  1  0  0  0
 52129  1  0  0  0
 53 54  1  0  0  0
 54 55  2  0  0  0
 54130  1  0  0  0
 55 57  1  0  0  0
 55131  1  0  0  0
 56 69  2  0  0  0
 57 58  2  0  0  0
 57132  1  0  0  0
 58133  1  0  0  0
 59 60  1  0  0  0
 59 61  1  0  0  0
 59 62  1  0  0  0
 60134  1  0  0  0
 60135  1  0  0  0
 60136  1  0  0  0
 61137  1  0  0  0
 61138  1  0  0  0
 61139  1  0  0  0
 62140  1  0  0  0
 62141  1  0  0  0
 62142  1  0  0  0
 63 65  1  0  0  0
 63143  1  0  0  0
 63144  1  0  0  0
 63145  1  0  0  0
 64146  1  0  0  0
 65147  1  0  0  0
 68 86  1  0  0  0
 71 73  2  0  0  0
 71 74  1  0  0  0
 71 82  1  0  0  0
 72 73  1  0  0  0
 72 75  2  0  0  0
 72 83  1  0  0  0
 73 86  1  0  0  0
 74 76  2  0  0  0
 74 84  1  0  0  0
 75 76  1  0  0  0
 75 85  1  0  0  0
 76 88  1  0  0  0
 77 79  1  0  0  0
 77 81  1  0  0  0
 77148  1  0  0  0
 77149  1  0  0  0
 78 80  1  0  0  0
 78 81  1  0  0  0
 78150  1  0  0  0
 78151  1  0  0  0
 79 87  1  0  0  0
 79152  1  0  0  0
 79153  1  0  0  0
 80 87  1  0  0  0
 80154  1  0  0  0
 80155  1  0  0  0
 81 88  1  0  0  0
 81156  1  0  0  0
 82157  1  0  0  0
 82158  1  0  0  0
 82159  1  0  0  0
 83160  1  0  0  0
 83161  1  0  0  0
 83162  1  0  0  0
 84163  1  0  0  0
 84164  1  0  0  0
 84165  1  0  0  0
 85166  1  0  0  0
 85167  1  0  0  0
 85168  1  0  0  0
 86169  1  0  0  0
 86170  1  0  0  0
M  ISO  4   1 100  68 101  86 101  87 100
M  END
> <chiral flag>
0

> <version>
0

> <s_m_source_file>
/data/baiqing/PycharmProjects/Reinvent-master-3.2/result/LINK_invent/BTK/process_docking_weight1_custom_sum_contain_oxygen_bond_distance_aromatic_linkinvent_7_9_3/rearranged_h_0163.sdf

> <i_m_source_file_index>
83

> <r_mmod_Potential_Energy-OPLS-2005>
339.296600341797

> <r_mmod_Stretch_Energy-OPLS-2005>
72.5170364379883

> <r_mmod_Bend_Energy-OPLS-2005>
182.677398681641

> <r_mmod_Torsional_Energy-OPLS-2005>
348.31884765625

> <r_mmod_Improper_Torsional_Energy-OPLS-2005>
19.079044342041

> <r_mmod_Van_der_Waal_Energy-OPLS-2005>
191.925003051758

> <r_mmod_Electrostatic_Energy-OPLS-2005>
-310.607727050781

> <r_mmod_Solvation_Energy-OPLS-2005>
-195.993591308594

> <b_mmod_Minimization_Converged-OPLS-2005>
0

> <r_mmod_RMS_Derivative-OPLS-2005>
1.99691438674927

$$$$
83
                    3D
 Structure written by MMmdl.
174183  0  0  1  0            999 V2000
  -30.7037  -14.8817   20.3870 C   0  0  0  0  0  0
  -30.3956  -12.5508   19.4800 C   0  0  0  0  0  0
  -29.4964  -12.5203   18.2295 C   0  0  0  0  0  0
  -28.0260  -12.3536   18.6396 C   0  0  0  0  0  0
  -27.6206  -13.2750   19.8244 C   0  0  2  0  0  0
  -28.6763  -13.3416   20.9516 C   0  0  0  0  0  0
  -25.2433  -13.8287   20.5728 C   0  0  0  0  0  0
  -24.1799  -13.0437   20.9262 C   0  0  0  0  0  0
  -24.6461  -11.6958   20.8756 C   0  0  0  0  0  0
  -23.9159  -10.4305   21.0368 C   0  0  0  0  0  0
  -24.3693   -9.4226   21.9150 C   0  0  0  0  0  0
  -23.6359   -8.2259   22.0727 C   0  0  0  0  0  0
  -22.4333   -8.0304   21.3530 C   0  0  0  0  0  0
  -21.9970   -9.0282   20.4635 C   0  0  0  0  0  0
  -22.7315  -10.2157   20.3035 C   0  0  0  0  0  0
  -21.6867   -6.0761   22.5277 C   0  0  0  0  0  0
  -21.4006   -6.5659   23.8220 C   0  0  0  0  0  0
  -21.3668   -5.6803   24.9182 C   0  0  0  0  0  0
  -21.6047   -4.3068   24.7207 C   0  0  0  0  0  0
  -21.8828   -3.8169   23.4325 C   0  0  0  0  0  0
  -21.9205   -4.6983   22.3391 C   0  0  0  0  0  0
  -22.7821  -13.5184   21.1863 C   0  0  0  0  0  0
  -22.1672   -4.2192   21.0956 F   0  0  0  0  0  0
  -21.5633   -3.4541   25.7708 F   0  0  0  0  0  0
  -29.9534  -13.7057   20.3232 N   0  0  0  0  0  0
  -26.2877  -12.9572   20.3249 N   0  0  0  0  0  0
  -25.9391  -11.6675   20.5740 N   0  0  0  0  0  0
  -22.0475  -12.8181   22.0431 N   0  0  0  0  0  0
  -25.4032  -15.2001   20.4179 N   0  0  0  0  0  0
  -31.9059  -14.7340   20.1504 O   0  0  0  0  0  0
  -21.6660   -6.8911   21.4258 O   0  0  0  0  0  0
  -22.3516  -14.5481   20.6731 O   0  0  0  0  0  0
  -24.6436  -31.8387   23.1922 C   0  0  0  0  0  0
  -25.9204  -32.4667   23.8294 C   0  0  1  0  0  0
  -27.2297  -27.1734   20.1212 C   0  0  0  0  0  0
  -25.5951  -33.8478   24.2216 N   0  0  0  0  0  0
  -23.4442  -30.4634   21.5369 C   0  0  2  0  0  0
  -24.8925  -28.8899   20.1131 C   0  0  0  0  0  0
  -22.7557  -29.4544   22.4887 C   0  0  0  0  0  0
  -18.0295  -28.1361   22.8501 C   0  0  0  0  0  0
  -24.1492  -36.7233   23.2656 C   0  0  0  0  0  0
  -25.9967  -30.7249   21.3855 C   0  0  0  0  0  0
  -26.0698  -29.3412   20.7205 C   0  0  0  0  0  0
  -27.2361  -28.4954   20.7128 C   0  0  0  0  0  0
  -26.0141  -26.7938   19.5093 C   0  0  0  0  0  0
  -24.8712  -27.6242   19.5040 C   0  0  0  0  0  0
  -23.6691  -29.7899   20.1565 C   0  0  0  0  0  0
  -25.4101  -36.3022   24.0351 C   0  0  1  0  0  0
  -20.5915  -28.3669   23.1266 C   0  0  2  0  0  0
  -20.6788  -26.9368   22.5417 C   0  0  0  0  0  0
  -19.5772  -26.6342   21.5219 C   0  0  0  0  0  0
  -18.1946  -26.7902   22.1621 C   0  0  0  0  0  0
  -19.1558  -28.8837   23.2883 C   0  0  0  0  0  0
  -18.9485  -30.1448   23.8882 C   0  0  0  0  0  0
  -17.6486  -30.6580   24.0541 C   0  0  0  0  0  0
  -25.9042  -34.9393   23.5074 C   0  0  0  0  0  0
  -16.5369  -29.9059   23.6355 C   0  0  0  0  0  0
  -16.7286  -28.6475   23.0383 C   0  0  0  0  0  0
  -26.4541  -31.6557   25.0748 C   0  0  0  0  0  0
  -25.3782  -31.3737   26.1499 C   0  0  0  0  0  0
  -27.0411  -30.2958   24.6326 C   0  0  0  0  0  0
  -27.6038  -32.4351   25.7545 C   0  0  0  0  0  0
  -27.5573  -37.1766   24.8478 C   0  0  0  0  0  0
  -21.4255  -29.3003   22.3646 N   0  0  0  0  0  0
  -26.4261  -37.3748   23.9450 N   0  0  0  0  0  0
  -24.7146  -31.0300   22.0933 N   0  0  0  0  0  0
  -23.4227  -28.8098   23.3026 O   0  0  0  0  0  0
  -28.3171  -26.2413   20.2102 O   0  0  0  0  0  0
  -26.5618  -34.8928   22.4654 O   0  0  0  0  0  0
  -23.5570  -32.1207   23.7213 O   0  0  0  0  0  0
  -30.1021  -23.2022   21.7684 C   0  0  0  0  0  0
  -31.3226  -22.5491   22.0822 C   0  0  0  0  0  0
  -29.5152  -22.5184   20.7176 C   0  0  0  0  0  0
  -31.4290  -21.6024   21.1186 C   0  0  0  0  0  0
  -30.9535  -18.7067   21.2317 C   0  0  0  0  0  0
  -28.8540  -18.6455   20.2767 C   0  0  0  0  0  0
  -31.3216  -17.2682   20.7137 C   0  0  0  0  0  0
  -29.0305  -16.9988   20.0827 C   0  0  0  0  0  0
  -30.1125  -19.6349   20.2546 C   0  0  0  0  0  0
  -29.6335  -24.4853   22.4211 C   0  0  0  0  0  0
  -32.8512  -24.2980   23.1863 C   0  0  0  0  0  0
  -28.3384  -22.5194   18.4980 C   0  0  0  0  0  0
  -33.0869  -21.7801   19.5247 C   0  0  0  0  0  0
  -32.3558  -22.8477   23.1497 C   0  0  0  0  0  0
  -28.4495  -24.9032   19.4565 C   0  0  0  0  0  0
  -28.3965  -23.2542   19.8527 C   0  0  1  0  0  0
  -30.1707  -21.1722   20.7112 N   0  0  0  0  0  0
  -30.2480  -16.2320   20.5837 N   0  0  0  0  0  0
  -32.5698  -21.0590   20.6420 O   0  0  0  0  0  0
  -31.4399  -12.6061   19.1654 H   0  0  0  0  0  0
  -30.3210  -11.6123   20.0337 H   0  0  0  0  0  0
  -29.7922  -11.7070   17.5655 H   0  0  0  0  0  0
  -29.6233  -13.4461   17.6664 H   0  0  0  0  0  0
  -27.8716  -11.3093   18.9062 H   0  0  0  0  0  0
  -27.3847  -12.5447   17.7778 H   0  0  0  0  0  0
  -27.5708  -14.2767   19.3998 H   0  0  0  0  0  0
  -28.7489  -12.3844   21.4723 H   0  0  0  0  0  0
  -28.3996  -14.0844   21.7016 H   0  0  0  0  0  0
  -25.2815   -9.5704   22.4765 H   0  0  0  0  0  0
  -24.0065   -7.4639   22.7446 H   0  0  0  0  0  0
  -21.0891   -8.8822   19.8943 H   0  0  0  0  0  0
  -22.3750  -10.9716   19.6185 H   0  0  0  0  0  0
  -21.1968   -7.6162   23.9742 H   0  0  0  0  0  0
  -21.1489   -6.0513   25.9093 H   0  0  0  0  0  0
  -22.0587   -2.7641   23.2800 H   0  0  0  0  0  0
  -22.4132  -11.9895   22.4885 H   0  0  0  0  0  0
  -21.1056  -13.1192   22.2518 H   0  0  0  0  0  0
  -24.6336  -15.8479   20.5487 H   0  0  0  0  0  0
  -26.2513  -15.6519   20.1006 H   0  0  0  0  0  0
  -26.7264  -32.5284   23.1026 H   0  0  0  0  0  0
  -25.0190  -33.9580   25.0434 H   0  0  0  0  0  0
  -22.7487  -31.2931   21.3847 H   0  0  0  0  0  0
  -23.3798  -35.9531   23.3298 H   0  0  0  0  0  0
  -24.3584  -36.8868   22.2075 H   0  0  0  0  0  0
  -23.7213  -37.6422   23.6666 H   0  0  0  0  0  0
  -26.1552  -31.4904   20.6248 H   0  0  0  0  0  0
  -26.8627  -30.7586   22.0348 H   0  0  0  0  0  0
  -28.1353  -28.8331   21.2130 H   0  0  0  0  0  0
  -25.9019  -25.8130   19.0752 H   0  0  0  0  0  0
  -23.9578  -27.2635   19.0522 H   0  0  0  0  0  0
  -23.8165  -30.5650   19.4021 H   0  0  0  0  0  0
  -22.7837  -29.2400   19.8341 H   0  0  0  0  0  0
  -25.1301  -36.1827   25.0842 H   0  0  0  0  0  0
  -21.0007  -28.3206   24.1390 H   0  0  0  0  0  0
  -20.5684  -26.2243   23.3608 H   0  0  0  0  0  0
  -21.6650  -26.7339   22.1227 H   0  0  0  0  0  0
  -19.6916  -25.6250   21.1249 H   0  0  0  0  0  0
  -19.6754  -27.3174   20.6775 H   0  0  0  0  0  0
  -17.4222  -26.6708   21.4004 H   0  0  0  0  0  0
  -18.0321  -25.9998   22.8967 H   0  0  0  0  0  0
  -19.7971  -30.7269   24.2244 H   0  0  0  0  0  0
  -17.5040  -31.6274   24.5113 H   0  0  0  0  0  0
  -15.5380  -30.2955   23.7694 H   0  0  0  0  0  0
  -15.8686  -28.0779   22.7121 H   0  0  0  0  0  0
  -24.5976  -30.7019   25.7933 H   0  0  0  0  0  0
  -24.8990  -32.2925   26.4886 H   0  0  0  0  0  0
  -25.8165  -30.9013   27.0305 H   0  0  0  0  0  0
  -26.3018  -29.6697   24.1308 H   0  0  0  0  0  0
  -27.4029  -29.7237   25.4894 H   0  0  0  0  0  0
  -27.8948  -30.4279   23.9663 H   0  0  0  0  0  0
  -27.2571  -33.3681   26.2025 H   0  0  0  0  0  0
  -28.3902  -32.6841   25.0398 H   0  0  0  0  0  0
  -28.0628  -31.8528   26.5561 H   0  0  0  0  0  0
  -28.2563  -38.0091   24.7517 H   0  0  0  0  0  0
  -28.1080  -36.2601   24.6270 H   0  0  0  0  0  0
  -27.2286  -37.1384   25.8886 H   0  0  0  0  0  0
  -20.9449  -29.8722   21.6844 H   0  0  0  0  0  0
  -26.0135  -38.2825   24.1465 H   0  0  0  0  0  0
  -31.9142  -19.1175   21.5159 H   0  0  0  0  0  0
  -30.4404  -18.6325   22.1933 H   0  0  0  0  0  0
  -28.3354  -18.7975   21.2223 H   0  0  0  0  0  0
  -28.1532  -18.9977   19.5224 H   0  0  0  0  0  0
  -32.0952  -16.8891   21.3839 H   0  0  0  0  0  0
  -31.8072  -17.3808   19.7411 H   0  0  0  0  0  0
  -28.9723  -16.7749   19.0165 H   0  0  0  0  0  0
  -28.1662  -16.5117   20.5302 H   0  0  0  0  0  0
  -30.5498  -19.5935   19.2551 H   0  0  0  0  0  0
  -30.2646  -25.3271   22.1249 H   0  0  0  0  0  0
  -29.6895  -24.3953   23.5047 H   0  0  0  0  0  0
  -28.5986  -24.7180   22.1757 H   0  0  0  0  0  0
  -33.6396  -24.4118   23.9281 H   0  0  0  0  0  0
  -32.0607  -24.9873   23.4712 H   0  0  0  0  0  0
  -33.2433  -24.5977   22.2153 H   0  0  0  0  0  0
  -29.2537  -22.6975   17.9269 H   0  0  0  0  0  0
  -27.4961  -22.8524   17.8903 H   0  0  0  0  0  0
  -28.2271  -21.4422   18.6208 H   0  0  0  0  0  0
  -32.9559  -22.8628   19.6261 H   0  0  0  0  0  0
  -32.5824  -21.4765   18.6061 H   0  0  0  0  0  0
  -34.1532  -21.5859   19.4010 H   0  0  0  0  0  0
  -33.2111  -22.1888   22.9828 H   0  0  0  0  0  0
  -31.9357  -22.5607   24.1161 H   0  0  0  0  0  0
  -27.7778  -25.0039   18.6068 H   0  0  0  0  0  0
  -29.4283  -25.0073   18.9854 H   0  0  0  0  0  0
  -27.4371  -23.0779   20.3391 H   0  0  0  0  0  0
  1 25  1  0  0  0
  1 30  2  0  0  0
  1 88  1  0  0  0
  2  3  1  0  0  0
  2 25  1  0  0  0
  2 90  1  0  0  0
  2 91  1  0  0  0
  3  4  1  0  0  0
  3 92  1  0  0  0
  3 93  1  0  0  0
  4  5  1  0  0  0
  4 94  1  0  0  0
  4 95  1  0  0  0
  5  6  1  0  0  0
  5 26  1  0  0  0
  5 96  1  0  0  0
  6 25  1  0  0  0
  6 97  1  0  0  0
  6 98  1  0  0  0
  7  8  2  0  0  0
  7 26  1  0  0  0
  7 29  1  0  0  0
  8  9  1  0  0  0
  8 22  1  0  0  0
  9 10  1  0  0  0
  9 27  2  0  0  0
 10 11  2  0  0  0
 10 15  1  0  0  0
 11 12  1  0  0  0
 11 99  1  0  0  0
 12 13  2  0  0  0
 12100  1  0  0  0
 13 14  1  0  0  0
 13 31  1  0  0  0
 14 15  2  0  0  0
 14101  1  0  0  0
 15102  1  0  0  0
 16 17  2  0  0  0
 16 21  1  0  0  0
 16 31  1  0  0  0
 17 18  1  0  0  0
 17103  1  0  0  0
 18 19  2  0  0  0
 18104  1  0  0  0
 19 20  1  0  0  0
 19 24  1  0  0  0
 20 21  2  0  0  0
 20105  1  0  0  0
 21 23  1  0  0  0
 22 28  1  0  0  0
 22 32  2  0  0  0
 26 27  1  0  0  0
 28106  1  0  0  0
 28107  1  0  0  0
 29108  1  0  0  0
 29109  1  0  0  0
 33 34  1  0  0  0
 33 66  1  0  0  0
 33 70  2  0  0  0
 34 36  1  0  0  0
 34 59  1  0  0  0
 34110  1  0  0  0
 35 44  2  0  0  0
 35 45  1  0  0  0
 35 68  1  0  0  0
 36 56  1  0  0  0
 36111  1  0  0  0
 37 39  1  0  0  0
 37 47  1  0  0  0
 37 66  1  0  0  0
 37112  1  0  0  0
 38 43  2  0  0  0
 38 46  1  0  0  0
 38 47  1  0  0  0
 39 64  1  0  0  0
 39 67  2  0  0  0
 40 52  1  0  0  0
 40 53  2  0  0  0
 40 58  1  0  0  0
 41113  1  0  0  0
 41114  1  0  0  0
 41115  1  0  0  0
 41 48  1  0  0  0
 42 43  1  0  0  0
 42 66  1  0  0  0
 42116  1  0  0  0
 42117  1  0  0  0
 43 44  1  0  0  0
 44118  1  0  0  0
 45 46  2  0  0  0
 45119  1  0  0  0
 46120  1  0  0  0
 47121  1  0  0  0
 47122  1  0  0  0
 48 56  1  0  0  0
 48 65  1  0  0  0
 48123  1  0  0  0
 49 50  1  0  0  0
 49 53  1  0  0  0
 49 64  1  0  0  0
 49124  1  0  0  0
 50 51  1  0  0  0
 50125  1  0  0  0
 50126  1  0  0  0
 51 52  1  0  0  0
 51127  1  0  0  0
 51128  1  0  0  0
 52129  1  0  0  0
 52130  1  0  0  0
 53 54  1  0  0  0
 54 55  2  0  0  0
 54131  1  0  0  0
 55 57  1  0  0  0
 55132  1  0  0  0
 56 69  2  0  0  0
 57 58  2  0  0  0
 57133  1  0  0  0
 58134  1  0  0  0
 59 60  1  0  0  0
 59 61  1  0  0  0
 59 62  1  0  0  0
 60135  1  0  0  0
 60136  1  0  0  0
 60137  1  0  0  0
 61138  1  0  0  0
 61139  1  0  0  0
 61140  1  0  0  0
 62141  1  0  0  0
 62142  1  0  0  0
 62143  1  0  0  0
 63 65  1  0  0  0
 63144  1  0  0  0
 63145  1  0  0  0
 63146  1  0  0  0
 64147  1  0  0  0
 65148  1  0  0  0
 68 85  1  0  0  0
 71 72  1  0  0  0
 71 73  2  0  0  0
 71 80  1  0  0  0
 72 74  2  0  0  0
 72 84  1  0  0  0
 73 86  1  0  0  0
 73 87  1  0  0  0
 74 87  1  0  0  0
 74 89  1  0  0  0
 75 77  1  0  0  0
 75 79  1  0  0  0
 75149  1  0  0  0
 75150  1  0  0  0
 76 78  1  0  0  0
 76 79  1  0  0  0
 76151  1  0  0  0
 76152  1  0  0  0
 77 88  1  0  0  0
 77153  1  0  0  0
 77154  1  0  0  0
 78 88  1  0  0  0
 78155  1  0  0  0
 78156  1  0  0  0
 79 87  1  0  0  0
 79157  1  0  0  0
 80158  1  0  0  0
 80159  1  0  0  0
 80160  1  0  0  0
 81 84  1  0  0  0
 81161  1  0  0  0
 81162  1  0  0  0
 81163  1  0  0  0
 82164  1  0  0  0
 82165  1  0  0  0
 82166  1  0  0  0
 82 86  1  0  0  0
 83 89  1  0  0  0
 83167  1  0  0  0
 83168  1  0  0  0
 83169  1  0  0  0
 84170  1  0  0  0
 84171  1  0  0  0
 85 86  1  0  0  0
 85172  1  0  0  0
 85173  1  0  0  0
 86174  1  0  0  0
M  ISO  4   1 100  68 101  85 101  88 100
M  END
> <chiral flag>
0

> <version>
0

> <s_m_source_file>
/data/baiqing/PycharmProjects/Reinvent-master-3.2/result/LINK_invent/BTK/process_docking_weight1_custom_sum_contain_oxygen_bond_distance_aromatic_linkinvent_7_9_3/rearranged_h_0163.sdf

> <i_m_source_file_index>
84

> <r_mmod_Potential_Energy-OPLS-2005>
953.542663574219

> <r_mmod_Stretch_Energy-OPLS-2005>
254.955017089844

> <r_mmod_Bend_Energy-OPLS-2005>
460.300445556641

> <r_mmod_Torsional_Energy-OPLS-2005>
456.506317138672

> <r_mmod_Improper_Torsional_Energy-OPLS-2005>
8.33102321624756

> <r_mmod_Van_der_Waal_Energy-OPLS-2005>
134.560760498047

> <r_mmod_Electrostatic_Energy-OPLS-2005>
-317.610321044922

> <r_mmod_Solvation_Energy-OPLS-2005>
-203.753936767578

> <b_mmod_Minimization_Converged-OPLS-2005>
0

> <r_mmod_RMS_Derivative-OPLS-2005>
6.235680103302

$$$$
84
                    3D
 Structure written by MMmdl.
171180  0  0  1  0            999 V2000
  -30.7022  -14.7884   20.4558 C   0  0  0  0  0  0
  -30.4065  -12.4972   19.4845 C   0  0  0  0  0  0
  -29.4982  -12.4916   18.2402 C   0  0  0  0  0  0
  -28.0339  -12.2912   18.6652 C   0  0  0  0  0  0
  -27.6252  -13.2300   19.8291 C   0  0  2  0  0  0
  -28.6736  -13.2638   20.9674 C   0  0  0  0  0  0
  -25.2447  -13.8175   20.5691 C   0  0  0  0  0  0
  -24.1761  -13.0421   20.9235 C   0  0  0  0  0  0
  -24.6362  -11.6906   20.8774 C   0  0  0  0  0  0
  -23.9054  -10.4280   21.0421 C   0  0  0  0  0  0
  -24.3615   -9.4193   21.9191 C   0  0  0  0  0  0
  -23.6298   -8.2222   22.0749 C   0  0  0  0  0  0
  -22.4281   -8.0261   21.3539 C   0  0  0  0  0  0
  -21.9911   -9.0235   20.4643 C   0  0  0  0  0  0
  -22.7234  -10.2118   20.3063 C   0  0  0  0  0  0
  -21.6846   -6.0730   22.5283 C   0  0  0  0  0  0
  -21.4007   -6.5639   23.8217 C   0  0  0  0  0  0
  -21.3660   -5.6793   24.9181 C   0  0  0  0  0  0
  -21.6049   -4.3056   24.7227 C   0  0  0  0  0  0
  -21.8819   -3.8143   23.4350 C   0  0  0  0  0  0
  -21.9190   -4.6956   22.3404 C   0  0  0  0  0  0
  -22.7790  -13.5213   21.1884 C   0  0  0  0  0  0
  -22.1662   -4.2147   21.0983 F   0  0  0  0  0  0
  -21.5631   -3.4540   25.7740 F   0  0  0  0  0  0
  -29.9606  -13.6196   20.3586 N   0  0  0  0  0  0
  -26.2857  -12.9381   20.3227 N   0  0  0  0  0  0
  -25.9287  -11.6534   20.5768 N   0  0  0  0  0  0
  -22.0437  -12.8211   22.0444 N   0  0  0  0  0  0
  -25.4088  -15.1896   20.4071 N   0  0  0  0  0  0
  -31.9027  -14.6935   20.1850 O   0  0  0  0  0  0
  -21.6636   -6.8864   21.4241 O   0  0  0  0  0  0
  -22.3483  -14.5517   20.6724 O   0  0  0  0  0  0
  -24.6330  -31.8551   23.1977 C   0  0  0  0  0  0
  -25.9151  -32.4756   23.8329 C   0  0  1  0  0  0
  -27.2122  -27.2494   20.1369 C   0  0  0  0  0  0
  -25.5941  -33.8556   24.2249 N   0  0  0  0  0  0
  -23.4307  -30.4778   21.5420 C   0  0  2  0  0  0
  -24.8801  -28.9261   20.1080 C   0  0  0  0  0  0
  -22.7514  -29.4604   22.4911 C   0  0  0  0  0  0
  -18.0296  -28.1386   22.8486 C   0  0  0  0  0  0
  -24.1489  -36.7278   23.2641 C   0  0  0  0  0  0
  -25.9790  -30.7633   21.3821 C   0  0  0  0  0  0
  -26.0534  -29.3861   20.7220 C   0  0  0  0  0  0
  -27.2276  -28.5602   20.7261 C   0  0  0  0  0  0
  -26.0253  -26.8689   19.4774 C   0  0  0  0  0  0
  -24.8721  -27.6763   19.4712 C   0  0  0  0  0  0
  -23.6502  -29.8131   20.1581 C   0  0  0  0  0  0
  -25.4116  -36.3071   24.0329 C   0  0  1  0  0  0
  -20.5902  -28.3703   23.1266 C   0  0  2  0  0  0
  -20.6784  -26.9417   22.5414 C   0  0  0  0  0  0
  -19.5759  -26.6379   21.5217 C   0  0  0  0  0  0
  -18.1938  -26.7931   22.1623 C   0  0  0  0  0  0
  -19.1549  -28.8859   23.2871 C   0  0  0  0  0  0
  -18.9471  -30.1460   23.8889 C   0  0  0  0  0  0
  -17.6470  -30.6590   24.0556 C   0  0  0  0  0  0
  -25.9063  -34.9442   23.5092 C   0  0  0  0  0  0
  -16.5361  -29.9084   23.6333 C   0  0  0  0  0  0
  -16.7280  -28.6498   23.0361 C   0  0  0  0  0  0
  -26.4505  -31.6588   25.0731 C   0  0  0  0  0  0
  -25.3709  -31.3759   26.1441 C   0  0  0  0  0  0
  -27.0356  -30.2998   24.6250 C   0  0  0  0  0  0
  -27.6063  -32.4327   25.7502 C   0  0  0  0  0  0
  -27.5583  -37.1793   24.8462 C   0  0  0  0  0  0
  -21.4223  -29.3046   22.3651 N   0  0  0  0  0  0
  -26.4292  -37.3773   23.9416 N   0  0  0  0  0  0
  -24.6998  -31.0504   22.0967 N   0  0  0  0  0  0
  -23.4212  -28.8149   23.3015 O   0  0  0  0  0  0
  -28.2432  -26.2794   20.1962 O   0  0  0  0  0  0
  -26.5640  -34.8920   22.4666 O   0  0  0  0  0  0
  -23.5476  -32.1386   23.7267 O   0  0  0  0  0  0
  -29.0231  -22.9570   19.6806 C   0  0  0  0  0  0
  -28.3980  -23.5285   20.8236 C   0  0  0  0  0  0
  -29.3614  -21.5534   19.5667 C   0  0  0  0  0  0
  -28.1323  -22.5738   21.8680 C   0  0  0  0  0  0
  -28.4838  -21.1699   21.7777 C   0  0  0  0  0  0
  -29.0929  -20.5988   20.6136 C   0  0  0  0  0  0
  -30.7050  -18.6580   20.9989 C   0  0  0  0  0  0
  -28.4138  -18.0977   20.3702 C   0  0  0  0  0  0
  -31.1049  -17.2665   20.3746 C   0  0  0  0  0  0
  -28.8089  -16.6223   20.8776 C   0  0  0  0  0  0
  -27.4366  -23.0854   23.1350 C   0  0  0  0  0  0
  -28.1960  -20.2632   22.9754 C   0  0  0  0  0  0
  -31.3934  -21.7465   18.0534 C   0  0  0  0  0  0
  -29.0943  -21.3123   17.0513 C   0  0  0  0  0  0
  -27.8795  -25.0530   20.9886 C   0  0  0  0  0  0
  -30.0176  -21.0918   18.2608 C   0  0  0  0  0  0
  -29.4244  -19.1748   20.5106 N   0  0  0  0  0  0
  -30.1768  -16.0988   20.5726 N   0  0  0  0  0  0
  -31.4480  -12.5786   19.1701 H   0  0  0  0  0  0
  -30.3399  -11.5460   20.0164 H   0  0  0  0  0  0
  -29.8009  -11.7007   17.5526 H   0  0  0  0  0  0
  -29.6043  -13.4321   17.6969 H   0  0  0  0  0  0
  -27.9225  -11.2507   18.9747 H   0  0  0  0  0  0
  -27.3670  -12.4273   17.8125 H   0  0  0  0  0  0
  -27.5839  -14.2146   19.3694 H   0  0  0  0  0  0
  -28.7368  -12.2980   21.4704 H   0  0  0  0  0  0
  -28.3958  -13.9858   21.7354 H   0  0  0  0  0  0
  -25.2749   -9.5682   22.4778 H   0  0  0  0  0  0
  -24.0004   -7.4617   22.7475 H   0  0  0  0  0  0
  -21.0835   -8.8764   19.8962 H   0  0  0  0  0  0
  -22.3684  -10.9665   19.6186 H   0  0  0  0  0  0
  -21.2001   -7.6147   23.9723 H   0  0  0  0  0  0
  -21.1486   -6.0520   25.9088 H   0  0  0  0  0  0
  -22.0599   -2.7603   23.2847 H   0  0  0  0  0  0
  -22.4051  -11.9876   22.4840 H   0  0  0  0  0  0
  -21.1056  -13.1244   22.2646 H   0  0  0  0  0  0
  -24.6372  -15.8374   20.5204 H   0  0  0  0  0  0
  -26.2478  -15.6285   20.0546 H   0  0  0  0  0  0
  -26.7220  -32.5402   23.1073 H   0  0  0  0  0  0
  -25.0068  -33.9684   25.0382 H   0  0  0  0  0  0
  -22.7280  -31.3009   21.3960 H   0  0  0  0  0  0
  -23.3766  -35.9596   23.3290 H   0  0  0  0  0  0
  -24.3574  -36.8918   22.2057 H   0  0  0  0  0  0
  -23.7221  -37.6467   23.6672 H   0  0  0  0  0  0
  -26.1230  -31.5244   20.6141 H   0  0  0  0  0  0
  -26.8544  -30.8104   22.0185 H   0  0  0  0  0  0
  -28.1207  -28.9014   21.2314 H   0  0  0  0  0  0
  -25.9744  -25.9020   18.9963 H   0  0  0  0  0  0
  -23.9768  -27.3201   18.9805 H   0  0  0  0  0  0
  -23.7724  -30.5902   19.4028 H   0  0  0  0  0  0
  -22.7686  -29.2467   19.8523 H   0  0  0  0  0  0
  -25.1299  -36.1918   25.0822 H   0  0  0  0  0  0
  -20.9993  -28.3281   24.1387 H   0  0  0  0  0  0
  -20.5679  -26.2316   23.3625 H   0  0  0  0  0  0
  -21.6651  -26.7436   22.1209 H   0  0  0  0  0  0
  -19.6920  -25.6287   21.1256 H   0  0  0  0  0  0
  -19.6696  -27.3182   20.6741 H   0  0  0  0  0  0
  -17.4215  -26.6689   21.4018 H   0  0  0  0  0  0
  -18.0325  -26.0068   22.9008 H   0  0  0  0  0  0
  -19.7947  -30.7274   24.2259 H   0  0  0  0  0  0
  -17.5027  -31.6270   24.5156 H   0  0  0  0  0  0
  -15.5362  -30.2984   23.7661 H   0  0  0  0  0  0
  -15.8681  -28.0809   22.7093 H   0  0  0  0  0  0
  -24.5884  -30.7113   25.7763 H   0  0  0  0  0  0
  -24.8898  -32.2937   26.4833 H   0  0  0  0  0  0
  -25.8000  -30.8951   27.0241 H   0  0  0  0  0  0
  -26.2953  -29.6741   24.1251 H   0  0  0  0  0  0
  -27.3996  -29.7272   25.4793 H   0  0  0  0  0  0
  -27.8850  -30.4261   23.9532 H   0  0  0  0  0  0
  -27.2681  -33.3636   26.2064 H   0  0  0  0  0  0
  -28.3879  -32.6871   25.0332 H   0  0  0  0  0  0
  -28.0725  -31.8460   26.5429 H   0  0  0  0  0  0
  -28.2600  -38.0094   24.7528 H   0  0  0  0  0  0
  -28.1083  -36.2629   24.6264 H   0  0  0  0  0  0
  -27.2307  -37.1413   25.8867 H   0  0  0  0  0  0
  -20.9418  -29.8758   21.6839 H   0  0  0  0  0  0
  -26.0173  -38.2851   24.1419 H   0  0  0  0  0  0
  -29.2328  -23.6147   18.8494 H   0  0  0  0  0  0
  -31.4844  -19.3896   20.7792 H   0  0  0  0  0  0
  -30.6692  -18.5742   22.0857 H   0  0  0  0  0  0
  -27.4873  -18.4089   20.8544 H   0  0  0  0  0  0
  -28.1773  -18.0392   19.3066 H   0  0  0  0  0  0
  -32.0880  -17.0337   20.7878 H   0  0  0  0  0  0
  -31.2580  -17.3886   19.3011 H   0  0  0  0  0  0
  -28.0645  -15.9415   20.4873 H   0  0  0  0  0  0
  -28.6948  -16.5851   21.9616 H   0  0  0  0  0  0
  -26.6098  -23.7531   22.8987 H   0  0  0  0  0  0
  -28.1472  -23.6298   23.7577 H   0  0  0  0  0  0
  -26.9881  -22.3103   23.7516 H   0  0  0  0  0  0
  -28.5776  -20.7068   23.8947 H   0  0  0  0  0  0
  -28.6542  -19.2796   22.9109 H   0  0  0  0  0  0
  -27.1218  -20.1091   23.0791 H   0  0  0  0  0  0
  -32.0607  -21.5196   18.8854 H   0  0  0  0  0  0
  -31.3240  -22.8310   17.9686 H   0  0  0  0  0  0
  -31.8704  -21.3767   17.1457 H   0  0  0  0  0  0
  -28.1419  -20.7998   17.1923 H   0  0  0  0  0  0
  -29.5444  -20.9173   16.1404 H   0  0  0  0  0  0
  -28.8822  -22.3680   16.8818 H   0  0  0  0  0  0
  -28.1532  -25.3463   22.0022 H   0  0  0  0  0  0
  -26.7939  -24.9593   21.0113 H   0  0  0  0  0  0
  -30.1998  -20.0189   18.3050 H   0  0  0  0  0  0
  1 25  1  0  0  0
  1 30  2  0  0  0
  1 88  1  0  0  0
  2  3  1  0  0  0
  2 25  1  0  0  0
  2 89  1  0  0  0
  2 90  1  0  0  0
  3  4  1  0  0  0
  3 91  1  0  0  0
  3 92  1  0  0  0
  4  5  1  0  0  0
  4 93  1  0  0  0
  4 94  1  0  0  0
  5  6  1  0  0  0
  5 26  1  0  0  0
  5 95  1  0  0  0
  6 25  1  0  0  0
  6 96  1  0  0  0
  6 97  1  0  0  0
  7  8  2  0  0  0
  7 26  1  0  0  0
  7 29  1  0  0  0
  8  9  1  0  0  0
  8 22  1  0  0  0
  9 10  1  0  0  0
  9 27  2  0  0  0
 10 11  2  0  0  0
 10 15  1  0  0  0
 11 12  1  0  0  0
 11 98  1  0  0  0
 12 13  2  0  0  0
 12 99  1  0  0  0
 13 14  1  0  0  0
 13 31  1  0  0  0
 14 15  2  0  0  0
 14100  1  0  0  0
 15101  1  0  0  0
 16 17  2  0  0  0
 16 21  1  0  0  0
 16 31  1  0  0  0
 17 18  1  0  0  0
 17102  1  0  0  0
 18 19  2  0  0  0
 18103  1  0  0  0
 19 20  1  0  0  0
 19 24  1  0  0  0
 20 21  2  0  0  0
 20104  1  0  0  0
 21 23  1  0  0  0
 22 28  1  0  0  0
 22 32  2  0  0  0
 26 27  1  0  0  0
 28105  1  0  0  0
 28106  1  0  0  0
 29107  1  0  0  0
 29108  1  0  0  0
 33 34  1  0  0  0
 33 66  1  0  0  0
 33 70  2  0  0  0
 34 36  1  0  0  0
 34 59  1  0  0  0
 34109  1  0  0  0
 35 44  2  0  0  0
 35 45  1  0  0  0
 35 68  1  0  0  0
 36 56  1  0  0  0
 36110  1  0  0  0
 37 39  1  0  0  0
 37 47  1  0  0  0
 37 66  1  0  0  0
 37111  1  0  0  0
 38 43  2  0  0  0
 38 46  1  0  0  0
 38 47  1  0  0  0
 39 64  1  0  0  0
 39 67  2  0  0  0
 40 52  1  0  0  0
 40 53  2  0  0  0
 40 58  1  0  0  0
 41112  1  0  0  0
 41113  1  0  0  0
 41114  1  0  0  0
 41 48  1  0  0  0
 42 43  1  0  0  0
 42 66  1  0  0  0
 42115  1  0  0  0
 42116  1  0  0  0
 43 44  1  0  0  0
 44117  1  0  0  0
 45 46  2  0  0  0
 45118  1  0  0  0
 46119  1  0  0  0
 47120  1  0  0  0
 47121  1  0  0  0
 48 56  1  0  0  0
 48 65  1  0  0  0
 48122  1  0  0  0
 49 50  1  0  0  0
 49 53  1  0  0  0
 49 64  1  0  0  0
 49123  1  0  0  0
 50 51  1  0  0  0
 50124  1  0  0  0
 50125  1  0  0  0
 51 52  1  0  0  0
 51126  1  0  0  0
 51127  1  0  0  0
 52128  1  0  0  0
 52129  1  0  0  0
 53 54  1  0  0  0
 54 55  2  0  0  0
 54130  1  0  0  0
 55 57  1  0  0  0
 55131  1  0  0  0
 56 69  2  0  0  0
 57 58  2  0  0  0
 57132  1  0  0  0
 58133  1  0  0  0
 59 60  1  0  0  0
 59 61  1  0  0  0
 59 62  1  0  0  0
 60134  1  0  0  0
 60135  1  0  0  0
 60136  1  0  0  0
 61137  1  0  0  0
 61138  1  0  0  0
 61139  1  0  0  0
 62140  1  0  0  0
 62141  1  0  0  0
 62142  1  0  0  0
 63 65  1  0  0  0
 63143  1  0  0  0
 63144  1  0  0  0
 63145  1  0  0  0
 64146  1  0  0  0
 65147  1  0  0  0
 68 85  1  0  0  0
 71 72  2  0  0  0
 71 73  1  0  0  0
 71148  1  0  0  0
 72 74  1  0  0  0
 72 85  1  0  0  0
 73 76  2  0  0  0
 73 86  1  0  0  0
 74 75  2  0  0  0
 74 81  1  0  0  0
 75 76  1  0  0  0
 75 82  1  0  0  0
 76 87  1  0  0  0
 77 79  1  0  0  0
 77 87  1  0  0  0
 77149  1  0  0  0
 77150  1  0  0  0
 78 80  1  0  0  0
 78 87  1  0  0  0
 78151  1  0  0  0
 78152  1  0  0  0
 79 88  1  0  0  0
 79153  1  0  0  0
 79154  1  0  0  0
 80 88  1  0  0  0
 80155  1  0  0  0
 80156  1  0  0  0
 81157  1  0  0  0
 81158  1  0  0  0
 81159  1  0  0  0
 82160  1  0  0  0
 82161  1  0  0  0
 82162  1  0  0  0
 83163  1  0  0  0
 83164  1  0  0  0
 83165  1  0  0  0
 83 86  1  0  0  0
 84 86  1  0  0  0
 84166  1  0  0  0
 84167  1  0  0  0
 84168  1  0  0  0
 85169  1  0  0  0
 85170  1  0  0  0
 86171  1  0  0  0
M  ISO  4   1 100  68 101  85 101  88 100
M  END
> <chiral flag>
0

> <version>
0

> <s_m_source_file>
/data/baiqing/PycharmProjects/Reinvent-master-3.2/result/LINK_invent/BTK/process_docking_weight1_custom_sum_contain_oxygen_bond_distance_aromatic_linkinvent_7_9_3/rearranged_h_0163.sdf

> <i_m_source_file_index>
85

> <r_mmod_Potential_Energy-OPLS-2005>
495.340087890625

> <r_mmod_Stretch_Energy-OPLS-2005>
139.408996582031

> <r_mmod_Bend_Energy-OPLS-2005>
238.543365478516

> <r_mmod_Torsional_Energy-OPLS-2005>
383.588714599609

> <r_mmod_Improper_Torsional_Energy-OPLS-2005>
7.64369916915894

> <r_mmod_Van_der_Waal_Energy-OPLS-2005>
166.686416625977

> <r_mmod_Electrostatic_Energy-OPLS-2005>
-356.491455078125

> <r_mmod_Solvation_Energy-OPLS-2005>
-199.069580078125

> <b_mmod_Minimization_Converged-OPLS-2005>
0

> <r_mmod_RMS_Derivative-OPLS-2005>
1.0479873418808

$$$$
85
                    3D
 Structure written by MMmdl.
192202  0  0  1  0            999 V2000
  -30.6068  -14.7635   20.4699 C   0  0  0  0  0  0
  -30.4368  -12.4518   19.4947 C   0  0  0  0  0  0
  -29.5207  -12.4637   18.2501 C   0  0  0  0  0  0
  -28.0447  -12.2944   18.6597 C   0  0  0  0  0  0
  -27.6401  -13.2221   19.8337 C   0  0  2  0  0  0
  -28.6769  -13.1797   20.9716 C   0  0  0  0  0  0
  -25.2558  -13.8184   20.5666 C   0  0  0  0  0  0
  -24.1830  -13.0452   20.9190 C   0  0  0  0  0  0
  -24.6400  -11.6915   20.8753 C   0  0  0  0  0  0
  -23.9078  -10.4295   21.0435 C   0  0  0  0  0  0
  -24.3617   -9.4204   21.9211 C   0  0  0  0  0  0
  -23.6283   -8.2242   22.0767 C   0  0  0  0  0  0
  -22.4279   -8.0284   21.3537 C   0  0  0  0  0  0
  -21.9922   -9.0269   20.4651 C   0  0  0  0  0  0
  -22.7260  -10.2141   20.3072 C   0  0  0  0  0  0
  -21.6847   -6.0730   22.5274 C   0  0  0  0  0  0
  -21.4017   -6.5635   23.8207 C   0  0  0  0  0  0
  -21.3659   -5.6789   24.9165 C   0  0  0  0  0  0
  -21.6048   -4.3055   24.7224 C   0  0  0  0  0  0
  -21.8819   -3.8146   23.4346 C   0  0  0  0  0  0
  -21.9193   -4.6958   22.3397 C   0  0  0  0  0  0
  -22.7858  -13.5247   21.1883 C   0  0  0  0  0  0
  -22.1662   -4.2147   21.0966 F   0  0  0  0  0  0
  -21.5633   -3.4532   25.7731 F   0  0  0  0  0  0
  -29.9849  -13.5312   20.4064 N   0  0  0  0  0  0
  -26.2926  -12.9352   20.3177 N   0  0  0  0  0  0
  -25.9318  -11.6521   20.5741 N   0  0  0  0  0  0
  -22.0483  -12.8200   22.0399 N   0  0  0  0  0  0
  -25.4358  -15.1888   20.4089 N   0  0  0  0  0  0
  -31.8079  -14.8196   20.1909 O   0  0  0  0  0  0
  -21.6639   -6.8880   21.4237 O   0  0  0  0  0  0
  -22.3551  -14.5572   20.6775 O   0  0  0  0  0  0
  -24.6356  -31.8507   23.1989 C   0  0  0  0  0  0
  -25.9169  -32.4713   23.8333 C   0  0  1  0  0  0
  -27.2131  -27.2314   20.1339 C   0  0  0  0  0  0
  -25.5940  -33.8524   24.2246 N   0  0  0  0  0  0
  -23.4351  -30.4779   21.5371 C   0  0  2  0  0  0
  -24.8811  -28.9277   20.0972 C   0  0  0  0  0  0
  -22.7530  -29.4600   22.4839 C   0  0  0  0  0  0
  -18.0317  -28.1353   22.8398 C   0  0  0  0  0  0
  -24.1495  -36.7292   23.2652 C   0  0  0  0  0  0
  -25.9848  -30.7573   21.3807 C   0  0  0  0  0  0
  -26.0524  -29.3781   20.7173 C   0  0  0  0  0  0
  -27.2179  -28.5461   20.7241 C   0  0  0  0  0  0
  -26.0253  -26.8696   19.4575 C   0  0  0  0  0  0
  -24.8742  -27.6799   19.4518 C   0  0  0  0  0  0
  -23.6557  -29.8212   20.1494 C   0  0  0  0  0  0
  -25.4128  -36.3073   24.0330 C   0  0  1  0  0  0
  -20.5927  -28.3659   23.1237 C   0  0  2  0  0  0
  -20.6805  -26.9366   22.5419 C   0  0  0  0  0  0
  -19.5794  -26.6353   21.5213 C   0  0  0  0  0  0
  -18.1956  -26.7893   22.1559 C   0  0  0  0  0  0
  -19.1565  -28.8801   23.2813 C   0  0  0  0  0  0
  -18.9492  -30.1396   23.8845 C   0  0  0  0  0  0
  -17.6487  -30.6519   24.0528 C   0  0  0  0  0  0
  -25.9079  -34.9441   23.5111 C   0  0  0  0  0  0
  -16.5360  -29.9036   23.6320 C   0  0  0  0  0  0
  -16.7307  -28.6469   23.0309 C   0  0  0  0  0  0
  -26.4502  -31.6566   25.0736 C   0  0  0  0  0  0
  -25.3722  -31.3730   26.1446 C   0  0  0  0  0  0
  -27.0395  -30.3020   24.6242 C   0  0  0  0  0  0
  -27.6016  -32.4353   25.7493 C   0  0  0  0  0  0
  -27.5590  -37.1770   24.8440 C   0  0  0  0  0  0
  -21.4219  -29.3013   22.3591 N   0  0  0  0  0  0
  -26.4286  -37.3787   23.9426 N   0  0  0  0  0  0
  -24.7043  -31.0440   22.0958 N   0  0  0  0  0  0
  -23.4235  -28.8114   23.2914 O   0  0  0  0  0  0
  -28.2819  -26.3021   20.2204 O   0  0  0  0  0  0
  -26.5654  -34.8915   22.4691 O   0  0  0  0  0  0
  -23.5510  -32.1325   23.7285 O   0  0  0  0  0  0
  -30.9918  -18.0765   14.3085 C   0  0  0  0  0  0
  -31.1473  -17.6500   15.6418 C   0  0  0  0  0  0
  -31.9180  -18.4324   16.5347 C   0  0  0  0  0  0
  -31.5546  -19.2929   13.8684 C   0  0  0  0  0  0
  -32.5392  -19.6305   16.0925 C   0  0  0  0  0  0
  -32.3050  -20.0927   14.7684 C   0  0  0  0  0  0
  -30.4429  -16.3634   16.1058 C   0  0  0  0  0  0
  -31.9818  -17.9821   17.9862 C   0  0  0  0  0  0
  -30.3711  -16.1481   17.6380 C   0  0  0  0  0  0
  -30.2014  -19.9694   21.4865 C   0  0  0  0  0  0
  -28.5377  -19.7513   19.7137 C   0  0  0  0  0  0
  -30.2121  -21.5540   21.2510 C   0  0  0  0  0  0
  -28.6033  -21.3254   19.4292 C   0  0  0  0  0  0
  -30.6044  -17.4495   18.4215 C   0  0  1  0  0  0
  -29.8993  -19.1412   20.2047 C   0  0  2  0  0  0
  -31.3435  -19.7186   12.4218 C   0  0  0  0  0  0
  -33.4477  -20.4152   17.0357 C   0  0  0  0  0  0
  -32.8386  -21.4475   14.3022 C   0  0  0  0  0  0
  -29.7375  -16.4177   22.2153 C   0  0  0  0  0  0
  -27.2968  -24.6507   21.7637 C   0  0  0  0  0  0
  -29.2105  -23.7251   20.3098 C   0  0  0  0  0  0
  -29.8235  -16.1777   20.6964 C   0  0  1  0  0  0
  -30.3906  -17.5537   19.9789 C   0  0  1  0  0  0
  -27.9991  -24.8122   20.4033 C   0  0  1  0  0  0
  -29.0068  -22.1964   20.5961 N   0  3  2  0  0  0
  -31.4815  -12.5593   19.2024 H   0  0  0  0  0  0
  -30.3749  -11.4864   20.0006 H   0  0  0  0  0  0
  -29.8078  -11.6602   17.5700 H   0  0  0  0  0  0
  -29.6510  -13.3897   17.6948 H   0  0  0  0  0  0
  -27.9144  -11.2525   18.9567 H   0  0  0  0  0  0
  -27.3860  -12.4476   17.8030 H   0  0  0  0  0  0
  -27.6316  -14.2326   19.4250 H   0  0  0  0  0  0
  -28.7120  -12.1888   21.4281 H   0  0  0  0  0  0
  -28.3879  -13.8627   21.7663 H   0  0  0  0  0  0
  -25.2758   -9.5665   22.4801 H   0  0  0  0  0  0
  -23.9989   -7.4625   22.7483 H   0  0  0  0  0  0
  -21.0864   -8.8786   19.8951 H   0  0  0  0  0  0
  -22.3733  -10.9676   19.6180 H   0  0  0  0  0  0
  -21.2011   -7.6139   23.9710 H   0  0  0  0  0  0
  -21.1488   -6.0510   25.9061 H   0  0  0  0  0  0
  -22.0610   -2.7607   23.2834 H   0  0  0  0  0  0
  -22.4045  -11.9749   22.4616 H   0  0  0  0  0  0
  -21.1140  -13.1277   22.2713 H   0  0  0  0  0  0
  -24.6852  -15.8604   20.5277 H   0  0  0  0  0  0
  -26.2990  -15.6139   20.0961 H   0  0  0  0  0  0
  -26.7158  -32.5310   23.0996 H   0  0  0  0  0  0
  -25.0039  -33.9645   25.0358 H   0  0  0  0  0  0
  -22.7350  -31.3013   21.3917 H   0  0  0  0  0  0
  -23.3763  -35.9599   23.3277 H   0  0  0  0  0  0
  -24.3638  -36.9004   22.2088 H   0  0  0  0  0  0
  -23.7217  -37.6459   23.6705 H   0  0  0  0  0  0
  -26.1409  -31.5194   20.6142 H   0  0  0  0  0  0
  -26.8572  -30.7952   22.0220 H   0  0  0  0  0  0
  -28.1071  -28.8787   21.2394 H   0  0  0  0  0  0
  -25.9520  -25.9299   18.9321 H   0  0  0  0  0  0
  -23.9820  -27.3396   18.9386 H   0  0  0  0  0  0
  -23.7847  -30.6046   19.4049 H   0  0  0  0  0  0
  -22.7705  -29.2646   19.8338 H   0  0  0  0  0  0
  -25.1295  -36.1919   25.0811 H   0  0  0  0  0  0
  -20.9989  -28.3208   24.1365 H   0  0  0  0  0  0
  -20.5758  -26.2206   23.3605 H   0  0  0  0  0  0
  -21.6659  -26.7422   22.1156 H   0  0  0  0  0  0
  -19.7005  -25.6297   21.1179 H   0  0  0  0  0  0
  -19.6757  -27.3154   20.6762 H   0  0  0  0  0  0
  -17.4266  -26.6648   21.3924 H   0  0  0  0  0  0
  -18.0285  -26.0066   22.8960 H   0  0  0  0  0  0
  -19.7986  -30.7226   24.2146 H   0  0  0  0  0  0
  -17.5061  -31.6205   24.5123 H   0  0  0  0  0  0
  -15.5344  -30.2906   23.7717 H   0  0  0  0  0  0
  -15.8724  -28.0820   22.6987 H   0  0  0  0  0  0
  -24.5946  -30.7011   25.7822 H   0  0  0  0  0  0
  -24.8824  -32.2878   26.4785 H   0  0  0  0  0  0
  -25.8064  -30.9017   27.0280 H   0  0  0  0  0  0
  -26.2996  -29.6677   24.1344 H   0  0  0  0  0  0
  -27.4206  -29.7394   25.4762 H   0  0  0  0  0  0
  -27.8795  -30.4350   23.9427 H   0  0  0  0  0  0
  -27.2629  -33.3747   26.1885 H   0  0  0  0  0  0
  -28.3873  -32.6800   25.0321 H   0  0  0  0  0  0
  -28.0578  -31.8599   26.5550 H   0  0  0  0  0  0
  -28.2489  -38.0169   24.7655 H   0  0  0  0  0  0
  -28.1189  -36.2735   24.6037 H   0  0  0  0  0  0
  -27.2351  -37.1170   25.8838 H   0  0  0  0  0  0
  -20.9403  -29.8825   21.6861 H   0  0  0  0  0  0
  -26.0163  -38.2821   24.1555 H   0  0  0  0  0  0
  -30.4051  -17.4748   13.6268 H   0  0  0  0  0  0
  -30.9380  -15.5059   15.6438 H   0  0  0  0  0  0
  -29.4270  -16.3674   15.7065 H   0  0  0  0  0  0
  -32.2898  -18.7957   18.6366 H   0  0  0  0  0  0
  -32.7480  -17.2143   18.1019 H   0  0  0  0  0  0
  -31.1497  -15.4293   17.8810 H   0  0  0  0  0  0
  -29.4224  -15.6896   17.9079 H   0  0  0  0  0  0
  -29.4805  -19.7264   22.2628 H   0  0  0  0  0  0
  -31.1729  -19.6757   21.8846 H   0  0  0  0  0  0
  -28.2066  -19.2578   18.7993 H   0  0  0  0  0  0
  -27.7559  -19.5410   20.4457 H   0  0  0  0  0  0
  -31.0821  -21.7998   20.6378 H   0  0  0  0  0  0
  -30.3807  -22.0453   22.2088 H   0  0  0  0  0  0
  -27.6393  -21.6699   19.0548 H   0  0  0  0  0  0
  -29.3168  -21.5004   18.6212 H   0  0  0  0  0  0
  -29.8622  -18.1213   17.9923 H   0  0  0  0  0  0
  -30.5818  -19.6455   19.5212 H   0  0  0  0  0  0
  -31.0187  -18.8835   11.7987 H   0  0  0  0  0  0
  -32.2716  -20.0990   11.9923 H   0  0  0  0  0  0
  -30.5882  -20.5035   12.3513 H   0  0  0  0  0  0
  -33.9981  -19.7517   17.7038 H   0  0  0  0  0  0
  -32.8714  -21.1151   17.6418 H   0  0  0  0  0  0
  -34.2168  -20.9719   16.5017 H   0  0  0  0  0  0
  -32.1487  -21.9359   13.6136 H   0  0  0  0  0  0
  -33.7970  -21.3327   13.7965 H   0  0  0  0  0  0
  -32.9638  -22.1530   15.1228 H   0  0  0  0  0  0
  -29.1809  -17.3222   22.4493 H   0  0  0  0  0  0
  -30.7312  -16.5158   22.6537 H   0  0  0  0  0  0
  -29.2460  -15.5978   22.7384 H   0  0  0  0  0  0
  -27.9823  -24.8728   22.5778 H   0  0  0  0  0  0
  -26.9318  -23.6340   21.9036 H   0  0  0  0  0  0
  -26.4355  -25.3107   21.8727 H   0  0  0  0  0  0
  -29.9435  -24.0742   21.0385 H   0  0  0  0  0  0
  -29.7030  -23.8322   19.3423 H   0  0  0  0  0  0
  -28.8093  -16.0305   20.3287 H   0  0  0  0  0  0
  -31.4001  -17.5695   20.3955 H   0  0  0  0  0  0
  -27.3103  -24.5004   19.6248 H   0  0  0  0  0  0
  -28.2634  -22.1194   21.2727 H   0  0  0  0  0  0
  1 25  1  0  0  0
  1 30  2  0  0  0
  1 92  1  0  0  0
  2  3  1  0  0  0
  2 25  1  0  0  0
  2 96  1  0  0  0
  2 97  1  0  0  0
  3  4  1  0  0  0
  3 98  1  0  0  0
  3 99  1  0  0  0
  4  5  1  0  0  0
  4100  1  0  0  0
  4101  1  0  0  0
  5  6  1  0  0  0
  5 26  1  0  0  0
  5102  1  0  0  0
  6 25  1  0  0  0
  6103  1  0  0  0
  6104  1  0  0  0
  7  8  2  0  0  0
  7 26  1  0  0  0
  7 29  1  0  0  0
  8  9  1  0  0  0
  8 22  1  0  0  0
  9 10  1  0  0  0
  9 27  2  0  0  0
 10 11  2  0  0  0
 10 15  1  0  0  0
 11 12  1  0  0  0
 11105  1  0  0  0
 12 13  2  0  0  0
 12106  1  0  0  0
 13 14  1  0  0  0
 13 31  1  0  0  0
 14 15  2  0  0  0
 14107  1  0  0  0
 15108  1  0  0  0
 16 17  2  0  0  0
 16 21  1  0  0  0
 16 31  1  0  0  0
 17 18  1  0  0  0
 17109  1  0  0  0
 18 19  2  0  0  0
 18110  1  0  0  0
 19 20  1  0  0  0
 19 24  1  0  0  0
 20 21  2  0  0  0
 20111  1  0  0  0
 21 23  1  0  0  0
 22 28  1  0  0  0
 22 32  2  0  0  0
 26 27  1  0  0  0
 28112  1  0  0  0
 28113  1  0  0  0
 29114  1  0  0  0
 29115  1  0  0  0
 33 34  1  0  0  0
 33 66  1  0  0  0
 33 70  2  0  0  0
 34 36  1  0  0  0
 34 59  1  0  0  0
 34116  1  0  0  0
 35 44  2  0  0  0
 35 45  1  0  0  0
 35 68  1  0  0  0
 36 56  1  0  0  0
 36117  1  0  0  0
 37 39  1  0  0  0
 37 47  1  0  0  0
 37 66  1  0  0  0
 37118  1  0  0  0
 38 43  2  0  0  0
 38 46  1  0  0  0
 38 47  1  0  0  0
 39 64  1  0  0  0
 39 67  2  0  0  0
 40 52  1  0  0  0
 40 53  2  0  0  0
 40 58  1  0  0  0
 41119  1  0  0  0
 41120  1  0  0  0
 41121  1  0  0  0
 41 48  1  0  0  0
 42 43  1  0  0  0
 42 66  1  0  0  0
 42122  1  0  0  0
 42123  1  0  0  0
 43 44  1  0  0  0
 44124  1  0  0  0
 45 46  2  0  0  0
 45125  1  0  0  0
 46126  1  0  0  0
 47127  1  0  0  0
 47128  1  0  0  0
 48 56  1  0  0  0
 48 65  1  0  0  0
 48129  1  0  0  0
 49 50  1  0  0  0
 49 53  1  0  0  0
 49 64  1  0  0  0
 49130  1  0  0  0
 50 51  1  0  0  0
 50131  1  0  0  0
 50132  1  0  0  0
 51 52  1  0  0  0
 51133  1  0  0  0
 51134  1  0  0  0
 52135  1  0  0  0
 52136  1  0  0  0
 53 54  1  0  0  0
 54 55  2  0  0  0
 54137  1  0  0  0
 55 57  1  0  0  0
 55138  1  0  0  0
 56 69  2  0  0  0
 57 58  2  0  0  0
 57139  1  0  0  0
 58140  1  0  0  0
 59 60  1  0  0  0
 59 61  1  0  0  0
 59 62  1  0  0  0
 60141  1  0  0  0
 60142  1  0  0  0
 60143  1  0  0  0
 61144  1  0  0  0
 61145  1  0  0  0
 61146  1  0  0  0
 62147  1  0  0  0
 62148  1  0  0  0
 62149  1  0  0  0
 63 65  1  0  0  0
 63150  1  0  0  0
 63151  1  0  0  0
 63152  1  0  0  0
 64153  1  0  0  0
 65154  1  0  0  0
 68 94  1  0  0  0
 71 72  2  0  0  0
 71 74  1  0  0  0
 71155  1  0  0  0
 72 73  1  0  0  0
 72 77  1  0  0  0
 73 75  2  0  0  0
 73 78  1  0  0  0
 74 76  2  0  0  0
 74 86  1  0  0  0
 75 76  1  0  0  0
 75 87  1  0  0  0
 76 88  1  0  0  0
 77 79  1  0  0  0
 77156  1  0  0  0
 77157  1  0  0  0
 78158  1  0  0  0
 78159  1  0  0  0
 78 84  1  0  0  0
 79 84  1  0  0  0
 79160  1  0  0  0
 79161  1  0  0  0
 80 82  1  0  0  0
 80162  1  0  0  0
 80163  1  0  0  0
 80 85  1  0  0  0
 81 83  1  0  0  0
 81 85  1  0  0  0
 81164  1  0  0  0
 81165  1  0  0  0
 82 95  1  0  0  0
 82166  1  0  0  0
 82167  1  0  0  0
 83 95  1  0  0  0
 83168  1  0  0  0
 83169  1  0  0  0
 84 93  1  0  0  0
 84170  1  0  0  0
 85 93  1  0  0  0
 85171  1  0  0  0
 86172  1  0  0  0
 86173  1  0  0  0
 86174  1  0  0  0
 87175  1  0  0  0
 87176  1  0  0  0
 87177  1  0  0  0
 88178  1  0  0  0
 88179  1  0  0  0
 88180  1  0  0  0
 89181  1  0  0  0
 89182  1  0  0  0
 89183  1  0  0  0
 89 92  1  0  0  0
 90184  1  0  0  0
 90185  1  0  0  0
 90186  1  0  0  0
 90 94  1  0  0  0
 91 94  1  0  0  0
 91187  1  0  0  0
 91188  1  0  0  0
 91 95  1  0  0  0
 92189  1  0  0  0
 92 93  1  0  0  0
 93190  1  0  0  0
 94191  1  0  0  0
 95192  1  0  0  0
M  CHG  1  95   1
M  ISO  4   1 100  68 101  92 100  94 101
M  END
> <chiral flag>
0

> <version>
0

> <s_m_source_file>
/data/baiqing/PycharmProjects/Reinvent-master-3.2/result/LINK_invent/BTK/process_docking_weight1_custom_sum_contain_oxygen_bond_distance_aromatic_linkinvent_7_9_3/rearranged_h_0163.sdf

> <i_m_source_file_index>
86

> <r_mmod_Potential_Energy-OPLS-2005>
347.14208984375

> <r_mmod_Stretch_Energy-OPLS-2005>
176.751419067383

> <r_mmod_Bend_Energy-OPLS-2005>
264.983917236328

> <r_mmod_Torsional_Energy-OPLS-2005>
280.737915039062

> <r_mmod_Improper_Torsional_Energy-OPLS-2005>
3.68262386322021

> <r_mmod_Van_der_Waal_Energy-OPLS-2005>
163.359924316406

> <r_mmod_Electrostatic_Energy-OPLS-2005>
-242.387191772461

> <r_mmod_Solvation_Energy-OPLS-2005>
-402.307434082031

> <b_mmod_Minimization_Converged-OPLS-2005>
0

> <r_mmod_RMS_Derivative-OPLS-2005>
6.01013803482056

$$$$
86
                    3D
 Structure written by MMmdl.
186195  0  0  1  0            999 V2000
  -30.5860  -14.9049   20.4218 C   0  0  0  0  0  0
  -30.4379  -12.5573   19.5141 C   0  0  0  0  0  0
  -29.5275  -12.5054   18.2637 C   0  0  0  0  0  0
  -28.0521  -12.3196   18.6677 C   0  0  0  0  0  0
  -27.6318  -13.2545   19.8361 C   0  0  2  0  0  0
  -28.6723  -13.2796   20.9807 C   0  0  0  0  0  0
  -25.2476  -13.8261   20.5719 C   0  0  0  0  0  0
  -24.1801  -13.0469   20.9221 C   0  0  0  0  0  0
  -24.6432  -11.6947   20.8769 C   0  0  0  0  0  0
  -23.9130  -10.4304   21.0411 C   0  0  0  0  0  0
  -24.3668   -9.4196   21.9188 C   0  0  0  0  0  0
  -23.6314   -8.2242   22.0762 C   0  0  0  0  0  0
  -22.4290   -8.0319   21.3556 C   0  0  0  0  0  0
  -21.9935   -9.0312   20.4675 C   0  0  0  0  0  0
  -22.7285  -10.2177   20.3076 C   0  0  0  0  0  0
  -21.6860   -6.0794   22.5302 C   0  0  0  0  0  0
  -21.4017   -6.5671   23.8251 C   0  0  0  0  0  0
  -21.3640   -5.6806   24.9196 C   0  0  0  0  0  0
  -21.6028   -4.3071   24.7220 C   0  0  0  0  0  0
  -21.8810   -3.8187   23.4326 C   0  0  0  0  0  0
  -21.9182   -4.7021   22.3407 C   0  0  0  0  0  0
  -22.7806  -13.5233   21.1852 C   0  0  0  0  0  0
  -22.1643   -4.2220   21.0972 F   0  0  0  0  0  0
  -21.5599   -3.4538   25.7714 F   0  0  0  0  0  0
  -29.9636  -13.6620   20.3927 N   0  0  0  0  0  0
  -26.2906  -12.9506   20.3223 N   0  0  0  0  0  0
  -25.9345  -11.6619   20.5692 N   0  0  0  0  0  0
  -22.0428  -12.8274   22.0403 N   0  0  0  0  0  0
  -25.4087  -15.2010   20.4166 N   0  0  0  0  0  0
  -31.7810  -14.9586   20.1261 O   0  0  0  0  0  0
  -21.6617   -6.8941   21.4270 O   0  0  0  0  0  0
  -22.3476  -14.5532   20.6683 O   0  0  0  0  0  0
  -24.6453  -31.8447   23.1873 C   0  0  0  0  0  0
  -25.9224  -32.4711   23.8269 C   0  0  1  0  0  0
  -27.2220  -27.1524   20.1495 C   0  0  0  0  0  0
  -25.5960  -33.8508   24.2178 N   0  0  0  0  0  0
  -23.4491  -30.4641   21.5334 C   0  0  2  0  0  0
  -24.8953  -28.8822   20.1149 C   0  0  0  0  0  0
  -22.7560  -29.4539   22.4843 C   0  0  0  0  0  0
  -18.0303  -28.1385   22.8453 C   0  0  0  0  0  0
  -24.1493  -36.7271   23.2637 C   0  0  0  0  0  0
  -26.0044  -30.7196   21.3861 C   0  0  0  0  0  0
  -26.0736  -29.3314   20.7271 C   0  0  0  0  0  0
  -27.2393  -28.4850   20.7189 C   0  0  0  0  0  0
  -26.0187  -26.7856   19.5180 C   0  0  0  0  0  0
  -24.8799  -27.6202   19.4970 C   0  0  0  0  0  0
  -23.6761  -29.7891   20.1562 C   0  0  0  0  0  0
  -25.4138  -36.3049   24.0310 C   0  0  1  0  0  0
  -20.5906  -28.3700   23.1212 C   0  0  2  0  0  0
  -20.6789  -26.9382   22.5411 C   0  0  0  0  0  0
  -19.5770  -26.6364   21.5205 C   0  0  0  0  0  0
  -18.1941  -26.7930   22.1604 C   0  0  0  0  0  0
  -19.1545  -28.8861   23.2847 C   0  0  0  0  0  0
  -18.9470  -30.1460   23.8866 C   0  0  0  0  0  0
  -17.6460  -30.6581   24.0520 C   0  0  0  0  0  0
  -25.9097  -34.9409   23.5059 C   0  0  0  0  0  0
  -16.5356  -29.9065   23.6322 C   0  0  0  0  0  0
  -16.7279  -28.6497   23.0331 C   0  0  0  0  0  0
  -26.4542  -31.6585   25.0722 C   0  0  0  0  0  0
  -25.3724  -31.3792   26.1413 C   0  0  0  0  0  0
  -27.0343  -30.2932   24.6359 C   0  0  0  0  0  0
  -27.6068  -32.4352   25.7534 C   0  0  0  0  0  0
  -27.5590  -37.1785   24.8448 C   0  0  0  0  0  0
  -21.4242  -29.3039   22.3574 N   0  0  0  0  0  0
  -26.4299  -37.3773   23.9412 N   0  0  0  0  0  0
  -24.7200  -31.0304   22.0914 N   0  0  0  0  0  0
  -23.4187  -28.8090   23.2996 O   0  0  0  0  0  0
  -28.3039  -26.2127   20.1313 O   0  0  0  0  0  0
  -26.5665  -34.8903   22.4622 O   0  0  0  0  0  0
  -23.5577  -32.1313   23.7088 O   0  0  0  0  0  0
  -27.5279  -18.8892   22.1747 C   0  0  0  0  0  0
  -28.9347  -18.7869   22.1740 C   0  0  0  0  0  0
  -29.6133  -18.6010   23.4114 C   0  0  0  0  0  0
  -28.8800  -18.5948   24.6309 C   0  0  0  0  0  0
  -27.4680  -18.7574   24.6124 C   0  0  0  0  0  0
  -26.7942  -18.8975   23.3798 C   0  0  0  0  0  0
  -29.9280  -20.2211   18.6890 C   0  0  0  0  0  0
  -29.6827  -18.9866   20.8464 C   0  0  2  0  0  0
  -29.1762  -20.3405   20.0181 C   0  0  1  0  0  0
  -30.1498  -17.5688   20.0766 C   0  0  2  0  0  0
  -30.0395  -17.7354   18.5102 C   0  0  0  0  0  0
  -31.1352  -18.4610   23.4470 C   0  0  0  0  0  0
  -29.6268  -18.4525   25.9595 C   0  0  0  0  0  0
  -26.6690  -18.8299   25.9117 C   0  0  0  0  0  0
  -29.0523  -16.7258   17.8873 C   0  0  0  0  0  0
  -31.3992  -17.5723   17.7971 C   0  0  0  0  0  0
  -30.4098  -22.1602   21.4548 C   0  0  0  0  0  0
  -24.9192  -20.1055   22.5783 C   0  0  0  0  0  0
  -28.7086  -23.3269   19.8707 C   0  0  0  0  0  0
  -28.1493  -24.7434   20.5958 C   0  0  0  0  0  0
  -29.1046  -21.8985   20.6799 C   0  0  1  0  0  0
  -29.8355  -16.0941   20.5435 N   0  0  0  0  0  0
  -29.5030  -18.9982   18.0736 O   0  0  0  0  0  0
  -25.4256  -19.0470   23.3812 O   0  0  0  0  0  0
  -31.4735  -12.6951   19.2059 H   0  0  0  0  0  0
  -30.4089  -11.6142   20.0590 H   0  0  0  0  0  0
  -29.8458  -11.6923   17.6100 H   0  0  0  0  0  0
  -29.6410  -13.4157   17.6763 H   0  0  0  0  0  0
  -27.9254  -11.2819   18.9724 H   0  0  0  0  0  0
  -27.4074  -12.4573   17.7977 H   0  0  0  0  0  0
  -27.5925  -14.2564   19.4073 H   0  0  0  0  0  0
  -28.7378  -12.3099   21.4766 H   0  0  0  0  0  0
  -28.3767  -13.9971   21.7482 H   0  0  0  0  0  0
  -25.2825   -9.5647   22.4751 H   0  0  0  0  0  0
  -24.0042   -7.4622   22.7464 H   0  0  0  0  0  0
  -21.0873   -8.8870   19.8976 H   0  0  0  0  0  0
  -22.3780  -10.9744   19.6203 H   0  0  0  0  0  0
  -21.2018   -7.6179   23.9781 H   0  0  0  0  0  0
  -21.1457   -6.0514   25.9108 H   0  0  0  0  0  0
  -22.0599   -2.7652   23.2785 H   0  0  0  0  0  0
  -22.4039  -12.0007   22.4944 H   0  0  0  0  0  0
  -21.1062  -13.1384   22.2563 H   0  0  0  0  0  0
  -24.6326  -15.8435   20.5286 H   0  0  0  0  0  0
  -26.2497  -15.6492   20.0770 H   0  0  0  0  0  0
  -26.7268  -32.5313   23.0986 H   0  0  0  0  0  0
  -25.0055  -33.9622   25.0286 H   0  0  0  0  0  0
  -22.7503  -31.2875   21.3750 H   0  0  0  0  0  0
  -23.3777  -35.9581   23.3291 H   0  0  0  0  0  0
  -24.3565  -36.8920   22.2056 H   0  0  0  0  0  0
  -23.7216  -37.6456   23.6674 H   0  0  0  0  0  0
  -26.1665  -31.4687   20.6106 H   0  0  0  0  0  0
  -26.8733  -30.7596   22.0361 H   0  0  0  0  0  0
  -28.1482  -28.8246   21.1923 H   0  0  0  0  0  0
  -25.9504  -25.8164   19.0389 H   0  0  0  0  0  0
  -23.9829  -27.2686   19.0068 H   0  0  0  0  0  0
  -23.8122  -30.5589   19.3956 H   0  0  0  0  0  0
  -22.7892  -29.2333   19.8508 H   0  0  0  0  0  0
  -25.1315  -36.1900   25.0804 H   0  0  0  0  0  0
  -21.0009  -28.3325   24.1327 H   0  0  0  0  0  0
  -20.5639  -26.2303   23.3638 H   0  0  0  0  0  0
  -21.6657  -26.7361   22.1200 H   0  0  0  0  0  0
  -19.6923  -25.6261   21.1274 H   0  0  0  0  0  0
  -19.6754  -27.3129   20.6695 H   0  0  0  0  0  0
  -17.4206  -26.6622   21.4031 H   0  0  0  0  0  0
  -18.0329  -26.0097   22.9016 H   0  0  0  0  0  0
  -19.7942  -30.7272   24.2234 H   0  0  0  0  0  0
  -17.5019  -31.6259   24.5100 H   0  0  0  0  0  0
  -15.5346  -30.2938   23.7719 H   0  0  0  0  0  0
  -15.8676  -28.0832   22.7042 H   0  0  0  0  0  0
  -24.5915  -30.7132   25.7732 H   0  0  0  0  0  0
  -24.8899  -32.2946   26.4799 H   0  0  0  0  0  0
  -25.7994  -30.8991   27.0205 H   0  0  0  0  0  0
  -26.2919  -29.6723   24.1325 H   0  0  0  0  0  0
  -27.3795  -29.7229   25.4985 H   0  0  0  0  0  0
  -27.8920  -30.4074   23.9736 H   0  0  0  0  0  0
  -27.2653  -33.3652   26.2080 H   0  0  0  0  0  0
  -28.3913  -32.6917   25.0405 H   0  0  0  0  0  0
  -28.0693  -31.8501   26.5492 H   0  0  0  0  0  0
  -28.2586  -38.0102   24.7496 H   0  0  0  0  0  0
  -28.1090  -36.2617   24.6254 H   0  0  0  0  0  0
  -27.2279  -37.1410   25.8840 H   0  0  0  0  0  0
  -20.9444  -29.8746   21.6748 H   0  0  0  0  0  0
  -26.0177  -38.2848   24.1431 H   0  0  0  0  0  0
  -27.0084  -18.9962   21.2355 H   0  0  0  0  0  0
  -31.0096  -20.2533   18.8135 H   0  0  0  0  0  0
  -29.6593  -21.0384   18.0209 H   0  0  0  0  0  0
  -30.6546  -19.3662   21.1491 H   0  0  0  0  0  0
  -28.1415  -20.1496   19.7380 H   0  0  0  0  0  0
  -31.2230  -17.5772   20.2761 H   0  0  0  0  0  0
  -31.5166  -17.9206   22.5813 H   0  0  0  0  0  0
  -31.5013  -17.9073   24.3083 H   0  0  0  0  0  0
  -31.6014  -19.4475   23.4639 H   0  0  0  0  0  0
  -30.4089  -19.2095   26.0330 H   0  0  0  0  0  0
  -30.0916  -17.4688   26.0333 H   0  0  0  0  0  0
  -29.0036  -18.5687   26.8444 H   0  0  0  0  0  0
  -26.8487  -17.9542   26.5355 H   0  0  0  0  0  0
  -25.5942  -18.8981   25.7533 H   0  0  0  0  0  0
  -26.9539  -19.7152   26.4803 H   0  0  0  0  0  0
  -29.4203  -15.7034   17.9502 H   0  0  0  0  0  0
  -28.8852  -16.9343   16.8287 H   0  0  0  0  0  0
  -28.0866  -16.7588   18.3874 H   0  0  0  0  0  0
  -31.8013  -16.5681   17.9295 H   0  0  0  0  0  0
  -32.1463  -18.2715   18.1673 H   0  0  0  0  0  0
  -31.3011  -17.7461   16.7259 H   0  0  0  0  0  0
  -30.6424  -21.3467   22.1412 H   0  0  0  0  0  0
  -30.3428  -23.0645   22.0578 H   0  0  0  0  0  0
  -31.2527  -22.2750   20.7729 H   0  0  0  0  0  0
  -23.8735  -20.2700   22.8392 H   0  0  0  0  0  0
  -24.9670  -19.8817   21.5126 H   0  0  0  0  0  0
  -25.4517  -21.0405   22.7631 H   0  0  0  0  0  0
  -29.5937  -23.5978   19.2891 H   0  0  0  0  0  0
  -27.9605  -23.0660   19.1215 H   0  0  0  0  0  0
  -27.0932  -24.5840   20.8218 H   0  0  0  0  0  0
  -28.6189  -24.7579   21.5809 H   0  0  0  0  0  0
  -28.3259  -21.8067   21.4392 H   0  0  0  0  0  0
  -28.8800  -15.9425   20.8216 H   0  0  0  0  0  0
  1 25  1  0  0  0
  1 30  2  0  0  0
  1 92  1  0  0  0
  2  3  1  0  0  0
  2 25  1  0  0  0
  2 95  1  0  0  0
  2 96  1  0  0  0
  3  4  1  0  0  0
  3 97  1  0  0  0
  3 98  1  0  0  0
  4  5  1  0  0  0
  4 99  1  0  0  0
  4100  1  0  0  0
  5  6  1  0  0  0
  5 26  1  0  0  0
  5101  1  0  0  0
  6 25  1  0  0  0
  6102  1  0  0  0
  6103  1  0  0  0
  7  8  2  0  0  0
  7 26  1  0  0  0
  7 29  1  0  0  0
  8  9  1  0  0  0
  8 22  1  0  0  0
  9 10  1  0  0  0
  9 27  2  0  0  0
 10 11  2  0  0  0
 10 15  1  0  0  0
 11 12  1  0  0  0
 11104  1  0  0  0
 12 13  2  0  0  0
 12105  1  0  0  0
 13 14  1  0  0  0
 13 31  1  0  0  0
 14 15  2  0  0  0
 14106  1  0  0  0
 15107  1  0  0  0
 16 17  2  0  0  0
 16 21  1  0  0  0
 16 31  1  0  0  0
 17 18  1  0  0  0
 17108  1  0  0  0
 18 19  2  0  0  0
 18109  1  0  0  0
 19 20  1  0  0  0
 19 24  1  0  0  0
 20 21  2  0  0  0
 20110  1  0  0  0
 21 23  1  0  0  0
 22 28  1  0  0  0
 22 32  2  0  0  0
 26 27  1  0  0  0
 28111  1  0  0  0
 28112  1  0  0  0
 29113  1  0  0  0
 29114  1  0  0  0
 33 34  1  0  0  0
 33 66  1  0  0  0
 33 70  2  0  0  0
 34 36  1  0  0  0
 34 59  1  0  0  0
 34115  1  0  0  0
 35 44  2  0  0  0
 35 45  1  0  0  0
 35 68  1  0  0  0
 36 56  1  0  0  0
 36116  1  0  0  0
 37 39  1  0  0  0
 37 47  1  0  0  0
 37 66  1  0  0  0
 37117  1  0  0  0
 38 43  2  0  0  0
 38 46  1  0  0  0
 38 47  1  0  0  0
 39 64  1  0  0  0
 39 67  2  0  0  0
 40 52  1  0  0  0
 40 53  2  0  0  0
 40 58  1  0  0  0
 41118  1  0  0  0
 41119  1  0  0  0
 41120  1  0  0  0
 41 48  1  0  0  0
 42 43  1  0  0  0
 42 66  1  0  0  0
 42121  1  0  0  0
 42122  1  0  0  0
 43 44  1  0  0  0
 44123  1  0  0  0
 45 46  2  0  0  0
 45124  1  0  0  0
 46125  1  0  0  0
 47126  1  0  0  0
 47127  1  0  0  0
 48 56  1  0  0  0
 48 65  1  0  0  0
 48128  1  0  0  0
 49 50  1  0  0  0
 49 53  1  0  0  0
 49 64  1  0  0  0
 49129  1  0  0  0
 50 51  1  0  0  0
 50130  1  0  0  0
 50131  1  0  0  0
 51 52  1  0  0  0
 51132  1  0  0  0
 51133  1  0  0  0
 52134  1  0  0  0
 52135  1  0  0  0
 53 54  1  0  0  0
 54 55  2  0  0  0
 54136  1  0  0  0
 55 57  1  0  0  0
 55137  1  0  0  0
 56 69  2  0  0  0
 57 58  2  0  0  0
 57138  1  0  0  0
 58139  1  0  0  0
 59 60  1  0  0  0
 59 61  1  0  0  0
 59 62  1  0  0  0
 60140  1  0  0  0
 60141  1  0  0  0
 60142  1  0  0  0
 61143  1  0  0  0
 61144  1  0  0  0
 61145  1  0  0  0
 62146  1  0  0  0
 62147  1  0  0  0
 62148  1  0  0  0
 63 65  1  0  0  0
 63149  1  0  0  0
 63150  1  0  0  0
 63151  1  0  0  0
 64152  1  0  0  0
 65153  1  0  0  0
 68 90  1  0  0  0
 71 72  2  0  0  0
 71 76  1  0  0  0
 71154  1  0  0  0
 72 73  1  0  0  0
 72 78  1  0  0  0
 73 74  2  0  0  0
 73 82  1  0  0  0
 74 75  1  0  0  0
 74 83  1  0  0  0
 75 76  2  0  0  0
 75 84  1  0  0  0
 76 94  1  0  0  0
 77 93  1  0  0  0
 77155  1  0  0  0
 77156  1  0  0  0
 77 79  1  0  0  0
 78 79  1  0  0  0
 78 80  1  0  0  0
 78157  1  0  0  0
 79 91  1  0  0  0
 79158  1  0  0  0
 80 81  1  0  0  0
 80 92  1  0  0  0
 80159  1  0  0  0
 81 85  1  0  0  0
 81 86  1  0  0  0
 81 93  1  0  0  0
 82160  1  0  0  0
 82161  1  0  0  0
 82162  1  0  0  0
 83163  1  0  0  0
 83164  1  0  0  0
 83165  1  0  0  0
 84166  1  0  0  0
 84167  1  0  0  0
 84168  1  0  0  0
 85169  1  0  0  0
 85170  1  0  0  0
 85171  1  0  0  0
 86172  1  0  0  0
 86173  1  0  0  0
 86174  1  0  0  0
 87175  1  0  0  0
 87176  1  0  0  0
 87177  1  0  0  0
 87 91  1  0  0  0
 88 94  1  0  0  0
 88178  1  0  0  0
 88179  1  0  0  0
 88180  1  0  0  0
 89 90  1  0  0  0
 89 91  1  0  0  0
 89181  1  0  0  0
 89182  1  0  0  0
 90183  1  0  0  0
 90184  1  0  0  0
 91185  1  0  0  0
 92186  1  0  0  0
M  ISO  4   1 100  68 101  90 101  92 100
M  END
> <chiral flag>
0

> <version>
0

> <s_m_source_file>
/data/baiqing/PycharmProjects/Reinvent-master-3.2/result/LINK_invent/BTK/process_docking_weight1_custom_sum_contain_oxygen_bond_distance_aromatic_linkinvent_7_9_3/rearranged_h_0163.sdf

> <i_m_source_file_index>
87

> <r_mmod_Potential_Energy-OPLS-2005>
474.823211669922

> <r_mmod_Stretch_Energy-OPLS-2005>
263.632659912109

> <r_mmod_Bend_Energy-OPLS-2005>
305.647308349609

> <r_mmod_Torsional_Energy-OPLS-2005>
313.824066162109

> <r_mmod_Improper_Torsional_Energy-OPLS-2005>
6.02999019622803

> <r_mmod_Van_der_Waal_Energy-OPLS-2005>
135.695678710938

> <r_mmod_Electrostatic_Energy-OPLS-2005>
-517.510498046875

> <r_mmod_Solvation_Energy-OPLS-2005>
-198.223403930664

> <b_mmod_Minimization_Converged-OPLS-2005>
0

> <r_mmod_RMS_Derivative-OPLS-2005>
5.39399862289429

$$$$
87
                    3D
 Structure written by MMmdl.
170179  0  0  1  0            999 V2000
  -30.7414  -14.6881   20.4795 C   0  0  0  0  0  0
  -30.4016  -12.4444   19.4527 C   0  0  0  0  0  0
  -29.4846  -12.4949   18.2176 C   0  0  0  0  0  0
  -28.0162  -12.3304   18.6459 C   0  0  0  0  0  0
  -27.6342  -13.2400   19.8455 C   0  0  2  0  0  0
  -28.6925  -13.1987   20.9710 C   0  0  0  0  0  0
  -25.2476  -13.8226   20.5730 C   0  0  0  0  0  0
  -24.1782  -13.0451   20.9235 C   0  0  0  0  0  0
  -24.6392  -11.6936   20.8779 C   0  0  0  0  0  0
  -23.9077  -10.4301   21.0419 C   0  0  0  0  0  0
  -24.3626   -9.4212   21.9191 C   0  0  0  0  0  0
  -23.6300   -8.2247   22.0755 C   0  0  0  0  0  0
  -22.4283   -8.0286   21.3544 C   0  0  0  0  0  0
  -21.9923   -9.0261   20.4646 C   0  0  0  0  0  0
  -22.7253  -10.2142   20.3062 C   0  0  0  0  0  0
  -21.6856   -6.0740   22.5279 C   0  0  0  0  0  0
  -21.4016   -6.5644   23.8212 C   0  0  0  0  0  0
  -21.3660   -5.6796   24.9174 C   0  0  0  0  0  0
  -21.6044   -4.3059   24.7224 C   0  0  0  0  0  0
  -21.8820   -3.8150   23.4345 C   0  0  0  0  0  0
  -21.9194   -4.6967   22.3402 C   0  0  0  0  0  0
  -22.7799  -13.5220   21.1876 C   0  0  0  0  0  0
  -22.1663   -4.2153   21.0979 F   0  0  0  0  0  0
  -21.5626   -3.4541   25.7736 F   0  0  0  0  0  0
  -29.9763  -13.5471   20.3516 N   0  0  0  0  0  0
  -26.2916  -12.9454   20.3339 N   0  0  0  0  0  0
  -25.9329  -11.6586   20.5813 N   0  0  0  0  0  0
  -22.0451  -12.8202   22.0431 N   0  0  0  0  0  0
  -25.4132  -15.1947   20.4116 N   0  0  0  0  0  0
  -31.9488  -14.5738   20.2535 O   0  0  0  0  0  0
  -21.6644   -6.8884   21.4241 O   0  0  0  0  0  0
  -22.3478  -14.5518   20.6714 O   0  0  0  0  0  0
  -24.6318  -31.8605   23.2071 C   0  0  0  0  0  0
  -25.9157  -32.4780   23.8388 C   0  0  1  0  0  0
  -27.1936  -27.2698   20.1042 C   0  0  0  0  0  0
  -25.5966  -33.8583   24.2303 N   0  0  0  0  0  0
  -23.4251  -30.4927   21.5521 C   0  0  2  0  0  0
  -24.8661  -28.9621   20.1067 C   0  0  0  0  0  0
  -22.7504  -29.4638   22.4924 C   0  0  0  0  0  0
  -18.0294  -28.1387   22.8484 C   0  0  0  0  0  0
  -24.1493  -36.7288   23.2635 C   0  0  0  0  0  0
  -25.9767  -30.7715   21.3942 C   0  0  0  0  0  0
  -26.0427  -29.4005   20.7278 C   0  0  0  0  0  0
  -27.2083  -28.5637   20.7289 C   0  0  0  0  0  0
  -25.9959  -26.9379   19.4159 C   0  0  0  0  0  0
  -24.8478  -27.7364   19.4419 C   0  0  0  0  0  0
  -23.6406  -29.8478   20.1623 C   0  0  0  0  0  0
  -25.4119  -36.3084   24.0328 C   0  0  1  0  0  0
  -20.5901  -28.3702   23.1262 C   0  0  2  0  0  0
  -20.6786  -26.9422   22.5397 C   0  0  0  0  0  0
  -19.5755  -26.6385   21.5208 C   0  0  0  0  0  0
  -18.1938  -26.7929   22.1625 C   0  0  0  0  0  0
  -19.1549  -28.8860   23.2869 C   0  0  0  0  0  0
  -18.9468  -30.1460   23.8889 C   0  0  0  0  0  0
  -17.6467  -30.6587   24.0562 C   0  0  0  0  0  0
  -25.9061  -34.9451   23.5108 C   0  0  0  0  0  0
  -16.5358  -29.9084   23.6334 C   0  0  0  0  0  0
  -16.7280  -28.6501   23.0356 C   0  0  0  0  0  0
  -26.4517  -31.6590   25.0766 C   0  0  0  0  0  0
  -25.3732  -31.3733   26.1476 C   0  0  0  0  0  0
  -27.0365  -30.3001   24.6261 C   0  0  0  0  0  0
  -27.6071  -32.4325   25.7539 C   0  0  0  0  0  0
  -27.5582  -37.1805   24.8465 C   0  0  0  0  0  0
  -21.4213  -29.3058   22.3657 N   0  0  0  0  0  0
  -26.4295  -37.3780   23.9408 N   0  0  0  0  0  0
  -24.6970  -31.0581   22.1061 N   0  0  0  0  0  0
  -23.4213  -28.8151   23.2994 O   0  0  0  0  0  0
  -28.2416  -26.3113   20.1879 O   0  0  0  0  0  0
  -26.5616  -34.8915   22.4666 O   0  0  0  0  0  0
  -23.5470  -32.1434   23.7364 O   0  0  0  0  0  0
  -29.2955  -20.6597   20.4717 C   0  0  0  0  0  0
  -29.4221  -21.6775   21.4823 C   0  0  0  0  0  0
  -29.1120  -23.0726   21.2362 C   0  0  0  0  0  0
  -28.5594  -23.5144   19.9958 C   0  0  0  0  0  0
  -28.3792  -22.4801   19.0143 C   0  0  0  0  0  0
  -28.8055  -21.1240   19.2187 C   0  0  0  0  0  0
  -28.5751  -18.0471   20.8395 C   0  0  0  0  0  0
  -30.6547  -18.4796   19.6959 C   0  0  0  0  0  0
  -29.0315  -16.5519   21.1706 C   0  0  0  0  0  0
  -31.1994  -17.0854   20.1293 C   0  0  0  0  0  0
  -29.7018  -19.1216   20.7203 C   0  0  0  0  0  0
  -29.8756  -21.2507   22.8787 C   0  0  0  0  0  0
  -29.3175  -24.1023   22.3413 C   0  0  0  0  0  0
  -27.6188  -22.7934   17.7233 C   0  0  0  0  0  0
  -29.6484  -20.3957   17.1510 C   0  0  0  0  0  0
  -27.8632  -24.9314   19.7373 C   0  0  0  0  0  0
  -30.2186  -15.9939   20.4517 N   0  0  0  0  0  0
  -28.6892  -20.2187   18.1935 O   0  0  0  0  0  0
  -31.4421  -12.5180   19.1326 H   0  0  0  0  0  0
  -30.3198  -11.4806   19.9577 H   0  0  0  0  0  0
  -29.7574  -11.7112   17.5093 H   0  0  0  0  0  0
  -29.6157  -13.4436   17.6946 H   0  0  0  0  0  0
  -27.8731  -11.2837   18.9166 H   0  0  0  0  0  0
  -27.3514  -12.5184   17.8018 H   0  0  0  0  0  0
  -27.6188  -14.2550   19.4489 H   0  0  0  0  0  0
  -28.7393  -12.2059   21.4204 H   0  0  0  0  0  0
  -28.4447  -13.8791   21.7850 H   0  0  0  0  0  0
  -25.2771   -9.5687   22.4769 H   0  0  0  0  0  0
  -24.0009   -7.4638   22.7475 H   0  0  0  0  0  0
  -21.0857   -8.8783   19.8947 H   0  0  0  0  0  0
  -22.3713  -10.9683   19.6174 H   0  0  0  0  0  0
  -21.2011   -7.6152   23.9716 H   0  0  0  0  0  0
  -21.1480   -6.0526   25.9077 H   0  0  0  0  0  0
  -22.0597   -2.7613   23.2844 H   0  0  0  0  0  0
  -22.4081  -11.9871   22.4823 H   0  0  0  0  0  0
  -21.1061  -13.1207   22.2629 H   0  0  0  0  0  0
  -24.6443  -15.8465   20.5226 H   0  0  0  0  0  0
  -26.2627  -15.6367   20.0852 H   0  0  0  0  0  0
  -26.7220  -32.5427   23.1125 H   0  0  0  0  0  0
  -25.0129  -33.9730   25.0459 H   0  0  0  0  0  0
  -22.7205  -31.3161   21.4174 H   0  0  0  0  0  0
  -23.3761  -35.9614   23.3295 H   0  0  0  0  0  0
  -24.3584  -36.8912   22.2051 H   0  0  0  0  0  0
  -23.7239  -37.6486   23.6657 H   0  0  0  0  0  0
  -26.1248  -31.5366   20.6308 H   0  0  0  0  0  0
  -26.8518  -30.8091   22.0310 H   0  0  0  0  0  0
  -28.0988  -28.8858   21.2504 H   0  0  0  0  0  0
  -25.8719  -26.0314   18.8455 H   0  0  0  0  0  0
  -23.9544  -27.4043   18.9310 H   0  0  0  0  0  0
  -23.7681  -30.6339   19.4172 H   0  0  0  0  0  0
  -22.7571  -29.2883   19.8499 H   0  0  0  0  0  0
  -25.1296  -36.1938   25.0820 H   0  0  0  0  0  0
  -20.9993  -28.3279   24.1384 H   0  0  0  0  0  0
  -20.5696  -26.2312   23.3601 H   0  0  0  0  0  0
  -21.6652  -26.7453   22.1185 H   0  0  0  0  0  0
  -19.6917  -25.6295   21.1240 H   0  0  0  0  0  0
  -19.6685  -27.3190   20.6732 H   0  0  0  0  0  0
  -17.4204  -26.6675   21.4031 H   0  0  0  0  0  0
  -18.0343  -26.0071   22.9023 H   0  0  0  0  0  0
  -19.7943  -30.7278   24.2258 H   0  0  0  0  0  0
  -17.5021  -31.6267   24.5164 H   0  0  0  0  0  0
  -15.5358  -30.2983   23.7660 H   0  0  0  0  0  0
  -15.8681  -28.0814   22.7080 H   0  0  0  0  0  0
  -24.5923  -30.7065   25.7802 H   0  0  0  0  0  0
  -24.8902  -32.2897   26.4879 H   0  0  0  0  0  0
  -25.8046  -30.8930   27.0267 H   0  0  0  0  0  0
  -26.2958  -29.6750   24.1260 H   0  0  0  0  0  0
  -27.4010  -29.7264   25.4792 H   0  0  0  0  0  0
  -27.8859  -30.4269   23.9544 H   0  0  0  0  0  0
  -27.2684  -33.3633   26.2101 H   0  0  0  0  0  0
  -28.3893  -32.6871   25.0373 H   0  0  0  0  0  0
  -28.0726  -31.8457   26.5468 H   0  0  0  0  0  0
  -28.2595  -38.0108   24.7523 H   0  0  0  0  0  0
  -28.1085  -36.2639   24.6283 H   0  0  0  0  0  0
  -27.2297  -37.1442   25.8867 H   0  0  0  0  0  0
  -20.9389  -29.8810   21.6892 H   0  0  0  0  0  0
  -26.0175  -38.2855   24.1410 H   0  0  0  0  0  0
  -27.8618  -18.3676   21.5999 H   0  0  0  0  0  0
  -28.0123  -18.0371   19.9048 H   0  0  0  0  0  0
  -30.1604  -18.3482   18.7362 H   0  0  0  0  0  0
  -31.4981  -19.1492   19.5228 H   0  0  0  0  0  0
  -28.1713  -15.9102   21.0028 H   0  0  0  0  0  0
  -29.2498  -16.4852   22.2373 H   0  0  0  0  0  0
  -31.8475  -17.2169   20.9977 H   0  0  0  0  0  0
  -31.8543  -16.7718   19.3135 H   0  0  0  0  0  0
  -30.2581  -19.0838   21.6533 H   0  0  0  0  0  0
  -29.3602  -20.3419   23.1897 H   0  0  0  0  0  0
  -29.6528  -21.9734   23.6605 H   0  0  0  0  0  0
  -30.9495  -21.0627   22.8904 H   0  0  0  0  0  0
  -30.2704  -23.9493   22.8478 H   0  0  0  0  0  0
  -28.5146  -24.0414   23.0763 H   0  0  0  0  0  0
  -29.3515  -25.1212   21.9654 H   0  0  0  0  0  0
  -26.6867  -23.3179   17.9320 H   0  0  0  0  0  0
  -27.3154  -21.9012   17.1775 H   0  0  0  0  0  0
  -28.2269  -23.4044   17.0556 H   0  0  0  0  0  0
  -29.6492  -19.5163   16.5073 H   0  0  0  0  0  0
  -30.6569  -20.5133   17.5501 H   0  0  0  0  0  0
  -29.4350  -21.2579   16.5212 H   0  0  0  0  0  0
  -26.8691  -24.7096   20.1267 H   0  0  0  0  0  0
  -27.7994  -25.0660   18.6605 H   0  0  0  0  0  0
  1 25  1  0  0  0
  1 30  2  0  0  0
  1 87  1  0  0  0
  2  3  1  0  0  0
  2 25  1  0  0  0
  2 89  1  0  0  0
  2 90  1  0  0  0
  3  4  1  0  0  0
  3 91  1  0  0  0
  3 92  1  0  0  0
  4  5  1  0  0  0
  4 93  1  0  0  0
  4 94  1  0  0  0
  5  6  1  0  0  0
  5 26  1  0  0  0
  5 95  1  0  0  0
  6 25  1  0  0  0
  6 96  1  0  0  0
  6 97  1  0  0  0
  7  8  2  0  0  0
  7 26  1  0  0  0
  7 29  1  0  0  0
  8  9  1  0  0  0
  8 22  1  0  0  0
  9 10  1  0  0  0
  9 27  2  0  0  0
 10 11  2  0  0  0
 10 15  1  0  0  0
 11 12  1  0  0  0
 11 98  1  0  0  0
 12 13  2  0  0  0
 12 99  1  0  0  0
 13 14  1  0  0  0
 13 31  1  0  0  0
 14 15  2  0  0  0
 14100  1  0  0  0
 15101  1  0  0  0
 16 17  2  0  0  0
 16 21  1  0  0  0
 16 31  1  0  0  0
 17 18  1  0  0  0
 17102  1  0  0  0
 18 19  2  0  0  0
 18103  1  0  0  0
 19 20  1  0  0  0
 19 24  1  0  0  0
 20 21  2  0  0  0
 20104  1  0  0  0
 21 23  1  0  0  0
 22 28  1  0  0  0
 22 32  2  0  0  0
 26 27  1  0  0  0
 28105  1  0  0  0
 28106  1  0  0  0
 29107  1  0  0  0
 29108  1  0  0  0
 33 34  1  0  0  0
 33 66  1  0  0  0
 33 70  2  0  0  0
 34 36  1  0  0  0
 34 59  1  0  0  0
 34109  1  0  0  0
 35 44  2  0  0  0
 35 45  1  0  0  0
 35 68  1  0  0  0
 36 56  1  0  0  0
 36110  1  0  0  0
 37 39  1  0  0  0
 37 47  1  0  0  0
 37 66  1  0  0  0
 37111  1  0  0  0
 38 43  2  0  0  0
 38 46  1  0  0  0
 38 47  1  0  0  0
 39 64  1  0  0  0
 39 67  2  0  0  0
 40 52  1  0  0  0
 40 53  2  0  0  0
 40 58  1  0  0  0
 41112  1  0  0  0
 41113  1  0  0  0
 41114  1  0  0  0
 41 48  1  0  0  0
 42 43  1  0  0  0
 42 66  1  0  0  0
 42115  1  0  0  0
 42116  1  0  0  0
 43 44  1  0  0  0
 44117  1  0  0  0
 45 46  2  0  0  0
 45118  1  0  0  0
 46119  1  0  0  0
 47120  1  0  0  0
 47121  1  0  0  0
 48 56  1  0  0  0
 48 65  1  0  0  0
 48122  1  0  0  0
 49 50  1  0  0  0
 49 53  1  0  0  0
 49 64  1  0  0  0
 49123  1  0  0  0
 50 51  1  0  0  0
 50124  1  0  0  0
 50125  1  0  0  0
 51 52  1  0  0  0
 51126  1  0  0  0
 51127  1  0  0  0
 52128  1  0  0  0
 52129  1  0  0  0
 53 54  1  0  0  0
 54 55  2  0  0  0
 54130  1  0  0  0
 55 57  1  0  0  0
 55131  1  0  0  0
 56 69  2  0  0  0
 57 58  2  0  0  0
 57132  1  0  0  0
 58133  1  0  0  0
 59 60  1  0  0  0
 59 61  1  0  0  0
 59 62  1  0  0  0
 60134  1  0  0  0
 60135  1  0  0  0
 60136  1  0  0  0
 61137  1  0  0  0
 61138  1  0  0  0
 61139  1  0  0  0
 62140  1  0  0  0
 62141  1  0  0  0
 62142  1  0  0  0
 63 65  1  0  0  0
 63143  1  0  0  0
 63144  1  0  0  0
 63145  1  0  0  0
 64146  1  0  0  0
 65147  1  0  0  0
 68 86  1  0  0  0
 71 72  2  0  0  0
 71 76  1  0  0  0
 71 81  1  0  0  0
 72 73  1  0  0  0
 72 82  1  0  0  0
 73 74  2  0  0  0
 73 83  1  0  0  0
 74 75  1  0  0  0
 74 86  1  0  0  0
 75 76  2  0  0  0
 75 84  1  0  0  0
 76 88  1  0  0  0
 77 79  1  0  0  0
 77 81  1  0  0  0
 77148  1  0  0  0
 77149  1  0  0  0
 78 80  1  0  0  0
 78 81  1  0  0  0
 78150  1  0  0  0
 78151  1  0  0  0
 79 87  1  0  0  0
 79152  1  0  0  0
 79153  1  0  0  0
 80 87  1  0  0  0
 80154  1  0  0  0
 80155  1  0  0  0
 81156  1  0  0  0
 82157  1  0  0  0
 82158  1  0  0  0
 82159  1  0  0  0
 83160  1  0  0  0
 83161  1  0  0  0
 83162  1  0  0  0
 84163  1  0  0  0
 84164  1  0  0  0
 84165  1  0  0  0
 85 88  1  0  0  0
 85166  1  0  0  0
 85167  1  0  0  0
 85168  1  0  0  0
 86169  1  0  0  0
 86170  1  0  0  0
M  ISO  4   1 100  68 101  86 101  87 100
M  END
> <chiral flag>
0

> <version>
0

> <s_m_source_file>
/data/baiqing/PycharmProjects/Reinvent-master-3.2/result/LINK_invent/BTK/process_docking_weight1_custom_sum_contain_oxygen_bond_distance_aromatic_linkinvent_7_9_3/rearranged_h_0163.sdf

> <i_m_source_file_index>
88

> <r_mmod_Potential_Energy-OPLS-2005>
494.071472167969

> <r_mmod_Stretch_Energy-OPLS-2005>
123.012145996094

> <r_mmod_Bend_Energy-OPLS-2005>
226.742553710938

> <r_mmod_Torsional_Energy-OPLS-2005>
342.445953369141

> <r_mmod_Improper_Torsional_Energy-OPLS-2005>
15.2188444137573

> <r_mmod_Van_der_Waal_Energy-OPLS-2005>
195.477203369141

> <r_mmod_Electrostatic_Energy-OPLS-2005>
-303.348052978516

> <r_mmod_Solvation_Energy-OPLS-2005>
-198.579284667969

> <b_mmod_Minimization_Converged-OPLS-2005>
0

> <r_mmod_RMS_Derivative-OPLS-2005>
0.279308587312698

$$$$
89
                    3D
 Structure written by MMmdl.
168178  0  0  1  0            999 V2000
  -30.7010  -14.6763   20.4648 C   0  0  0  0  0  0
  -30.4238  -12.4194   19.4463 C   0  0  0  0  0  0
  -29.4916  -12.4707   18.2189 C   0  0  0  0  0  0
  -28.0267  -12.2537   18.6486 C   0  0  0  0  0  0
  -27.6274  -13.1575   19.8379 C   0  0  2  0  0  0
  -28.6962  -13.1380   20.9664 C   0  0  0  0  0  0
  -25.2500  -13.7964   20.5660 C   0  0  0  0  0  0
  -24.1755  -13.0317   20.9236 C   0  0  0  0  0  0
  -24.6281  -11.6780   20.8813 C   0  0  0  0  0  0
  -23.8954  -10.4213   21.0456 C   0  0  0  0  0  0
  -24.3540   -9.4144   21.9219 C   0  0  0  0  0  0
  -23.6243   -8.2173   22.0762 C   0  0  0  0  0  0
  -22.4231   -8.0223   21.3538 C   0  0  0  0  0  0
  -21.9842   -9.0192   20.4649 C   0  0  0  0  0  0
  -22.7148  -10.2078   20.3079 C   0  0  0  0  0  0
  -21.6831   -6.0699   22.5273 C   0  0  0  0  0  0
  -21.3993   -6.5611   23.8201 C   0  0  0  0  0  0
  -21.3656   -5.6775   24.9170 C   0  0  0  0  0  0
  -21.6051   -4.3038   24.7224 C   0  0  0  0  0  0
  -21.8827   -3.8122   23.4346 C   0  0  0  0  0  0
  -21.9186   -4.6933   22.3400 C   0  0  0  0  0  0
  -22.7803  -13.5187   21.1884 C   0  0  0  0  0  0
  -22.1666   -4.2117   21.0979 F   0  0  0  0  0  0
  -21.5640   -3.4531   25.7742 F   0  0  0  0  0  0
  -29.9935  -13.4938   20.3689 N   0  0  0  0  0  0
  -26.2854  -12.9010   20.3300 N   0  0  0  0  0  0
  -25.9179  -11.6248   20.5832 N   0  0  0  0  0  0
  -22.0420  -12.8219   22.0446 N   0  0  0  0  0  0
  -25.4141  -15.1677   20.3952 N   0  0  0  0  0  0
  -31.9051  -14.6618   20.2060 O   0  0  0  0  0  0
  -21.6606   -6.8824   21.4228 O   0  0  0  0  0  0
  -22.3534  -14.5513   20.6731 O   0  0  0  0  0  0
  -24.6200  -31.8636   23.2059 C   0  0  0  0  0  0
  -25.9067  -32.4801   23.8371 C   0  0  1  0  0  0
  -27.2368  -27.3777   20.1111 C   0  0  0  0  0  0
  -25.5908  -33.8601   24.2306 N   0  0  0  0  0  0
  -23.4110  -30.4866   21.5475 C   0  0  2  0  0  0
  -24.8597  -28.9467   20.1126 C   0  0  0  0  0  0
  -22.7435  -29.4642   22.4965 C   0  0  0  0  0  0
  -18.0278  -28.1375   22.8490 C   0  0  0  0  0  0
  -24.1485  -36.7301   23.2639 C   0  0  0  0  0  0
  -25.9456  -30.8123   21.3683 C   0  0  0  0  0  0
  -26.0231  -29.4436   20.7125 C   0  0  0  0  0  0
  -27.2131  -28.6689   20.7039 C   0  0  0  0  0  0
  -26.0515  -26.9154   19.4920 C   0  0  0  0  0  0
  -24.8726  -27.6853   19.4952 C   0  0  0  0  0  0
  -23.6226  -29.8176   20.1632 C   0  0  0  0  0  0
  -25.4107  -36.3099   24.0340 C   0  0  1  0  0  0
  -20.5872  -28.3666   23.1307 C   0  0  2  0  0  0
  -20.6767  -26.9398   22.5416 C   0  0  0  0  0  0
  -19.5748  -26.6382   21.5210 C   0  0  0  0  0  0
  -18.1926  -26.7925   22.1618 C   0  0  0  0  0  0
  -19.1530  -28.8839   23.2894 C   0  0  0  0  0  0
  -18.9456  -30.1442   23.8903 C   0  0  0  0  0  0
  -17.6459  -30.6585   24.0563 C   0  0  0  0  0  0
  -25.9040  -34.9464   23.5127 C   0  0  0  0  0  0
  -16.5348  -29.9084   23.6330 C   0  0  0  0  0  0
  -16.7268  -28.6501   23.0354 C   0  0  0  0  0  0
  -26.4482  -31.6593   25.0719 C   0  0  0  0  0  0
  -25.3740  -31.3710   26.1465 C   0  0  0  0  0  0
  -27.0318  -30.3029   24.6124 C   0  0  0  0  0  0
  -27.6058  -32.4315   25.7472 C   0  0  0  0  0  0
  -27.5588  -37.1794   24.8460 C   0  0  0  0  0  0
  -21.4160  -29.3027   22.3700 N   0  0  0  0  0  0
  -26.4287  -37.3794   23.9423 N   0  0  0  0  0  0
  -24.6771  -31.0696   22.0983 N   0  0  0  0  0  0
  -23.4177  -28.8187   23.3032 O   0  0  0  0  0  0
  -28.3869  -26.5928   20.1595 O   0  0  0  0  0  0
  -26.5606  -34.8924   22.4688 O   0  0  0  0  0  0
  -23.5381  -32.1409   23.7422 O   0  0  0  0  0  0
  -30.2082  -21.9868   18.9159 C   0  0  0  0  0  0
  -29.1846  -21.9874   21.0862 C   0  0  0  0  0  0
  -29.6006  -22.7239   19.9521 C   0  0  0  0  0  0
  -29.8593  -19.8207   20.0685 C   0  0  0  0  0  0
  -30.3410  -20.5771   18.9576 C   0  0  0  0  0  0
  -29.3149  -20.5601   21.1630 C   0  0  0  0  0  0
  -28.4104  -17.6655   20.1614 C   0  0  0  0  0  0
  -28.6453  -24.7487   18.6263 C   0  0  0  0  0  0
  -28.6843  -16.1636   20.2163 C   0  0  0  0  0  0
  -29.4737  -24.2516   19.7971 C   0  0  1  0  0  0
  -29.7923  -18.2501   19.9841 C   0  0  2  0  0  0
  -28.2326  -25.1486   20.0171 C   0  0  1  0  0  0
  -30.6281  -17.2863   20.8862 C   0  0  2  0  0  0
  -30.9924  -19.9112   17.7540 C   0  0  0  0  0  0
  -32.1436  -17.4772   20.6954 C   0  0  0  0  0  0
  -28.2905  -20.5296   23.3455 C   0  0  0  0  0  0
  -30.0563  -15.8955   20.6736 N   0  0  0  0  0  0
  -28.9150  -19.8405   22.2695 O   0  0  0  0  0  0
  -31.4617  -12.5234   19.1268 H   0  0  0  0  0  0
  -30.3667  -11.4465   19.9364 H   0  0  0  0  0  0
  -29.7846  -11.7119   17.4919 H   0  0  0  0  0  0
  -29.5925  -13.4330   17.7150 H   0  0  0  0  0  0
  -27.9121  -11.2062   18.9292 H   0  0  0  0  0  0
  -27.3552  -12.4173   17.8041 H   0  0  0  0  0  0
  -27.5546  -14.1211   19.3688 H   0  0  0  0  0  0
  -28.7523  -12.1443   21.4127 H   0  0  0  0  0  0
  -28.4410  -13.8071   21.7878 H   0  0  0  0  0  0
  -25.2674   -9.5645   22.4801 H   0  0  0  0  0  0
  -23.9963   -7.4557   22.7467 H   0  0  0  0  0  0
  -21.0776   -8.8702   19.8950 H   0  0  0  0  0  0
  -22.3604  -10.9630   19.6206 H   0  0  0  0  0  0
  -21.1979   -7.6116   23.9695 H   0  0  0  0  0  0
  -21.1484   -6.0502   25.9073 H   0  0  0  0  0  0
  -22.0617   -2.7582   23.2847 H   0  0  0  0  0  0
  -22.4000  -11.9860   22.4823 H   0  0  0  0  0  0
  -21.1062  -13.1305   22.2674 H   0  0  0  0  0  0
  -24.6429  -15.8160   20.5100 H   0  0  0  0  0  0
  -26.2586  -15.6115   20.0610 H   0  0  0  0  0  0
  -26.7131  -32.5493   23.1122 H   0  0  0  0  0  0
  -25.0053  -33.9744   25.0450 H   0  0  0  0  0  0
  -22.7030  -31.3058   21.4054 H   0  0  0  0  0  0
  -23.3760  -35.9621   23.3288 H   0  0  0  0  0  0
  -24.3585  -36.8932   22.2057 H   0  0  0  0  0  0
  -23.7215  -37.6492   23.6661 H   0  0  0  0  0  0
  -26.0683  -31.5783   20.6010 H   0  0  0  0  0  0
  -26.8294  -30.8624   21.9927 H   0  0  0  0  0  0
  -28.1074  -29.0481   21.1782 H   0  0  0  0  0  0
  -26.0181  -25.9530   19.0025 H   0  0  0  0  0  0
  -23.9807  -27.2988   19.0215 H   0  0  0  0  0  0
  -23.7316  -30.5915   19.4028 H   0  0  0  0  0  0
  -22.7457  -29.2394   19.8667 H   0  0  0  0  0  0
  -25.1282  -36.1961   25.0835 H   0  0  0  0  0  0
  -20.9969  -28.3239   24.1426 H   0  0  0  0  0  0
  -20.5664  -26.2280   23.3606 H   0  0  0  0  0  0
  -21.6639  -26.7433   22.1216 H   0  0  0  0  0  0
  -19.6912  -25.6297   21.1232 H   0  0  0  0  0  0
  -19.6694  -27.3201   20.6746 H   0  0  0  0  0  0
  -17.4200  -26.6677   21.4014 H   0  0  0  0  0  0
  -18.0324  -26.0060   22.9005 H   0  0  0  0  0  0
  -19.7934  -30.7252   24.2281 H   0  0  0  0  0  0
  -17.5019  -31.6269   24.5156 H   0  0  0  0  0  0
  -15.5353  -30.2988   23.7653 H   0  0  0  0  0  0
  -15.8667  -28.0820   22.7068 H   0  0  0  0  0  0
  -24.5908  -30.7067   25.7802 H   0  0  0  0  0  0
  -24.8938  -32.2870   26.4916 H   0  0  0  0  0  0
  -25.8091  -30.8873   27.0219 H   0  0  0  0  0  0
  -26.2870  -29.6781   24.1186 H   0  0  0  0  0  0
  -27.4085  -29.7282   25.4594 H   0  0  0  0  0  0
  -27.8710  -30.4340   23.9290 H   0  0  0  0  0  0
  -27.2680  -33.3602   26.2081 H   0  0  0  0  0  0
  -28.3843  -32.6895   25.0283 H   0  0  0  0  0  0
  -28.0757  -31.8423   26.5355 H   0  0  0  0  0  0
  -28.2591  -38.0107   24.7547 H   0  0  0  0  0  0
  -28.1098  -36.2644   24.6234 H   0  0  0  0  0  0
  -27.2316  -37.1390   25.8863 H   0  0  0  0  0  0
  -20.9329  -29.8746   21.6913 H   0  0  0  0  0  0
  -26.0179  -38.2871   24.1444 H   0  0  0  0  0  0
  -30.5675  -22.5259   18.0495 H   0  0  0  0  0  0
  -28.7512  -22.5517   21.8981 H   0  0  0  0  0  0
  -27.9488  -17.9791   21.0957 H   0  0  0  0  0  0
  -27.7303  -17.9397   19.3539 H   0  0  0  0  0  0
  -27.9954  -24.0401   18.1167 H   0  0  0  0  0  0
  -29.0875  -25.5109   17.9881 H   0  0  0  0  0  0
  -28.6123  -15.8130   19.1874 H   0  0  0  0  0  0
  -27.9453  -15.6982   20.8610 H   0  0  0  0  0  0
  -30.4446  -24.7186   19.9562 H   0  0  0  0  0  0
  -30.0632  -17.9708   18.9687 H   0  0  0  0  0  0
  -27.3585  -24.7105   20.4979 H   0  0  0  0  0  0
  -30.4096  -17.5350   21.9262 H   0  0  0  0  0  0
  -31.4455  -20.6438   17.0856 H   0  0  0  0  0  0
  -30.2555  -19.3535   17.1750 H   0  0  0  0  0  0
  -31.7830  -19.2295   18.0680 H   0  0  0  0  0  0
  -32.4561  -17.2303   19.6803 H   0  0  0  0  0  0
  -32.7169  -16.8644   21.3909 H   0  0  0  0  0  0
  -32.4244  -18.5151   20.8769 H   0  0  0  0  0  0
  -28.0077  -19.8116   24.1154 H   0  0  0  0  0  0
  -27.3802  -21.0367   23.0229 H   0  0  0  0  0  0
  -28.9652  -21.2524   23.8053 H   0  0  0  0  0  0
  1 25  1  0  0  0
  1 30  2  0  0  0
  1 87  1  0  0  0
  2  3  1  0  0  0
  2 25  1  0  0  0
  2 89  1  0  0  0
  2 90  1  0  0  0
  3  4  1  0  0  0
  3 91  1  0  0  0
  3 92  1  0  0  0
  4  5  1  0  0  0
  4 93  1  0  0  0
  4 94  1  0  0  0
  5  6  1  0  0  0
  5 26  1  0  0  0
  5 95  1  0  0  0
  6 25  1  0  0  0
  6 96  1  0  0  0
  6 97  1  0  0  0
  7  8  2  0  0  0
  7 26  1  0  0  0
  7 29  1  0  0  0
  8  9  1  0  0  0
  8 22  1  0  0  0
  9 10  1  0  0  0
  9 27  2  0  0  0
 10 11  2  0  0  0
 10 15  1  0  0  0
 11 12  1  0  0  0
 11 98  1  0  0  0
 12 13  2  0  0  0
 12 99  1  0  0  0
 13 14  1  0  0  0
 13 31  1  0  0  0
 14 15  2  0  0  0
 14100  1  0  0  0
 15101  1  0  0  0
 16 17  2  0  0  0
 16 21  1  0  0  0
 16 31  1  0  0  0
 17 18  1  0  0  0
 17102  1  0  0  0
 18 19  2  0  0  0
 18103  1  0  0  0
 19 20  1  0  0  0
 19 24  1  0  0  0
 20 21  2  0  0  0
 20104  1  0  0  0
 21 23  1  0  0  0
 22 28  1  0  0  0
 22 32  2  0  0  0
 26 27  1  0  0  0
 28105  1  0  0  0
 28106  1  0  0  0
 29107  1  0  0  0
 29108  1  0  0  0
 33 34  1  0  0  0
 33 66  1  0  0  0
 33 70  2  0  0  0
 34 36  1  0  0  0
 34 59  1  0  0  0
 34109  1  0  0  0
 35 44  2  0  0  0
 35 45  1  0  0  0
 35 68  1  0  0  0
 36 56  1  0  0  0
 36110  1  0  0  0
 37 39  1  0  0  0
 37 47  1  0  0  0
 37 66  1  0  0  0
 37111  1  0  0  0
 38 43  2  0  0  0
 38 46  1  0  0  0
 38 47  1  0  0  0
 39 64  1  0  0  0
 39 67  2  0  0  0
 40 52  1  0  0  0
 40 53  2  0  0  0
 40 58  1  0  0  0
 41112  1  0  0  0
 41113  1  0  0  0
 41114  1  0  0  0
 41 48  1  0  0  0
 42 43  1  0  0  0
 42 66  1  0  0  0
 42115  1  0  0  0
 42116  1  0  0  0
 43 44  1  0  0  0
 44117  1  0  0  0
 45 46  2  0  0  0
 45118  1  0  0  0
 46119  1  0  0  0
 47120  1  0  0  0
 47121  1  0  0  0
 48 56  1  0  0  0
 48 65  1  0  0  0
 48122  1  0  0  0
 49 50  1  0  0  0
 49 53  1  0  0  0
 49 64  1  0  0  0
 49123  1  0  0  0
 50 51  1  0  0  0
 50124  1  0  0  0
 50125  1  0  0  0
 51 52  1  0  0  0
 51126  1  0  0  0
 51127  1  0  0  0
 52128  1  0  0  0
 52129  1  0  0  0
 53 54  1  0  0  0
 54 55  2  0  0  0
 54130  1  0  0  0
 55 57  1  0  0  0
 55131  1  0  0  0
 56 69  2  0  0  0
 57 58  2  0  0  0
 57132  1  0  0  0
 58133  1  0  0  0
 59 60  1  0  0  0
 59 61  1  0  0  0
 59 62  1  0  0  0
 60134  1  0  0  0
 60135  1  0  0  0
 60136  1  0  0  0
 61137  1  0  0  0
 61138  1  0  0  0
 61139  1  0  0  0
 62140  1  0  0  0
 62141  1  0  0  0
 62142  1  0  0  0
 63 65  1  0  0  0
 63143  1  0  0  0
 63144  1  0  0  0
 63145  1  0  0  0
 64146  1  0  0  0
 65147  1  0  0  0
 68 82  1  0  0  0
 71 73  2  0  0  0
 71 75  1  0  0  0
 71148  1  0  0  0
 72 73  1  0  0  0
 72 76  2  0  0  0
 72149  1  0  0  0
 73 80  1  0  0  0
 74 75  2  0  0  0
 74 76  1  0  0  0
 74 81  1  0  0  0
 75 84  1  0  0  0
 76 88  1  0  0  0
 77 79  1  0  0  0
 77 81  1  0  0  0
 77150  1  0  0  0
 77151  1  0  0  0
 78 80  1  0  0  0
 78 82  1  0  0  0
 78152  1  0  0  0
 78153  1  0  0  0
 79 87  1  0  0  0
 79154  1  0  0  0
 79155  1  0  0  0
 80 82  1  0  0  0
 80156  1  0  0  0
 81 83  1  0  0  0
 81157  1  0  0  0
 82158  1  0  0  0
 83 85  1  0  0  0
 83 87  1  0  0  0
 83159  1  0  0  0
 84160  1  0  0  0
 84161  1  0  0  0
 84162  1  0  0  0
 85163  1  0  0  0
 85164  1  0  0  0
 85165  1  0  0  0
 86 88  1  0  0  0
 86166  1  0  0  0
 86167  1  0  0  0
 86168  1  0  0  0
M  ISO  4   1 100  68 101  82 101  87 100
M  END
> <chiral flag>
0

> <version>
0

> <s_m_source_file>
/data/baiqing/PycharmProjects/Reinvent-master-3.2/result/LINK_invent/BTK/process_docking_weight1_custom_sum_contain_oxygen_bond_distance_aromatic_linkinvent_7_9_3/rearranged_h_0163.sdf

> <i_m_source_file_index>
89

> <r_mmod_Potential_Energy-OPLS-2005>
351.500274658203

> <r_mmod_Stretch_Energy-OPLS-2005>
73.1365432739258

> <r_mmod_Bend_Energy-OPLS-2005>
201.359588623047

> <r_mmod_Torsional_Energy-OPLS-2005>
335.9755859375

> <r_mmod_Improper_Torsional_Energy-OPLS-2005>
5.47243738174438

> <r_mmod_Van_der_Waal_Energy-OPLS-2005>
166.501617431641

> <r_mmod_Electrostatic_Energy-OPLS-2005>
-284.167907714844

> <r_mmod_Solvation_Energy-OPLS-2005>
-199.457183837891

> <b_mmod_Minimization_Converged-OPLS-2005>
0

> <r_mmod_RMS_Derivative-OPLS-2005>
1.25235831737518

$$$$
90
                    3D
 Structure written by MMmdl.
171181  0  0  1  0            999 V2000
  -30.6055  -14.7578   20.4530 C   0  0  0  0  0  0
  -30.4303  -12.4662   19.4778 C   0  0  0  0  0  0
  -29.5126  -12.5038   18.2382 C   0  0  0  0  0  0
  -28.0396  -12.3256   18.6581 C   0  0  0  0  0  0
  -27.6404  -13.2328   19.8528 C   0  0  2  0  0  0
  -28.6807  -13.1776   20.9875 C   0  0  0  0  0  0
  -25.2528  -13.8184   20.5768 C   0  0  0  0  0  0
  -24.1797  -13.0403   20.9187 C   0  0  0  0  0  0
  -24.6401  -11.6889   20.8714 C   0  0  0  0  0  0
  -23.9085  -10.4259   21.0350 C   0  0  0  0  0  0
  -24.3624   -9.4193   21.9151 C   0  0  0  0  0  0
  -23.6291   -8.2244   22.0759 C   0  0  0  0  0  0
  -22.4288   -8.0267   21.3538 C   0  0  0  0  0  0
  -21.9905   -9.0234   20.4640 C   0  0  0  0  0  0
  -22.7236  -10.2113   20.3022 C   0  0  0  0  0  0
  -21.6879   -6.0701   22.5241 C   0  0  0  0  0  0
  -21.4036   -6.5613   23.8165 C   0  0  0  0  0  0
  -21.3651   -5.6774   24.9135 C   0  0  0  0  0  0
  -21.6048   -4.3034   24.7209 C   0  0  0  0  0  0
  -21.8825   -3.8117   23.4337 C   0  0  0  0  0  0
  -21.9207   -4.6925   22.3384 C   0  0  0  0  0  0
  -22.7818  -13.5195   21.1819 C   0  0  0  0  0  0
  -22.1670   -4.2090   21.0969 F   0  0  0  0  0  0
  -21.5620   -3.4529   25.7732 F   0  0  0  0  0  0
  -29.9722  -13.5363   20.3931 N   0  0  0  0  0  0
  -26.2938  -12.9389   20.3308 N   0  0  0  0  0  0
  -25.9339  -11.6528   20.5767 N   0  0  0  0  0  0
  -22.0475  -12.8173   22.0379 N   0  0  0  0  0  0
  -25.4272  -15.1923   20.4361 N   0  0  0  0  0  0
  -31.8089  -14.8154   20.1744 O   0  0  0  0  0  0
  -21.6662   -6.8858   21.4217 O   0  0  0  0  0  0
  -22.3487  -14.5486   20.6646 O   0  0  0  0  0  0
  -24.6343  -31.8483   23.1929 C   0  0  0  0  0  0
  -25.9155  -32.4697   23.8318 C   0  0  1  0  0  0
  -27.2255  -27.2336   20.1227 C   0  0  0  0  0  0
  -25.5926  -33.8510   24.2225 N   0  0  0  0  0  0
  -23.4333  -30.4672   21.5355 C   0  0  2  0  0  0
  -24.8799  -28.9037   20.1033 C   0  0  0  0  0  0
  -22.7524  -29.4554   22.4900 C   0  0  0  0  0  0
  -18.0299  -28.1373   22.8465 C   0  0  0  0  0  0
  -24.1498  -36.7281   23.2650 C   0  0  0  0  0  0
  -25.9804  -30.7467   21.3807 C   0  0  0  0  0  0
  -26.0469  -29.3681   20.7202 C   0  0  0  0  0  0
  -27.2147  -28.5411   20.7225 C   0  0  0  0  0  0
  -26.0334  -26.8313   19.4865 C   0  0  0  0  0  0
  -24.8779  -27.6450   19.4776 C   0  0  0  0  0  0
  -23.6504  -29.7913   20.1536 C   0  0  0  0  0  0
  -25.4123  -36.3039   24.0323 C   0  0  1  0  0  0
  -20.5893  -28.3680   23.1251 C   0  0  2  0  0  0
  -20.6762  -26.9385   22.5401 C   0  0  0  0  0  0
  -19.5751  -26.6364   21.5193 C   0  0  0  0  0  0
  -18.1935  -26.7917   22.1608 C   0  0  0  0  0  0
  -19.1550  -28.8851   23.2849 C   0  0  0  0  0  0
  -18.9456  -30.1450   23.8868 C   0  0  0  0  0  0
  -17.6447  -30.6560   24.0548 C   0  0  0  0  0  0
  -25.9061  -34.9407   23.5080 C   0  0  0  0  0  0
  -16.5343  -29.9043   23.6325 C   0  0  0  0  0  0
  -16.7280  -28.6470   23.0340 C   0  0  0  0  0  0
  -26.4507  -31.6567   25.0746 C   0  0  0  0  0  0
  -25.3713  -31.3686   26.1457 C   0  0  0  0  0  0
  -27.0375  -30.2991   24.6268 C   0  0  0  0  0  0
  -27.6060  -32.4335   25.7493 C   0  0  0  0  0  0
  -27.5584  -37.1801   24.8461 C   0  0  0  0  0  0
  -21.4225  -29.3016   22.3646 N   0  0  0  0  0  0
  -26.4296  -37.3737   23.9394 N   0  0  0  0  0  0
  -24.7019  -31.0419   22.0912 N   0  0  0  0  0  0
  -23.4224  -28.8122   23.3033 O   0  0  0  0  0  0
  -28.3433  -26.3721   20.2462 O   0  0  0  0  0  0
  -26.5659  -34.8881   22.4665 O   0  0  0  0  0  0
  -23.5488  -32.1327   23.7206 O   0  0  0  0  0  0
  -27.6240  -22.6822   19.2133 C   0  0  0  0  0  0
  -28.6972  -20.6376   20.1947 C   0  0  0  0  0  0
  -27.7464  -21.2565   19.3173 C   0  0  0  0  0  0
  -28.4555  -23.5791   19.9357 C   0  0  0  0  0  0
  -29.4508  -21.6134   20.9264 C   0  0  0  0  0  0
  -32.8358  -21.8007   22.3888 C   0  0  0  0  0  0
  -32.8104  -20.3808   21.8743 C   0  0  0  0  0  0
  -29.9557  -18.3611   19.3514 C   0  0  0  0  0  0
  -28.9518  -18.2142   21.6048 C   0  0  0  0  0  0
  -29.8329  -16.7828   19.2115 C   0  0  0  0  0  0
  -29.7687  -16.8299   21.6577 C   0  0  0  0  0  0
  -28.8790  -19.0163   20.2527 C   0  0  0  0  0  0
  -31.7750  -21.3715   21.4006 C   0  0  0  0  0  0
  -26.8644  -20.4103   18.4124 C   0  0  0  0  0  0
  -28.4882  -25.3144   17.9534 C   0  0  0  0  0  0
  -28.6615  -25.1169   19.4687 C   0  0  1  0  0  0
  -29.3557  -22.9855   20.7822 N   0  0  0  0  0  0
  -29.8429  -15.9391   20.4531 N   0  0  0  0  0  0
  -30.4024  -21.1869   21.8452 N   0  0  0  0  0  0
  -31.4696  -12.5884   19.1701 H   0  0  0  0  0  0
  -30.3764  -11.4971   19.9767 H   0  0  0  0  0  0
  -29.7990  -11.7223   17.5323 H   0  0  0  0  0  0
  -29.6429  -13.4535   17.7169 H   0  0  0  0  0  0
  -27.9030  -11.2807   18.9393 H   0  0  0  0  0  0
  -27.3782  -12.4988   17.8091 H   0  0  0  0  0  0
  -27.6380  -14.2556   19.4765 H   0  0  0  0  0  0
  -28.7174  -12.1826   21.4332 H   0  0  0  0  0  0
  -28.4174  -13.8679   21.7910 H   0  0  0  0  0  0
  -25.2779   -9.5669   22.4711 H   0  0  0  0  0  0
  -23.9947   -7.4679   22.7552 H   0  0  0  0  0  0
  -21.0785   -8.8769   19.9014 H   0  0  0  0  0  0
  -22.3675  -10.9642   19.6128 H   0  0  0  0  0  0
  -21.2049   -7.6124   23.9634 H   0  0  0  0  0  0
  -21.1464   -6.0523   25.9027 H   0  0  0  0  0  0
  -22.0627   -2.7575   23.2864 H   0  0  0  0  0  0
  -22.4139  -11.9849   22.4754 H   0  0  0  0  0  0
  -21.1095  -13.1180   22.2628 H   0  0  0  0  0  0
  -24.6782  -15.8534   20.6107 H   0  0  0  0  0  0
  -26.3005  -15.6397   20.1887 H   0  0  0  0  0  0
  -26.7233  -32.5308   23.1071 H   0  0  0  0  0  0
  -25.0035  -33.9633   25.0352 H   0  0  0  0  0  0
  -22.7332  -31.2914   21.3844 H   0  0  0  0  0  0
  -23.3733  -35.9637   23.3302 H   0  0  0  0  0  0
  -24.3604  -36.8926   22.2067 H   0  0  0  0  0  0
  -23.7280  -37.6488   23.6693 H   0  0  0  0  0  0
  -26.1372  -31.5039   20.6126 H   0  0  0  0  0  0
  -26.8539  -30.7886   22.0188 H   0  0  0  0  0  0
  -28.1084  -28.8838   21.2237 H   0  0  0  0  0  0
  -25.9597  -25.8546   19.0340 H   0  0  0  0  0  0
  -23.9800  -27.2793   19.0009 H   0  0  0  0  0  0
  -23.7705  -30.5596   19.3899 H   0  0  0  0  0  0
  -22.7690  -29.2187   19.8554 H   0  0  0  0  0  0
  -25.1311  -36.1885   25.0814 H   0  0  0  0  0  0
  -20.9988  -28.3239   24.1376 H   0  0  0  0  0  0
  -20.5598  -26.2284   23.3607 H   0  0  0  0  0  0
  -21.6632  -26.7349   22.1236 H   0  0  0  0  0  0
  -19.6889  -25.6270   21.1232 H   0  0  0  0  0  0
  -19.6695  -27.3164   20.6713 H   0  0  0  0  0  0
  -17.4196  -26.6649   21.4019 H   0  0  0  0  0  0
  -18.0335  -26.0069   22.9013 H   0  0  0  0  0  0
  -19.7919  -30.7281   24.2221 H   0  0  0  0  0  0
  -17.4976  -31.6238   24.5151 H   0  0  0  0  0  0
  -15.5326  -30.2915   23.7658 H   0  0  0  0  0  0
  -15.8690  -28.0767   22.7056 H   0  0  0  0  0  0
  -24.5876  -30.7073   25.7754 H   0  0  0  0  0  0
  -24.8911  -32.2815   26.4967 H   0  0  0  0  0  0
  -25.8013  -30.8776   27.0199 H   0  0  0  0  0  0
  -26.2968  -29.6723   24.1289 H   0  0  0  0  0  0
  -27.4044  -29.7273   25.4808 H   0  0  0  0  0  0
  -27.8855  -30.4283   23.9544 H   0  0  0  0  0  0
  -27.2678  -33.3629   26.2087 H   0  0  0  0  0  0
  -28.3825  -32.6925   25.0285 H   0  0  0  0  0  0
  -28.0796  -31.8470   26.5375 H   0  0  0  0  0  0
  -28.2585  -38.0112   24.7493 H   0  0  0  0  0  0
  -28.1092  -36.2636   24.6293 H   0  0  0  0  0  0
  -27.2307  -37.1466   25.8868 H   0  0  0  0  0  0
  -20.9433  -29.8750   21.6850 H   0  0  0  0  0  0
  -26.0165  -38.2813   24.1362 H   0  0  0  0  0  0
  -26.9340  -23.0919   18.4900 H   0  0  0  0  0  0
  -33.6407  -22.4397   22.0233 H   0  0  0  0  0  0
  -32.5495  -21.9603   23.4275 H   0  0  0  0  0  0
  -32.5023  -19.6029   22.5721 H   0  0  0  0  0  0
  -33.5929  -20.0955   21.1718 H   0  0  0  0  0  0
  -30.9493  -18.6267   19.7142 H   0  0  0  0  0  0
  -29.8843  -18.7986   18.3552 H   0  0  0  0  0  0
  -27.9278  -18.0322   21.9394 H   0  0  0  0  0  0
  -29.3666  -18.8436   22.3876 H   0  0  0  0  0  0
  -30.6327  -16.4535   18.5426 H   0  0  0  0  0  0
  -28.9096  -16.5458   18.6793 H   0  0  0  0  0  0
  -29.3987  -16.2427   22.4995 H   0  0  0  0  0  0
  -30.8014  -17.0646   21.9177 H   0  0  0  0  0  0
  -27.9499  -18.6389   19.8326 H   0  0  0  0  0  0
  -31.8503  -21.7148   20.3696 H   0  0  0  0  0  0
  -27.4620  -19.6825   17.8612 H   0  0  0  0  0  0
  -26.3441  -21.0244   17.6767 H   0  0  0  0  0  0
  -26.1103  -19.8766   18.9903 H   0  0  0  0  0  0
  -29.1154  -24.6102   17.4056 H   0  0  0  0  0  0
  -28.7875  -26.3208   17.6560 H   0  0  0  0  0  0
  -27.4655  -25.1585   17.6182 H   0  0  0  0  0  0
  -29.7475  -25.1745   19.5702 H   0  0  0  0  0  0
  -30.2281  -20.2282   22.1179 H   0  0  0  0  0  0
  1 25  1  0  0  0
  1 30  2  0  0  0
  1 88  1  0  0  0
  2  3  1  0  0  0
  2 25  1  0  0  0
  2 90  1  0  0  0
  2 91  1  0  0  0
  3  4  1  0  0  0
  3 92  1  0  0  0
  3 93  1  0  0  0
  4  5  1  0  0  0
  4 94  1  0  0  0
  4 95  1  0  0  0
  5  6  1  0  0  0
  5 26  1  0  0  0
  5 96  1  0  0  0
  6 25  1  0  0  0
  6 97  1  0  0  0
  6 98  1  0  0  0
  7  8  2  0  0  0
  7 26  1  0  0  0
  7 29  1  0  0  0
  8  9  1  0  0  0
  8 22  1  0  0  0
  9 10  1  0  0  0
  9 27  2  0  0  0
 10 11  2  0  0  0
 10 15  1  0  0  0
 11 12  1  0  0  0
 11 99  1  0  0  0
 12 13  2  0  0  0
 12100  1  0  0  0
 13 14  1  0  0  0
 13 31  1  0  0  0
 14 15  2  0  0  0
 14101  1  0  0  0
 15102  1  0  0  0
 16 17  2  0  0  0
 16 21  1  0  0  0
 16 31  1  0  0  0
 17 18  1  0  0  0
 17103  1  0  0  0
 18 19  2  0  0  0
 18104  1  0  0  0
 19 20  1  0  0  0
 19 24  1  0  0  0
 20 21  2  0  0  0
 20105  1  0  0  0
 21 23  1  0  0  0
 22 28  1  0  0  0
 22 32  2  0  0  0
 26 27  1  0  0  0
 28106  1  0  0  0
 28107  1  0  0  0
 29108  1  0  0  0
 29109  1  0  0  0
 33 34  1  0  0  0
 33 66  1  0  0  0
 33 70  2  0  0  0
 34 36  1  0  0  0
 34 59  1  0  0  0
 34110  1  0  0  0
 35 44  2  0  0  0
 35 45  1  0  0  0
 35 68  1  0  0  0
 36 56  1  0  0  0
 36111  1  0  0  0
 37 39  1  0  0  0
 37 47  1  0  0  0
 37 66  1  0  0  0
 37112  1  0  0  0
 38 43  2  0  0  0
 38 46  1  0  0  0
 38 47  1  0  0  0
 39 64  1  0  0  0
 39 67  2  0  0  0
 40 52  1  0  0  0
 40 53  2  0  0  0
 40 58  1  0  0  0
 41113  1  0  0  0
 41114  1  0  0  0
 41115  1  0  0  0
 41 48  1  0  0  0
 42 43  1  0  0  0
 42 66  1  0  0  0
 42116  1  0  0  0
 42117  1  0  0  0
 43 44  1  0  0  0
 44118  1  0  0  0
 45 46  2  0  0  0
 45119  1  0  0  0
 46120  1  0  0  0
 47121  1  0  0  0
 47122  1  0  0  0
 48 56  1  0  0  0
 48 65  1  0  0  0
 48123  1  0  0  0
 49 50  1  0  0  0
 49 53  1  0  0  0
 49 64  1  0  0  0
 49124  1  0  0  0
 50 51  1  0  0  0
 50125  1  0  0  0
 50126  1  0  0  0
 51 52  1  0  0  0
 51127  1  0  0  0
 51128  1  0  0  0
 52129  1  0  0  0
 52130  1  0  0  0
 53 54  1  0  0  0
 54 55  2  0  0  0
 54131  1  0  0  0
 55 57  1  0  0  0
 55132  1  0  0  0
 56 69  2  0  0  0
 57 58  2  0  0  0
 57133  1  0  0  0
 58134  1  0  0  0
 59 60  1  0  0  0
 59 61  1  0  0  0
 59 62  1  0  0  0
 60135  1  0  0  0
 60136  1  0  0  0
 60137  1  0  0  0
 61138  1  0  0  0
 61139  1  0  0  0
 61140  1  0  0  0
 62141  1  0  0  0
 62142  1  0  0  0
 62143  1  0  0  0
 63 65  1  0  0  0
 63144  1  0  0  0
 63145  1  0  0  0
 63146  1  0  0  0
 64147  1  0  0  0
 65148  1  0  0  0
 68 86  1  0  0  0
 71 73  2  0  0  0
 71 74  1  0  0  0
 71149  1  0  0  0
 72 73  1  0  0  0
 72 75  2  0  0  0
 72 82  1  0  0  0
 73 84  1  0  0  0
 74 86  1  0  0  0
 74 87  2  0  0  0
 75 87  1  0  0  0
 75 89  1  0  0  0
 76 77  1  0  0  0
 76 83  1  0  0  0
 76150  1  0  0  0
 76151  1  0  0  0
 77 83  1  0  0  0
 77152  1  0  0  0
 77153  1  0  0  0
 78 80  1  0  0  0
 78 82  1  0  0  0
 78154  1  0  0  0
 78155  1  0  0  0
 79 81  1  0  0  0
 79 82  1  0  0  0
 79156  1  0  0  0
 79157  1  0  0  0
 80 88  1  0  0  0
 80158  1  0  0  0
 80159  1  0  0  0
 81 88  1  0  0  0
 81160  1  0  0  0
 81161  1  0  0  0
 82162  1  0  0  0
 83 89  1  0  0  0
 83163  1  0  0  0
 84164  1  0  0  0
 84165  1  0  0  0
 84166  1  0  0  0
 85167  1  0  0  0
 85168  1  0  0  0
 85169  1  0  0  0
 85 86  1  0  0  0
 86170  1  0  0  0
 89171  1  0  0  0
M  ISO  4   1 100  68 101  86 101  88 100
M  END
> <chiral flag>
0

> <version>
0

> <s_m_source_file>
/data/baiqing/PycharmProjects/Reinvent-master-3.2/result/LINK_invent/BTK/process_docking_weight1_custom_sum_contain_oxygen_bond_distance_aromatic_linkinvent_7_9_3/rearranged_h_0163.sdf

> <i_m_source_file_index>
90

> <r_mmod_Potential_Energy-OPLS-2005>
360.686767578125

> <r_mmod_Stretch_Energy-OPLS-2005>
139.142028808594

> <r_mmod_Bend_Energy-OPLS-2005>
252.485549926758

> <r_mmod_Torsional_Energy-OPLS-2005>
401.967651367188

> <r_mmod_Improper_Torsional_Energy-OPLS-2005>
22.1259307861328

> <r_mmod_Van_der_Waal_Energy-OPLS-2005>
135.906433105469

> <r_mmod_Electrostatic_Energy-OPLS-2005>
-462.543518066406

> <r_mmod_Solvation_Energy-OPLS-2005>
-225.204330444336

> <b_mmod_Minimization_Converged-OPLS-2005>
0

> <r_mmod_RMS_Derivative-OPLS-2005>
3.6602942943573

$$$$
91
                    3D
 Structure written by MMmdl.
170180  0  0  1  0            999 V2000
  -30.6624  -14.6042   20.4986 C   0  0  0  0  0  0
  -30.4250  -12.3726   19.4479 C   0  0  0  0  0  0
  -29.5061  -12.5165   18.2175 C   0  0  0  0  0  0
  -28.0231  -12.3810   18.6200 C   0  0  0  0  0  0
  -27.6508  -13.2322   19.8652 C   0  0  2  0  0  0
  -28.6973  -13.0880   20.9904 C   0  0  0  0  0  0
  -25.2532  -13.8208   20.5719 C   0  0  0  0  0  0
  -24.1821  -13.0443   20.9226 C   0  0  0  0  0  0
  -24.6427  -11.6923   20.8780 C   0  0  0  0  0  0
  -23.9102  -10.4289   21.0405 C   0  0  0  0  0  0
  -24.3648   -9.4204   21.9182 C   0  0  0  0  0  0
  -23.6335   -8.2240   22.0738 C   0  0  0  0  0  0
  -22.4302   -8.0283   21.3547 C   0  0  0  0  0  0
  -21.9955   -9.0237   20.4626 C   0  0  0  0  0  0
  -22.7283  -10.2121   20.3040 C   0  0  0  0  0  0
  -21.6841   -6.0760   22.5312 C   0  0  0  0  0  0
  -21.3992   -6.5665   23.8252 C   0  0  0  0  0  0
  -21.3668   -5.6811   24.9206 C   0  0  0  0  0  0
  -21.6044   -4.3078   24.7252 C   0  0  0  0  0  0
  -21.8814   -3.8173   23.4368 C   0  0  0  0  0  0
  -21.9189   -4.6994   22.3428 C   0  0  0  0  0  0
  -22.7823  -13.5186   21.1883 C   0  0  0  0  0  0
  -22.1641   -4.2190   21.1003 F   0  0  0  0  0  0
  -21.5643   -3.4555   25.7759 F   0  0  0  0  0  0
  -30.0121  -13.4051   20.4164 N   0  0  0  0  0  0
  -26.2991  -12.9427   20.3355 N   0  0  0  0  0  0
  -25.9367  -11.6569   20.5800 N   0  0  0  0  0  0
  -22.0449  -12.8136   22.0406 N   0  0  0  0  0  0
  -25.4217  -15.1936   20.4143 N   0  0  0  0  0  0
  -31.8484  -14.7158   20.1758 O   0  0  0  0  0  0
  -21.6651   -6.8889   21.4263 O   0  0  0  0  0  0
  -22.3491  -14.5506   20.6766 O   0  0  0  0  0  0
  -24.6165  -31.8631   23.2054 C   0  0  0  0  0  0
  -25.9053  -32.4790   23.8373 C   0  0  1  0  0  0
  -27.2441  -27.3847   20.1284 C   0  0  0  0  0  0
  -25.5889  -33.8593   24.2298 N   0  0  0  0  0  0
  -23.4077  -30.4815   21.5437 C   0  0  2  0  0  0
  -24.8598  -28.9376   20.1133 C   0  0  0  0  0  0
  -22.7412  -29.4640   22.4972 C   0  0  0  0  0  0
  -18.0266  -28.1379   22.8487 C   0  0  0  0  0  0
  -24.1468  -36.7269   23.2641 C   0  0  0  0  0  0
  -25.9368  -30.8162   21.3644 C   0  0  0  0  0  0
  -26.0159  -29.4453   20.7150 C   0  0  0  0  0  0
  -27.2056  -28.6756   20.7175 C   0  0  0  0  0  0
  -26.0665  -26.8985   19.5174 C   0  0  0  0  0  0
  -24.8827  -27.6670   19.5086 C   0  0  0  0  0  0
  -23.6195  -29.8053   20.1612 C   0  0  0  0  0  0
  -25.4101  -36.3087   24.0329 C   0  0  1  0  0  0
  -20.5862  -28.3655   23.1310 C   0  0  2  0  0  0
  -20.6760  -26.9385   22.5414 C   0  0  0  0  0  0
  -19.5736  -26.6381   21.5198 C   0  0  0  0  0  0
  -18.1912  -26.7919   22.1624 C   0  0  0  0  0  0
  -19.1517  -28.8835   23.2897 C   0  0  0  0  0  0
  -18.9459  -30.1446   23.8914 C   0  0  0  0  0  0
  -17.6458  -30.6584   24.0579 C   0  0  0  0  0  0
  -25.9032  -34.9455   23.5117 C   0  0  0  0  0  0
  -16.5343  -29.9098   23.6341 C   0  0  0  0  0  0
  -16.7259  -28.6514   23.0357 C   0  0  0  0  0  0
  -26.4473  -31.6591   25.0716 C   0  0  0  0  0  0
  -25.3712  -31.3681   26.1423 C   0  0  0  0  0  0
  -27.0344  -30.3048   24.6126 C   0  0  0  0  0  0
  -27.6029  -32.4323   25.7499 C   0  0  0  0  0  0
  -27.5571  -37.1793   24.8468 C   0  0  0  0  0  0
  -21.4135  -29.3028   22.3715 N   0  0  0  0  0  0
  -26.4275  -37.3787   23.9422 N   0  0  0  0  0  0
  -24.6715  -31.0713   22.0962 N   0  0  0  0  0  0
  -23.4166  -28.8184   23.3030 O   0  0  0  0  0  0
  -28.4277  -26.6588   20.1984 O   0  0  0  0  0  0
  -26.5620  -34.8917   22.4691 O   0  0  0  0  0  0
  -23.5348  -32.1410   23.7414 O   0  0  0  0  0  0
  -32.9429  -20.8166   21.8290 C   0  0  0  0  0  0
  -33.5754  -20.7168   20.4587 C   0  0  0  0  0  0
  -29.0806  -21.3741   19.0210 C   0  0  0  0  0  0
  -29.3674  -19.8586   18.9388 C   0  0  0  0  0  0
  -29.2384  -20.4276   21.2816 C   0  0  0  0  0  0
  -30.2795  -16.8792   21.5312 C   0  0  0  0  0  0
  -29.7979  -16.7190   19.5515 C   0  0  0  0  0  0
  -29.5322  -17.8422   20.5726 C   0  0  0  0  0  0
  -32.0688  -20.7782   20.5906 C   0  0  0  0  0  0
  -28.6067  -21.6209   20.4603 C   0  0  1  0  0  0
  -29.9156  -19.3742   20.3101 C   0  0  1  0  0  0
  -27.9654  -24.1488   20.6312 C   0  0  0  0  0  0
  -28.5577  -25.2887   19.7263 C   0  0  0  0  0  0
  -29.8917  -15.7309   20.6630 N   0  0  0  0  0  0
  -31.4110  -19.4665   20.3422 N   0  3  0  0  0  0
  -28.8996  -23.0105   20.9764 N   0  3  0  0  0  0
  -31.4735  -12.4708   19.1592 H   0  0  0  0  0  0
  -30.3239  -11.3766   19.8814 H   0  0  0  0  0  0
  -29.7582  -11.7704   17.4640 H   0  0  0  0  0  0
  -29.6765  -13.4870   17.7502 H   0  0  0  0  0  0
  -27.8302  -11.3256   18.8149 H   0  0  0  0  0  0
  -27.3833  -12.6517   17.7789 H   0  0  0  0  0  0
  -27.6642  -14.2750   19.5481 H   0  0  0  0  0  0
  -28.6959  -12.0751   21.3887 H   0  0  0  0  0  0
  -28.4666  -13.7459   21.8290 H   0  0  0  0  0  0
  -25.2771   -9.5710   22.4778 H   0  0  0  0  0  0
  -24.0055   -7.4631   22.7446 H   0  0  0  0  0  0
  -21.0899   -8.8741   19.8926 H   0  0  0  0  0  0
  -22.3727  -10.9649   19.6170 H   0  0  0  0  0  0
  -21.1957   -7.6166   23.9773 H   0  0  0  0  0  0
  -21.1487   -6.0530   25.9109 H   0  0  0  0  0  0
  -22.0586   -2.7644   23.2875 H   0  0  0  0  0  0
  -22.4017  -11.9816   22.4851 H   0  0  0  0  0  0
  -21.1054  -13.1139   22.2555 H   0  0  0  0  0  0
  -24.6601  -15.8533   20.5312 H   0  0  0  0  0  0
  -26.2888  -15.6358   20.1372 H   0  0  0  0  0  0
  -26.7125  -32.5494   23.1127 H   0  0  0  0  0  0
  -25.0035  -33.9758   25.0444 H   0  0  0  0  0  0
  -22.6985  -31.2983   21.3968 H   0  0  0  0  0  0
  -23.3762  -35.9570   23.3278 H   0  0  0  0  0  0
  -24.3571  -36.8923   22.2066 H   0  0  0  0  0  0
  -23.7167  -37.6430   23.6688 H   0  0  0  0  0  0
  -26.0552  -31.5795   20.5947 H   0  0  0  0  0  0
  -26.8218  -30.8718   21.9868 H   0  0  0  0  0  0
  -28.0954  -29.0636   21.1946 H   0  0  0  0  0  0
  -26.0393  -25.9221   19.0579 H   0  0  0  0  0  0
  -23.9906  -27.2683   19.0447 H   0  0  0  0  0  0
  -23.7238  -30.5747   19.3949 H   0  0  0  0  0  0
  -22.7448  -29.2198   19.8696 H   0  0  0  0  0  0
  -25.1279  -36.1940   25.0818 H   0  0  0  0  0  0
  -20.9958  -28.3232   24.1433 H   0  0  0  0  0  0
  -20.5657  -26.2266   23.3611 H   0  0  0  0  0  0
  -21.6641  -26.7435   22.1201 H   0  0  0  0  0  0
  -19.6903  -25.6288   21.1238 H   0  0  0  0  0  0
  -19.6689  -27.3213   20.6742 H   0  0  0  0  0  0
  -17.4181  -26.6679   21.4027 H   0  0  0  0  0  0
  -18.0328  -26.0055   22.9022 H   0  0  0  0  0  0
  -19.7938  -30.7259   24.2312 H   0  0  0  0  0  0
  -17.5011  -31.6279   24.5156 H   0  0  0  0  0  0
  -15.5348  -30.3014   23.7637 H   0  0  0  0  0  0
  -15.8656  -28.0828   22.7081 H   0  0  0  0  0  0
  -24.5894  -30.7038   25.7722 H   0  0  0  0  0  0
  -24.8879  -32.2816   26.4895 H   0  0  0  0  0  0
  -25.8009  -30.8809   27.0175 H   0  0  0  0  0  0
  -26.2931  -29.6767   24.1164 H   0  0  0  0  0  0
  -27.4109  -29.7320   25.4608 H   0  0  0  0  0  0
  -27.8750  -30.4386   23.9314 H   0  0  0  0  0  0
  -27.2662  -33.3655   26.2028 H   0  0  0  0  0  0
  -28.3880  -32.6818   25.0350 H   0  0  0  0  0  0
  -28.0637  -31.8459   26.5454 H   0  0  0  0  0  0
  -28.2550  -38.0127   24.7572 H   0  0  0  0  0  0
  -28.1097  -36.2660   24.6220 H   0  0  0  0  0  0
  -27.2288  -37.1343   25.8866 H   0  0  0  0  0  0
  -20.9299  -29.8728   21.6907 H   0  0  0  0  0  0
  -26.0140  -38.2844   24.1480 H   0  0  0  0  0  0
  -33.0386  -21.7659   22.3515 H   0  0  0  0  0  0
  -33.0015  -19.9357   22.4677 H   0  0  0  0  0  0
  -34.0301  -19.7706   20.1717 H   0  0  0  0  0  0
  -34.0772  -21.6040   20.0722 H   0  0  0  0  0  0
  -28.3336  -21.6902   18.2918 H   0  0  0  0  0  0
  -29.9805  -21.9424   18.7919 H   0  0  0  0  0  0
  -30.0180  -19.6110   18.1008 H   0  0  0  0  0  0
  -28.4225  -19.3536   18.7412 H   0  0  0  0  0  0
  -28.4382  -19.9425   21.8430 H   0  0  0  0  0  0
  -29.9250  -20.7857   22.0469 H   0  0  0  0  0  0
  -29.8480  -16.8556   22.5327 H   0  0  0  0  0  0
  -31.3590  -17.0420   21.5913 H   0  0  0  0  0  0
  -30.7239  -16.8498   18.9852 H   0  0  0  0  0  0
  -28.9630  -16.5514   18.8696 H   0  0  0  0  0  0
  -28.4679  -17.7908   20.8147 H   0  0  0  0  0  0
  -31.5837  -21.6712   20.2117 H   0  0  0  0  0  0
  -27.5233  -21.4786   20.4872 H   0  0  0  0  0  0
  -27.0381  -23.7759   20.1954 H   0  0  0  0  0  0
  -27.6697  -24.5992   21.5798 H   0  0  0  0  0  0
  -28.1939  -25.2008   18.7035 H   0  0  0  0  0  0
  -29.6342  -25.1303   19.6497 H   0  0  0  0  0  0
  -31.7221  -18.8511   21.0764 H   0  0  0  0  0  0
  -31.7723  -19.0926   19.4776 H   0  0  0  0  0  0
  -29.8530  -23.2783   20.7856 H   0  0  0  0  0  0
  -28.8382  -22.9370   21.9814 H   0  0  0  0  0  0
  1 25  1  0  0  0
  1 30  2  0  0  0
  1 84  1  0  0  0
  2  3  1  0  0  0
  2 25  1  0  0  0
  2 87  1  0  0  0
  2 88  1  0  0  0
  3  4  1  0  0  0
  3 89  1  0  0  0
  3 90  1  0  0  0
  4  5  1  0  0  0
  4 91  1  0  0  0
  4 92  1  0  0  0
  5  6  1  0  0  0
  5 26  1  0  0  0
  5 93  1  0  0  0
  6 25  1  0  0  0
  6 94  1  0  0  0
  6 95  1  0  0  0
  7  8  2  0  0  0
  7 26  1  0  0  0
  7 29  1  0  0  0
  8  9  1  0  0  0
  8 22  1  0  0  0
  9 10  1  0  0  0
  9 27  2  0  0  0
 10 11  2  0  0  0
 10 15  1  0  0  0
 11 12  1  0  0  0
 11 96  1  0  0  0
 12 13  2  0  0  0
 12 97  1  0  0  0
 13 14  1  0  0  0
 13 31  1  0  0  0
 14 15  2  0  0  0
 14 98  1  0  0  0
 15 99  1  0  0  0
 16 17  2  0  0  0
 16 21  1  0  0  0
 16 31  1  0  0  0
 17 18  1  0  0  0
 17100  1  0  0  0
 18 19  2  0  0  0
 18101  1  0  0  0
 19 20  1  0  0  0
 19 24  1  0  0  0
 20 21  2  0  0  0
 20102  1  0  0  0
 21 23  1  0  0  0
 22 28  1  0  0  0
 22 32  2  0  0  0
 26 27  1  0  0  0
 28103  1  0  0  0
 28104  1  0  0  0
 29105  1  0  0  0
 29106  1  0  0  0
 33 34  1  0  0  0
 33 66  1  0  0  0
 33 70  2  0  0  0
 34 36  1  0  0  0
 34 59  1  0  0  0
 34107  1  0  0  0
 35 44  2  0  0  0
 35 45  1  0  0  0
 35 68  1  0  0  0
 36 56  1  0  0  0
 36108  1  0  0  0
 37 39  1  0  0  0
 37 47  1  0  0  0
 37 66  1  0  0  0
 37109  1  0  0  0
 38 43  2  0  0  0
 38 46  1  0  0  0
 38 47  1  0  0  0
 39 64  1  0  0  0
 39 67  2  0  0  0
 40 52  1  0  0  0
 40 53  2  0  0  0
 40 58  1  0  0  0
 41110  1  0  0  0
 41111  1  0  0  0
 41112  1  0  0  0
 41 48  1  0  0  0
 42 43  1  0  0  0
 42 66  1  0  0  0
 42113  1  0  0  0
 42114  1  0  0  0
 43 44  1  0  0  0
 44115  1  0  0  0
 45 46  2  0  0  0
 45116  1  0  0  0
 46117  1  0  0  0
 47118  1  0  0  0
 47119  1  0  0  0
 48 56  1  0  0  0
 48 65  1  0  0  0
 48120  1  0  0  0
 49 50  1  0  0  0
 49 53  1  0  0  0
 49 64  1  0  0  0
 49121  1  0  0  0
 50 51  1  0  0  0
 50122  1  0  0  0
 50123  1  0  0  0
 51 52  1  0  0  0
 51124  1  0  0  0
 51125  1  0  0  0
 52126  1  0  0  0
 52127  1  0  0  0
 53 54  1  0  0  0
 54 55  2  0  0  0
 54128  1  0  0  0
 55 57  1  0  0  0
 55129  1  0  0  0
 56 69  2  0  0  0
 57 58  2  0  0  0
 57130  1  0  0  0
 58131  1  0  0  0
 59 60  1  0  0  0
 59 61  1  0  0  0
 59 62  1  0  0  0
 60132  1  0  0  0
 60133  1  0  0  0
 60134  1  0  0  0
 61135  1  0  0  0
 61136  1  0  0  0
 61137  1  0  0  0
 62138  1  0  0  0
 62139  1  0  0  0
 62140  1  0  0  0
 63 65  1  0  0  0
 63141  1  0  0  0
 63142  1  0  0  0
 63143  1  0  0  0
 64144  1  0  0  0
 65145  1  0  0  0
 68 83  1  0  0  0
 71 72  1  0  0  0
 71 79  1  0  0  0
 71146  1  0  0  0
 71147  1  0  0  0
 72 79  1  0  0  0
 72148  1  0  0  0
 72149  1  0  0  0
 73 74  1  0  0  0
 73 80  1  0  0  0
 73150  1  0  0  0
 73151  1  0  0  0
 74 81  1  0  0  0
 74152  1  0  0  0
 74153  1  0  0  0
 75 80  1  0  0  0
 75 81  1  0  0  0
 75154  1  0  0  0
 75155  1  0  0  0
 76 84  1  0  0  0
 76156  1  0  0  0
 76157  1  0  0  0
 76 78  1  0  0  0
 77 78  1  0  0  0
 77 84  1  0  0  0
 77158  1  0  0  0
 77159  1  0  0  0
 78 81  1  0  0  0
 78160  1  0  0  0
 79 85  1  0  0  0
 79161  1  0  0  0
 80 86  1  0  0  0
 80162  1  0  0  0
 81 85  1  0  0  0
 82 83  1  0  0  0
 82 86  1  0  0  0
 82163  1  0  0  0
 82164  1  0  0  0
 83165  1  0  0  0
 83166  1  0  0  0
 85167  1  0  0  0
 85168  1  0  0  0
 86169  1  0  0  0
 86170  1  0  0  0
M  CHG  2  85   1  86   1
M  ISO  4   1 100  68 101  83 101  84 100
M  END
> <chiral flag>
0

> <version>
0

> <s_m_source_file>
/data/baiqing/PycharmProjects/Reinvent-master-3.2/result/LINK_invent/BTK/process_docking_weight1_custom_sum_contain_oxygen_bond_distance_aromatic_linkinvent_7_9_3/rearranged_h_0163.sdf

> <i_m_source_file_index>
91

> <r_mmod_Potential_Energy-OPLS-2005>
45.0923919677734

> <r_mmod_Stretch_Energy-OPLS-2005>
67.8704986572266

> <r_mmod_Bend_Energy-OPLS-2005>
177.882019042969

> <r_mmod_Torsional_Energy-OPLS-2005>
427.932067871094

> <r_mmod_Improper_Torsional_Energy-OPLS-2005>
14.4787845611572

> <r_mmod_Van_der_Waal_Energy-OPLS-2005>
115.030517578125

> <r_mmod_Electrostatic_Energy-OPLS-2005>
182.177749633789

> <r_mmod_Solvation_Energy-OPLS-2005>
-973.909851074219

> <b_mmod_Minimization_Converged-OPLS-2005>
0

> <r_mmod_RMS_Derivative-OPLS-2005>
3.88805437088013

$$$$
92
                    3D
 Structure written by MMmdl.
170179  0  0  1  0            999 V2000
  -30.6964  -14.6619   20.5438 C   0  0  0  0  0  0
  -30.4165  -12.4158   19.4861 C   0  0  0  0  0  0
  -29.5110  -12.5171   18.2409 C   0  0  0  0  0  0
  -28.0344  -12.3469   18.6411 C   0  0  0  0  0  0
  -27.6456  -13.2329   19.8532 C   0  0  2  0  0  0
  -28.6795  -13.1396   20.9950 C   0  0  0  0  0  0
  -25.2517  -13.8203   20.5682 C   0  0  0  0  0  0
  -24.1802  -13.0444   20.9184 C   0  0  0  0  0  0
  -24.6397  -11.6921   20.8729 C   0  0  0  0  0  0
  -23.9072  -10.4299   21.0402 C   0  0  0  0  0  0
  -24.3621   -9.4219   21.9187 C   0  0  0  0  0  0
  -23.6296   -8.2249   22.0761 C   0  0  0  0  0  0
  -22.4280   -8.0284   21.3544 C   0  0  0  0  0  0
  -21.9917   -9.0256   20.4642 C   0  0  0  0  0  0
  -22.7243  -10.2134   20.3054 C   0  0  0  0  0  0
  -21.6850   -6.0738   22.5275 C   0  0  0  0  0  0
  -21.4017   -6.5642   23.8208 C   0  0  0  0  0  0
  -21.3663   -5.6794   24.9170 C   0  0  0  0  0  0
  -21.6042   -4.3056   24.7219 C   0  0  0  0  0  0
  -21.8819   -3.8150   23.4339 C   0  0  0  0  0  0
  -21.9194   -4.6969   22.3399 C   0  0  0  0  0  0
  -22.7822  -13.5230   21.1858 C   0  0  0  0  0  0
  -22.1659   -4.2155   21.0974 F   0  0  0  0  0  0
  -21.5631   -3.4541   25.7732 F   0  0  0  0  0  0
  -30.0016  -13.4732   20.4418 N   0  0  0  0  0  0
  -26.2944  -12.9411   20.3253 N   0  0  0  0  0  0
  -25.9324  -11.6553   20.5722 N   0  0  0  0  0  0
  -22.0464  -12.8219   22.0402 N   0  0  0  0  0  0
  -25.4230  -15.1930   20.4153 N   0  0  0  0  0  0
  -31.8141  -14.7433   20.0281 O   0  0  0  0  0  0
  -21.6641   -6.8880   21.4237 O   0  0  0  0  0  0
  -22.3512  -14.5534   20.6700 O   0  0  0  0  0  0
  -24.6291  -31.8585   23.2027 C   0  0  0  0  0  0
  -25.9125  -32.4772   23.8362 C   0  0  1  0  0  0
  -27.2133  -27.3033   20.1188 C   0  0  0  0  0  0
  -25.5939  -33.8572   24.2280 N   0  0  0  0  0  0
  -23.4232  -30.4831   21.5447 C   0  0  2  0  0  0
  -24.8691  -28.9398   20.1084 C   0  0  0  0  0  0
  -22.7479  -29.4615   22.4914 C   0  0  0  0  0  0
  -18.0271  -28.1375   22.8466 C   0  0  0  0  0  0
  -24.1489  -36.7267   23.2641 C   0  0  0  0  0  0
  -25.9677  -30.7835   21.3777 C   0  0  0  0  0  0
  -26.0404  -29.4106   20.7176 C   0  0  0  0  0  0
  -27.2194  -28.6022   20.7171 C   0  0  0  0  0  0
  -26.0277  -26.8995   19.4684 C   0  0  0  0  0  0
  -24.8645  -27.6887   19.4754 C   0  0  0  0  0  0
  -23.6393  -29.8225   20.1592 C   0  0  0  0  0  0
  -25.4115  -36.3072   24.0339 C   0  0  1  0  0  0
  -20.5879  -28.3676   23.1266 C   0  0  2  0  0  0
  -20.6768  -26.9400   22.5394 C   0  0  0  0  0  0
  -19.5750  -26.6372   21.5192 C   0  0  0  0  0  0
  -18.1917  -26.7914   22.1600 C   0  0  0  0  0  0
  -19.1534  -28.8844   23.2851 C   0  0  0  0  0  0
  -18.9471  -30.1442   23.8874 C   0  0  0  0  0  0
  -17.6479  -30.6585   24.0547 C   0  0  0  0  0  0
  -25.9053  -34.9444   23.5096 C   0  0  0  0  0  0
  -16.5357  -29.9076   23.6345 C   0  0  0  0  0  0
  -16.7262  -28.6492   23.0359 C   0  0  0  0  0  0
  -26.4500  -31.6596   25.0738 C   0  0  0  0  0  0
  -25.3735  -31.3714   26.1470 C   0  0  0  0  0  0
  -27.0375  -30.3035   24.6191 C   0  0  0  0  0  0
  -27.6061  -32.4338   25.7504 C   0  0  0  0  0  0
  -27.5576  -37.1780   24.8467 C   0  0  0  0  0  0
  -21.4188  -29.3039   22.3674 N   0  0  0  0  0  0
  -26.4280  -37.3781   23.9432 N   0  0  0  0  0  0
  -24.6920  -31.0581   22.0985 N   0  0  0  0  0  0
  -23.4198  -28.8142   23.2988 O   0  0  0  0  0  0
  -28.2787  -26.3881   20.1594 O   0  0  0  0  0  0
  -26.5616  -34.8920   22.4656 O   0  0  0  0  0  0
  -23.5450  -32.1399   23.7337 O   0  0  0  0  0  0
  -28.3863  -23.0736   19.2151 C   0  0  0  0  0  0
  -28.5804  -23.6914   20.4852 C   0  0  0  0  0  0
  -28.7245  -21.6919   19.0227 C   0  0  0  0  0  0
  -29.1546  -22.8223   21.4754 C   0  0  0  0  0  0
  -29.2324  -20.9095   20.0914 C   0  0  0  0  0  0
  -29.9866  -15.9010   22.5048 C   0  0  0  0  0  0
  -31.3263  -16.3873   23.1004 C   0  0  0  0  0  0
  -31.7873  -17.6375   21.1315 C   0  0  0  0  0  0
  -30.4309  -17.2093   20.5219 C   0  0  2  0  0  0
  -27.7894  -23.8731   18.0637 C   0  0  0  0  0  0
  -28.5336  -21.0252   17.6639 C   0  0  0  0  0  0
  -28.3509  -23.1318   23.8734 C   0  0  0  0  0  0
  -27.9633  -25.1150   20.8626 C   0  0  0  0  0  0
  -29.4987  -23.3166   22.8741 C   0  0  0  0  0  0
  -29.3961  -18.4268   20.7117 C   0  0  0  0  0  0
  -29.4427  -21.4921   21.2924 N   0  0  0  0  0  0
  -30.0867  -15.8094   21.0393 N   0  0  0  0  0  0
  -31.6789  -17.6544   22.5535 O   0  0  0  0  0  0
  -29.6857  -19.5902   19.8612 O   0  0  0  0  0  0
  -31.4656  -12.4909   19.1959 H   0  0  0  0  0  0
  -30.3170  -11.4325   19.9489 H   0  0  0  0  0  0
  -29.7898  -11.7596   17.5073 H   0  0  0  0  0  0
  -29.6548  -13.4837   17.7555 H   0  0  0  0  0  0
  -27.8795  -11.2956   18.8870 H   0  0  0  0  0  0
  -27.3838  -12.5598   17.7918 H   0  0  0  0  0  0
  -27.6521  -14.2626   19.4938 H   0  0  0  0  0  0
  -28.6916  -12.1386   21.4290 H   0  0  0  0  0  0
  -28.3771  -13.8106   21.7950 H   0  0  0  0  0  0
  -25.2758   -9.5698   22.4767 H   0  0  0  0  0  0
  -24.0002   -7.4646   22.7491 H   0  0  0  0  0  0
  -21.0846   -8.8765   19.8947 H   0  0  0  0  0  0
  -22.3696  -10.9670   19.6163 H   0  0  0  0  0  0
  -21.2007   -7.6150   23.9710 H   0  0  0  0  0  0
  -21.1486   -6.0525   25.9070 H   0  0  0  0  0  0
  -22.0596   -2.7613   23.2833 H   0  0  0  0  0  0
  -22.4068  -11.9875   22.4780 H   0  0  0  0  0  0
  -21.1082  -13.1253   22.2606 H   0  0  0  0  0  0
  -24.6606  -15.8505   20.5357 H   0  0  0  0  0  0
  -26.2839  -15.6329   20.1147 H   0  0  0  0  0  0
  -26.7189  -32.5454   23.1108 H   0  0  0  0  0  0
  -25.0158  -33.9724   25.0479 H   0  0  0  0  0  0
  -22.7181  -31.3039   21.4004 H   0  0  0  0  0  0
  -23.3766  -35.9573   23.3294 H   0  0  0  0  0  0
  -24.3577  -36.8900   22.2052 H   0  0  0  0  0  0
  -23.7211  -37.6452   23.6674 H   0  0  0  0  0  0
  -26.1088  -31.5493   20.6129 H   0  0  0  0  0  0
  -26.8456  -30.8281   22.0103 H   0  0  0  0  0  0
  -28.1139  -28.9468   21.2160 H   0  0  0  0  0  0
  -25.9856  -25.9404   18.9728 H   0  0  0  0  0  0
  -23.9690  -27.3235   18.9900 H   0  0  0  0  0  0
  -23.7595  -30.6018   19.4049 H   0  0  0  0  0  0
  -22.7580  -29.2547   19.8562 H   0  0  0  0  0  0
  -25.1287  -36.1917   25.0826 H   0  0  0  0  0  0
  -20.9957  -28.3247   24.1394 H   0  0  0  0  0  0
  -20.5648  -26.2287   23.3588 H   0  0  0  0  0  0
  -21.6637  -26.7422   22.1200 H   0  0  0  0  0  0
  -19.6924  -25.6278   21.1239 H   0  0  0  0  0  0
  -19.6709  -27.3161   20.6703 H   0  0  0  0  0  0
  -17.4190  -26.6643   21.3996 H   0  0  0  0  0  0
  -18.0325  -26.0066   22.9013 H   0  0  0  0  0  0
  -19.7956  -30.7236   24.2246 H   0  0  0  0  0  0
  -17.5045  -31.6272   24.5132 H   0  0  0  0  0  0
  -15.5356  -30.2970   23.7705 H   0  0  0  0  0  0
  -15.8653  -28.0799   22.7112 H   0  0  0  0  0  0
  -24.5932  -30.7040   25.7803 H   0  0  0  0  0  0
  -24.8905  -32.2862   26.4915 H   0  0  0  0  0  0
  -25.8073  -30.8903   27.0244 H   0  0  0  0  0  0
  -26.2973  -29.6736   24.1243 H   0  0  0  0  0  0
  -27.4132  -29.7335   25.4696 H   0  0  0  0  0  0
  -27.8797  -30.4354   23.9389 H   0  0  0  0  0  0
  -27.2701  -33.3672   26.2036 H   0  0  0  0  0  0
  -28.3885  -32.6846   25.0324 H   0  0  0  0  0  0
  -28.0701  -31.8489   26.5460 H   0  0  0  0  0  0
  -28.2575  -38.0102   24.7565 H   0  0  0  0  0  0
  -28.1099  -36.2638   24.6236 H   0  0  0  0  0  0
  -27.2299  -37.1350   25.8869 H   0  0  0  0  0  0
  -20.9363  -29.8798   21.6919 H   0  0  0  0  0  0
  -26.0158  -38.2841   24.1468 H   0  0  0  0  0  0
  -29.1739  -16.5735   22.7811 H   0  0  0  0  0  0
  -29.7483  -14.9413   22.9627 H   0  0  0  0  0  0
  -32.1260  -15.6680   22.9136 H   0  0  0  0  0  0
  -31.2415  -16.4839   24.1830 H   0  0  0  0  0  0
  -32.0588  -18.6365   20.7873 H   0  0  0  0  0  0
  -32.6076  -16.9859   20.8295 H   0  0  0  0  0  0
  -30.5702  -17.1033   19.4442 H   0  0  0  0  0  0
  -26.7070  -23.7479   18.0362 H   0  0  0  0  0  0
  -28.1929  -23.5665   17.0992 H   0  0  0  0  0  0
  -28.0116  -24.9340   18.1495 H   0  0  0  0  0  0
  -29.3230  -21.3352   16.9778 H   0  0  0  0  0  0
  -27.5698  -21.2838   17.2260 H   0  0  0  0  0  0
  -28.5554  -19.9376   17.7304 H   0  0  0  0  0  0
  -28.6417  -23.4936   24.8592 H   0  0  0  0  0  0
  -28.0831  -22.0801   23.9722 H   0  0  0  0  0  0
  -27.4590  -23.6779   23.5677 H   0  0  0  0  0  0
  -28.1570  -25.3349   21.9096 H   0  0  0  0  0  0
  -26.8883  -24.9349   20.8555 H   0  0  0  0  0  0
  -29.8290  -24.3534   22.8386 H   0  0  0  0  0  0
  -30.3670  -22.7659   23.2394 H   0  0  0  0  0  0
  -29.3522  -18.7359   21.7562 H   0  0  0  0  0  0
  -28.3932  -18.0857   20.4523 H   0  0  0  0  0  0
  1 25  1  0  0  0
  1 30  2  0  0  0
  1 87  1  0  0  0
  2  3  1  0  0  0
  2 25  1  0  0  0
  2 90  1  0  0  0
  2 91  1  0  0  0
  3  4  1  0  0  0
  3 92  1  0  0  0
  3 93  1  0  0  0
  4  5  1  0  0  0
  4 94  1  0  0  0
  4 95  1  0  0  0
  5  6  1  0  0  0
  5 26  1  0  0  0
  5 96  1  0  0  0
  6 25  1  0  0  0
  6 97  1  0  0  0
  6 98  1  0  0  0
  7  8  2  0  0  0
  7 26  1  0  0  0
  7 29  1  0  0  0
  8  9  1  0  0  0
  8 22  1  0  0  0
  9 10  1  0  0  0
  9 27  2  0  0  0
 10 11  2  0  0  0
 10 15  1  0  0  0
 11 12  1  0  0  0
 11 99  1  0  0  0
 12 13  2  0  0  0
 12100  1  0  0  0
 13 14  1  0  0  0
 13 31  1  0  0  0
 14 15  2  0  0  0
 14101  1  0  0  0
 15102  1  0  0  0
 16 17  2  0  0  0
 16 21  1  0  0  0
 16 31  1  0  0  0
 17 18  1  0  0  0
 17103  1  0  0  0
 18 19  2  0  0  0
 18104  1  0  0  0
 19 20  1  0  0  0
 19 24  1  0  0  0
 20 21  2  0  0  0
 20105  1  0  0  0
 21 23  1  0  0  0
 22 28  1  0  0  0
 22 32  2  0  0  0
 26 27  1  0  0  0
 28106  1  0  0  0
 28107  1  0  0  0
 29108  1  0  0  0
 29109  1  0  0  0
 33 34  1  0  0  0
 33 66  1  0  0  0
 33 70  2  0  0  0
 34 36  1  0  0  0
 34 59  1  0  0  0
 34110  1  0  0  0
 35 44  2  0  0  0
 35 45  1  0  0  0
 35 68  1  0  0  0
 36 56  1  0  0  0
 36111  1  0  0  0
 37 39  1  0  0  0
 37 47  1  0  0  0
 37 66  1  0  0  0
 37112  1  0  0  0
 38 43  2  0  0  0
 38 46  1  0  0  0
 38 47  1  0  0  0
 39 64  1  0  0  0
 39 67  2  0  0  0
 40 52  1  0  0  0
 40 53  2  0  0  0
 40 58  1  0  0  0
 41113  1  0  0  0
 41114  1  0  0  0
 41115  1  0  0  0
 41 48  1  0  0  0
 42 43  1  0  0  0
 42 66  1  0  0  0
 42116  1  0  0  0
 42117  1  0  0  0
 43 44  1  0  0  0
 44118  1  0  0  0
 45 46  2  0  0  0
 45119  1  0  0  0
 46120  1  0  0  0
 47121  1  0  0  0
 47122  1  0  0  0
 48 56  1  0  0  0
 48 65  1  0  0  0
 48123  1  0  0  0
 49 50  1  0  0  0
 49 53  1  0  0  0
 49 64  1  0  0  0
 49124  1  0  0  0
 50 51  1  0  0  0
 50125  1  0  0  0
 50126  1  0  0  0
 51 52  1  0  0  0
 51127  1  0  0  0
 51128  1  0  0  0
 52129  1  0  0  0
 52130  1  0  0  0
 53 54  1  0  0  0
 54 55  2  0  0  0
 54131  1  0  0  0
 55 57  1  0  0  0
 55132  1  0  0  0
 56 69  2  0  0  0
 57 58  2  0  0  0
 57133  1  0  0  0
 58134  1  0  0  0
 59 60  1  0  0  0
 59 61  1  0  0  0
 59 62  1  0  0  0
 60135  1  0  0  0
 60136  1  0  0  0
 60137  1  0  0  0
 61138  1  0  0  0
 61139  1  0  0  0
 61140  1  0  0  0
 62141  1  0  0  0
 62142  1  0  0  0
 62143  1  0  0  0
 63 65  1  0  0  0
 63144  1  0  0  0
 63145  1  0  0  0
 63146  1  0  0  0
 64147  1  0  0  0
 65148  1  0  0  0
 68 83  1  0  0  0
 71 72  2  0  0  0
 71 73  1  0  0  0
 71 80  1  0  0  0
 72 74  1  0  0  0
 72 83  1  0  0  0
 73 75  2  0  0  0
 73 81  1  0  0  0
 74 84  1  0  0  0
 74 86  2  0  0  0
 75 86  1  0  0  0
 75 89  1  0  0  0
 76 77  1  0  0  0
 76 87  1  0  0  0
 76149  1  0  0  0
 76150  1  0  0  0
 77 88  1  0  0  0
 77151  1  0  0  0
 77152  1  0  0  0
 78 79  1  0  0  0
 78 88  1  0  0  0
 78153  1  0  0  0
 78154  1  0  0  0
 79 85  1  0  0  0
 79 87  1  0  0  0
 79155  1  0  0  0
 80156  1  0  0  0
 80157  1  0  0  0
 80158  1  0  0  0
 81159  1  0  0  0
 81160  1  0  0  0
 81161  1  0  0  0
 82 84  1  0  0  0
 82162  1  0  0  0
 82163  1  0  0  0
 82164  1  0  0  0
 83165  1  0  0  0
 83166  1  0  0  0
 84167  1  0  0  0
 84168  1  0  0  0
 85 89  1  0  0  0
 85169  1  0  0  0
 85170  1  0  0  0
M  ISO  4   1 100  68 101  83 101  87 100
M  END
> <chiral flag>
0

> <version>
0

> <s_m_source_file>
/data/baiqing/PycharmProjects/Reinvent-master-3.2/result/LINK_invent/BTK/process_docking_weight1_custom_sum_contain_oxygen_bond_distance_aromatic_linkinvent_7_9_3/rearranged_h_0163.sdf

> <i_m_source_file_index>
92

> <r_mmod_Potential_Energy-OPLS-2005>
124.029731750488

> <r_mmod_Stretch_Energy-OPLS-2005>
103.701263427734

> <r_mmod_Bend_Energy-OPLS-2005>
178.63395690918

> <r_mmod_Torsional_Energy-OPLS-2005>
347.154266357422

> <r_mmod_Improper_Torsional_Energy-OPLS-2005>
10.5346517562866

> <r_mmod_Van_der_Waal_Energy-OPLS-2005>
160.985168457031

> <r_mmod_Electrostatic_Energy-OPLS-2005>
-526.912780761719

> <r_mmod_Solvation_Energy-OPLS-2005>
-210.319839477539

> <b_mmod_Minimization_Converged-OPLS-2005>
0

> <r_mmod_RMS_Derivative-OPLS-2005>
2.03775238990784

$$$$
93
                    3D
 Structure written by MMmdl.
174184  0  0  1  0            999 V2000
  -30.6612  -14.6465   20.4482 C   0  0  0  0  0  0
  -30.4219  -12.3900   19.4682 C   0  0  0  0  0  0
  -29.5077  -12.4931   18.2288 C   0  0  0  0  0  0
  -28.0306  -12.3328   18.6416 C   0  0  0  0  0  0
  -27.6450  -13.2272   19.8508 C   0  0  2  0  0  0
  -28.6887  -13.1414   20.9872 C   0  0  0  0  0  0
  -25.2534  -13.8190   20.5704 C   0  0  0  0  0  0
  -24.1811  -13.0444   20.9208 C   0  0  0  0  0  0
  -24.6371  -11.6917   20.8726 C   0  0  0  0  0  0
  -23.9036  -10.4292   21.0399 C   0  0  0  0  0  0
  -24.3601   -9.4219   21.9183 C   0  0  0  0  0  0
  -23.6297   -8.2244   22.0750 C   0  0  0  0  0  0
  -22.4278   -8.0266   21.3542 C   0  0  0  0  0  0
  -21.9894   -9.0237   20.4652 C   0  0  0  0  0  0
  -22.7202  -10.2125   20.3065 C   0  0  0  0  0  0
  -21.6849   -6.0733   22.5290 C   0  0  0  0  0  0
  -21.4004   -6.5639   23.8223 C   0  0  0  0  0  0
  -21.3657   -5.6789   24.9183 C   0  0  0  0  0  0
  -21.6048   -4.3055   24.7228 C   0  0  0  0  0  0
  -21.8817   -3.8145   23.4346 C   0  0  0  0  0  0
  -21.9190   -4.6961   22.3400 C   0  0  0  0  0  0
  -22.7834  -13.5238   21.1859 C   0  0  0  0  0  0
  -22.1669   -4.2150   21.0984 F   0  0  0  0  0  0
  -21.5620   -3.4538   25.7738 F   0  0  0  0  0  0
  -30.0009  -13.4491   20.4089 N   0  0  0  0  0  0
  -26.2948  -12.9390   20.3271 N   0  0  0  0  0  0
  -25.9303  -11.6521   20.5719 N   0  0  0  0  0  0
  -22.0447  -12.8248   22.0408 N   0  0  0  0  0  0
  -25.4237  -15.1920   20.4148 N   0  0  0  0  0  0
  -31.8617  -14.7049   20.1746 O   0  0  0  0  0  0
  -21.6638   -6.8874   21.4252 O   0  0  0  0  0  0
  -22.3528  -14.5540   20.6689 O   0  0  0  0  0  0
  -24.6213  -31.8620   23.2034 C   0  0  0  0  0  0
  -25.9066  -32.4793   23.8366 C   0  0  1  0  0  0
  -27.2368  -27.3575   20.1169 C   0  0  0  0  0  0
  -25.5893  -33.8595   24.2290 N   0  0  0  0  0  0
  -23.4149  -30.4824   21.5442 C   0  0  2  0  0  0
  -24.8647  -28.9334   20.1157 C   0  0  0  0  0  0
  -22.7453  -29.4631   22.4946 C   0  0  0  0  0  0
  -18.0279  -28.1382   22.8491 C   0  0  0  0  0  0
  -24.1477  -36.7294   23.2641 C   0  0  0  0  0  0
  -25.9511  -30.8051   21.3681 C   0  0  0  0  0  0
  -26.0290  -29.4327   20.7129 C   0  0  0  0  0  0
  -27.2200  -28.6574   20.6988 C   0  0  0  0  0  0
  -26.0544  -26.8906   19.5087 C   0  0  0  0  0  0
  -24.8759  -27.6657   19.5068 C   0  0  0  0  0  0
  -23.6303  -29.8103   20.1613 C   0  0  0  0  0  0
  -25.4103  -36.3095   24.0338 C   0  0  1  0  0  0
  -20.5880  -28.3676   23.1301 C   0  0  2  0  0  0
  -20.6763  -26.9398   22.5425 C   0  0  0  0  0  0
  -19.5748  -26.6388   21.5212 C   0  0  0  0  0  0
  -18.1922  -26.7935   22.1611 C   0  0  0  0  0  0
  -19.1534  -28.8842   23.2898 C   0  0  0  0  0  0
  -18.9460  -30.1444   23.8919 C   0  0  0  0  0  0
  -17.6461  -30.6588   24.0567 C   0  0  0  0  0  0
  -25.9039  -34.9463   23.5117 C   0  0  0  0  0  0
  -16.5350  -29.9092   23.6324 C   0  0  0  0  0  0
  -16.7269  -28.6506   23.0353 C   0  0  0  0  0  0
  -26.4467  -31.6607   25.0727 C   0  0  0  0  0  0
  -25.3724  -31.3780   26.1492 C   0  0  0  0  0  0
  -27.0266  -30.3016   24.6166 C   0  0  0  0  0  0
  -27.6057  -32.4329   25.7462 C   0  0  0  0  0  0
  -27.5586  -37.1792   24.8453 C   0  0  0  0  0  0
  -21.4164  -29.3035   22.3698 N   0  0  0  0  0  0
  -26.4278  -37.3792   23.9424 N   0  0  0  0  0  0
  -24.6804  -31.0659   22.0958 N   0  0  0  0  0  0
  -23.4187  -28.8180   23.3027 O   0  0  0  0  0  0
  -28.3787  -26.5571   20.1202 O   0  0  0  0  0  0
  -26.5617  -34.8924   22.4689 O   0  0  0  0  0  0
  -23.5378  -32.1395   23.7384 O   0  0  0  0  0  0
  -29.3831  -19.4546   19.1672 C   0  0  0  0  0  0
  -28.7978  -21.2800   20.7373 C   0  0  0  0  0  0
  -29.6979  -18.5074   20.1857 C   0  0  0  0  0  0
  -29.0241  -20.3088   21.7792 C   0  0  0  0  0  0
  -29.5181  -18.9806   21.5142 C   0  0  0  0  0  0
  -28.9511  -20.7968   19.4091 C   0  0  0  0  0  0
  -28.3647  -24.3117   23.0652 C   0  0  0  0  0  0
  -27.6616  -25.3714   22.1979 C   0  0  0  0  0  0
  -27.9431  -23.9195   20.0696 C   0  0  0  0  0  0
  -29.7419  -24.7898   21.2285 C   0  0  0  0  0  0
  -28.3308  -22.7643   21.0882 C   0  0  2  0  0  0
  -29.2541  -23.5796   22.0438 C   0  0  2  0  0  0
  -28.3462  -25.2569   20.8101 C   0  0  1  0  0  0
  -28.7121  -20.6604   23.2325 C   0  0  0  0  0  0
  -29.9011  -18.0534   22.6667 C   0  0  0  0  0  0
  -30.4196  -16.8739   18.2897 C   0  0  0  0  0  0
  -28.4749  -21.1457   17.0653 C   0  0  0  0  0  0
  -30.3537  -17.1005   19.8207 C   0  0  2  0  0  0
  -29.9123  -15.8021   20.4624 N   0  0  0  0  0  0
  -28.6692  -21.6637   18.3755 O   0  0  0  0  0  0
  -31.4693  -12.4832   19.1739 H   0  0  0  0  0  0
  -30.3286  -11.4100   19.9369 H   0  0  0  0  0  0
  -29.7798  -11.7307   17.4971 H   0  0  0  0  0  0
  -29.6541  -13.4569   17.7389 H   0  0  0  0  0  0
  -27.8756  -11.2843   18.8990 H   0  0  0  0  0  0
  -27.3754  -12.5367   17.7936 H   0  0  0  0  0  0
  -27.6474  -14.2513   19.4767 H   0  0  0  0  0  0
  -28.6993  -12.1462   21.4338 H   0  0  0  0  0  0
  -28.4435  -13.8370   21.7914 H   0  0  0  0  0  0
  -25.2735   -9.5718   22.4754 H   0  0  0  0  0  0
  -24.0023   -7.4635   22.7461 H   0  0  0  0  0  0
  -21.0818   -8.8740   19.8963 H   0  0  0  0  0  0
  -22.3643  -10.9660   19.6181 H   0  0  0  0  0  0
  -21.2002   -7.6148   23.9720 H   0  0  0  0  0  0
  -21.1479   -6.0523   25.9090 H   0  0  0  0  0  0
  -22.0596   -2.7607   23.2830 H   0  0  0  0  0  0
  -22.4042  -11.9939   22.4870 H   0  0  0  0  0  0
  -21.1070  -13.1313   22.2564 H   0  0  0  0  0  0
  -24.6556  -15.8434   20.5329 H   0  0  0  0  0  0
  -26.2675  -15.6331   20.0721 H   0  0  0  0  0  0
  -26.7137  -32.5480   23.1120 H   0  0  0  0  0  0
  -25.0024  -33.9745   25.0421 H   0  0  0  0  0  0
  -22.7062  -31.3007   21.3982 H   0  0  0  0  0  0
  -23.3764  -35.9602   23.3271 H   0  0  0  0  0  0
  -24.3572  -36.8947   22.2062 H   0  0  0  0  0  0
  -23.7195  -37.6472   23.6680 H   0  0  0  0  0  0
  -26.0758  -31.5710   20.6015 H   0  0  0  0  0  0
  -26.8335  -30.8564   21.9944 H   0  0  0  0  0  0
  -28.1197  -29.0397   21.1603 H   0  0  0  0  0  0
  -26.0430  -25.9201   19.0365 H   0  0  0  0  0  0
  -23.9822  -27.2765   19.0382 H   0  0  0  0  0  0
  -23.7468  -30.5836   19.4012 H   0  0  0  0  0  0
  -22.7533  -29.2349   19.8616 H   0  0  0  0  0  0
  -25.1276  -36.1947   25.0830 H   0  0  0  0  0  0
  -20.9974  -28.3252   24.1423 H   0  0  0  0  0  0
  -20.5645  -26.2287   23.3623 H   0  0  0  0  0  0
  -21.6639  -26.7419   22.1240 H   0  0  0  0  0  0
  -19.6907  -25.6300   21.1244 H   0  0  0  0  0  0
  -19.6705  -27.3197   20.6743 H   0  0  0  0  0  0
  -17.4203  -26.6703   21.3999 H   0  0  0  0  0  0
  -18.0302  -26.0070   22.8995 H   0  0  0  0  0  0
  -19.7935  -30.7245   24.2314 H   0  0  0  0  0  0
  -17.5019  -31.6270   24.5166 H   0  0  0  0  0  0
  -15.5351  -30.2999   23.7641 H   0  0  0  0  0  0
  -15.8669  -28.0830   22.7059 H   0  0  0  0  0  0
  -24.5829  -30.7199   25.7849 H   0  0  0  0  0  0
  -24.8994  -32.2969   26.4969 H   0  0  0  0  0  0
  -25.8058  -30.8914   27.0238 H   0  0  0  0  0  0
  -26.2804  -29.6801   24.1200 H   0  0  0  0  0  0
  -27.3959  -29.7254   25.4660 H   0  0  0  0  0  0
  -27.8691  -30.4286   23.9361 H   0  0  0  0  0  0
  -27.2706  -33.3659   26.2008 H   0  0  0  0  0  0
  -28.3862  -32.6847   25.0268 H   0  0  0  0  0  0
  -28.0723  -31.8469   26.5390 H   0  0  0  0  0  0
  -28.2591  -38.0100   24.7524 H   0  0  0  0  0  0
  -28.1085  -36.2634   24.6222 H   0  0  0  0  0  0
  -27.2322  -37.1392   25.8859 H   0  0  0  0  0  0
  -20.9331  -29.8745   21.6902 H   0  0  0  0  0  0
  -26.0164  -38.2865   24.1454 H   0  0  0  0  0  0
  -29.5165  -19.1609   18.1413 H   0  0  0  0  0  0
  -27.6499  -23.6710   23.5812 H   0  0  0  0  0  0
  -28.9787  -24.7885   23.8311 H   0  0  0  0  0  0
  -27.8111  -26.3561   22.6429 H   0  0  0  0  0  0
  -26.5867  -25.2010   22.1311 H   0  0  0  0  0  0
  -26.8919  -23.8809   19.7894 H   0  0  0  0  0  0
  -28.5234  -23.8705   19.1500 H   0  0  0  0  0  0
  -30.3800  -24.5072   20.3887 H   0  0  0  0  0  0
  -30.2784  -25.5248   21.8321 H   0  0  0  0  0  0
  -27.3851  -22.5746   21.5967 H   0  0  0  0  0  0
  -30.0521  -22.9970   22.5056 H   0  0  0  0  0  0
  -29.6279  -20.8518   23.7914 H   0  0  0  0  0  0
  -28.1753  -19.8428   23.7138 H   0  0  0  0  0  0
  -28.0622  -21.5182   23.3545 H   0  0  0  0  0  0
  -30.8163  -17.5068   22.4383 H   0  0  0  0  0  0
  -29.1081  -17.3287   22.8550 H   0  0  0  0  0  0
  -30.1123  -18.5763   23.5984 H   0  0  0  0  0  0
  -31.0154  -17.6470   17.8038 H   0  0  0  0  0  0
  -29.4240  -16.8697   17.8435 H   0  0  0  0  0  0
  -30.8956  -15.9316   18.0219 H   0  0  0  0  0  0
  -28.0892  -21.9386   16.4247 H   0  0  0  0  0  0
  -27.7436  -20.3359   17.0581 H   0  0  0  0  0  0
  -29.4078  -20.7938   16.6228 H   0  0  0  0  0  0
  -31.3896  -17.2348   20.1390 H   0  0  0  0  0  0
  -28.9357  -15.7204   20.6967 H   0  0  0  0  0  0
  1 25  1  0  0  0
  1 30  2  0  0  0
  1 89  1  0  0  0
  2  3  1  0  0  0
  2 25  1  0  0  0
  2 91  1  0  0  0
  2 92  1  0  0  0
  3  4  1  0  0  0
  3 93  1  0  0  0
  3 94  1  0  0  0
  4  5  1  0  0  0
  4 95  1  0  0  0
  4 96  1  0  0  0
  5  6  1  0  0  0
  5 26  1  0  0  0
  5 97  1  0  0  0
  6 25  1  0  0  0
  6 98  1  0  0  0
  6 99  1  0  0  0
  7  8  2  0  0  0
  7 26  1  0  0  0
  7 29  1  0  0  0
  8  9  1  0  0  0
  8 22  1  0  0  0
  9 10  1  0  0  0
  9 27  2  0  0  0
 10 11  2  0  0  0
 10 15  1  0  0  0
 11 12  1  0  0  0
 11100  1  0  0  0
 12 13  2  0  0  0
 12101  1  0  0  0
 13 14  1  0  0  0
 13 31  1  0  0  0
 14 15  2  0  0  0
 14102  1  0  0  0
 15103  1  0  0  0
 16 17  2  0  0  0
 16 21  1  0  0  0
 16 31  1  0  0  0
 17 18  1  0  0  0
 17104  1  0  0  0
 18 19  2  0  0  0
 18105  1  0  0  0
 19 20  1  0  0  0
 19 24  1  0  0  0
 20 21  2  0  0  0
 20106  1  0  0  0
 21 23  1  0  0  0
 22 28  1  0  0  0
 22 32  2  0  0  0
 26 27  1  0  0  0
 28107  1  0  0  0
 28108  1  0  0  0
 29109  1  0  0  0
 29110  1  0  0  0
 33 34  1  0  0  0
 33 66  1  0  0  0
 33 70  2  0  0  0
 34 36  1  0  0  0
 34 59  1  0  0  0
 34111  1  0  0  0
 35 44  2  0  0  0
 35 45  1  0  0  0
 35 68  1  0  0  0
 36 56  1  0  0  0
 36112  1  0  0  0
 37 39  1  0  0  0
 37 47  1  0  0  0
 37 66  1  0  0  0
 37113  1  0  0  0
 38 43  2  0  0  0
 38 46  1  0  0  0
 38 47  1  0  0  0
 39 64  1  0  0  0
 39 67  2  0  0  0
 40 52  1  0  0  0
 40 53  2  0  0  0
 40 58  1  0  0  0
 41114  1  0  0  0
 41115  1  0  0  0
 41116  1  0  0  0
 41 48  1  0  0  0
 42 43  1  0  0  0
 42 66  1  0  0  0
 42117  1  0  0  0
 42118  1  0  0  0
 43 44  1  0  0  0
 44119  1  0  0  0
 45 46  2  0  0  0
 45120  1  0  0  0
 46121  1  0  0  0
 47122  1  0  0  0
 47123  1  0  0  0
 48 56  1  0  0  0
 48 65  1  0  0  0
 48124  1  0  0  0
 49 50  1  0  0  0
 49 53  1  0  0  0
 49 64  1  0  0  0
 49125  1  0  0  0
 50 51  1  0  0  0
 50126  1  0  0  0
 50127  1  0  0  0
 51 52  1  0  0  0
 51128  1  0  0  0
 51129  1  0  0  0
 52130  1  0  0  0
 52131  1  0  0  0
 53 54  1  0  0  0
 54 55  2  0  0  0
 54132  1  0  0  0
 55 57  1  0  0  0
 55133  1  0  0  0
 56 69  2  0  0  0
 57 58  2  0  0  0
 57134  1  0  0  0
 58135  1  0  0  0
 59 60  1  0  0  0
 59 61  1  0  0  0
 59 62  1  0  0  0
 60136  1  0  0  0
 60137  1  0  0  0
 60138  1  0  0  0
 61139  1  0  0  0
 61140  1  0  0  0
 61141  1  0  0  0
 62142  1  0  0  0
 62143  1  0  0  0
 62144  1  0  0  0
 63 65  1  0  0  0
 63145  1  0  0  0
 63146  1  0  0  0
 63147  1  0  0  0
 64148  1  0  0  0
 65149  1  0  0  0
 68 83  1  0  0  0
 71 73  2  0  0  0
 71 76  1  0  0  0
 71150  1  0  0  0
 72 74  1  0  0  0
 72 76  2  0  0  0
 72 81  1  0  0  0
 73 75  1  0  0  0
 73 88  1  0  0  0
 74 75  2  0  0  0
 74 84  1  0  0  0
 75 85  1  0  0  0
 76 90  1  0  0  0
 77 78  1  0  0  0
 77151  1  0  0  0
 77152  1  0  0  0
 77 82  1  0  0  0
 78 83  1  0  0  0
 78153  1  0  0  0
 78154  1  0  0  0
 79 81  1  0  0  0
 79 83  1  0  0  0
 79155  1  0  0  0
 79156  1  0  0  0
 80 82  1  0  0  0
 80 83  1  0  0  0
 80157  1  0  0  0
 80158  1  0  0  0
 81 82  1  0  0  0
 81159  1  0  0  0
 82160  1  0  0  0
 84161  1  0  0  0
 84162  1  0  0  0
 84163  1  0  0  0
 85164  1  0  0  0
 85165  1  0  0  0
 85166  1  0  0  0
 86167  1  0  0  0
 86168  1  0  0  0
 86169  1  0  0  0
 86 88  1  0  0  0
 87 90  1  0  0  0
 87170  1  0  0  0
 87171  1  0  0  0
 87172  1  0  0  0
 88 89  1  0  0  0
 88173  1  0  0  0
 89174  1  0  0  0
M  ISO  4   1 100  68 101  83 101  89 100
M  END
> <chiral flag>
0

> <version>
0

> <s_m_source_file>
/data/baiqing/PycharmProjects/Reinvent-master-3.2/result/LINK_invent/BTK/process_docking_weight1_custom_sum_contain_oxygen_bond_distance_aromatic_linkinvent_7_9_3/rearranged_h_0163.sdf

> <i_m_source_file_index>
93

> <r_mmod_Potential_Energy-OPLS-2005>
261.895294189453

> <r_mmod_Stretch_Energy-OPLS-2005>
90.9704742431641

> <r_mmod_Bend_Energy-OPLS-2005>
277.915374755859

> <r_mmod_Torsional_Energy-OPLS-2005>
310.206909179688

> <r_mmod_Improper_Torsional_Energy-OPLS-2005>
9.83064651489258

> <r_mmod_Van_der_Waal_Energy-OPLS-2005>
172.58935546875

> <r_mmod_Electrostatic_Energy-OPLS-2005>
-445.075836181641

> <r_mmod_Solvation_Energy-OPLS-2005>
-200.607879638672

> <b_mmod_Minimization_Converged-OPLS-2005>
0

> <r_mmod_RMS_Derivative-OPLS-2005>
2.31540441513062

$$$$
94
                    3D
 Structure written by MMmdl.
161170  0  0  1  0            999 V2000
  -30.5473  -15.1544   20.3780 C   0  0  0  0  0  0
  -30.4151  -12.7432   19.5009 C   0  0  0  0  0  0
  -29.5116  -12.5490   18.2644 C   0  0  0  0  0  0
  -28.0610  -12.2938   18.7034 C   0  0  0  0  0  0
  -27.6044  -13.2732   19.8147 C   0  0  2  0  0  0
  -28.6457  -13.4482   20.9397 C   0  0  0  0  0  0
  -25.2372  -13.8251   20.5771 C   0  0  0  0  0  0
  -24.1725  -13.0436   20.9269 C   0  0  0  0  0  0
  -24.6380  -11.6939   20.8773 C   0  0  0  0  0  0
  -23.9082  -10.4294   21.0405 C   0  0  0  0  0  0
  -24.3629   -9.4207   21.9180 C   0  0  0  0  0  0
  -23.6302   -8.2239   22.0743 C   0  0  0  0  0  0
  -22.4282   -8.0274   21.3534 C   0  0  0  0  0  0
  -21.9923   -9.0250   20.4638 C   0  0  0  0  0  0
  -22.7255  -10.2130   20.3051 C   0  0  0  0  0  0
  -21.6857   -6.0734   22.5278 C   0  0  0  0  0  0
  -21.4020   -6.5635   23.8214 C   0  0  0  0  0  0
  -21.3663   -5.6788   24.9175 C   0  0  0  0  0  0
  -21.6043   -4.3050   24.7227 C   0  0  0  0  0  0
  -21.8821   -3.8141   23.4347 C   0  0  0  0  0  0
  -21.9194   -4.6959   22.3404 C   0  0  0  0  0  0
  -22.7744  -13.5189   21.1915 C   0  0  0  0  0  0
  -22.1663   -4.2141   21.0983 F   0  0  0  0  0  0
  -21.5628   -3.4535   25.7739 F   0  0  0  0  0  0
  -29.8810  -13.9101   20.2899 N   0  0  0  0  0  0
  -26.2786  -12.9524   20.3233 N   0  0  0  0  0  0
  -25.9313  -11.6630   20.5740 N   0  0  0  0  0  0
  -22.0408  -12.8161   22.0467 N   0  0  0  0  0  0
  -25.4022  -15.1985   20.4234 N   0  0  0  0  0  0
  -31.7747  -15.0340   20.2559 O   0  0  0  0  0  0
  -21.6643   -6.8870   21.4235 O   0  0  0  0  0  0
  -22.3424  -14.5488   20.6753 O   0  0  0  0  0  0
  -24.6576  -31.8309   23.1752 C   0  0  0  0  0  0
  -25.9287  -32.4622   23.8194 C   0  0  1  0  0  0
  -27.2122  -26.9992   20.1594 C   0  0  0  0  0  0
  -25.5982  -33.8432   24.2113 N   0  0  0  0  0  0
  -23.4662  -30.4473   21.5238 C   0  0  2  0  0  0
  -24.9129  -28.8506   20.1062 C   0  0  0  0  0  0
  -22.7640  -29.4482   22.4794 C   0  0  0  0  0  0
  -18.0321  -28.1415   22.8485 C   0  0  0  0  0  0
  -24.1488  -36.7205   23.2647 C   0  0  0  0  0  0
  -26.0309  -30.6640   21.3885 C   0  0  0  0  0  0
  -26.0964  -29.2630   20.7274 C   0  0  0  0  0  0
  -27.2397  -28.3578   20.7274 C   0  0  0  0  0  0
  -25.9842  -26.7096   19.5252 C   0  0  0  0  0  0
  -24.8779  -27.5921   19.4877 C   0  0  0  0  0  0
  -23.6988  -29.7720   20.1452 C   0  0  0  0  0  0
  -25.4126  -36.2980   24.0308 C   0  0  1  0  0  0
  -20.5949  -28.3745   23.1210 C   0  0  2  0  0  0
  -20.6797  -26.9433   22.5410 C   0  0  0  0  0  0
  -19.5764  -26.6389   21.5224 C   0  0  0  0  0  0
  -18.1949  -26.7954   22.1638 C   0  0  0  0  0  0
  -19.1585  -28.8900   23.2841 C   0  0  0  0  0  0
  -18.9493  -30.1491   23.8875 C   0  0  0  0  0  0
  -17.6486  -30.6601   24.0569 C   0  0  0  0  0  0
  -25.9092  -34.9366   23.5025 C   0  0  0  0  0  0
  -16.5377  -29.9092   23.6346 C   0  0  0  0  0  0
  -16.7306  -28.6515   23.0364 C   0  0  0  0  0  0
  -26.4562  -31.6536   25.0691 C   0  0  0  0  0  0
  -25.3707  -31.3753   26.1354 C   0  0  0  0  0  0
  -27.0441  -30.2920   24.6341 C   0  0  0  0  0  0
  -27.6075  -32.4321   25.7489 C   0  0  0  0  0  0
  -27.5564  -37.1755   24.8473 C   0  0  0  0  0  0
  -21.4316  -29.3038   22.3551 N   0  0  0  0  0  0
  -26.4270  -37.3712   23.9418 N   0  0  0  0  0  0
  -24.7397  -31.0058   22.0835 N   0  0  0  0  0  0
  -23.4228  -28.8046   23.3002 O   0  0  0  0  0  0
  -28.2741  -25.9823   20.2786 O   0  0  0  0  0  0
  -26.5689  -34.8899   22.4608 O   0  0  0  0  0  0
  -23.5664  -32.1230   23.6906 O   0  0  0  0  0  0
  -29.2004  -21.3704   20.0129 C   0  0  0  0  0  0
  -27.0497  -22.8710   19.4859 C   0  0  0  0  0  0
  -27.7408  -23.9279   18.5892 C   0  0  0  0  0  0
  -28.4358  -18.7916   19.7231 C   0  0  0  0  0  0
  -28.6245  -17.1659   20.1443 C   0  0  0  0  0  0
  -28.2986  -22.7911   20.3888 C   0  0  1  0  0  0
  -28.5099  -24.4343   19.8147 C   0  0  2  0  0  0
  -30.1189  -19.1571   21.2620 C   0  0  2  0  0  0
  -30.8180  -17.8000   20.6220 C   0  0  2  0  0  0
  -31.1755  -20.0736   21.9130 C   0  0  0  0  0  0
  -31.6007  -18.1411   19.3335 C   0  0  0  0  0  0
  -29.1024  -19.9694   20.4558 N   0  0  0  0  0  0
  -29.9843  -16.5257   20.4345 N   0  0  0  0  0  0
  -30.1413  -21.6057   19.2512 O   0  0  0  0  0  0
  -31.4422  -12.9002   19.1685 H   0  0  0  0  0  0
  -30.4416  -11.8385   20.1098 H   0  0  0  0  0  0
  -29.8709  -11.7195   17.6546 H   0  0  0  0  0  0
  -29.5553  -13.4387   17.6341 H   0  0  0  0  0  0
  -28.0103  -11.2701   19.0764 H   0  0  0  0  0  0
  -27.3861  -12.3401   17.8475 H   0  0  0  0  0  0
  -27.5185  -14.2382   19.3151 H   0  0  0  0  0  0
  -28.7973  -12.5226   21.4966 H   0  0  0  0  0  0
  -28.3064  -14.1963   21.6580 H   0  0  0  0  0  0
  -25.2769   -9.5684   22.4761 H   0  0  0  0  0  0
  -24.0009   -7.4632   22.7466 H   0  0  0  0  0  0
  -21.0850   -8.8772   19.8947 H   0  0  0  0  0  0
  -22.3707  -10.9667   19.6163 H   0  0  0  0  0  0
  -21.2016   -7.6143   23.9714 H   0  0  0  0  0  0
  -21.1483   -6.0518   25.9079 H   0  0  0  0  0  0
  -22.0596   -2.7598   23.2853 H   0  0  0  0  0  0
  -22.4047  -11.9841   22.4867 H   0  0  0  0  0  0
  -21.1012  -13.1146   22.2664 H   0  0  0  0  0  0
  -24.6354  -15.8505   20.5481 H   0  0  0  0  0  0
  -26.2552  -15.6422   20.1109 H   0  0  0  0  0  0
  -26.7361  -32.5186   23.0919 H   0  0  0  0  0  0
  -25.0110  -33.9519   25.0252 H   0  0  0  0  0  0
  -22.7753  -31.2771   21.3614 H   0  0  0  0  0  0
  -23.3762  -35.9520   23.3288 H   0  0  0  0  0  0
  -24.3570  -36.8867   22.2067 H   0  0  0  0  0  0
  -23.7233  -37.6386   23.6706 H   0  0  0  0  0  0
  -26.2033  -31.4124   20.6137 H   0  0  0  0  0  0
  -26.8946  -30.7137   22.0397 H   0  0  0  0  0  0
  -28.1408  -28.6764   21.2326 H   0  0  0  0  0  0
  -25.8054  -25.7361   19.1092 H   0  0  0  0  0  0
  -23.9680  -27.2600   19.0067 H   0  0  0  0  0  0
  -23.8510  -30.5446   19.3906 H   0  0  0  0  0  0
  -22.8082  -29.2260   19.8292 H   0  0  0  0  0  0
  -25.1321  -36.1778   25.0798 H   0  0  0  0  0  0
  -21.0051  -28.3348   24.1326 H   0  0  0  0  0  0
  -20.5692  -26.2358   23.3640 H   0  0  0  0  0  0
  -21.6657  -26.7422   22.1202 H   0  0  0  0  0  0
  -19.6916  -25.6290   21.1267 H   0  0  0  0  0  0
  -19.6706  -27.3190   20.6746 H   0  0  0  0  0  0
  -17.4220  -26.6722   21.4037 H   0  0  0  0  0  0
  -18.0334  -26.0104   22.9042 H   0  0  0  0  0  0
  -19.7963  -30.7320   24.2237 H   0  0  0  0  0  0
  -17.5032  -31.6280   24.5166 H   0  0  0  0  0  0
  -15.5374  -30.2983   23.7668 H   0  0  0  0  0  0
  -15.8716  -28.0818   22.7086 H   0  0  0  0  0  0
  -24.5920  -30.7072   25.7657 H   0  0  0  0  0  0
  -24.8857  -32.2938   26.4667 H   0  0  0  0  0  0
  -25.7956  -30.9002   27.0203 H   0  0  0  0  0  0
  -26.3079  -29.6616   24.1339 H   0  0  0  0  0  0
  -27.4021  -29.7257   25.4947 H   0  0  0  0  0  0
  -27.9004  -30.4143   23.9703 H   0  0  0  0  0  0
  -27.2670  -33.3669   26.1955 H   0  0  0  0  0  0
  -28.3943  -32.6799   25.0350 H   0  0  0  0  0  0
  -28.0673  -31.8511   26.5494 H   0  0  0  0  0  0
  -28.2565  -38.0065   24.7512 H   0  0  0  0  0  0
  -28.1075  -36.2590   24.6302 H   0  0  0  0  0  0
  -27.2283  -37.1403   25.8877 H   0  0  0  0  0  0
  -20.9541  -29.8739   21.6710 H   0  0  0  0  0  0
  -26.0121  -38.2768   24.1434 H   0  0  0  0  0  0
  -26.7926  -21.9469   18.9663 H   0  0  0  0  0  0
  -26.1812  -23.2666   20.0154 H   0  0  0  0  0  0
  -28.4115  -23.4622   17.8646 H   0  0  0  0  0  0
  -27.0964  -24.6221   18.0621 H   0  0  0  0  0  0
  -27.3664  -19.0061   19.7321 H   0  0  0  0  0  0
  -28.7134  -18.8948   18.6738 H   0  0  0  0  0  0
  -28.0191  -16.9825   21.0321 H   0  0  0  0  0  0
  -28.1606  -16.5702   19.3581 H   0  0  0  0  0  0
  -28.0278  -22.7699   21.4441 H   0  0  0  0  0  0
  -29.5622  -24.4762   19.5307 H   0  0  0  0  0  0
  -29.5390  -18.7994   22.1160 H   0  0  0  0  0  0
  -31.5695  -17.4998   21.3544 H   0  0  0  0  0  0
  -31.8014  -19.5191   22.6129 H   0  0  0  0  0  0
  -30.7108  -20.8839   22.4778 H   0  0  0  0  0  0
  -31.8342  -20.5231   21.1710 H   0  0  0  0  0  0
  -32.1897  -17.2962   18.9779 H   0  0  0  0  0  0
  -32.3002  -18.9603   19.5021 H   0  0  0  0  0  0
  -30.9440  -18.4408   18.5184 H   0  0  0  0  0  0
  1 25  1  0  0  0
  1 30  2  0  0  0
  1 83  1  0  0  0
  2  3  1  0  0  0
  2 25  1  0  0  0
  2 85  1  0  0  0
  2 86  1  0  0  0
  3  4  1  0  0  0
  3 87  1  0  0  0
  3 88  1  0  0  0
  4  5  1  0  0  0
  4 89  1  0  0  0
  4 90  1  0  0  0
  5  6  1  0  0  0
  5 26  1  0  0  0
  5 91  1  0  0  0
  6 25  1  0  0  0
  6 92  1  0  0  0
  6 93  1  0  0  0
  7  8  2  0  0  0
  7 26  1  0  0  0
  7 29  1  0  0  0
  8  9  1  0  0  0
  8 22  1  0  0  0
  9 10  1  0  0  0
  9 27  2  0  0  0
 10 11  2  0  0  0
 10 15  1  0  0  0
 11 12  1  0  0  0
 11 94  1  0  0  0
 12 13  2  0  0  0
 12 95  1  0  0  0
 13 14  1  0  0  0
 13 31  1  0  0  0
 14 15  2  0  0  0
 14 96  1  0  0  0
 15 97  1  0  0  0
 16 17  2  0  0  0
 16 21  1  0  0  0
 16 31  1  0  0  0
 17 18  1  0  0  0
 17 98  1  0  0  0
 18 19  2  0  0  0
 18 99  1  0  0  0
 19 20  1  0  0  0
 19 24  1  0  0  0
 20 21  2  0  0  0
 20100  1  0  0  0
 21 23  1  0  0  0
 22 28  1  0  0  0
 22 32  2  0  0  0
 26 27  1  0  0  0
 28101  1  0  0  0
 28102  1  0  0  0
 29103  1  0  0  0
 29104  1  0  0  0
 33 34  1  0  0  0
 33 66  1  0  0  0
 33 70  2  0  0  0
 34 36  1  0  0  0
 34 59  1  0  0  0
 34105  1  0  0  0
 35 44  2  0  0  0
 35 45  1  0  0  0
 35 68  1  0  0  0
 36 56  1  0  0  0
 36106  1  0  0  0
 37 39  1  0  0  0
 37 47  1  0  0  0
 37 66  1  0  0  0
 37107  1  0  0  0
 38 43  2  0  0  0
 38 46  1  0  0  0
 38 47  1  0  0  0
 39 64  1  0  0  0
 39 67  2  0  0  0
 40 52  1  0  0  0
 40 53  2  0  0  0
 40 58  1  0  0  0
 41108  1  0  0  0
 41109  1  0  0  0
 41110  1  0  0  0
 41 48  1  0  0  0
 42 43  1  0  0  0
 42 66  1  0  0  0
 42111  1  0  0  0
 42112  1  0  0  0
 43 44  1  0  0  0
 44113  1  0  0  0
 45 46  2  0  0  0
 45114  1  0  0  0
 46115  1  0  0  0
 47116  1  0  0  0
 47117  1  0  0  0
 48 56  1  0  0  0
 48 65  1  0  0  0
 48118  1  0  0  0
 49 50  1  0  0  0
 49 53  1  0  0  0
 49 64  1  0  0  0
 49119  1  0  0  0
 50 51  1  0  0  0
 50120  1  0  0  0
 50121  1  0  0  0
 51 52  1  0  0  0
 51122  1  0  0  0
 51123  1  0  0  0
 52124  1  0  0  0
 52125  1  0  0  0
 53 54  1  0  0  0
 54 55  2  0  0  0
 54126  1  0  0  0
 55 57  1  0  0  0
 55127  1  0  0  0
 56 69  2  0  0  0
 57 58  2  0  0  0
 57128  1  0  0  0
 58129  1  0  0  0
 59 60  1  0  0  0
 59 61  1  0  0  0
 59 62  1  0  0  0
 60130  1  0  0  0
 60131  1  0  0  0
 60132  1  0  0  0
 61133  1  0  0  0
 61134  1  0  0  0
 61135  1  0  0  0
 62136  1  0  0  0
 62137  1  0  0  0
 62138  1  0  0  0
 63 65  1  0  0  0
 63139  1  0  0  0
 63140  1  0  0  0
 63141  1  0  0  0
 64142  1  0  0  0
 65143  1  0  0  0
 68 77  1  0  0  0
 71 82  1  0  0  0
 71 84  2  0  0  0
 71 76  1  0  0  0
 72 73  1  0  0  0
 72 76  1  0  0  0
 72144  1  0  0  0
 72145  1  0  0  0
 73 77  1  0  0  0
 73146  1  0  0  0
 73147  1  0  0  0
 74 75  1  0  0  0
 74 82  1  0  0  0
 74148  1  0  0  0
 74149  1  0  0  0
 75 83  1  0  0  0
 75150  1  0  0  0
 75151  1  0  0  0
 76 77  1  0  0  0
 76152  1  0  0  0
 77153  1  0  0  0
 78 79  1  0  0  0
 78 80  1  0  0  0
 78 82  1  0  0  0
 78154  1  0  0  0
 79 81  1  0  0  0
 79 83  1  0  0  0
 79155  1  0  0  0
 80156  1  0  0  0
 80157  1  0  0  0
 80158  1  0  0  0
 81159  1  0  0  0
 81160  1  0  0  0
 81161  1  0  0  0
M  ISO  4   1 100  68 101  77 101  83 100
M  END
> <chiral flag>
0

> <version>
0

> <s_m_source_file>
/data/baiqing/PycharmProjects/Reinvent-master-3.2/result/LINK_invent/BTK/process_docking_weight1_custom_sum_contain_oxygen_bond_distance_aromatic_linkinvent_7_9_3/rearranged_h_0163.sdf

> <i_m_source_file_index>
94

> <r_mmod_Potential_Energy-OPLS-2005>
1400.97180175781

> <r_mmod_Stretch_Energy-OPLS-2005>
441.714752197266

> <r_mmod_Bend_Energy-OPLS-2005>
513.181579589844

> <r_mmod_Torsional_Energy-OPLS-2005>
452.501586914062

> <r_mmod_Improper_Torsional_Energy-OPLS-2005>
6.44800233840942

> <r_mmod_Van_der_Waal_Energy-OPLS-2005>
123.846687316895

> <r_mmod_Electrostatic_Energy-OPLS-2005>
-263.700012207031

> <r_mmod_Solvation_Energy-OPLS-2005>
-220.404357910156

> <b_mmod_Minimization_Converged-OPLS-2005>
0

> <r_mmod_RMS_Derivative-OPLS-2005>
1.29500496387482

$$$$
95
                    3D
 Structure written by MMmdl.
181190  0  0  1  0            999 V2000
  -30.7316  -14.4796   20.5724 C   0  0  0  0  0  0
  -30.4128  -12.3147   19.4347 C   0  0  0  0  0  0
  -29.4940  -12.5081   18.2127 C   0  0  0  0  0  0
  -28.0205  -12.3564   18.6298 C   0  0  0  0  0  0
  -27.6611  -13.2100   19.8743 C   0  0  2  0  0  0
  -28.7024  -13.0284   21.0023 C   0  0  0  0  0  0
  -25.2607  -13.8153   20.5689 C   0  0  0  0  0  0
  -24.1853  -13.0430   20.9179 C   0  0  0  0  0  0
  -24.6399  -11.6900   20.8730 C   0  0  0  0  0  0
  -23.9051  -10.4290   21.0394 C   0  0  0  0  0  0
  -24.3611   -9.4209   21.9165 C   0  0  0  0  0  0
  -23.6299   -8.2246   22.0735 C   0  0  0  0  0  0
  -22.4278   -8.0276   21.3538 C   0  0  0  0  0  0
  -21.9909   -9.0241   20.4629 C   0  0  0  0  0  0
  -22.7227  -10.2129   20.3044 C   0  0  0  0  0  0
  -21.6869   -6.0738   22.5275 C   0  0  0  0  0  0
  -21.4017   -6.5634   23.8210 C   0  0  0  0  0  0
  -21.3663   -5.6780   24.9162 C   0  0  0  0  0  0
  -21.6058   -4.3046   24.7222 C   0  0  0  0  0  0
  -21.8820   -3.8146   23.4342 C   0  0  0  0  0  0
  -21.9199   -4.6965   22.3394 C   0  0  0  0  0  0
  -22.7874  -13.5239   21.1846 C   0  0  0  0  0  0
  -22.1666   -4.2152   21.0970 F   0  0  0  0  0  0
  -21.5627   -3.4526   25.7737 F   0  0  0  0  0  0
  -30.0313  -13.3181   20.4435 N   0  0  0  0  0  0
  -26.3030  -12.9324   20.3368 N   0  0  0  0  0  0
  -25.9340  -11.6482   20.5780 N   0  0  0  0  0  0
  -22.0505  -12.8235   22.0382 N   0  0  0  0  0  0
  -25.4343  -15.1867   20.4090 N   0  0  0  0  0  0
  -31.8514  -14.6239   20.0772 O   0  0  0  0  0  0
  -21.6645   -6.8884   21.4241 O   0  0  0  0  0  0
  -22.3583  -14.5554   20.6696 O   0  0  0  0  0  0
  -24.6151  -31.8668   23.2107 C   0  0  0  0  0  0
  -25.9037  -32.4831   23.8402 C   0  0  1  0  0  0
  -27.2427  -27.4306   20.0862 C   0  0  0  0  0  0
  -25.5890  -33.8628   24.2334 N   0  0  0  0  0  0
  -23.4048  -30.4890   21.5499 C   0  0  2  0  0  0
  -24.8513  -28.9514   20.1163 C   0  0  0  0  0  0
  -22.7420  -29.4648   22.4983 C   0  0  0  0  0  0
  -18.0271  -28.1383   22.8484 C   0  0  0  0  0  0
  -24.1486  -36.7316   23.2638 C   0  0  0  0  0  0
  -25.9343  -30.8262   21.3686 C   0  0  0  0  0  0
  -26.0095  -29.4597   20.7163 C   0  0  0  0  0  0
  -27.2029  -28.7009   20.7059 C   0  0  0  0  0  0
  -26.0580  -26.9271   19.5004 C   0  0  0  0  0  0
  -24.8697  -27.6823   19.5097 C   0  0  0  0  0  0
  -23.6148  -29.8199   20.1646 C   0  0  0  0  0  0
  -25.4111  -36.3115   24.0330 C   0  0  1  0  0  0
  -20.5867  -28.3657   23.1319 C   0  0  2  0  0  0
  -20.6755  -26.9387   22.5424 C   0  0  0  0  0  0
  -19.5743  -26.6380   21.5205 C   0  0  0  0  0  0
  -18.1912  -26.7929   22.1604 C   0  0  0  0  0  0
  -19.1524  -28.8839   23.2902 C   0  0  0  0  0  0
  -18.9450  -30.1446   23.8917 C   0  0  0  0  0  0
  -17.6449  -30.6583   24.0570 C   0  0  0  0  0  0
  -25.9032  -34.9482   23.5132 C   0  0  0  0  0  0
  -16.5338  -29.9085   23.6331 C   0  0  0  0  0  0
  -16.7261  -28.6507   23.0346 C   0  0  0  0  0  0
  -26.4455  -31.6625   25.0744 C   0  0  0  0  0  0
  -25.3718  -31.3738   26.1490 C   0  0  0  0  0  0
  -27.0267  -30.3060   24.6139 C   0  0  0  0  0  0
  -27.6029  -32.4345   25.7508 C   0  0  0  0  0  0
  -27.5590  -37.1818   24.8457 C   0  0  0  0  0  0
  -21.4144  -29.3035   22.3741 N   0  0  0  0  0  0
  -26.4298  -37.3797   23.9404 N   0  0  0  0  0  0
  -24.6695  -31.0751   22.1019 N   0  0  0  0  0  0
  -23.4188  -28.8180   23.3019 O   0  0  0  0  0  0
  -28.4295  -26.7201   20.0980 O   0  0  0  0  0  0
  -26.5595  -34.8917   22.4694 O   0  0  0  0  0  0
  -23.5344  -32.1421   23.7493 O   0  0  0  0  0  0
  -28.8796  -22.0638   18.2224 C   0  0  0  0  0  0
  -29.3587  -21.4646   19.4034 C   0  0  0  0  0  0
  -29.4093  -22.2328   20.6007 C   0  0  0  0  0  0
  -28.6115  -23.4372   18.1365 C   0  0  0  0  0  0
  -29.0198  -23.6277   20.5389 C   0  0  0  0  0  0
  -28.7364  -24.2629   19.2817 C   0  0  0  0  0  0
  -30.7517  -20.2567   21.5914 C   0  0  0  0  0  0
  -29.8246  -19.9957   19.2788 C   0  0  1  0  0  0
  -29.8422  -21.4818   21.8967 C   0  0  0  0  0  0
  -28.2211  -23.9904   16.7715 C   0  0  0  0  0  0
  -28.8524  -24.4555   21.8057 C   0  0  0  0  0  0
  -28.5909  -20.9959   22.6604 C   0  0  0  0  0  0
  -30.7461  -22.3238   22.8416 C   0  0  0  0  0  0
  -31.4653  -18.4862   17.9321 C   0  0  0  0  0  0
  -31.3337  -17.0411   22.6456 C   0  0  0  0  0  0
  -28.7056  -25.8033   19.0311 C   0  0  0  0  0  0
  -30.9633  -19.9067   18.2287 C   0  0  0  0  0  0
  -29.6518  -18.0358   20.9211 C   0  0  0  0  0  0
  -30.6771  -16.8929   21.2588 C   0  0  2  0  0  0
  -30.1041  -15.5252   21.1585 N   0  0  0  0  0  0
  -30.3047  -19.3335   20.5244 N   0  3  2  0  0  0
  -31.4591  -12.3922   19.1336 H   0  0  0  0  0  0
  -30.2970  -11.3106   19.8459 H   0  0  0  0  0  0
  -29.7383  -11.7828   17.4365 H   0  0  0  0  0  0
  -29.6567  -13.4939   17.7726 H   0  0  0  0  0  0
  -27.8502  -11.3007   18.8452 H   0  0  0  0  0  0
  -27.3626  -12.6049   17.7968 H   0  0  0  0  0  0
  -27.6949  -14.2528   19.5602 H   0  0  0  0  0  0
  -28.6800  -12.0048   21.3786 H   0  0  0  0  0  0
  -28.4633  -13.6626   21.8569 H   0  0  0  0  0  0
  -25.2756   -9.5695   22.4735 H   0  0  0  0  0  0
  -24.0015   -7.4649   22.7457 H   0  0  0  0  0  0
  -21.0844   -8.8759   19.8938 H   0  0  0  0  0  0
  -22.3673  -10.9672   19.6159 H   0  0  0  0  0  0
  -21.1996   -7.6144   23.9713 H   0  0  0  0  0  0
  -21.1483   -6.0502   25.9060 H   0  0  0  0  0  0
  -22.0597   -2.7615   23.2833 H   0  0  0  0  0  0
  -22.4137  -11.9903   22.4776 H   0  0  0  0  0  0
  -21.1118  -13.1266   22.2582 H   0  0  0  0  0  0
  -24.6668  -15.8430   20.5021 H   0  0  0  0  0  0
  -26.2861  -15.6185   20.0744 H   0  0  0  0  0  0
  -26.7114  -32.5521   23.1166 H   0  0  0  0  0  0
  -25.0060  -33.9801   25.0495 H   0  0  0  0  0  0
  -22.6946  -31.3063   21.4094 H   0  0  0  0  0  0
  -23.3747  -35.9648   23.3305 H   0  0  0  0  0  0
  -24.3586  -36.8936   22.2054 H   0  0  0  0  0  0
  -23.7233  -37.6514   23.6659 H   0  0  0  0  0  0
  -26.0513  -31.5917   20.5999 H   0  0  0  0  0  0
  -26.8208  -30.8773   21.9896 H   0  0  0  0  0  0
  -28.0992  -29.0911   21.1673 H   0  0  0  0  0  0
  -26.0359  -25.9443   19.0498 H   0  0  0  0  0  0
  -23.9744  -27.2805   19.0555 H   0  0  0  0  0  0
  -23.7268  -30.5941   19.4045 H   0  0  0  0  0  0
  -22.7383  -29.2408   19.8679 H   0  0  0  0  0  0
  -25.1294  -36.1979   25.0821 H   0  0  0  0  0  0
  -20.9953  -28.3212   24.1440 H   0  0  0  0  0  0
  -20.5621  -26.2267   23.3617 H   0  0  0  0  0  0
  -21.6632  -26.7412   22.1236 H   0  0  0  0  0  0
  -19.6894  -25.6284   21.1247 H   0  0  0  0  0  0
  -19.6703  -27.3197   20.6736 H   0  0  0  0  0  0
  -17.4193  -26.6717   21.3985 H   0  0  0  0  0  0
  -18.0287  -26.0059   22.8988 H   0  0  0  0  0  0
  -19.7923  -30.7263   24.2300 H   0  0  0  0  0  0
  -17.4996  -31.6269   24.5159 H   0  0  0  0  0  0
  -15.5337  -30.2991   23.7638 H   0  0  0  0  0  0
  -15.8662  -28.0828   22.7048 H   0  0  0  0  0  0
  -24.5939  -30.7010   25.7868 H   0  0  0  0  0  0
  -24.8833  -32.2875   26.4874 H   0  0  0  0  0  0
  -25.8068  -30.8999   27.0297 H   0  0  0  0  0  0
  -26.2821  -29.6866   24.1127 H   0  0  0  0  0  0
  -27.3948  -29.7254   25.4606 H   0  0  0  0  0  0
  -27.8691  -30.4369   23.9348 H   0  0  0  0  0  0
  -27.2643  -33.3624   26.2128 H   0  0  0  0  0  0
  -28.3807  -32.6951   25.0324 H   0  0  0  0  0  0
  -28.0727  -31.8454   26.5394 H   0  0  0  0  0  0
  -28.2606  -38.0118   24.7496 H   0  0  0  0  0  0
  -28.1087  -36.2648   24.6277 H   0  0  0  0  0  0
  -27.2317  -37.1462   25.8863 H   0  0  0  0  0  0
  -20.9309  -29.8784   21.6985 H   0  0  0  0  0  0
  -26.0186  -38.2872   24.1410 H   0  0  0  0  0  0
  -28.7817  -21.4651   17.3272 H   0  0  0  0  0  0
  -30.9396  -19.7057   22.5101 H   0  0  0  0  0  0
  -31.7280  -20.6196   21.2642 H   0  0  0  0  0  0
  -28.9655  -19.4493   18.8853 H   0  0  0  0  0  0
  -28.1262  -23.2040   16.0224 H   0  0  0  0  0  0
  -28.9688  -24.6952   16.4073 H   0  0  0  0  0  0
  -27.2570  -24.4978   16.8191 H   0  0  0  0  0  0
  -28.5085  -23.8579   22.6416 H   0  0  0  0  0  0
  -28.0461  -25.1746   21.7149 H   0  0  0  0  0  0
  -29.7722  -24.9773   22.0702 H   0  0  0  0  0  0
  -27.9656  -20.3579   22.0366 H   0  0  0  0  0  0
  -27.9565  -21.8142   22.9948 H   0  0  0  0  0  0
  -28.8599  -20.4257   23.5498 H   0  0  0  0  0  0
  -31.5447  -22.8176   22.2859 H   0  0  0  0  0  0
  -31.2280  -21.6958   23.5930 H   0  0  0  0  0  0
  -30.2384  -23.0776   23.4328 H   0  0  0  0  0  0
  -32.0723  -18.4832   17.0267 H   0  0  0  0  0  0
  -30.6409  -17.7897   17.7738 H   0  0  0  0  0  0
  -32.0989  -18.1031   18.7299 H   0  0  0  0  0  0
  -30.5959  -17.2246   23.4291 H   0  0  0  0  0  0
  -32.0619  -17.8504   22.6637 H   0  0  0  0  0  0
  -31.8906  -16.1430   22.9190 H   0  0  0  0  0  0
  -28.0961  -26.0639   18.1697 H   0  0  0  0  0  0
  -29.7163  -26.0506   18.7053 H   0  0  0  0  0  0
  -31.8019  -20.5346   18.5356 H   0  0  0  0  0  0
  -30.6324  -20.3213   17.2771 H   0  0  0  0  0  0
  -28.9523  -18.1943   21.7423 H   0  0  0  0  0  0
  -29.0420  -17.6775   20.0921 H   0  0  0  0  0  0
  -31.4817  -16.9704   20.5274 H   0  0  0  0  0  0
  -29.1835  -15.3592   21.5389 H   0  0  0  0  0  0
  -31.1885  -18.9839   20.1865 H   0  0  0  0  0  0
  1 25  1  0  0  0
  1 30  2  0  0  0
  1 90  1  0  0  0
  2  3  1  0  0  0
  2 25  1  0  0  0
  2 92  1  0  0  0
  2 93  1  0  0  0
  3  4  1  0  0  0
  3 94  1  0  0  0
  3 95  1  0  0  0
  4  5  1  0  0  0
  4 96  1  0  0  0
  4 97  1  0  0  0
  5  6  1  0  0  0
  5 26  1  0  0  0
  5 98  1  0  0  0
  6 25  1  0  0  0
  6 99  1  0  0  0
  6100  1  0  0  0
  7  8  2  0  0  0
  7 26  1  0  0  0
  7 29  1  0  0  0
  8  9  1  0  0  0
  8 22  1  0  0  0
  9 10  1  0  0  0
  9 27  2  0  0  0
 10 11  2  0  0  0
 10 15  1  0  0  0
 11 12  1  0  0  0
 11101  1  0  0  0
 12 13  2  0  0  0
 12102  1  0  0  0
 13 14  1  0  0  0
 13 31  1  0  0  0
 14 15  2  0  0  0
 14103  1  0  0  0
 15104  1  0  0  0
 16 17  2  0  0  0
 16 21  1  0  0  0
 16 31  1  0  0  0
 17 18  1  0  0  0
 17105  1  0  0  0
 18 19  2  0  0  0
 18106  1  0  0  0
 19 20  1  0  0  0
 19 24  1  0  0  0
 20 21  2  0  0  0
 20107  1  0  0  0
 21 23  1  0  0  0
 22 28  1  0  0  0
 22 32  2  0  0  0
 26 27  1  0  0  0
 28108  1  0  0  0
 28109  1  0  0  0
 29110  1  0  0  0
 29111  1  0  0  0
 33 34  1  0  0  0
 33 66  1  0  0  0
 33 70  2  0  0  0
 34 36  1  0  0  0
 34 59  1  0  0  0
 34112  1  0  0  0
 35 44  2  0  0  0
 35 45  1  0  0  0
 35 68  1  0  0  0
 36 56  1  0  0  0
 36113  1  0  0  0
 37 39  1  0  0  0
 37 47  1  0  0  0
 37 66  1  0  0  0
 37114  1  0  0  0
 38 43  2  0  0  0
 38 46  1  0  0  0
 38 47  1  0  0  0
 39 64  1  0  0  0
 39 67  2  0  0  0
 40 52  1  0  0  0
 40 53  2  0  0  0
 40 58  1  0  0  0
 41115  1  0  0  0
 41116  1  0  0  0
 41117  1  0  0  0
 41 48  1  0  0  0
 42 43  1  0  0  0
 42 66  1  0  0  0
 42118  1  0  0  0
 42119  1  0  0  0
 43 44  1  0  0  0
 44120  1  0  0  0
 45 46  2  0  0  0
 45121  1  0  0  0
 46122  1  0  0  0
 47123  1  0  0  0
 47124  1  0  0  0
 48 56  1  0  0  0
 48 65  1  0  0  0
 48125  1  0  0  0
 49 50  1  0  0  0
 49 53  1  0  0  0
 49 64  1  0  0  0
 49126  1  0  0  0
 50 51  1  0  0  0
 50127  1  0  0  0
 50128  1  0  0  0
 51 52  1  0  0  0
 51129  1  0  0  0
 51130  1  0  0  0
 52131  1  0  0  0
 52132  1  0  0  0
 53 54  1  0  0  0
 54 55  2  0  0  0
 54133  1  0  0  0
 55 57  1  0  0  0
 55134  1  0  0  0
 56 69  2  0  0  0
 57 58  2  0  0  0
 57135  1  0  0  0
 58136  1  0  0  0
 59 60  1  0  0  0
 59 61  1  0  0  0
 59 62  1  0  0  0
 60137  1  0  0  0
 60138  1  0  0  0
 60139  1  0  0  0
 61140  1  0  0  0
 61141  1  0  0  0
 61142  1  0  0  0
 62143  1  0  0  0
 62144  1  0  0  0
 62145  1  0  0  0
 63 65  1  0  0  0
 63146  1  0  0  0
 63147  1  0  0  0
 63148  1  0  0  0
 64149  1  0  0  0
 65150  1  0  0  0
 68 86  1  0  0  0
 71 72  2  0  0  0
 71 74  1  0  0  0
 71151  1  0  0  0
 72 73  1  0  0  0
 72 78  1  0  0  0
 73 75  2  0  0  0
 73 79  1  0  0  0
 74 76  2  0  0  0
 74 80  1  0  0  0
 75 76  1  0  0  0
 75 81  1  0  0  0
 76 86  1  0  0  0
 77 79  1  0  0  0
 77 91  1  0  0  0
 77152  1  0  0  0
 77153  1  0  0  0
 78 87  1  0  0  0
 78 91  1  0  0  0
 78154  1  0  0  0
 79 82  1  0  0  0
 79 83  1  0  0  0
 80155  1  0  0  0
 80156  1  0  0  0
 80157  1  0  0  0
 81158  1  0  0  0
 81159  1  0  0  0
 81160  1  0  0  0
 82161  1  0  0  0
 82162  1  0  0  0
 82163  1  0  0  0
 83164  1  0  0  0
 83165  1  0  0  0
 83166  1  0  0  0
 84 87  1  0  0  0
 84167  1  0  0  0
 84168  1  0  0  0
 84169  1  0  0  0
 85170  1  0  0  0
 85171  1  0  0  0
 85172  1  0  0  0
 85 89  1  0  0  0
 86173  1  0  0  0
 86174  1  0  0  0
 87175  1  0  0  0
 87176  1  0  0  0
 88 89  1  0  0  0
 88177  1  0  0  0
 88178  1  0  0  0
 88 91  1  0  0  0
 89 90  1  0  0  0
 89179  1  0  0  0
 90180  1  0  0  0
 91181  1  0  0  0
M  CHG  1  91   1
M  ISO  4   1 100  68 101  86 101  90 100
M  END
> <chiral flag>
0

> <version>
0

> <s_m_source_file>
/data/baiqing/PycharmProjects/Reinvent-master-3.2/result/LINK_invent/BTK/process_docking_weight1_custom_sum_contain_oxygen_bond_distance_aromatic_linkinvent_7_9_3/rearranged_h_0163.sdf

> <i_m_source_file_index>
95

> <r_mmod_Potential_Energy-OPLS-2005>
-18.8277149200439

> <r_mmod_Stretch_Energy-OPLS-2005>
58.9733467102051

> <r_mmod_Bend_Energy-OPLS-2005>
166.525253295898

> <r_mmod_Torsional_Energy-OPLS-2005>
291.140502929688

> <r_mmod_Improper_Torsional_Energy-OPLS-2005>
3.47098159790039

> <r_mmod_Van_der_Waal_Energy-OPLS-2005>
181.309280395508

> <r_mmod_Electrostatic_Energy-OPLS-2005>
-319.346527099609

> <r_mmod_Solvation_Energy-OPLS-2005>
-415.180633544922

> <b_mmod_Minimization_Converged-OPLS-2005>
0

> <r_mmod_RMS_Derivative-OPLS-2005>
2.23533535003662

$$$$
96
                    3D
 Structure written by MMmdl.
202213  0  0  1  0            999 V2000
  -30.6486  -14.5902   20.5167 C   0  0  0  0  0  0
  -30.4069  -12.3602   19.4849 C   0  0  0  0  0  0
  -29.4973  -12.5125   18.2435 C   0  0  0  0  0  0
  -28.0205  -12.3494   18.6432 C   0  0  0  0  0  0
  -27.6432  -13.2245   19.8694 C   0  0  2  0  0  0
  -28.6699  -13.0860   21.0168 C   0  0  0  0  0  0
  -25.2494  -13.8233   20.5730 C   0  0  0  0  0  0
  -24.1745  -13.0431   20.9284 C   0  0  0  0  0  0
  -24.6327  -11.6930   20.8750 C   0  0  0  0  0  0
  -23.9017  -10.4301   21.0387 C   0  0  0  0  0  0
  -24.3594   -9.4227   21.9163 C   0  0  0  0  0  0
  -23.6305   -8.2235   22.0715 C   0  0  0  0  0  0
  -22.4272   -8.0292   21.3533 C   0  0  0  0  0  0
  -21.9876   -9.0234   20.4601 C   0  0  0  0  0  0
  -22.7190  -10.2144   20.3035 C   0  0  0  0  0  0
  -21.6853   -6.0742   22.5295 C   0  0  0  0  0  0
  -21.3988   -6.5638   23.8218 C   0  0  0  0  0  0
  -21.3676   -5.6801   24.9176 C   0  0  0  0  0  0
  -21.6046   -4.3068   24.7230 C   0  0  0  0  0  0
  -21.8821   -3.8157   23.4365 C   0  0  0  0  0  0
  -21.9170   -4.6965   22.3416 C   0  0  0  0  0  0
  -22.7803  -13.5226   21.1980 C   0  0  0  0  0  0
  -22.1670   -4.2157   21.0993 F   0  0  0  0  0  0
  -21.5633   -3.4550   25.7737 F   0  0  0  0  0  0
  -29.9978  -13.3870   20.4688 N   0  0  0  0  0  0
  -26.2900  -12.9414   20.3345 N   0  0  0  0  0  0
  -25.9265  -11.6555   20.5778 N   0  0  0  0  0  0
  -22.0462  -12.8136   22.0526 N   0  0  0  0  0  0
  -25.4180  -15.1927   20.4179 N   0  0  0  0  0  0
  -31.7656  -14.6875   20.0261 O   0  0  0  0  0  0
  -21.6656   -6.8887   21.4248 O   0  0  0  0  0  0
  -22.3462  -14.5522   20.6879 O   0  0  0  0  0  0
  -24.6140  -31.8641   23.1977 C   0  0  0  0  0  0
  -25.8971  -32.4803   23.8367 C   0  0  1  0  0  0
  -27.2804  -27.3642   20.1319 C   0  0  0  0  0  0
  -25.5787  -33.8614   24.2293 N   0  0  0  0  0  0
  -23.4092  -30.4731   21.5429 C   0  0  2  0  0  0
  -24.8757  -28.9173   20.1174 C   0  0  0  0  0  0
  -22.7372  -29.4640   22.5036 C   0  0  0  0  0  0
  -18.0279  -28.1379   22.8500 C   0  0  0  0  0  0
  -24.1552  -36.7327   23.2649 C   0  0  0  0  0  0
  -25.9383  -30.8165   21.3474 C   0  0  0  0  0  0
  -26.0368  -29.4369   20.7023 C   0  0  0  0  0  0
  -27.2321  -28.6687   20.7015 C   0  0  0  0  0  0
  -26.0999  -26.8690   19.5329 C   0  0  0  0  0  0
  -24.9102  -27.6348   19.5366 C   0  0  0  0  0  0
  -23.6176  -29.7736   20.1690 C   0  0  0  0  0  0
  -25.4166  -36.3099   24.0325 C   0  0  1  0  0  0
  -20.5858  -28.3671   23.1368 C   0  0  2  0  0  0
  -20.6780  -26.9407   22.5450 C   0  0  0  0  0  0
  -19.5769  -26.6371   21.5241 C   0  0  0  0  0  0
  -18.1932  -26.7910   22.1631 C   0  0  0  0  0  0
  -19.1508  -28.8869   23.2917 C   0  0  0  0  0  0
  -18.9434  -30.1497   23.8897 C   0  0  0  0  0  0
  -17.6422  -30.6589   24.0594 C   0  0  0  0  0  0
  -25.9003  -34.9453   23.5086 C   0  0  0  0  0  0
  -16.5334  -29.9074   23.6343 C   0  0  0  0  0  0
  -16.7242  -28.6512   23.0304 C   0  0  0  0  0  0
  -26.4346  -31.6523   25.0666 C   0  0  0  0  0  0
  -25.3580  -31.3636   26.1419 C   0  0  0  0  0  0
  -27.0152  -30.2989   24.5930 C   0  0  0  0  0  0
  -27.6014  -32.4114   25.7336 C   0  0  0  0  0  0
  -27.5603  -37.1788   24.8410 C   0  0  0  0  0  0
  -21.4107  -29.3011   22.3759 N   0  0  0  0  0  0
  -26.4346  -37.3767   23.9312 N   0  0  0  0  0  0
  -24.6739  -31.0627   22.0907 N   0  0  0  0  0  0
  -23.4092  -28.8248   23.3149 O   0  0  0  0  0  0
  -28.4674  -26.6376   20.2476 O   0  0  0  0  0  0
  -26.5539  -34.8903   22.4636 O   0  0  0  0  0  0
  -23.5301  -32.1451   23.7295 O   0  0  0  0  0  0
  -33.6044  -20.6773   21.7966 C   0  0  0  0  0  0
  -32.5884  -19.7653   22.1478 C   0  0  0  0  0  0
  -32.1917  -18.7460   21.2276 C   0  0  0  0  0  0
  -33.0944  -18.4706   20.1556 C   0  0  0  0  0  0
  -33.9908  -19.4744   19.7216 C   0  0  0  0  0  0
  -34.2071  -20.6055   20.5302 C   0  0  0  0  0  0
  -28.9780  -17.1819   18.0492 C   0  0  0  0  0  0
  -29.7507  -18.4828   18.1039 C   0  0  0  0  0  0
  -28.7502  -22.5899   20.0240 C   0  0  0  0  0  0
  -31.8023  -19.9283   23.4565 C   0  0  2  0  0  0
  -30.7138  -18.2333   21.4057 C   0  0  1  0  0  0
  -30.1843  -17.2977   18.9425 C   0  0  0  0  0  0
  -28.0688  -21.5963   21.0195 C   0  0  2  0  0  0
  -30.2697  -19.9511   23.2037 C   0  0  1  0  0  0
  -29.9517  -19.6419   21.7006 C   0  0  2  0  0  0
  -28.0575  -23.9769   20.3110 C   0  0  2  0  0  0
  -27.8862  -22.5250   22.2491 C   0  0  2  0  0  0
  -33.4009  -17.0529   19.7434 C   0  0  0  0  0  0
  -34.7346  -19.3735   18.3901 C   0  0  0  0  0  0
  -32.2785  -21.0761   24.3768 C   0  0  0  0  0  0
  -26.6599  -22.1694   23.0975 C   0  0  0  0  0  0
  -29.1182  -19.5779   25.5342 C   0  0  0  0  0  0
  -34.4330  -22.8684   19.9984 C   0  0  0  0  0  0
  -28.4953  -20.0594   21.2447 C   0  0  0  0  0  0
  -29.5202  -18.9887   24.1733 C   0  0  0  0  0  0
  -28.7572  -25.2902   19.7364 C   0  0  0  0  0  0
  -30.0089  -17.1403   20.4564 C   0  0  1  0  0  0
  -29.9520  -15.6942   20.9284 N   0  0  0  0  0  0
  -27.8235  -23.9348   21.7714 N   0  3  0  0  0  0
  -35.0589  -21.5940   20.1170 O   0  0  0  0  0  0
  -31.4521  -12.4618   19.1809 H   0  0  0  0  0  0
  -30.3221  -11.3636   19.9229 H   0  0  0  0  0  0
  -29.7672  -11.7681   17.4931 H   0  0  0  0  0  0
  -29.6568  -13.4989   17.7967 H   0  0  0  0  0  0
  -27.8627  -11.2961   18.8864 H   0  0  0  0  0  0
  -27.3699  -12.5715   17.7968 H   0  0  0  0  0  0
  -27.6648  -14.2629   19.5388 H   0  0  0  0  0  0
  -28.6582  -12.0772   21.4353 H   0  0  0  0  0  0
  -28.4079  -13.7506   21.8441 H   0  0  0  0  0  0
  -25.2707   -9.5755   22.4753 H   0  0  0  0  0  0
  -24.0036   -7.4612   22.7425 H   0  0  0  0  0  0
  -21.0816   -8.8779   19.8869 H   0  0  0  0  0  0
  -22.3644  -10.9715   19.6186 H   0  0  0  0  0  0
  -21.1983   -7.6134   23.9743 H   0  0  0  0  0  0
  -21.1502   -6.0518   25.9096 H   0  0  0  0  0  0
  -22.0568   -2.7628   23.2868 H   0  0  0  0  0  0
  -22.4071  -11.9768   22.4850 H   0  0  0  0  0  0
  -21.1104  -13.1148   22.2774 H   0  0  0  0  0  0
  -24.6472  -15.8464   20.5201 H   0  0  0  0  0  0
  -26.2700  -15.6342   20.0923 H   0  0  0  0  0  0
  -26.7128  -32.5577   23.1240 H   0  0  0  0  0  0
  -24.9710  -33.9829   25.0274 H   0  0  0  0  0  0
  -22.6999  -31.2915   21.3847 H   0  0  0  0  0  0
  -23.3795  -35.9677   23.3338 H   0  0  0  0  0  0
  -24.3680  -36.8938   22.2063 H   0  0  0  0  0  0
  -23.7344  -37.6548   23.6676 H   0  0  0  0  0  0
  -26.0122  -31.5714   20.5608 H   0  0  0  0  0  0
  -26.8317  -30.9134   21.9502 H   0  0  0  0  0  0
  -28.1246  -29.0650   21.1676 H   0  0  0  0  0  0
  -26.0685  -25.8866   19.0877 H   0  0  0  0  0  0
  -24.0104  -27.2152   19.1128 H   0  0  0  0  0  0
  -23.6687  -30.5276   19.3811 H   0  0  0  0  0  0
  -22.7483  -29.1662   19.9080 H   0  0  0  0  0  0
  -25.1407  -36.1993   25.0845 H   0  0  0  0  0  0
  -21.0027  -28.3300   24.1468 H   0  0  0  0  0  0
  -20.5777  -26.2269   23.3641 H   0  0  0  0  0  0
  -21.6643  -26.7496   22.1224 H   0  0  0  0  0  0
  -19.6927  -25.6271   21.1306 H   0  0  0  0  0  0
  -19.6737  -27.3159   20.6762 H   0  0  0  0  0  0
  -17.4209  -26.6645   21.4017 H   0  0  0  0  0  0
  -18.0345  -26.0045   22.9047 H   0  0  0  0  0  0
  -19.7911  -30.7349   24.2189 H   0  0  0  0  0  0
  -17.4950  -31.6261   24.5180 H   0  0  0  0  0  0
  -15.5320  -30.2924   23.7738 H   0  0  0  0  0  0
  -15.8632  -28.0877   22.6945 H   0  0  0  0  0  0
  -24.5727  -30.7034   25.7667 H   0  0  0  0  0  0
  -24.8730  -32.2809   26.4806 H   0  0  0  0  0  0
  -25.7792  -30.8746   27.0226 H   0  0  0  0  0  0
  -26.2804  -29.6898   24.0675 H   0  0  0  0  0  0
  -27.3614  -29.7062   25.4352 H   0  0  0  0  0  0
  -27.8754  -30.4329   23.9375 H   0  0  0  0  0  0
  -27.2822  -33.3564   26.1706 H   0  0  0  0  0  0
  -28.3781  -32.6406   25.0046 H   0  0  0  0  0  0
  -28.0676  -31.8263   26.5277 H   0  0  0  0  0  0
  -28.2613  -38.0108   24.7549 H   0  0  0  0  0  0
  -28.1149  -36.2624   24.6251 H   0  0  0  0  0  0
  -27.2288  -37.1402   25.8809 H   0  0  0  0  0  0
  -20.9240  -29.8674   21.6954 H   0  0  0  0  0  0
  -26.0247  -38.2838   24.1357 H   0  0  0  0  0  0
  -33.8920  -21.4829   22.4550 H   0  0  0  0  0  0
  -29.0751  -16.5889   17.1457 H   0  0  0  0  0  0
  -28.0205  -17.0944   18.5545 H   0  0  0  0  0  0
  -29.2384  -19.3336   18.5379 H   0  0  0  0  0  0
  -30.4222  -18.7316   17.2820 H   0  0  0  0  0  0
  -28.6328  -22.2855   18.9854 H   0  0  0  0  0  0
  -29.8208  -22.6842   20.2147 H   0  0  0  0  0  0
  -32.0504  -19.0109   23.9958 H   0  0  0  0  0  0
  -30.7710  -17.6692   22.3345 H   0  0  0  0  0  0
  -30.9971  -16.7158   18.5428 H   0  0  0  0  0  0
  -27.0612  -21.4814   20.6100 H   0  0  0  0  0  0
  -29.9398  -20.9564   23.4186 H   0  0  0  0  0  0
  -30.4651  -20.3829   21.0761 H   0  0  0  0  0  0
  -27.0515  -23.9602   19.8914 H   0  0  0  0  0  0
  -28.7629  -22.4871   22.8766 H   0  0  0  0  0  0
  -33.1491  -16.4094   20.5832 H   0  0  0  0  0  0
  -34.4783  -16.9181   19.6401 H   0  0  0  0  0  0
  -32.9650  -16.7189   18.8063 H   0  0  0  0  0  0
  -34.6913  -18.3891   17.9260 H   0  0  0  0  0  0
  -35.7869  -19.6293   18.5122 H   0  0  0  0  0  0
  -34.3045  -20.0802   17.6808 H   0  0  0  0  0  0
  -32.1584  -22.0579   23.9174 H   0  0  0  0  0  0
  -33.3247  -20.9458   24.6544 H   0  0  0  0  0  0
  -31.7140  -21.0858   25.3073 H   0  0  0  0  0  0
  -26.7695  -21.1888   23.5642 H   0  0  0  0  0  0
  -25.7538  -22.1360   22.4912 H   0  0  0  0  0  0
  -26.4998  -22.8917   23.8989 H   0  0  0  0  0  0
  -28.5571  -18.8348   26.1029 H   0  0  0  0  0  0
  -28.4683  -20.4452   25.4220 H   0  0  0  0  0  0
  -29.9778  -19.8718   26.1331 H   0  0  0  0  0  0
  -35.1602  -23.6103   19.6756 H   0  0  0  0  0  0
  -33.9979  -23.2342   20.9333 H   0  0  0  0  0  0
  -33.6337  -22.8297   19.2576 H   0  0  0  0  0  0
  -28.2561  -19.5311   20.3287 H   0  0  0  0  0  0
  -27.7735  -19.6535   21.9513 H   0  0  0  0  0  0
  -30.1091  -18.0954   24.3725 H   0  0  0  0  0  0
  -28.6151  -18.6153   23.6979 H   0  0  0  0  0  0
  -28.6985  -25.2892   18.6443 H   0  0  0  0  0  0
  -29.8366  -25.2026   19.8935 H   0  0  0  0  0  0
  -28.9591  -17.3772   20.6100 H   0  0  0  0  0  0
  -29.1039  -15.4590   21.4241 H   0  0  0  0  0  0
  -26.8980  -24.2717   21.9748 H   0  0  0  0  0  0
  -28.4758  -24.5198   22.2758 H   0  0  0  0  0  0
  1 25  1  0  0  0
  1 30  2  0  0  0
  1 98  1  0  0  0
  2  3  1  0  0  0
  2 25  1  0  0  0
  2101  1  0  0  0
  2102  1  0  0  0
  3  4  1  0  0  0
  3103  1  0  0  0
  3104  1  0  0  0
  4  5  1  0  0  0
  4105  1  0  0  0
  4106  1  0  0  0
  5  6  1  0  0  0
  5 26  1  0  0  0
  5107  1  0  0  0
  6 25  1  0  0  0
  6108  1  0  0  0
  6109  1  0  0  0
  7  8  2  0  0  0
  7 26  1  0  0  0
  7 29  1  0  0  0
  8  9  1  0  0  0
  8 22  1  0  0  0
  9 10  1  0  0  0
  9 27  2  0  0  0
 10 11  2  0  0  0
 10 15  1  0  0  0
 11 12  1  0  0  0
 11110  1  0  0  0
 12 13  2  0  0  0
 12111  1  0  0  0
 13 14  1  0  0  0
 13 31  1  0  0  0
 14 15  2  0  0  0
 14112  1  0  0  0
 15113  1  0  0  0
 16 17  2  0  0  0
 16 21  1  0  0  0
 16 31  1  0  0  0
 17 18  1  0  0  0
 17114  1  0  0  0
 18 19  2  0  0  0
 18115  1  0  0  0
 19 20  1  0  0  0
 19 24  1  0  0  0
 20 21  2  0  0  0
 20116  1  0  0  0
 21 23  1  0  0  0
 22 28  1  0  0  0
 22 32  2  0  0  0
 26 27  1  0  0  0
 28117  1  0  0  0
 28118  1  0  0  0
 29119  1  0  0  0
 29120  1  0  0  0
 33 34  1  0  0  0
 33 66  1  0  0  0
 33 70  2  0  0  0
 34 36  1  0  0  0
 34 59  1  0  0  0
 34121  1  0  0  0
 35 44  2  0  0  0
 35 45  1  0  0  0
 35 68  1  0  0  0
 36 56  1  0  0  0
 36122  1  0  0  0
 37 39  1  0  0  0
 37 47  1  0  0  0
 37 66  1  0  0  0
 37123  1  0  0  0
 38 43  2  0  0  0
 38 46  1  0  0  0
 38 47  1  0  0  0
 39 64  1  0  0  0
 39 67  2  0  0  0
 40 52  1  0  0  0
 40 53  2  0  0  0
 40 58  1  0  0  0
 41124  1  0  0  0
 41125  1  0  0  0
 41126  1  0  0  0
 41 48  1  0  0  0
 42 43  1  0  0  0
 42 66  1  0  0  0
 42127  1  0  0  0
 42128  1  0  0  0
 43 44  1  0  0  0
 44129  1  0  0  0
 45 46  2  0  0  0
 45130  1  0  0  0
 46131  1  0  0  0
 47132  1  0  0  0
 47133  1  0  0  0
 48 56  1  0  0  0
 48 65  1  0  0  0
 48134  1  0  0  0
 49 50  1  0  0  0
 49 53  1  0  0  0
 49 64  1  0  0  0
 49135  1  0  0  0
 50 51  1  0  0  0
 50136  1  0  0  0
 50137  1  0  0  0
 51 52  1  0  0  0
 51138  1  0  0  0
 51139  1  0  0  0
 52140  1  0  0  0
 52141  1  0  0  0
 53 54  1  0  0  0
 54 55  2  0  0  0
 54142  1  0  0  0
 55 57  1  0  0  0
 55143  1  0  0  0
 56 69  2  0  0  0
 57 58  2  0  0  0
 57144  1  0  0  0
 58145  1  0  0  0
 59 60  1  0  0  0
 59 61  1  0  0  0
 59 62  1  0  0  0
 60146  1  0  0  0
 60147  1  0  0  0
 60148  1  0  0  0
 61149  1  0  0  0
 61150  1  0  0  0
 61151  1  0  0  0
 62152  1  0  0  0
 62153  1  0  0  0
 62154  1  0  0  0
 63 65  1  0  0  0
 63155  1  0  0  0
 63156  1  0  0  0
 63157  1  0  0  0
 64158  1  0  0  0
 65159  1  0  0  0
 68 96  1  0  0  0
 71 72  2  0  0  0
 71 76  1  0  0  0
 71160  1  0  0  0
 72 73  1  0  0  0
 72 80  1  0  0  0
 73 74  2  0  0  0
 73 81  1  0  0  0
 74 75  1  0  0  0
 74 88  1  0  0  0
 75 76  2  0  0  0
 75 89  1  0  0  0
 76100  1  0  0  0
 77 78  1  0  0  0
 77161  1  0  0  0
 77162  1  0  0  0
 77 82  1  0  0  0
 78 82  1  0  0  0
 78163  1  0  0  0
 78164  1  0  0  0
 79 83  1  0  0  0
 79 86  1  0  0  0
 79165  1  0  0  0
 79166  1  0  0  0
 80 84  1  0  0  0
 80 90  1  0  0  0
 80167  1  0  0  0
 81 85  1  0  0  0
 81 97  1  0  0  0
 81168  1  0  0  0
 82 97  1  0  0  0
 82169  1  0  0  0
 83 87  1  0  0  0
 83 94  1  0  0  0
 83170  1  0  0  0
 84 85  1  0  0  0
 84 95  1  0  0  0
 84171  1  0  0  0
 85 94  1  0  0  0
 85172  1  0  0  0
 86 96  1  0  0  0
 86 99  1  0  0  0
 86173  1  0  0  0
 87 91  1  0  0  0
 87 99  1  0  0  0
 87174  1  0  0  0
 88175  1  0  0  0
 88176  1  0  0  0
 88177  1  0  0  0
 89178  1  0  0  0
 89179  1  0  0  0
 89180  1  0  0  0
 90181  1  0  0  0
 90182  1  0  0  0
 90183  1  0  0  0
 91184  1  0  0  0
 91185  1  0  0  0
 91186  1  0  0  0
 92 95  1  0  0  0
 92187  1  0  0  0
 92188  1  0  0  0
 92189  1  0  0  0
 93100  1  0  0  0
 93190  1  0  0  0
 93191  1  0  0  0
 93192  1  0  0  0
 94193  1  0  0  0
 94194  1  0  0  0
 95195  1  0  0  0
 95196  1  0  0  0
 96197  1  0  0  0
 96198  1  0  0  0
 97 98  1  0  0  0
 97199  1  0  0  0
 98200  1  0  0  0
 99201  1  0  0  0
 99202  1  0  0  0
M  CHG  1  99   1
M  ISO  4   1 100  68 101  96 101  98 100
M  END
> <chiral flag>
0

> <version>
0

> <s_m_source_file>
/data/baiqing/PycharmProjects/Reinvent-master-3.2/result/LINK_invent/BTK/process_docking_weight1_custom_sum_contain_oxygen_bond_distance_aromatic_linkinvent_7_9_3/rearranged_h_0163.sdf

> <i_m_source_file_index>
96

> <r_mmod_Potential_Energy-OPLS-2005>
401.019897460938

> <r_mmod_Stretch_Energy-OPLS-2005>
106.250961303711

> <r_mmod_Bend_Energy-OPLS-2005>
336.278930664062

> <r_mmod_Torsional_Energy-OPLS-2005>
497.793975830078

> <r_mmod_Improper_Torsional_Energy-OPLS-2005>
10.5472269058228

> <r_mmod_Van_der_Waal_Energy-OPLS-2005>
167.091857910156

> <r_mmod_Electrostatic_Energy-OPLS-2005>
-325.514251708984

> <r_mmod_Solvation_Energy-OPLS-2005>
-427.803283691406

> <b_mmod_Minimization_Converged-OPLS-2005>
0

> <r_mmod_RMS_Derivative-OPLS-2005>
10.1789932250977

$$$$
