0
                    3D
 Structure written by MMmdl.
171179  0  0  1  0            999 V2000
  -30.7471  -14.3428   20.7513 C   0  0  0  0  0  0
  -30.4316  -12.2947   19.4031 C   0  0  0  0  0  0
  -29.4955  -12.5263   18.2009 C   0  0  0  0  0  0
  -28.0180  -12.3693   18.6114 C   0  0  0  0  0  0
  -27.6683  -13.1899   19.8786 C   0  0  2  0  0  0
  -28.6926  -12.9015   20.9938 C   0  0  0  0  0  0
  -25.2616  -13.8129   20.5653 C   0  0  0  0  0  0
  -24.1854  -13.0427   20.9163 C   0  0  0  0  0  0
  -24.6377  -11.6884   20.8686 C   0  0  0  0  0  0
  -23.9041  -10.4282   21.0383 C   0  0  0  0  0  0
  -24.3603   -9.4205   21.9162 C   0  0  0  0  0  0
  -23.6290   -8.2233   22.0732 C   0  0  0  0  0  0
  -22.4270   -8.0268   21.3532 C   0  0  0  0  0  0
  -21.9903   -9.0240   20.4632 C   0  0  0  0  0  0
  -22.7222  -10.2123   20.3036 C   0  0  0  0  0  0
  -21.6849   -6.0720   22.5280 C   0  0  0  0  0  0
  -21.4009   -6.5634   23.8210 C   0  0  0  0  0  0
  -21.3667   -5.6790   24.9181 C   0  0  0  0  0  0
  -21.6049   -4.3052   24.7233 C   0  0  0  0  0  0
  -21.8818   -3.8139   23.4356 C   0  0  0  0  0  0
  -21.9199   -4.6949   22.3410 C   0  0  0  0  0  0
  -22.7895  -13.5238   21.1890 C   0  0  0  0  0  0
  -22.1665   -4.2143   21.0986 F   0  0  0  0  0  0
  -21.5640   -3.4537   25.7740 F   0  0  0  0  0  0
  -30.0452  -13.2094   20.4855 N   0  0  0  0  0  0
  -26.3030  -12.9259   20.3316 N   0  0  0  0  0  0
  -25.9280  -11.6428   20.5684 N   0  0  0  0  0  0
  -22.0552  -12.8183   22.0431 N   0  0  0  0  0  0
  -25.4405  -15.1841   20.4071 N   0  0  0  0  0  0
  -31.7218  -14.7112   20.0825 O   0  0  0  0  0  0
  -21.6641   -6.8862   21.4242 O   0  0  0  0  0  0
  -22.3575  -14.5568   20.6794 O   0  0  0  0  0  0
  -24.6102  -31.8689   23.2115 C   0  0  0  0  0  0
  -25.9019  -32.4834   23.8370 C   0  0  1  0  0  0
  -27.2398  -27.4981   20.0636 C   0  0  0  0  0  0
  -25.5901  -33.8626   24.2314 N   0  0  0  0  0  0
  -23.3925  -30.4925   21.5527 C   0  0  2  0  0  0
  -24.8327  -28.9546   20.1186 C   0  0  0  0  0  0
  -22.7363  -29.4666   22.5026 C   0  0  0  0  0  0
  -18.0269  -28.1348   22.8501 C   0  0  0  0  0  0
  -24.1484  -36.7298   23.2645 C   0  0  0  0  0  0
  -25.9118  -30.8509   21.3495 C   0  0  0  0  0  0
  -25.9888  -29.4882   20.7025 C   0  0  0  0  0  0
  -27.1945  -28.7665   20.6700 C   0  0  0  0  0  0
  -26.0683  -26.9483   19.5004 C   0  0  0  0  0  0
  -24.8634  -27.6797   19.5226 C   0  0  0  0  0  0
  -23.5930  -29.8147   20.1715 C   0  0  0  0  0  0
  -25.4107  -36.3104   24.0343 C   0  0  1  0  0  0
  -20.5849  -28.3608   23.1336 C   0  0  2  0  0  0
  -20.6756  -26.9361   22.5398 C   0  0  0  0  0  0
  -19.5743  -26.6356   21.5189 C   0  0  0  0  0  0
  -18.1916  -26.7902   22.1612 C   0  0  0  0  0  0
  -19.1508  -28.8784   23.2934 C   0  0  0  0  0  0
  -18.9469  -30.1404   23.8918 C   0  0  0  0  0  0
  -17.6474  -30.6565   24.0566 C   0  0  0  0  0  0
  -25.9024  -34.9472   23.5131 C   0  0  0  0  0  0
  -16.5365  -29.9072   23.6329 C   0  0  0  0  0  0
  -16.7258  -28.6484   23.0346 C   0  0  0  0  0  0
  -26.4461  -31.6618   25.0683 C   0  0  0  0  0  0
  -25.3743  -31.3746   26.1461 C   0  0  0  0  0  0
  -27.0304  -30.3076   24.5994 C   0  0  0  0  0  0
  -27.6033  -32.4337   25.7466 C   0  0  0  0  0  0
  -27.5589  -37.1801   24.8475 C   0  0  0  0  0  0
  -21.4085  -29.3012   22.3758 N   0  0  0  0  0  0
  -26.4294  -37.3784   23.9435 N   0  0  0  0  0  0
  -24.6574  -31.0823   22.0993 N   0  0  0  0  0  0
  -23.4161  -28.8190   23.3030 O   0  0  0  0  0  0
  -28.4565  -26.8814   19.9733 O   0  0  0  0  0  0
  -26.5566  -34.8936   22.4680 O   0  0  0  0  0  0
  -23.5306  -32.1421   23.7541 O   0  0  0  0  0  0
  -30.6647  -23.0503   20.6792 C   0  0  0  0  0  0
  -30.9056  -21.7495   21.1462 C   0  0  0  0  0  0
  -29.8623  -23.6781   22.8920 C   0  0  0  0  0  0
  -30.1332  -24.0123   21.5518 C   0  0  0  0  0  0
  -30.5964  -21.3876   22.4752 C   0  0  0  0  0  0
  -30.0851  -22.3698   23.3661 C   0  0  0  0  0  0
  -28.0040  -21.1587   26.4412 C   0  0  0  0  0  0
  -30.4514  -14.6719   23.1674 C   0  0  0  0  0  0
  -29.8575  -25.4053   21.0472 C   0  0  0  0  0  0
  -30.8593  -19.9456   22.8864 C   0  0  0  0  0  0
  -29.7551  -22.0742   24.8230 C   0  0  0  0  0  0
  -28.3554  -21.4643   24.9807 C   0  0  0  0  0  0
  -30.1067  -18.9267   22.0168 C   0  0  0  0  0  0
  -30.6221  -17.5081   22.2615 C   0  0  0  0  0  0
  -29.7582  -16.4443   21.5660 C   0  0  0  0  0  0
  -28.5336  -25.5091   20.2864 C   0  0  0  0  0  0
  -30.2587  -15.0836   21.7719 N   0  0  0  0  0  0
  -31.4744  -12.4218   19.1064 H   0  0  0  0  0  0
  -30.3504  -11.2654   19.7525 H   0  0  0  0  0  0
  -29.7333  -11.8218   17.4024 H   0  0  0  0  0  0
  -29.6628  -13.5243   17.7899 H   0  0  0  0  0  0
  -27.8374  -11.3108   18.7991 H   0  0  0  0  0  0
  -27.3642  -12.6493   17.7862 H   0  0  0  0  0  0
  -27.7382  -14.2468   19.6178 H   0  0  0  0  0  0
  -28.6529  -11.8500   21.2806 H   0  0  0  0  0  0
  -28.4080  -13.4464   21.8940 H   0  0  0  0  0  0
  -25.2750   -9.5692   22.4727 H   0  0  0  0  0  0
  -24.0021   -7.4618   22.7426 H   0  0  0  0  0  0
  -21.0839   -8.8739   19.8921 H   0  0  0  0  0  0
  -22.3674  -10.9651   19.6136 H   0  0  0  0  0  0
  -21.1975   -7.6138   23.9717 H   0  0  0  0  0  0
  -21.1501   -6.0518   25.9086 H   0  0  0  0  0  0
  -22.0586   -2.7604   23.2859 H   0  0  0  0  0  0
  -22.4192  -11.9819   22.4756 H   0  0  0  0  0  0
  -21.1162  -13.1161   22.2658 H   0  0  0  0  0  0
  -24.6838  -15.8484   20.5196 H   0  0  0  0  0  0
  -26.3042  -15.6159   20.1015 H   0  0  0  0  0  0
  -26.7096  -32.5525   23.1131 H   0  0  0  0  0  0
  -25.0147  -33.9780   25.0526 H   0  0  0  0  0  0
  -22.6811  -31.3086   21.4108 H   0  0  0  0  0  0
  -23.3749  -35.9631   23.3297 H   0  0  0  0  0  0
  -24.3578  -36.8880   22.2061 H   0  0  0  0  0  0
  -23.7238  -37.6507   23.6634 H   0  0  0  0  0  0
  -26.0056  -31.6164   20.5773 H   0  0  0  0  0  0
  -26.8079  -30.9077   21.9561 H   0  0  0  0  0  0
  -28.0963  -29.1869   21.0934 H   0  0  0  0  0  0
  -26.0872  -25.9805   19.0190 H   0  0  0  0  0  0
  -23.9749  -27.2579   19.0733 H   0  0  0  0  0  0
  -23.6888  -30.5835   19.4057 H   0  0  0  0  0  0
  -22.7178  -29.2261   19.8913 H   0  0  0  0  0  0
  -25.1281  -36.1968   25.0832 H   0  0  0  0  0  0
  -20.9936  -28.3134   24.1460 H   0  0  0  0  0  0
  -20.5608  -26.2211   23.3558 H   0  0  0  0  0  0
  -21.6635  -26.7379   22.1225 H   0  0  0  0  0  0
  -19.6920  -25.6259   21.1211 H   0  0  0  0  0  0
  -19.6720  -27.3170   20.6730 H   0  0  0  0  0  0
  -17.4198  -26.6641   21.4016 H   0  0  0  0  0  0
  -18.0345  -26.0015   22.8985 H   0  0  0  0  0  0
  -19.7955  -30.7209   24.2264 H   0  0  0  0  0  0
  -17.5064  -31.6255   24.5147 H   0  0  0  0  0  0
  -15.5372  -30.3014   23.7633 H   0  0  0  0  0  0
  -15.8659  -28.0836   22.7046 H   0  0  0  0  0  0
  -24.5869  -30.7137   25.7830 H   0  0  0  0  0  0
  -24.8997  -32.2927   26.4915 H   0  0  0  0  0  0
  -25.8095  -30.8918   27.0219 H   0  0  0  0  0  0
  -26.2836  -29.6824   24.1064 H   0  0  0  0  0  0
  -27.4181  -29.7303   25.4398 H   0  0  0  0  0  0
  -27.8609  -30.4450   23.9060 H   0  0  0  0  0  0
  -27.2611  -33.3607   26.2093 H   0  0  0  0  0  0
  -28.3829  -32.6940   25.0291 H   0  0  0  0  0  0
  -28.0717  -31.8438   26.5356 H   0  0  0  0  0  0
  -28.2588  -38.0112   24.7512 H   0  0  0  0  0  0
  -28.1089  -36.2632   24.6283 H   0  0  0  0  0  0
  -27.2302  -37.1417   25.8875 H   0  0  0  0  0  0
  -20.9196  -29.8759   21.7038 H   0  0  0  0  0  0
  -26.0176  -38.2863   24.1442 H   0  0  0  0  0  0
  -30.8897  -23.3056   19.6514 H   0  0  0  0  0  0
  -31.3226  -21.0240   20.4651 H   0  0  0  0  0  0
  -29.4715  -24.4365   23.5587 H   0  0  0  0  0  0
  -27.0000  -20.7414   26.5162 H   0  0  0  0  0  0
  -28.0357  -22.0607   27.0530 H   0  0  0  0  0  0
  -28.6984  -20.4368   26.8742 H   0  0  0  0  0  0
  -29.6865  -15.1032   23.8158 H   0  0  0  0  0  0
  -31.4233  -15.0136   23.5242 H   0  0  0  0  0  0
  -30.4097  -13.5883   23.2894 H   0  0  0  0  0  0
  -30.6819  -25.7162   20.4057 H   0  0  0  0  0  0
  -29.8464  -26.1030   21.8879 H   0  0  0  0  0  0
  -30.5978  -19.7553   23.9248 H   0  0  0  0  0  0
  -31.9341  -19.7800   22.8120 H   0  0  0  0  0  0
  -29.8113  -23.0022   25.3953 H   0  0  0  0  0  0
  -30.5172  -21.4335   25.2643 H   0  0  0  0  0  0
  -27.6147  -22.1507   24.5656 H   0  0  0  0  0  0
  -28.2859  -20.5484   24.3927 H   0  0  0  0  0  0
  -30.2248  -19.1472   20.9554 H   0  0  0  0  0  0
  -29.0385  -18.9885   22.2251 H   0  0  0  0  0  0
  -30.6336  -17.3314   23.3370 H   0  0  0  0  0  0
  -31.6560  -17.4360   21.9195 H   0  0  0  0  0  0
  -29.6860  -16.6625   20.4986 H   0  0  0  0  0  0
  -28.7382  -16.4915   21.9503 H   0  0  0  0  0  0
  -27.6974  -25.1724   20.9041 H   0  0  0  0  0  0
  -28.5459  -24.9138   19.3718 H   0  0  0  0  0  0
  1 25  1  0  0  0
  1 30  2  0  0  0
  1 87  1  0  0  0
  2  3  1  0  0  0
  2 25  1  0  0  0
  2 88  1  0  0  0
  2 89  1  0  0  0
  3  4  1  0  0  0
  3 90  1  0  0  0
  3 91  1  0  0  0
  4  5  1  0  0  0
  4 92  1  0  0  0
  4 93  1  0  0  0
  5  6  1  0  0  0
  5 26  1  0  0  0
  5 94  1  0  0  0
  6 25  1  0  0  0
  6 95  1  0  0  0
  6 96  1  0  0  0
  7  8  2  0  0  0
  7 26  1  0  0  0
  7 29  1  0  0  0
  8  9  1  0  0  0
  8 22  1  0  0  0
  9 10  1  0  0  0
  9 27  2  0  0  0
 10 11  2  0  0  0
 10 15  1  0  0  0
 11 12  1  0  0  0
 11 97  1  0  0  0
 12 13  2  0  0  0
 12 98  1  0  0  0
 13 14  1  0  0  0
 13 31  1  0  0  0
 14 15  2  0  0  0
 14 99  1  0  0  0
 15100  1  0  0  0
 16 17  2  0  0  0
 16 21  1  0  0  0
 16 31  1  0  0  0
 17 18  1  0  0  0
 17101  1  0  0  0
 18 19  2  0  0  0
 18102  1  0  0  0
 19 20  1  0  0  0
 19 24  1  0  0  0
 20 21  2  0  0  0
 20103  1  0  0  0
 21 23  1  0  0  0
 22 28  1  0  0  0
 22 32  2  0  0  0
 26 27  1  0  0  0
 28104  1  0  0  0
 28105  1  0  0  0
 29106  1  0  0  0
 29107  1  0  0  0
 33 34  1  0  0  0
 33 66  1  0  0  0
 33 70  2  0  0  0
 34 36  1  0  0  0
 34 59  1  0  0  0
 34108  1  0  0  0
 35 44  2  0  0  0
 35 45  1  0  0  0
 35 68  1  0  0  0
 36 56  1  0  0  0
 36109  1  0  0  0
 37 39  1  0  0  0
 37 47  1  0  0  0
 37 66  1  0  0  0
 37110  1  0  0  0
 38 43  2  0  0  0
 38 46  1  0  0  0
 38 47  1  0  0  0
 39 64  1  0  0  0
 39 67  2  0  0  0
 40 52  1  0  0  0
 40 53  2  0  0  0
 40 58  1  0  0  0
 41111  1  0  0  0
 41112  1  0  0  0
 41113  1  0  0  0
 41 48  1  0  0  0
 42 43  1  0  0  0
 42 66  1  0  0  0
 42114  1  0  0  0
 42115  1  0  0  0
 43 44  1  0  0  0
 44116  1  0  0  0
 45 46  2  0  0  0
 45117  1  0  0  0
 46118  1  0  0  0
 47119  1  0  0  0
 47120  1  0  0  0
 48 56  1  0  0  0
 48 65  1  0  0  0
 48121  1  0  0  0
 49 50  1  0  0  0
 49 53  1  0  0  0
 49 64  1  0  0  0
 49122  1  0  0  0
 50 51  1  0  0  0
 50123  1  0  0  0
 50124  1  0  0  0
 51 52  1  0  0  0
 51125  1  0  0  0
 51126  1  0  0  0
 52127  1  0  0  0
 52128  1  0  0  0
 53 54  1  0  0  0
 54 55  2  0  0  0
 54129  1  0  0  0
 55 57  1  0  0  0
 55130  1  0  0  0
 56 69  2  0  0  0
 57 58  2  0  0  0
 57131  1  0  0  0
 58132  1  0  0  0
 59 60  1  0  0  0
 59 61  1  0  0  0
 59 62  1  0  0  0
 60133  1  0  0  0
 60134  1  0  0  0
 60135  1  0  0  0
 61136  1  0  0  0
 61137  1  0  0  0
 61138  1  0  0  0
 62139  1  0  0  0
 62140  1  0  0  0
 62141  1  0  0  0
 63 65  1  0  0  0
 63142  1  0  0  0
 63143  1  0  0  0
 63144  1  0  0  0
 64145  1  0  0  0
 65146  1  0  0  0
 68 86  1  0  0  0
 71 72  2  0  0  0
 71 74  1  0  0  0
 71147  1  0  0  0
 72 75  1  0  0  0
 72148  1  0  0  0
 73 74  2  0  0  0
 73 76  1  0  0  0
 73149  1  0  0  0
 74 79  1  0  0  0
 75 76  2  0  0  0
 75 80  1  0  0  0
 76 81  1  0  0  0
 77 82  1  0  0  0
 77150  1  0  0  0
 77151  1  0  0  0
 77152  1  0  0  0
 78 87  1  0  0  0
 78153  1  0  0  0
 78154  1  0  0  0
 78155  1  0  0  0
 79 86  1  0  0  0
 79156  1  0  0  0
 79157  1  0  0  0
 80 83  1  0  0  0
 80158  1  0  0  0
 80159  1  0  0  0
 81 82  1  0  0  0
 81160  1  0  0  0
 81161  1  0  0  0
 82162  1  0  0  0
 82163  1  0  0  0
 83 84  1  0  0  0
 83164  1  0  0  0
 83165  1  0  0  0
 84 85  1  0  0  0
 84166  1  0  0  0
 84167  1  0  0  0
 85 87  1  0  0  0
 85168  1  0  0  0
 85169  1  0  0  0
 86170  1  0  0  0
 86171  1  0  0  0
M  ISO  4   1 100  68 101  86 101  87 100
M  END
> <chiral flag>
0

> <version>
0

> <s_m_source_file>
/data/baiqing/PycharmProjects/Reinvent-master-3.2/result/LINK_invent/BTK/process_docking_weight1_custom_sum_contain_oxygen_bond_distance_aromatic_linkinvent_7_9_3/rearranged_h_0039.sdf

> <i_m_source_file_index>
1

> <r_mmod_Potential_Energy-OPLS-2005>
126.671127319336

> <r_mmod_Stretch_Energy-OPLS-2005>
31.388427734375

> <r_mmod_Bend_Energy-OPLS-2005>
93.0396194458008

> <r_mmod_Torsional_Energy-OPLS-2005>
301.023681640625

> <r_mmod_Improper_Torsional_Energy-OPLS-2005>
2.49884843826294

> <r_mmod_Van_der_Waal_Energy-OPLS-2005>
153.961853027344

> <r_mmod_Electrostatic_Energy-OPLS-2005>
-283.950134277344

> <r_mmod_Solvation_Energy-OPLS-2005>
-182.242599487305

> <b_mmod_Minimization_Converged-OPLS-2005>
0

> <r_mmod_RMS_Derivative-OPLS-2005>
3.47376132011414

$$$$
1
                    3D
 Structure written by MMmdl.
163171  0  0  1  0            999 V2000
  -30.2324  -15.3265   20.0098 C   0  0  0  0  0  0
  -30.4238  -12.8136   19.4668 C   0  0  0  0  0  0
  -29.5219  -12.5304   18.2436 C   0  0  0  0  0  0
  -28.0681  -12.2810   18.6929 C   0  0  0  0  0  0
  -27.5905  -13.2717   19.7837 C   0  0  2  0  0  0
  -28.6318  -13.4867   20.8897 C   0  0  0  0  0  0
  -25.2356  -13.8246   20.5771 C   0  0  0  0  0  0
  -24.1742  -13.0435   20.9317 C   0  0  0  0  0  0
  -24.6381  -11.6911   20.8813 C   0  0  0  0  0  0
  -23.9096  -10.4275   21.0440 C   0  0  0  0  0  0
  -24.3643   -9.4190   21.9213 C   0  0  0  0  0  0
  -23.6298   -8.2243   22.0763 C   0  0  0  0  0  0
  -22.4282   -8.0294   21.3535 C   0  0  0  0  0  0
  -21.9924   -9.0291   20.4664 C   0  0  0  0  0  0
  -22.7269  -10.2145   20.3075 C   0  0  0  0  0  0
  -21.6865   -6.0721   22.5256 C   0  0  0  0  0  0
  -21.4048   -6.5624   23.8190 C   0  0  0  0  0  0
  -21.3650   -5.6771   24.9156 C   0  0  0  0  0  0
  -21.6045   -4.3035   24.7205 C   0  0  0  0  0  0
  -21.8823   -3.8122   23.4335 C   0  0  0  0  0  0
  -21.9207   -4.6941   22.3382 C   0  0  0  0  0  0
  -22.7773  -13.5195   21.1961 C   0  0  0  0  0  0
  -22.1671   -4.2113   21.0979 F   0  0  0  0  0  0
  -21.5603   -3.4549   25.7740 F   0  0  0  0  0  0
  -29.8290  -13.9790   20.1992 N   0  0  0  0  0  0
  -26.2729  -12.9487   20.3113 N   0  0  0  0  0  0
  -25.9300  -11.6569   20.5702 N   0  0  0  0  0  0
  -22.0421  -12.8173   22.0486 N   0  0  0  0  0  0
  -25.4025  -15.1981   20.4276 N   0  0  0  0  0  0
  -31.4708  -15.3783   19.8716 O   0  0  0  0  0  0
  -21.6663   -6.8892   21.4203 O   0  0  0  0  0  0
  -22.3465  -14.5482   20.6792 O   0  0  0  0  0  0
  -24.7869  -31.7596   22.8498 C   0  0  0  0  0  0
  -25.9764  -32.4319   23.6437 C   0  0  1  0  0  0
  -26.6953  -27.8123   21.3991 C   0  0  0  0  0  0
  -25.5852  -33.7926   24.0977 N   0  0  0  0  0  0
  -23.5594  -29.9999   21.3317 C   0  0  2  0  0  0
  -25.2294  -27.7913   19.5889 C   0  0  0  0  0  0
  -22.7591  -29.4281   22.5224 C   0  0  0  0  0  0
  -18.0183  -28.1423   22.8433 C   0  0  0  0  0  0
  -24.1423  -36.6978   23.2725 C   0  0  0  0  0  0
  -26.5461  -30.6446   20.8827 C   0  0  0  0  0  0
  -26.7887  -28.8834   19.8561 C   0  0  0  0  0  0
  -27.7127  -28.3029   20.6405 C   0  0  0  0  0  0
  -26.3542  -26.5276   20.8406 C   0  0  0  0  0  0
  -25.3044  -26.5370   19.9629 C   0  0  0  0  0  0
  -23.6176  -28.4412   20.2952 C   0  0  0  0  0  0
  -25.4150  -36.2791   24.0256 C   0  0  1  0  0  0
  -20.5731  -28.3936   23.1400 C   0  0  2  0  0  0
  -20.6617  -26.9546   22.5766 C   0  0  0  0  0  0
  -19.5839  -26.6415   21.5347 C   0  0  0  0  0  0
  -18.1938  -26.7939   22.1573 C   0  0  0  0  0  0
  -19.1389  -28.8992   23.2802 C   0  0  0  0  0  0
  -18.9286  -30.1517   23.8923 C   0  0  0  0  0  0
  -17.6295  -30.6634   24.0532 C   0  0  0  0  0  0
  -25.9168  -34.9259   23.4607 C   0  0  0  0  0  0
  -16.5204  -29.9116   23.6231 C   0  0  0  0  0  0
  -16.7166  -28.6462   23.0379 C   0  0  0  0  0  0
  -26.4609  -31.6188   24.9196 C   0  0  0  0  0  0
  -25.3587  -31.3258   25.9642 C   0  0  0  0  0  0
  -27.0434  -30.2615   24.4758 C   0  0  0  0  0  0
  -27.6112  -32.3732   25.6373 C   0  0  0  0  0  0
  -27.5582  -37.1628   24.8458 C   0  0  0  0  0  0
  -21.4265  -29.3049   22.3684 N   0  0  0  0  0  0
  -26.4223  -37.3695   23.9536 N   0  0  0  0  0  0
  -24.9555  -30.9698   21.6808 N   0  0  0  0  0  0
  -23.3603  -28.9051   23.4619 O   0  0  0  0  0  0
  -25.5483  -28.7992   21.4080 O   0  0  0  0  0  0
  -26.6050  -34.9125   22.4431 O   0  0  0  0  0  0
  -23.6741  -32.0020   23.3711 O   0  0  0  0  0  0
  -28.4684  -25.1393   17.8216 C   0  0  0  0  0  0
  -27.9284  -27.5831   17.4613 C   0  0  0  0  0  0
  -26.2169  -25.8993   17.3959 C   0  0  0  0  0  0
  -28.8421  -26.5045   17.6890 C   0  0  0  0  0  0
  -27.1601  -24.6656   17.6574 C   0  0  0  0  0  0
  -26.5165  -27.4454   17.3868 C   0  0  0  0  0  0
  -30.3261  -26.7962   17.8360 C   0  0  0  0  0  0
  -27.0923  -22.8973   17.4919 C   0  0  0  0  0  0
  -25.5471  -29.0366   17.5601 C   0  0  0  0  0  0
  -29.2509  -16.8228   19.9108 C   0  0  0  0  0  0
  -27.4200  -21.2650   18.3149 C   0  0  0  0  0  0
  -29.0082  -18.2490   18.7819 C   0  0  0  0  0  0
  -28.6996  -20.0687   18.8378 C   0  0  0  0  0  0
  -24.9611  -30.0252   19.2178 C   0  0  0  0  0  0
  -31.4460  -13.0073   19.1432 H   0  0  0  0  0  0
  -30.4757  -11.9361   20.1108 H   0  0  0  0  0  0
  -29.8959  -11.6645   17.7002 H   0  0  0  0  0  0
  -29.5557  -13.3695   17.5463 H   0  0  0  0  0  0
  -28.0350  -11.2666   19.0886 H   0  0  0  0  0  0
  -27.3857  -12.3011   17.8401 H   0  0  0  0  0  0
  -27.4879  -14.2295   19.2691 H   0  0  0  0  0  0
  -28.8253  -12.5780   21.4586 H   0  0  0  0  0  0
  -28.2940  -14.2448   21.6004 H   0  0  0  0  0  0
  -25.2788   -9.5648   22.4813 H   0  0  0  0  0  0
  -23.9980   -7.4623   22.7474 H   0  0  0  0  0  0
  -21.0855   -8.8832   19.9009 H   0  0  0  0  0  0
  -22.3729  -10.9707   19.6206 H   0  0  0  0  0  0
  -21.2063   -7.6144   23.9681 H   0  0  0  0  0  0
  -21.1468   -6.0520   25.9047 H   0  0  0  0  0  0
  -22.0614   -2.7598   23.2863 H   0  0  0  0  0  0
  -22.4092  -11.9827   22.4843 H   0  0  0  0  0  0
  -21.1045  -13.1161   22.2772 H   0  0  0  0  0  0
  -24.6353  -15.8464   20.5583 H   0  0  0  0  0  0
  -26.2452  -15.6442   20.0918 H   0  0  0  0  0  0
  -26.8064  -32.5024   22.9387 H   0  0  0  0  0  0
  -24.9984  -33.8631   24.9171 H   0  0  0  0  0  0
  -22.8573  -30.6893   20.8612 H   0  0  0  0  0  0
  -23.3966  -35.9024   23.3104 H   0  0  0  0  0  0
  -24.3379  -36.9039   22.2193 H   0  0  0  0  0  0
  -23.6768  -37.5820   23.7045 H   0  0  0  0  0  0
  -26.8648  -31.5007   20.2951 H   0  0  0  0  0  0
  -27.2716  -30.6045   21.6871 H   0  0  0  0  0  0
  -28.4002  -27.5934   20.1965 H   0  0  0  0  0  0
  -26.7721  -25.6088   21.2227 H   0  0  0  0  0  0
  -24.6387  -25.7197   19.7368 H   0  0  0  0  0  0
  -22.8331  -28.4432   19.5324 H   0  0  0  0  0  0
  -23.2955  -27.6069   20.9223 H   0  0  0  0  0  0
  -25.1466  -36.1398   25.0744 H   0  0  0  0  0  0
  -20.9641  -28.3743   24.1594 H   0  0  0  0  0  0
  -20.5285  -26.2616   23.4066 H   0  0  0  0  0  0
  -21.6538  -26.7371   22.1825 H   0  0  0  0  0  0
  -19.7174  -25.6314   21.1461 H   0  0  0  0  0  0
  -19.6864  -27.3189   20.6842 H   0  0  0  0  0  0
  -17.4291  -26.6555   21.3896 H   0  0  0  0  0  0
  -18.0246  -26.0071   22.8940 H   0  0  0  0  0  0
  -19.7751  -30.7247   24.2431 H   0  0  0  0  0  0
  -17.4823  -31.6317   24.5183 H   0  0  0  0  0  0
  -15.5225  -30.3050   23.7470 H   0  0  0  0  0  0
  -15.8515  -28.0723   22.7238 H   0  0  0  0  0  0
  -24.5914  -30.6816   25.5333 H   0  0  0  0  0  0
  -24.8649  -32.2320   26.3126 H   0  0  0  0  0  0
  -25.7615  -30.7987   26.8298 H   0  0  0  0  0  0
  -26.3396  -29.6822   23.8740 H   0  0  0  0  0  0
  -27.3208  -29.6281   25.3200 H   0  0  0  0  0  0
  -27.9332  -30.4065   23.8640 H   0  0  0  0  0  0
  -27.2974  -33.3352   26.0433 H   0  0  0  0  0  0
  -28.4274  -32.5630   24.9376 H   0  0  0  0  0  0
  -28.0277  -31.7885   26.4587 H   0  0  0  0  0  0
  -28.2580  -38.0032   24.7957 H   0  0  0  0  0  0
  -28.1239  -36.2632   24.5895 H   0  0  0  0  0  0
  -27.2341  -37.0700   25.8868 H   0  0  0  0  0  0
  -20.9914  -29.7481   21.5694 H   0  0  0  0  0  0
  -26.0055  -38.2694   24.1891 H   0  0  0  0  0  0
  -29.2303  -24.3947   17.9864 H   0  0  0  0  0  0
  -28.3295  -28.5922   17.4883 H   0  0  0  0  0  0
  -25.1697  -25.6565   17.2830 H   0  0  0  0  0  0
  -30.8870  -26.2673   17.0658 H   0  0  0  0  0  0
  -30.6928  -26.4601   18.8070 H   0  0  0  0  0  0
  -30.5613  -27.8526   17.7417 H   0  0  0  0  0  0
  -27.5764  -22.7609   16.5231 H   0  0  0  0  0  0
  -26.0400  -22.7847   17.2128 H   0  0  0  0  0  0
  -24.6272  -28.8127   17.0238 H   0  0  0  0  0  0
  -26.0561  -29.7573   16.9230 H   0  0  0  0  0  0
  -28.2395  -16.4213   19.9814 H   0  0  0  0  0  0
  -29.3922  -17.2746   20.8918 H   0  0  0  0  0  0
  -27.0671  -20.6552   17.4814 H   0  0  0  0  0  0
  -26.5982  -21.1349   19.0202 H   0  0  0  0  0  0
  -28.2668  -17.8939   18.0639 H   0  0  0  0  0  0
  -29.9238  -18.1955   18.1938 H   0  0  0  0  0  0
  -28.9600  -20.3679   19.8491 H   0  0  0  0  0  0
  -29.5480  -20.4417   18.2652 H   0  0  0  0  0  0
  -23.9158  -30.2696   18.9743 H   0  0  0  0  0  0
  -25.2751  -31.0564   19.0493 H   0  0  0  0  0  0
  1 25  1  0  0  0
  1 30  2  0  0  0
  1 80  1  0  0  0
  2  3  1  0  0  0
  2 25  1  0  0  0
  2 85  1  0  0  0
  2 86  1  0  0  0
  3  4  1  0  0  0
  3 87  1  0  0  0
  3 88  1  0  0  0
  4  5  1  0  0  0
  4 89  1  0  0  0
  4 90  1  0  0  0
  5  6  1  0  0  0
  5 26  1  0  0  0
  5 91  1  0  0  0
  6 25  1  0  0  0
  6 92  1  0  0  0
  6 93  1  0  0  0
  7  8  2  0  0  0
  7 26  1  0  0  0
  7 29  1  0  0  0
  8  9  1  0  0  0
  8 22  1  0  0  0
  9 10  1  0  0  0
  9 27  2  0  0  0
 10 11  2  0  0  0
 10 15  1  0  0  0
 11 12  1  0  0  0
 11 94  1  0  0  0
 12 13  2  0  0  0
 12 95  1  0  0  0
 13 14  1  0  0  0
 13 31  1  0  0  0
 14 15  2  0  0  0
 14 96  1  0  0  0
 15 97  1  0  0  0
 16 17  2  0  0  0
 16 21  1  0  0  0
 16 31  1  0  0  0
 17 18  1  0  0  0
 17 98  1  0  0  0
 18 19  2  0  0  0
 18 99  1  0  0  0
 19 20  1  0  0  0
 19 24  1  0  0  0
 20 21  2  0  0  0
 20100  1  0  0  0
 21 23  1  0  0  0
 22 28  1  0  0  0
 22 32  2  0  0  0
 26 27  1  0  0  0
 28101  1  0  0  0
 28102  1  0  0  0
 29103  1  0  0  0
 29104  1  0  0  0
 33 34  1  0  0  0
 33 66  1  0  0  0
 33 70  2  0  0  0
 34 36  1  0  0  0
 34 59  1  0  0  0
 34105  1  0  0  0
 35 44  2  0  0  0
 35 45  1  0  0  0
 35 68  1  0  0  0
 36 56  1  0  0  0
 36106  1  0  0  0
 37 39  1  0  0  0
 37 47  1  0  0  0
 37 66  1  0  0  0
 37107  1  0  0  0
 38 43  2  0  0  0
 38 46  1  0  0  0
 38 47  1  0  0  0
 39 64  1  0  0  0
 39 67  2  0  0  0
 40 52  1  0  0  0
 40 53  2  0  0  0
 40 58  1  0  0  0
 41108  1  0  0  0
 41109  1  0  0  0
 41110  1  0  0  0
 41 48  1  0  0  0
 42 43  1  0  0  0
 42 66  1  0  0  0
 42111  1  0  0  0
 42112  1  0  0  0
 43 44  1  0  0  0
 44113  1  0  0  0
 45 46  2  0  0  0
 45114  1  0  0  0
 46115  1  0  0  0
 47116  1  0  0  0
 47117  1  0  0  0
 48 56  1  0  0  0
 48 65  1  0  0  0
 48118  1  0  0  0
 49 50  1  0  0  0
 49 53  1  0  0  0
 49 64  1  0  0  0
 49119  1  0  0  0
 50 51  1  0  0  0
 50120  1  0  0  0
 50121  1  0  0  0
 51 52  1  0  0  0
 51122  1  0  0  0
 51123  1  0  0  0
 52124  1  0  0  0
 52125  1  0  0  0
 53 54  1  0  0  0
 54 55  2  0  0  0
 54126  1  0  0  0
 55 57  1  0  0  0
 55127  1  0  0  0
 56 69  2  0  0  0
 57 58  2  0  0  0
 57128  1  0  0  0
 58129  1  0  0  0
 59 60  1  0  0  0
 59 61  1  0  0  0
 59 62  1  0  0  0
 60130  1  0  0  0
 60131  1  0  0  0
 60132  1  0  0  0
 61133  1  0  0  0
 61134  1  0  0  0
 61135  1  0  0  0
 62136  1  0  0  0
 62137  1  0  0  0
 62138  1  0  0  0
 63 65  1  0  0  0
 63139  1  0  0  0
 63140  1  0  0  0
 63141  1  0  0  0
 64142  1  0  0  0
 65143  1  0  0  0
 68 84  1  0  0  0
 71 74  2  0  0  0
 71 75  1  0  0  0
 71144  1  0  0  0
 72 74  1  0  0  0
 72 76  2  0  0  0
 72145  1  0  0  0
 73 75  2  0  0  0
 73 76  1  0  0  0
 73146  1  0  0  0
 74 77  1  0  0  0
 75 78  1  0  0  0
 76 79  1  0  0  0
 77147  1  0  0  0
 77148  1  0  0  0
 77149  1  0  0  0
 78 81  1  0  0  0
 78150  1  0  0  0
 78151  1  0  0  0
 79 84  1  0  0  0
 79152  1  0  0  0
 79153  1  0  0  0
 80 82  1  0  0  0
 80154  1  0  0  0
 80155  1  0  0  0
 81 83  1  0  0  0
 81156  1  0  0  0
 81157  1  0  0  0
 82 83  1  0  0  0
 82158  1  0  0  0
 82159  1  0  0  0
 83160  1  0  0  0
 83161  1  0  0  0
 84162  1  0  0  0
 84163  1  0  0  0
M  ISO  4   1 100  68 101  80 100  84 101
M  END
> <chiral flag>
0

> <version>
0

> <s_m_source_file>
/data/baiqing/PycharmProjects/Reinvent-master-3.2/result/LINK_invent/BTK/process_docking_weight1_custom_sum_contain_oxygen_bond_distance_aromatic_linkinvent_7_9_3/rearranged_h_0039.sdf

> <i_m_source_file_index>
2

> <r_mmod_Potential_Energy-OPLS-2005>
11101.041015625

> <r_mmod_Stretch_Energy-OPLS-2005>
4687.5029296875

> <r_mmod_Bend_Energy-OPLS-2005>
1005.23870849609

> <r_mmod_Torsional_Energy-OPLS-2005>
602.059936523438

> <r_mmod_Improper_Torsional_Energy-OPLS-2005>
86.1150665283203

> <r_mmod_Van_der_Waal_Energy-OPLS-2005>
2060.90380859375

> <r_mmod_Electrostatic_Energy-OPLS-2005>
-302.2431640625

> <r_mmod_Solvation_Energy-OPLS-2005>
-195.529373168945

> <b_mmod_Minimization_Converged-OPLS-2005>
0

> <r_mmod_RMS_Derivative-OPLS-2005>
15.1312866210938

$$$$
2
                    3D
 Structure written by MMmdl.
154162  0  0  1  0            999 V2000
  -30.5913  -14.7413   20.4772 C   0  0  0  0  0  0
  -30.4423  -12.4565   19.4718 C   0  0  0  0  0  0
  -29.5165  -12.4800   18.2358 C   0  0  0  0  0  0
  -28.0438  -12.3036   18.6542 C   0  0  0  0  0  0
  -27.6423  -13.2186   19.8422 C   0  0  2  0  0  0
  -28.6818  -13.1579   20.9800 C   0  0  0  0  0  0
  -25.2537  -13.8165   20.5615 C   0  0  0  0  0  0
  -24.1826  -13.0437   20.9195 C   0  0  0  0  0  0
  -24.6397  -11.6901   20.8764 C   0  0  0  0  0  0
  -23.9082  -10.4274   21.0430 C   0  0  0  0  0  0
  -24.3632   -9.4181   21.9203 C   0  0  0  0  0  0
  -23.6299   -8.2227   22.0768 C   0  0  0  0  0  0
  -22.4279   -8.0269   21.3549 C   0  0  0  0  0  0
  -21.9927   -9.0251   20.4640 C   0  0  0  0  0  0
  -22.7273  -10.2119   20.3061 C   0  0  0  0  0  0
  -21.6852   -6.0734   22.5269 C   0  0  0  0  0  0
  -21.4013   -6.5638   23.8210 C   0  0  0  0  0  0
  -21.3662   -5.6793   24.9172 C   0  0  0  0  0  0
  -21.6046   -4.3059   24.7218 C   0  0  0  0  0  0
  -21.8828   -3.8146   23.4344 C   0  0  0  0  0  0
  -21.9200   -4.6959   22.3396 C   0  0  0  0  0  0
  -22.7842  -13.5235   21.1842 C   0  0  0  0  0  0
  -22.1662   -4.2153   21.0971 F   0  0  0  0  0  0
  -21.5636   -3.4528   25.7729 F   0  0  0  0  0  0
  -29.9798  -13.5135   20.3960 N   0  0  0  0  0  0
  -26.2930  -12.9342   20.3211 N   0  0  0  0  0  0
  -25.9327  -11.6504   20.5763 N   0  0  0  0  0  0
  -22.0479  -12.8207   22.0372 N   0  0  0  0  0  0
  -25.4261  -15.1878   20.3911 N   0  0  0  0  0  0
  -31.7876  -14.8575   20.1968 O   0  0  0  0  0  0
  -21.6642   -6.8872   21.4234 O   0  0  0  0  0  0
  -22.3526  -14.5542   20.6708 O   0  0  0  0  0  0
  -24.6315  -31.8580   23.2041 C   0  0  0  0  0  0
  -25.9147  -32.4780   23.8343 C   0  0  1  0  0  0
  -27.2005  -27.2709   20.1239 C   0  0  0  0  0  0
  -25.5985  -33.8589   24.2284 N   0  0  0  0  0  0
  -23.4268  -30.4858   21.5517 C   0  0  2  0  0  0
  -24.8675  -28.9497   20.1183 C   0  0  0  0  0  0
  -22.7523  -29.4596   22.4959 C   0  0  0  0  0  0
  -18.0281  -28.1438   22.8537 C   0  0  0  0  0  0
  -24.1463  -36.7245   23.2643 C   0  0  0  0  0  0
  -25.9762  -30.7843   21.3729 C   0  0  0  0  0  0
  -26.0501  -29.4104   20.7123 C   0  0  0  0  0  0
  -27.2276  -28.5902   20.6927 C   0  0  0  0  0  0
  -25.9851  -26.8959   19.4920 C   0  0  0  0  0  0
  -24.8407  -27.7013   19.4981 C   0  0  0  0  0  0
  -23.6453  -29.8373   20.1641 C   0  0  0  0  0  0
  -25.4099  -36.3079   24.0365 C   0  0  1  0  0  0
  -20.5888  -28.3690   23.1316 C   0  0  2  0  0  0
  -20.6765  -26.9426   22.5423 C   0  0  0  0  0  0
  -19.5733  -26.6451   21.5228 C   0  0  0  0  0  0
  -18.1912  -26.7993   22.1647 C   0  0  0  0  0  0
  -19.1542  -28.8890   23.2902 C   0  0  0  0  0  0
  -18.9480  -30.1512   23.8887 C   0  0  0  0  0  0
  -17.6471  -30.6635   24.0610 C   0  0  0  0  0  0
  -25.9075  -34.9466   23.5130 C   0  0  0  0  0  0
  -16.5359  -29.9146   23.6384 C   0  0  0  0  0  0
  -16.7257  -28.6580   23.0369 C   0  0  0  0  0  0
  -26.4525  -31.6564   25.0682 C   0  0  0  0  0  0
  -25.3800  -31.3731   26.1445 C   0  0  0  0  0  0
  -27.0310  -30.3002   24.6060 C   0  0  0  0  0  0
  -27.6095  -32.4270   25.7436 C   0  0  0  0  0  0
  -27.5587  -37.1767   24.8470 C   0  0  0  0  0  0
  -21.4226  -29.3015   22.3728 N   0  0  0  0  0  0
  -26.4236  -37.3820   23.9501 N   0  0  0  0  0  0
  -24.6979  -31.0577   22.1003 N   0  0  0  0  0  0
  -23.4237  -28.8104   23.3020 O   0  0  0  0  0  0
  -28.2565  -26.3214   20.2155 O   0  0  0  0  0  0
  -26.5602  -34.8931   22.4659 O   0  0  0  0  0  0
  -23.5490  -32.1337   23.7391 O   0  0  0  0  0  0
  -30.1779  -23.5883   20.2518 C   0  0  0  0  0  0
  -30.5425  -22.2277   20.4955 C   0  0  0  0  0  0
  -28.8203  -23.7013   20.3868 C   0  0  0  0  0  0
  -29.4611  -21.4364   20.7924 C   0  0  0  0  0  0
  -27.0028  -22.0601   21.0967 C   0  0  0  0  0  0
  -29.4503  -19.9350   21.2967 C   0  0  0  0  0  0
  -27.8276  -24.8845   20.0928 C   0  0  0  0  0  0
  -29.4891  -18.5988   20.3789 C   0  0  0  0  0  0
  -30.1781  -17.2861   21.0419 C   0  0  0  0  0  0
  -28.3881  -22.3802   20.7605 N   0  0  0  0  0  0
  -29.7913  -15.8512   20.6913 N   0  0  0  0  0  0
  -32.1703  -21.6601   20.4798 Cl  0  0  0  0  0  0
  -31.4799  -12.6055   19.1651 H   0  0  0  0  0  0
  -30.4105  -11.4847   19.9665 H   0  0  0  0  0  0
  -29.8033  -11.6840   17.5463 H   0  0  0  0  0  0
  -29.6405  -13.4175   17.6903 H   0  0  0  0  0  0
  -27.9168  -11.2595   18.9414 H   0  0  0  0  0  0
  -27.3819  -12.4710   17.8044 H   0  0  0  0  0  0
  -27.6377  -14.2361   19.4503 H   0  0  0  0  0  0
  -28.7237  -12.1637   21.4268 H   0  0  0  0  0  0
  -28.4104  -13.8424   21.7867 H   0  0  0  0  0  0
  -25.2784   -9.5655   22.4768 H   0  0  0  0  0  0
  -24.0016   -7.4613   22.7488 H   0  0  0  0  0  0
  -21.0877   -8.8772   19.8925 H   0  0  0  0  0  0
  -22.3768  -10.9657   19.6144 H   0  0  0  0  0  0
  -21.1996   -7.6144   23.9713 H   0  0  0  0  0  0
  -21.1474   -6.0517   25.9081 H   0  0  0  0  0  0
  -22.0607   -2.7606   23.2833 H   0  0  0  0  0  0
  -22.4109  -11.9859   22.4737 H   0  0  0  0  0  0
  -21.1069  -13.1187   22.2539 H   0  0  0  0  0  0
  -24.6537  -15.8398   20.4734 H   0  0  0  0  0  0
  -26.2543  -15.6032   19.9831 H   0  0  0  0  0  0
  -26.7199  -32.5407   23.1074 H   0  0  0  0  0  0
  -25.0204  -33.9725   25.0481 H   0  0  0  0  0  0
  -22.7216  -31.3055   21.4163 H   0  0  0  0  0  0
  -23.3748  -35.9556   23.3314 H   0  0  0  0  0  0
  -24.3568  -36.8828   22.2061 H   0  0  0  0  0  0
  -23.7163  -37.6456   23.6584 H   0  0  0  0  0  0
  -26.0994  -31.5422   20.5974 H   0  0  0  0  0  0
  -26.8645  -30.8406   21.9903 H   0  0  0  0  0  0
  -28.1395  -28.9512   21.1551 H   0  0  0  0  0  0
  -25.8455  -25.9464   19.0042 H   0  0  0  0  0  0
  -23.9296  -27.3395   19.0384 H   0  0  0  0  0  0
  -23.7975  -30.6207   19.4223 H   0  0  0  0  0  0
  -22.7590  -29.2892   19.8343 H   0  0  0  0  0  0
  -25.1249  -36.1921   25.0856 H   0  0  0  0  0  0
  -20.9971  -28.3241   24.1435 H   0  0  0  0  0  0
  -20.5715  -26.2282   23.3610 H   0  0  0  0  0  0
  -21.6632  -26.7498   22.1174 H   0  0  0  0  0  0
  -19.6866  -25.6375   21.1216 H   0  0  0  0  0  0
  -19.6660  -27.3313   20.6807 H   0  0  0  0  0  0
  -17.4195  -26.6796   21.4033 H   0  0  0  0  0  0
  -18.0274  -26.0111   22.9017 H   0  0  0  0  0  0
  -19.7926  -30.7393   24.2202 H   0  0  0  0  0  0
  -17.5006  -31.6297   24.5260 H   0  0  0  0  0  0
  -15.5362  -30.3066   23.7717 H   0  0  0  0  0  0
  -15.8651  -28.0946   22.7033 H   0  0  0  0  0  0
  -24.5878  -30.7186   25.7798 H   0  0  0  0  0  0
  -24.9115  -32.2929   26.4950 H   0  0  0  0  0  0
  -25.8179  -30.8821   27.0146 H   0  0  0  0  0  0
  -26.2829  -29.6825   24.1087 H   0  0  0  0  0  0
  -27.4040  -29.7168   25.4481 H   0  0  0  0  0  0
  -27.8703  -30.4321   23.9238 H   0  0  0  0  0  0
  -27.2672  -33.3490   26.2138 H   0  0  0  0  0  0
  -28.3829  -32.6992   25.0242 H   0  0  0  0  0  0
  -28.0827  -31.8314   26.5242 H   0  0  0  0  0  0
  -28.2551  -38.0127   24.7693 H   0  0  0  0  0  0
  -28.1119  -36.2696   24.6021 H   0  0  0  0  0  0
  -27.2350  -37.1114   25.8870 H   0  0  0  0  0  0
  -20.9428  -29.8721   21.6909 H   0  0  0  0  0  0
  -26.0093  -38.2858   24.1630 H   0  0  0  0  0  0
  -30.8503  -24.3980   20.0006 H   0  0  0  0  0  0
  -26.3284  -22.3649   20.2939 H   0  0  0  0  0  0
  -26.7184  -22.5802   22.0135 H   0  0  0  0  0  0
  -26.8689  -20.9941   21.2715 H   0  0  0  0  0  0
  -28.6533  -19.8058   22.0290 H   0  0  0  0  0  0
  -30.3404  -19.8533   21.9205 H   0  0  0  0  0  0
  -26.9406  -24.7481   20.7110 H   0  0  0  0  0  0
  -27.5213  -24.7369   19.0580 H   0  0  0  0  0  0
  -30.0512  -18.8286   19.4725 H   0  0  0  0  0  0
  -28.4808  -18.3673   20.0351 H   0  0  0  0  0  0
  -30.0132  -17.3545   22.1168 H   0  0  0  0  0  0
  -31.2568  -17.3849   20.9107 H   0  0  0  0  0  0
  -28.8089  -15.6357   20.7789 H   0  0  0  0  0  0
  1 25  1  0  0  0
  1 30  2  0  0  0
  1 81  1  0  0  0
  2  3  1  0  0  0
  2 25  1  0  0  0
  2 83  1  0  0  0
  2 84  1  0  0  0
  3  4  1  0  0  0
  3 85  1  0  0  0
  3 86  1  0  0  0
  4  5  1  0  0  0
  4 87  1  0  0  0
  4 88  1  0  0  0
  5  6  1  0  0  0
  5 26  1  0  0  0
  5 89  1  0  0  0
  6 25  1  0  0  0
  6 90  1  0  0  0
  6 91  1  0  0  0
  7  8  2  0  0  0
  7 26  1  0  0  0
  7 29  1  0  0  0
  8  9  1  0  0  0
  8 22  1  0  0  0
  9 10  1  0  0  0
  9 27  2  0  0  0
 10 11  2  0  0  0
 10 15  1  0  0  0
 11 12  1  0  0  0
 11 92  1  0  0  0
 12 13  2  0  0  0
 12 93  1  0  0  0
 13 14  1  0  0  0
 13 31  1  0  0  0
 14 15  2  0  0  0
 14 94  1  0  0  0
 15 95  1  0  0  0
 16 17  2  0  0  0
 16 21  1  0  0  0
 16 31  1  0  0  0
 17 18  1  0  0  0
 17 96  1  0  0  0
 18 19  2  0  0  0
 18 97  1  0  0  0
 19 20  1  0  0  0
 19 24  1  0  0  0
 20 21  2  0  0  0
 20 98  1  0  0  0
 21 23  1  0  0  0
 22 28  1  0  0  0
 22 32  2  0  0  0
 26 27  1  0  0  0
 28 99  1  0  0  0
 28100  1  0  0  0
 29101  1  0  0  0
 29102  1  0  0  0
 33 34  1  0  0  0
 33 66  1  0  0  0
 33 70  2  0  0  0
 34 36  1  0  0  0
 34 59  1  0  0  0
 34103  1  0  0  0
 35 44  2  0  0  0
 35 45  1  0  0  0
 35 68  1  0  0  0
 36 56  1  0  0  0
 36104  1  0  0  0
 37 39  1  0  0  0
 37 47  1  0  0  0
 37 66  1  0  0  0
 37105  1  0  0  0
 38 43  2  0  0  0
 38 46  1  0  0  0
 38 47  1  0  0  0
 39 64  1  0  0  0
 39 67  2  0  0  0
 40 52  1  0  0  0
 40 53  2  0  0  0
 40 58  1  0  0  0
 41106  1  0  0  0
 41107  1  0  0  0
 41108  1  0  0  0
 41 48  1  0  0  0
 42 43  1  0  0  0
 42 66  1  0  0  0
 42109  1  0  0  0
 42110  1  0  0  0
 43 44  1  0  0  0
 44111  1  0  0  0
 45 46  2  0  0  0
 45112  1  0  0  0
 46113  1  0  0  0
 47114  1  0  0  0
 47115  1  0  0  0
 48 56  1  0  0  0
 48 65  1  0  0  0
 48116  1  0  0  0
 49 50  1  0  0  0
 49 53  1  0  0  0
 49 64  1  0  0  0
 49117  1  0  0  0
 50 51  1  0  0  0
 50118  1  0  0  0
 50119  1  0  0  0
 51 52  1  0  0  0
 51120  1  0  0  0
 51121  1  0  0  0
 52122  1  0  0  0
 52123  1  0  0  0
 53 54  1  0  0  0
 54 55  2  0  0  0
 54124  1  0  0  0
 55 57  1  0  0  0
 55125  1  0  0  0
 56 69  2  0  0  0
 57 58  2  0  0  0
 57126  1  0  0  0
 58127  1  0  0  0
 59 60  1  0  0  0
 59 61  1  0  0  0
 59 62  1  0  0  0
 60128  1  0  0  0
 60129  1  0  0  0
 60130  1  0  0  0
 61131  1  0  0  0
 61132  1  0  0  0
 61133  1  0  0  0
 62134  1  0  0  0
 62135  1  0  0  0
 62136  1  0  0  0
 63 65  1  0  0  0
 63137  1  0  0  0
 63138  1  0  0  0
 63139  1  0  0  0
 64140  1  0  0  0
 65141  1  0  0  0
 68 77  1  0  0  0
 71 72  1  0  0  0
 71 73  2  0  0  0
 71142  1  0  0  0
 72 74  2  0  0  0
 72 82  1  0  0  0
 73 77  1  0  0  0
 73 80  1  0  0  0
 74 76  1  0  0  0
 74 80  1  0  0  0
 75 80  1  0  0  0
 75143  1  0  0  0
 75144  1  0  0  0
 75145  1  0  0  0
 76 78  1  0  0  0
 76146  1  0  0  0
 76147  1  0  0  0
 77148  1  0  0  0
 77149  1  0  0  0
 78 79  1  0  0  0
 78150  1  0  0  0
 78151  1  0  0  0
 79 81  1  0  0  0
 79152  1  0  0  0
 79153  1  0  0  0
 81154  1  0  0  0
M  ISO  4   1 100  68 101  77 101  81 100
M  END
> <chiral flag>
0

> <version>
0

> <s_m_source_file>
/data/baiqing/PycharmProjects/Reinvent-master-3.2/result/LINK_invent/BTK/process_docking_weight1_custom_sum_contain_oxygen_bond_distance_aromatic_linkinvent_7_9_3/rearranged_h_0039.sdf

> <i_m_source_file_index>
3

> <r_mmod_Potential_Energy-OPLS-2005>
185.978454589844

> <r_mmod_Stretch_Energy-OPLS-2005>
119.907920837402

> <r_mmod_Bend_Energy-OPLS-2005>
184.873550415039

> <r_mmod_Torsional_Energy-OPLS-2005>
228.642761230469

> <r_mmod_Improper_Torsional_Energy-OPLS-2005>
6.08213329315186

> <r_mmod_Van_der_Waal_Energy-OPLS-2005>
126.824028015137

> <r_mmod_Electrostatic_Energy-OPLS-2005>
-352.973541259766

> <r_mmod_Solvation_Energy-OPLS-2005>
-219.494689941406

> <b_mmod_Minimization_Converged-OPLS-2005>
0

> <r_mmod_RMS_Derivative-OPLS-2005>
5.22615432739258

$$$$
3
                    3D
 Structure written by MMmdl.
165173  0  0  1  0            999 V2000
  -30.6922  -14.5369   20.4922 C   0  0  0  0  0  0
  -30.4127  -12.3235   19.4439 C   0  0  0  0  0  0
  -29.4966  -12.4866   18.2137 C   0  0  0  0  0  0
  -28.0154  -12.3579   18.6203 C   0  0  0  0  0  0
  -27.6527  -13.2198   19.8609 C   0  0  2  0  0  0
  -28.6960  -13.0689   20.9916 C   0  0  0  0  0  0
  -25.2559  -13.8185   20.5686 C   0  0  0  0  0  0
  -24.1832  -13.0434   20.9192 C   0  0  0  0  0  0
  -24.6410  -11.6912   20.8733 C   0  0  0  0  0  0
  -23.9082  -10.4287   21.0395 C   0  0  0  0  0  0
  -24.3630   -9.4200   21.9172 C   0  0  0  0  0  0
  -23.6296   -8.2243   22.0744 C   0  0  0  0  0  0
  -22.4273   -8.0284   21.3549 C   0  0  0  0  0  0
  -21.9914   -9.0252   20.4646 C   0  0  0  0  0  0
  -22.7250  -10.2126   20.3045 C   0  0  0  0  0  0
  -21.6863   -6.0733   22.5286 C   0  0  0  0  0  0
  -21.4021   -6.5639   23.8216 C   0  0  0  0  0  0
  -21.3653   -5.6796   24.9181 C   0  0  0  0  0  0
  -21.6037   -4.3057   24.7238 C   0  0  0  0  0  0
  -21.8820   -3.8146   23.4363 C   0  0  0  0  0  0
  -21.9193   -4.6960   22.3415 C   0  0  0  0  0  0
  -22.7853  -13.5222   21.1849 C   0  0  0  0  0  0
  -22.1662   -4.2139   21.0996 F   0  0  0  0  0  0
  -21.5615   -3.4542   25.7752 F   0  0  0  0  0  0
  -30.0189  -13.3539   20.4224 N   0  0  0  0  0  0
  -26.2992  -12.9378   20.3324 N   0  0  0  0  0  0
  -25.9338  -11.6525   20.5762 N   0  0  0  0  0  0
  -22.0512  -12.8197   22.0409 N   0  0  0  0  0  0
  -25.4243  -15.1903   20.4086 N   0  0  0  0  0  0
  -31.8596  -14.6379   20.1094 O   0  0  0  0  0  0
  -21.6643   -6.8876   21.4248 O   0  0  0  0  0  0
  -22.3523  -14.5511   20.6682 O   0  0  0  0  0  0
  -24.6193  -31.8643   23.2052 C   0  0  0  0  0  0
  -25.9075  -32.4800   23.8363 C   0  0  1  0  0  0
  -27.2263  -27.3773   20.1001 C   0  0  0  0  0  0
  -25.5920  -33.8605   24.2271 N   0  0  0  0  0  0
  -23.4097  -30.4885   21.5445 C   0  0  2  0  0  0
  -24.8545  -28.9477   20.1085 C   0  0  0  0  0  0
  -22.7437  -29.4653   22.4935 C   0  0  0  0  0  0
  -18.0271  -28.1396   22.8451 C   0  0  0  0  0  0
  -24.1497  -36.7294   23.2645 C   0  0  0  0  0  0
  -25.9457  -30.8055   21.3746 C   0  0  0  0  0  0
  -26.0153  -29.4384   20.7173 C   0  0  0  0  0  0
  -27.1988  -28.6574   20.7162 C   0  0  0  0  0  0
  -26.0483  -26.9248   19.4650 C   0  0  0  0  0  0
  -24.8685  -27.6918   19.4809 C   0  0  0  0  0  0
  -23.6211  -29.8225   20.1585 C   0  0  0  0  0  0
  -25.4127  -36.3092   24.0321 C   0  0  1  0  0  0
  -20.5868  -28.3688   23.1285 C   0  0  2  0  0  0
  -20.6764  -26.9414   22.5415 C   0  0  0  0  0  0
  -19.5750  -26.6384   21.5209 C   0  0  0  0  0  0
  -18.1922  -26.7930   22.1604 C   0  0  0  0  0  0
  -19.1524  -28.8854   23.2861 C   0  0  0  0  0  0
  -18.9466  -30.1462   23.8869 C   0  0  0  0  0  0
  -17.6470  -30.6587   24.0568 C   0  0  0  0  0  0
  -25.9063  -34.9463   23.5095 C   0  0  0  0  0  0
  -16.5353  -29.9100   23.6338 C   0  0  0  0  0  0
  -16.7264  -28.6536   23.0315 C   0  0  0  0  0  0
  -26.4466  -31.6634   25.0748 C   0  0  0  0  0  0
  -25.3702  -31.3808   26.1490 C   0  0  0  0  0  0
  -27.0339  -30.3061   24.6230 C   0  0  0  0  0  0
  -27.6010  -32.4407   25.7510 C   0  0  0  0  0  0
  -27.5579  -37.1799   24.8456 C   0  0  0  0  0  0
  -21.4157  -29.3053   22.3688 N   0  0  0  0  0  0
  -26.4295  -37.3787   23.9397 N   0  0  0  0  0  0
  -24.6758  -31.0700   22.0972 N   0  0  0  0  0  0
  -23.4190  -28.8198   23.2993 O   0  0  0  0  0  0
  -28.3834  -26.6092   20.1651 O   0  0  0  0  0  0
  -26.5647  -34.8922   22.4670 O   0  0  0  0  0  0
  -23.5377  -32.1435   23.7401 O   0  0  0  0  0  0
  -30.7470  -22.4983   20.3924 C   0  0  0  0  0  0
  -29.2015  -20.7256   20.9680 C   0  0  0  0  0  0
  -29.4558  -22.1144   20.7721 C   0  0  0  0  0  0
  -31.7803  -21.5528   20.2704 C   0  0  0  0  0  0
  -30.2163  -19.7225   20.8470 C   0  0  0  0  0  0
  -31.5450  -20.1660   20.5202 C   0  0  0  0  0  0
  -33.1549  -22.1003   19.9078 C   0  0  0  0  0  0
  -33.1513  -18.6448   21.8338 C   0  0  0  0  0  0
  -28.4326  -23.2223   21.1097 C   0  0  0  0  0  0
  -29.8095  -18.2440   21.1995 C   0  0  0  0  0  0
  -32.7458  -19.2131   20.4612 C   0  0  0  0  0  0
  -27.8061  -24.0632   19.9494 C   0  0  0  0  0  0
  -30.4350  -17.0286   20.4206 C   0  0  0  0  0  0
  -28.5148  -25.3649   19.4268 C   0  0  0  0  0  0
  -29.9656  -15.6543   20.7624 N   0  0  0  0  0  0
  -31.4592  -12.4002   19.1447 H   0  0  0  0  0  0
  -30.3032  -11.3273   19.8763 H   0  0  0  0  0  0
  -29.7410  -11.7385   17.4577 H   0  0  0  0  0  0
  -29.6703  -13.4593   17.7505 H   0  0  0  0  0  0
  -27.8207  -11.3043   18.8255 H   0  0  0  0  0  0
  -27.3725  -12.6242   17.7800 H   0  0  0  0  0  0
  -27.6761  -14.2581   19.5271 H   0  0  0  0  0  0
  -28.6780  -12.0590   21.4029 H   0  0  0  0  0  0
  -28.4663  -13.7379   21.8222 H   0  0  0  0  0  0
  -25.2775   -9.5659   22.4747 H   0  0  0  0  0  0
  -23.9999   -7.4629   22.7455 H   0  0  0  0  0  0
  -21.0842   -8.8768   19.8956 H   0  0  0  0  0  0
  -22.3709  -10.9656   19.6142 H   0  0  0  0  0  0
  -21.2025   -7.6148   23.9722 H   0  0  0  0  0  0
  -21.1467   -6.0528   25.9082 H   0  0  0  0  0  0
  -22.0604   -2.7608   23.2879 H   0  0  0  0  0  0
  -22.4159  -11.9865   22.4783 H   0  0  0  0  0  0
  -21.1115  -13.1187   22.2607 H   0  0  0  0  0  0
  -24.6529  -15.8402   20.5150 H   0  0  0  0  0  0
  -26.2659  -15.6323   20.0610 H   0  0  0  0  0  0
  -26.7143  -32.5454   23.1114 H   0  0  0  0  0  0
  -25.0067  -33.9778   25.0410 H   0  0  0  0  0  0
  -22.7009  -31.3067   21.4010 H   0  0  0  0  0  0
  -23.3773  -35.9614   23.3323 H   0  0  0  0  0  0
  -24.3576  -36.8915   22.2057 H   0  0  0  0  0  0
  -23.7249  -37.6492   23.6668 H   0  0  0  0  0  0
  -26.0862  -31.5713   20.6100 H   0  0  0  0  0  0
  -26.8230  -30.8427   22.0085 H   0  0  0  0  0  0
  -28.0910  -29.0255   21.2042 H   0  0  0  0  0  0
  -26.0127  -25.9714   18.9612 H   0  0  0  0  0  0
  -23.9775  -27.3089   19.0018 H   0  0  0  0  0  0
  -23.7377  -30.5982   19.4000 H   0  0  0  0  0  0
  -22.7416  -29.2513   19.8558 H   0  0  0  0  0  0
  -25.1317  -36.1938   25.0813 H   0  0  0  0  0  0
  -20.9936  -28.3271   24.1412 H   0  0  0  0  0  0
  -20.5667  -26.2302   23.3611 H   0  0  0  0  0  0
  -21.6638  -26.7455   22.1209 H   0  0  0  0  0  0
  -19.6929  -25.6301   21.1243 H   0  0  0  0  0  0
  -19.6696  -27.3185   20.6733 H   0  0  0  0  0  0
  -17.4191  -26.6649   21.4012 H   0  0  0  0  0  0
  -18.0324  -26.0089   22.9017 H   0  0  0  0  0  0
  -19.7956  -30.7280   24.2195 H   0  0  0  0  0  0
  -17.5044  -31.6248   24.5218 H   0  0  0  0  0  0
  -15.5365  -30.3005   23.7691 H   0  0  0  0  0  0
  -15.8652  -28.0890   22.7000 H   0  0  0  0  0  0
  -24.5786  -30.7274   25.7813 H   0  0  0  0  0  0
  -24.9018  -32.3019   26.4974 H   0  0  0  0  0  0
  -25.8004  -30.8907   27.0231 H   0  0  0  0  0  0
  -26.2943  -29.6800   24.1232 H   0  0  0  0  0  0
  -27.4027  -29.7334   25.4749 H   0  0  0  0  0  0
  -27.8797  -30.4372   23.9478 H   0  0  0  0  0  0
  -27.2580  -33.3684   26.2101 H   0  0  0  0  0  0
  -28.3788  -32.7031   25.0331 H   0  0  0  0  0  0
  -28.0715  -31.8559   26.5423 H   0  0  0  0  0  0
  -28.2594  -38.0097   24.7525 H   0  0  0  0  0  0
  -28.1075  -36.2633   24.6258 H   0  0  0  0  0  0
  -27.2294  -37.1428   25.8857 H   0  0  0  0  0  0
  -20.9321  -29.8821   21.6939 H   0  0  0  0  0  0
  -26.0182  -38.2860   24.1404 H   0  0  0  0  0  0
  -30.9635  -23.5475   20.2502 H   0  0  0  0  0  0
  -28.2106  -20.4242   21.2801 H   0  0  0  0  0  0
  -33.1309  -23.1782   19.7412 H   0  0  0  0  0  0
  -33.5263  -21.6456   18.9891 H   0  0  0  0  0  0
  -33.8683  -21.9155   20.7121 H   0  0  0  0  0  0
  -34.0040  -17.9724   21.7353 H   0  0  0  0  0  0
  -32.3538  -18.0837   22.3166 H   0  0  0  0  0  0
  -33.4396  -19.4435   22.5164 H   0  0  0  0  0  0
  -28.8800  -23.8982   21.8404 H   0  0  0  0  0  0
  -27.6141  -22.7381   21.6424 H   0  0  0  0  0  0
  -28.7265  -18.1748   21.0838 H   0  0  0  0  0  0
  -29.9877  -18.1065   22.2670 H   0  0  0  0  0  0
  -33.6365  -19.6983   20.0736 H   0  0  0  0  0  0
  -32.5748  -18.4529   19.7030 H   0  0  0  0  0  0
  -26.8064  -24.3494   20.2746 H   0  0  0  0  0  0
  -27.6392  -23.3921   19.1058 H   0  0  0  0  0  0
  -31.4973  -16.9933   20.6157 H   0  0  0  0  0  0
  -30.3125  -17.1818   19.3474 H   0  0  0  0  0  0
  -28.1829  -25.5503   18.4039 H   0  0  0  0  0  0
  -29.5801  -25.1656   19.3277 H   0  0  0  0  0  0
  -29.0007  -15.5291   21.0331 H   0  0  0  0  0  0
  1 25  1  0  0  0
  1 30  2  0  0  0
  1 85  1  0  0  0
  2  3  1  0  0  0
  2 25  1  0  0  0
  2 86  1  0  0  0
  2 87  1  0  0  0
  3  4  1  0  0  0
  3 88  1  0  0  0
  3 89  1  0  0  0
  4  5  1  0  0  0
  4 90  1  0  0  0
  4 91  1  0  0  0
  5  6  1  0  0  0
  5 26  1  0  0  0
  5 92  1  0  0  0
  6 25  1  0  0  0
  6 93  1  0  0  0
  6 94  1  0  0  0
  7  8  2  0  0  0
  7 26  1  0  0  0
  7 29  1  0  0  0
  8  9  1  0  0  0
  8 22  1  0  0  0
  9 10  1  0  0  0
  9 27  2  0  0  0
 10 11  2  0  0  0
 10 15  1  0  0  0
 11 12  1  0  0  0
 11 95  1  0  0  0
 12 13  2  0  0  0
 12 96  1  0  0  0
 13 14  1  0  0  0
 13 31  1  0  0  0
 14 15  2  0  0  0
 14 97  1  0  0  0
 15 98  1  0  0  0
 16 17  2  0  0  0
 16 21  1  0  0  0
 16 31  1  0  0  0
 17 18  1  0  0  0
 17 99  1  0  0  0
 18 19  2  0  0  0
 18100  1  0  0  0
 19 20  1  0  0  0
 19 24  1  0  0  0
 20 21  2  0  0  0
 20101  1  0  0  0
 21 23  1  0  0  0
 22 28  1  0  0  0
 22 32  2  0  0  0
 26 27  1  0  0  0
 28102  1  0  0  0
 28103  1  0  0  0
 29104  1  0  0  0
 29105  1  0  0  0
 33 34  1  0  0  0
 33 66  1  0  0  0
 33 70  2  0  0  0
 34 36  1  0  0  0
 34 59  1  0  0  0
 34106  1  0  0  0
 35 44  2  0  0  0
 35 45  1  0  0  0
 35 68  1  0  0  0
 36 56  1  0  0  0
 36107  1  0  0  0
 37 39  1  0  0  0
 37 47  1  0  0  0
 37 66  1  0  0  0
 37108  1  0  0  0
 38 43  2  0  0  0
 38 46  1  0  0  0
 38 47  1  0  0  0
 39 64  1  0  0  0
 39 67  2  0  0  0
 40 52  1  0  0  0
 40 53  2  0  0  0
 40 58  1  0  0  0
 41109  1  0  0  0
 41110  1  0  0  0
 41111  1  0  0  0
 41 48  1  0  0  0
 42 43  1  0  0  0
 42 66  1  0  0  0
 42112  1  0  0  0
 42113  1  0  0  0
 43 44  1  0  0  0
 44114  1  0  0  0
 45 46  2  0  0  0
 45115  1  0  0  0
 46116  1  0  0  0
 47117  1  0  0  0
 47118  1  0  0  0
 48 56  1  0  0  0
 48 65  1  0  0  0
 48119  1  0  0  0
 49 50  1  0  0  0
 49 53  1  0  0  0
 49 64  1  0  0  0
 49120  1  0  0  0
 50 51  1  0  0  0
 50121  1  0  0  0
 50122  1  0  0  0
 51 52  1  0  0  0
 51123  1  0  0  0
 51124  1  0  0  0
 52125  1  0  0  0
 52126  1  0  0  0
 53 54  1  0  0  0
 54 55  2  0  0  0
 54127  1  0  0  0
 55 57  1  0  0  0
 55128  1  0  0  0
 56 69  2  0  0  0
 57 58  2  0  0  0
 57129  1  0  0  0
 58130  1  0  0  0
 59 60  1  0  0  0
 59 61  1  0  0  0
 59 62  1  0  0  0
 60131  1  0  0  0
 60132  1  0  0  0
 60133  1  0  0  0
 61134  1  0  0  0
 61135  1  0  0  0
 61136  1  0  0  0
 62137  1  0  0  0
 62138  1  0  0  0
 62139  1  0  0  0
 63 65  1  0  0  0
 63140  1  0  0  0
 63141  1  0  0  0
 63142  1  0  0  0
 64143  1  0  0  0
 65144  1  0  0  0
 68 84  1  0  0  0
 71 73  2  0  0  0
 71 74  1  0  0  0
 71145  1  0  0  0
 72 73  1  0  0  0
 72 75  2  0  0  0
 72146  1  0  0  0
 73 79  1  0  0  0
 74 76  2  0  0  0
 74 77  1  0  0  0
 75 76  1  0  0  0
 75 80  1  0  0  0
 76 81  1  0  0  0
 77147  1  0  0  0
 77148  1  0  0  0
 77149  1  0  0  0
 78 81  1  0  0  0
 78150  1  0  0  0
 78151  1  0  0  0
 78152  1  0  0  0
 79 82  1  0  0  0
 79153  1  0  0  0
 79154  1  0  0  0
 80 83  1  0  0  0
 80155  1  0  0  0
 80156  1  0  0  0
 81157  1  0  0  0
 81158  1  0  0  0
 82 84  1  0  0  0
 82159  1  0  0  0
 82160  1  0  0  0
 83 85  1  0  0  0
 83161  1  0  0  0
 83162  1  0  0  0
 84163  1  0  0  0
 84164  1  0  0  0
 85165  1  0  0  0
M  ISO  4   1 100  68 101  84 101  85 100
M  END
> <chiral flag>
0

> <version>
0

> <s_m_source_file>
/data/baiqing/PycharmProjects/Reinvent-master-3.2/result/LINK_invent/BTK/process_docking_weight1_custom_sum_contain_oxygen_bond_distance_aromatic_linkinvent_7_9_3/rearranged_h_0039.sdf

> <i_m_source_file_index>
4

> <r_mmod_Potential_Energy-OPLS-2005>
-5.7579402923584

> <r_mmod_Stretch_Energy-OPLS-2005>
59.8833923339844

> <r_mmod_Bend_Energy-OPLS-2005>
142.546051025391

> <r_mmod_Torsional_Energy-OPLS-2005>
205.859832763672

> <r_mmod_Improper_Torsional_Energy-OPLS-2005>
6.97550773620605

> <r_mmod_Van_der_Waal_Energy-OPLS-2005>
163.322647094727

> <r_mmod_Electrostatic_Energy-OPLS-2005>
-407.472137451172

> <r_mmod_Solvation_Energy-OPLS-2005>
-204.386596679688

> <b_mmod_Minimization_Converged-OPLS-2005>
0

> <r_mmod_RMS_Derivative-OPLS-2005>
1.997234582901

$$$$
4
                    3D
 Structure written by MMmdl.
162170  0  0  1  0            999 V2000
  -30.7579  -14.3713   20.6611 C   0  0  0  0  0  0
  -30.4211  -12.2798   19.4033 C   0  0  0  0  0  0
  -29.4892  -12.5175   18.2001 C   0  0  0  0  0  0
  -28.0118  -12.3826   18.6138 C   0  0  0  0  0  0
  -27.6699  -13.2024   19.8853 C   0  0  2  0  0  0
  -28.7073  -12.9394   21.0005 C   0  0  0  0  0  0
  -25.2611  -13.8163   20.5680 C   0  0  0  0  0  0
  -24.1845  -13.0443   20.9164 C   0  0  0  0  0  0
  -24.6389  -11.6909   20.8718 C   0  0  0  0  0  0
  -23.9049  -10.4295   21.0391 C   0  0  0  0  0  0
  -24.3600   -9.4217   21.9179 C   0  0  0  0  0  0
  -23.6282   -8.2249   22.0753 C   0  0  0  0  0  0
  -22.4269   -8.0279   21.3540 C   0  0  0  0  0  0
  -21.9903   -9.0244   20.4634 C   0  0  0  0  0  0
  -22.7222  -10.2131   20.3042 C   0  0  0  0  0  0
  -21.6850   -6.0729   22.5275 C   0  0  0  0  0  0
  -21.4010   -6.5633   23.8211 C   0  0  0  0  0  0
  -21.3659   -5.6789   24.9174 C   0  0  0  0  0  0
  -21.6045   -4.3049   24.7228 C   0  0  0  0  0  0
  -21.8823   -3.8142   23.4348 C   0  0  0  0  0  0
  -21.9193   -4.6956   22.3405 C   0  0  0  0  0  0
  -22.7864  -13.5243   21.1836 C   0  0  0  0  0  0
  -22.1662   -4.2141   21.0979 F   0  0  0  0  0  0
  -21.5632   -3.4539   25.7744 F   0  0  0  0  0  0
  -30.0532  -13.2267   20.4651 N   0  0  0  0  0  0
  -26.3054  -12.9332   20.3405 N   0  0  0  0  0  0
  -25.9320  -11.6488   20.5762 N   0  0  0  0  0  0
  -22.0495  -12.8222   22.0375 N   0  0  0  0  0  0
  -25.4346  -15.1881   20.4103 N   0  0  0  0  0  0
  -31.7891  -14.6528   20.0439 O   0  0  0  0  0  0
  -21.6635   -6.8871   21.4239 O   0  0  0  0  0  0
  -22.3550  -14.5555   20.6699 O   0  0  0  0  0  0
  -24.6105  -31.8713   23.2129 C   0  0  0  0  0  0
  -25.9028  -32.4830   23.8410 C   0  0  1  0  0  0
  -27.2428  -27.4715   20.0767 C   0  0  0  0  0  0
  -25.5909  -33.8628   24.2335 N   0  0  0  0  0  0
  -23.3945  -30.4948   21.5529 C   0  0  2  0  0  0
  -24.8419  -28.9615   20.1184 C   0  0  0  0  0  0
  -22.7366  -29.4687   22.5017 C   0  0  0  0  0  0
  -18.0267  -28.1376   22.8520 C   0  0  0  0  0  0
  -24.1482  -36.7306   23.2638 C   0  0  0  0  0  0
  -25.9198  -30.8438   21.3617 C   0  0  0  0  0  0
  -25.9976  -29.4773   20.7170 C   0  0  0  0  0  0
  -27.1955  -28.7322   20.7089 C   0  0  0  0  0  0
  -26.0634  -26.9539   19.4961 C   0  0  0  0  0  0
  -24.8661  -27.6925   19.5148 C   0  0  0  0  0  0
  -23.6002  -29.8225   20.1687 C   0  0  0  0  0  0
  -25.4107  -36.3102   24.0325 C   0  0  1  0  0  0
  -20.5849  -28.3665   23.1337 C   0  0  2  0  0  0
  -20.6752  -26.9403   22.5431 C   0  0  0  0  0  0
  -19.5726  -26.6388   21.5223 C   0  0  0  0  0  0
  -18.1904  -26.7932   22.1629 C   0  0  0  0  0  0
  -19.1517  -28.8833   23.2931 C   0  0  0  0  0  0
  -18.9444  -30.1440   23.8937 C   0  0  0  0  0  0
  -17.6450  -30.6587   24.0582 C   0  0  0  0  0  0
  -25.9041  -34.9477   23.5121 C   0  0  0  0  0  0
  -16.5344  -29.9088   23.6332 C   0  0  0  0  0  0
  -16.7262  -28.6502   23.0367 C   0  0  0  0  0  0
  -26.4469  -31.6600   25.0731 C   0  0  0  0  0  0
  -25.3740  -31.3675   26.1478 C   0  0  0  0  0  0
  -27.0286  -30.3052   24.6071 C   0  0  0  0  0  0
  -27.6060  -32.4310   25.7487 C   0  0  0  0  0  0
  -27.5568  -37.1807   24.8463 C   0  0  0  0  0  0
  -21.4101  -29.3042   22.3745 N   0  0  0  0  0  0
  -26.4288  -37.3788   23.9404 N   0  0  0  0  0  0
  -24.6593  -31.0834   22.1020 N   0  0  0  0  0  0
  -23.4149  -28.8234   23.3055 O   0  0  0  0  0  0
  -28.4380  -26.7896   20.0543 O   0  0  0  0  0  0
  -26.5594  -34.8916   22.4674 O   0  0  0  0  0  0
  -23.5316  -32.1470   23.7550 O   0  0  0  0  0  0
  -27.7157  -21.9507   18.6126 C   0  0  0  0  0  0
  -27.5149  -24.2298   17.7736 C   0  0  0  0  0  0
  -28.9785  -23.7508   19.6618 C   0  0  0  0  0  0
  -27.1533  -22.8716   17.7053 C   0  0  0  0  0  0
  -28.6476  -22.3802   19.5869 C   0  0  0  0  0  0
  -28.4111  -24.6788   18.7644 C   0  0  0  0  0  0
  -26.1634  -22.4133   16.6531 C   0  0  0  0  0  0
  -29.3097  -21.4097   20.5631 C   0  0  0  0  0  0
  -28.8021  -26.1465   18.8324 C   0  0  0  0  0  0
  -29.2045  -19.9164   20.1960 C   0  0  0  0  0  0
  -29.9962  -19.0117   21.1550 C   0  0  0  0  0  0
  -29.8144  -17.5200   20.8359 C   0  0  0  0  0  0
  -30.6225  -16.5997   21.7678 C   0  0  0  0  0  0
  -30.2339  -15.2083   21.5624 N   0  0  0  0  0  0
  -31.4642  -12.3821   19.0972 H   0  0  0  0  0  0
  -30.3205  -11.2574   19.7719 H   0  0  0  0  0  0
  -29.7180  -11.8089   17.4034 H   0  0  0  0  0  0
  -29.6677  -13.5115   17.7874 H   0  0  0  0  0  0
  -27.8119  -11.3251   18.7915 H   0  0  0  0  0  0
  -27.3623  -12.6808   17.7904 H   0  0  0  0  0  0
  -27.7310  -14.2568   19.6159 H   0  0  0  0  0  0
  -28.6660  -11.8964   21.3172 H   0  0  0  0  0  0
  -28.4555  -13.5155   21.8910 H   0  0  0  0  0  0
  -25.2742   -9.5704   22.4753 H   0  0  0  0  0  0
  -23.9991   -7.4654   22.7485 H   0  0  0  0  0  0
  -21.0838   -8.8755   19.8936 H   0  0  0  0  0  0
  -22.3676  -10.9664   19.6146 H   0  0  0  0  0  0
  -21.1997   -7.6140   23.9713 H   0  0  0  0  0  0
  -21.1476   -6.0516   25.9078 H   0  0  0  0  0  0
  -22.0602   -2.7603   23.2857 H   0  0  0  0  0  0
  -22.4087  -11.9864   22.4742 H   0  0  0  0  0  0
  -21.1107  -13.1240   22.2572 H   0  0  0  0  0  0
  -24.6730  -15.8488   20.5182 H   0  0  0  0  0  0
  -26.2998  -15.6261   20.1182 H   0  0  0  0  0  0
  -26.7108  -32.5556   23.1186 H   0  0  0  0  0  0
  -25.0065  -33.9808   25.0481 H   0  0  0  0  0  0
  -22.6821  -31.3106   21.4141 H   0  0  0  0  0  0
  -23.3744  -35.9641   23.3316 H   0  0  0  0  0  0
  -24.3572  -36.8920   22.2051 H   0  0  0  0  0  0
  -23.7248  -37.6513   23.6659 H   0  0  0  0  0  0
  -26.0234  -31.6068   20.5890 H   0  0  0  0  0  0
  -26.8117  -30.9049   21.9736 H   0  0  0  0  0  0
  -28.0874  -29.1332   21.1694 H   0  0  0  0  0  0
  -26.0502  -25.9781   19.0397 H   0  0  0  0  0  0
  -23.9738  -27.2789   19.0654 H   0  0  0  0  0  0
  -23.6973  -30.5940   19.4043 H   0  0  0  0  0  0
  -22.7256  -29.2359   19.8810 H   0  0  0  0  0  0
  -25.1282  -36.1959   25.0816 H   0  0  0  0  0  0
  -20.9958  -28.3245   24.1453 H   0  0  0  0  0  0
  -20.5666  -26.2272   23.3611 H   0  0  0  0  0  0
  -21.6625  -26.7445   22.1230 H   0  0  0  0  0  0
  -19.6894  -25.6308   21.1225 H   0  0  0  0  0  0
  -19.6655  -27.3219   20.6773 H   0  0  0  0  0  0
  -17.4174  -26.6739   21.4019 H   0  0  0  0  0  0
  -18.0274  -26.0049   22.8988 H   0  0  0  0  0  0
  -19.7915  -30.7260   24.2325 H   0  0  0  0  0  0
  -17.4995  -31.6262   24.5185 H   0  0  0  0  0  0
  -15.5346  -30.2999   23.7621 H   0  0  0  0  0  0
  -15.8667  -28.0818   22.7078 H   0  0  0  0  0  0
  -24.5952  -30.6970   25.7817 H   0  0  0  0  0  0
  -24.8871  -32.2799   26.4924 H   0  0  0  0  0  0
  -25.8114  -30.8863   27.0232 H   0  0  0  0  0  0
  -26.2811  -29.6825   24.1138 H   0  0  0  0  0  0
  -27.4091  -29.7269   25.4502 H   0  0  0  0  0  0
  -27.8624  -30.4388   23.9177 H   0  0  0  0  0  0
  -27.2738  -33.3652   26.2026 H   0  0  0  0  0  0
  -28.3896  -32.6800   25.0316 H   0  0  0  0  0  0
  -28.0689  -31.8440   26.5431 H   0  0  0  0  0  0
  -28.2591  -38.0094   24.7492 H   0  0  0  0  0  0
  -28.1052  -36.2622   24.6312 H   0  0  0  0  0  0
  -27.2275  -37.1498   25.8863 H   0  0  0  0  0  0
  -20.9246  -29.8763   21.6977 H   0  0  0  0  0  0
  -26.0165  -38.2858   24.1412 H   0  0  0  0  0  0
  -27.4286  -20.9126   18.5394 H   0  0  0  0  0  0
  -27.0905  -24.9316   17.0694 H   0  0  0  0  0  0
  -29.6834  -24.0989   20.4055 H   0  0  0  0  0  0
  -26.0355  -21.3302   16.6622 H   0  0  0  0  0  0
  -26.5013  -22.7064   15.6583 H   0  0  0  0  0  0
  -25.1883  -22.8689   16.8275 H   0  0  0  0  0  0
  -28.8823  -21.5721   21.5532 H   0  0  0  0  0  0
  -30.3644  -21.6795   20.6381 H   0  0  0  0  0  0
  -28.4123  -26.6922   17.9713 H   0  0  0  0  0  0
  -29.8877  -26.2043   18.7455 H   0  0  0  0  0  0
  -29.5742  -19.7634   19.1807 H   0  0  0  0  0  0
  -28.1579  -19.6087   20.2024 H   0  0  0  0  0  0
  -29.6723  -19.1994   22.1801 H   0  0  0  0  0  0
  -31.0555  -19.2689   21.1120 H   0  0  0  0  0  0
  -30.1087  -17.3298   19.8020 H   0  0  0  0  0  0
  -28.7545  -17.2692   20.9053 H   0  0  0  0  0  0
  -30.4335  -16.8555   22.8110 H   0  0  0  0  0  0
  -31.6937  -16.7378   21.6049 H   0  0  0  0  0  0
  -29.4240  -14.8746   22.0646 H   0  0  0  0  0  0
  1 25  1  0  0  0
  1 30  2  0  0  0
  1 84  1  0  0  0
  2  3  1  0  0  0
  2 25  1  0  0  0
  2 85  1  0  0  0
  2 86  1  0  0  0
  3  4  1  0  0  0
  3 87  1  0  0  0
  3 88  1  0  0  0
  4  5  1  0  0  0
  4 89  1  0  0  0
  4 90  1  0  0  0
  5  6  1  0  0  0
  5 26  1  0  0  0
  5 91  1  0  0  0
  6 25  1  0  0  0
  6 92  1  0  0  0
  6 93  1  0  0  0
  7  8  2  0  0  0
  7 26  1  0  0  0
  7 29  1  0  0  0
  8  9  1  0  0  0
  8 22  1  0  0  0
  9 10  1  0  0  0
  9 27  2  0  0  0
 10 11  2  0  0  0
 10 15  1  0  0  0
 11 12  1  0  0  0
 11 94  1  0  0  0
 12 13  2  0  0  0
 12 95  1  0  0  0
 13 14  1  0  0  0
 13 31  1  0  0  0
 14 15  2  0  0  0
 14 96  1  0  0  0
 15 97  1  0  0  0
 16 17  2  0  0  0
 16 21  1  0  0  0
 16 31  1  0  0  0
 17 18  1  0  0  0
 17 98  1  0  0  0
 18 19  2  0  0  0
 18 99  1  0  0  0
 19 20  1  0  0  0
 19 24  1  0  0  0
 20 21  2  0  0  0
 20100  1  0  0  0
 21 23  1  0  0  0
 22 28  1  0  0  0
 22 32  2  0  0  0
 26 27  1  0  0  0
 28101  1  0  0  0
 28102  1  0  0  0
 29103  1  0  0  0
 29104  1  0  0  0
 33 34  1  0  0  0
 33 66  1  0  0  0
 33 70  2  0  0  0
 34 36  1  0  0  0
 34 59  1  0  0  0
 34105  1  0  0  0
 35 44  2  0  0  0
 35 45  1  0  0  0
 35 68  1  0  0  0
 36 56  1  0  0  0
 36106  1  0  0  0
 37 39  1  0  0  0
 37 47  1  0  0  0
 37 66  1  0  0  0
 37107  1  0  0  0
 38 43  2  0  0  0
 38 46  1  0  0  0
 38 47  1  0  0  0
 39 64  1  0  0  0
 39 67  2  0  0  0
 40 52  1  0  0  0
 40 53  2  0  0  0
 40 58  1  0  0  0
 41108  1  0  0  0
 41109  1  0  0  0
 41110  1  0  0  0
 41 48  1  0  0  0
 42 43  1  0  0  0
 42 66  1  0  0  0
 42111  1  0  0  0
 42112  1  0  0  0
 43 44  1  0  0  0
 44113  1  0  0  0
 45 46  2  0  0  0
 45114  1  0  0  0
 46115  1  0  0  0
 47116  1  0  0  0
 47117  1  0  0  0
 48 56  1  0  0  0
 48 65  1  0  0  0
 48118  1  0  0  0
 49 50  1  0  0  0
 49 53  1  0  0  0
 49 64  1  0  0  0
 49119  1  0  0  0
 50 51  1  0  0  0
 50120  1  0  0  0
 50121  1  0  0  0
 51 52  1  0  0  0
 51122  1  0  0  0
 51123  1  0  0  0
 52124  1  0  0  0
 52125  1  0  0  0
 53 54  1  0  0  0
 54 55  2  0  0  0
 54126  1  0  0  0
 55 57  1  0  0  0
 55127  1  0  0  0
 56 69  2  0  0  0
 57 58  2  0  0  0
 57128  1  0  0  0
 58129  1  0  0  0
 59 60  1  0  0  0
 59 61  1  0  0  0
 59 62  1  0  0  0
 60130  1  0  0  0
 60131  1  0  0  0
 60132  1  0  0  0
 61133  1  0  0  0
 61134  1  0  0  0
 61135  1  0  0  0
 62136  1  0  0  0
 62137  1  0  0  0
 62138  1  0  0  0
 63 65  1  0  0  0
 63139  1  0  0  0
 63140  1  0  0  0
 63141  1  0  0  0
 64142  1  0  0  0
 65143  1  0  0  0
 68 79  1  0  0  0
 71 74  2  0  0  0
 71 75  1  0  0  0
 71144  1  0  0  0
 72 74  1  0  0  0
 72 76  2  0  0  0
 72145  1  0  0  0
 73 75  2  0  0  0
 73 76  1  0  0  0
 73146  1  0  0  0
 74 77  1  0  0  0
 75 78  1  0  0  0
 76 79  1  0  0  0
 77147  1  0  0  0
 77148  1  0  0  0
 77149  1  0  0  0
 78 80  1  0  0  0
 78150  1  0  0  0
 78151  1  0  0  0
 79152  1  0  0  0
 79153  1  0  0  0
 80 81  1  0  0  0
 80154  1  0  0  0
 80155  1  0  0  0
 81 82  1  0  0  0
 81156  1  0  0  0
 81157  1  0  0  0
 82 83  1  0  0  0
 82158  1  0  0  0
 82159  1  0  0  0
 83 84  1  0  0  0
 83160  1  0  0  0
 83161  1  0  0  0
 84162  1  0  0  0
M  ISO  4   1 100  68 101  79 101  84 100
M  END
> <chiral flag>
0

> <version>
0

> <s_m_source_file>
/data/baiqing/PycharmProjects/Reinvent-master-3.2/result/LINK_invent/BTK/process_docking_weight1_custom_sum_contain_oxygen_bond_distance_aromatic_linkinvent_7_9_3/rearranged_h_0039.sdf

> <i_m_source_file_index>
5

> <r_mmod_Potential_Energy-OPLS-2005>
-71.9901275634766

> <r_mmod_Stretch_Energy-OPLS-2005>
31.7155227661133

> <r_mmod_Bend_Energy-OPLS-2005>
87.3196868896484

> <r_mmod_Torsional_Energy-OPLS-2005>
207.061767578125

> <r_mmod_Improper_Torsional_Energy-OPLS-2005>
2.02982115745544

> <r_mmod_Van_der_Waal_Energy-OPLS-2005>
153.513793945312

> <r_mmod_Electrostatic_Energy-OPLS-2005>
-358.313354492188

> <r_mmod_Solvation_Energy-OPLS-2005>
-202.100311279297

> <b_mmod_Minimization_Converged-OPLS-2005>
0

> <r_mmod_RMS_Derivative-OPLS-2005>
1.60397148132324

$$$$
5
                    3D
 Structure written by MMmdl.
162170  0  0  1  0            999 V2000
  -30.7193  -14.4061   20.6442 C   0  0  0  0  0  0
  -30.4314  -12.2880   19.4126 C   0  0  0  0  0  0
  -29.5011  -12.5244   18.2047 C   0  0  0  0  0  0
  -28.0192  -12.3916   18.6104 C   0  0  0  0  0  0
  -27.6738  -13.2008   19.8896 C   0  0  2  0  0  0
  -28.7100  -12.9249   21.0026 C   0  0  0  0  0  0
  -25.2643  -13.8154   20.5673 C   0  0  0  0  0  0
  -24.1873  -13.0444   20.9151 C   0  0  0  0  0  0
  -24.6412  -11.6905   20.8708 C   0  0  0  0  0  0
  -23.9070  -10.4295   21.0385 C   0  0  0  0  0  0
  -24.3617   -9.4214   21.9172 C   0  0  0  0  0  0
  -23.6293   -8.2251   22.0753 C   0  0  0  0  0  0
  -22.4273   -8.0282   21.3544 C   0  0  0  0  0  0
  -21.9904   -9.0263   20.4650 C   0  0  0  0  0  0
  -22.7234  -10.2140   20.3049 C   0  0  0  0  0  0
  -21.6860   -6.0730   22.5282 C   0  0  0  0  0  0
  -21.4015   -6.5633   23.8212 C   0  0  0  0  0  0
  -21.3656   -5.6786   24.9176 C   0  0  0  0  0  0
  -21.6046   -4.3052   24.7225 C   0  0  0  0  0  0
  -21.8819   -3.8139   23.4349 C   0  0  0  0  0  0
  -21.9192   -4.6958   22.3401 C   0  0  0  0  0  0
  -22.7895  -13.5257   21.1807 C   0  0  0  0  0  0
  -22.1664   -4.2139   21.0984 F   0  0  0  0  0  0
  -21.5625   -3.4538   25.7741 F   0  0  0  0  0  0
  -30.0529  -13.2333   20.4726 N   0  0  0  0  0  0
  -26.3093  -12.9317   20.3412 N   0  0  0  0  0  0
  -25.9347  -11.6480   20.5763 N   0  0  0  0  0  0
  -22.0523  -12.8270   22.0372 N   0  0  0  0  0  0
  -25.4405  -15.1866   20.4090 N   0  0  0  0  0  0
  -31.7677  -14.6852   20.0556 O   0  0  0  0  0  0
  -21.6639   -6.8880   21.4244 O   0  0  0  0  0  0
  -22.3591  -14.5558   20.6638 O   0  0  0  0  0  0
  -24.6121  -31.8692   23.2096 C   0  0  0  0  0  0
  -25.9035  -32.4828   23.8388 C   0  0  1  0  0  0
  -27.2496  -27.4580   20.0953 C   0  0  0  0  0  0
  -25.5899  -33.8628   24.2325 N   0  0  0  0  0  0
  -23.3976  -30.4931   21.5479 C   0  0  2  0  0  0
  -24.8442  -28.9495   20.1235 C   0  0  0  0  0  0
  -22.7373  -29.4701   22.4994 C   0  0  0  0  0  0
  -18.0273  -28.1395   22.8506 C   0  0  0  0  0  0
  -24.1483  -36.7320   23.2643 C   0  0  0  0  0  0
  -25.9224  -30.8435   21.3551 C   0  0  0  0  0  0
  -26.0009  -29.4756   20.7096 C   0  0  0  0  0  0
  -27.2019  -28.7383   20.6881 C   0  0  0  0  0  0
  -26.0711  -26.9305   19.5184 C   0  0  0  0  0  0
  -24.8734  -27.6739   19.5290 C   0  0  0  0  0  0
  -23.6040  -29.8138   20.1668 C   0  0  0  0  0  0
  -25.4102  -36.3114   24.0342 C   0  0  1  0  0  0
  -20.5861  -28.3672   23.1325 C   0  0  2  0  0  0
  -20.6760  -26.9412   22.5419 C   0  0  0  0  0  0
  -19.5746  -26.6398   21.5208 C   0  0  0  0  0  0
  -18.1923  -26.7946   22.1622 C   0  0  0  0  0  0
  -19.1525  -28.8848   23.2920 C   0  0  0  0  0  0
  -18.9451  -30.1457   23.8924 C   0  0  0  0  0  0
  -17.6454  -30.6597   24.0581 C   0  0  0  0  0  0
  -25.9032  -34.9482   23.5126 C   0  0  0  0  0  0
  -16.5347  -29.9104   23.6334 C   0  0  0  0  0  0
  -16.7262  -28.6525   23.0351 C   0  0  0  0  0  0
  -26.4470  -31.6616   25.0711 C   0  0  0  0  0  0
  -25.3743  -31.3732   26.1467 C   0  0  0  0  0  0
  -27.0300  -30.3061   24.6084 C   0  0  0  0  0  0
  -27.6045  -32.4334   25.7469 C   0  0  0  0  0  0
  -27.5577  -37.1810   24.8462 C   0  0  0  0  0  0
  -21.4106  -29.3047   22.3715 N   0  0  0  0  0  0
  -26.4288  -37.3800   23.9418 N   0  0  0  0  0  0
  -24.6622  -31.0837   22.0959 N   0  0  0  0  0  0
  -23.4151  -28.8251   23.3039 O   0  0  0  0  0  0
  -28.4692  -26.8218   20.0455 O   0  0  0  0  0  0
  -26.5584  -34.8935   22.4680 O   0  0  0  0  0  0
  -23.5325  -32.1418   23.7521 O   0  0  0  0  0  0
  -28.7474  -21.1724   22.1066 C   0  0  0  0  0  0
  -30.3773  -23.4357   22.3580 C   0  0  0  0  0  0
  -28.2211  -22.4458   21.7979 C   0  0  0  0  0  0
  -30.0767  -21.0189   22.5534 C   0  0  0  0  0  0
  -29.0385  -23.5953   21.9328 C   0  0  0  0  0  0
  -30.8987  -22.1633   22.6706 C   0  0  0  0  0  0
  -26.7782  -22.5506   21.3353 C   0  0  0  0  0  0
  -30.5756  -19.6237   22.9191 C   0  0  0  0  0  0
  -28.5097  -25.0028   21.6569 C   0  0  0  0  0  0
  -31.3806  -18.9421   21.7930 C   0  0  0  0  0  0
  -31.4291  -17.4014   21.9047 C   0  0  0  0  0  0
  -30.1486  -16.7464   21.3441 C   0  0  0  0  0  0
  -28.5542  -25.4024   20.1720 C   0  0  0  0  0  0
  -30.0902  -15.2864   21.4357 N   0  0  0  0  0  0
  -32.5414  -22.0391   23.1963 Cl  0  0  0  0  0  0
  -31.4772  -12.3916   19.1163 H   0  0  0  0  0  0
  -30.3317  -11.2646   19.7782 H   0  0  0  0  0  0
  -29.7356  -11.8172   17.4086 H   0  0  0  0  0  0
  -29.6811  -13.5205   17.7951 H   0  0  0  0  0  0
  -27.8119  -11.3334   18.7737 H   0  0  0  0  0  0
  -27.3764  -12.7037   17.7854 H   0  0  0  0  0  0
  -27.7375  -14.2581   19.6315 H   0  0  0  0  0  0
  -28.6762  -11.8739   21.2933 H   0  0  0  0  0  0
  -28.4619  -13.4752   21.9113 H   0  0  0  0  0  0
  -25.2765   -9.5684   22.4747 H   0  0  0  0  0  0
  -23.9996   -7.4639   22.7475 H   0  0  0  0  0  0
  -21.0830   -8.8784   19.8966 H   0  0  0  0  0  0
  -22.3691  -10.9678   19.6152 H   0  0  0  0  0  0
  -21.2015   -7.6141   23.9715 H   0  0  0  0  0  0
  -21.1479   -6.0518   25.9080 H   0  0  0  0  0  0
  -22.0603   -2.7603   23.2855 H   0  0  0  0  0  0
  -22.4120  -11.9940   22.4784 H   0  0  0  0  0  0
  -21.1146  -13.1314   22.2555 H   0  0  0  0  0  0
  -24.6815  -15.8509   20.5170 H   0  0  0  0  0  0
  -26.3038  -15.6194   20.1046 H   0  0  0  0  0  0
  -26.7113  -32.5548   23.1164 H   0  0  0  0  0  0
  -25.0062  -33.9776   25.0476 H   0  0  0  0  0  0
  -22.6869  -31.3097   21.4054 H   0  0  0  0  0  0
  -23.3728  -35.9668   23.3317 H   0  0  0  0  0  0
  -24.3574  -36.8915   22.2054 H   0  0  0  0  0  0
  -23.7240  -37.6533   23.6642 H   0  0  0  0  0  0
  -26.0279  -31.6086   20.5843 H   0  0  0  0  0  0
  -26.8136  -30.9017   21.9686 H   0  0  0  0  0  0
  -28.1008  -29.1537   21.1223 H   0  0  0  0  0  0
  -26.0667  -25.9650   19.0353 H   0  0  0  0  0  0
  -23.9824  -27.2624   19.0741 H   0  0  0  0  0  0
  -23.7097  -30.5824   19.4004 H   0  0  0  0  0  0
  -22.7284  -29.2313   19.8744 H   0  0  0  0  0  0
  -25.1282  -36.1978   25.0833 H   0  0  0  0  0  0
  -20.9982  -28.3250   24.1433 H   0  0  0  0  0  0
  -20.5652  -26.2281   23.3600 H   0  0  0  0  0  0
  -21.6630  -26.7451   22.1219 H   0  0  0  0  0  0
  -19.6891  -25.6304   21.1243 H   0  0  0  0  0  0
  -19.6698  -27.3199   20.6731 H   0  0  0  0  0  0
  -17.4189  -26.6716   21.4022 H   0  0  0  0  0  0
  -18.0331  -26.0073   22.9008 H   0  0  0  0  0  0
  -19.7924  -30.7291   24.2276 H   0  0  0  0  0  0
  -17.5008  -31.6274   24.5192 H   0  0  0  0  0  0
  -15.5352  -30.3023   23.7637 H   0  0  0  0  0  0
  -15.8665  -28.0862   22.7039 H   0  0  0  0  0  0
  -24.5894  -30.7108   25.7811 H   0  0  0  0  0  0
  -24.8964  -32.2900   26.4935 H   0  0  0  0  0  0
  -25.8104  -30.8884   27.0208 H   0  0  0  0  0  0
  -26.2840  -29.6814   24.1157 H   0  0  0  0  0  0
  -27.4087  -29.7320   25.4549 H   0  0  0  0  0  0
  -27.8669  -30.4387   23.9220 H   0  0  0  0  0  0
  -27.2662  -33.3611   26.2096 H   0  0  0  0  0  0
  -28.3834  -32.6925   25.0288 H   0  0  0  0  0  0
  -28.0740  -31.8427   26.5344 H   0  0  0  0  0  0
  -28.2609  -38.0095   24.7502 H   0  0  0  0  0  0
  -28.1059  -36.2626   24.6299 H   0  0  0  0  0  0
  -27.2301  -37.1479   25.8868 H   0  0  0  0  0  0
  -20.9237  -29.8757   21.6942 H   0  0  0  0  0  0
  -26.0174  -38.2878   24.1415 H   0  0  0  0  0  0
  -28.1205  -20.2959   22.0112 H   0  0  0  0  0  0
  -31.0196  -24.2990   22.4615 H   0  0  0  0  0  0
  -26.2896  -21.5760   21.3362 H   0  0  0  0  0  0
  -26.7247  -22.9413   20.3195 H   0  0  0  0  0  0
  -26.2053  -23.2072   21.9907 H   0  0  0  0  0  0
  -29.7079  -19.0175   23.1782 H   0  0  0  0  0  0
  -31.1717  -19.6684   23.8320 H   0  0  0  0  0  0
  -29.1145  -25.7108   22.2251 H   0  0  0  0  0  0
  -27.4976  -25.1113   22.0447 H   0  0  0  0  0  0
  -32.3930  -19.3475   21.7887 H   0  0  0  0  0  0
  -30.9551  -19.2067   20.8237 H   0  0  0  0  0  0
  -31.5962  -17.1078   22.9425 H   0  0  0  0  0  0
  -32.2901  -17.0399   21.3405 H   0  0  0  0  0  0
  -30.0098  -17.0359   20.3008 H   0  0  0  0  0  0
  -29.2786  -17.1318   21.8759 H   0  0  0  0  0  0
  -27.8208  -24.8600   19.5794 H   0  0  0  0  0  0
  -29.5273  -25.1212   19.7677 H   0  0  0  0  0  0
  -29.2838  -14.9111   21.9131 H   0  0  0  0  0  0
  1 25  1  0  0  0
  1 30  2  0  0  0
  1 84  1  0  0  0
  2  3  1  0  0  0
  2 25  1  0  0  0
  2 86  1  0  0  0
  2 87  1  0  0  0
  3  4  1  0  0  0
  3 88  1  0  0  0
  3 89  1  0  0  0
  4  5  1  0  0  0
  4 90  1  0  0  0
  4 91  1  0  0  0
  5  6  1  0  0  0
  5 26  1  0  0  0
  5 92  1  0  0  0
  6 25  1  0  0  0
  6 93  1  0  0  0
  6 94  1  0  0  0
  7  8  2  0  0  0
  7 26  1  0  0  0
  7 29  1  0  0  0
  8  9  1  0  0  0
  8 22  1  0  0  0
  9 10  1  0  0  0
  9 27  2  0  0  0
 10 11  2  0  0  0
 10 15  1  0  0  0
 11 12  1  0  0  0
 11 95  1  0  0  0
 12 13  2  0  0  0
 12 96  1  0  0  0
 13 14  1  0  0  0
 13 31  1  0  0  0
 14 15  2  0  0  0
 14 97  1  0  0  0
 15 98  1  0  0  0
 16 17  2  0  0  0
 16 21  1  0  0  0
 16 31  1  0  0  0
 17 18  1  0  0  0
 17 99  1  0  0  0
 18 19  2  0  0  0
 18100  1  0  0  0
 19 20  1  0  0  0
 19 24  1  0  0  0
 20 21  2  0  0  0
 20101  1  0  0  0
 21 23  1  0  0  0
 22 28  1  0  0  0
 22 32  2  0  0  0
 26 27  1  0  0  0
 28102  1  0  0  0
 28103  1  0  0  0
 29104  1  0  0  0
 29105  1  0  0  0
 33 34  1  0  0  0
 33 66  1  0  0  0
 33 70  2  0  0  0
 34 36  1  0  0  0
 34 59  1  0  0  0
 34106  1  0  0  0
 35 44  2  0  0  0
 35 45  1  0  0  0
 35 68  1  0  0  0
 36 56  1  0  0  0
 36107  1  0  0  0
 37 39  1  0  0  0
 37 47  1  0  0  0
 37 66  1  0  0  0
 37108  1  0  0  0
 38 43  2  0  0  0
 38 46  1  0  0  0
 38 47  1  0  0  0
 39 64  1  0  0  0
 39 67  2  0  0  0
 40 52  1  0  0  0
 40 53  2  0  0  0
 40 58  1  0  0  0
 41109  1  0  0  0
 41110  1  0  0  0
 41111  1  0  0  0
 41 48  1  0  0  0
 42 43  1  0  0  0
 42 66  1  0  0  0
 42112  1  0  0  0
 42113  1  0  0  0
 43 44  1  0  0  0
 44114  1  0  0  0
 45 46  2  0  0  0
 45115  1  0  0  0
 46116  1  0  0  0
 47117  1  0  0  0
 47118  1  0  0  0
 48 56  1  0  0  0
 48 65  1  0  0  0
 48119  1  0  0  0
 49 50  1  0  0  0
 49 53  1  0  0  0
 49 64  1  0  0  0
 49120  1  0  0  0
 50 51  1  0  0  0
 50121  1  0  0  0
 50122  1  0  0  0
 51 52  1  0  0  0
 51123  1  0  0  0
 51124  1  0  0  0
 52125  1  0  0  0
 52126  1  0  0  0
 53 54  1  0  0  0
 54 55  2  0  0  0
 54127  1  0  0  0
 55 57  1  0  0  0
 55128  1  0  0  0
 56 69  2  0  0  0
 57 58  2  0  0  0
 57129  1  0  0  0
 58130  1  0  0  0
 59 60  1  0  0  0
 59 61  1  0  0  0
 59 62  1  0  0  0
 60131  1  0  0  0
 60132  1  0  0  0
 60133  1  0  0  0
 61134  1  0  0  0
 61135  1  0  0  0
 61136  1  0  0  0
 62137  1  0  0  0
 62138  1  0  0  0
 62139  1  0  0  0
 63 65  1  0  0  0
 63140  1  0  0  0
 63141  1  0  0  0
 63142  1  0  0  0
 64143  1  0  0  0
 65144  1  0  0  0
 68 83  1  0  0  0
 71 73  2  0  0  0
 71 74  1  0  0  0
 71145  1  0  0  0
 72 75  2  0  0  0
 72 76  1  0  0  0
 72146  1  0  0  0
 73 75  1  0  0  0
 73 77  1  0  0  0
 74 76  2  0  0  0
 74 78  1  0  0  0
 75 79  1  0  0  0
 76 85  1  0  0  0
 77147  1  0  0  0
 77148  1  0  0  0
 77149  1  0  0  0
 78 80  1  0  0  0
 78150  1  0  0  0
 78151  1  0  0  0
 79 83  1  0  0  0
 79152  1  0  0  0
 79153  1  0  0  0
 80 81  1  0  0  0
 80154  1  0  0  0
 80155  1  0  0  0
 81 82  1  0  0  0
 81156  1  0  0  0
 81157  1  0  0  0
 82 84  1  0  0  0
 82158  1  0  0  0
 82159  1  0  0  0
 83160  1  0  0  0
 83161  1  0  0  0
 84162  1  0  0  0
M  ISO  4   1 100  68 101  83 101  84 100
M  END
> <chiral flag>
0

> <version>
0

> <s_m_source_file>
/data/baiqing/PycharmProjects/Reinvent-master-3.2/result/LINK_invent/BTK/process_docking_weight1_custom_sum_contain_oxygen_bond_distance_aromatic_linkinvent_7_9_3/rearranged_h_0039.sdf

> <i_m_source_file_index>
6

> <r_mmod_Potential_Energy-OPLS-2005>
-67.097412109375

> <r_mmod_Stretch_Energy-OPLS-2005>
34.1506652832031

> <r_mmod_Bend_Energy-OPLS-2005>
98.9660720825195

> <r_mmod_Torsional_Energy-OPLS-2005>
208.282608032227

> <r_mmod_Improper_Torsional_Energy-OPLS-2005>
3.90403890609741

> <r_mmod_Van_der_Waal_Energy-OPLS-2005>
147.95344543457

> <r_mmod_Electrostatic_Energy-OPLS-2005>
-364.688415527344

> <r_mmod_Solvation_Energy-OPLS-2005>
-204.270004272461

> <b_mmod_Minimization_Converged-OPLS-2005>
0

> <r_mmod_RMS_Derivative-OPLS-2005>
1.98813581466675

$$$$
6
                    3D
 Structure written by MMmdl.
162170  0  0  1  0            999 V2000
  -30.7153  -14.3671   20.6509 C   0  0  0  0  0  0
  -30.4266  -12.2731   19.3853 C   0  0  0  0  0  0
  -29.4866  -12.5151   18.1864 C   0  0  0  0  0  0
  -28.0081  -12.3801   18.6018 C   0  0  0  0  0  0
  -27.6705  -13.1889   19.8823 C   0  0  2  0  0  0
  -28.7063  -12.8876   20.9879 C   0  0  0  0  0  0
  -25.2654  -13.8127   20.5645 C   0  0  0  0  0  0
  -24.1873  -13.0436   20.9143 C   0  0  0  0  0  0
  -24.6382  -11.6900   20.8703 C   0  0  0  0  0  0
  -23.9037  -10.4299   21.0393 C   0  0  0  0  0  0
  -24.3595   -9.4218   21.9164 C   0  0  0  0  0  0
  -23.6277   -8.2252   22.0745 C   0  0  0  0  0  0
  -22.4267   -8.0275   21.3534 C   0  0  0  0  0  0
  -21.9885   -9.0248   20.4638 C   0  0  0  0  0  0
  -22.7208  -10.2129   20.3048 C   0  0  0  0  0  0
  -21.6849   -6.0735   22.5274 C   0  0  0  0  0  0
  -21.4016   -6.5641   23.8204 C   0  0  0  0  0  0
  -21.3656   -5.6791   24.9161 C   0  0  0  0  0  0
  -21.6042   -4.3056   24.7219 C   0  0  0  0  0  0
  -21.8817   -3.8148   23.4338 C   0  0  0  0  0  0
  -21.9194   -4.6963   22.3394 C   0  0  0  0  0  0
  -22.7903  -13.5253   21.1810 C   0  0  0  0  0  0
  -22.1661   -4.2150   21.0974 F   0  0  0  0  0  0
  -21.5624   -3.4537   25.7729 F   0  0  0  0  0  0
  -30.0492  -13.2014   20.4574 N   0  0  0  0  0  0
  -26.3066  -12.9257   20.3357 N   0  0  0  0  0  0
  -25.9305  -11.6443   20.5745 N   0  0  0  0  0  0
  -22.0539  -12.8265   22.0377 N   0  0  0  0  0  0
  -25.4450  -15.1829   20.4045 N   0  0  0  0  0  0
  -31.7670  -14.6684   20.0750 O   0  0  0  0  0  0
  -21.6633   -6.8875   21.4240 O   0  0  0  0  0  0
  -22.3592  -14.5557   20.6645 O   0  0  0  0  0  0
  -24.6109  -31.8723   23.2143 C   0  0  0  0  0  0
  -25.9003  -32.4859   23.8446 C   0  0  1  0  0  0
  -27.2316  -27.4743   20.0846 C   0  0  0  0  0  0
  -25.5879  -33.8659   24.2381 N   0  0  0  0  0  0
  -23.3992  -30.4959   21.5547 C   0  0  2  0  0  0
  -24.8464  -28.9717   20.1130 C   0  0  0  0  0  0
  -22.7398  -29.4672   22.5008 C   0  0  0  0  0  0
  -18.0282  -28.1359   22.8486 C   0  0  0  0  0  0
  -24.1488  -36.7319   23.2643 C   0  0  0  0  0  0
  -25.9263  -30.8458   21.3675 C   0  0  0  0  0  0
  -26.0025  -29.4837   20.7158 C   0  0  0  0  0  0
  -27.1996  -28.7374   20.7078 C   0  0  0  0  0  0
  -26.0713  -26.9808   19.4550 C   0  0  0  0  0  0
  -24.8738  -27.7161   19.4813 C   0  0  0  0  0  0
  -23.6056  -29.8332   20.1669 C   0  0  0  0  0  0
  -25.4104  -36.3143   24.0361 C   0  0  1  0  0  0
  -20.5859  -28.3679   23.1340 C   0  0  2  0  0  0
  -20.6794  -26.9403   22.5475 C   0  0  0  0  0  0
  -19.5794  -26.6348   21.5253 C   0  0  0  0  0  0
  -18.1944  -26.7919   22.1602 C   0  0  0  0  0  0
  -19.1515  -28.8841   23.2908 C   0  0  0  0  0  0
  -18.9419  -30.1453   23.8913 C   0  0  0  0  0  0
  -17.6407  -30.6584   24.0545 C   0  0  0  0  0  0
  -25.9020  -34.9498   23.5165 C   0  0  0  0  0  0
  -16.5314  -29.9056   23.6306 C   0  0  0  0  0  0
  -16.7265  -28.6467   23.0346 C   0  0  0  0  0  0
  -26.4451  -31.6630   25.0761 C   0  0  0  0  0  0
  -25.3731  -31.3703   26.1520 C   0  0  0  0  0  0
  -27.0281  -30.3089   24.6093 C   0  0  0  0  0  0
  -27.6065  -32.4324   25.7494 C   0  0  0  0  0  0
  -27.5586  -37.1816   24.8471 C   0  0  0  0  0  0
  -21.4131  -29.3033   22.3735 N   0  0  0  0  0  0
  -26.4301  -37.3811   23.9400 N   0  0  0  0  0  0
  -24.6639  -31.0849   22.1037 N   0  0  0  0  0  0
  -23.4178  -28.8225   23.3055 O   0  0  0  0  0  0
  -28.3816  -26.7280   20.0825 O   0  0  0  0  0  0
  -26.5577  -34.8933   22.4724 O   0  0  0  0  0  0
  -23.5300  -32.1458   23.7527 O   0  0  0  0  0  0
  -27.6150  -21.2629   23.6835 C   0  0  0  0  0  0
  -27.6581  -23.6229   23.1237 C   0  0  0  0  0  0
  -27.6333  -20.9254   22.3152 C   0  0  0  0  0  0
  -27.7088  -23.3138   21.7439 C   0  0  0  0  0  0
  -27.7039  -21.9500   21.3305 C   0  0  0  0  0  0
  -27.6274  -22.6063   24.0887 C   0  0  0  0  0  0
  -27.7638  -21.6117   19.8407 C   0  0  0  0  0  0
  -27.5680  -19.4469   21.9654 C   0  0  0  0  0  0
  -27.6799  -24.4525   20.7233 C   0  0  0  0  0  0
  -28.9630  -18.8353   21.7855 C   0  0  0  0  0  0
  -28.8973  -17.3257   21.5368 C   0  0  0  0  0  0
  -30.2752  -16.6483   21.5619 C   0  0  0  0  0  0
  -28.4203  -25.7495   21.1236 C   0  0  0  0  0  0
  -30.0829  -15.2120   21.4666 N   0  0  0  0  0  0
  -27.5753  -23.0071   25.7652 Cl  0  0  0  0  0  0
  -31.4684  -12.3933   19.0815 H   0  0  0  0  0  0
  -30.3353  -11.2434   19.7365 H   0  0  0  0  0  0
  -29.7147  -11.8159   17.3810 H   0  0  0  0  0  0
  -29.6584  -13.5113   17.7787 H   0  0  0  0  0  0
  -27.8042  -11.3216   18.7696 H   0  0  0  0  0  0
  -27.3571  -12.6832   17.7827 H   0  0  0  0  0  0
  -27.7414  -14.2463   19.6279 H   0  0  0  0  0  0
  -28.6707  -11.8298   21.2530 H   0  0  0  0  0  0
  -28.4553  -13.4113   21.9093 H   0  0  0  0  0  0
  -25.2743   -9.5692   22.4729 H   0  0  0  0  0  0
  -23.9985   -7.4653   22.7466 H   0  0  0  0  0  0
  -21.0813   -8.8758   19.8946 H   0  0  0  0  0  0
  -22.3657  -10.9663   19.6156 H   0  0  0  0  0  0
  -21.2014   -7.6151   23.9704 H   0  0  0  0  0  0
  -21.1476   -6.0523   25.9060 H   0  0  0  0  0  0
  -22.0603   -2.7617   23.2833 H   0  0  0  0  0  0
  -22.4153  -11.9927   22.4775 H   0  0  0  0  0  0
  -21.1156  -13.1302   22.2573 H   0  0  0  0  0  0
  -24.6868  -15.8472   20.5131 H   0  0  0  0  0  0
  -26.3084  -15.6130   20.0961 H   0  0  0  0  0  0
  -26.7087  -32.5599   23.1226 H   0  0  0  0  0  0
  -25.0076  -33.9864   25.0560 H   0  0  0  0  0  0
  -22.6869  -31.3120   21.4197 H   0  0  0  0  0  0
  -23.3763  -35.9644   23.3333 H   0  0  0  0  0  0
  -24.3581  -36.8887   22.2050 H   0  0  0  0  0  0
  -23.7224  -37.6533   23.6618 H   0  0  0  0  0  0
  -26.0343  -31.6129   20.6000 H   0  0  0  0  0  0
  -26.8151  -30.8991   21.9823 H   0  0  0  0  0  0
  -28.0917  -29.1238   21.1788 H   0  0  0  0  0  0
  -26.0932  -26.0314   18.9395 H   0  0  0  0  0  0
  -23.9901  -27.3218   18.9997 H   0  0  0  0  0  0
  -23.7060  -30.6133   19.4118 H   0  0  0  0  0  0
  -22.7318  -29.2480   19.8739 H   0  0  0  0  0  0
  -25.1269  -36.2041   25.0859 H   0  0  0  0  0  0
  -20.9936  -28.3301   24.1466 H   0  0  0  0  0  0
  -20.5687  -26.2296   23.3685 H   0  0  0  0  0  0
  -21.6686  -26.7457   22.1304 H   0  0  0  0  0  0
  -19.6966  -25.6237   21.1334 H   0  0  0  0  0  0
  -19.6774  -27.3116   20.6756 H   0  0  0  0  0  0
  -17.4259  -26.6725   21.3947 H   0  0  0  0  0  0
  -18.0268  -26.0043   22.8969 H   0  0  0  0  0  0
  -19.7879  -30.7284   24.2302 H   0  0  0  0  0  0
  -17.4926  -31.6279   24.5108 H   0  0  0  0  0  0
  -15.5302  -30.2950   23.7601 H   0  0  0  0  0  0
  -15.8678  -28.0783   22.7043 H   0  0  0  0  0  0
  -24.5900  -30.7057   25.7841 H   0  0  0  0  0  0
  -24.8928  -32.2849   26.5017 H   0  0  0  0  0  0
  -25.8098  -30.8834   27.0252 H   0  0  0  0  0  0
  -26.2817  -29.6863   24.1143 H   0  0  0  0  0  0
  -27.4079  -29.7299   25.4520 H   0  0  0  0  0  0
  -27.8638  -30.4446   23.9223 H   0  0  0  0  0  0
  -27.2732  -33.3611   26.2138 H   0  0  0  0  0  0
  -28.3831  -32.6902   25.0282 H   0  0  0  0  0  0
  -28.0791  -31.8408   26.5347 H   0  0  0  0  0  0
  -28.2627  -38.0094   24.7502 H   0  0  0  0  0  0
  -28.1063  -36.2622   24.6318 H   0  0  0  0  0  0
  -27.2302  -37.1489   25.8879 H   0  0  0  0  0  0
  -20.9284  -29.8705   21.6918 H   0  0  0  0  0  0
  -26.0214  -38.2906   24.1385 H   0  0  0  0  0  0
  -27.5794  -20.4857   24.4332 H   0  0  0  0  0  0
  -27.6240  -24.6444   23.4732 H   0  0  0  0  0  0
  -27.7214  -20.5504   19.6069 H   0  0  0  0  0  0
  -28.6993  -21.9751   19.4131 H   0  0  0  0  0  0
  -26.9398  -22.0856   19.3076 H   0  0  0  0  0  0
  -26.9428  -19.2803   21.0890 H   0  0  0  0  0  0
  -27.0447  -18.9271   22.7712 H   0  0  0  0  0  0
  -26.6241  -24.6503   20.5519 H   0  0  0  0  0  0
  -28.0956  -24.1354   19.7687 H   0  0  0  0  0  0
  -29.5467  -19.0244   22.6876 H   0  0  0  0  0  0
  -29.4904  -19.3266   20.9663 H   0  0  0  0  0  0
  -28.4111  -17.1387   20.5775 H   0  0  0  0  0  0
  -28.2538  -16.8712   22.2931 H   0  0  0  0  0  0
  -30.8046  -16.8693   22.4886 H   0  0  0  0  0  0
  -30.8913  -17.0234   20.7418 H   0  0  0  0  0  0
  -29.4664  -25.5226   21.3322 H   0  0  0  0  0  0
  -28.0091  -26.1802   22.0379 H   0  0  0  0  0  0
  -29.2707  -14.8337   21.9316 H   0  0  0  0  0  0
  1 25  1  0  0  0
  1 30  2  0  0  0
  1 84  1  0  0  0
  2  3  1  0  0  0
  2 25  1  0  0  0
  2 86  1  0  0  0
  2 87  1  0  0  0
  3  4  1  0  0  0
  3 88  1  0  0  0
  3 89  1  0  0  0
  4  5  1  0  0  0
  4 90  1  0  0  0
  4 91  1  0  0  0
  5  6  1  0  0  0
  5 26  1  0  0  0
  5 92  1  0  0  0
  6 25  1  0  0  0
  6 93  1  0  0  0
  6 94  1  0  0  0
  7  8  2  0  0  0
  7 26  1  0  0  0
  7 29  1  0  0  0
  8  9  1  0  0  0
  8 22  1  0  0  0
  9 10  1  0  0  0
  9 27  2  0  0  0
 10 11  2  0  0  0
 10 15  1  0  0  0
 11 12  1  0  0  0
 11 95  1  0  0  0
 12 13  2  0  0  0
 12 96  1  0  0  0
 13 14  1  0  0  0
 13 31  1  0  0  0
 14 15  2  0  0  0
 14 97  1  0  0  0
 15 98  1  0  0  0
 16 17  2  0  0  0
 16 21  1  0  0  0
 16 31  1  0  0  0
 17 18  1  0  0  0
 17 99  1  0  0  0
 18 19  2  0  0  0
 18100  1  0  0  0
 19 20  1  0  0  0
 19 24  1  0  0  0
 20 21  2  0  0  0
 20101  1  0  0  0
 21 23  1  0  0  0
 22 28  1  0  0  0
 22 32  2  0  0  0
 26 27  1  0  0  0
 28102  1  0  0  0
 28103  1  0  0  0
 29104  1  0  0  0
 29105  1  0  0  0
 33 34  1  0  0  0
 33 66  1  0  0  0
 33 70  2  0  0  0
 34 36  1  0  0  0
 34 59  1  0  0  0
 34106  1  0  0  0
 35 44  2  0  0  0
 35 45  1  0  0  0
 35 68  1  0  0  0
 36 56  1  0  0  0
 36107  1  0  0  0
 37 39  1  0  0  0
 37 47  1  0  0  0
 37 66  1  0  0  0
 37108  1  0  0  0
 38 43  2  0  0  0
 38 46  1  0  0  0
 38 47  1  0  0  0
 39 64  1  0  0  0
 39 67  2  0  0  0
 40 52  1  0  0  0
 40 53  2  0  0  0
 40 58  1  0  0  0
 41109  1  0  0  0
 41110  1  0  0  0
 41111  1  0  0  0
 41 48  1  0  0  0
 42 43  1  0  0  0
 42 66  1  0  0  0
 42112  1  0  0  0
 42113  1  0  0  0
 43 44  1  0  0  0
 44114  1  0  0  0
 45 46  2  0  0  0
 45115  1  0  0  0
 46116  1  0  0  0
 47117  1  0  0  0
 47118  1  0  0  0
 48 56  1  0  0  0
 48 65  1  0  0  0
 48119  1  0  0  0
 49 50  1  0  0  0
 49 53  1  0  0  0
 49 64  1  0  0  0
 49120  1  0  0  0
 50 51  1  0  0  0
 50121  1  0  0  0
 50122  1  0  0  0
 51 52  1  0  0  0
 51123  1  0  0  0
 51124  1  0  0  0
 52125  1  0  0  0
 52126  1  0  0  0
 53 54  1  0  0  0
 54 55  2  0  0  0
 54127  1  0  0  0
 55 57  1  0  0  0
 55128  1  0  0  0
 56 69  2  0  0  0
 57 58  2  0  0  0
 57129  1  0  0  0
 58130  1  0  0  0
 59 60  1  0  0  0
 59 61  1  0  0  0
 59 62  1  0  0  0
 60131  1  0  0  0
 60132  1  0  0  0
 60133  1  0  0  0
 61134  1  0  0  0
 61135  1  0  0  0
 61136  1  0  0  0
 62137  1  0  0  0
 62138  1  0  0  0
 62139  1  0  0  0
 63 65  1  0  0  0
 63140  1  0  0  0
 63141  1  0  0  0
 63142  1  0  0  0
 64143  1  0  0  0
 65144  1  0  0  0
 68 83  1  0  0  0
 71 73  2  0  0  0
 71 76  1  0  0  0
 71145  1  0  0  0
 72 74  1  0  0  0
 72 76  2  0  0  0
 72146  1  0  0  0
 73 75  1  0  0  0
 73 78  1  0  0  0
 74 75  2  0  0  0
 74 79  1  0  0  0
 75 77  1  0  0  0
 76 85  1  0  0  0
 77147  1  0  0  0
 77148  1  0  0  0
 77149  1  0  0  0
 78 80  1  0  0  0
 78150  1  0  0  0
 78151  1  0  0  0
 79 83  1  0  0  0
 79152  1  0  0  0
 79153  1  0  0  0
 80 81  1  0  0  0
 80154  1  0  0  0
 80155  1  0  0  0
 81 82  1  0  0  0
 81156  1  0  0  0
 81157  1  0  0  0
 82 84  1  0  0  0
 82158  1  0  0  0
 82159  1  0  0  0
 83160  1  0  0  0
 83161  1  0  0  0
 84162  1  0  0  0
M  ISO  4   1 100  68 101  83 101  84 100
M  END
> <chiral flag>
0

> <version>
0

> <s_m_source_file>
/data/baiqing/PycharmProjects/Reinvent-master-3.2/result/LINK_invent/BTK/process_docking_weight1_custom_sum_contain_oxygen_bond_distance_aromatic_linkinvent_7_9_3/rearranged_h_0039.sdf

> <i_m_source_file_index>
7

> <r_mmod_Potential_Energy-OPLS-2005>
-68.8462982177734

> <r_mmod_Stretch_Energy-OPLS-2005>
32.9663887023926

> <r_mmod_Bend_Energy-OPLS-2005>
88.4064025878906

> <r_mmod_Torsional_Energy-OPLS-2005>
217.369522094727

> <r_mmod_Improper_Torsional_Energy-OPLS-2005>
2.88470077514648

> <r_mmod_Van_der_Waal_Energy-OPLS-2005>
160.266937255859

> <r_mmod_Electrostatic_Energy-OPLS-2005>
-375.338439941406

> <r_mmod_Solvation_Energy-OPLS-2005>
-203.413497924805

> <b_mmod_Minimization_Converged-OPLS-2005>
0

> <r_mmod_RMS_Derivative-OPLS-2005>
2.62777471542358

$$$$
7
                    3D
 Structure written by MMmdl.
151159  0  0  1  0            999 V2000
  -30.6024  -14.6783   20.5384 C   0  0  0  0  0  0
  -30.4455  -12.4253   19.4491 C   0  0  0  0  0  0
  -29.5101  -12.5323   18.2231 C   0  0  0  0  0  0
  -28.0333  -12.3586   18.6339 C   0  0  0  0  0  0
  -27.6569  -13.2183   19.8700 C   0  0  2  0  0  0
  -28.7046  -13.0540   20.9933 C   0  0  0  0  0  0
  -25.2581  -13.8168   20.5701 C   0  0  0  0  0  0
  -24.1841  -13.0437   20.9181 C   0  0  0  0  0  0
  -24.6406  -11.6904   20.8729 C   0  0  0  0  0  0
  -23.9070  -10.4291   21.0403 C   0  0  0  0  0  0
  -24.3620   -9.4206   21.9180 C   0  0  0  0  0  0
  -23.6293   -8.2243   22.0752 C   0  0  0  0  0  0
  -22.4274   -8.0281   21.3545 C   0  0  0  0  0  0
  -21.9913   -9.0254   20.4646 C   0  0  0  0  0  0
  -22.7242  -10.2133   20.3053 C   0  0  0  0  0  0
  -21.6855   -6.0737   22.5279 C   0  0  0  0  0  0
  -21.4015   -6.5639   23.8214 C   0  0  0  0  0  0
  -21.3662   -5.6792   24.9175 C   0  0  0  0  0  0
  -21.6045   -4.3057   24.7225 C   0  0  0  0  0  0
  -21.8820   -3.8147   23.4348 C   0  0  0  0  0  0
  -21.9194   -4.6963   22.3404 C   0  0  0  0  0  0
  -22.7862  -13.5228   21.1846 C   0  0  0  0  0  0
  -22.1664   -4.2148   21.0982 F   0  0  0  0  0  0
  -21.5629   -3.4541   25.7738 F   0  0  0  0  0  0
  -30.0101  -13.4382   20.4354 N   0  0  0  0  0  0
  -26.3016  -12.9352   20.3352 N   0  0  0  0  0  0
  -25.9339  -11.6502   20.5750 N   0  0  0  0  0  0
  -22.0507  -12.8218   22.0403 N   0  0  0  0  0  0
  -25.4306  -15.1891   20.4147 N   0  0  0  0  0  0
  -31.7398  -14.8438   20.0803 O   0  0  0  0  0  0
  -21.6641   -6.8879   21.4240 O   0  0  0  0  0  0
  -22.3546  -14.5536   20.6698 O   0  0  0  0  0  0
  -24.6287  -31.8581   23.2004 C   0  0  0  0  0  0
  -25.9122  -32.4768   23.8343 C   0  0  1  0  0  0
  -27.2206  -27.2892   20.1195 C   0  0  0  0  0  0
  -25.5935  -33.8571   24.2274 N   0  0  0  0  0  0
  -23.4238  -30.4813   21.5442 C   0  0  2  0  0  0
  -24.8701  -28.9355   20.1089 C   0  0  0  0  0  0
  -22.7492  -29.4611   22.4926 C   0  0  0  0  0  0
  -18.0289  -28.1381   22.8482 C   0  0  0  0  0  0
  -24.1492  -36.7290   23.2637 C   0  0  0  0  0  0
  -25.9674  -30.7796   21.3760 C   0  0  0  0  0  0
  -26.0411  -29.4046   20.7179 C   0  0  0  0  0  0
  -27.2185  -28.5936   20.7138 C   0  0  0  0  0  0
  -26.0260  -26.8863   19.4775 C   0  0  0  0  0  0
  -24.8668  -27.6830   19.4785 C   0  0  0  0  0  0
  -23.6396  -29.8184   20.1591 C   0  0  0  0  0  0
  -25.4116  -36.3080   24.0330 C   0  0  1  0  0  0
  -20.5889  -28.3693   23.1275 C   0  0  2  0  0  0
  -20.6779  -26.9415   22.5407 C   0  0  0  0  0  0
  -19.5756  -26.6381   21.5208 C   0  0  0  0  0  0
  -18.1936  -26.7923   22.1622 C   0  0  0  0  0  0
  -19.1541  -28.8853   23.2873 C   0  0  0  0  0  0
  -18.9463  -30.1454   23.8892 C   0  0  0  0  0  0
  -17.6463  -30.6584   24.0557 C   0  0  0  0  0  0
  -25.9056  -34.9448   23.5102 C   0  0  0  0  0  0
  -16.5356  -29.9083   23.6325 C   0  0  0  0  0  0
  -16.7276  -28.6498   23.0351 C   0  0  0  0  0  0
  -26.4497  -31.6572   25.0716 C   0  0  0  0  0  0
  -25.3725  -31.3714   26.1439 C   0  0  0  0  0  0
  -27.0331  -30.2992   24.6169 C   0  0  0  0  0  0
  -27.6062  -32.4294   25.7490 C   0  0  0  0  0  0
  -27.5583  -37.1802   24.8464 C   0  0  0  0  0  0
  -21.4201  -29.3044   22.3669 N   0  0  0  0  0  0
  -26.4292  -37.3777   23.9410 N   0  0  0  0  0  0
  -24.6923  -31.0567   22.0969 N   0  0  0  0  0  0
  -23.4202  -28.8150   23.3016 O   0  0  0  0  0  0
  -28.3231  -26.4093   20.1845 O   0  0  0  0  0  0
  -26.5626  -34.8919   22.4669 O   0  0  0  0  0  0
  -23.5444  -32.1395   23.7315 O   0  0  0  0  0  0
  -30.0925  -18.6086   21.2715 C   0  0  0  0  0  0
  -29.3145  -19.0777   19.3246 C   0  0  0  0  0  0
  -29.8543  -17.3855   20.6273 C   0  0  0  0  0  0
  -29.8492  -15.9193   21.2109 C   0  0  0  0  0  0
  -28.8516  -22.2785   20.1630 C   0  0  0  0  0  0
  -29.1523  -23.8405   20.4427 C   0  0  0  0  0  0
  -29.8895  -21.1873   20.7192 C   0  0  0  0  0  0
  -28.0829  -24.9469   19.9881 C   0  0  0  0  0  0
  -29.3421  -17.7322   19.3687 N   0  0  0  0  0  0
  -29.7260  -19.7035   20.4419 N   0  0  0  0  0  0
  -31.4847  -12.5625   19.1450 H   0  0  0  0  0  0
  -30.3958  -11.4259   19.8836 H   0  0  0  0  0  0
  -29.7817  -11.7884   17.4728 H   0  0  0  0  0  0
  -29.6430  -13.5063   17.7493 H   0  0  0  0  0  0
  -27.8738  -11.3029   18.8563 H   0  0  0  0  0  0
  -27.3774  -12.5959   17.7953 H   0  0  0  0  0  0
  -27.6801  -14.2581   19.5428 H   0  0  0  0  0  0
  -28.7329  -12.0175   21.3332 H   0  0  0  0  0  0
  -28.4413  -13.6318   21.8786 H   0  0  0  0  0  0
  -25.2770   -9.5681   22.4749 H   0  0  0  0  0  0
  -24.0007   -7.4636   22.7472 H   0  0  0  0  0  0
  -21.0845   -8.8773   19.8951 H   0  0  0  0  0  0
  -22.3703  -10.9671   19.6161 H   0  0  0  0  0  0
  -21.2007   -7.6147   23.9714 H   0  0  0  0  0  0
  -21.1485   -6.0525   25.9077 H   0  0  0  0  0  0
  -22.0597   -2.7607   23.2848 H   0  0  0  0  0  0
  -22.4126  -11.9883   22.4795 H   0  0  0  0  0  0
  -21.1122  -13.1236   22.2605 H   0  0  0  0  0  0
  -24.6667  -15.8465   20.5289 H   0  0  0  0  0  0
  -26.2879  -15.6300   20.1041 H   0  0  0  0  0  0
  -26.7190  -32.5430   23.1090 H   0  0  0  0  0  0
  -25.0081  -33.9711   25.0419 H   0  0  0  0  0  0
  -22.7187  -31.3026   21.4010 H   0  0  0  0  0  0
  -23.3758  -35.9618   23.3291 H   0  0  0  0  0  0
  -24.3585  -36.8915   22.2052 H   0  0  0  0  0  0
  -23.7240  -37.6488   23.6662 H   0  0  0  0  0  0
  -26.1002  -31.5411   20.6063 H   0  0  0  0  0  0
  -26.8474  -30.8303   22.0054 H   0  0  0  0  0  0
  -28.1134  -28.9460   21.2073 H   0  0  0  0  0  0
  -25.9539  -25.9325   18.9768 H   0  0  0  0  0  0
  -23.9717  -27.3195   18.9927 H   0  0  0  0  0  0
  -23.7610  -30.5959   19.4038 H   0  0  0  0  0  0
  -22.7589  -29.2499   19.8547 H   0  0  0  0  0  0
  -25.1293  -36.1931   25.0823 H   0  0  0  0  0  0
  -20.9979  -28.3268   24.1396 H   0  0  0  0  0  0
  -20.5676  -26.2307   23.3608 H   0  0  0  0  0  0
  -21.6648  -26.7442   22.1203 H   0  0  0  0  0  0
  -19.6920  -25.6290   21.1243 H   0  0  0  0  0  0
  -19.6688  -27.3185   20.6730 H   0  0  0  0  0  0
  -17.4204  -26.6662   21.4027 H   0  0  0  0  0  0
  -18.0344  -26.0065   22.9020 H   0  0  0  0  0  0
  -19.7940  -30.7265   24.2268 H   0  0  0  0  0  0
  -17.5019  -31.6264   24.5159 H   0  0  0  0  0  0
  -15.5356  -30.2984   23.7645 H   0  0  0  0  0  0
  -15.8677  -28.0810   22.7074 H   0  0  0  0  0  0
  -24.5903  -30.7063   25.7762 H   0  0  0  0  0  0
  -24.8915  -32.2881   26.4860 H   0  0  0  0  0  0
  -25.8044  -30.8891   27.0216 H   0  0  0  0  0  0
  -26.2900  -29.6752   24.1191 H   0  0  0  0  0  0
  -27.4021  -29.7237   25.4668 H   0  0  0  0  0  0
  -27.8777  -30.4270   23.9396 H   0  0  0  0  0  0
  -27.2684  -33.3596   26.2070 H   0  0  0  0  0  0
  -28.3879  -32.6843   25.0321 H   0  0  0  0  0  0
  -28.0723  -31.8410   26.5403 H   0  0  0  0  0  0
  -28.2594  -38.0106   24.7519 H   0  0  0  0  0  0
  -28.1086  -36.2637   24.6280 H   0  0  0  0  0  0
  -27.2303  -37.1437   25.8868 H   0  0  0  0  0  0
  -20.9385  -29.8781   21.6886 H   0  0  0  0  0  0
  -26.0173  -38.2852   24.1408 H   0  0  0  0  0  0
  -30.4630  -18.7853   22.2730 H   0  0  0  0  0  0
  -28.9819  -19.6206   18.4508 H   0  0  0  0  0  0
  -28.8010  -15.6572   21.3256 H   0  0  0  0  0  0
  -30.2276  -15.9560   22.2324 H   0  0  0  0  0  0
  -28.7594  -22.1441   19.0848 H   0  0  0  0  0  0
  -27.8678  -22.0425   20.5697 H   0  0  0  0  0  0
  -30.1067  -24.0866   19.9769 H   0  0  0  0  0  0
  -29.3148  -23.9631   21.5136 H   0  0  0  0  0  0
  -29.9429  -21.3021   21.8021 H   0  0  0  0  0  0
  -30.8815  -21.4566   20.3563 H   0  0  0  0  0  0
  -27.1566  -24.6891   20.5037 H   0  0  0  0  0  0
  -27.8931  -24.7917   18.9254 H   0  0  0  0  0  0
  1 25  1  0  0  0
  1 30  2  0  0  0
  1 74  1  0  0  0
  2  3  1  0  0  0
  2 25  1  0  0  0
  2 81  1  0  0  0
  2 82  1  0  0  0
  3  4  1  0  0  0
  3 83  1  0  0  0
  3 84  1  0  0  0
  4  5  1  0  0  0
  4 85  1  0  0  0
  4 86  1  0  0  0
  5  6  1  0  0  0
  5 26  1  0  0  0
  5 87  1  0  0  0
  6 25  1  0  0  0
  6 88  1  0  0  0
  6 89  1  0  0  0
  7  8  2  0  0  0
  7 26  1  0  0  0
  7 29  1  0  0  0
  8  9  1  0  0  0
  8 22  1  0  0  0
  9 10  1  0  0  0
  9 27  2  0  0  0
 10 11  2  0  0  0
 10 15  1  0  0  0
 11 12  1  0  0  0
 11 90  1  0  0  0
 12 13  2  0  0  0
 12 91  1  0  0  0
 13 14  1  0  0  0
 13 31  1  0  0  0
 14 15  2  0  0  0
 14 92  1  0  0  0
 15 93  1  0  0  0
 16 17  2  0  0  0
 16 21  1  0  0  0
 16 31  1  0  0  0
 17 18  1  0  0  0
 17 94  1  0  0  0
 18 19  2  0  0  0
 18 95  1  0  0  0
 19 20  1  0  0  0
 19 24  1  0  0  0
 20 21  2  0  0  0
 20 96  1  0  0  0
 21 23  1  0  0  0
 22 28  1  0  0  0
 22 32  2  0  0  0
 26 27  1  0  0  0
 28 97  1  0  0  0
 28 98  1  0  0  0
 29 99  1  0  0  0
 29100  1  0  0  0
 33 34  1  0  0  0
 33 66  1  0  0  0
 33 70  2  0  0  0
 34 36  1  0  0  0
 34 59  1  0  0  0
 34101  1  0  0  0
 35 44  2  0  0  0
 35 45  1  0  0  0
 35 68  1  0  0  0
 36 56  1  0  0  0
 36102  1  0  0  0
 37 39  1  0  0  0
 37 47  1  0  0  0
 37 66  1  0  0  0
 37103  1  0  0  0
 38 43  2  0  0  0
 38 46  1  0  0  0
 38 47  1  0  0  0
 39 64  1  0  0  0
 39 67  2  0  0  0
 40 52  1  0  0  0
 40 53  2  0  0  0
 40 58  1  0  0  0
 41104  1  0  0  0
 41105  1  0  0  0
 41106  1  0  0  0
 41 48  1  0  0  0
 42 43  1  0  0  0
 42 66  1  0  0  0
 42107  1  0  0  0
 42108  1  0  0  0
 43 44  1  0  0  0
 44109  1  0  0  0
 45 46  2  0  0  0
 45110  1  0  0  0
 46111  1  0  0  0
 47112  1  0  0  0
 47113  1  0  0  0
 48 56  1  0  0  0
 48 65  1  0  0  0
 48114  1  0  0  0
 49 50  1  0  0  0
 49 53  1  0  0  0
 49 64  1  0  0  0
 49115  1  0  0  0
 50 51  1  0  0  0
 50116  1  0  0  0
 50117  1  0  0  0
 51 52  1  0  0  0
 51118  1  0  0  0
 51119  1  0  0  0
 52120  1  0  0  0
 52121  1  0  0  0
 53 54  1  0  0  0
 54 55  2  0  0  0
 54122  1  0  0  0
 55 57  1  0  0  0
 55123  1  0  0  0
 56 69  2  0  0  0
 57 58  2  0  0  0
 57124  1  0  0  0
 58125  1  0  0  0
 59 60  1  0  0  0
 59 61  1  0  0  0
 59 62  1  0  0  0
 60126  1  0  0  0
 60127  1  0  0  0
 60128  1  0  0  0
 61129  1  0  0  0
 61130  1  0  0  0
 61131  1  0  0  0
 62132  1  0  0  0
 62133  1  0  0  0
 62134  1  0  0  0
 63 65  1  0  0  0
 63135  1  0  0  0
 63136  1  0  0  0
 63137  1  0  0  0
 64138  1  0  0  0
 65139  1  0  0  0
 68 78  1  0  0  0
 71 73  2  0  0  0
 71 80  1  0  0  0
 71140  1  0  0  0
 72 79  2  0  0  0
 72 80  1  0  0  0
 72141  1  0  0  0
 73 74  1  0  0  0
 73 79  1  0  0  0
 74142  1  0  0  0
 74143  1  0  0  0
 75 76  1  0  0  0
 75 77  1  0  0  0
 75144  1  0  0  0
 75145  1  0  0  0
 76 78  1  0  0  0
 76146  1  0  0  0
 76147  1  0  0  0
 77 80  1  0  0  0
 77148  1  0  0  0
 77149  1  0  0  0
 78150  1  0  0  0
 78151  1  0  0  0
M  ISO  4   1 100  68 101  74 100  78 101
M  END
> <chiral flag>
0

> <version>
0

> <s_m_source_file>
/data/baiqing/PycharmProjects/Reinvent-master-3.2/result/LINK_invent/BTK/process_docking_weight1_custom_sum_contain_oxygen_bond_distance_aromatic_linkinvent_7_9_3/rearranged_h_0039.sdf

> <i_m_source_file_index>
8

> <r_mmod_Potential_Energy-OPLS-2005>
161.232086181641

> <r_mmod_Stretch_Energy-OPLS-2005>
102.387619018555

> <r_mmod_Bend_Energy-OPLS-2005>
164.046035766602

> <r_mmod_Torsional_Energy-OPLS-2005>
182.322967529297

> <r_mmod_Improper_Torsional_Energy-OPLS-2005>
3.5256929397583

> <r_mmod_Van_der_Waal_Energy-OPLS-2005>
118.935432434082

> <r_mmod_Electrostatic_Energy-OPLS-2005>
-253.09114074707

> <r_mmod_Solvation_Energy-OPLS-2005>
-217.712921142578

> <b_mmod_Minimization_Converged-OPLS-2005>
0

> <r_mmod_RMS_Derivative-OPLS-2005>
0.769128203392029

$$$$
8
                    3D
 Structure written by MMmdl.
167175  0  0  1  0            999 V2000
  -30.6553  -14.6232   20.4948 C   0  0  0  0  0  0
  -30.4218  -12.3818   19.4457 C   0  0  0  0  0  0
  -29.5045  -12.4960   18.2123 C   0  0  0  0  0  0
  -28.0277  -12.3314   18.6234 C   0  0  0  0  0  0
  -27.6457  -13.2216   19.8400 C   0  0  2  0  0  0
  -28.6866  -13.1093   20.9744 C   0  0  0  0  0  0
  -25.2544  -13.8201   20.5660 C   0  0  0  0  0  0
  -24.1832  -13.0455   20.9176 C   0  0  0  0  0  0
  -24.6407  -11.6930   20.8719 C   0  0  0  0  0  0
  -23.9090  -10.4298   21.0376 C   0  0  0  0  0  0
  -24.3647   -9.4230   21.9166 C   0  0  0  0  0  0
  -23.6324   -8.2259   22.0743 C   0  0  0  0  0  0
  -22.4320   -8.0275   21.3516 C   0  0  0  0  0  0
  -21.9929   -9.0255   20.4633 C   0  0  0  0  0  0
  -22.7252  -10.2149   20.3038 C   0  0  0  0  0  0
  -21.6871   -6.0754   22.5286 C   0  0  0  0  0  0
  -21.4009   -6.5654   23.8224 C   0  0  0  0  0  0
  -21.3648   -5.6790   24.9172 C   0  0  0  0  0  0
  -21.6042   -4.3056   24.7216 C   0  0  0  0  0  0
  -21.8818   -3.8160   23.4334 C   0  0  0  0  0  0
  -21.9191   -4.6969   22.3391 C   0  0  0  0  0  0
  -22.7847  -13.5240   21.1818 C   0  0  0  0  0  0
  -22.1661   -4.2164   21.0974 F   0  0  0  0  0  0
  -21.5618   -3.4532   25.7723 F   0  0  0  0  0  0
  -29.9988  -13.4262   20.3981 N   0  0  0  0  0  0
  -26.2954  -12.9390   20.3197 N   0  0  0  0  0  0
  -25.9327  -11.6551   20.5702 N   0  0  0  0  0  0
  -22.0490  -12.8242   22.0391 N   0  0  0  0  0  0
  -25.4281  -15.1923   20.4102 N   0  0  0  0  0  0
  -31.8428  -14.7201   20.1716 O   0  0  0  0  0  0
  -21.6644   -6.8903   21.4253 O   0  0  0  0  0  0
  -22.3539  -14.5511   20.6607 O   0  0  0  0  0  0
  -24.6247  -31.8614   23.2045 C   0  0  0  0  0  0
  -25.9135  -32.4749   23.8339 C   0  0  1  0  0  0
  -27.2184  -27.3286   20.0985 C   0  0  0  0  0  0
  -25.5976  -33.8546   24.2288 N   0  0  0  0  0  0
  -23.4137  -30.4921   21.5424 C   0  0  2  0  0  0
  -24.8569  -28.9445   20.1070 C   0  0  0  0  0  0
  -22.7435  -29.4668   22.4883 C   0  0  0  0  0  0
  -18.0287  -28.1383   22.8508 C   0  0  0  0  0  0
  -24.1504  -36.7281   23.2640 C   0  0  0  0  0  0
  -25.9536  -30.7921   21.3750 C   0  0  0  0  0  0
  -26.0235  -29.4199   20.7153 C   0  0  0  0  0  0
  -27.1998  -28.6177   20.7145 C   0  0  0  0  0  0
  -26.0251  -26.8966   19.4768 C   0  0  0  0  0  0
  -24.8577  -27.6863   19.4846 C   0  0  0  0  0  0
  -23.6314  -29.8352   20.1537 C   0  0  0  0  0  0
  -25.4110  -36.3045   24.0339 C   0  0  1  0  0  0
  -20.5890  -28.3698   23.1281 C   0  0  2  0  0  0
  -20.6778  -26.9415   22.5420 C   0  0  0  0  0  0
  -19.5755  -26.6382   21.5226 C   0  0  0  0  0  0
  -18.1935  -26.7939   22.1629 C   0  0  0  0  0  0
  -19.1540  -28.8844   23.2909 C   0  0  0  0  0  0
  -18.9461  -30.1447   23.8923 C   0  0  0  0  0  0
  -17.6463  -30.6593   24.0568 C   0  0  0  0  0  0
  -25.9054  -34.9421   23.5099 C   0  0  0  0  0  0
  -16.5355  -29.9097   23.6323 C   0  0  0  0  0  0
  -16.7274  -28.6508   23.0358 C   0  0  0  0  0  0
  -26.4535  -31.6528   25.0680 C   0  0  0  0  0  0
  -25.3808  -31.3645   26.1434 C   0  0  0  0  0  0
  -27.0371  -30.2956   24.6105 C   0  0  0  0  0  0
  -27.6100  -32.4253   25.7448 C   0  0  0  0  0  0
  -27.5579  -37.1783   24.8455 C   0  0  0  0  0  0
  -21.4147  -29.3079   22.3658 N   0  0  0  0  0  0
  -26.4273  -37.3752   23.9425 N   0  0  0  0  0  0
  -24.6818  -31.0645   22.0980 N   0  0  0  0  0  0
  -23.4182  -28.8206   23.2939 O   0  0  0  0  0  0
  -28.3662  -26.5267   20.1531 O   0  0  0  0  0  0
  -26.5598  -34.8899   22.4652 O   0  0  0  0  0  0
  -23.5425  -32.1431   23.7392 O   0  0  0  0  0  0
  -29.1438  -18.7703   19.7038 C   0  0  0  0  0  0
  -30.3723  -19.6213   21.5584 C   0  0  0  0  0  0
  -29.9439  -18.4802   20.8315 C   0  0  0  0  0  0
  -28.8944  -20.1253   19.3207 C   0  0  0  0  0  0
  -29.3942  -21.2085   20.1121 C   0  0  0  0  0  0
  -24.3700  -20.6679   18.8735 C   0  0  0  0  0  0
  -26.5125  -21.8369   16.8138 C   0  0  0  0  0  0
  -28.1910  -20.3782   17.9913 C   0  0  0  0  0  0
  -30.4657  -17.0579   21.2752 C   0  0  0  0  0  0
  -29.4080  -22.7117   19.6312 C   0  0  0  0  0  0
  -25.7132  -20.0451   18.4598 C   0  0  0  0  0  0
  -28.4795  -23.8473   20.2516 C   0  0  0  0  0  0
  -28.4960  -25.2315   19.4560 C   0  0  0  0  0  0
  -26.8137  -21.0684   18.1143 C   0  0  2  0  0  0
  -30.1052  -20.9192   21.2292 N   0  0  0  0  0  0
  -29.9190  -15.7387   20.7981 N   0  0  0  0  0  0
  -31.4666  -12.4838   19.1530 H   0  0  0  0  0  0
  -30.3401  -11.3913   19.8956 H   0  0  0  0  0  0
  -29.7842  -11.7510   17.4646 H   0  0  0  0  0  0
  -29.6454  -13.4689   17.7406 H   0  0  0  0  0  0
  -27.8769  -11.2811   18.8746 H   0  0  0  0  0  0
  -27.3748  -12.5391   17.7748 H   0  0  0  0  0  0
  -27.6561  -14.2496   19.4766 H   0  0  0  0  0  0
  -28.6947  -12.1004   21.3940 H   0  0  0  0  0  0
  -28.4374  -13.7783   21.7970 H   0  0  0  0  0  0
  -25.2810   -9.5701   22.4717 H   0  0  0  0  0  0
  -24.0019   -7.4676   22.7482 H   0  0  0  0  0  0
  -21.0852   -8.8785   19.8984 H   0  0  0  0  0  0
  -22.3708  -10.9670   19.6126 H   0  0  0  0  0  0
  -21.2015   -7.6158   23.9729 H   0  0  0  0  0  0
  -21.1462   -6.0519   25.9085 H   0  0  0  0  0  0
  -22.0612   -2.7614   23.2821 H   0  0  0  0  0  0
  -22.4114  -11.9928   22.4813 H   0  0  0  0  0  0
  -21.1087  -13.1278   22.2557 H   0  0  0  0  0  0
  -24.6616  -15.8479   20.5212 H   0  0  0  0  0  0
  -26.2782  -15.6319   20.0847 H   0  0  0  0  0  0
  -26.7170  -32.5425   23.1050 H   0  0  0  0  0  0
  -25.0144  -33.9667   25.0449 H   0  0  0  0  0  0
  -22.7091  -31.3154   21.4025 H   0  0  0  0  0  0
  -23.3757  -35.9621   23.3250 H   0  0  0  0  0  0
  -24.3633  -36.8952   22.2068 H   0  0  0  0  0  0
  -23.7255  -37.6471   23.6689 H   0  0  0  0  0  0
  -26.0863  -31.5583   20.6100 H   0  0  0  0  0  0
  -26.8353  -30.8350   22.0041 H   0  0  0  0  0  0
  -28.0886  -28.9747   21.2163 H   0  0  0  0  0  0
  -25.9513  -25.9351   18.9952 H   0  0  0  0  0  0
  -23.9577  -27.3152   19.0137 H   0  0  0  0  0  0
  -23.7710  -30.6218   19.4095 H   0  0  0  0  0  0
  -22.7450  -29.2866   19.8302 H   0  0  0  0  0  0
  -25.1281  -36.1874   25.0827 H   0  0  0  0  0  0
  -21.0010  -28.3277   24.1391 H   0  0  0  0  0  0
  -20.5692  -26.2295   23.3623 H   0  0  0  0  0  0
  -21.6642  -26.7455   22.1205 H   0  0  0  0  0  0
  -19.6914  -25.6294   21.1253 H   0  0  0  0  0  0
  -19.6696  -27.3192   20.6759 H   0  0  0  0  0  0
  -17.4218  -26.6731   21.4017 H   0  0  0  0  0  0
  -18.0306  -26.0058   22.8995 H   0  0  0  0  0  0
  -19.7934  -30.7260   24.2307 H   0  0  0  0  0  0
  -17.5020  -31.6279   24.5163 H   0  0  0  0  0  0
  -15.5353  -30.3013   23.7614 H   0  0  0  0  0  0
  -15.8684  -28.0828   22.7055 H   0  0  0  0  0  0
  -24.5939  -30.7043   25.7764 H   0  0  0  0  0  0
  -24.9066  -32.2808   26.4953 H   0  0  0  0  0  0
  -25.8186  -30.8736   27.0137 H   0  0  0  0  0  0
  -26.2905  -29.6660   24.1246 H   0  0  0  0  0  0
  -27.4204  -29.7245   25.4570 H   0  0  0  0  0  0
  -27.8724  -30.4231   23.9219 H   0  0  0  0  0  0
  -27.2703  -33.3528   26.2068 H   0  0  0  0  0  0
  -28.3895  -32.6852   25.0271 H   0  0  0  0  0  0
  -28.0791  -31.8351   26.5333 H   0  0  0  0  0  0
  -28.2543  -38.0129   24.7531 H   0  0  0  0  0  0
  -28.1125  -36.2654   24.6218 H   0  0  0  0  0  0
  -27.2326  -37.1357   25.8867 H   0  0  0  0  0  0
  -20.9279  -29.8816   21.6917 H   0  0  0  0  0  0
  -26.0137  -38.2815   24.1466 H   0  0  0  0  0  0
  -28.7796  -17.9561   19.0913 H   0  0  0  0  0  0
  -31.0002  -19.4896   22.4286 H   0  0  0  0  0  0
  -23.6118  -19.8952   18.9991 H   0  0  0  0  0  0
  -23.9916  -21.3664   18.1278 H   0  0  0  0  0  0
  -24.4543  -21.1981   19.8225 H   0  0  0  0  0  0
  -27.2859  -22.5830   16.6213 H   0  0  0  0  0  0
  -25.5625  -22.3717   16.8491 H   0  0  0  0  0  0
  -26.4842  -21.1628   15.9545 H   0  0  0  0  0  0
  -28.0849  -19.4420   17.4397 H   0  0  0  0  0  0
  -28.8653  -20.9702   17.3718 H   0  0  0  0  0  0
  -30.3771  -17.0249   22.3640 H   0  0  0  0  0  0
  -31.5428  -17.0728   21.1012 H   0  0  0  0  0  0
  -29.2753  -22.7327   18.5514 H   0  0  0  0  0  0
  -30.4350  -23.0561   19.7581 H   0  0  0  0  0  0
  -25.5602  -19.3736   17.6134 H   0  0  0  0  0  0
  -26.0579  -19.4169   19.2824 H   0  0  0  0  0  0
  -28.7758  -24.0043   21.2877 H   0  0  0  0  0  0
  -27.4485  -23.4969   20.2896 H   0  0  0  0  0  0
  -27.8299  -25.1569   18.5982 H   0  0  0  0  0  0
  -29.4765  -25.3017   18.9835 H   0  0  0  0  0  0
  -26.8563  -21.8070   18.9138 H   0  0  0  0  0  0
  -28.9312  -15.5840   20.9313 H   0  0  0  0  0  0
  1 25  1  0  0  0
  1 30  2  0  0  0
  1 86  1  0  0  0
  2  3  1  0  0  0
  2 25  1  0  0  0
  2 87  1  0  0  0
  2 88  1  0  0  0
  3  4  1  0  0  0
  3 89  1  0  0  0
  3 90  1  0  0  0
  4  5  1  0  0  0
  4 91  1  0  0  0
  4 92  1  0  0  0
  5  6  1  0  0  0
  5 26  1  0  0  0
  5 93  1  0  0  0
  6 25  1  0  0  0
  6 94  1  0  0  0
  6 95  1  0  0  0
  7  8  2  0  0  0
  7 26  1  0  0  0
  7 29  1  0  0  0
  8  9  1  0  0  0
  8 22  1  0  0  0
  9 10  1  0  0  0
  9 27  2  0  0  0
 10 11  2  0  0  0
 10 15  1  0  0  0
 11 12  1  0  0  0
 11 96  1  0  0  0
 12 13  2  0  0  0
 12 97  1  0  0  0
 13 14  1  0  0  0
 13 31  1  0  0  0
 14 15  2  0  0  0
 14 98  1  0  0  0
 15 99  1  0  0  0
 16 17  2  0  0  0
 16 21  1  0  0  0
 16 31  1  0  0  0
 17 18  1  0  0  0
 17100  1  0  0  0
 18 19  2  0  0  0
 18101  1  0  0  0
 19 20  1  0  0  0
 19 24  1  0  0  0
 20 21  2  0  0  0
 20102  1  0  0  0
 21 23  1  0  0  0
 22 28  1  0  0  0
 22 32  2  0  0  0
 26 27  1  0  0  0
 28103  1  0  0  0
 28104  1  0  0  0
 29105  1  0  0  0
 29106  1  0  0  0
 33 34  1  0  0  0
 33 66  1  0  0  0
 33 70  2  0  0  0
 34 36  1  0  0  0
 34 59  1  0  0  0
 34107  1  0  0  0
 35 44  2  0  0  0
 35 45  1  0  0  0
 35 68  1  0  0  0
 36 56  1  0  0  0
 36108  1  0  0  0
 37 39  1  0  0  0
 37 47  1  0  0  0
 37 66  1  0  0  0
 37109  1  0  0  0
 38 43  2  0  0  0
 38 46  1  0  0  0
 38 47  1  0  0  0
 39 64  1  0  0  0
 39 67  2  0  0  0
 40 52  1  0  0  0
 40 53  2  0  0  0
 40 58  1  0  0  0
 41110  1  0  0  0
 41111  1  0  0  0
 41112  1  0  0  0
 41 48  1  0  0  0
 42 43  1  0  0  0
 42 66  1  0  0  0
 42113  1  0  0  0
 42114  1  0  0  0
 43 44  1  0  0  0
 44115  1  0  0  0
 45 46  2  0  0  0
 45116  1  0  0  0
 46117  1  0  0  0
 47118  1  0  0  0
 47119  1  0  0  0
 48 56  1  0  0  0
 48 65  1  0  0  0
 48120  1  0  0  0
 49 50  1  0  0  0
 49 53  1  0  0  0
 49 64  1  0  0  0
 49121  1  0  0  0
 50 51  1  0  0  0
 50122  1  0  0  0
 50123  1  0  0  0
 51 52  1  0  0  0
 51124  1  0  0  0
 51125  1  0  0  0
 52126  1  0  0  0
 52127  1  0  0  0
 53 54  1  0  0  0
 54 55  2  0  0  0
 54128  1  0  0  0
 55 57  1  0  0  0
 55129  1  0  0  0
 56 69  2  0  0  0
 57 58  2  0  0  0
 57130  1  0  0  0
 58131  1  0  0  0
 59 60  1  0  0  0
 59 61  1  0  0  0
 59 62  1  0  0  0
 60132  1  0  0  0
 60133  1  0  0  0
 60134  1  0  0  0
 61135  1  0  0  0
 61136  1  0  0  0
 61137  1  0  0  0
 62138  1  0  0  0
 62139  1  0  0  0
 62140  1  0  0  0
 63 65  1  0  0  0
 63141  1  0  0  0
 63142  1  0  0  0
 63143  1  0  0  0
 64144  1  0  0  0
 65145  1  0  0  0
 68 83  1  0  0  0
 71 73  2  0  0  0
 71 74  1  0  0  0
 71146  1  0  0  0
 72 73  1  0  0  0
 72 85  2  0  0  0
 72147  1  0  0  0
 73 79  1  0  0  0
 74 75  2  0  0  0
 74 78  1  0  0  0
 75 80  1  0  0  0
 75 85  1  0  0  0
 76 81  1  0  0  0
 76148  1  0  0  0
 76149  1  0  0  0
 76150  1  0  0  0
 77151  1  0  0  0
 77152  1  0  0  0
 77153  1  0  0  0
 77 84  1  0  0  0
 78 84  1  0  0  0
 78154  1  0  0  0
 78155  1  0  0  0
 79 86  1  0  0  0
 79156  1  0  0  0
 79157  1  0  0  0
 80 82  1  0  0  0
 80158  1  0  0  0
 80159  1  0  0  0
 81 84  1  0  0  0
 81160  1  0  0  0
 81161  1  0  0  0
 82 83  1  0  0  0
 82162  1  0  0  0
 82163  1  0  0  0
 83164  1  0  0  0
 83165  1  0  0  0
 84166  1  0  0  0
 86167  1  0  0  0
M  ISO  4   1 100  68 101  83 101  86 100
M  END
> <chiral flag>
0

> <version>
0

> <s_m_source_file>
/data/baiqing/PycharmProjects/Reinvent-master-3.2/result/LINK_invent/BTK/process_docking_weight1_custom_sum_contain_oxygen_bond_distance_aromatic_linkinvent_7_9_3/rearranged_h_0039.sdf

> <i_m_source_file_index>
9

> <r_mmod_Potential_Energy-OPLS-2005>
-95.4429016113281

> <r_mmod_Stretch_Energy-OPLS-2005>
78.8692016601562

> <r_mmod_Bend_Energy-OPLS-2005>
168.193435668945

> <r_mmod_Torsional_Energy-OPLS-2005>
207.672958374023

> <r_mmod_Improper_Torsional_Energy-OPLS-2005>
5.86937618255615

> <r_mmod_Van_der_Waal_Energy-OPLS-2005>
141.935745239258

> <r_mmod_Electrostatic_Energy-OPLS-2005>
-522.157653808594

> <r_mmod_Solvation_Energy-OPLS-2005>
-221.031387329102

> <b_mmod_Minimization_Converged-OPLS-2005>
0

> <r_mmod_RMS_Derivative-OPLS-2005>
4.1413254737854

$$$$
9
                    3D
 Structure written by MMmdl.
165173  0  0  1  0            999 V2000
  -30.7110  -14.4163   20.6442 C   0  0  0  0  0  0
  -30.4258  -12.2988   19.3976 C   0  0  0  0  0  0
  -29.4889  -12.5199   18.1941 C   0  0  0  0  0  0
  -28.0098  -12.3843   18.6092 C   0  0  0  0  0  0
  -27.6686  -13.2001   19.8856 C   0  0  2  0  0  0
  -28.7105  -12.9289   20.9938 C   0  0  0  0  0  0
  -25.2617  -13.8148   20.5681 C   0  0  0  0  0  0
  -24.1848  -13.0439   20.9168 C   0  0  0  0  0  0
  -24.6385  -11.6900   20.8730 C   0  0  0  0  0  0
  -23.9048  -10.4290   21.0400 C   0  0  0  0  0  0
  -24.3605   -9.4207   21.9178 C   0  0  0  0  0  0
  -23.6286   -8.2242   22.0749 C   0  0  0  0  0  0
  -22.4266   -8.0280   21.3545 C   0  0  0  0  0  0
  -21.9901   -9.0253   20.4647 C   0  0  0  0  0  0
  -22.7223  -10.2133   20.3052 C   0  0  0  0  0  0
  -21.6852   -6.0735   22.5281 C   0  0  0  0  0  0
  -21.4013   -6.5636   23.8216 C   0  0  0  0  0  0
  -21.3659   -5.6789   24.9178 C   0  0  0  0  0  0
  -21.6047   -4.3055   24.7226 C   0  0  0  0  0  0
  -21.8820   -3.8145   23.4348 C   0  0  0  0  0  0
  -21.9195   -4.6963   22.3403 C   0  0  0  0  0  0
  -22.7868  -13.5252   21.1833 C   0  0  0  0  0  0
  -22.1663   -4.2150   21.0978 F   0  0  0  0  0  0
  -21.5629   -3.4537   25.7736 F   0  0  0  0  0  0
  -30.0392  -13.2502   20.4494 N   0  0  0  0  0  0
  -26.3059  -12.9306   20.3411 N   0  0  0  0  0  0
  -25.9317  -11.6468   20.5779 N   0  0  0  0  0  0
  -22.0502  -12.8251   22.0389 N   0  0  0  0  0  0
  -25.4367  -15.1863   20.4080 N   0  0  0  0  0  0
  -31.7855  -14.6513   20.0807 O   0  0  0  0  0  0
  -21.6632   -6.8876   21.4241 O   0  0  0  0  0  0
  -22.3553  -14.5563   20.6688 O   0  0  0  0  0  0
  -24.6118  -31.8697   23.2128 C   0  0  0  0  0  0
  -25.9023  -32.4828   23.8420 C   0  0  1  0  0  0
  -27.2423  -27.4626   20.0768 C   0  0  0  0  0  0
  -25.5894  -33.8627   24.2352 N   0  0  0  0  0  0
  -23.3997  -30.4923   21.5516 C   0  0  2  0  0  0
  -24.8482  -28.9569   20.1186 C   0  0  0  0  0  0
  -22.7394  -29.4665   22.4998 C   0  0  0  0  0  0
  -18.0267  -28.1372   22.8488 C   0  0  0  0  0  0
  -24.1488  -36.7316   23.2641 C   0  0  0  0  0  0
  -25.9272  -30.8370   21.3674 C   0  0  0  0  0  0
  -26.0055  -29.4713   20.7181 C   0  0  0  0  0  0
  -27.2026  -28.7249   20.7071 C   0  0  0  0  0  0
  -26.0660  -26.9450   19.4951 C   0  0  0  0  0  0
  -24.8699  -27.6879   19.5120 C   0  0  0  0  0  0
  -23.6099  -29.8227   20.1668 C   0  0  0  0  0  0
  -25.4105  -36.3112   24.0344 C   0  0  1  0  0  0
  -20.5851  -28.3654   23.1323 C   0  0  2  0  0  0
  -20.6752  -26.9392   22.5416 C   0  0  0  0  0  0
  -19.5735  -26.6378   21.5206 C   0  0  0  0  0  0
  -18.1913  -26.7923   22.1614 C   0  0  0  0  0  0
  -19.1512  -28.8831   23.2903 C   0  0  0  0  0  0
  -18.9442  -30.1438   23.8910 C   0  0  0  0  0  0
  -17.6445  -30.6582   24.0560 C   0  0  0  0  0  0
  -25.9028  -34.9476   23.5146 C   0  0  0  0  0  0
  -16.5337  -29.9080   23.6327 C   0  0  0  0  0  0
  -16.7255  -28.6495   23.0351 C   0  0  0  0  0  0
  -26.4473  -31.6605   25.0738 C   0  0  0  0  0  0
  -25.3751  -31.3703   26.1497 C   0  0  0  0  0  0
  -27.0312  -30.3050   24.6111 C   0  0  0  0  0  0
  -27.6057  -32.4327   25.7487 C   0  0  0  0  0  0
  -27.5585  -37.1808   24.8461 C   0  0  0  0  0  0
  -21.4122  -29.3027   22.3734 N   0  0  0  0  0  0
  -26.4296  -37.3790   23.9408 N   0  0  0  0  0  0
  -24.6641  -31.0805   22.1023 N   0  0  0  0  0  0
  -23.4175  -28.8209   23.3038 O   0  0  0  0  0  0
  -28.4169  -26.7490   20.0479 O   0  0  0  0  0  0
  -26.5583  -34.8917   22.4699 O   0  0  0  0  0  0
  -23.5313  -32.1449   23.7518 O   0  0  0  0  0  0
  -28.7543  -22.8415   17.1936 C   0  0  0  0  0  0
  -28.4614  -24.2013   17.4119 C   0  0  0  0  0  0
  -29.0211  -24.8447   18.5466 C   0  0  0  0  0  0
  -29.5995  -22.1621   18.0860 C   0  0  0  0  0  0
  -29.8209  -24.0582   19.4163 C   0  0  0  0  0  0
  -27.5985  -24.9313   16.3956 C   0  0  0  0  0  0
  -30.4715  -24.6361   20.6598 C   0  0  0  0  0  0
  -28.8776  -26.3597   18.7528 C   0  0  0  0  0  0
  -30.0757  -20.7484   17.7740 C   0  0  0  0  0  0
  -30.1098  -15.5066   21.5616 C   0  0  0  0  0  0
  -29.3741  -19.6158   18.5535 C   0  0  0  0  0  0
  -30.5379  -16.9590   21.2319 C   0  0  0  0  0  0
  -30.2251  -18.9884   19.6777 C   0  0  0  0  0  0
  -29.7270  -17.5881   20.0815 C   0  0  0  0  0  0
  -30.0989  -22.7525   19.1904 N   0  0  0  0  0  0
  -31.4666  -12.4126   19.0893 H   0  0  0  0  0  0
  -30.3376  -11.2765   19.7689 H   0  0  0  0  0  0
  -29.7208  -11.8072   17.4017 H   0  0  0  0  0  0
  -29.6631  -13.5120   17.7747 H   0  0  0  0  0  0
  -27.8065  -11.3264   18.7790 H   0  0  0  0  0  0
  -27.3608  -12.6878   17.7865 H   0  0  0  0  0  0
  -27.7314  -14.2561   19.6207 H   0  0  0  0  0  0
  -28.6837  -11.8767   21.2812 H   0  0  0  0  0  0
  -28.4712  -13.4693   21.9086 H   0  0  0  0  0  0
  -25.2756   -9.5688   22.4746 H   0  0  0  0  0  0
  -24.0006   -7.4631   22.7458 H   0  0  0  0  0  0
  -21.0837   -8.8765   19.8949 H   0  0  0  0  0  0
  -22.3682  -10.9667   19.6156 H   0  0  0  0  0  0
  -21.2000   -7.6146   23.9718 H   0  0  0  0  0  0
  -21.1481   -6.0518   25.9083 H   0  0  0  0  0  0
  -22.0600   -2.7607   23.2842 H   0  0  0  0  0  0
  -22.4112  -11.9917   22.4784 H   0  0  0  0  0  0
  -21.1121  -13.1283   22.2592 H   0  0  0  0  0  0
  -24.6768  -15.8485   20.5210 H   0  0  0  0  0  0
  -26.3015  -15.6224   20.1130 H   0  0  0  0  0  0
  -26.7091  -32.5547   23.1185 H   0  0  0  0  0  0
  -25.0062  -33.9802   25.0508 H   0  0  0  0  0  0
  -22.6872  -31.3075   21.4116 H   0  0  0  0  0  0
  -23.3746  -35.9651   23.3304 H   0  0  0  0  0  0
  -24.3586  -36.8927   22.2057 H   0  0  0  0  0  0
  -23.7243  -37.6522   23.6651 H   0  0  0  0  0  0
  -26.0409  -31.6027   20.5986 H   0  0  0  0  0  0
  -26.8151  -30.8910   21.9859 H   0  0  0  0  0  0
  -28.1003  -29.1203   21.1624 H   0  0  0  0  0  0
  -26.0751  -25.9673   19.0359 H   0  0  0  0  0  0
  -23.9771  -27.2801   19.0596 H   0  0  0  0  0  0
  -23.7189  -30.5971   19.4066 H   0  0  0  0  0  0
  -22.7355  -29.2410   19.8696 H   0  0  0  0  0  0
  -25.1279  -36.1988   25.0838 H   0  0  0  0  0  0
  -20.9945  -28.3215   24.1441 H   0  0  0  0  0  0
  -20.5647  -26.2257   23.3594 H   0  0  0  0  0  0
  -21.6627  -26.7431   22.1215 H   0  0  0  0  0  0
  -19.6891  -25.6288   21.1233 H   0  0  0  0  0  0
  -19.6687  -27.3189   20.6736 H   0  0  0  0  0  0
  -17.4186  -26.6674   21.4011 H   0  0  0  0  0  0
  -18.0315  -26.0059   22.9005 H   0  0  0  0  0  0
  -19.7920  -30.7244   24.2290 H   0  0  0  0  0  0
  -17.5004  -31.6267   24.5152 H   0  0  0  0  0  0
  -15.5338  -30.2986   23.7644 H   0  0  0  0  0  0
  -15.8653  -28.0816   22.7068 H   0  0  0  0  0  0
  -24.5904  -30.7077   25.7832 H   0  0  0  0  0  0
  -24.8968  -32.2859   26.4987 H   0  0  0  0  0  0
  -25.8116  -30.8835   27.0230 H   0  0  0  0  0  0
  -26.2858  -29.6796   24.1186 H   0  0  0  0  0  0
  -27.4113  -29.7302   25.4569 H   0  0  0  0  0  0
  -27.8681  -30.4373   23.9247 H   0  0  0  0  0  0
  -27.2685  -33.3613   26.2104 H   0  0  0  0  0  0
  -28.3841  -32.6914   25.0296 H   0  0  0  0  0  0
  -28.0761  -31.8433   26.5368 H   0  0  0  0  0  0
  -28.2599  -38.0108   24.7513 H   0  0  0  0  0  0
  -28.1088  -36.2641   24.6280 H   0  0  0  0  0  0
  -27.2306  -37.1456   25.8864 H   0  0  0  0  0  0
  -20.9274  -29.8760   21.6969 H   0  0  0  0  0  0
  -26.0192  -38.2873   24.1396 H   0  0  0  0  0  0
  -28.3756  -22.3328   16.3169 H   0  0  0  0  0  0
  -27.2611  -24.2596   15.6058 H   0  0  0  0  0  0
  -28.1565  -25.7385   15.9207 H   0  0  0  0  0  0
  -26.7111  -25.3494   16.8686 H   0  0  0  0  0  0
  -29.7112  -24.9082   21.3917 H   0  0  0  0  0  0
  -31.0542  -25.5240   20.4167 H   0  0  0  0  0  0
  -31.1449  -23.9200   21.1324 H   0  0  0  0  0  0
  -28.2891  -26.8282   17.9647 H   0  0  0  0  0  0
  -29.8722  -26.7900   18.6313 H   0  0  0  0  0  0
  -31.1575  -20.6983   17.9015 H   0  0  0  0  0  0
  -29.9162  -20.5774   16.7083 H   0  0  0  0  0  0
  -29.0222  -15.4843   21.5407 H   0  0  0  0  0  0
  -30.4033  -15.2647   22.5830 H   0  0  0  0  0  0
  -29.1547  -18.8277   17.8324 H   0  0  0  0  0  0
  -28.4037  -19.9440   18.9281 H   0  0  0  0  0  0
  -31.6039  -17.0016   21.0041 H   0  0  0  0  0  0
  -30.4102  -17.5732   22.1245 H   0  0  0  0  0  0
  -30.2367  -19.6544   20.5422 H   0  0  0  0  0  0
  -31.2615  -18.8990   19.3487 H   0  0  0  0  0  0
  -28.6756  -17.6440   20.3687 H   0  0  0  0  0  0
  -29.7717  -16.9318   19.2110 H   0  0  0  0  0  0
  1 25  1  0  0  0
  1 30  2  0  0  0
  1 80  1  0  0  0
  2  3  1  0  0  0
  2 25  1  0  0  0
  2 86  1  0  0  0
  2 87  1  0  0  0
  3  4  1  0  0  0
  3 88  1  0  0  0
  3 89  1  0  0  0
  4  5  1  0  0  0
  4 90  1  0  0  0
  4 91  1  0  0  0
  5  6  1  0  0  0
  5 26  1  0  0  0
  5 92  1  0  0  0
  6 25  1  0  0  0
  6 93  1  0  0  0
  6 94  1  0  0  0
  7  8  2  0  0  0
  7 26  1  0  0  0
  7 29  1  0  0  0
  8  9  1  0  0  0
  8 22  1  0  0  0
  9 10  1  0  0  0
  9 27  2  0  0  0
 10 11  2  0  0  0
 10 15  1  0  0  0
 11 12  1  0  0  0
 11 95  1  0  0  0
 12 13  2  0  0  0
 12 96  1  0  0  0
 13 14  1  0  0  0
 13 31  1  0  0  0
 14 15  2  0  0  0
 14 97  1  0  0  0
 15 98  1  0  0  0
 16 17  2  0  0  0
 16 21  1  0  0  0
 16 31  1  0  0  0
 17 18  1  0  0  0
 17 99  1  0  0  0
 18 19  2  0  0  0
 18100  1  0  0  0
 19 20  1  0  0  0
 19 24  1  0  0  0
 20 21  2  0  0  0
 20101  1  0  0  0
 21 23  1  0  0  0
 22 28  1  0  0  0
 22 32  2  0  0  0
 26 27  1  0  0  0
 28102  1  0  0  0
 28103  1  0  0  0
 29104  1  0  0  0
 29105  1  0  0  0
 33 34  1  0  0  0
 33 66  1  0  0  0
 33 70  2  0  0  0
 34 36  1  0  0  0
 34 59  1  0  0  0
 34106  1  0  0  0
 35 44  2  0  0  0
 35 45  1  0  0  0
 35 68  1  0  0  0
 36 56  1  0  0  0
 36107  1  0  0  0
 37 39  1  0  0  0
 37 47  1  0  0  0
 37 66  1  0  0  0
 37108  1  0  0  0
 38 43  2  0  0  0
 38 46  1  0  0  0
 38 47  1  0  0  0
 39 64  1  0  0  0
 39 67  2  0  0  0
 40 52  1  0  0  0
 40 53  2  0  0  0
 40 58  1  0  0  0
 41109  1  0  0  0
 41110  1  0  0  0
 41111  1  0  0  0
 41 48  1  0  0  0
 42 43  1  0  0  0
 42 66  1  0  0  0
 42112  1  0  0  0
 42113  1  0  0  0
 43 44  1  0  0  0
 44114  1  0  0  0
 45 46  2  0  0  0
 45115  1  0  0  0
 46116  1  0  0  0
 47117  1  0  0  0
 47118  1  0  0  0
 48 56  1  0  0  0
 48 65  1  0  0  0
 48119  1  0  0  0
 49 50  1  0  0  0
 49 53  1  0  0  0
 49 64  1  0  0  0
 49120  1  0  0  0
 50 51  1  0  0  0
 50121  1  0  0  0
 50122  1  0  0  0
 51 52  1  0  0  0
 51123  1  0  0  0
 51124  1  0  0  0
 52125  1  0  0  0
 52126  1  0  0  0
 53 54  1  0  0  0
 54 55  2  0  0  0
 54127  1  0  0  0
 55 57  1  0  0  0
 55128  1  0  0  0
 56 69  2  0  0  0
 57 58  2  0  0  0
 57129  1  0  0  0
 58130  1  0  0  0
 59 60  1  0  0  0
 59 61  1  0  0  0
 59 62  1  0  0  0
 60131  1  0  0  0
 60132  1  0  0  0
 60133  1  0  0  0
 61134  1  0  0  0
 61135  1  0  0  0
 61136  1  0  0  0
 62137  1  0  0  0
 62138  1  0  0  0
 62139  1  0  0  0
 63 65  1  0  0  0
 63140  1  0  0  0
 63141  1  0  0  0
 63142  1  0  0  0
 64143  1  0  0  0
 65144  1  0  0  0
 68 78  1  0  0  0
 71 72  2  0  0  0
 71 74  1  0  0  0
 71145  1  0  0  0
 72 73  1  0  0  0
 72 76  1  0  0  0
 73 75  2  0  0  0
 73 78  1  0  0  0
 74 79  1  0  0  0
 74 85  2  0  0  0
 75 77  1  0  0  0
 75 85  1  0  0  0
 76146  1  0  0  0
 76147  1  0  0  0
 76148  1  0  0  0
 77149  1  0  0  0
 77150  1  0  0  0
 77151  1  0  0  0
 78152  1  0  0  0
 78153  1  0  0  0
 79 81  1  0  0  0
 79154  1  0  0  0
 79155  1  0  0  0
 80 82  1  0  0  0
 80156  1  0  0  0
 80157  1  0  0  0
 81 83  1  0  0  0
 81158  1  0  0  0
 81159  1  0  0  0
 82 84  1  0  0  0
 82160  1  0  0  0
 82161  1  0  0  0
 83 84  1  0  0  0
 83162  1  0  0  0
 83163  1  0  0  0
 84164  1  0  0  0
 84165  1  0  0  0
M  ISO  4   1 100  68 101  78 101  80 100
M  END
> <chiral flag>
0

> <version>
0

> <s_m_source_file>
/data/baiqing/PycharmProjects/Reinvent-master-3.2/result/LINK_invent/BTK/process_docking_weight1_custom_sum_contain_oxygen_bond_distance_aromatic_linkinvent_7_9_3/rearranged_h_0039.sdf

> <i_m_source_file_index>
10

> <r_mmod_Potential_Energy-OPLS-2005>
-146.993392944336

> <r_mmod_Stretch_Energy-OPLS-2005>
34.8815460205078

> <r_mmod_Bend_Energy-OPLS-2005>
93.3494567871094

> <r_mmod_Torsional_Energy-OPLS-2005>
197.393463134766

> <r_mmod_Improper_Torsional_Energy-OPLS-2005>
2.47385168075562

> <r_mmod_Van_der_Waal_Energy-OPLS-2005>
154.118438720703

> <r_mmod_Electrostatic_Energy-OPLS-2005>
-436.81982421875

> <r_mmod_Solvation_Energy-OPLS-2005>
-200.210067749023

> <b_mmod_Minimization_Converged-OPLS-2005>
0

> <r_mmod_RMS_Derivative-OPLS-2005>
1.18094277381897

$$$$
10
                    3D
 Structure written by MMmdl.
175183  0  0  1  0            999 V2000
  -30.7572  -14.3786   20.7050 C   0  0  0  0  0  0
  -30.4135  -12.3003   19.4002 C   0  0  0  0  0  0
  -29.4783  -12.5208   18.1955 C   0  0  0  0  0  0
  -28.0056  -12.3679   18.6156 C   0  0  0  0  0  0
  -27.6638  -13.2002   19.8777 C   0  0  2  0  0  0
  -28.6986  -12.9468   20.9947 C   0  0  0  0  0  0
  -25.2597  -13.8125   20.5657 C   0  0  0  0  0  0
  -24.1833  -13.0424   20.9156 C   0  0  0  0  0  0
  -24.6364  -11.6887   20.8705 C   0  0  0  0  0  0
  -23.9028  -10.4276   21.0399 C   0  0  0  0  0  0
  -24.3596   -9.4208   21.9187 C   0  0  0  0  0  0
  -23.6275   -8.2237   22.0756 C   0  0  0  0  0  0
  -22.4249   -8.0267   21.3549 C   0  0  0  0  0  0
  -21.9888   -9.0236   20.4650 C   0  0  0  0  0  0
  -22.7202  -10.2122   20.3052 C   0  0  0  0  0  0
  -21.6862   -6.0716   22.5291 C   0  0  0  0  0  0
  -21.4016   -6.5622   23.8223 C   0  0  0  0  0  0
  -21.3665   -5.6788   24.9184 C   0  0  0  0  0  0
  -21.6033   -4.3038   24.7250 C   0  0  0  0  0  0
  -21.8814   -3.8130   23.4369 C   0  0  0  0  0  0
  -21.9193   -4.6942   22.3422 C   0  0  0  0  0  0
  -22.7856  -13.5238   21.1837 C   0  0  0  0  0  0
  -22.1653   -4.2119   21.1002 F   0  0  0  0  0  0
  -21.5636   -3.4535   25.7765 F   0  0  0  0  0  0
  -30.0416  -13.2486   20.4616 N   0  0  0  0  0  0
  -26.3023  -12.9300   20.3363 N   0  0  0  0  0  0
  -25.9288  -11.6453   20.5737 N   0  0  0  0  0  0
  -22.0518  -12.8223   22.0410 N   0  0  0  0  0  0
  -25.4348  -15.1839   20.4066 N   0  0  0  0  0  0
  -31.7875  -14.6711   20.0876 O   0  0  0  0  0  0
  -21.6629   -6.8851   21.4237 O   0  0  0  0  0  0
  -22.3553  -14.5572   20.6722 O   0  0  0  0  0  0
  -24.6123  -31.8677   23.2130 C   0  0  0  0  0  0
  -25.9026  -32.4787   23.8417 C   0  0  1  0  0  0
  -27.2261  -27.4440   20.1022 C   0  0  0  0  0  0
  -25.5888  -33.8591   24.2327 N   0  0  0  0  0  0
  -23.3992  -30.4961   21.5546 C   0  0  2  0  0  0
  -24.8447  -28.9752   20.1083 C   0  0  0  0  0  0
  -22.7411  -29.4663   22.5009 C   0  0  0  0  0  0
  -18.0257  -28.1379   22.8474 C   0  0  0  0  0  0
  -24.1497  -36.7322   23.2638 C   0  0  0  0  0  0
  -25.9291  -30.8379   21.3695 C   0  0  0  0  0  0
  -26.0050  -29.4793   20.7094 C   0  0  0  0  0  0
  -27.1982  -28.7199   20.7068 C   0  0  0  0  0  0
  -26.0520  -26.9695   19.4679 C   0  0  0  0  0  0
  -24.8619  -27.7188   19.4805 C   0  0  0  0  0  0
  -23.6063  -29.8376   20.1648 C   0  0  0  0  0  0
  -25.4114  -36.3079   24.0325 C   0  0  1  0  0  0
  -20.5854  -28.3629   23.1285 C   0  0  2  0  0  0
  -20.6778  -26.9363   22.5401 C   0  0  0  0  0  0
  -19.5776  -26.6361   21.5203 C   0  0  0  0  0  0
  -18.1921  -26.7916   22.1599 C   0  0  0  0  0  0
  -19.1513  -28.8819   23.2870 C   0  0  0  0  0  0
  -18.9449  -30.1441   23.8875 C   0  0  0  0  0  0
  -17.6462  -30.6564   24.0562 C   0  0  0  0  0  0
  -25.9039  -34.9436   23.5128 C   0  0  0  0  0  0
  -16.5340  -29.9061   23.6337 C   0  0  0  0  0  0
  -16.7248  -28.6519   23.0325 C   0  0  0  0  0  0
  -26.4479  -31.6580   25.0745 C   0  0  0  0  0  0
  -25.3741  -31.3676   26.1500 C   0  0  0  0  0  0
  -27.0325  -30.3009   24.6121 C   0  0  0  0  0  0
  -27.6052  -32.4316   25.7498 C   0  0  0  0  0  0
  -27.5582  -37.1799   24.8450 C   0  0  0  0  0  0
  -21.4138  -29.3006   22.3716 N   0  0  0  0  0  0
  -26.4298  -37.3752   23.9396 N   0  0  0  0  0  0
  -24.6651  -31.0815   22.1037 N   0  0  0  0  0  0
  -23.4174  -28.8193   23.3053 O   0  0  0  0  0  0
  -28.3847  -26.6917   20.1552 O   0  0  0  0  0  0
  -26.5601  -34.8887   22.4681 O   0  0  0  0  0  0
  -23.5325  -32.1408   23.7550 O   0  0  0  0  0  0
  -30.5176  -22.1309   24.6420 C   0  0  0  0  0  0
  -30.5840  -20.7385   24.3829 C   0  0  0  0  0  0
  -29.2521  -22.4391   22.7301 C   0  0  0  0  0  0
  -29.3639  -21.0473   22.4389 C   0  0  0  0  0  0
  -31.1847  -22.7547   25.8535 C   0  0  0  0  0  0
  -26.7163  -18.9260   20.4759 C   0  0  0  0  0  0
  -31.2561  -19.7744   25.3610 C   0  0  0  0  0  0
  -28.3577  -23.3859   21.9414 C   0  0  0  0  0  0
  -28.7140  -20.3563   21.2469 C   0  0  0  0  0  0
  -27.3359  -19.7678   21.6028 C   0  0  0  0  0  0
  -31.0599  -18.2677   25.0677 C   0  0  0  0  0  0
  -29.0728  -24.6143   21.3332 C   0  0  0  0  0  0
  -32.0397  -17.7070   24.0127 C   0  0  0  0  0  0
  -31.6339  -16.3349   23.4316 C   0  0  0  0  0  0
  -30.7938  -16.4525   22.1418 C   0  0  0  0  0  0
  -28.2106  -25.2679   20.2372 C   0  0  0  0  0  0
  -29.8436  -22.9758   23.8253 N   0  0  0  0  0  0
  -30.0273  -20.2110   23.2690 N   0  0  0  0  0  0
  -30.2732  -15.1615   21.6819 N   0  0  0  0  0  0
  -31.4583  -12.3948   19.0953 H   0  0  0  0  0  0
  -30.3089  -11.2795   19.7710 H   0  0  0  0  0  0
  -29.7117  -11.8042   17.4069 H   0  0  0  0  0  0
  -29.6381  -13.5145   17.7721 H   0  0  0  0  0  0
  -27.8238  -11.3103   18.8087 H   0  0  0  0  0  0
  -27.3463  -12.6368   17.7898 H   0  0  0  0  0  0
  -27.7193  -14.2520   19.5967 H   0  0  0  0  0  0
  -28.6648  -11.8997   21.3022 H   0  0  0  0  0  0
  -28.4383  -13.5159   21.8872 H   0  0  0  0  0  0
  -25.2736   -9.5671   22.4772 H   0  0  0  0  0  0
  -23.9982   -7.4619   22.7483 H   0  0  0  0  0  0
  -21.0820   -8.8726   19.8978 H   0  0  0  0  0  0
  -22.3643  -10.9640   19.6164 H   0  0  0  0  0  0
  -21.1999   -7.6132   23.9709 H   0  0  0  0  0  0
  -21.1503   -6.0528   25.9088 H   0  0  0  0  0  0
  -22.0592   -2.7588   23.2893 H   0  0  0  0  0  0
  -22.4117  -11.9848   22.4727 H   0  0  0  0  0  0
  -21.1155  -13.1264   22.2686 H   0  0  0  0  0  0
  -24.6745  -15.8464   20.5160 H   0  0  0  0  0  0
  -26.2987  -15.6158   20.1050 H   0  0  0  0  0  0
  -26.7121  -32.5471   23.1219 H   0  0  0  0  0  0
  -25.0030  -33.9787   25.0455 H   0  0  0  0  0  0
  -22.6795  -31.3064   21.4145 H   0  0  0  0  0  0
  -23.3722  -35.9695   23.3306 H   0  0  0  0  0  0
  -24.3625  -36.8939   22.2057 H   0  0  0  0  0  0
  -23.7306  -37.6536   23.6678 H   0  0  0  0  0  0
  -26.0473  -31.6102   20.6087 H   0  0  0  0  0  0
  -26.8121  -30.8735   21.9953 H   0  0  0  0  0  0
  -28.0891  -29.0924   21.1915 H   0  0  0  0  0  0
  -26.0341  -26.0177   18.9559 H   0  0  0  0  0  0
  -23.9736  -27.3209   19.0068 H   0  0  0  0  0  0
  -23.7083  -30.6121   19.4039 H   0  0  0  0  0  0
  -22.7309  -29.2537   19.8782 H   0  0  0  0  0  0
  -25.1296  -36.1980   25.0815 H   0  0  0  0  0  0
  -20.9916  -28.3239   24.1417 H   0  0  0  0  0  0
  -20.5680  -26.2238   23.3585 H   0  0  0  0  0  0
  -21.6644  -26.7430   22.1193 H   0  0  0  0  0  0
  -19.6938  -25.6278   21.1215 H   0  0  0  0  0  0
  -19.6749  -27.3190   20.6749 H   0  0  0  0  0  0
  -17.4194  -26.6624   21.3985 H   0  0  0  0  0  0
  -18.0352  -26.0054   22.9006 H   0  0  0  0  0  0
  -19.7957  -30.7250   24.2219 H   0  0  0  0  0  0
  -17.5037  -31.6260   24.5163 H   0  0  0  0  0  0
  -15.5353  -30.2968   23.7708 H   0  0  0  0  0  0
  -15.8654  -28.0859   22.7008 H   0  0  0  0  0  0
  -24.5955  -30.6970   25.7870 H   0  0  0  0  0  0
  -24.8892  -32.2801   26.4950 H   0  0  0  0  0  0
  -25.8111  -30.8885   27.0275 H   0  0  0  0  0  0
  -26.2876  -29.6735   24.1205 H   0  0  0  0  0  0
  -27.4111  -29.7302   25.4618 H   0  0  0  0  0  0
  -27.8708  -30.4311   23.9276 H   0  0  0  0  0  0
  -27.2678  -33.3625   26.2085 H   0  0  0  0  0  0
  -28.3858  -32.6848   25.0308 H   0  0  0  0  0  0
  -28.0724  -31.8427   26.5412 H   0  0  0  0  0  0
  -28.2557  -38.0129   24.7484 H   0  0  0  0  0  0
  -28.1110  -36.2634   24.6299 H   0  0  0  0  0  0
  -27.2293  -37.1472   25.8850 H   0  0  0  0  0  0
  -20.9287  -29.8755   21.6971 H   0  0  0  0  0  0
  -26.0177  -38.2822   24.1404 H   0  0  0  0  0  0
  -32.2355  -22.4681   25.9027 H   0  0  0  0  0  0
  -30.7001  -22.4198   26.7710 H   0  0  0  0  0  0
  -31.1410  -23.8452   25.8249 H   0  0  0  0  0  0
  -25.7431  -18.5292   20.7725 H   0  0  0  0  0  0
  -27.3512  -18.0772   20.2192 H   0  0  0  0  0  0
  -26.5696  -19.5216   19.5757 H   0  0  0  0  0  0
  -30.8310  -19.9820   26.3440 H   0  0  0  0  0  0
  -32.3166  -20.0124   25.4427 H   0  0  0  0  0  0
  -27.5653  -23.7296   22.6071 H   0  0  0  0  0  0
  -27.8348  -22.8416   21.1612 H   0  0  0  0  0  0
  -29.3741  -19.5548   20.9117 H   0  0  0  0  0  0
  -28.6562  -21.0305   20.3965 H   0  0  0  0  0  0
  -27.4377  -19.1406   22.4904 H   0  0  0  0  0  0
  -26.6548  -20.5785   21.8715 H   0  0  0  0  0  0
  -30.0196  -18.0665   24.8025 H   0  0  0  0  0  0
  -31.2286  -17.7223   25.9973 H   0  0  0  0  0  0
  -29.2895  -25.3215   22.1326 H   0  0  0  0  0  0
  -30.0332  -24.3246   20.9023 H   0  0  0  0  0  0
  -33.0226  -17.6273   24.4774 H   0  0  0  0  0  0
  -32.1578  -18.4177   23.1939 H   0  0  0  0  0  0
  -31.0979  -15.7630   24.1909 H   0  0  0  0  0  0
  -32.5379  -15.7644   23.2106 H   0  0  0  0  0  0
  -31.3786  -16.9327   21.3551 H   0  0  0  0  0  0
  -29.9452  -17.1116   22.3271 H   0  0  0  0  0  0
  -27.1774  -24.9861   20.4529 H   0  0  0  0  0  0
  -28.4499  -24.8258   19.2711 H   0  0  0  0  0  0
  -29.4087  -14.8470   22.1001 H   0  0  0  0  0  0
  1 25  1  0  0  0
  1 30  2  0  0  0
  1 89  1  0  0  0
  2  3  1  0  0  0
  2 25  1  0  0  0
  2 90  1  0  0  0
  2 91  1  0  0  0
  3  4  1  0  0  0
  3 92  1  0  0  0
  3 93  1  0  0  0
  4  5  1  0  0  0
  4 94  1  0  0  0
  4 95  1  0  0  0
  5  6  1  0  0  0
  5 26  1  0  0  0
  5 96  1  0  0  0
  6 25  1  0  0  0
  6 97  1  0  0  0
  6 98  1  0  0  0
  7  8  2  0  0  0
  7 26  1  0  0  0
  7 29  1  0  0  0
  8  9  1  0  0  0
  8 22  1  0  0  0
  9 10  1  0  0  0
  9 27  2  0  0  0
 10 11  2  0  0  0
 10 15  1  0  0  0
 11 12  1  0  0  0
 11 99  1  0  0  0
 12 13  2  0  0  0
 12100  1  0  0  0
 13 14  1  0  0  0
 13 31  1  0  0  0
 14 15  2  0  0  0
 14101  1  0  0  0
 15102  1  0  0  0
 16 17  2  0  0  0
 16 21  1  0  0  0
 16 31  1  0  0  0
 17 18  1  0  0  0
 17103  1  0  0  0
 18 19  2  0  0  0
 18104  1  0  0  0
 19 20  1  0  0  0
 19 24  1  0  0  0
 20 21  2  0  0  0
 20105  1  0  0  0
 21 23  1  0  0  0
 22 28  1  0  0  0
 22 32  2  0  0  0
 26 27  1  0  0  0
 28106  1  0  0  0
 28107  1  0  0  0
 29108  1  0  0  0
 29109  1  0  0  0
 33 34  1  0  0  0
 33 66  1  0  0  0
 33 70  2  0  0  0
 34 36  1  0  0  0
 34 59  1  0  0  0
 34110  1  0  0  0
 35 44  2  0  0  0
 35 45  1  0  0  0
 35 68  1  0  0  0
 36 56  1  0  0  0
 36111  1  0  0  0
 37 39  1  0  0  0
 37 47  1  0  0  0
 37 66  1  0  0  0
 37112  1  0  0  0
 38 43  2  0  0  0
 38 46  1  0  0  0
 38 47  1  0  0  0
 39 64  1  0  0  0
 39 67  2  0  0  0
 40 52  1  0  0  0
 40 53  2  0  0  0
 40 58  1  0  0  0
 41113  1  0  0  0
 41114  1  0  0  0
 41115  1  0  0  0
 41 48  1  0  0  0
 42 43  1  0  0  0
 42 66  1  0  0  0
 42116  1  0  0  0
 42117  1  0  0  0
 43 44  1  0  0  0
 44118  1  0  0  0
 45 46  2  0  0  0
 45119  1  0  0  0
 46120  1  0  0  0
 47121  1  0  0  0
 47122  1  0  0  0
 48 56  1  0  0  0
 48 65  1  0  0  0
 48123  1  0  0  0
 49 50  1  0  0  0
 49 53  1  0  0  0
 49 64  1  0  0  0
 49124  1  0  0  0
 50 51  1  0  0  0
 50125  1  0  0  0
 50126  1  0  0  0
 51 52  1  0  0  0
 51127  1  0  0  0
 51128  1  0  0  0
 52129  1  0  0  0
 52130  1  0  0  0
 53 54  1  0  0  0
 54 55  2  0  0  0
 54131  1  0  0  0
 55 57  1  0  0  0
 55132  1  0  0  0
 56 69  2  0  0  0
 57 58  2  0  0  0
 57133  1  0  0  0
 58134  1  0  0  0
 59 60  1  0  0  0
 59 61  1  0  0  0
 59 62  1  0  0  0
 60135  1  0  0  0
 60136  1  0  0  0
 60137  1  0  0  0
 61138  1  0  0  0
 61139  1  0  0  0
 61140  1  0  0  0
 62141  1  0  0  0
 62142  1  0  0  0
 62143  1  0  0  0
 63 65  1  0  0  0
 63144  1  0  0  0
 63145  1  0  0  0
 63146  1  0  0  0
 64147  1  0  0  0
 65148  1  0  0  0
 68 86  1  0  0  0
 71 72  2  0  0  0
 71 75  1  0  0  0
 71 87  1  0  0  0
 72 77  1  0  0  0
 72 88  1  0  0  0
 73 74  1  0  0  0
 73 78  1  0  0  0
 73 87  2  0  0  0
 74 79  1  0  0  0
 74 88  2  0  0  0
 75149  1  0  0  0
 75150  1  0  0  0
 75151  1  0  0  0
 76 80  1  0  0  0
 76152  1  0  0  0
 76153  1  0  0  0
 76154  1  0  0  0
 77 81  1  0  0  0
 77155  1  0  0  0
 77156  1  0  0  0
 78 82  1  0  0  0
 78157  1  0  0  0
 78158  1  0  0  0
 79 80  1  0  0  0
 79159  1  0  0  0
 79160  1  0  0  0
 80161  1  0  0  0
 80162  1  0  0  0
 81 83  1  0  0  0
 81163  1  0  0  0
 81164  1  0  0  0
 82 86  1  0  0  0
 82165  1  0  0  0
 82166  1  0  0  0
 83 84  1  0  0  0
 83167  1  0  0  0
 83168  1  0  0  0
 84 85  1  0  0  0
 84169  1  0  0  0
 84170  1  0  0  0
 85 89  1  0  0  0
 85171  1  0  0  0
 85172  1  0  0  0
 86173  1  0  0  0
 86174  1  0  0  0
 89175  1  0  0  0
M  ISO  4   1 100  68 101  86 101  89 100
M  END
> <chiral flag>
0

> <version>
0

> <s_m_source_file>
/data/baiqing/PycharmProjects/Reinvent-master-3.2/result/LINK_invent/BTK/process_docking_weight1_custom_sum_contain_oxygen_bond_distance_aromatic_linkinvent_7_9_3/rearranged_h_0039.sdf

> <i_m_source_file_index>
11

> <r_mmod_Potential_Energy-OPLS-2005>
-41.5434226989746

> <r_mmod_Stretch_Energy-OPLS-2005>
37.6255111694336

> <r_mmod_Bend_Energy-OPLS-2005>
101.193862915039

> <r_mmod_Torsional_Energy-OPLS-2005>
213.798553466797

> <r_mmod_Improper_Torsional_Energy-OPLS-2005>
2.18913125991821

> <r_mmod_Van_der_Waal_Energy-OPLS-2005>
160.631378173828

> <r_mmod_Electrostatic_Energy-OPLS-2005>
-352.508911132812

> <r_mmod_Solvation_Energy-OPLS-2005>
-214.733612060547

> <b_mmod_Minimization_Converged-OPLS-2005>
0

> <r_mmod_RMS_Derivative-OPLS-2005>
4.45902252197266

$$$$
11
                    3D
 Structure written by MMmdl.
165173  0  0  1  0            999 V2000
  -30.6275  -14.5145   20.6056 C   0  0  0  0  0  0
  -30.4296  -12.3557   19.3768 C   0  0  0  0  0  0
  -29.4838  -12.5755   18.1758 C   0  0  0  0  0  0
  -28.0053  -12.4175   18.5843 C   0  0  0  0  0  0
  -27.6653  -13.2064   19.8743 C   0  0  2  0  0  0
  -28.7089  -12.9214   20.9782 C   0  0  0  0  0  0
  -25.2621  -13.8187   20.5642 C   0  0  0  0  0  0
  -24.1852  -13.0452   20.9153 C   0  0  0  0  0  0
  -24.6399  -11.6922   20.8663 C   0  0  0  0  0  0
  -23.9022  -10.4306   21.0336 C   0  0  0  0  0  0
  -24.3588   -9.4246   21.9130 C   0  0  0  0  0  0
  -23.6289   -8.2275   22.0758 C   0  0  0  0  0  0
  -22.4249   -8.0302   21.3567 C   0  0  0  0  0  0
  -21.9850   -9.0252   20.4658 C   0  0  0  0  0  0
  -22.7170  -10.2135   20.3012 C   0  0  0  0  0  0
  -21.6875   -6.0705   22.5280 C   0  0  0  0  0  0
  -21.4043   -6.5628   23.8216 C   0  0  0  0  0  0
  -21.3646   -5.6786   24.9183 C   0  0  0  0  0  0
  -21.6036   -4.3055   24.7242 C   0  0  0  0  0  0
  -21.8833   -3.8119   23.4359 C   0  0  0  0  0  0
  -21.9220   -4.6934   22.3411 C   0  0  0  0  0  0
  -22.7880  -13.5270   21.1853 C   0  0  0  0  0  0
  -22.1689   -4.2112   21.0980 F   0  0  0  0  0  0
  -21.5612   -3.4535   25.7750 F   0  0  0  0  0  0
  -30.0371  -13.2892   20.4496 N   0  0  0  0  0  0
  -26.3052  -12.9337   20.3337 N   0  0  0  0  0  0
  -25.9328  -11.6486   20.5650 N   0  0  0  0  0  0
  -22.0487  -12.8237   22.0386 N   0  0  0  0  0  0
  -25.4370  -15.1888   20.4096 N   0  0  0  0  0  0
  -31.6677  -14.8350   20.0289 O   0  0  0  0  0  0
  -21.6680   -6.8855   21.4243 O   0  0  0  0  0  0
  -22.3528  -14.5553   20.6722 O   0  0  0  0  0  0
  -24.6258  -31.8650   23.2061 C   0  0  0  0  0  0
  -25.9154  -32.4783   23.8325 C   0  0  1  0  0  0
  -27.2205  -27.3637   20.1391 C   0  0  0  0  0  0
  -25.5967  -33.8577   24.2304 N   0  0  0  0  0  0
  -23.4097  -30.4888   21.5549 C   0  0  2  0  0  0
  -24.8532  -28.9521   20.1183 C   0  0  0  0  0  0
  -22.7432  -29.4679   22.5059 C   0  0  0  0  0  0
  -18.0260  -28.1441   22.8485 C   0  0  0  0  0  0
  -24.1492  -36.7291   23.2617 C   0  0  0  0  0  0
  -25.9458  -30.8193   21.3632 C   0  0  0  0  0  0
  -26.0232  -29.4488   20.7108 C   0  0  0  0  0  0
  -27.2101  -28.6659   20.7093 C   0  0  0  0  0  0
  -26.0267  -26.9079   19.5293 C   0  0  0  0  0  0
  -24.8547  -27.6807   19.5230 C   0  0  0  0  0  0
  -23.6195  -29.8250   20.1676 C   0  0  0  0  0  0
  -25.4099  -36.3073   24.0330 C   0  0  1  0  0  0
  -20.5846  -28.3723   23.1320 C   0  0  2  0  0  0
  -20.6811  -26.9486   22.5418 C   0  0  0  0  0  0
  -19.5784  -26.6449   21.5226 C   0  0  0  0  0  0
  -18.1941  -26.7984   22.1607 C   0  0  0  0  0  0
  -19.1519  -28.8900   23.2882 C   0  0  0  0  0  0
  -18.9465  -30.1505   23.8890 C   0  0  0  0  0  0
  -17.6474  -30.6645   24.0587 C   0  0  0  0  0  0
  -25.9053  -34.9443   23.5110 C   0  0  0  0  0  0
  -16.5358  -29.9154   23.6358 C   0  0  0  0  0  0
  -16.7253  -28.6575   23.0351 C   0  0  0  0  0  0
  -26.4545  -31.6512   25.0635 C   0  0  0  0  0  0
  -25.3812  -31.3646   26.1377 C   0  0  0  0  0  0
  -27.0314  -30.2911   24.5998 C   0  0  0  0  0  0
  -27.6103  -32.4175   25.7469 C   0  0  0  0  0  0
  -27.5573  -37.1783   24.8473 C   0  0  0  0  0  0
  -21.4169  -29.3026   22.3728 N   0  0  0  0  0  0
  -26.4283  -37.3765   23.9426 N   0  0  0  0  0  0
  -24.6791  -31.0696   22.1014 N   0  0  0  0  0  0
  -23.4165  -28.8307   23.3201 O   0  0  0  0  0  0
  -28.3495  -26.5383   20.2181 O   0  0  0  0  0  0
  -26.5590  -34.8932   22.4662 O   0  0  0  0  0  0
  -23.5438  -32.1440   23.7429 O   0  0  0  0  0  0
  -29.7575  -20.2009   20.0857 C   0  0  0  0  0  0
  -30.2743  -19.3000   20.9943 C   0  0  0  0  0  0
  -30.3415  -20.0862   22.1968 C   0  0  0  0  0  0
  -29.4071  -20.1797   26.4113 C   0  0  0  0  0  0
  -30.6731  -17.8209   20.7729 C   0  0  0  0  0  0
  -30.8573  -19.6885   23.5731 C   0  0  0  0  0  0
  -29.8263  -21.2411   25.3746 C   0  0  0  0  0  0
  -31.0841  -20.8709   24.5547 C   0  0  0  0  0  0
  -29.1875  -24.0488   20.5643 C   0  0  0  0  0  0
  -28.7024  -22.5773   20.2528 C   0  0  0  0  0  0
  -29.6521  -16.8272   21.3891 C   0  0  0  0  0  0
  -28.1145  -25.0974   20.0891 C   0  0  0  0  0  0
  -29.8189  -21.3042   22.0307 N   0  0  0  0  0  0
  -29.4773  -21.4061   20.7313 N   0  0  0  0  0  0
  -29.9050  -15.3613   21.3762 N   0  0  0  0  0  0
  -31.4607  -12.5066   19.0579 H   0  0  0  0  0  0
  -30.3730  -11.3206   19.7238 H   0  0  0  0  0  0
  -29.7247  -11.8878   17.3646 H   0  0  0  0  0  0
  -29.6462  -13.5727   17.7626 H   0  0  0  0  0  0
  -27.7947  -11.3535   18.7176 H   0  0  0  0  0  0
  -27.3661  -12.7628   17.7698 H   0  0  0  0  0  0
  -27.7224  -14.2653   19.6176 H   0  0  0  0  0  0
  -28.7017  -11.8609   21.2397 H   0  0  0  0  0  0
  -28.4428  -13.4488   21.8944 H   0  0  0  0  0  0
  -25.2716   -9.5802   22.4719 H   0  0  0  0  0  0
  -24.0040   -7.4669   22.7482 H   0  0  0  0  0  0
  -21.0766   -8.8697   19.8964 H   0  0  0  0  0  0
  -22.3546  -10.9653   19.6127 H   0  0  0  0  0  0
  -21.2044   -7.6137   23.9700 H   0  0  0  0  0  0
  -21.1451   -6.0524   25.9080 H   0  0  0  0  0  0
  -22.0620   -2.7579   23.2880 H   0  0  0  0  0  0
  -22.4097  -11.9893   22.4723 H   0  0  0  0  0  0
  -21.1117  -13.1312   22.2625 H   0  0  0  0  0  0
  -24.6753  -15.8540   20.5090 H   0  0  0  0  0  0
  -26.3036  -15.6155   20.1046 H   0  0  0  0  0  0
  -26.7241  -32.5553   23.1089 H   0  0  0  0  0  0
  -25.0140  -33.9682   25.0466 H   0  0  0  0  0  0
  -22.6993  -31.3060   21.4166 H   0  0  0  0  0  0
  -23.3729  -35.9658   23.3291 H   0  0  0  0  0  0
  -24.3605  -36.8882   22.2036 H   0  0  0  0  0  0
  -23.7279  -37.6500   23.6639 H   0  0  0  0  0  0
  -26.0487  -31.5875   20.5944 H   0  0  0  0  0  0
  -26.8346  -30.8792   21.9792 H   0  0  0  0  0  0
  -28.1098  -29.0388   21.1818 H   0  0  0  0  0  0
  -25.9641  -25.9275   19.0805 H   0  0  0  0  0  0
  -23.9566  -27.2717   19.0774 H   0  0  0  0  0  0
  -23.7372  -30.6026   19.4109 H   0  0  0  0  0  0
  -22.7384  -29.2503   19.8740 H   0  0  0  0  0  0
  -25.1283  -36.1889   25.0816 H   0  0  0  0  0  0
  -20.9885  -28.3347   24.1464 H   0  0  0  0  0  0
  -20.5792  -26.2374   23.3618 H   0  0  0  0  0  0
  -21.6701  -26.7638   22.1192 H   0  0  0  0  0  0
  -19.6994  -25.6363   21.1263 H   0  0  0  0  0  0
  -19.6730  -27.3262   20.6755 H   0  0  0  0  0  0
  -17.4250  -26.6701   21.3989 H   0  0  0  0  0  0
  -18.0364  -26.0140   22.9007 H   0  0  0  0  0  0
  -19.7958  -30.7311   24.2273 H   0  0  0  0  0  0
  -17.5051  -31.6329   24.5196 H   0  0  0  0  0  0
  -15.5366  -30.3065   23.7717 H   0  0  0  0  0  0
  -15.8644  -28.0908   22.7058 H   0  0  0  0  0  0
  -24.6092  -30.6830   25.7780 H   0  0  0  0  0  0
  -24.8903  -32.2804   26.4672 H   0  0  0  0  0  0
  -25.8205  -30.8993   27.0211 H   0  0  0  0  0  0
  -26.2890  -29.6719   24.0939 H   0  0  0  0  0  0
  -27.3911  -29.7046   25.4456 H   0  0  0  0  0  0
  -27.8809  -30.4097   23.9263 H   0  0  0  0  0  0
  -27.2731  -33.3505   26.1988 H   0  0  0  0  0  0
  -28.4026  -32.6623   25.0391 H   0  0  0  0  0  0
  -28.0626  -31.8283   26.5444 H   0  0  0  0  0  0
  -28.2583  -38.0084   24.7538 H   0  0  0  0  0  0
  -28.1067  -36.2605   24.6295 H   0  0  0  0  0  0
  -27.2311  -37.1480   25.8882 H   0  0  0  0  0  0
  -20.9430  -29.8587   21.6749 H   0  0  0  0  0  0
  -26.0130  -38.2829   24.1426 H   0  0  0  0  0  0
  -29.5261  -20.0605   19.0376 H   0  0  0  0  0  0
  -29.0858  -19.2441   25.9501 H   0  0  0  0  0  0
  -28.5620  -20.5458   26.9980 H   0  0  0  0  0  0
  -30.2262  -19.9356   27.0957 H   0  0  0  0  0  0
  -31.6535  -17.6168   21.2027 H   0  0  0  0  0  0
  -30.7589  -17.5948   19.7068 H   0  0  0  0  0  0
  -31.7985  -19.1463   23.4742 H   0  0  0  0  0  0
  -30.1814  -18.9706   24.0314 H   0  0  0  0  0  0
  -30.0213  -22.1750   25.9044 H   0  0  0  0  0  0
  -28.9931  -21.4696   24.7084 H   0  0  0  0  0  0
  -31.4579  -21.7515   24.0236 H   0  0  0  0  0  0
  -31.8748  -20.6086   25.2562 H   0  0  0  0  0  0
  -30.1453  -24.2515   20.0815 H   0  0  0  0  0  0
  -29.3574  -24.1578   21.6344 H   0  0  0  0  0  0
  -28.5575  -22.4590   19.1789 H   0  0  0  0  0  0
  -27.7111  -22.4658   20.6964 H   0  0  0  0  0  0
  -29.5006  -17.0855   22.4360 H   0  0  0  0  0  0
  -28.6818  -16.9894   20.9138 H   0  0  0  0  0  0
  -27.1952  -24.8441   20.6264 H   0  0  0  0  0  0
  -27.9173  -24.8897   19.0353 H   0  0  0  0  0  0
  -29.2207  -14.8569   21.9202 H   0  0  0  0  0  0
  1 25  1  0  0  0
  1 30  2  0  0  0
  1 85  1  0  0  0
  2  3  1  0  0  0
  2 25  1  0  0  0
  2 86  1  0  0  0
  2 87  1  0  0  0
  3  4  1  0  0  0
  3 88  1  0  0  0
  3 89  1  0  0  0
  4  5  1  0  0  0
  4 90  1  0  0  0
  4 91  1  0  0  0
  5  6  1  0  0  0
  5 26  1  0  0  0
  5 92  1  0  0  0
  6 25  1  0  0  0
  6 93  1  0  0  0
  6 94  1  0  0  0
  7  8  2  0  0  0
  7 26  1  0  0  0
  7 29  1  0  0  0
  8  9  1  0  0  0
  8 22  1  0  0  0
  9 10  1  0  0  0
  9 27  2  0  0  0
 10 11  2  0  0  0
 10 15  1  0  0  0
 11 12  1  0  0  0
 11 95  1  0  0  0
 12 13  2  0  0  0
 12 96  1  0  0  0
 13 14  1  0  0  0
 13 31  1  0  0  0
 14 15  2  0  0  0
 14 97  1  0  0  0
 15 98  1  0  0  0
 16 17  2  0  0  0
 16 21  1  0  0  0
 16 31  1  0  0  0
 17 18  1  0  0  0
 17 99  1  0  0  0
 18 19  2  0  0  0
 18100  1  0  0  0
 19 20  1  0  0  0
 19 24  1  0  0  0
 20 21  2  0  0  0
 20101  1  0  0  0
 21 23  1  0  0  0
 22 28  1  0  0  0
 22 32  2  0  0  0
 26 27  1  0  0  0
 28102  1  0  0  0
 28103  1  0  0  0
 29104  1  0  0  0
 29105  1  0  0  0
 33 34  1  0  0  0
 33 66  1  0  0  0
 33 70  2  0  0  0
 34 36  1  0  0  0
 34 59  1  0  0  0
 34106  1  0  0  0
 35 44  2  0  0  0
 35 45  1  0  0  0
 35 68  1  0  0  0
 36 56  1  0  0  0
 36107  1  0  0  0
 37 39  1  0  0  0
 37 47  1  0  0  0
 37 66  1  0  0  0
 37108  1  0  0  0
 38 43  2  0  0  0
 38 46  1  0  0  0
 38 47  1  0  0  0
 39 64  1  0  0  0
 39 67  2  0  0  0
 40 52  1  0  0  0
 40 53  2  0  0  0
 40 58  1  0  0  0
 41109  1  0  0  0
 41110  1  0  0  0
 41111  1  0  0  0
 41 48  1  0  0  0
 42 43  1  0  0  0
 42 66  1  0  0  0
 42112  1  0  0  0
 42113  1  0  0  0
 43 44  1  0  0  0
 44114  1  0  0  0
 45 46  2  0  0  0
 45115  1  0  0  0
 46116  1  0  0  0
 47117  1  0  0  0
 47118  1  0  0  0
 48 56  1  0  0  0
 48 65  1  0  0  0
 48119  1  0  0  0
 49 50  1  0  0  0
 49 53  1  0  0  0
 49 64  1  0  0  0
 49120  1  0  0  0
 50 51  1  0  0  0
 50121  1  0  0  0
 50122  1  0  0  0
 51 52  1  0  0  0
 51123  1  0  0  0
 51124  1  0  0  0
 52125  1  0  0  0
 52126  1  0  0  0
 53 54  1  0  0  0
 54 55  2  0  0  0
 54127  1  0  0  0
 55 57  1  0  0  0
 55128  1  0  0  0
 56 69  2  0  0  0
 57 58  2  0  0  0
 57129  1  0  0  0
 58130  1  0  0  0
 59 60  1  0  0  0
 59 61  1  0  0  0
 59 62  1  0  0  0
 60131  1  0  0  0
 60132  1  0  0  0
 60133  1  0  0  0
 61134  1  0  0  0
 61135  1  0  0  0
 61136  1  0  0  0
 62137  1  0  0  0
 62138  1  0  0  0
 62139  1  0  0  0
 63 65  1  0  0  0
 63140  1  0  0  0
 63141  1  0  0  0
 63142  1  0  0  0
 64143  1  0  0  0
 65144  1  0  0  0
 68 82  1  0  0  0
 71 72  2  0  0  0
 71 84  1  0  0  0
 71145  1  0  0  0
 72 73  1  0  0  0
 72 75  1  0  0  0
 73 76  1  0  0  0
 73 83  2  0  0  0
 74 77  1  0  0  0
 74146  1  0  0  0
 74147  1  0  0  0
 74148  1  0  0  0
 75 81  1  0  0  0
 75149  1  0  0  0
 75150  1  0  0  0
 76 78  1  0  0  0
 76151  1  0  0  0
 76152  1  0  0  0
 77 78  1  0  0  0
 77153  1  0  0  0
 77154  1  0  0  0
 78155  1  0  0  0
 78156  1  0  0  0
 79 80  1  0  0  0
 79 82  1  0  0  0
 79157  1  0  0  0
 79158  1  0  0  0
 80 84  1  0  0  0
 80159  1  0  0  0
 80160  1  0  0  0
 81 85  1  0  0  0
 81161  1  0  0  0
 81162  1  0  0  0
 82163  1  0  0  0
 82164  1  0  0  0
 83 84  1  0  0  0
 85165  1  0  0  0
M  ISO  4   1 100  68 101  82 101  85 100
M  END
> <chiral flag>
0

> <version>
0

> <s_m_source_file>
/data/baiqing/PycharmProjects/Reinvent-master-3.2/result/LINK_invent/BTK/process_docking_weight1_custom_sum_contain_oxygen_bond_distance_aromatic_linkinvent_7_9_3/rearranged_h_0039.sdf

> <i_m_source_file_index>
12

> <r_mmod_Potential_Energy-OPLS-2005>
-42.2035484313965

> <r_mmod_Stretch_Energy-OPLS-2005>
56.6573371887207

> <r_mmod_Bend_Energy-OPLS-2005>
138.167129516602

> <r_mmod_Torsional_Energy-OPLS-2005>
228.556945800781

> <r_mmod_Improper_Torsional_Energy-OPLS-2005>
4.73181343078613

> <r_mmod_Van_der_Waal_Energy-OPLS-2005>
129.381958007812

> <r_mmod_Electrostatic_Energy-OPLS-2005>
-406.906158447266

> <r_mmod_Solvation_Energy-OPLS-2005>
-223.399520874023

> <b_mmod_Minimization_Converged-OPLS-2005>
0

> <r_mmod_RMS_Derivative-OPLS-2005>
7.37367534637451

$$$$
12
                    3D
 Structure written by MMmdl.
165173  0  0  1  0            999 V2000
  -30.7529  -14.3702   20.6717 C   0  0  0  0  0  0
  -30.4211  -12.2843   19.3998 C   0  0  0  0  0  0
  -29.4874  -12.5203   18.1972 C   0  0  0  0  0  0
  -28.0095  -12.3865   18.6105 C   0  0  0  0  0  0
  -27.6687  -13.2024   19.8848 C   0  0  2  0  0  0
  -28.7057  -12.9317   20.9980 C   0  0  0  0  0  0
  -25.2600  -13.8165   20.5677 C   0  0  0  0  0  0
  -24.1837  -13.0442   20.9162 C   0  0  0  0  0  0
  -24.6384  -11.6911   20.8721 C   0  0  0  0  0  0
  -23.9048  -10.4295   21.0391 C   0  0  0  0  0  0
  -24.3597   -9.4216   21.9178 C   0  0  0  0  0  0
  -23.6280   -8.2249   22.0750 C   0  0  0  0  0  0
  -22.4268   -8.0276   21.3538 C   0  0  0  0  0  0
  -21.9902   -9.0245   20.4631 C   0  0  0  0  0  0
  -22.7220  -10.2129   20.3040 C   0  0  0  0  0  0
  -21.6848   -6.0730   22.5274 C   0  0  0  0  0  0
  -21.4007   -6.5633   23.8210 C   0  0  0  0  0  0
  -21.3658   -5.6787   24.9174 C   0  0  0  0  0  0
  -21.6044   -4.3053   24.7225 C   0  0  0  0  0  0
  -21.8824   -3.8140   23.4351 C   0  0  0  0  0  0
  -21.9194   -4.6956   22.3401 C   0  0  0  0  0  0
  -22.7861  -13.5241   21.1837 C   0  0  0  0  0  0
  -22.1662   -4.2141   21.0980 F   0  0  0  0  0  0
  -21.5632   -3.4537   25.7743 F   0  0  0  0  0  0
  -30.0511  -13.2259   20.4656 N   0  0  0  0  0  0
  -26.3048  -12.9329   20.3399 N   0  0  0  0  0  0
  -25.9311  -11.6489   20.5759 N   0  0  0  0  0  0
  -22.0490  -12.8223   22.0379 N   0  0  0  0  0  0
  -25.4342  -15.1879   20.4087 N   0  0  0  0  0  0
  -31.7819  -14.6612   20.0542 O   0  0  0  0  0  0
  -21.6633   -6.8870   21.4238 O   0  0  0  0  0  0
  -22.3546  -14.5553   20.6697 O   0  0  0  0  0  0
  -24.6109  -31.8703   23.2118 C   0  0  0  0  0  0
  -25.9031  -32.4824   23.8400 C   0  0  1  0  0  0
  -27.2465  -27.4685   20.0782 C   0  0  0  0  0  0
  -25.5913  -33.8622   24.2336 N   0  0  0  0  0  0
  -23.3961  -30.4929   21.5516 C   0  0  2  0  0  0
  -24.8447  -28.9578   20.1174 C   0  0  0  0  0  0
  -22.7368  -29.4685   22.5012 C   0  0  0  0  0  0
  -18.0268  -28.1371   22.8520 C   0  0  0  0  0  0
  -24.1481  -36.7298   23.2638 C   0  0  0  0  0  0
  -25.9208  -30.8420   21.3616 C   0  0  0  0  0  0
  -25.9997  -29.4748   20.7167 C   0  0  0  0  0  0
  -27.1975  -28.7298   20.7098 C   0  0  0  0  0  0
  -26.0700  -26.9515   19.4917 C   0  0  0  0  0  0
  -24.8716  -27.6897   19.5107 C   0  0  0  0  0  0
  -23.6023  -29.8180   20.1683 C   0  0  0  0  0  0
  -25.4107  -36.3102   24.0329 C   0  0  1  0  0  0
  -20.5853  -28.3661   23.1333 C   0  0  2  0  0  0
  -20.6750  -26.9403   22.5425 C   0  0  0  0  0  0
  -19.5721  -26.6385   21.5223 C   0  0  0  0  0  0
  -18.1900  -26.7928   22.1634 C   0  0  0  0  0  0
  -19.1518  -28.8833   23.2924 C   0  0  0  0  0  0
  -18.9446  -30.1443   23.8928 C   0  0  0  0  0  0
  -17.6449  -30.6583   24.0581 C   0  0  0  0  0  0
  -25.9036  -34.9472   23.5121 C   0  0  0  0  0  0
  -16.5343  -29.9087   23.6336 C   0  0  0  0  0  0
  -16.7259  -28.6500   23.0367 C   0  0  0  0  0  0
  -26.4469  -31.6598   25.0723 C   0  0  0  0  0  0
  -25.3743  -31.3665   26.1469 C   0  0  0  0  0  0
  -27.0311  -30.3055   24.6072 C   0  0  0  0  0  0
  -27.6050  -32.4313   25.7493 C   0  0  0  0  0  0
  -27.5566  -37.1800   24.8467 C   0  0  0  0  0  0
  -21.4106  -29.3039   22.3741 N   0  0  0  0  0  0
  -26.4284  -37.3791   23.9408 N   0  0  0  0  0  0
  -24.6604  -31.0821   22.1006 N   0  0  0  0  0  0
  -23.4152  -28.8235   23.3050 O   0  0  0  0  0  0
  -28.4397  -26.7827   20.0649 O   0  0  0  0  0  0
  -26.5591  -34.8920   22.4677 O   0  0  0  0  0  0
  -23.5319  -32.1461   23.7537 O   0  0  0  0  0  0
  -27.8362  -21.9270   18.5473 C   0  0  0  0  0  0
  -27.6109  -24.2108   17.7246 C   0  0  0  0  0  0
  -28.9774  -23.7517   19.6894 C   0  0  0  0  0  0
  -27.2906  -22.8436   17.6248 C   0  0  0  0  0  0
  -28.6937  -22.3716   19.5814 C   0  0  0  0  0  0
  -28.4431  -24.6729   18.7642 C   0  0  0  0  0  0
  -27.1053  -22.1267   15.1998 C   0  0  0  0  0  0
  -26.3649  -22.3653   16.5204 C   0  0  0  0  0  0
  -29.3366  -21.4124   20.5831 C   0  0  0  0  0  0
  -28.8170  -26.1448   18.8451 C   0  0  0  0  0  0
  -29.1756  -19.9100   20.2768 C   0  0  0  0  0  0
  -29.9729  -19.0086   21.2356 C   0  0  0  0  0  0
  -29.7598  -17.5158   20.9388 C   0  0  0  0  0  0
  -30.6094  -16.5831   21.8193 C   0  0  0  0  0  0
  -30.2293  -15.1927   21.5882 N   0  0  0  0  0  0
  -31.4633  -12.3923   19.0931 H   0  0  0  0  0  0
  -30.3253  -11.2606   19.7652 H   0  0  0  0  0  0
  -29.7155  -11.8115   17.4003 H   0  0  0  0  0  0
  -29.6651  -13.5138   17.7830 H   0  0  0  0  0  0
  -27.8052  -11.3291   18.7833 H   0  0  0  0  0  0
  -27.3607  -12.6903   17.7878 H   0  0  0  0  0  0
  -27.7315  -14.2581   19.6192 H   0  0  0  0  0  0
  -28.6653  -11.8850   21.3022 H   0  0  0  0  0  0
  -28.4523  -13.4962   21.8950 H   0  0  0  0  0  0
  -25.2739   -9.5701   22.4755 H   0  0  0  0  0  0
  -23.9990   -7.4648   22.7479 H   0  0  0  0  0  0
  -21.0839   -8.8752   19.8931 H   0  0  0  0  0  0
  -22.3675  -10.9661   19.6142 H   0  0  0  0  0  0
  -21.1994   -7.6141   23.9711 H   0  0  0  0  0  0
  -21.1472   -6.0515   25.9077 H   0  0  0  0  0  0
  -22.0605   -2.7604   23.2855 H   0  0  0  0  0  0
  -22.4090  -11.9872   22.4757 H   0  0  0  0  0  0
  -21.1099  -13.1235   22.2564 H   0  0  0  0  0  0
  -24.6728  -15.8497   20.5124 H   0  0  0  0  0  0
  -26.2995  -15.6236   20.1139 H   0  0  0  0  0  0
  -26.7107  -32.5562   23.1174 H   0  0  0  0  0  0
  -25.0077  -33.9791   25.0492 H   0  0  0  0  0  0
  -22.6840  -31.3086   21.4108 H   0  0  0  0  0  0
  -23.3750  -35.9621   23.3312 H   0  0  0  0  0  0
  -24.3567  -36.8919   22.2051 H   0  0  0  0  0  0
  -23.7229  -37.6498   23.6660 H   0  0  0  0  0  0
  -26.0250  -31.6049   20.5889 H   0  0  0  0  0  0
  -26.8123  -30.9033   21.9747 H   0  0  0  0  0  0
  -28.0896  -29.1304   21.1715 H   0  0  0  0  0  0
  -26.0652  -25.9767   19.0294 H   0  0  0  0  0  0
  -23.9810  -27.2762   19.0581 H   0  0  0  0  0  0
  -23.6980  -30.5873   19.4013 H   0  0  0  0  0  0
  -22.7290  -29.2285   19.8828 H   0  0  0  0  0  0
  -25.1281  -36.1951   25.0818 H   0  0  0  0  0  0
  -20.9955  -28.3239   24.1450 H   0  0  0  0  0  0
  -20.5670  -26.2270   23.3605 H   0  0  0  0  0  0
  -21.6617  -26.7447   22.1217 H   0  0  0  0  0  0
  -19.6887  -25.6306   21.1227 H   0  0  0  0  0  0
  -19.6647  -27.3216   20.6769 H   0  0  0  0  0  0
  -17.4172  -26.6717   21.4027 H   0  0  0  0  0  0
  -18.0281  -26.0046   22.8999 H   0  0  0  0  0  0
  -19.7918  -30.7255   24.2304 H   0  0  0  0  0  0
  -17.5003  -31.6263   24.5183 H   0  0  0  0  0  0
  -15.5344  -30.2994   23.7636 H   0  0  0  0  0  0
  -15.8659  -28.0817   22.7080 H   0  0  0  0  0  0
  -24.5908  -30.7030   25.7786 H   0  0  0  0  0  0
  -24.8938  -32.2802   26.4970 H   0  0  0  0  0  0
  -25.8102  -30.8778   27.0191 H   0  0  0  0  0  0
  -26.2849  -29.6802   24.1153 H   0  0  0  0  0  0
  -27.4146  -29.7289   25.4504 H   0  0  0  0  0  0
  -27.8646  -30.4405   23.9173 H   0  0  0  0  0  0
  -27.2701  -33.3641   26.2041 H   0  0  0  0  0  0
  -28.3877  -32.6826   25.0324 H   0  0  0  0  0  0
  -28.0685  -31.8444   26.5433 H   0  0  0  0  0  0
  -28.2582  -38.0098   24.7519 H   0  0  0  0  0  0
  -28.1059  -36.2626   24.6294 H   0  0  0  0  0  0
  -27.2272  -37.1461   25.8867 H   0  0  0  0  0  0
  -20.9253  -29.8767   21.6978 H   0  0  0  0  0  0
  -26.0166  -38.2861   24.1429 H   0  0  0  0  0  0
  -27.5920  -20.8802   18.4402 H   0  0  0  0  0  0
  -27.2127  -24.9083   17.0006 H   0  0  0  0  0  0
  -29.6267  -24.1093   20.4767 H   0  0  0  0  0  0
  -26.4137  -21.8077   14.4196 H   0  0  0  0  0  0
  -27.8661  -21.3527   15.3072 H   0  0  0  0  0  0
  -27.5970  -23.0358   14.8524 H   0  0  0  0  0  0
  -25.5766  -23.1049   16.3704 H   0  0  0  0  0  0
  -25.8627  -21.4494   16.8349 H   0  0  0  0  0  0
  -28.9313  -21.6252   21.5730 H   0  0  0  0  0  0
  -30.4000  -21.6505   20.6323 H   0  0  0  0  0  0
  -28.4322  -26.6924   17.9827 H   0  0  0  0  0  0
  -29.9030  -26.2089   18.7704 H   0  0  0  0  0  0
  -29.5110  -19.7096   19.2576 H   0  0  0  0  0  0
  -28.1190  -19.6400   20.3225 H   0  0  0  0  0  0
  -29.6788  -19.2178   22.2654 H   0  0  0  0  0  0
  -31.0349  -19.2480   21.1620 H   0  0  0  0  0  0
  -29.9904  -17.3190   19.8901 H   0  0  0  0  0  0
  -28.7028  -17.2760   21.0717 H   0  0  0  0  0  0
  -30.4522  -16.8117   22.8740 H   0  0  0  0  0  0
  -31.6725  -16.7371   21.6231 H   0  0  0  0  0  0
  -29.4229  -14.8467   22.0873 H   0  0  0  0  0  0
  1 25  1  0  0  0
  1 30  2  0  0  0
  1 85  1  0  0  0
  2  3  1  0  0  0
  2 25  1  0  0  0
  2 86  1  0  0  0
  2 87  1  0  0  0
  3  4  1  0  0  0
  3 88  1  0  0  0
  3 89  1  0  0  0
  4  5  1  0  0  0
  4 90  1  0  0  0
  4 91  1  0  0  0
  5  6  1  0  0  0
  5 26  1  0  0  0
  5 92  1  0  0  0
  6 25  1  0  0  0
  6 93  1  0  0  0
  6 94  1  0  0  0
  7  8  2  0  0  0
  7 26  1  0  0  0
  7 29  1  0  0  0
  8  9  1  0  0  0
  8 22  1  0  0  0
  9 10  1  0  0  0
  9 27  2  0  0  0
 10 11  2  0  0  0
 10 15  1  0  0  0
 11 12  1  0  0  0
 11 95  1  0  0  0
 12 13  2  0  0  0
 12 96  1  0  0  0
 13 14  1  0  0  0
 13 31  1  0  0  0
 14 15  2  0  0  0
 14 97  1  0  0  0
 15 98  1  0  0  0
 16 17  2  0  0  0
 16 21  1  0  0  0
 16 31  1  0  0  0
 17 18  1  0  0  0
 17 99  1  0  0  0
 18 19  2  0  0  0
 18100  1  0  0  0
 19 20  1  0  0  0
 19 24  1  0  0  0
 20 21  2  0  0  0
 20101  1  0  0  0
 21 23  1  0  0  0
 22 28  1  0  0  0
 22 32  2  0  0  0
 26 27  1  0  0  0
 28102  1  0  0  0
 28103  1  0  0  0
 29104  1  0  0  0
 29105  1  0  0  0
 33 34  1  0  0  0
 33 66  1  0  0  0
 33 70  2  0  0  0
 34 36  1  0  0  0
 34 59  1  0  0  0
 34106  1  0  0  0
 35 44  2  0  0  0
 35 45  1  0  0  0
 35 68  1  0  0  0
 36 56  1  0  0  0
 36107  1  0  0  0
 37 39  1  0  0  0
 37 47  1  0  0  0
 37 66  1  0  0  0
 37108  1  0  0  0
 38 43  2  0  0  0
 38 46  1  0  0  0
 38 47  1  0  0  0
 39 64  1  0  0  0
 39 67  2  0  0  0
 40 52  1  0  0  0
 40 53  2  0  0  0
 40 58  1  0  0  0
 41109  1  0  0  0
 41110  1  0  0  0
 41111  1  0  0  0
 41 48  1  0  0  0
 42 43  1  0  0  0
 42 66  1  0  0  0
 42112  1  0  0  0
 42113  1  0  0  0
 43 44  1  0  0  0
 44114  1  0  0  0
 45 46  2  0  0  0
 45115  1  0  0  0
 46116  1  0  0  0
 47117  1  0  0  0
 47118  1  0  0  0
 48 56  1  0  0  0
 48 65  1  0  0  0
 48119  1  0  0  0
 49 50  1  0  0  0
 49 53  1  0  0  0
 49 64  1  0  0  0
 49120  1  0  0  0
 50 51  1  0  0  0
 50121  1  0  0  0
 50122  1  0  0  0
 51 52  1  0  0  0
 51123  1  0  0  0
 51124  1  0  0  0
 52125  1  0  0  0
 52126  1  0  0  0
 53 54  1  0  0  0
 54 55  2  0  0  0
 54127  1  0  0  0
 55 57  1  0  0  0
 55128  1  0  0  0
 56 69  2  0  0  0
 57 58  2  0  0  0
 57129  1  0  0  0
 58130  1  0  0  0
 59 60  1  0  0  0
 59 61  1  0  0  0
 59 62  1  0  0  0
 60131  1  0  0  0
 60132  1  0  0  0
 60133  1  0  0  0
 61134  1  0  0  0
 61135  1  0  0  0
 61136  1  0  0  0
 62137  1  0  0  0
 62138  1  0  0  0
 62139  1  0  0  0
 63 65  1  0  0  0
 63140  1  0  0  0
 63141  1  0  0  0
 63142  1  0  0  0
 64143  1  0  0  0
 65144  1  0  0  0
 68 80  1  0  0  0
 71 74  2  0  0  0
 71 75  1  0  0  0
 71145  1  0  0  0
 72 74  1  0  0  0
 72 76  2  0  0  0
 72146  1  0  0  0
 73 75  2  0  0  0
 73 76  1  0  0  0
 73147  1  0  0  0
 74 78  1  0  0  0
 75 79  1  0  0  0
 76 80  1  0  0  0
 77 78  1  0  0  0
 77148  1  0  0  0
 77149  1  0  0  0
 77150  1  0  0  0
 78151  1  0  0  0
 78152  1  0  0  0
 79 81  1  0  0  0
 79153  1  0  0  0
 79154  1  0  0  0
 80155  1  0  0  0
 80156  1  0  0  0
 81 82  1  0  0  0
 81157  1  0  0  0
 81158  1  0  0  0
 82 83  1  0  0  0
 82159  1  0  0  0
 82160  1  0  0  0
 83 84  1  0  0  0
 83161  1  0  0  0
 83162  1  0  0  0
 84 85  1  0  0  0
 84163  1  0  0  0
 84164  1  0  0  0
 85165  1  0  0  0
M  ISO  4   1 100  68 101  80 101  85 100
M  END
> <chiral flag>
0

> <version>
0

> <s_m_source_file>
/data/baiqing/PycharmProjects/Reinvent-master-3.2/result/LINK_invent/BTK/process_docking_weight1_custom_sum_contain_oxygen_bond_distance_aromatic_linkinvent_7_9_3/rearranged_h_0039.sdf

> <i_m_source_file_index>
13

> <r_mmod_Potential_Energy-OPLS-2005>
-76.2433700561523

> <r_mmod_Stretch_Energy-OPLS-2005>
32.0071449279785

> <r_mmod_Bend_Energy-OPLS-2005>
88.2491836547852

> <r_mmod_Torsional_Energy-OPLS-2005>
207.948791503906

> <r_mmod_Improper_Torsional_Energy-OPLS-2005>
2.05549716949463

> <r_mmod_Van_der_Waal_Energy-OPLS-2005>
150.587600708008

> <r_mmod_Electrostatic_Energy-OPLS-2005>
-363.820526123047

> <r_mmod_Solvation_Energy-OPLS-2005>
-200.08869934082

> <b_mmod_Minimization_Converged-OPLS-2005>
0

> <r_mmod_RMS_Derivative-OPLS-2005>
1.44404482841492

$$$$
13
                    3D
 Structure written by MMmdl.
172180  0  0  1  0            999 V2000
  -30.7635  -14.2944   20.7721 C   0  0  0  0  0  0
  -30.4251  -12.2950   19.3634 C   0  0  0  0  0  0
  -29.4826  -12.5628   18.1763 C   0  0  0  0  0  0
  -28.0076  -12.4064   18.5904 C   0  0  0  0  0  0
  -27.6709  -13.1935   19.8842 C   0  0  2  0  0  0
  -28.6995  -12.8764   20.9873 C   0  0  0  0  0  0
  -25.2627  -13.8135   20.5642 C   0  0  0  0  0  0
  -24.1857  -13.0437   20.9133 C   0  0  0  0  0  0
  -24.6389  -11.6884   20.8671 C   0  0  0  0  0  0
  -23.9050  -10.4292   21.0363 C   0  0  0  0  0  0
  -24.3605   -9.4212   21.9149 C   0  0  0  0  0  0
  -23.6287   -8.2247   22.0741 C   0  0  0  0  0  0
  -22.4262   -8.0287   21.3551 C   0  0  0  0  0  0
  -21.9893   -9.0249   20.4642 C   0  0  0  0  0  0
  -22.7207  -10.2132   20.3035 C   0  0  0  0  0  0
  -21.6888   -6.0734   22.5274 C   0  0  0  0  0  0
  -21.4031   -6.5631   23.8205 C   0  0  0  0  0  0
  -21.3651   -5.6774   24.9162 C   0  0  0  0  0  0
  -21.6043   -4.3041   24.7217 C   0  0  0  0  0  0
  -21.8820   -3.8141   23.4340 C   0  0  0  0  0  0
  -21.9208   -4.6961   22.3399 C   0  0  0  0  0  0
  -22.7872  -13.5235   21.1816 C   0  0  0  0  0  0
  -22.1654   -4.2133   21.0982 F   0  0  0  0  0  0
  -21.5636   -3.4526   25.7736 F   0  0  0  0  0  0
  -30.0466  -13.1849   20.4689 N   0  0  0  0  0  0
  -26.3073  -12.9283   20.3377 N   0  0  0  0  0  0
  -25.9316  -11.6453   20.5694 N   0  0  0  0  0  0
  -22.0534  -12.8257   22.0405 N   0  0  0  0  0  0
  -25.4401  -15.1846   20.3997 N   0  0  0  0  0  0
  -31.7349  -14.6869   20.1163 O   0  0  0  0  0  0
  -21.6637   -6.8877   21.4246 O   0  0  0  0  0  0
  -22.3534  -14.5530   20.6662 O   0  0  0  0  0  0
  -24.6122  -31.8708   23.2111 C   0  0  0  0  0  0
  -25.9033  -32.4817   23.8401 C   0  0  1  0  0  0
  -27.2421  -27.4533   20.0635 C   0  0  0  0  0  0
  -25.5921  -33.8622   24.2315 N   0  0  0  0  0  0
  -23.3974  -30.4916   21.5523 C   0  0  2  0  0  0
  -24.8452  -28.9629   20.1105 C   0  0  0  0  0  0
  -22.7385  -29.4643   22.5006 C   0  0  0  0  0  0
  -18.0261  -28.1352   22.8481 C   0  0  0  0  0  0
  -24.1506  -36.7304   23.2627 C   0  0  0  0  0  0
  -25.9280  -30.8297   21.3731 C   0  0  0  0  0  0
  -26.0039  -29.4712   20.7092 C   0  0  0  0  0  0
  -27.1996  -28.7209   20.6864 C   0  0  0  0  0  0
  -26.0630  -26.9624   19.4515 C   0  0  0  0  0  0
  -24.8696  -27.7061   19.4854 C   0  0  0  0  0  0
  -23.6051  -29.8244   20.1670 C   0  0  0  0  0  0
  -25.4132  -36.3095   24.0321 C   0  0  1  0  0  0
  -20.5845  -28.3642   23.1329 C   0  0  2  0  0  0
  -20.6769  -26.9386   22.5412 C   0  0  0  0  0  0
  -19.5758  -26.6373   21.5198 C   0  0  0  0  0  0
  -18.1927  -26.7897   22.1605 C   0  0  0  0  0  0
  -19.1508  -28.8817   23.2896 C   0  0  0  0  0  0
  -18.9444  -30.1423   23.8906 C   0  0  0  0  0  0
  -17.6454  -30.6575   24.0553 C   0  0  0  0  0  0
  -25.9058  -34.9470   23.5116 C   0  0  0  0  0  0
  -16.5343  -29.9073   23.6321 C   0  0  0  0  0  0
  -16.7253  -28.6481   23.0351 C   0  0  0  0  0  0
  -26.4474  -31.6591   25.0730 C   0  0  0  0  0  0
  -25.3714  -31.3719   26.1460 C   0  0  0  0  0  0
  -27.0288  -30.3015   24.6126 C   0  0  0  0  0  0
  -27.6069  -32.4309   25.7482 C   0  0  0  0  0  0
  -27.5583  -37.1798   24.8456 C   0  0  0  0  0  0
  -21.4112  -29.3019   22.3741 N   0  0  0  0  0  0
  -26.4314  -37.3780   23.9382 N   0  0  0  0  0  0
  -24.6615  -31.0811   22.1016 N   0  0  0  0  0  0
  -23.4170  -28.8184   23.3037 O   0  0  0  0  0  0
  -28.4397  -26.7656   20.0753 O   0  0  0  0  0  0
  -26.5607  -34.8922   22.4665 O   0  0  0  0  0  0
  -23.5330  -32.1492   23.7517 O   0  0  0  0  0  0
  -31.4363  -25.9113   18.0486 C   0  0  0  0  0  0
  -31.1610  -23.7947   18.7039 C   0  0  0  0  0  0
  -32.6830  -25.3635   18.1916 C   0  0  0  0  0  0
  -32.5108  -24.0109   18.6278 C   0  0  0  0  0  0
  -33.9890  -26.0722   17.9304 C   0  0  0  0  0  0
  -33.6192  -23.0155   18.9251 C   0  0  0  0  0  0
  -33.2000  -21.7410   19.6907 C   0  0  0  0  0  0
  -32.6816  -22.0007   21.1198 C   0  0  0  0  0  0
  -32.5841  -20.7515   22.0096 C   0  0  0  0  0  0
  -31.7224  -19.6225   21.4249 C   0  0  0  0  0  0
  -31.4849  -18.4929   22.4349 C   0  0  0  0  0  0
  -30.7532  -17.3012   21.8087 C   0  0  0  0  0  0
  -29.0495  -25.1250   18.3403 C   0  0  0  0  0  0
  -30.9896  -16.0042   22.5903 C   0  0  0  0  0  0
  -28.4720  -25.3717   19.7459 C   0  0  0  0  0  0
  -30.4952  -24.9562   18.3655 N   0  0  0  0  0  0
  -30.3801  -14.8662   21.9227 N   0  0  0  0  0  0
  -31.4585  -12.4449   19.0510 H   0  0  0  0  0  0
  -30.3616  -11.2524   19.6797 H   0  0  0  0  0  0
  -29.7167  -11.8982   17.3423 H   0  0  0  0  0  0
  -29.6431  -13.5804   17.8144 H   0  0  0  0  0  0
  -27.8059  -11.3441   18.7294 H   0  0  0  0  0  0
  -27.3567  -12.7352   17.7790 H   0  0  0  0  0  0
  -27.7470  -14.2565   19.6507 H   0  0  0  0  0  0
  -28.6602  -11.8161   21.2463 H   0  0  0  0  0  0
  -28.4249  -13.4047   21.9011 H   0  0  0  0  0  0
  -25.2763   -9.5704   22.4707 H   0  0  0  0  0  0
  -24.0026   -7.4637   22.7437 H   0  0  0  0  0  0
  -21.0845   -8.8749   19.8923 H   0  0  0  0  0  0
  -22.3654  -10.9671   19.6139 H   0  0  0  0  0  0
  -21.2013   -7.6130   23.9713 H   0  0  0  0  0  0
  -21.1478   -6.0496   25.9064 H   0  0  0  0  0  0
  -22.0620   -2.7610   23.2836 H   0  0  0  0  0  0
  -22.4162  -11.9917   22.4794 H   0  0  0  0  0  0
  -21.1138  -13.1296   22.2548 H   0  0  0  0  0  0
  -24.6881  -15.8560   20.5085 H   0  0  0  0  0  0
  -26.3127  -15.6155   20.1227 H   0  0  0  0  0  0
  -26.7083  -32.5509   23.1139 H   0  0  0  0  0  0
  -25.0076  -33.9827   25.0459 H   0  0  0  0  0  0
  -22.6847  -31.3071   21.4116 H   0  0  0  0  0  0
  -23.3774  -35.9628   23.3318 H   0  0  0  0  0  0
  -24.3576  -36.8911   22.2031 H   0  0  0  0  0  0
  -23.7290  -37.6530   23.6638 H   0  0  0  0  0  0
  -26.0604  -31.6066   20.6197 H   0  0  0  0  0  0
  -26.8093  -30.8622   22.0014 H   0  0  0  0  0  0
  -28.0945  -29.1105   21.1534 H   0  0  0  0  0  0
  -26.0424  -26.0197   18.9264 H   0  0  0  0  0  0
  -23.9791  -27.3132   19.0141 H   0  0  0  0  0  0
  -23.7067  -30.6021   19.4100 H   0  0  0  0  0  0
  -22.7303  -29.2417   19.8700 H   0  0  0  0  0  0
  -25.1316  -36.1949   25.0819 H   0  0  0  0  0  0
  -20.9918  -28.3196   24.1456 H   0  0  0  0  0  0
  -20.5686  -26.2232   23.3580 H   0  0  0  0  0  0
  -21.6639  -26.7450   22.1188 H   0  0  0  0  0  0
  -19.6946  -25.6288   21.1217 H   0  0  0  0  0  0
  -19.6722  -27.3192   20.6737 H   0  0  0  0  0  0
  -17.4199  -26.6632   21.4008 H   0  0  0  0  0  0
  -18.0347  -26.0029   22.8996 H   0  0  0  0  0  0
  -19.7937  -30.7215   24.2289 H   0  0  0  0  0  0
  -17.5029  -31.6267   24.5136 H   0  0  0  0  0  0
  -15.5352  -30.2992   23.7661 H   0  0  0  0  0  0
  -15.8637  -28.0818   22.7082 H   0  0  0  0  0  0
  -24.5917  -30.7021   25.7807 H   0  0  0  0  0  0
  -24.8849  -32.2870   26.4859 H   0  0  0  0  0  0
  -25.8057  -30.8938   27.0244 H   0  0  0  0  0  0
  -26.2823  -29.6791   24.1157 H   0  0  0  0  0  0
  -27.4014  -29.7259   25.4617 H   0  0  0  0  0  0
  -27.8700  -30.4336   23.9303 H   0  0  0  0  0  0
  -27.2715  -33.3636   26.2050 H   0  0  0  0  0  0
  -28.3880  -32.6822   25.0279 H   0  0  0  0  0  0
  -28.0708  -31.8400   26.5398 H   0  0  0  0  0  0
  -28.2603  -38.0089   24.7504 H   0  0  0  0  0  0
  -28.1080  -36.2624   24.6295 H   0  0  0  0  0  0
  -27.2278  -37.1473   25.8852 H   0  0  0  0  0  0
  -20.9271  -29.8728   21.6952 H   0  0  0  0  0  0
  -26.0203  -38.2857   24.1384 H   0  0  0  0  0  0
  -31.1266  -26.9029   17.7428 H   0  0  0  0  0  0
  -30.6087  -22.9061   18.9809 H   0  0  0  0  0  0
  -33.8376  -26.9395   17.2868 H   0  0  0  0  0  0
  -34.7035  -25.4132   17.4369 H   0  0  0  0  0  0
  -34.4271  -26.4138   18.8680 H   0  0  0  0  0  0
  -34.4009  -23.5273   19.4890 H   0  0  0  0  0  0
  -34.0736  -22.7271   17.9762 H   0  0  0  0  0  0
  -34.0712  -21.0842   19.7418 H   0  0  0  0  0  0
  -32.4494  -21.1973   19.1179 H   0  0  0  0  0  0
  -31.7035  -22.4792   21.0853 H   0  0  0  0  0  0
  -33.3512  -22.7091   21.6056 H   0  0  0  0  0  0
  -32.1769  -21.0504   22.9778 H   0  0  0  0  0  0
  -33.5873  -20.3778   22.2129 H   0  0  0  0  0  0
  -32.2294  -19.2079   20.5533 H   0  0  0  0  0  0
  -30.7667  -20.0120   21.0720 H   0  0  0  0  0  0
  -30.9153  -18.8609   23.2902 H   0  0  0  0  0  0
  -32.4499  -18.1573   22.8185 H   0  0  0  0  0  0
  -31.1135  -17.1712   20.7894 H   0  0  0  0  0  0
  -29.6821  -17.5087   21.7386 H   0  0  0  0  0  0
  -28.7838  -25.9333   17.6596 H   0  0  0  0  0  0
  -28.6197  -24.2145   17.9212 H   0  0  0  0  0  0
  -30.5550  -16.0843   23.5894 H   0  0  0  0  0  0
  -32.0574  -15.8191   22.7219 H   0  0  0  0  0  0
  -29.0972  -24.8722   20.4862 H   0  0  0  0  0  0
  -27.5108  -24.8751   19.8513 H   0  0  0  0  0  0
  -29.6055  -14.4253   22.3992 H   0  0  0  0  0  0
  1 25  1  0  0  0
  1 30  2  0  0  0
  1 87  1  0  0  0
  2  3  1  0  0  0
  2 25  1  0  0  0
  2 88  1  0  0  0
  2 89  1  0  0  0
  3  4  1  0  0  0
  3 90  1  0  0  0
  3 91  1  0  0  0
  4  5  1  0  0  0
  4 92  1  0  0  0
  4 93  1  0  0  0
  5  6  1  0  0  0
  5 26  1  0  0  0
  5 94  1  0  0  0
  6 25  1  0  0  0
  6 95  1  0  0  0
  6 96  1  0  0  0
  7  8  2  0  0  0
  7 26  1  0  0  0
  7 29  1  0  0  0
  8  9  1  0  0  0
  8 22  1  0  0  0
  9 10  1  0  0  0
  9 27  2  0  0  0
 10 11  2  0  0  0
 10 15  1  0  0  0
 11 12  1  0  0  0
 11 97  1  0  0  0
 12 13  2  0  0  0
 12 98  1  0  0  0
 13 14  1  0  0  0
 13 31  1  0  0  0
 14 15  2  0  0  0
 14 99  1  0  0  0
 15100  1  0  0  0
 16 17  2  0  0  0
 16 21  1  0  0  0
 16 31  1  0  0  0
 17 18  1  0  0  0
 17101  1  0  0  0
 18 19  2  0  0  0
 18102  1  0  0  0
 19 20  1  0  0  0
 19 24  1  0  0  0
 20 21  2  0  0  0
 20103  1  0  0  0
 21 23  1  0  0  0
 22 28  1  0  0  0
 22 32  2  0  0  0
 26 27  1  0  0  0
 28104  1  0  0  0
 28105  1  0  0  0
 29106  1  0  0  0
 29107  1  0  0  0
 33 34  1  0  0  0
 33 66  1  0  0  0
 33 70  2  0  0  0
 34 36  1  0  0  0
 34 59  1  0  0  0
 34108  1  0  0  0
 35 44  2  0  0  0
 35 45  1  0  0  0
 35 68  1  0  0  0
 36 56  1  0  0  0
 36109  1  0  0  0
 37 39  1  0  0  0
 37 47  1  0  0  0
 37 66  1  0  0  0
 37110  1  0  0  0
 38 43  2  0  0  0
 38 46  1  0  0  0
 38 47  1  0  0  0
 39 64  1  0  0  0
 39 67  2  0  0  0
 40 52  1  0  0  0
 40 53  2  0  0  0
 40 58  1  0  0  0
 41111  1  0  0  0
 41112  1  0  0  0
 41113  1  0  0  0
 41 48  1  0  0  0
 42 43  1  0  0  0
 42 66  1  0  0  0
 42114  1  0  0  0
 42115  1  0  0  0
 43 44  1  0  0  0
 44116  1  0  0  0
 45 46  2  0  0  0
 45117  1  0  0  0
 46118  1  0  0  0
 47119  1  0  0  0
 47120  1  0  0  0
 48 56  1  0  0  0
 48 65  1  0  0  0
 48121  1  0  0  0
 49 50  1  0  0  0
 49 53  1  0  0  0
 49 64  1  0  0  0
 49122  1  0  0  0
 50 51  1  0  0  0
 50123  1  0  0  0
 50124  1  0  0  0
 51 52  1  0  0  0
 51125  1  0  0  0
 51126  1  0  0  0
 52127  1  0  0  0
 52128  1  0  0  0
 53 54  1  0  0  0
 54 55  2  0  0  0
 54129  1  0  0  0
 55 57  1  0  0  0
 55130  1  0  0  0
 56 69  2  0  0  0
 57 58  2  0  0  0
 57131  1  0  0  0
 58132  1  0  0  0
 59 60  1  0  0  0
 59 61  1  0  0  0
 59 62  1  0  0  0
 60133  1  0  0  0
 60134  1  0  0  0
 60135  1  0  0  0
 61136  1  0  0  0
 61137  1  0  0  0
 61138  1  0  0  0
 62139  1  0  0  0
 62140  1  0  0  0
 62141  1  0  0  0
 63 65  1  0  0  0
 63142  1  0  0  0
 63143  1  0  0  0
 63144  1  0  0  0
 64145  1  0  0  0
 65146  1  0  0  0
 68 85  1  0  0  0
 71 73  2  0  0  0
 71 86  1  0  0  0
 71147  1  0  0  0
 72 74  2  0  0  0
 72 86  1  0  0  0
 72148  1  0  0  0
 73 74  1  0  0  0
 73 75  1  0  0  0
 74 76  1  0  0  0
 75149  1  0  0  0
 75150  1  0  0  0
 75151  1  0  0  0
 76 77  1  0  0  0
 76152  1  0  0  0
 76153  1  0  0  0
 77 78  1  0  0  0
 77154  1  0  0  0
 77155  1  0  0  0
 78 79  1  0  0  0
 78156  1  0  0  0
 78157  1  0  0  0
 79 80  1  0  0  0
 79158  1  0  0  0
 79159  1  0  0  0
 80 81  1  0  0  0
 80160  1  0  0  0
 80161  1  0  0  0
 81 82  1  0  0  0
 81162  1  0  0  0
 81163  1  0  0  0
 82 84  1  0  0  0
 82164  1  0  0  0
 82165  1  0  0  0
 83 85  1  0  0  0
 83 86  1  0  0  0
 83166  1  0  0  0
 83167  1  0  0  0
 84 87  1  0  0  0
 84168  1  0  0  0
 84169  1  0  0  0
 85170  1  0  0  0
 85171  1  0  0  0
 87172  1  0  0  0
M  ISO  4   1 100  68 101  85 101  87 100
M  END
> <chiral flag>
0

> <version>
0

> <s_m_source_file>
/data/baiqing/PycharmProjects/Reinvent-master-3.2/result/LINK_invent/BTK/process_docking_weight1_custom_sum_contain_oxygen_bond_distance_aromatic_linkinvent_7_9_3/rearranged_h_0039.sdf

> <i_m_source_file_index>
14

> <r_mmod_Potential_Energy-OPLS-2005>
-88.5343933105469

> <r_mmod_Stretch_Energy-OPLS-2005>
31.3077487945557

> <r_mmod_Bend_Energy-OPLS-2005>
101.46656036377

> <r_mmod_Torsional_Energy-OPLS-2005>
208.324371337891

> <r_mmod_Improper_Torsional_Energy-OPLS-2005>
2.30022048950195

> <r_mmod_Van_der_Waal_Energy-OPLS-2005>
133.307067871094

> <r_mmod_Electrostatic_Energy-OPLS-2005>
-366.632995605469

> <r_mmod_Solvation_Energy-OPLS-2005>
-209.992279052734

> <b_mmod_Minimization_Converged-OPLS-2005>
0

> <r_mmod_RMS_Derivative-OPLS-2005>
4.11824464797974

$$$$
14
                    3D
 Structure written by MMmdl.
163171  0  0  1  0            999 V2000
  -30.7308  -14.5033   20.5024 C   0  0  0  0  0  0
  -30.4088  -12.3100   19.4366 C   0  0  0  0  0  0
  -29.4965  -12.4900   18.2082 C   0  0  0  0  0  0
  -28.0163  -12.3604   18.6180 C   0  0  0  0  0  0
  -27.6553  -13.2228   19.8600 C   0  0  2  0  0  0
  -28.7014  -13.0703   20.9893 C   0  0  0  0  0  0
  -25.2563  -13.8183   20.5677 C   0  0  0  0  0  0
  -24.1839  -13.0439   20.9190 C   0  0  0  0  0  0
  -24.6405  -11.6915   20.8725 C   0  0  0  0  0  0
  -23.9067  -10.4288   21.0385 C   0  0  0  0  0  0
  -24.3632   -9.4207   21.9162 C   0  0  0  0  0  0
  -23.6310   -8.2242   22.0731 C   0  0  0  0  0  0
  -22.4284   -8.0280   21.3531 C   0  0  0  0  0  0
  -21.9925   -9.0239   20.4623 C   0  0  0  0  0  0
  -22.7240  -10.2123   20.3026 C   0  0  0  0  0  0
  -21.6857   -6.0742   22.5280 C   0  0  0  0  0  0
  -21.4011   -6.5637   23.8218 C   0  0  0  0  0  0
  -21.3660   -5.6782   24.9176 C   0  0  0  0  0  0
  -21.6057   -4.3048   24.7219 C   0  0  0  0  0  0
  -21.8818   -3.8147   23.4335 C   0  0  0  0  0  0
  -21.9186   -4.6971   22.3399 C   0  0  0  0  0  0
  -22.7852  -13.5215   21.1847 C   0  0  0  0  0  0
  -22.1658   -4.2168   21.0976 F   0  0  0  0  0  0
  -21.5638   -3.4522   25.7724 F   0  0  0  0  0  0
  -30.0277  -13.3405   20.4174 N   0  0  0  0  0  0
  -26.3011  -12.9391   20.3316 N   0  0  0  0  0  0
  -25.9334  -11.6536   20.5735 N   0  0  0  0  0  0
  -22.0497  -12.8196   22.0408 N   0  0  0  0  0  0
  -25.4280  -15.1909   20.4111 N   0  0  0  0  0  0
  -31.8983  -14.5931   20.1157 O   0  0  0  0  0  0
  -21.6644   -6.8883   21.4240 O   0  0  0  0  0  0
  -22.3525  -14.5496   20.6661 O   0  0  0  0  0  0
  -24.6172  -31.8669   23.2087 C   0  0  0  0  0  0
  -25.9056  -32.4819   23.8390 C   0  0  1  0  0  0
  -27.2392  -27.4402   20.0895 C   0  0  0  0  0  0
  -25.5899  -33.8615   24.2319 N   0  0  0  0  0  0
  -23.4088  -30.4911   21.5468 C   0  0  2  0  0  0
  -24.8637  -28.9681   20.1006 C   0  0  0  0  0  0
  -22.7437  -29.4656   22.4950 C   0  0  0  0  0  0
  -18.0282  -28.1390   22.8489 C   0  0  0  0  0  0
  -24.1486  -36.7313   23.2635 C   0  0  0  0  0  0
  -25.9400  -30.8389   21.3609 C   0  0  0  0  0  0
  -26.0262  -29.4787   20.6957 C   0  0  0  0  0  0
  -27.2256  -28.7232   20.6869 C   0  0  0  0  0  0
  -26.0635  -26.9450   19.4953 C   0  0  0  0  0  0
  -24.8786  -27.7025   19.4901 C   0  0  0  0  0  0
  -23.6203  -29.8273   20.1590 C   0  0  0  0  0  0
  -25.4102  -36.3106   24.0338 C   0  0  1  0  0  0
  -20.5879  -28.3684   23.1298 C   0  0  2  0  0  0
  -20.6777  -26.9413   22.5415 C   0  0  0  0  0  0
  -19.5749  -26.6392   21.5221 C   0  0  0  0  0  0
  -18.1929  -26.7936   22.1629 C   0  0  0  0  0  0
  -19.1534  -28.8853   23.2898 C   0  0  0  0  0  0
  -18.9460  -30.1459   23.8908 C   0  0  0  0  0  0
  -17.6459  -30.6594   24.0572 C   0  0  0  0  0  0
  -25.9034  -34.9474   23.5127 C   0  0  0  0  0  0
  -16.5349  -29.9097   23.6326 C   0  0  0  0  0  0
  -16.7269  -28.6517   23.0344 C   0  0  0  0  0  0
  -26.4482  -31.6596   25.0720 C   0  0  0  0  0  0
  -25.3750  -31.3702   26.1470 C   0  0  0  0  0  0
  -27.0312  -30.3034   24.6102 C   0  0  0  0  0  0
  -27.6055  -32.4320   25.7484 C   0  0  0  0  0  0
  -27.5585  -37.1800   24.8458 C   0  0  0  0  0  0
  -21.4161  -29.3042   22.3692 N   0  0  0  0  0  0
  -26.4283  -37.3796   23.9422 N   0  0  0  0  0  0
  -24.6738  -31.0776   22.0976 N   0  0  0  0  0  0
  -23.4199  -28.8194   23.3000 O   0  0  0  0  0  0
  -28.2725  -26.5454   20.2233 O   0  0  0  0  0  0
  -26.5596  -34.8924   22.4687 O   0  0  0  0  0  0
  -23.5359  -32.1406   23.7472 O   0  0  0  0  0  0
  -28.5954  -24.5338   17.7086 C   0  0  0  0  0  0
  -29.3866  -24.1977   18.8233 C   0  0  0  0  0  0
  -29.4305  -22.8120   19.1495 C   0  0  0  0  0  0
  -28.0628  -22.3509   17.3577 C   0  0  0  0  0  0
  -27.3356  -21.3030   16.5436 C   0  0  0  0  0  0
  -30.1763  -25.3098   19.5457 C   0  0  0  0  0  0
  -30.2488  -22.1859   20.2912 C   0  0  0  0  0  0
  -29.6929  -20.8449   20.8845 C   0  0  0  0  0  0
  -30.2817  -19.5357   20.2778 C   0  0  0  0  0  0
  -29.7053  -18.1978   20.8415 C   0  0  0  0  0  0
  -30.6014  -16.9729   20.5017 C   0  0  0  0  0  0
  -29.5078  -26.7208   19.5635 C   0  0  0  0  0  0
  -27.9305  -23.6147   16.9880 N   0  0  0  0  0  0
  -28.7815  -21.9162   18.3802 N   0  0  0  0  0  0
  -30.0442  -15.6306   20.7922 N   0  0  0  0  0  0
  -31.4576  -12.3711   19.1398 H   0  0  0  0  0  0
  -30.2763  -11.3142   19.8648 H   0  0  0  0  0  0
  -29.7394  -11.7479   17.4465 H   0  0  0  0  0  0
  -29.6725  -13.4649   17.7519 H   0  0  0  0  0  0
  -27.8219  -11.3058   18.8236 H   0  0  0  0  0  0
  -27.3713  -12.6265   17.7791 H   0  0  0  0  0  0
  -27.6760  -14.2617   19.5296 H   0  0  0  0  0  0
  -28.6764  -12.0592   21.3974 H   0  0  0  0  0  0
  -28.4788  -13.7425   21.8206 H   0  0  0  0  0  0
  -25.2788   -9.5686   22.4728 H   0  0  0  0  0  0
  -24.0029   -7.4628   22.7429 H   0  0  0  0  0  0
  -21.0865   -8.8721   19.8927 H   0  0  0  0  0  0
  -22.3680  -10.9644   19.6127 H   0  0  0  0  0  0
  -21.1998   -7.6141   23.9723 H   0  0  0  0  0  0
  -21.1499   -6.0515   25.9081 H   0  0  0  0  0  0
  -22.0605   -2.7611   23.2817 H   0  0  0  0  0  0
  -22.4128  -11.9897   22.4851 H   0  0  0  0  0  0
  -21.1078  -13.1170   22.2526 H   0  0  0  0  0  0
  -24.6669  -15.8493   20.5332 H   0  0  0  0  0  0
  -26.2826  -15.6303   20.0926 H   0  0  0  0  0  0
  -26.7138  -32.5538   23.1171 H   0  0  0  0  0  0
  -25.0066  -33.9778   25.0476 H   0  0  0  0  0  0
  -22.6974  -31.3086   21.4067 H   0  0  0  0  0  0
  -23.3749  -35.9647   23.3291 H   0  0  0  0  0  0
  -24.3589  -36.8934   22.2051 H   0  0  0  0  0  0
  -23.7234  -37.6514   23.6650 H   0  0  0  0  0  0
  -26.0533  -31.6120   20.5999 H   0  0  0  0  0  0
  -26.8252  -30.8882   21.9828 H   0  0  0  0  0  0
  -28.1113  -29.0957   21.1825 H   0  0  0  0  0  0
  -26.0582  -25.9510   19.0704 H   0  0  0  0  0  0
  -23.9844  -27.2981   19.0369 H   0  0  0  0  0  0
  -23.7210  -30.6058   19.4016 H   0  0  0  0  0  0
  -22.7469  -29.2437   19.8618 H   0  0  0  0  0  0
  -25.1276  -36.1968   25.0831 H   0  0  0  0  0  0
  -20.9977  -28.3266   24.1419 H   0  0  0  0  0  0
  -20.5690  -26.2297   23.3616 H   0  0  0  0  0  0
  -21.6645  -26.7463   22.1195 H   0  0  0  0  0  0
  -19.6909  -25.6307   21.1248 H   0  0  0  0  0  0
  -19.6687  -27.3210   20.6757 H   0  0  0  0  0  0
  -17.4200  -26.6689   21.4032 H   0  0  0  0  0  0
  -18.0323  -26.0082   22.9024 H   0  0  0  0  0  0
  -19.7937  -30.7277   24.2279 H   0  0  0  0  0  0
  -17.5014  -31.6269   24.5178 H   0  0  0  0  0  0
  -15.5353  -30.3003   23.7643 H   0  0  0  0  0  0
  -15.8671  -28.0847   22.7037 H   0  0  0  0  0  0
  -24.5930  -30.7043   25.7807 H   0  0  0  0  0  0
  -24.8940  -32.2854   26.4920 H   0  0  0  0  0  0
  -25.8108  -30.8871   27.0221 H   0  0  0  0  0  0
  -26.2853  -29.6797   24.1162 H   0  0  0  0  0  0
  -27.4083  -29.7274   25.4560 H   0  0  0  0  0  0
  -27.8686  -30.4347   23.9249 H   0  0  0  0  0  0
  -27.2674  -33.3617   26.2070 H   0  0  0  0  0  0
  -28.3859  -32.6881   25.0308 H   0  0  0  0  0  0
  -28.0727  -31.8439   26.5395 H   0  0  0  0  0  0
  -28.2576  -38.0127   24.7547 H   0  0  0  0  0  0
  -28.1110  -36.2659   24.6219 H   0  0  0  0  0  0
  -27.2315  -37.1372   25.8864 H   0  0  0  0  0  0
  -20.9330  -29.8766   21.6913 H   0  0  0  0  0  0
  -26.0173  -38.2869   24.1451 H   0  0  0  0  0  0
  -28.4990  -25.5493   17.3580 H   0  0  0  0  0  0
  -26.9282  -21.7220   15.6237 H   0  0  0  0  0  0
  -26.5115  -20.8821   17.1188 H   0  0  0  0  0  0
  -28.0094  -20.4894   16.2733 H   0  0  0  0  0  0
  -31.1586  -25.3873   19.0768 H   0  0  0  0  0  0
  -30.3624  -25.0194   20.5784 H   0  0  0  0  0  0
  -30.2703  -22.9054   21.1079 H   0  0  0  0  0  0
  -31.2855  -22.0700   19.9724 H   0  0  0  0  0  0
  -28.6034  -20.8415   20.8464 H   0  0  0  0  0  0
  -29.9397  -20.8312   21.9467 H   0  0  0  0  0  0
  -31.3623  -19.5478   20.4243 H   0  0  0  0  0  0
  -30.1356  -19.5468   19.1968 H   0  0  0  0  0  0
  -28.6986  -18.0512   20.4468 H   0  0  0  0  0  0
  -29.6023  -18.2684   21.9251 H   0  0  0  0  0  0
  -31.5493  -17.0780   21.0330 H   0  0  0  0  0  0
  -30.8508  -17.0089   19.4386 H   0  0  0  0  0  0
  -29.3760  -27.1368   18.5643 H   0  0  0  0  0  0
  -30.1219  -27.4261   20.1244 H   0  0  0  0  0  0
  -29.0724  -15.5521   21.0536 H   0  0  0  0  0  0
  1 25  1  0  0  0
  1 30  2  0  0  0
  1 85  1  0  0  0
  2  3  1  0  0  0
  2 25  1  0  0  0
  2 86  1  0  0  0
  2 87  1  0  0  0
  3  4  1  0  0  0
  3 88  1  0  0  0
  3 89  1  0  0  0
  4  5  1  0  0  0
  4 90  1  0  0  0
  4 91  1  0  0  0
  5  6  1  0  0  0
  5 26  1  0  0  0
  5 92  1  0  0  0
  6 25  1  0  0  0
  6 93  1  0  0  0
  6 94  1  0  0  0
  7  8  2  0  0  0
  7 26  1  0  0  0
  7 29  1  0  0  0
  8  9  1  0  0  0
  8 22  1  0  0  0
  9 10  1  0  0  0
  9 27  2  0  0  0
 10 11  2  0  0  0
 10 15  1  0  0  0
 11 12  1  0  0  0
 11 95  1  0  0  0
 12 13  2  0  0  0
 12 96  1  0  0  0
 13 14  1  0  0  0
 13 31  1  0  0  0
 14 15  2  0  0  0
 14 97  1  0  0  0
 15 98  1  0  0  0
 16 17  2  0  0  0
 16 21  1  0  0  0
 16 31  1  0  0  0
 17 18  1  0  0  0
 17 99  1  0  0  0
 18 19  2  0  0  0
 18100  1  0  0  0
 19 20  1  0  0  0
 19 24  1  0  0  0
 20 21  2  0  0  0
 20101  1  0  0  0
 21 23  1  0  0  0
 22 28  1  0  0  0
 22 32  2  0  0  0
 26 27  1  0  0  0
 28102  1  0  0  0
 28103  1  0  0  0
 29104  1  0  0  0
 29105  1  0  0  0
 33 34  1  0  0  0
 33 66  1  0  0  0
 33 70  2  0  0  0
 34 36  1  0  0  0
 34 59  1  0  0  0
 34106  1  0  0  0
 35 44  2  0  0  0
 35 45  1  0  0  0
 35 68  1  0  0  0
 36 56  1  0  0  0
 36107  1  0  0  0
 37 39  1  0  0  0
 37 47  1  0  0  0
 37 66  1  0  0  0
 37108  1  0  0  0
 38 43  2  0  0  0
 38 46  1  0  0  0
 38 47  1  0  0  0
 39 64  1  0  0  0
 39 67  2  0  0  0
 40 52  1  0  0  0
 40 53  2  0  0  0
 40 58  1  0  0  0
 41109  1  0  0  0
 41110  1  0  0  0
 41111  1  0  0  0
 41 48  1  0  0  0
 42 43  1  0  0  0
 42 66  1  0  0  0
 42112  1  0  0  0
 42113  1  0  0  0
 43 44  1  0  0  0
 44114  1  0  0  0
 45 46  2  0  0  0
 45115  1  0  0  0
 46116  1  0  0  0
 47117  1  0  0  0
 47118  1  0  0  0
 48 56  1  0  0  0
 48 65  1  0  0  0
 48119  1  0  0  0
 49 50  1  0  0  0
 49 53  1  0  0  0
 49 64  1  0  0  0
 49120  1  0  0  0
 50 51  1  0  0  0
 50121  1  0  0  0
 50122  1  0  0  0
 51 52  1  0  0  0
 51123  1  0  0  0
 51124  1  0  0  0
 52125  1  0  0  0
 52126  1  0  0  0
 53 54  1  0  0  0
 54 55  2  0  0  0
 54127  1  0  0  0
 55 57  1  0  0  0
 55128  1  0  0  0
 56 69  2  0  0  0
 57 58  2  0  0  0
 57129  1  0  0  0
 58130  1  0  0  0
 59 60  1  0  0  0
 59 61  1  0  0  0
 59 62  1  0  0  0
 60131  1  0  0  0
 60132  1  0  0  0
 60133  1  0  0  0
 61134  1  0  0  0
 61135  1  0  0  0
 61136  1  0  0  0
 62137  1  0  0  0
 62138  1  0  0  0
 62139  1  0  0  0
 63 65  1  0  0  0
 63140  1  0  0  0
 63141  1  0  0  0
 63142  1  0  0  0
 64143  1  0  0  0
 65144  1  0  0  0
 68 82  1  0  0  0
 71 72  2  0  0  0
 71 83  1  0  0  0
 71145  1  0  0  0
 72 73  1  0  0  0
 72 76  1  0  0  0
 73 77  1  0  0  0
 73 84  2  0  0  0
 74 75  1  0  0  0
 74 83  2  0  0  0
 74 84  1  0  0  0
 75146  1  0  0  0
 75147  1  0  0  0
 75148  1  0  0  0
 76 82  1  0  0  0
 76149  1  0  0  0
 76150  1  0  0  0
 77 78  1  0  0  0
 77151  1  0  0  0
 77152  1  0  0  0
 78 79  1  0  0  0
 78153  1  0  0  0
 78154  1  0  0  0
 79 80  1  0  0  0
 79155  1  0  0  0
 79156  1  0  0  0
 80 81  1  0  0  0
 80157  1  0  0  0
 80158  1  0  0  0
 81 85  1  0  0  0
 81159  1  0  0  0
 81160  1  0  0  0
 82161  1  0  0  0
 82162  1  0  0  0
 85163  1  0  0  0
M  ISO  4   1 100  68 101  82 101  85 100
M  END
> <chiral flag>
0

> <version>
0

> <s_m_source_file>
/data/baiqing/PycharmProjects/Reinvent-master-3.2/result/LINK_invent/BTK/process_docking_weight1_custom_sum_contain_oxygen_bond_distance_aromatic_linkinvent_7_9_3/rearranged_h_0039.sdf

> <i_m_source_file_index>
15

> <r_mmod_Potential_Energy-OPLS-2005>
-440.238891601562

> <r_mmod_Stretch_Energy-OPLS-2005>
42.0029373168945

> <r_mmod_Bend_Energy-OPLS-2005>
120.497665405273

> <r_mmod_Torsional_Energy-OPLS-2005>
232.430999755859

> <r_mmod_Improper_Torsional_Energy-OPLS-2005>
7.02254247665405

> <r_mmod_Van_der_Waal_Energy-OPLS-2005>
153.05827331543

> <r_mmod_Electrostatic_Energy-OPLS-2005>
-794.225036621094

> <r_mmod_Solvation_Energy-OPLS-2005>
-229.456420898438

> <b_mmod_Minimization_Converged-OPLS-2005>
0

> <r_mmod_RMS_Derivative-OPLS-2005>
2.1681056022644

$$$$
15
                    3D
 Structure written by MMmdl.
169177  0  0  1  0            999 V2000
  -30.7387  -14.3729   20.7077 C   0  0  0  0  0  0
  -30.4302  -12.3104   19.3787 C   0  0  0  0  0  0
  -29.4812  -12.5556   18.1862 C   0  0  0  0  0  0
  -28.0009  -12.4059   18.5976 C   0  0  0  0  0  0
  -27.6696  -13.1835   19.8993 C   0  0  2  0  0  0
  -28.7194  -12.8268   20.9810 C   0  0  0  0  0  0
  -25.2550  -13.8029   20.5662 C   0  0  0  0  0  0
  -24.1769  -13.0369   20.9165 C   0  0  0  0  0  0
  -24.6327  -11.6838   20.8786 C   0  0  0  0  0  0
  -23.8999  -10.4241   21.0468 C   0  0  0  0  0  0
  -24.3550   -9.4144   21.9242 C   0  0  0  0  0  0
  -23.6219   -8.2180   22.0785 C   0  0  0  0  0  0
  -22.4203   -8.0242   21.3564 C   0  0  0  0  0  0
  -21.9852   -9.0229   20.4674 C   0  0  0  0  0  0
  -22.7188  -10.2093   20.3094 C   0  0  0  0  0  0
  -21.6792   -6.0726   22.5291 C   0  0  0  0  0  0
  -21.3979   -6.5630   23.8241 C   0  0  0  0  0  0
  -21.3674   -5.6779   24.9196 C   0  0  0  0  0  0
  -21.6043   -4.3051   24.7226 C   0  0  0  0  0  0
  -21.8799   -3.8146   23.4342 C   0  0  0  0  0  0
  -21.9169   -4.6972   22.3415 C   0  0  0  0  0  0
  -22.7808  -13.5269   21.1813 C   0  0  0  0  0  0
  -22.1658   -4.2174   21.0974 F   0  0  0  0  0  0
  -21.5641   -3.4511   25.7732 F   0  0  0  0  0  0
  -30.0455  -13.2181   20.4736 N   0  0  0  0  0  0
  -26.3031  -12.9200   20.3484 N   0  0  0  0  0  0
  -25.9249  -11.6393   20.5825 N   0  0  0  0  0  0
  -22.0352  -12.8340   22.0342 N   0  0  0  0  0  0
  -25.4194  -15.1693   20.3992 N   0  0  0  0  0  0
  -31.7591  -14.6676   20.0789 O   0  0  0  0  0  0
  -21.6568   -6.8842   21.4239 O   0  0  0  0  0  0
  -22.3562  -14.5634   20.6702 O   0  0  0  0  0  0
  -24.6102  -31.8699   23.2108 C   0  0  0  0  0  0
  -25.9013  -32.4822   23.8395 C   0  0  1  0  0  0
  -27.2512  -27.4844   20.0729 C   0  0  0  0  0  0
  -25.5887  -33.8624   24.2337 N   0  0  0  0  0  0
  -23.3944  -30.4909   21.5529 C   0  0  2  0  0  0
  -24.8393  -28.9562   20.1205 C   0  0  0  0  0  0
  -22.7379  -29.4655   22.5028 C   0  0  0  0  0  0
  -18.0267  -28.1364   22.8494 C   0  0  0  0  0  0
  -24.1493  -36.7315   23.2635 C   0  0  0  0  0  0
  -25.9160  -30.8488   21.3543 C   0  0  0  0  0  0
  -25.9941  -29.4843   20.7073 C   0  0  0  0  0  0
  -27.1959  -28.7526   20.6832 C   0  0  0  0  0  0
  -26.0690  -26.9415   19.5132 C   0  0  0  0  0  0
  -24.8679  -27.6797   19.5286 C   0  0  0  0  0  0
  -23.5990  -29.8167   20.1685 C   0  0  0  0  0  0
  -25.4106  -36.3114   24.0342 C   0  0  1  0  0  0
  -20.5851  -28.3641   23.1342 C   0  0  2  0  0  0
  -20.6761  -26.9381   22.5428 C   0  0  0  0  0  0
  -19.5747  -26.6374   21.5214 C   0  0  0  0  0  0
  -18.1920  -26.7920   22.1616 C   0  0  0  0  0  0
  -19.1513  -28.8819   23.2916 C   0  0  0  0  0  0
  -18.9443  -30.1433   23.8918 C   0  0  0  0  0  0
  -17.6442  -30.6581   24.0559 C   0  0  0  0  0  0
  -25.9026  -34.9473   23.5135 C   0  0  0  0  0  0
  -16.5333  -29.9077   23.6322 C   0  0  0  0  0  0
  -16.7251  -28.6491   23.0342 C   0  0  0  0  0  0
  -26.4468  -31.6585   25.0700 C   0  0  0  0  0  0
  -25.3762  -31.3678   26.1467 C   0  0  0  0  0  0
  -27.0263  -30.3032   24.6013 C   0  0  0  0  0  0
  -27.6065  -32.4285   25.7451 C   0  0  0  0  0  0
  -27.5583  -37.1808   24.8462 C   0  0  0  0  0  0
  -21.4109  -29.3009   22.3759 N   0  0  0  0  0  0
  -26.4295  -37.3789   23.9407 N   0  0  0  0  0  0
  -24.6587  -31.0838   22.0986 N   0  0  0  0  0  0
  -23.4167  -28.8208   23.3067 O   0  0  0  0  0  0
  -28.4892  -26.8840   20.0488 O   0  0  0  0  0  0
  -26.5581  -34.8928   22.4691 O   0  0  0  0  0  0
  -23.5309  -32.1427   23.7534 O   0  0  0  0  0  0
  -25.8126  -22.4774   20.9729 C   0  0  0  0  0  0
  -27.9748  -22.4197   19.3368 C   0  0  0  0  0  0
  -26.0200  -21.4269   20.0397 C   0  0  0  0  0  0
  -27.7949  -23.4409   20.3013 C   0  0  0  0  0  0
  -24.6048  -22.5381   21.8907 C   0  0  0  0  0  0
  -29.2126  -22.3260   18.4654 C   0  0  0  0  0  0
  -25.1238  -20.2037   19.9530 C   0  0  0  0  0  0
  -28.8172  -24.5375   20.4897 C   0  0  0  0  0  0
  -25.8777  -18.8657   20.1084 C   0  0  0  0  0  0
  -27.1167  -18.8474   21.0380 C   0  0  0  0  0  0
  -27.5707  -17.4042   21.2566 C   0  0  0  0  0  0
  -29.0033  -17.1800   21.7618 C   0  0  0  0  0  0
  -29.1535  -15.7031   22.1716 C   0  0  0  0  0  0
  -28.7011  -25.6303   19.4206 C   0  0  0  0  0  0
  -27.0671  -21.4349   19.1805 N   0  0  0  0  0  0
  -26.6966  -23.4943   21.0924 N   0  0  0  0  0  0
  -30.4382  -15.0985   21.7994 N   0  0  0  0  0  0
  -31.4666  -12.4448   19.0630 H   0  0  0  0  0  0
  -30.3708  -11.2719   19.7110 H   0  0  0  0  0  0
  -29.7156  -11.8707   17.3705 H   0  0  0  0  0  0
  -29.6419  -13.5604   17.7950 H   0  0  0  0  0  0
  -27.7917  -11.3449   18.7367 H   0  0  0  0  0  0
  -27.3520  -12.7373   17.7853 H   0  0  0  0  0  0
  -27.7486  -14.2459   19.6708 H   0  0  0  0  0  0
  -28.7037  -11.7459   21.1354 H   0  0  0  0  0  0
  -28.4884  -13.1907   21.9776 H   0  0  0  0  0  0
  -25.2680   -9.5587   22.4842 H   0  0  0  0  0  0
  -23.9919   -7.4549   22.7496 H   0  0  0  0  0  0
  -21.0790   -8.8753   19.8963 H   0  0  0  0  0  0
  -22.3691  -10.9642   19.6202 H   0  0  0  0  0  0
  -21.1938   -7.6131   23.9761 H   0  0  0  0  0  0
  -21.1543   -6.0504   25.9123 H   0  0  0  0  0  0
  -22.0564   -2.7606   23.2830 H   0  0  0  0  0  0
  -22.3849  -11.9990   22.4814 H   0  0  0  0  0  0
  -21.1026  -13.1543   22.2525 H   0  0  0  0  0  0
  -24.6611  -15.8264   20.5412 H   0  0  0  0  0  0
  -26.2862  -15.6104   20.1242 H   0  0  0  0  0  0
  -26.7080  -32.5559   23.1167 H   0  0  0  0  0  0
  -25.0083  -33.9789   25.0512 H   0  0  0  0  0  0
  -22.6818  -31.3060   21.4130 H   0  0  0  0  0  0
  -23.3751  -35.9652   23.3306 H   0  0  0  0  0  0
  -24.3596  -36.8913   22.2047 H   0  0  0  0  0  0
  -23.7253  -37.6531   23.6636 H   0  0  0  0  0  0
  -26.0191  -31.6151   20.5850 H   0  0  0  0  0  0
  -26.8083  -30.9067   21.9656 H   0  0  0  0  0  0
  -28.0952  -29.1693   21.1169 H   0  0  0  0  0  0
  -26.0461  -25.9626   19.0593 H   0  0  0  0  0  0
  -23.9759  -27.2597   19.0861 H   0  0  0  0  0  0
  -23.6994  -30.5880   19.4037 H   0  0  0  0  0  0
  -22.7258  -29.2287   19.8802 H   0  0  0  0  0  0
  -25.1286  -36.1986   25.0836 H   0  0  0  0  0  0
  -20.9933  -28.3202   24.1465 H   0  0  0  0  0  0
  -20.5664  -26.2240   23.3603 H   0  0  0  0  0  0
  -21.6638  -26.7436   22.1223 H   0  0  0  0  0  0
  -19.6908  -25.6288   21.1234 H   0  0  0  0  0  0
  -19.6704  -27.3194   20.6754 H   0  0  0  0  0  0
  -17.4197  -26.6676   21.4007 H   0  0  0  0  0  0
  -18.0309  -26.0054   22.9003 H   0  0  0  0  0  0
  -19.7914  -30.7241   24.2300 H   0  0  0  0  0  0
  -17.4996  -31.6264   24.5147 H   0  0  0  0  0  0
  -15.5335  -30.2975   23.7640 H   0  0  0  0  0  0
  -15.8657  -28.0814   22.7043 H   0  0  0  0  0  0
  -24.5925  -30.7027   25.7824 H   0  0  0  0  0  0
  -24.8959  -32.2821   26.4960 H   0  0  0  0  0  0
  -25.8139  -30.8829   27.0198 H   0  0  0  0  0  0
  -26.2750  -29.6812   24.1118 H   0  0  0  0  0  0
  -27.4113  -29.7252   25.4426 H   0  0  0  0  0  0
  -27.8567  -30.4372   23.9071 H   0  0  0  0  0  0
  -27.2706  -33.3581   26.2064 H   0  0  0  0  0  0
  -28.3853  -32.6840   25.0252 H   0  0  0  0  0  0
  -28.0748  -31.8372   26.5332 H   0  0  0  0  0  0
  -28.2611  -38.0099   24.7501 H   0  0  0  0  0  0
  -28.1072  -36.2624   24.6296 H   0  0  0  0  0  0
  -27.2298  -37.1475   25.8868 H   0  0  0  0  0  0
  -20.9263  -29.8730   21.6990 H   0  0  0  0  0  0
  -26.0192  -38.2875   24.1403 H   0  0  0  0  0  0
  -23.6896  -22.6071   21.3019 H   0  0  0  0  0  0
  -24.6374  -23.4065   22.5496 H   0  0  0  0  0  0
  -24.5501  -21.6478   22.5190 H   0  0  0  0  0  0
  -29.4048  -23.2662   17.9500 H   0  0  0  0  0  0
  -29.1126  -21.5473   17.7095 H   0  0  0  0  0  0
  -30.0818  -22.0855   19.0782 H   0  0  0  0  0  0
  -24.5896  -20.2247   19.0018 H   0  0  0  0  0  0
  -24.3518  -20.2468   20.7200 H   0  0  0  0  0  0
  -29.8172  -24.1036   20.4769 H   0  0  0  0  0  0
  -28.7079  -24.9685   21.4856 H   0  0  0  0  0  0
  -26.2243  -18.5681   19.1190 H   0  0  0  0  0  0
  -25.1599  -18.1018   20.4087 H   0  0  0  0  0  0
  -26.8926  -19.3147   21.9975 H   0  0  0  0  0  0
  -27.9358  -19.4147   20.5955 H   0  0  0  0  0  0
  -27.4964  -16.8730   20.3078 H   0  0  0  0  0  0
  -26.8620  -16.9344   21.9417 H   0  0  0  0  0  0
  -29.2217  -17.8287   22.6108 H   0  0  0  0  0  0
  -29.7073  -17.4454   20.9723 H   0  0  0  0  0  0
  -28.3150  -15.1743   21.7387 H   0  0  0  0  0  0
  -29.0275  -15.6099   23.2507 H   0  0  0  0  0  0
  -27.9962  -25.3814   18.6304 H   0  0  0  0  0  0
  -29.6593  -25.7026   18.9079 H   0  0  0  0  0  0
  -31.2222  -15.6669   22.0842 H   0  0  0  0  0  0
  1 25  1  0  0  0
  1 30  2  0  0  0
  1 87  1  0  0  0
  2  3  1  0  0  0
  2 25  1  0  0  0
  2 88  1  0  0  0
  2 89  1  0  0  0
  3  4  1  0  0  0
  3 90  1  0  0  0
  3 91  1  0  0  0
  4  5  1  0  0  0
  4 92  1  0  0  0
  4 93  1  0  0  0
  5  6  1  0  0  0
  5 26  1  0  0  0
  5 94  1  0  0  0
  6 25  1  0  0  0
  6 95  1  0  0  0
  6 96  1  0  0  0
  7  8  2  0  0  0
  7 26  1  0  0  0
  7 29  1  0  0  0
  8  9  1  0  0  0
  8 22  1  0  0  0
  9 10  1  0  0  0
  9 27  2  0  0  0
 10 11  2  0  0  0
 10 15  1  0  0  0
 11 12  1  0  0  0
 11 97  1  0  0  0
 12 13  2  0  0  0
 12 98  1  0  0  0
 13 14  1  0  0  0
 13 31  1  0  0  0
 14 15  2  0  0  0
 14 99  1  0  0  0
 15100  1  0  0  0
 16 17  2  0  0  0
 16 21  1  0  0  0
 16 31  1  0  0  0
 17 18  1  0  0  0
 17101  1  0  0  0
 18 19  2  0  0  0
 18102  1  0  0  0
 19 20  1  0  0  0
 19 24  1  0  0  0
 20 21  2  0  0  0
 20103  1  0  0  0
 21 23  1  0  0  0
 22 28  1  0  0  0
 22 32  2  0  0  0
 26 27  1  0  0  0
 28104  1  0  0  0
 28105  1  0  0  0
 29106  1  0  0  0
 29107  1  0  0  0
 33 34  1  0  0  0
 33 66  1  0  0  0
 33 70  2  0  0  0
 34 36  1  0  0  0
 34 59  1  0  0  0
 34108  1  0  0  0
 35 44  2  0  0  0
 35 45  1  0  0  0
 35 68  1  0  0  0
 36 56  1  0  0  0
 36109  1  0  0  0
 37 39  1  0  0  0
 37 47  1  0  0  0
 37 66  1  0  0  0
 37110  1  0  0  0
 38 43  2  0  0  0
 38 46  1  0  0  0
 38 47  1  0  0  0
 39 64  1  0  0  0
 39 67  2  0  0  0
 40 52  1  0  0  0
 40 53  2  0  0  0
 40 58  1  0  0  0
 41111  1  0  0  0
 41112  1  0  0  0
 41113  1  0  0  0
 41 48  1  0  0  0
 42 43  1  0  0  0
 42 66  1  0  0  0
 42114  1  0  0  0
 42115  1  0  0  0
 43 44  1  0  0  0
 44116  1  0  0  0
 45 46  2  0  0  0
 45117  1  0  0  0
 46118  1  0  0  0
 47119  1  0  0  0
 47120  1  0  0  0
 48 56  1  0  0  0
 48 65  1  0  0  0
 48121  1  0  0  0
 49 50  1  0  0  0
 49 53  1  0  0  0
 49 64  1  0  0  0
 49122  1  0  0  0
 50 51  1  0  0  0
 50123  1  0  0  0
 50124  1  0  0  0
 51 52  1  0  0  0
 51125  1  0  0  0
 51126  1  0  0  0
 52127  1  0  0  0
 52128  1  0  0  0
 53 54  1  0  0  0
 54 55  2  0  0  0
 54129  1  0  0  0
 55 57  1  0  0  0
 55130  1  0  0  0
 56 69  2  0  0  0
 57 58  2  0  0  0
 57131  1  0  0  0
 58132  1  0  0  0
 59 60  1  0  0  0
 59 61  1  0  0  0
 59 62  1  0  0  0
 60133  1  0  0  0
 60134  1  0  0  0
 60135  1  0  0  0
 61136  1  0  0  0
 61137  1  0  0  0
 61138  1  0  0  0
 62139  1  0  0  0
 62140  1  0  0  0
 62141  1  0  0  0
 63 65  1  0  0  0
 63142  1  0  0  0
 63143  1  0  0  0
 63144  1  0  0  0
 64145  1  0  0  0
 65146  1  0  0  0
 68 84  1  0  0  0
 71 73  2  0  0  0
 71 75  1  0  0  0
 71 86  1  0  0  0
 72 74  1  0  0  0
 72 76  1  0  0  0
 72 85  2  0  0  0
 73 77  1  0  0  0
 73 85  1  0  0  0
 74 78  1  0  0  0
 74 86  2  0  0  0
 75147  1  0  0  0
 75148  1  0  0  0
 75149  1  0  0  0
 76150  1  0  0  0
 76151  1  0  0  0
 76152  1  0  0  0
 77 79  1  0  0  0
 77153  1  0  0  0
 77154  1  0  0  0
 78 84  1  0  0  0
 78155  1  0  0  0
 78156  1  0  0  0
 79 80  1  0  0  0
 79157  1  0  0  0
 79158  1  0  0  0
 80 81  1  0  0  0
 80159  1  0  0  0
 80160  1  0  0  0
 81 82  1  0  0  0
 81161  1  0  0  0
 81162  1  0  0  0
 82 83  1  0  0  0
 82163  1  0  0  0
 82164  1  0  0  0
 83 87  1  0  0  0
 83165  1  0  0  0
 83166  1  0  0  0
 84167  1  0  0  0
 84168  1  0  0  0
 87169  1  0  0  0
M  ISO  4   1 100  68 101  84 101  87 100
M  END
> <chiral flag>
0

> <version>
0

> <s_m_source_file>
/data/baiqing/PycharmProjects/Reinvent-master-3.2/result/LINK_invent/BTK/process_docking_weight1_custom_sum_contain_oxygen_bond_distance_aromatic_linkinvent_7_9_3/rearranged_h_0039.sdf

> <i_m_source_file_index>
16

> <r_mmod_Potential_Energy-OPLS-2005>
39.1619262695312

> <r_mmod_Stretch_Energy-OPLS-2005>
34.783763885498

> <r_mmod_Bend_Energy-OPLS-2005>
135.78385925293

> <r_mmod_Torsional_Energy-OPLS-2005>
256.896057128906

> <r_mmod_Improper_Torsional_Energy-OPLS-2005>
7.66800117492676

> <r_mmod_Van_der_Waal_Energy-OPLS-2005>
165.629699707031

> <r_mmod_Electrostatic_Energy-OPLS-2005>
-361.472778320312

> <r_mmod_Solvation_Energy-OPLS-2005>
-212.233245849609

> <b_mmod_Minimization_Converged-OPLS-2005>
0

> <r_mmod_RMS_Derivative-OPLS-2005>
3.05360579490662

$$$$
16
                    3D
 Structure written by MMmdl.
166174  0  0  1  0            999 V2000
  -30.7047  -14.4692   20.5799 C   0  0  0  0  0  0
  -30.4122  -12.3131   19.4051 C   0  0  0  0  0  0
  -29.4808  -12.5011   18.1906 C   0  0  0  0  0  0
  -28.0025  -12.3653   18.6085 C   0  0  0  0  0  0
  -27.6553  -13.2080   19.8654 C   0  0  2  0  0  0
  -28.6972  -12.9916   20.9830 C   0  0  0  0  0  0
  -25.2582  -13.8190   20.5683 C   0  0  0  0  0  0
  -24.1827  -13.0456   20.9183 C   0  0  0  0  0  0
  -24.6376  -11.6916   20.8739 C   0  0  0  0  0  0
  -23.9055  -10.4304   21.0405 C   0  0  0  0  0  0
  -24.3612   -9.4218   21.9185 C   0  0  0  0  0  0
  -23.6289   -8.2243   22.0741 C   0  0  0  0  0  0
  -22.4267   -8.0295   21.3538 C   0  0  0  0  0  0
  -21.9920   -9.0263   20.4625 C   0  0  0  0  0  0
  -22.7240  -10.2148   20.3042 C   0  0  0  0  0  0
  -21.6857   -6.0746   22.5279 C   0  0  0  0  0  0
  -21.4015   -6.5649   23.8216 C   0  0  0  0  0  0
  -21.3653   -5.6796   24.9171 C   0  0  0  0  0  0
  -21.6032   -4.3059   24.7223 C   0  0  0  0  0  0
  -21.8828   -3.8159   23.4342 C   0  0  0  0  0  0
  -21.9194   -4.6974   22.3393 C   0  0  0  0  0  0
  -22.7858  -13.5252   21.1861 C   0  0  0  0  0  0
  -22.1668   -4.2165   21.0976 F   0  0  0  0  0  0
  -21.5619   -3.4540   25.7732 F   0  0  0  0  0  0
  -30.0232  -13.3018   20.4236 N   0  0  0  0  0  0
  -26.2978  -12.9327   20.3320 N   0  0  0  0  0  0
  -25.9306  -11.6480   20.5750 N   0  0  0  0  0  0
  -22.0488  -12.8216   22.0391 N   0  0  0  0  0  0
  -25.4362  -15.1882   20.4086 N   0  0  0  0  0  0
  -31.8250  -14.6609   20.0979 O   0  0  0  0  0  0
  -21.6638   -6.8888   21.4235 O   0  0  0  0  0  0
  -22.3542  -14.5555   20.6719 O   0  0  0  0  0  0
  -24.6184  -31.8724   23.2087 C   0  0  0  0  0  0
  -25.9099  -32.4827   23.8376 C   0  0  1  0  0  0
  -27.2433  -27.4314   20.1064 C   0  0  0  0  0  0
  -25.5961  -33.8627   24.2309 N   0  0  0  0  0  0
  -23.4041  -30.4879   21.5540 C   0  0  2  0  0  0
  -24.8487  -28.9491   20.1197 C   0  0  0  0  0  0
  -22.7436  -29.4624   22.5041 C   0  0  0  0  0  0
  -18.0271  -28.1322   22.8469 C   0  0  0  0  0  0
  -24.1517  -36.7306   23.2632 C   0  0  0  0  0  0
  -25.9293  -30.8349   21.3595 C   0  0  0  0  0  0
  -26.0097  -29.4674   20.7070 C   0  0  0  0  0  0
  -27.2094  -28.7204   20.6861 C   0  0  0  0  0  0
  -26.0590  -26.9204   19.5309 C   0  0  0  0  0  0
  -24.8672  -27.6719   19.5301 C   0  0  0  0  0  0
  -23.6102  -29.8173   20.1695 C   0  0  0  0  0  0
  -25.4137  -36.3086   24.0297 C   0  0  1  0  0  0
  -20.5863  -28.3614   23.1317 C   0  0  2  0  0  0
  -20.6776  -26.9363   22.5396 C   0  0  0  0  0  0
  -19.5749  -26.6347   21.5189 C   0  0  0  0  0  0
  -18.1914  -26.7868   22.1605 C   0  0  0  0  0  0
  -19.1518  -28.8787   23.2885 C   0  0  0  0  0  0
  -18.9467  -30.1401   23.8893 C   0  0  0  0  0  0
  -17.6476  -30.6551   24.0516 C   0  0  0  0  0  0
  -25.9061  -34.9473   23.5094 C   0  0  0  0  0  0
  -16.5356  -29.9030   23.6313 C   0  0  0  0  0  0
  -16.7268  -28.6438   23.0333 C   0  0  0  0  0  0
  -26.4528  -31.6605   25.0702 C   0  0  0  0  0  0
  -25.3818  -31.3660   26.1459 C   0  0  0  0  0  0
  -27.0350  -30.3046   24.6017 C   0  0  0  0  0  0
  -27.6047  -32.4389   25.7534 C   0  0  0  0  0  0
  -27.5584  -37.1812   24.8456 C   0  0  0  0  0  0
  -21.4162  -29.3002   22.3772 N   0  0  0  0  0  0
  -26.4322  -37.3765   23.9385 N   0  0  0  0  0  0
  -24.6688  -31.0788   22.0990 N   0  0  0  0  0  0
  -23.4215  -28.8147   23.3052 O   0  0  0  0  0  0
  -28.4354  -26.7351   20.0704 O   0  0  0  0  0  0
  -26.5607  -34.8938   22.4638 O   0  0  0  0  0  0
  -23.5387  -32.1495   23.7464 O   0  0  0  0  0  0
  -29.9775  -20.9565   19.5766 C   0  0  0  0  0  0
  -27.7761  -22.0978   20.6994 C   0  0  0  0  0  0
  -29.1087  -20.1849   20.4138 C   0  0  0  0  0  0
  -28.6360  -22.8500   19.8553 C   0  0  0  0  0  0
  -32.5130  -20.8570   19.6211 C   0  0  0  0  0  0
  -25.4682  -21.7347   21.8205 C   0  0  0  0  0  0
  -31.2299  -20.4481   18.8788 C   0  0  0  0  0  0
  -26.5697  -22.7252   21.3938 C   0  0  0  0  0  0
  -29.1835  -18.6648   20.7321 C   0  0  0  0  0  0
  -28.3762  -24.3092   19.4351 C   0  0  0  0  0  0
  -30.5545  -17.9414   20.7857 C   0  0  0  0  0  0
  -30.6554  -16.7057   21.7245 C   0  0  0  0  0  0
  -28.4593  -25.3799   20.5563 C   0  0  0  0  0  0
  -28.0328  -20.7918   20.9817 N   0  0  0  0  0  0
  -29.7384  -22.2702   19.3194 N   0  0  0  0  0  0
  -30.0552  -15.4513   21.2376 N   0  0  0  0  0  0
  -31.4542  -12.4089   19.1000 H   0  0  0  0  0  0
  -30.3114  -11.3039   19.8065 H   0  0  0  0  0  0
  -29.7130  -11.7686   17.4157 H   0  0  0  0  0  0
  -29.6469  -13.4809   17.7412 H   0  0  0  0  0  0
  -27.8071  -11.3108   18.8020 H   0  0  0  0  0  0
  -27.3498  -12.6421   17.7782 H   0  0  0  0  0  0
  -27.6993  -14.2552   19.5651 H   0  0  0  0  0  0
  -28.6779  -11.9551   21.3222 H   0  0  0  0  0  0
  -28.4566  -13.5893   21.8634 H   0  0  0  0  0  0
  -25.2752   -9.5705   22.4767 H   0  0  0  0  0  0
  -24.0008   -7.4642   22.7462 H   0  0  0  0  0  0
  -21.0853   -8.8773   19.8924 H   0  0  0  0  0  0
  -22.3700  -10.9678   19.6155 H   0  0  0  0  0  0
  -21.2020   -7.6165   23.9723 H   0  0  0  0  0  0
  -21.1453   -6.0524   25.9075 H   0  0  0  0  0  0
  -22.0611   -2.7624   23.2833 H   0  0  0  0  0  0
  -22.4099  -11.9863   22.4743 H   0  0  0  0  0  0
  -21.1095  -13.1216   22.2586 H   0  0  0  0  0  0
  -24.6817  -15.8549   20.5232 H   0  0  0  0  0  0
  -26.2983  -15.6134   20.0919 H   0  0  0  0  0  0
  -26.7170  -32.5538   23.1152 H   0  0  0  0  0  0
  -25.0156  -33.9795   25.0471 H   0  0  0  0  0  0
  -22.6891  -31.3028   21.4174 H   0  0  0  0  0  0
  -23.3764  -35.9653   23.3300 H   0  0  0  0  0  0
  -24.3587  -36.8930   22.2043 H   0  0  0  0  0  0
  -23.7307  -37.6509   23.6680 H   0  0  0  0  0  0
  -26.0362  -31.6048   20.5958 H   0  0  0  0  0  0
  -26.8163  -30.8892   21.9766 H   0  0  0  0  0  0
  -28.1141  -29.1245   21.1233 H   0  0  0  0  0  0
  -26.0428  -25.9491   19.0679 H   0  0  0  0  0  0
  -23.9738  -27.2629   19.0780 H   0  0  0  0  0  0
  -23.7161  -30.5948   19.4117 H   0  0  0  0  0  0
  -22.7330  -29.2380   19.8795 H   0  0  0  0  0  0
  -25.1331  -36.1916   25.0776 H   0  0  0  0  0  0
  -20.9924  -28.3187   24.1441 H   0  0  0  0  0  0
  -20.5671  -26.2252   23.3594 H   0  0  0  0  0  0
  -21.6648  -26.7418   22.1192 H   0  0  0  0  0  0
  -19.6934  -25.6249   21.1226 H   0  0  0  0  0  0
  -19.6666  -27.3167   20.6724 H   0  0  0  0  0  0
  -17.4191  -26.6618   21.3983 H   0  0  0  0  0  0
  -18.0275  -25.9994   22.8990 H   0  0  0  0  0  0
  -19.7967  -30.7167   24.2273 H   0  0  0  0  0  0
  -17.5044  -31.6233   24.5122 H   0  0  0  0  0  0
  -15.5349  -30.2913   23.7651 H   0  0  0  0  0  0
  -15.8672  -28.0757   22.7039 H   0  0  0  0  0  0
  -24.6004  -30.6994   25.7805 H   0  0  0  0  0  0
  -24.9010  -32.2786   26.4987 H   0  0  0  0  0  0
  -25.8231  -30.8809   27.0170 H   0  0  0  0  0  0
  -26.2827  -29.6800   24.1166 H   0  0  0  0  0  0
  -27.4229  -29.7291   25.4430 H   0  0  0  0  0  0
  -27.8639  -30.4349   23.9050 H   0  0  0  0  0  0
  -27.2556  -33.3675   26.2087 H   0  0  0  0  0  0
  -28.3901  -32.6994   25.0425 H   0  0  0  0  0  0
  -28.0662  -31.8544   26.5507 H   0  0  0  0  0  0
  -28.2586  -38.0133   24.7508 H   0  0  0  0  0  0
  -28.1114  -36.2649   24.6312 H   0  0  0  0  0  0
  -27.2275  -37.1447   25.8853 H   0  0  0  0  0  0
  -20.9339  -29.8837   21.7069 H   0  0  0  0  0  0
  -26.0199  -38.2827   24.1396 H   0  0  0  0  0  0
  -33.3971  -20.5036   19.0892 H   0  0  0  0  0  0
  -32.5478  -20.4615   20.6360 H   0  0  0  0  0  0
  -32.5965  -21.9414   19.6971 H   0  0  0  0  0  0
  -24.6281  -22.2614   22.2738 H   0  0  0  0  0  0
  -25.8367  -21.0199   22.5596 H   0  0  0  0  0  0
  -25.0838  -21.1674   20.9720 H   0  0  0  0  0  0
  -31.2590  -20.8791   17.8765 H   0  0  0  0  0  0
  -31.1851  -19.3832   18.6959 H   0  0  0  0  0  0
  -26.1202  -23.4502   20.7121 H   0  0  0  0  0  0
  -26.9224  -23.2900   22.2587 H   0  0  0  0  0  0
  -28.5180  -18.1343   20.0486 H   0  0  0  0  0  0
  -28.7350  -18.5467   21.7186 H   0  0  0  0  0  0
  -27.4139  -24.3432   18.9327 H   0  0  0  0  0  0
  -29.1034  -24.5809   18.6702 H   0  0  0  0  0  0
  -31.2784  -18.6596   21.1659 H   0  0  0  0  0  0
  -30.8893  -17.6488   19.7924 H   0  0  0  0  0  0
  -30.2209  -16.9377   22.6960 H   0  0  0  0  0  0
  -31.7118  -16.5229   21.9274 H   0  0  0  0  0  0
  -29.4116  -25.2574   21.0749 H   0  0  0  0  0  0
  -27.6954  -25.2385   21.3171 H   0  0  0  0  0  0
  -29.1201  -15.2351   21.5536 H   0  0  0  0  0  0
  1 25  1  0  0  0
  1 30  2  0  0  0
  1 86  1  0  0  0
  2  3  1  0  0  0
  2 25  1  0  0  0
  2 87  1  0  0  0
  2 88  1  0  0  0
  3  4  1  0  0  0
  3 89  1  0  0  0
  3 90  1  0  0  0
  4  5  1  0  0  0
  4 91  1  0  0  0
  4 92  1  0  0  0
  5  6  1  0  0  0
  5 26  1  0  0  0
  5 93  1  0  0  0
  6 25  1  0  0  0
  6 94  1  0  0  0
  6 95  1  0  0  0
  7  8  2  0  0  0
  7 26  1  0  0  0
  7 29  1  0  0  0
  8  9  1  0  0  0
  8 22  1  0  0  0
  9 10  1  0  0  0
  9 27  2  0  0  0
 10 11  2  0  0  0
 10 15  1  0  0  0
 11 12  1  0  0  0
 11 96  1  0  0  0
 12 13  2  0  0  0
 12 97  1  0  0  0
 13 14  1  0  0  0
 13 31  1  0  0  0
 14 15  2  0  0  0
 14 98  1  0  0  0
 15 99  1  0  0  0
 16 17  2  0  0  0
 16 21  1  0  0  0
 16 31  1  0  0  0
 17 18  1  0  0  0
 17100  1  0  0  0
 18 19  2  0  0  0
 18101  1  0  0  0
 19 20  1  0  0  0
 19 24  1  0  0  0
 20 21  2  0  0  0
 20102  1  0  0  0
 21 23  1  0  0  0
 22 28  1  0  0  0
 22 32  2  0  0  0
 26 27  1  0  0  0
 28103  1  0  0  0
 28104  1  0  0  0
 29105  1  0  0  0
 29106  1  0  0  0
 33 34  1  0  0  0
 33 66  1  0  0  0
 33 70  2  0  0  0
 34 36  1  0  0  0
 34 59  1  0  0  0
 34107  1  0  0  0
 35 44  2  0  0  0
 35 45  1  0  0  0
 35 68  1  0  0  0
 36 56  1  0  0  0
 36108  1  0  0  0
 37 39  1  0  0  0
 37 47  1  0  0  0
 37 66  1  0  0  0
 37109  1  0  0  0
 38 43  2  0  0  0
 38 46  1  0  0  0
 38 47  1  0  0  0
 39 64  1  0  0  0
 39 67  2  0  0  0
 40 52  1  0  0  0
 40 53  2  0  0  0
 40 58  1  0  0  0
 41110  1  0  0  0
 41111  1  0  0  0
 41112  1  0  0  0
 41 48  1  0  0  0
 42 43  1  0  0  0
 42 66  1  0  0  0
 42113  1  0  0  0
 42114  1  0  0  0
 43 44  1  0  0  0
 44115  1  0  0  0
 45 46  2  0  0  0
 45116  1  0  0  0
 46117  1  0  0  0
 47118  1  0  0  0
 47119  1  0  0  0
 48 56  1  0  0  0
 48 65  1  0  0  0
 48120  1  0  0  0
 49 50  1  0  0  0
 49 53  1  0  0  0
 49 64  1  0  0  0
 49121  1  0  0  0
 50 51  1  0  0  0
 50122  1  0  0  0
 50123  1  0  0  0
 51 52  1  0  0  0
 51124  1  0  0  0
 51125  1  0  0  0
 52126  1  0  0  0
 52127  1  0  0  0
 53 54  1  0  0  0
 54 55  2  0  0  0
 54128  1  0  0  0
 55 57  1  0  0  0
 55129  1  0  0  0
 56 69  2  0  0  0
 57 58  2  0  0  0
 57130  1  0  0  0
 58131  1  0  0  0
 59 60  1  0  0  0
 59 61  1  0  0  0
 59 62  1  0  0  0
 60132  1  0  0  0
 60133  1  0  0  0
 60134  1  0  0  0
 61135  1  0  0  0
 61136  1  0  0  0
 61137  1  0  0  0
 62138  1  0  0  0
 62139  1  0  0  0
 62140  1  0  0  0
 63 65  1  0  0  0
 63141  1  0  0  0
 63142  1  0  0  0
 63143  1  0  0  0
 64144  1  0  0  0
 65145  1  0  0  0
 68 83  1  0  0  0
 71 73  2  0  0  0
 71 77  1  0  0  0
 71 85  1  0  0  0
 72 74  1  0  0  0
 72 78  1  0  0  0
 72 84  2  0  0  0
 73 79  1  0  0  0
 73 84  1  0  0  0
 74 80  1  0  0  0
 74 85  2  0  0  0
 75 77  1  0  0  0
 75146  1  0  0  0
 75147  1  0  0  0
 75148  1  0  0  0
 76 78  1  0  0  0
 76149  1  0  0  0
 76150  1  0  0  0
 76151  1  0  0  0
 77152  1  0  0  0
 77153  1  0  0  0
 78154  1  0  0  0
 78155  1  0  0  0
 79 81  1  0  0  0
 79156  1  0  0  0
 79157  1  0  0  0
 80 83  1  0  0  0
 80158  1  0  0  0
 80159  1  0  0  0
 81 82  1  0  0  0
 81160  1  0  0  0
 81161  1  0  0  0
 82 86  1  0  0  0
 82162  1  0  0  0
 82163  1  0  0  0
 83164  1  0  0  0
 83165  1  0  0  0
 86166  1  0  0  0
M  ISO  4   1 100  68 101  83 101  86 100
M  END
> <chiral flag>
0

> <version>
0

> <s_m_source_file>
/data/baiqing/PycharmProjects/Reinvent-master-3.2/result/LINK_invent/BTK/process_docking_weight1_custom_sum_contain_oxygen_bond_distance_aromatic_linkinvent_7_9_3/rearranged_h_0039.sdf

> <i_m_source_file_index>
17

> <r_mmod_Potential_Energy-OPLS-2005>
-17.4832210540771

> <r_mmod_Stretch_Energy-OPLS-2005>
45.0802307128906

> <r_mmod_Bend_Energy-OPLS-2005>
127.645988464355

> <r_mmod_Torsional_Energy-OPLS-2005>
211.620178222656

> <r_mmod_Improper_Torsional_Energy-OPLS-2005>
2.60519647598267

> <r_mmod_Van_der_Waal_Energy-OPLS-2005>
154.687438964844

> <r_mmod_Electrostatic_Energy-OPLS-2005>
-355.678253173828

> <r_mmod_Solvation_Energy-OPLS-2005>
-215.5244140625

> <b_mmod_Minimization_Converged-OPLS-2005>
0

> <r_mmod_RMS_Derivative-OPLS-2005>
3.9058518409729

$$$$
17
                    3D
 Structure written by MMmdl.
164172  0  0  1  0            999 V2000
  -30.7132  -14.4176   20.5931 C   0  0  0  0  0  0
  -30.4251  -12.2822   19.4012 C   0  0  0  0  0  0
  -29.4877  -12.5086   18.1951 C   0  0  0  0  0  0
  -28.0080  -12.3601   18.6092 C   0  0  0  0  0  0
  -27.6634  -13.1947   19.8721 C   0  0  2  0  0  0
  -28.7065  -12.9481   20.9887 C   0  0  0  0  0  0
  -25.2578  -13.8155   20.5646 C   0  0  0  0  0  0
  -24.1842  -13.0445   20.9191 C   0  0  0  0  0  0
  -24.6388  -11.6903   20.8775 C   0  0  0  0  0  0
  -23.9080  -10.4296   21.0443 C   0  0  0  0  0  0
  -24.3646   -9.4202   21.9199 C   0  0  0  0  0  0
  -23.6313   -8.2241   22.0760 C   0  0  0  0  0  0
  -22.4281   -8.0300   21.3551 C   0  0  0  0  0  0
  -21.9944   -9.0280   20.4640 C   0  0  0  0  0  0
  -22.7286  -10.2145   20.3052 C   0  0  0  0  0  0
  -21.6845   -6.0769   22.5300 C   0  0  0  0  0  0
  -21.4010   -6.5660   23.8238 C   0  0  0  0  0  0
  -21.3651   -5.6798   24.9185 C   0  0  0  0  0  0
  -21.6036   -4.3063   24.7219 C   0  0  0  0  0  0
  -21.8825   -3.8176   23.4333 C   0  0  0  0  0  0
  -21.9194   -4.7005   22.3406 C   0  0  0  0  0  0
  -22.7853  -13.5232   21.1856 C   0  0  0  0  0  0
  -22.1661   -4.2204   21.0981 F   0  0  0  0  0  0
  -21.5612   -3.4539   25.7720 F   0  0  0  0  0  0
  -30.0462  -13.2443   20.4453 N   0  0  0  0  0  0
  -26.3031  -12.9309   20.3334 N   0  0  0  0  0  0
  -25.9307  -11.6477   20.5780 N   0  0  0  0  0  0
  -22.0490  -12.8226   22.0396 N   0  0  0  0  0  0
  -25.4206  -15.1904   20.4043 N   0  0  0  0  0  0
  -31.8139  -14.6487   20.0828 O   0  0  0  0  0  0
  -21.6615   -6.8916   21.4255 O   0  0  0  0  0  0
  -22.3529  -14.5549   20.6712 O   0  0  0  0  0  0
  -24.6139  -31.8681   23.2127 C   0  0  0  0  0  0
  -25.9029  -32.4830   23.8434 C   0  0  1  0  0  0
  -27.2301  -27.4567   20.0770 C   0  0  0  0  0  0
  -25.5891  -33.8627   24.2350 N   0  0  0  0  0  0
  -23.4042  -30.4956   21.5491 C   0  0  2  0  0  0
  -24.8473  -28.9606   20.1145 C   0  0  0  0  0  0
  -22.7401  -29.4692   22.4942 C   0  0  0  0  0  0
  -18.0296  -28.1364   22.8438 C   0  0  0  0  0  0
  -24.1492  -36.7328   23.2641 C   0  0  0  0  0  0
  -25.9314  -30.8379   21.3645 C   0  0  0  0  0  0
  -26.0065  -29.4730   20.7120 C   0  0  0  0  0  0
  -27.2049  -28.7259   20.6956 C   0  0  0  0  0  0
  -26.0601  -26.9493   19.4795 C   0  0  0  0  0  0
  -24.8668  -27.6952   19.4995 C   0  0  0  0  0  0
  -23.6088  -29.8263   20.1646 C   0  0  0  0  0  0
  -25.4106  -36.3111   24.0338 C   0  0  1  0  0  0
  -20.5869  -28.3693   23.1264 C   0  0  2  0  0  0
  -20.6794  -26.9422   22.5452 C   0  0  0  0  0  0
  -19.5777  -26.6297   21.5250 C   0  0  0  0  0  0
  -18.1977  -26.7868   22.1667 C   0  0  0  0  0  0
  -19.1525  -28.8862   23.2842 C   0  0  0  0  0  0
  -18.9456  -30.1452   23.8857 C   0  0  0  0  0  0
  -17.6451  -30.6569   24.0579 C   0  0  0  0  0  0
  -25.9027  -34.9486   23.5139 C   0  0  0  0  0  0
  -16.5367  -29.9063   23.6303 C   0  0  0  0  0  0
  -16.7284  -28.6505   23.0273 C   0  0  0  0  0  0
  -26.4466  -31.6605   25.0752 C   0  0  0  0  0  0
  -25.3752  -31.3707   26.1513 C   0  0  0  0  0  0
  -27.0291  -30.3054   24.6101 C   0  0  0  0  0  0
  -27.6037  -32.4326   25.7518 C   0  0  0  0  0  0
  -27.5578  -37.1820   24.8461 C   0  0  0  0  0  0
  -21.4131  -29.3023   22.3589 N   0  0  0  0  0  0
  -26.4292  -37.3786   23.9407 N   0  0  0  0  0  0
  -24.6686  -31.0791   22.1024 N   0  0  0  0  0  0
  -23.4146  -28.8302   23.3066 O   0  0  0  0  0  0
  -28.3700  -26.6960   20.0419 O   0  0  0  0  0  0
  -26.5581  -34.8915   22.4698 O   0  0  0  0  0  0
  -23.5326  -32.1418   23.7525 O   0  0  0  0  0  0
  -28.4749  -18.7030   21.2336 C   0  0  0  0  0  0
  -28.2811  -17.0927   19.4442 C   0  0  0  0  0  0
  -28.9689  -17.5525   20.5828 C   0  0  0  0  0  0
  -27.2843  -19.3017   20.7656 C   0  0  0  0  0  0
  -26.6196  -18.6964   19.6753 C   0  0  0  0  0  0
  -25.2621  -19.1739   19.1873 C   0  0  0  0  0  0
  -26.7284  -20.5365   21.4774 C   0  0  0  0  0  0
  -30.2086  -16.8221   21.1002 C   0  0  0  0  0  0
  -26.5527  -21.7810   20.5691 C   0  0  0  0  0  0
  -27.1789  -23.0928   21.1023 C   0  0  0  0  0  0
  -28.3987  -23.5646   20.2823 C   0  0  0  0  0  0
  -29.2756  -24.6296   20.9781 C   0  0  0  0  0  0
  -28.6097  -25.9899   21.2563 C   0  0  0  0  0  0
  -27.1241  -17.6333   19.0152 N   0  0  0  0  0  0
  -29.9983  -15.3766   21.1932 N   0  0  0  0  0  0
  -31.4658  -12.3925   19.0910 H   0  0  0  0  0  0
  -30.3322  -11.2621   19.7805 H   0  0  0  0  0  0
  -29.7245  -11.8092   17.3935 H   0  0  0  0  0  0
  -29.6530  -13.5054   17.7823 H   0  0  0  0  0  0
  -27.8143  -11.3029   18.7980 H   0  0  0  0  0  0
  -27.3583  -12.6412   17.7772 H   0  0  0  0  0  0
  -27.7099  -14.2423   19.5814 H   0  0  0  0  0  0
  -28.6733  -11.9089   21.3154 H   0  0  0  0  0  0
  -28.4636  -13.5283   21.8795 H   0  0  0  0  0  0
  -25.2800   -9.5656   22.4759 H   0  0  0  0  0  0
  -24.0031   -7.4616   22.7468 H   0  0  0  0  0  0
  -21.0891   -8.8808   19.8923 H   0  0  0  0  0  0
  -22.3796  -10.9680   19.6137 H   0  0  0  0  0  0
  -21.1992   -7.6169   23.9760 H   0  0  0  0  0  0
  -21.1462   -6.0517   25.9092 H   0  0  0  0  0  0
  -22.0611   -2.7648   23.2814 H   0  0  0  0  0  0
  -22.4088  -11.9865   22.4754 H   0  0  0  0  0  0
  -21.1100  -13.1255   22.2563 H   0  0  0  0  0  0
  -24.6424  -15.8282   20.5303 H   0  0  0  0  0  0
  -26.2355  -15.6547   20.0202 H   0  0  0  0  0  0
  -26.7100  -32.5528   23.1203 H   0  0  0  0  0  0
  -25.0068  -33.9794   25.0508 H   0  0  0  0  0  0
  -22.6967  -31.3175   21.4083 H   0  0  0  0  0  0
  -23.3735  -35.9679   23.3307 H   0  0  0  0  0  0
  -24.3586  -36.8933   22.2053 H   0  0  0  0  0  0
  -23.7264  -37.6546   23.6643 H   0  0  0  0  0  0
  -26.0394  -31.6037   20.5948 H   0  0  0  0  0  0
  -26.8209  -30.8889   21.9812 H   0  0  0  0  0  0
  -28.1073  -29.1163   21.1465 H   0  0  0  0  0  0
  -26.0744  -25.9780   19.0037 H   0  0  0  0  0  0
  -23.9738  -27.2945   19.0395 H   0  0  0  0  0  0
  -23.7112  -30.5993   19.4021 H   0  0  0  0  0  0
  -22.7342  -29.2415   19.8755 H   0  0  0  0  0  0
  -25.1286  -36.1991   25.0830 H   0  0  0  0  0  0
  -20.9933  -28.3371   24.1393 H   0  0  0  0  0  0
  -20.5767  -26.2333   23.3691 H   0  0  0  0  0  0
  -21.6654  -26.7480   22.1199 H   0  0  0  0  0  0
  -19.6658  -27.3023   20.6711 H   0  0  0  0  0  0
  -19.6984  -25.6153   21.1410 H   0  0  0  0  0  0
  -17.4235  -26.6429   21.4109 H   0  0  0  0  0  0
  -18.0458  -26.0115   22.9184 H   0  0  0  0  0  0
  -19.7952  -30.7241   24.2173 H   0  0  0  0  0  0
  -17.4969  -31.6225   24.5249 H   0  0  0  0  0  0
  -15.5349  -30.2921   23.7658 H   0  0  0  0  0  0
  -15.8662  -28.0867   22.6949 H   0  0  0  0  0  0
  -24.5896  -30.7070   25.7878 H   0  0  0  0  0  0
  -24.8976  -32.2863   26.5012 H   0  0  0  0  0  0
  -25.8118  -30.8853   27.0256 H   0  0  0  0  0  0
  -26.2824  -29.6826   24.1150 H   0  0  0  0  0  0
  -27.4077  -29.7260   25.4538 H   0  0  0  0  0  0
  -27.8653  -30.4390   23.9230 H   0  0  0  0  0  0
  -27.2637  -33.3600   26.2150 H   0  0  0  0  0  0
  -28.3823  -32.6947   25.0339 H   0  0  0  0  0  0
  -28.0736  -31.8437   26.5403 H   0  0  0  0  0  0
  -28.2610  -38.0108   24.7491 H   0  0  0  0  0  0
  -28.1063  -36.2638   24.6303 H   0  0  0  0  0  0
  -27.2295  -37.1487   25.8865 H   0  0  0  0  0  0
  -20.9322  -29.8441   21.6538 H   0  0  0  0  0  0
  -26.0186  -38.2875   24.1370 H   0  0  0  0  0  0
  -28.9906  -19.1009   22.0956 H   0  0  0  0  0  0
  -28.6431  -16.2386   18.8898 H   0  0  0  0  0  0
  -24.5998  -19.4060   20.0224 H   0  0  0  0  0  0
  -24.7637  -18.4152   18.5835 H   0  0  0  0  0  0
  -25.3674  -20.0651   18.5724 H   0  0  0  0  0  0
  -27.3651  -20.7670   22.3314 H   0  0  0  0  0  0
  -25.7661  -20.2646   21.9152 H   0  0  0  0  0  0
  -31.0512  -17.0622   20.4483 H   0  0  0  0  0  0
  -30.4658  -17.1917   22.0932 H   0  0  0  0  0  0
  -26.9356  -21.5848   19.5680 H   0  0  0  0  0  0
  -25.4808  -21.9385   20.4289 H   0  0  0  0  0  0
  -27.4451  -22.9903   22.1531 H   0  0  0  0  0  0
  -26.4252  -23.8818   21.0712 H   0  0  0  0  0  0
  -28.0749  -23.9212   19.3040 H   0  0  0  0  0  0
  -29.0350  -22.6998   20.0822 H   0  0  0  0  0  0
  -30.1707  -24.7954   20.3770 H   0  0  0  0  0  0
  -29.6281  -24.2192   21.9242 H   0  0  0  0  0  0
  -29.2811  -26.5976   21.8646 H   0  0  0  0  0  0
  -27.6993  -25.8513   21.8428 H   0  0  0  0  0  0
  -29.1333  -15.0718   21.6118 H   0  0  0  0  0  0
  1 25  1  0  0  0
  1 30  2  0  0  0
  1 85  1  0  0  0
  2  3  1  0  0  0
  2 25  1  0  0  0
  2 86  1  0  0  0
  2 87  1  0  0  0
  3  4  1  0  0  0
  3 88  1  0  0  0
  3 89  1  0  0  0
  4  5  1  0  0  0
  4 90  1  0  0  0
  4 91  1  0  0  0
  5  6  1  0  0  0
  5 26  1  0  0  0
  5 92  1  0  0  0
  6 25  1  0  0  0
  6 93  1  0  0  0
  6 94  1  0  0  0
  7  8  2  0  0  0
  7 26  1  0  0  0
  7 29  1  0  0  0
  8  9  1  0  0  0
  8 22  1  0  0  0
  9 10  1  0  0  0
  9 27  2  0  0  0
 10 11  2  0  0  0
 10 15  1  0  0  0
 11 12  1  0  0  0
 11 95  1  0  0  0
 12 13  2  0  0  0
 12 96  1  0  0  0
 13 14  1  0  0  0
 13 31  1  0  0  0
 14 15  2  0  0  0
 14 97  1  0  0  0
 15 98  1  0  0  0
 16 17  2  0  0  0
 16 21  1  0  0  0
 16 31  1  0  0  0
 17 18  1  0  0  0
 17 99  1  0  0  0
 18 19  2  0  0  0
 18100  1  0  0  0
 19 20  1  0  0  0
 19 24  1  0  0  0
 20 21  2  0  0  0
 20101  1  0  0  0
 21 23  1  0  0  0
 22 28  1  0  0  0
 22 32  2  0  0  0
 26 27  1  0  0  0
 28102  1  0  0  0
 28103  1  0  0  0
 29104  1  0  0  0
 29105  1  0  0  0
 33 34  1  0  0  0
 33 66  1  0  0  0
 33 70  2  0  0  0
 34 36  1  0  0  0
 34 59  1  0  0  0
 34106  1  0  0  0
 35 44  2  0  0  0
 35 45  1  0  0  0
 35 68  1  0  0  0
 36 56  1  0  0  0
 36107  1  0  0  0
 37 39  1  0  0  0
 37 47  1  0  0  0
 37 66  1  0  0  0
 37108  1  0  0  0
 38 43  2  0  0  0
 38 46  1  0  0  0
 38 47  1  0  0  0
 39 64  1  0  0  0
 39 67  2  0  0  0
 40 52  1  0  0  0
 40 53  2  0  0  0
 40 58  1  0  0  0
 41109  1  0  0  0
 41110  1  0  0  0
 41111  1  0  0  0
 41 48  1  0  0  0
 42 43  1  0  0  0
 42 66  1  0  0  0
 42112  1  0  0  0
 42113  1  0  0  0
 43 44  1  0  0  0
 44114  1  0  0  0
 45 46  2  0  0  0
 45115  1  0  0  0
 46116  1  0  0  0
 47117  1  0  0  0
 47118  1  0  0  0
 48 56  1  0  0  0
 48 65  1  0  0  0
 48119  1  0  0  0
 49 50  1  0  0  0
 49 53  1  0  0  0
 49 64  1  0  0  0
 49120  1  0  0  0
 50 51  1  0  0  0
 50121  1  0  0  0
 50122  1  0  0  0
 51 52  1  0  0  0
 51123  1  0  0  0
 51124  1  0  0  0
 52125  1  0  0  0
 52126  1  0  0  0
 53 54  1  0  0  0
 54 55  2  0  0  0
 54127  1  0  0  0
 55 57  1  0  0  0
 55128  1  0  0  0
 56 69  2  0  0  0
 57 58  2  0  0  0
 57129  1  0  0  0
 58130  1  0  0  0
 59 60  1  0  0  0
 59 61  1  0  0  0
 59 62  1  0  0  0
 60131  1  0  0  0
 60132  1  0  0  0
 60133  1  0  0  0
 61134  1  0  0  0
 61135  1  0  0  0
 61136  1  0  0  0
 62137  1  0  0  0
 62138  1  0  0  0
 62139  1  0  0  0
 63 65  1  0  0  0
 63140  1  0  0  0
 63141  1  0  0  0
 63142  1  0  0  0
 64143  1  0  0  0
 65144  1  0  0  0
 68 83  1  0  0  0
 71 73  2  0  0  0
 71 74  1  0  0  0
 71145  1  0  0  0
 72 73  1  0  0  0
 72 84  2  0  0  0
 72146  1  0  0  0
 73 78  1  0  0  0
 74 75  2  0  0  0
 74 77  1  0  0  0
 75 76  1  0  0  0
 75 84  1  0  0  0
 76147  1  0  0  0
 76148  1  0  0  0
 76149  1  0  0  0
 77 79  1  0  0  0
 77150  1  0  0  0
 77151  1  0  0  0
 78 85  1  0  0  0
 78152  1  0  0  0
 78153  1  0  0  0
 79 80  1  0  0  0
 79154  1  0  0  0
 79155  1  0  0  0
 80 81  1  0  0  0
 80156  1  0  0  0
 80157  1  0  0  0
 81 82  1  0  0  0
 81158  1  0  0  0
 81159  1  0  0  0
 82 83  1  0  0  0
 82160  1  0  0  0
 82161  1  0  0  0
 83162  1  0  0  0
 83163  1  0  0  0
 85164  1  0  0  0
M  ISO  4   1 100  68 101  83 101  85 100
M  END
> <chiral flag>
0

> <version>
0

> <s_m_source_file>
/data/baiqing/PycharmProjects/Reinvent-master-3.2/result/LINK_invent/BTK/process_docking_weight1_custom_sum_contain_oxygen_bond_distance_aromatic_linkinvent_7_9_3/rearranged_h_0039.sdf

> <i_m_source_file_index>
18

> <r_mmod_Potential_Energy-OPLS-2005>
-168.759887695312

> <r_mmod_Stretch_Energy-OPLS-2005>
33.4874801635742

> <r_mmod_Bend_Energy-OPLS-2005>
89.422981262207

> <r_mmod_Torsional_Energy-OPLS-2005>
255.113128662109

> <r_mmod_Improper_Torsional_Energy-OPLS-2005>
4.48267793655396

> <r_mmod_Van_der_Waal_Energy-OPLS-2005>
143.578964233398

> <r_mmod_Electrostatic_Energy-OPLS-2005>
-498.897796630859

> <r_mmod_Solvation_Energy-OPLS-2005>
-204.838882446289

> <b_mmod_Minimization_Converged-OPLS-2005>
0

> <r_mmod_RMS_Derivative-OPLS-2005>
4.01471138000488

$$$$
18
                    3D
 Structure written by MMmdl.
157165  0  0  1  0            999 V2000
  -30.6689  -14.5286   20.5649 C   0  0  0  0  0  0
  -30.4331  -12.3413   19.4282 C   0  0  0  0  0  0
  -29.5015  -12.5144   18.2103 C   0  0  0  0  0  0
  -28.0234  -12.3598   18.6236 C   0  0  0  0  0  0
  -27.6597  -13.2078   19.8716 C   0  0  2  0  0  0
  -28.7023  -13.0066   20.9937 C   0  0  0  0  0  0
  -25.2583  -13.8154   20.5673 C   0  0  0  0  0  0
  -24.1833  -13.0435   20.9176 C   0  0  0  0  0  0
  -24.6392  -11.6897   20.8737 C   0  0  0  0  0  0
  -23.9056  -10.4287   21.0409 C   0  0  0  0  0  0
  -24.3610   -9.4204   21.9186 C   0  0  0  0  0  0
  -23.6285   -8.2238   22.0753 C   0  0  0  0  0  0
  -22.4268   -8.0280   21.3543 C   0  0  0  0  0  0
  -21.9905   -9.0253   20.4644 C   0  0  0  0  0  0
  -22.7231  -10.2132   20.3053 C   0  0  0  0  0  0
  -21.6852   -6.0732   22.5279 C   0  0  0  0  0  0
  -21.4015   -6.5638   23.8210 C   0  0  0  0  0  0
  -21.3660   -5.6791   24.9175 C   0  0  0  0  0  0
  -21.6044   -4.3052   24.7225 C   0  0  0  0  0  0
  -21.8817   -3.8146   23.4344 C   0  0  0  0  0  0
  -21.9192   -4.6962   22.3404 C   0  0  0  0  0  0
  -22.7857  -13.5241   21.1843 C   0  0  0  0  0  0
  -22.1659   -4.2149   21.0980 F   0  0  0  0  0  0
  -21.5629   -3.4536   25.7735 F   0  0  0  0  0  0
  -30.0268  -13.3321   20.4375 N   0  0  0  0  0  0
  -26.3013  -12.9323   20.3344 N   0  0  0  0  0  0
  -25.9318  -11.6483   20.5750 N   0  0  0  0  0  0
  -22.0489  -12.8238   22.0397 N   0  0  0  0  0  0
  -25.4309  -15.1870   20.4086 N   0  0  0  0  0  0
  -31.8111  -14.7218   20.1397 O   0  0  0  0  0  0
  -21.6634   -6.8877   21.4240 O   0  0  0  0  0  0
  -22.3553  -14.5553   20.6698 O   0  0  0  0  0  0
  -24.6203  -31.8652   23.2061 C   0  0  0  0  0  0
  -25.9086  -32.4806   23.8362 C   0  0  1  0  0  0
  -27.2318  -27.3957   20.1074 C   0  0  0  0  0  0
  -25.5942  -33.8604   24.2307 N   0  0  0  0  0  0
  -23.4082  -30.4872   21.5458 C   0  0  2  0  0  0
  -24.8569  -28.9428   20.1174 C   0  0  0  0  0  0
  -22.7431  -29.4649   22.4960 C   0  0  0  0  0  0
  -18.0278  -28.1382   22.8491 C   0  0  0  0  0  0
  -24.1475  -36.7274   23.2630 C   0  0  0  0  0  0
  -25.9412  -30.8179   21.3648 C   0  0  0  0  0  0
  -26.0189  -29.4471   20.7157 C   0  0  0  0  0  0
  -27.2138  -28.6826   20.7049 C   0  0  0  0  0  0
  -26.0557  -26.9152   19.5000 C   0  0  0  0  0  0
  -24.8703  -27.6776   19.5047 C   0  0  0  0  0  0
  -23.6211  -29.8161   20.1617 C   0  0  0  0  0  0
  -25.4098  -36.3097   24.0340 C   0  0  1  0  0  0
  -20.5872  -28.3676   23.1307 C   0  0  2  0  0  0
  -20.6767  -26.9406   22.5407 C   0  0  0  0  0  0
  -19.5737  -26.6388   21.5211 C   0  0  0  0  0  0
  -18.1922  -26.7921   22.1631 C   0  0  0  0  0  0
  -19.1531  -28.8845   23.2895 C   0  0  0  0  0  0
  -18.9452  -30.1453   23.8898 C   0  0  0  0  0  0
  -17.6454  -30.6585   24.0566 C   0  0  0  0  0  0
  -25.9039  -34.9472   23.5110 C   0  0  0  0  0  0
  -16.5343  -29.9085   23.6332 C   0  0  0  0  0  0
  -16.7268  -28.6506   23.0348 C   0  0  0  0  0  0
  -26.4505  -31.6586   25.0695 C   0  0  0  0  0  0
  -25.3775  -31.3727   26.1449 C   0  0  0  0  0  0
  -27.0316  -30.3013   24.6085 C   0  0  0  0  0  0
  -27.6098  -32.4283   25.7455 C   0  0  0  0  0  0
  -27.5570  -37.1791   24.8472 C   0  0  0  0  0  0
  -21.4156  -29.3044   22.3712 N   0  0  0  0  0  0
  -26.4277  -37.3794   23.9425 N   0  0  0  0  0  0
  -24.6745  -31.0723   22.0972 N   0  0  0  0  0  0
  -23.4196  -28.8209   23.3027 O   0  0  0  0  0  0
  -28.3726  -26.6133   20.0722 O   0  0  0  0  0  0
  -26.5576  -34.8934   22.4657 O   0  0  0  0  0  0
  -23.5394  -32.1434   23.7441 O   0  0  0  0  0  0
  -29.4004  -23.0871   20.4394 C   0  0  0  0  0  0
  -27.2528  -23.4351   19.9889 C   0  0  0  0  0  0
  -28.3596  -24.0812   20.4705 C   0  0  0  0  0  0
  -28.9147  -21.8919   19.9527 C   0  0  0  0  0  0
  -26.6310  -21.1597   19.1243 C   0  0  0  0  0  0
  -28.4255  -25.5215   21.0232 C   0  0  0  0  0  0
  -29.5832  -20.5487   19.6438 C   0  0  0  0  0  0
  -29.6221  -19.4596   20.7647 C   0  0  0  0  0  0
  -29.7877  -17.9825   20.2603 C   0  0  0  0  0  0
  -30.2729  -16.9493   21.3294 C   0  0  0  0  0  0
  -27.5722  -22.1213   19.6748 N   0  0  0  0  0  0
  -29.9139  -15.5372   21.0564 N   0  0  0  0  0  0
  -31.4759  -12.4586   19.1281 H   0  0  0  0  0  0
  -30.3506  -11.3333   19.8366 H   0  0  0  0  0  0
  -29.7531  -11.7893   17.4353 H   0  0  0  0  0  0
  -29.6563  -13.5000   17.7679 H   0  0  0  0  0  0
  -27.8488  -11.3038   18.8327 H   0  0  0  0  0  0
  -27.3696  -12.6156   17.7894 H   0  0  0  0  0  0
  -27.6967  -14.2524   19.5629 H   0  0  0  0  0  0
  -28.6923  -11.9727   21.3409 H   0  0  0  0  0  0
  -28.4565  -13.6097   21.8691 H   0  0  0  0  0  0
  -25.2755   -9.5682   22.4758 H   0  0  0  0  0  0
  -23.9997   -7.4631   22.7472 H   0  0  0  0  0  0
  -21.0836   -8.8771   19.8948 H   0  0  0  0  0  0
  -22.3693  -10.9671   19.6158 H   0  0  0  0  0  0
  -21.2008   -7.6145   23.9718 H   0  0  0  0  0  0
  -21.1486   -6.0518   25.9078 H   0  0  0  0  0  0
  -22.0597   -2.7606   23.2844 H   0  0  0  0  0  0
  -22.4079  -11.9889   22.4779 H   0  0  0  0  0  0
  -21.1113  -13.1288   22.2600 H   0  0  0  0  0  0
  -24.6659  -15.8439   20.5156 H   0  0  0  0  0  0
  -26.2836  -15.6244   20.0829 H   0  0  0  0  0  0
  -26.7153  -32.5504   23.1120 H   0  0  0  0  0  0
  -25.0204  -33.9757   25.0529 H   0  0  0  0  0  0
  -22.6985  -31.3053   21.4036 H   0  0  0  0  0  0
  -23.3765  -35.9578   23.3298 H   0  0  0  0  0  0
  -24.3561  -36.8875   22.2040 H   0  0  0  0  0  0
  -23.7197  -37.6471   23.6629 H   0  0  0  0  0  0
  -26.0563  -31.5799   20.5932 H   0  0  0  0  0  0
  -26.8292  -30.8745   21.9829 H   0  0  0  0  0  0
  -28.1130  -29.0706   21.1621 H   0  0  0  0  0  0
  -26.0581  -25.9504   19.0147 H   0  0  0  0  0  0
  -23.9793  -27.2864   19.0324 H   0  0  0  0  0  0
  -23.7350  -30.5890   19.4006 H   0  0  0  0  0  0
  -22.7436  -29.2390   19.8646 H   0  0  0  0  0  0
  -25.1278  -36.1940   25.0835 H   0  0  0  0  0  0
  -20.9971  -28.3236   24.1426 H   0  0  0  0  0  0
  -20.5672  -26.2284   23.3600 H   0  0  0  0  0  0
  -21.6634  -26.7437   22.1199 H   0  0  0  0  0  0
  -19.6887  -25.6302   21.1233 H   0  0  0  0  0  0
  -19.6666  -27.3205   20.6746 H   0  0  0  0  0  0
  -17.4188  -26.6685   21.4032 H   0  0  0  0  0  0
  -18.0313  -26.0058   22.9026 H   0  0  0  0  0  0
  -19.7926  -30.7280   24.2260 H   0  0  0  0  0  0
  -17.5005  -31.6265   24.5170 H   0  0  0  0  0  0
  -15.5347  -30.2996   23.7641 H   0  0  0  0  0  0
  -15.8669  -28.0838   22.7044 H   0  0  0  0  0  0
  -24.5885  -30.7151   25.7781 H   0  0  0  0  0  0
  -24.9060  -32.2917   26.4942 H   0  0  0  0  0  0
  -25.8127  -30.8832   27.0170 H   0  0  0  0  0  0
  -26.2852  -29.6781   24.1142 H   0  0  0  0  0  0
  -27.4083  -29.7245   25.4544 H   0  0  0  0  0  0
  -27.8705  -30.4311   23.9238 H   0  0  0  0  0  0
  -27.2744  -33.3598   26.2026 H   0  0  0  0  0  0
  -28.3924  -32.6801   25.0284 H   0  0  0  0  0  0
  -28.0740  -31.8389   26.5374 H   0  0  0  0  0  0
  -28.2611  -38.0071   24.7530 H   0  0  0  0  0  0
  -28.1052  -36.2611   24.6293 H   0  0  0  0  0  0
  -27.2294  -37.1436   25.8879 H   0  0  0  0  0  0
  -20.9320  -29.8772   21.6935 H   0  0  0  0  0  0
  -26.0163  -38.2867   24.1454 H   0  0  0  0  0  0
  -30.4241  -23.2370   20.7561 H   0  0  0  0  0  0
  -26.2409  -23.7942   19.8549 H   0  0  0  0  0  0
  -25.6054  -21.4721   19.3249 H   0  0  0  0  0  0
  -26.7840  -20.1795   19.5751 H   0  0  0  0  0  0
  -26.7731  -21.0811   18.0458 H   0  0  0  0  0  0
  -29.3616  -25.6204   21.5731 H   0  0  0  0  0  0
  -27.6391  -25.6291   21.7724 H   0  0  0  0  0  0
  -30.6069  -20.7364   19.3179 H   0  0  0  0  0  0
  -29.1023  -20.1152   18.7664 H   0  0  0  0  0  0
  -28.6977  -19.5092   21.3415 H   0  0  0  0  0  0
  -30.4207  -19.7114   21.4635 H   0  0  0  0  0  0
  -30.4892  -17.9614   19.4244 H   0  0  0  0  0  0
  -28.8296  -17.6591   19.8503 H   0  0  0  0  0  0
  -29.8214  -17.2002   22.2904 H   0  0  0  0  0  0
  -31.3504  -17.0436   21.4774 H   0  0  0  0  0  0
  -28.9799  -15.2665   21.3267 H   0  0  0  0  0  0
  1 25  1  0  0  0
  1 30  2  0  0  0
  1 82  1  0  0  0
  2  3  1  0  0  0
  2 25  1  0  0  0
  2 83  1  0  0  0
  2 84  1  0  0  0
  3  4  1  0  0  0
  3 85  1  0  0  0
  3 86  1  0  0  0
  4  5  1  0  0  0
  4 87  1  0  0  0
  4 88  1  0  0  0
  5  6  1  0  0  0
  5 26  1  0  0  0
  5 89  1  0  0  0
  6 25  1  0  0  0
  6 90  1  0  0  0
  6 91  1  0  0  0
  7  8  2  0  0  0
  7 26  1  0  0  0
  7 29  1  0  0  0
  8  9  1  0  0  0
  8 22  1  0  0  0
  9 10  1  0  0  0
  9 27  2  0  0  0
 10 11  2  0  0  0
 10 15  1  0  0  0
 11 12  1  0  0  0
 11 92  1  0  0  0
 12 13  2  0  0  0
 12 93  1  0  0  0
 13 14  1  0  0  0
 13 31  1  0  0  0
 14 15  2  0  0  0
 14 94  1  0  0  0
 15 95  1  0  0  0
 16 17  2  0  0  0
 16 21  1  0  0  0
 16 31  1  0  0  0
 17 18  1  0  0  0
 17 96  1  0  0  0
 18 19  2  0  0  0
 18 97  1  0  0  0
 19 20  1  0  0  0
 19 24  1  0  0  0
 20 21  2  0  0  0
 20 98  1  0  0  0
 21 23  1  0  0  0
 22 28  1  0  0  0
 22 32  2  0  0  0
 26 27  1  0  0  0
 28 99  1  0  0  0
 28100  1  0  0  0
 29101  1  0  0  0
 29102  1  0  0  0
 33 34  1  0  0  0
 33 66  1  0  0  0
 33 70  2  0  0  0
 34 36  1  0  0  0
 34 59  1  0  0  0
 34103  1  0  0  0
 35 44  2  0  0  0
 35 45  1  0  0  0
 35 68  1  0  0  0
 36 56  1  0  0  0
 36104  1  0  0  0
 37 39  1  0  0  0
 37 47  1  0  0  0
 37 66  1  0  0  0
 37105  1  0  0  0
 38 43  2  0  0  0
 38 46  1  0  0  0
 38 47  1  0  0  0
 39 64  1  0  0  0
 39 67  2  0  0  0
 40 52  1  0  0  0
 40 53  2  0  0  0
 40 58  1  0  0  0
 41106  1  0  0  0
 41107  1  0  0  0
 41108  1  0  0  0
 41 48  1  0  0  0
 42 43  1  0  0  0
 42 66  1  0  0  0
 42109  1  0  0  0
 42110  1  0  0  0
 43 44  1  0  0  0
 44111  1  0  0  0
 45 46  2  0  0  0
 45112  1  0  0  0
 46113  1  0  0  0
 47114  1  0  0  0
 47115  1  0  0  0
 48 56  1  0  0  0
 48 65  1  0  0  0
 48116  1  0  0  0
 49 50  1  0  0  0
 49 53  1  0  0  0
 49 64  1  0  0  0
 49117  1  0  0  0
 50 51  1  0  0  0
 50118  1  0  0  0
 50119  1  0  0  0
 51 52  1  0  0  0
 51120  1  0  0  0
 51121  1  0  0  0
 52122  1  0  0  0
 52123  1  0  0  0
 53 54  1  0  0  0
 54 55  2  0  0  0
 54124  1  0  0  0
 55 57  1  0  0  0
 55125  1  0  0  0
 56 69  2  0  0  0
 57 58  2  0  0  0
 57126  1  0  0  0
 58127  1  0  0  0
 59 60  1  0  0  0
 59 61  1  0  0  0
 59 62  1  0  0  0
 60128  1  0  0  0
 60129  1  0  0  0
 60130  1  0  0  0
 61131  1  0  0  0
 61132  1  0  0  0
 61133  1  0  0  0
 62134  1  0  0  0
 62135  1  0  0  0
 62136  1  0  0  0
 63 65  1  0  0  0
 63137  1  0  0  0
 63138  1  0  0  0
 63139  1  0  0  0
 64140  1  0  0  0
 65141  1  0  0  0
 68 76  1  0  0  0
 71 73  1  0  0  0
 71 74  2  0  0  0
 71142  1  0  0  0
 72 73  2  0  0  0
 72 81  1  0  0  0
 72143  1  0  0  0
 73 76  1  0  0  0
 74 77  1  0  0  0
 74 81  1  0  0  0
 75 81  1  0  0  0
 75144  1  0  0  0
 75145  1  0  0  0
 75146  1  0  0  0
 76147  1  0  0  0
 76148  1  0  0  0
 77 78  1  0  0  0
 77149  1  0  0  0
 77150  1  0  0  0
 78 79  1  0  0  0
 78151  1  0  0  0
 78152  1  0  0  0
 79 80  1  0  0  0
 79153  1  0  0  0
 79154  1  0  0  0
 80 82  1  0  0  0
 80155  1  0  0  0
 80156  1  0  0  0
 82157  1  0  0  0
M  ISO  4   1 100  68 101  76 101  82 100
M  END
> <chiral flag>
0

> <version>
0

> <s_m_source_file>
/data/baiqing/PycharmProjects/Reinvent-master-3.2/result/LINK_invent/BTK/process_docking_weight1_custom_sum_contain_oxygen_bond_distance_aromatic_linkinvent_7_9_3/rearranged_h_0039.sdf

> <i_m_source_file_index>
19

> <r_mmod_Potential_Energy-OPLS-2005>
-43.6115188598633

> <r_mmod_Stretch_Energy-OPLS-2005>
45.8317909240723

> <r_mmod_Bend_Energy-OPLS-2005>
104.975479125977

> <r_mmod_Torsional_Energy-OPLS-2005>
243.624328613281

> <r_mmod_Improper_Torsional_Energy-OPLS-2005>
3.61880230903625

> <r_mmod_Van_der_Waal_Energy-OPLS-2005>
116.592323303223

> <r_mmod_Electrostatic_Energy-OPLS-2005>
-362.759460449219

> <r_mmod_Solvation_Energy-OPLS-2005>
-215.496826171875

> <b_mmod_Minimization_Converged-OPLS-2005>
0

> <r_mmod_RMS_Derivative-OPLS-2005>
1.57610559463501

$$$$
19
                    3D
 Structure written by MMmdl.
162170  0  0  1  0            999 V2000
  -30.6730  -14.5275   20.5288 C   0  0  0  0  0  0
  -30.4165  -12.3275   19.4181 C   0  0  0  0  0  0
  -29.4839  -12.4938   18.2000 C   0  0  0  0  0  0
  -28.0072  -12.3517   18.6220 C   0  0  0  0  0  0
  -27.6526  -13.2095   19.8659 C   0  0  2  0  0  0
  -28.7025  -13.0138   20.9824 C   0  0  0  0  0  0
  -25.2569  -13.8176   20.5727 C   0  0  0  0  0  0
  -24.1812  -13.0431   20.9209 C   0  0  0  0  0  0
  -24.6374  -11.6904   20.8749 C   0  0  0  0  0  0
  -23.9049  -10.4270   21.0406 C   0  0  0  0  0  0
  -24.3602   -9.4184   21.9182 C   0  0  0  0  0  0
  -23.6274   -8.2215   22.0741 C   0  0  0  0  0  0
  -22.4260   -8.0260   21.3530 C   0  0  0  0  0  0
  -21.9903   -9.0237   20.4637 C   0  0  0  0  0  0
  -22.7226  -10.2116   20.3050 C   0  0  0  0  0  0
  -21.6845   -6.0733   22.5273 C   0  0  0  0  0  0
  -21.4009   -6.5632   23.8211 C   0  0  0  0  0  0
  -21.3659   -5.6788   24.9176 C   0  0  0  0  0  0
  -21.6045   -4.3047   24.7230 C   0  0  0  0  0  0
  -21.8821   -3.8137   23.4347 C   0  0  0  0  0  0
  -21.9185   -4.6957   22.3398 C   0  0  0  0  0  0
  -22.7834  -13.5211   21.1881 C   0  0  0  0  0  0
  -22.1654   -4.2135   21.0979 F   0  0  0  0  0  0
  -21.5632   -3.4530   25.7750 F   0  0  0  0  0  0
  -30.0194  -13.3353   20.4144 N   0  0  0  0  0  0
  -26.2978  -12.9334   20.3359 N   0  0  0  0  0  0
  -25.9294  -11.6492   20.5775 N   0  0  0  0  0  0
  -22.0505  -12.8172   22.0446 N   0  0  0  0  0  0
  -25.4346  -15.1887   20.4185 N   0  0  0  0  0  0
  -31.8288  -14.6862   20.1293 O   0  0  0  0  0  0
  -21.6620   -6.8866   21.4232 O   0  0  0  0  0  0
  -22.3503  -14.5505   20.6741 O   0  0  0  0  0  0
  -24.6176  -31.8663   23.2088 C   0  0  0  0  0  0
  -25.9038  -32.4834   23.8396 C   0  0  1  0  0  0
  -27.2280  -27.3829   20.1026 C   0  0  0  0  0  0
  -25.5870  -33.8639   24.2326 N   0  0  0  0  0  0
  -23.4092  -30.4842   21.5563 C   0  0  2  0  0  0
  -24.8552  -28.9466   20.1170 C   0  0  0  0  0  0
  -22.7454  -29.4602   22.5047 C   0  0  0  0  0  0
  -18.0263  -28.1339   22.8507 C   0  0  0  0  0  0
  -24.1478  -36.7317   23.2625 C   0  0  0  0  0  0
  -25.9427  -30.8110   21.3738 C   0  0  0  0  0  0
  -26.0215  -29.4433   20.7170 C   0  0  0  0  0  0
  -27.2140  -28.6691   20.7050 C   0  0  0  0  0  0
  -26.0488  -26.9245   19.4773 C   0  0  0  0  0  0
  -24.8669  -27.6886   19.4922 C   0  0  0  0  0  0
  -23.6186  -29.8192   20.1716 C   0  0  0  0  0  0
  -25.4111  -36.3140   24.0316 C   0  0  1  0  0  0
  -20.5855  -28.3635   23.1341 C   0  0  2  0  0  0
  -20.6762  -26.9375   22.5432 C   0  0  0  0  0  0
  -19.5740  -26.6359   21.5222 C   0  0  0  0  0  0
  -18.1915  -26.7893   22.1622 C   0  0  0  0  0  0
  -19.1510  -28.8803   23.2914 C   0  0  0  0  0  0
  -18.9443  -30.1409   23.8921 C   0  0  0  0  0  0
  -17.6449  -30.6572   24.0536 C   0  0  0  0  0  0
  -25.9039  -34.9497   23.5143 C   0  0  0  0  0  0
  -16.5339  -29.9058   23.6317 C   0  0  0  0  0  0
  -16.7250  -28.6454   23.0376 C   0  0  0  0  0  0
  -26.4446  -31.6622   25.0737 C   0  0  0  0  0  0
  -25.3665  -31.3723   26.1451 C   0  0  0  0  0  0
  -27.0244  -30.3046   24.6116 C   0  0  0  0  0  0
  -27.6045  -32.4331   25.7474 C   0  0  0  0  0  0
  -27.5598  -37.1806   24.8458 C   0  0  0  0  0  0
  -21.4170  -29.2999   22.3777 N   0  0  0  0  0  0
  -26.4312  -37.3812   23.9400 N   0  0  0  0  0  0
  -24.6750  -31.0681   22.1048 N   0  0  0  0  0  0
  -23.4195  -28.8137   23.3104 O   0  0  0  0  0  0
  -28.3561  -26.5743   20.1107 O   0  0  0  0  0  0
  -26.5645  -34.8936   22.4734 O   0  0  0  0  0  0
  -23.5346  -32.1465   23.7437 O   0  0  0  0  0  0
  -26.2073  -23.0526   20.0489 C   0  0  0  0  0  0
  -26.9661  -20.3932   20.2666 C   0  0  0  0  0  0
  -27.5957  -22.7583   20.0991 C   0  0  0  0  0  0
  -25.2141  -22.0580   20.1362 C   0  0  0  0  0  0
  -27.9867  -21.3698   20.2164 C   0  0  0  0  0  0
  -25.6034  -20.7145   20.2426 C   0  0  0  0  0  0
  -23.7414  -22.4265   20.1017 C   0  0  0  0  0  0
  -28.5532  -23.9760   19.9304 C   0  0  0  0  0  0
  -29.4398  -20.8374   20.2157 C   0  0  0  0  0  0
  -29.7998  -19.5565   21.0741 C   0  0  0  0  0  0
  -29.4914  -18.0998   20.5547 C   0  0  0  0  0  0
  -30.3787  -16.9752   21.1916 C   0  0  0  0  0  0
  -28.2009  -25.2746   20.7612 C   0  0  0  0  0  0
  -29.9283  -15.5776   20.9547 N   0  0  0  0  0  0
  -24.4368  -19.4423   20.3333 Cl  0  0  0  0  0  0
  -31.4608  -12.4200   19.1181 H   0  0  0  0  0  0
  -30.3150  -11.3243   19.8362 H   0  0  0  0  0  0
  -29.7204  -11.7525   17.4353 H   0  0  0  0  0  0
  -29.6435  -13.4697   17.7391 H   0  0  0  0  0  0
  -27.8284  -11.2979   18.8423 H   0  0  0  0  0  0
  -27.3469  -12.6008   17.7901 H   0  0  0  0  0  0
  -27.6869  -14.2514   19.5466 H   0  0  0  0  0  0
  -28.6940  -11.9774   21.3246 H   0  0  0  0  0  0
  -28.4722  -13.6171   21.8615 H   0  0  0  0  0  0
  -25.2752   -9.5643   22.4749 H   0  0  0  0  0  0
  -23.9981   -7.4603   22.7443 H   0  0  0  0  0  0
  -21.0837   -8.8753   19.8936 H   0  0  0  0  0  0
  -22.3691  -10.9654   19.6145 H   0  0  0  0  0  0
  -21.2004   -7.6140   23.9711 H   0  0  0  0  0  0
  -21.1487   -6.0521   25.9083 H   0  0  0  0  0  0
  -22.0607   -2.7599   23.2858 H   0  0  0  0  0  0
  -22.4134  -11.9815   22.4783 H   0  0  0  0  0  0
  -21.1126  -13.1176   22.2702 H   0  0  0  0  0  0
  -24.6855  -15.8591   20.5527 H   0  0  0  0  0  0
  -26.2966  -15.6190   20.1094 H   0  0  0  0  0  0
  -26.7107  -32.5537   23.1153 H   0  0  0  0  0  0
  -24.9939  -33.9799   25.0412 H   0  0  0  0  0  0
  -22.6978  -31.3005   21.4215 H   0  0  0  0  0  0
  -23.3763  -35.9633   23.3299 H   0  0  0  0  0  0
  -24.3570  -36.8945   22.2041 H   0  0  0  0  0  0
  -23.7181  -37.6484   23.6666 H   0  0  0  0  0  0
  -26.0641  -31.5766   20.6064 H   0  0  0  0  0  0
  -26.8264  -30.8649   21.9978 H   0  0  0  0  0  0
  -28.1141  -29.0386   21.1771 H   0  0  0  0  0  0
  -26.0409  -25.9718   18.9692 H   0  0  0  0  0  0
  -23.9707  -27.3057   19.0193 H   0  0  0  0  0  0
  -23.7309  -30.5968   19.4162 H   0  0  0  0  0  0
  -22.7404  -29.2430   19.8770 H   0  0  0  0  0  0
  -25.1290  -36.2032   25.0804 H   0  0  0  0  0  0
  -20.9915  -28.3190   24.1467 H   0  0  0  0  0  0
  -20.5661  -26.2236   23.3611 H   0  0  0  0  0  0
  -21.6640  -26.7433   22.1229 H   0  0  0  0  0  0
  -19.6903  -25.6270   21.1245 H   0  0  0  0  0  0
  -19.6670  -27.3175   20.6762 H   0  0  0  0  0  0
  -17.4193  -26.6648   21.4008 H   0  0  0  0  0  0
  -18.0296  -26.0010   22.8986 H   0  0  0  0  0  0
  -19.7916  -30.7194   24.2337 H   0  0  0  0  0  0
  -17.5003  -31.6263   24.5116 H   0  0  0  0  0  0
  -15.5337  -30.2965   23.7623 H   0  0  0  0  0  0
  -15.8647  -28.0755   22.7134 H   0  0  0  0  0  0
  -24.5883  -30.7043   25.7740 H   0  0  0  0  0  0
  -24.8773  -32.2851   26.4859 H   0  0  0  0  0  0
  -25.7964  -30.8899   27.0236 H   0  0  0  0  0  0
  -26.2775  -29.6836   24.1146 H   0  0  0  0  0  0
  -27.3942  -29.7274   25.4598 H   0  0  0  0  0  0
  -27.8672  -30.4334   23.9321 H   0  0  0  0  0  0
  -27.2732  -33.3679   26.2022 H   0  0  0  0  0  0
  -28.3852  -32.6809   25.0265 H   0  0  0  0  0  0
  -28.0710  -31.8444   26.5380 H   0  0  0  0  0  0
  -28.2627  -38.0101   24.7570 H   0  0  0  0  0  0
  -28.1097  -36.2640   24.6261 H   0  0  0  0  0  0
  -27.2322  -37.1432   25.8861 H   0  0  0  0  0  0
  -20.9356  -29.8711   21.6980 H   0  0  0  0  0  0
  -26.0223  -38.2889   24.1433 H   0  0  0  0  0  0
  -25.8745  -24.0702   19.9270 H   0  0  0  0  0  0
  -27.2014  -19.3498   20.3043 H   0  0  0  0  0  0
  -23.5834  -23.5048   20.0843 H   0  0  0  0  0  0
  -23.2398  -22.0312   20.9848 H   0  0  0  0  0  0
  -23.2609  -21.9998   19.2205 H   0  0  0  0  0  0
  -28.5645  -24.2263   18.8687 H   0  0  0  0  0  0
  -29.5786  -23.6954   20.1681 H   0  0  0  0  0  0
  -30.0781  -21.6354   20.5901 H   0  0  0  0  0  0
  -29.7513  -20.6785   19.1829 H   0  0  0  0  0  0
  -29.4223  -19.6774   22.0902 H   0  0  0  0  0  0
  -30.8853  -19.5921   21.1810 H   0  0  0  0  0  0
  -29.6054  -18.0738   19.4697 H   0  0  0  0  0  0
  -28.4566  -17.8377   20.7651 H   0  0  0  0  0  0
  -30.4018  -17.1169   22.2732 H   0  0  0  0  0  0
  -31.4072  -17.1040   20.8535 H   0  0  0  0  0  0
  -28.8576  -25.2877   21.6328 H   0  0  0  0  0  0
  -27.2085  -25.1956   21.2035 H   0  0  0  0  0  0
  -28.9714  -15.3627   21.1926 H   0  0  0  0  0  0
  1 25  1  0  0  0
  1 30  2  0  0  0
  1 84  1  0  0  0
  2  3  1  0  0  0
  2 25  1  0  0  0
  2 86  1  0  0  0
  2 87  1  0  0  0
  3  4  1  0  0  0
  3 88  1  0  0  0
  3 89  1  0  0  0
  4  5  1  0  0  0
  4 90  1  0  0  0
  4 91  1  0  0  0
  5  6  1  0  0  0
  5 26  1  0  0  0
  5 92  1  0  0  0
  6 25  1  0  0  0
  6 93  1  0  0  0
  6 94  1  0  0  0
  7  8  2  0  0  0
  7 26  1  0  0  0
  7 29  1  0  0  0
  8  9  1  0  0  0
  8 22  1  0  0  0
  9 10  1  0  0  0
  9 27  2  0  0  0
 10 11  2  0  0  0
 10 15  1  0  0  0
 11 12  1  0  0  0
 11 95  1  0  0  0
 12 13  2  0  0  0
 12 96  1  0  0  0
 13 14  1  0  0  0
 13 31  1  0  0  0
 14 15  2  0  0  0
 14 97  1  0  0  0
 15 98  1  0  0  0
 16 17  2  0  0  0
 16 21  1  0  0  0
 16 31  1  0  0  0
 17 18  1  0  0  0
 17 99  1  0  0  0
 18 19  2  0  0  0
 18100  1  0  0  0
 19 20  1  0  0  0
 19 24  1  0  0  0
 20 21  2  0  0  0
 20101  1  0  0  0
 21 23  1  0  0  0
 22 28  1  0  0  0
 22 32  2  0  0  0
 26 27  1  0  0  0
 28102  1  0  0  0
 28103  1  0  0  0
 29104  1  0  0  0
 29105  1  0  0  0
 33 34  1  0  0  0
 33 66  1  0  0  0
 33 70  2  0  0  0
 34 36  1  0  0  0
 34 59  1  0  0  0
 34106  1  0  0  0
 35 44  2  0  0  0
 35 45  1  0  0  0
 35 68  1  0  0  0
 36 56  1  0  0  0
 36107  1  0  0  0
 37 39  1  0  0  0
 37 47  1  0  0  0
 37 66  1  0  0  0
 37108  1  0  0  0
 38 43  2  0  0  0
 38 46  1  0  0  0
 38 47  1  0  0  0
 39 64  1  0  0  0
 39 67  2  0  0  0
 40 52  1  0  0  0
 40 53  2  0  0  0
 40 58  1  0  0  0
 41109  1  0  0  0
 41110  1  0  0  0
 41111  1  0  0  0
 41 48  1  0  0  0
 42 43  1  0  0  0
 42 66  1  0  0  0
 42112  1  0  0  0
 42113  1  0  0  0
 43 44  1  0  0  0
 44114  1  0  0  0
 45 46  2  0  0  0
 45115  1  0  0  0
 46116  1  0  0  0
 47117  1  0  0  0
 47118  1  0  0  0
 48 56  1  0  0  0
 48 65  1  0  0  0
 48119  1  0  0  0
 49 50  1  0  0  0
 49 53  1  0  0  0
 49 64  1  0  0  0
 49120  1  0  0  0
 50 51  1  0  0  0
 50121  1  0  0  0
 50122  1  0  0  0
 51 52  1  0  0  0
 51123  1  0  0  0
 51124  1  0  0  0
 52125  1  0  0  0
 52126  1  0  0  0
 53 54  1  0  0  0
 54 55  2  0  0  0
 54127  1  0  0  0
 55 57  1  0  0  0
 55128  1  0  0  0
 56 69  2  0  0  0
 57 58  2  0  0  0
 57129  1  0  0  0
 58130  1  0  0  0
 59 60  1  0  0  0
 59 61  1  0  0  0
 59 62  1  0  0  0
 60131  1  0  0  0
 60132  1  0  0  0
 60133  1  0  0  0
 61134  1  0  0  0
 61135  1  0  0  0
 61136  1  0  0  0
 62137  1  0  0  0
 62138  1  0  0  0
 62139  1  0  0  0
 63 65  1  0  0  0
 63140  1  0  0  0
 63141  1  0  0  0
 63142  1  0  0  0
 64143  1  0  0  0
 65144  1  0  0  0
 68 83  1  0  0  0
 71 73  2  0  0  0
 71 74  1  0  0  0
 71145  1  0  0  0
 72 75  2  0  0  0
 72 76  1  0  0  0
 72146  1  0  0  0
 73 75  1  0  0  0
 73 78  1  0  0  0
 74 76  2  0  0  0
 74 77  1  0  0  0
 75 79  1  0  0  0
 76 85  1  0  0  0
 77147  1  0  0  0
 77148  1  0  0  0
 77149  1  0  0  0
 78 83  1  0  0  0
 78150  1  0  0  0
 78151  1  0  0  0
 79 80  1  0  0  0
 79152  1  0  0  0
 79153  1  0  0  0
 80 81  1  0  0  0
 80154  1  0  0  0
 80155  1  0  0  0
 81 82  1  0  0  0
 81156  1  0  0  0
 81157  1  0  0  0
 82 84  1  0  0  0
 82158  1  0  0  0
 82159  1  0  0  0
 83160  1  0  0  0
 83161  1  0  0  0
 84162  1  0  0  0
M  ISO  4   1 100  68 101  83 101  84 100
M  END
> <chiral flag>
0

> <version>
0

> <s_m_source_file>
/data/baiqing/PycharmProjects/Reinvent-master-3.2/result/LINK_invent/BTK/process_docking_weight1_custom_sum_contain_oxygen_bond_distance_aromatic_linkinvent_7_9_3/rearranged_h_0039.sdf

> <i_m_source_file_index>
20

> <r_mmod_Potential_Energy-OPLS-2005>
25.009033203125

> <r_mmod_Stretch_Energy-OPLS-2005>
59.6794967651367

> <r_mmod_Bend_Energy-OPLS-2005>
127.722694396973

> <r_mmod_Torsional_Energy-OPLS-2005>
235.769454956055

> <r_mmod_Improper_Torsional_Energy-OPLS-2005>
3.69618558883667

> <r_mmod_Van_der_Waal_Energy-OPLS-2005>
148.993927001953

> <r_mmod_Electrostatic_Energy-OPLS-2005>
-372.462158203125

> <r_mmod_Solvation_Energy-OPLS-2005>
-201.83073425293

> <b_mmod_Minimization_Converged-OPLS-2005>
0

> <r_mmod_RMS_Derivative-OPLS-2005>
2.96817636489868

$$$$
20
                    3D
 Structure written by MMmdl.
169177  0  0  1  0            999 V2000
  -30.1172  -15.1078   20.4182 C   0  0  0  0  0  0
  -30.4148  -12.7039   19.5317 C   0  0  0  0  0  0
  -29.5166  -12.5506   18.2769 C   0  0  0  0  0  0
  -28.0563  -12.2699   18.6820 C   0  0  0  0  0  0
  -27.5876  -13.2050   19.8257 C   0  0  2  0  0  0
  -28.5841  -13.2051   20.9915 C   0  0  0  0  0  0
  -25.2294  -13.8078   20.5606 C   0  0  0  0  0  0
  -24.1636  -13.0402   20.9212 C   0  0  0  0  0  0
  -24.6192  -11.6842   20.8775 C   0  0  0  0  0  0
  -23.8922  -10.4267   21.0459 C   0  0  0  0  0  0
  -24.3531   -9.4196   21.9221 C   0  0  0  0  0  0
  -23.6244   -8.2218   22.0767 C   0  0  0  0  0  0
  -22.4238   -8.0242   21.3547 C   0  0  0  0  0  0
  -21.9834   -9.0199   20.4657 C   0  0  0  0  0  0
  -22.7115  -10.2090   20.3083 C   0  0  0  0  0  0
  -21.6838   -6.0712   22.5289 C   0  0  0  0  0  0
  -21.4002   -6.5628   23.8218 C   0  0  0  0  0  0
  -21.3660   -5.6784   24.9185 C   0  0  0  0  0  0
  -21.6037   -4.3047   24.7236 C   0  0  0  0  0  0
  -21.8823   -3.8132   23.4364 C   0  0  0  0  0  0
  -21.9189   -4.6944   22.3415 C   0  0  0  0  0  0
  -22.7699  -13.5219   21.1912 C   0  0  0  0  0  0
  -22.1662   -4.2129   21.0994 F   0  0  0  0  0  0
  -21.5628   -3.4536   25.7755 F   0  0  0  0  0  0
  -29.8016  -13.7481   20.4191 N   0  0  0  0  0  0
  -26.2548  -12.9173   20.2999 N   0  0  0  0  0  0
  -25.9046  -11.6376   20.5612 N   0  0  0  0  0  0
  -22.0337  -12.8238   22.0461 N   0  0  0  0  0  0
  -25.4085  -15.1802   20.3989 N   0  0  0  0  0  0
  -31.3111  -15.3415   20.1400 O   0  0  0  0  0  0
  -21.6612   -6.8837   21.4246 O   0  0  0  0  0  0
  -22.3457  -14.5565   20.6742 O   0  0  0  0  0  0
  -24.7639  -32.1082   23.0430 C   0  0  0  0  0  0
  -26.0094  -32.5823   23.8169 C   0  0  1  0  0  0
  -26.9729  -27.4025   20.5104 C   0  0  0  0  0  0
  -25.6746  -33.9303   24.2606 N   0  0  0  0  0  0
  -23.7215  -30.7410   21.2756 C   0  0  2  0  0  0
  -25.0808  -29.2434   19.7821 C   0  0  0  0  0  0
  -23.7483  -29.5469   22.1357 C   0  0  0  0  0  0
  -17.8647  -27.8617   22.8243 C   0  0  0  0  0  0
  -24.1480  -36.7567   23.2582 C   0  0  0  0  0  0
  -26.1824  -31.0450   21.2137 C   0  0  0  0  0  0
  -26.2168  -29.6748   20.5018 C   0  0  0  0  0  0
  -27.2587  -28.7592   20.7401 C   0  0  0  0  0  0
  -26.0272  -27.0262   19.5321 C   0  0  0  0  0  0
  -25.0020  -27.9433   19.2378 C   0  0  0  0  0  0
  -23.9046  -30.2074   19.8303 C   0  0  0  0  0  0
  -25.4122  -36.3568   24.0361 C   0  0  1  0  0  0
  -20.4471  -27.1288   23.2875 C   0  0  2  0  0  0
  -19.8586  -25.8222   22.8711 C   0  0  0  0  0  0
  -19.0175  -25.9441   21.6183 C   0  0  0  0  0  0
  -17.7497  -26.6459   21.9775 C   0  0  0  0  0  0
  -19.0964  -28.2269   23.4101 C   0  0  0  0  0  0
  -19.0048  -29.5634   24.0174 C   0  0  0  0  0  0
  -17.8372  -30.3889   23.9844 C   0  0  0  0  0  0
  -25.9243  -35.0066   23.5130 C   0  0  0  0  0  0
  -16.6227  -29.8388   23.5614 C   0  0  0  0  0  0
  -16.6538  -28.5500   23.0219 C   0  0  0  0  0  0
  -26.4522  -31.6882   25.0431 C   0  0  0  0  0  0
  -25.3351  -31.3771   26.0694 C   0  0  0  0  0  0
  -27.0480  -30.3446   24.5670 C   0  0  0  0  0  0
  -27.5936  -32.4189   25.7897 C   0  0  0  0  0  0
  -27.5650  -37.2018   24.8462 C   0  0  0  0  0  0
  -23.1010  -28.4310   21.7461 N   0  0  0  0  0  0
  -26.4307  -37.4240   23.9525 N   0  0  0  0  0  0
  -24.8960  -31.4206   21.8493 N   0  0  0  0  0  0
  -24.0958  -29.5705   23.3086 O   0  0  0  0  0  0
  -26.8562  -26.6952   21.7027 O   0  0  0  0  0  0
  -26.5463  -34.9465   22.4473 O   0  0  0  0  0  0
  -23.6555  -32.3006   23.5778 O   0  0  0  0  0  0
  -21.5910  -28.9372   23.2218 C   0  0  0  0  0  0
  -22.6866  -27.5418   23.7723 C   0  0  0  0  0  0
  -21.7672  -26.6223   21.3676 C   0  0  0  0  0  0
  -20.3134  -28.8364   20.3167 C   0  0  0  0  0  0
  -24.3843  -27.0927   23.8689 C   0  0  0  0  0  0
  -22.4403  -25.3918   20.3907 C   0  0  0  0  0  0
  -23.2510  -23.8717   20.8970 C   0  0  0  0  0  0
  -24.7039  -22.9486   20.4180 C   0  0  0  0  0  0
  -25.2367  -21.2676   20.7264 C   0  0  0  0  0  0
  -26.7546  -20.3580   20.4432 C   0  0  0  0  0  0
  -27.2132  -18.6391   20.6594 C   0  0  0  0  0  0
  -28.7251  -17.7179   20.4042 C   0  0  0  0  0  0
  -25.4285  -26.9620   22.4154 C   0  0  0  0  0  0
  -20.9802  -28.1935   21.4672 N   0  0  0  0  0  0
  -22.5493  -26.3657   22.6664 N   0  3  0  0  0  0
  -29.0382  -16.1065   20.5703 N   0  0  0  0  0  0
  -31.4324  -12.9675   19.2429 H   0  0  0  0  0  0
  -30.4949  -11.7524   20.0612 H   0  0  0  0  0  0
  -29.8908  -11.7507   17.6361 H   0  0  0  0  0  0
  -29.5570  -13.4676   17.6879 H   0  0  0  0  0  0
  -27.9982  -11.2329   19.0155 H   0  0  0  0  0  0
  -27.3949  -12.3463   17.8201 H   0  0  0  0  0  0
  -27.5492  -14.2007   19.3859 H   0  0  0  0  0  0
  -28.7299  -12.1979   21.3865 H   0  0  0  0  0  0
  -28.2272  -13.8163   21.8227 H   0  0  0  0  0  0
  -25.2680   -9.5698   22.4784 H   0  0  0  0  0  0
  -23.9968   -7.4612   22.7473 H   0  0  0  0  0  0
  -21.0777   -8.8694   19.8958 H   0  0  0  0  0  0
  -22.3575  -10.9628   19.6194 H   0  0  0  0  0  0
  -21.1989   -7.6137   23.9712 H   0  0  0  0  0  0
  -21.1481   -6.0523   25.9083 H   0  0  0  0  0  0
  -22.0599   -2.7595   23.2868 H   0  0  0  0  0  0
  -22.3923  -11.9874   22.4847 H   0  0  0  0  0  0
  -21.0964  -13.1280   22.2704 H   0  0  0  0  0  0
  -24.6292  -15.8189   20.5034 H   0  0  0  0  0  0
  -26.2005  -15.5984   19.9345 H   0  0  0  0  0  0
  -26.8689  -32.6575   23.1540 H   0  0  0  0  0  0
  -25.1032  -34.0232   25.0891 H   0  0  0  0  0  0
  -22.8072  -31.3254   21.3740 H   0  0  0  0  0  0
  -23.3893  -35.9750   23.3267 H   0  0  0  0  0  0
  -24.3648  -36.9217   22.2010 H   0  0  0  0  0  0
  -23.6964  -37.6655   23.6564 H   0  0  0  0  0  0
  -26.4296  -31.8263   20.4948 H   0  0  0  0  0  0
  -27.0114  -31.0415   21.9112 H   0  0  0  0  0  0
  -28.0069  -29.0048   21.4833 H   0  0  0  0  0  0
  -25.8411  -25.9867   19.3058 H   0  0  0  0  0  0
  -24.1417  -27.6465   18.6522 H   0  0  0  0  0  0
  -24.1161  -31.0576   19.1775 H   0  0  0  0  0  0
  -22.9971  -29.8067   19.3901 H   0  0  0  0  0  0
  -25.1266  -36.2488   25.0858 H   0  0  0  0  0  0
  -20.5981  -26.9323   24.3686 H   0  0  0  0  0  0
  -19.1897  -25.4955   23.6730 H   0  0  0  0  0  0
  -20.5605  -24.9843   22.7864 H   0  0  0  0  0  0
  -18.6921  -24.9294   21.3863 H   0  0  0  0  0  0
  -19.4543  -26.2641   20.6794 H   0  0  0  0  0  0
  -17.2118  -26.8800   21.0584 H   0  0  0  0  0  0
  -17.1235  -25.9698   22.5592 H   0  0  0  0  0  0
  -19.8289  -29.9219   24.6105 H   0  0  0  0  0  0
  -17.8289  -31.4226   24.3056 H   0  0  0  0  0  0
  -15.6941  -30.3971   23.5878 H   0  0  0  0  0  0
  -15.7356  -28.0878   22.6808 H   0  0  0  0  0  0
  -24.5414  -30.7730   25.6305 H   0  0  0  0  0  0
  -24.8681  -32.2860   26.4514 H   0  0  0  0  0  0
  -25.7205  -30.8139   26.9237 H   0  0  0  0  0  0
  -26.3754  -29.7915   23.9226 H   0  0  0  0  0  0
  -27.2893  -29.6966   25.4095 H   0  0  0  0  0  0
  -27.9721  -30.4899   24.0107 H   0  0  0  0  0  0
  -27.2445  -33.3330   26.2745 H   0  0  0  0  0  0
  -28.3944  -32.7050   25.1037 H   0  0  0  0  0  0
  -28.0292  -31.7929   26.5730 H   0  0  0  0  0  0
  -28.2626  -38.0377   24.7817 H   0  0  0  0  0  0
  -28.1218  -36.2978   24.5986 H   0  0  0  0  0  0
  -27.2372  -37.1246   25.8831 H   0  0  0  0  0  0
  -23.1262  -28.2818   20.7462 H   0  0  0  0  0  0
  -26.0318  -38.3339   24.1704 H   0  0  0  0  0  0
  -21.4592  -29.9872   23.4664 H   0  0  0  0  0  0
  -21.0241  -28.9805   19.5133 H   0  0  0  0  0  0
  -19.9220  -29.8189   20.5670 H   0  0  0  0  0  0
  -19.5354  -28.2069   19.8979 H   0  0  0  0  0  0
  -24.4292  -26.1004   24.3160 H   0  0  0  0  0  0
  -24.8704  -27.7389   24.6224 H   0  0  0  0  0  0
  -23.1556  -25.9286   19.7799 H   0  0  0  0  0  0
  -21.6558  -25.1306   19.6833 H   0  0  0  0  0  0
  -22.4597  -23.1354   20.7576 H   0  0  0  0  0  0
  -23.3384  -23.9425   21.9806 H   0  0  0  0  0  0
  -25.5309  -23.5541   20.7863 H   0  0  0  0  0  0
  -24.7606  -23.0549   19.3356 H   0  0  0  0  0  0
  -24.4748  -20.6696   20.2288 H   0  0  0  0  0  0
  -25.0408  -21.1038   21.7838 H   0  0  0  0  0  0
  -27.5067  -20.8926   21.0281 H   0  0  0  0  0  0
  -27.0248  -20.6014   19.4161 H   0  0  0  0  0  0
  -26.4710  -18.0895   20.0850 H   0  0  0  0  0  0
  -26.9494  -18.4320   21.6975 H   0  0  0  0  0  0
  -29.4756  -18.2105   21.0224 H   0  0  0  0  0  0
  -29.0459  -17.9449   19.3875 H   0  0  0  0  0  0
  -24.7821  -26.5372   21.6581 H   0  0  0  0  0  0
  -25.5789  -28.0093   22.3215 H   0  0  0  0  0  0
  -23.1150  -25.5302   22.7037 H   0  0  0  0  0  0
  -28.1955  -15.6231   20.8443 H   0  0  0  0  0  0
  1 25  1  0  0  0
  1 30  2  0  0  0
  1 86  1  0  0  0
  2  3  1  0  0  0
  2 25  1  0  0  0
  2 87  1  0  0  0
  2 88  1  0  0  0
  3  4  1  0  0  0
  3 89  1  0  0  0
  3 90  1  0  0  0
  4  5  1  0  0  0
  4 91  1  0  0  0
  4 92  1  0  0  0
  5  6  1  0  0  0
  5 26  1  0  0  0
  5 93  1  0  0  0
  6 25  1  0  0  0
  6 94  1  0  0  0
  6 95  1  0  0  0
  7  8  2  0  0  0
  7 26  1  0  0  0
  7 29  1  0  0  0
  8  9  1  0  0  0
  8 22  1  0  0  0
  9 10  1  0  0  0
  9 27  2  0  0  0
 10 11  2  0  0  0
 10 15  1  0  0  0
 11 12  1  0  0  0
 11 96  1  0  0  0
 12 13  2  0  0  0
 12 97  1  0  0  0
 13 14  1  0  0  0
 13 31  1  0  0  0
 14 15  2  0  0  0
 14 98  1  0  0  0
 15 99  1  0  0  0
 16 17  2  0  0  0
 16 21  1  0  0  0
 16 31  1  0  0  0
 17 18  1  0  0  0
 17100  1  0  0  0
 18 19  2  0  0  0
 18101  1  0  0  0
 19 20  1  0  0  0
 19 24  1  0  0  0
 20 21  2  0  0  0
 20102  1  0  0  0
 21 23  1  0  0  0
 22 28  1  0  0  0
 22 32  2  0  0  0
 26 27  1  0  0  0
 28103  1  0  0  0
 28104  1  0  0  0
 29105  1  0  0  0
 29106  1  0  0  0
 33 34  1  0  0  0
 33 66  1  0  0  0
 33 70  2  0  0  0
 34 36  1  0  0  0
 34 59  1  0  0  0
 34107  1  0  0  0
 35 44  2  0  0  0
 35 45  1  0  0  0
 35 68  1  0  0  0
 36 56  1  0  0  0
 36108  1  0  0  0
 37 39  1  0  0  0
 37 47  1  0  0  0
 37 66  1  0  0  0
 37109  1  0  0  0
 38 43  2  0  0  0
 38 46  1  0  0  0
 38 47  1  0  0  0
 39 64  1  0  0  0
 39 67  2  0  0  0
 40 52  1  0  0  0
 40 53  2  0  0  0
 40 58  1  0  0  0
 41110  1  0  0  0
 41111  1  0  0  0
 41112  1  0  0  0
 41 48  1  0  0  0
 42 43  1  0  0  0
 42 66  1  0  0  0
 42113  1  0  0  0
 42114  1  0  0  0
 43 44  1  0  0  0
 44115  1  0  0  0
 45 46  2  0  0  0
 45116  1  0  0  0
 46117  1  0  0  0
 47118  1  0  0  0
 47119  1  0  0  0
 48 56  1  0  0  0
 48 65  1  0  0  0
 48120  1  0  0  0
 49 50  1  0  0  0
 49 53  1  0  0  0
 49 64  1  0  0  0
 49121  1  0  0  0
 50 51  1  0  0  0
 50122  1  0  0  0
 50123  1  0  0  0
 51 52  1  0  0  0
 51124  1  0  0  0
 51125  1  0  0  0
 52126  1  0  0  0
 52127  1  0  0  0
 53 54  1  0  0  0
 54 55  2  0  0  0
 54128  1  0  0  0
 55 57  1  0  0  0
 55129  1  0  0  0
 56 69  2  0  0  0
 57 58  2  0  0  0
 57130  1  0  0  0
 58131  1  0  0  0
 59 60  1  0  0  0
 59 61  1  0  0  0
 59 62  1  0  0  0
 60132  1  0  0  0
 60133  1  0  0  0
 60134  1  0  0  0
 61135  1  0  0  0
 61136  1  0  0  0
 61137  1  0  0  0
 62138  1  0  0  0
 62139  1  0  0  0
 62140  1  0  0  0
 63 65  1  0  0  0
 63141  1  0  0  0
 63142  1  0  0  0
 63143  1  0  0  0
 64144  1  0  0  0
 65145  1  0  0  0
 68 83  1  0  0  0
 71 72  2  0  0  0
 71 84  1  0  0  0
 71146  1  0  0  0
 72 75  1  0  0  0
 72 85  1  0  0  0
 73 76  1  0  0  0
 73 84  1  0  0  0
 73 85  2  0  0  0
 74 84  1  0  0  0
 74147  1  0  0  0
 74148  1  0  0  0
 74149  1  0  0  0
 75 83  1  0  0  0
 75150  1  0  0  0
 75151  1  0  0  0
 76 77  1  0  0  0
 76152  1  0  0  0
 76153  1  0  0  0
 77 78  1  0  0  0
 77154  1  0  0  0
 77155  1  0  0  0
 78 79  1  0  0  0
 78156  1  0  0  0
 78157  1  0  0  0
 79 80  1  0  0  0
 79158  1  0  0  0
 79159  1  0  0  0
 80 81  1  0  0  0
 80160  1  0  0  0
 80161  1  0  0  0
 81 82  1  0  0  0
 81162  1  0  0  0
 81163  1  0  0  0
 82 86  1  0  0  0
 82164  1  0  0  0
 82165  1  0  0  0
 83166  1  0  0  0
 83167  1  0  0  0
 85168  1  0  0  0
 86169  1  0  0  0
M  CHG  1  85   1
M  ISO  4   1 100  68 101  83 101  86 100
M  END
> <chiral flag>
0

> <version>
0

> <s_m_source_file>
/data/baiqing/PycharmProjects/Reinvent-master-3.2/result/LINK_invent/BTK/process_docking_weight1_custom_sum_contain_oxygen_bond_distance_aromatic_linkinvent_7_9_3/rearranged_h_0039.sdf

> <i_m_source_file_index>
21

> <r_mmod_Potential_Energy-OPLS-2005>
14139.6162109375

> <r_mmod_Stretch_Energy-OPLS-2005>
7861.2900390625

> <r_mmod_Bend_Energy-OPLS-2005>
954.985473632812

> <r_mmod_Torsional_Energy-OPLS-2005>
532.191955566406

> <r_mmod_Improper_Torsional_Energy-OPLS-2005>
51.2009963989258

> <r_mmod_Van_der_Waal_Energy-OPLS-2005>
3161.306640625

> <r_mmod_Electrostatic_Energy-OPLS-2005>
-201.737777709961

> <r_mmod_Solvation_Energy-OPLS-2005>
-386.73095703125

> <b_mmod_Minimization_Converged-OPLS-2005>
0

> <r_mmod_RMS_Derivative-OPLS-2005>
24.1980628967285

$$$$
21
                    3D
 Structure written by MMmdl.
154162  0  0  1  0            999 V2000
  -30.5355  -14.9376   20.4166 C   0  0  0  0  0  0
  -30.4413  -12.5751   19.5077 C   0  0  0  0  0  0
  -29.5246  -12.5313   18.2622 C   0  0  0  0  0  0
  -28.0557  -12.3217   18.6751 C   0  0  0  0  0  0
  -27.6339  -13.2477   19.8459 C   0  0  2  0  0  0
  -28.6746  -13.2614   20.9872 C   0  0  0  0  0  0
  -25.2469  -13.8215   20.5711 C   0  0  0  0  0  0
  -24.1783  -13.0438   20.9223 C   0  0  0  0  0  0
  -24.6399  -11.6924   20.8753 C   0  0  0  0  0  0
  -23.9083  -10.4294   21.0407 C   0  0  0  0  0  0
  -24.3629   -9.4207   21.9185 C   0  0  0  0  0  0
  -23.6300   -8.2245   22.0754 C   0  0  0  0  0  0
  -22.4281   -8.0285   21.3545 C   0  0  0  0  0  0
  -21.9921   -9.0259   20.4647 C   0  0  0  0  0  0
  -22.7254  -10.2136   20.3056 C   0  0  0  0  0  0
  -21.6855   -6.0739   22.5280 C   0  0  0  0  0  0
  -21.4015   -6.5642   23.8214 C   0  0  0  0  0  0
  -21.3659   -5.6794   24.9176 C   0  0  0  0  0  0
  -21.6043   -4.3057   24.7226 C   0  0  0  0  0  0
  -21.8818   -3.8149   23.4347 C   0  0  0  0  0  0
  -21.9193   -4.6966   22.3403 C   0  0  0  0  0  0
  -22.7802  -13.5208   21.1879 C   0  0  0  0  0  0
  -22.1661   -4.2152   21.0980 F   0  0  0  0  0  0
  -21.5628   -3.4540   25.7738 F   0  0  0  0  0  0
  -29.9569  -13.6691   20.3990 N   0  0  0  0  0  0
  -26.2903  -12.9449   20.3269 N   0  0  0  0  0  0
  -25.9335  -11.6577   20.5749 N   0  0  0  0  0  0
  -22.0455  -12.8194   22.0437 N   0  0  0  0  0  0
  -25.4126  -15.1944   20.4128 N   0  0  0  0  0  0
  -31.7224  -15.0223   20.0839 O   0  0  0  0  0  0
  -21.6642   -6.8883   21.4243 O   0  0  0  0  0  0
  -22.3483  -14.5513   20.6726 O   0  0  0  0  0  0
  -24.6432  -31.8433   23.1879 C   0  0  0  0  0  0
  -25.9203  -32.4691   23.8269 C   0  0  1  0  0  0
  -27.2180  -27.1305   20.1524 C   0  0  0  0  0  0
  -25.5948  -33.8498   24.2184 N   0  0  0  0  0  0
  -23.4474  -30.4620   21.5329 C   0  0  2  0  0  0
  -24.8981  -28.8888   20.1068 C   0  0  0  0  0  0
  -22.7567  -29.4539   22.4853 C   0  0  0  0  0  0
  -18.0304  -28.1397   22.8477 C   0  0  0  0  0  0
  -24.1491  -36.7254   23.2643 C   0  0  0  0  0  0
  -26.0031  -30.7139   21.3895 C   0  0  0  0  0  0
  -26.0731  -29.3248   20.7313 C   0  0  0  0  0  0
  -27.2310  -28.4599   20.7406 C   0  0  0  0  0  0
  -26.0229  -26.8050   19.4726 C   0  0  0  0  0  0
  -24.8865  -27.6431   19.4615 C   0  0  0  0  0  0
  -23.6743  -29.7909   20.1517 C   0  0  0  0  0  0
  -25.4124  -36.3031   24.0315 C   0  0  1  0  0  0
  -20.5916  -28.3722   23.1235 C   0  0  2  0  0  0
  -20.6787  -26.9424   22.5405 C   0  0  0  0  0  0
  -19.5761  -26.6381   21.5213 C   0  0  0  0  0  0
  -18.1943  -26.7935   22.1624 C   0  0  0  0  0  0
  -19.1561  -28.8878   23.2848 C   0  0  0  0  0  0
  -18.9477  -30.1473   23.8875 C   0  0  0  0  0  0
  -17.6474  -30.6593   24.0560 C   0  0  0  0  0  0
  -25.9074  -34.9406   23.5060 C   0  0  0  0  0  0
  -16.5365  -29.9086   23.6337 C   0  0  0  0  0  0
  -16.7288  -28.6505   23.0357 C   0  0  0  0  0  0
  -26.4524  -31.6565   25.0716 C   0  0  0  0  0  0
  -25.3705  -31.3757   26.1408 C   0  0  0  0  0  0
  -27.0397  -30.2960   24.6308 C   0  0  0  0  0  0
  -27.6050  -32.4338   25.7502 C   0  0  0  0  0  0
  -27.5575  -37.1784   24.8466 C   0  0  0  0  0  0
  -21.4259  -29.3045   22.3604 N   0  0  0  0  0  0
  -26.4287  -37.3744   23.9407 N   0  0  0  0  0  0
  -24.7175  -31.0282   22.0917 N   0  0  0  0  0  0
  -23.4208  -28.8090   23.3009 O   0  0  0  0  0  0
  -28.2702  -26.1455   20.2563 O   0  0  0  0  0  0
  -26.5664  -34.8904   22.4642 O   0  0  0  0  0  0
  -23.5550  -32.1315   23.7095 O   0  0  0  0  0  0
  -29.2200  -20.7347   22.4583 C   0  0  0  0  0  0
  -29.6729  -18.5636   22.4494 C   0  0  0  0  0  0
  -29.2248  -20.4042   21.1252 C   0  0  0  0  0  0
  -29.5562  -18.8956   21.1252 C   0  0  0  0  0  0
  -29.5385  -19.6570   24.7037 C   0  0  0  0  0  0
  -28.8593  -21.6768   20.1335 C   0  0  0  0  0  0
  -29.8435  -17.6146   20.1402 C   0  0  0  0  0  0
  -28.8681  -23.3055   20.6400 C   0  0  0  0  0  0
  -28.0904  -24.6272   19.9315 C   0  0  0  0  0  0
  -29.4771  -19.6509   23.2544 N   0  0  0  0  0  0
  -29.7359  -16.0983   20.5951 N   0  0  0  0  0  0
  -31.4773  -12.7260   19.2007 H   0  0  0  0  0  0
  -30.4258  -11.6189   20.0328 H   0  0  0  0  0  0
  -29.8407  -11.7360   17.5858 H   0  0  0  0  0  0
  -29.6192  -13.4642   17.7043 H   0  0  0  0  0  0
  -27.9453  -11.2785   18.9734 H   0  0  0  0  0  0
  -27.3950  -12.4650   17.8193 H   0  0  0  0  0  0
  -27.6025  -14.2535   19.4262 H   0  0  0  0  0  0
  -28.7539  -12.2810   21.4591 H   0  0  0  0  0  0
  -28.3755  -13.9577   21.7721 H   0  0  0  0  0  0
  -25.2773   -9.5682   22.4762 H   0  0  0  0  0  0
  -24.0007   -7.4636   22.7473 H   0  0  0  0  0  0
  -21.0852   -8.8782   19.8952 H   0  0  0  0  0  0
  -22.3714  -10.9676   19.6167 H   0  0  0  0  0  0
  -21.2009   -7.6151   23.9718 H   0  0  0  0  0  0
  -21.1481   -6.0525   25.9079 H   0  0  0  0  0  0
  -22.0597   -2.7611   23.2847 H   0  0  0  0  0  0
  -22.4081  -11.9860   22.4827 H   0  0  0  0  0  0
  -21.1069  -13.1209   22.2640 H   0  0  0  0  0  0
  -24.6415  -15.8437   20.5248 H   0  0  0  0  0  0
  -26.2529  -15.6374   20.0647 H   0  0  0  0  0  0
  -26.7266  -32.5296   23.0995 H   0  0  0  0  0  0
  -25.0066  -33.9612   25.0311 H   0  0  0  0  0  0
  -22.7502  -31.2880   21.3780 H   0  0  0  0  0  0
  -23.3758  -35.9580   23.3294 H   0  0  0  0  0  0
  -24.3574  -36.8899   22.2060 H   0  0  0  0  0  0
  -23.7241  -37.6444   23.6690 H   0  0  0  0  0  0
  -26.1606  -31.4677   20.6168 H   0  0  0  0  0  0
  -26.8729  -30.7639   22.0328 H   0  0  0  0  0  0
  -28.1222  -28.7848   21.2590 H   0  0  0  0  0  0
  -25.9300  -25.8608   18.9581 H   0  0  0  0  0  0
  -23.9923  -27.3083   18.9537 H   0  0  0  0  0  0
  -23.8102  -30.5655   19.3961 H   0  0  0  0  0  0
  -22.7894  -29.2324   19.8414 H   0  0  0  0  0  0
  -25.1313  -36.1858   25.0807 H   0  0  0  0  0  0
  -21.0008  -28.3314   24.1356 H   0  0  0  0  0  0
  -20.5678  -26.2336   23.3626 H   0  0  0  0  0  0
  -21.6653  -26.7428   22.1205 H   0  0  0  0  0  0
  -19.6922  -25.6286   21.1259 H   0  0  0  0  0  0
  -19.6699  -27.3178   20.6732 H   0  0  0  0  0  0
  -17.4211  -26.6677   21.4029 H   0  0  0  0  0  0
  -18.0343  -26.0084   22.9028 H   0  0  0  0  0  0
  -19.7953  -30.7295   24.2235 H   0  0  0  0  0  0
  -17.5027  -31.6271   24.5165 H   0  0  0  0  0  0
  -15.5364  -30.2982   23.7673 H   0  0  0  0  0  0
  -15.8688  -28.0816   22.7087 H   0  0  0  0  0  0
  -24.5892  -30.7097   25.7727 H   0  0  0  0  0  0
  -24.8885  -32.2941   26.4771 H   0  0  0  0  0  0
  -25.7984  -30.8972   27.0226 H   0  0  0  0  0  0
  -26.3021  -29.6676   24.1305 H   0  0  0  0  0  0
  -27.3994  -29.7268   25.4890 H   0  0  0  0  0  0
  -27.8934  -30.4195   23.9641 H   0  0  0  0  0  0
  -27.2637  -33.3659   26.2019 H   0  0  0  0  0  0
  -28.3891  -32.6867   25.0353 H   0  0  0  0  0  0
  -28.0684  -31.8505   26.5470 H   0  0  0  0  0  0
  -28.2585  -38.0087   24.7510 H   0  0  0  0  0  0
  -28.1077  -36.2615   24.6297 H   0  0  0  0  0  0
  -27.2291  -37.1435   25.8868 H   0  0  0  0  0  0
  -20.9471  -29.8756   21.6780 H   0  0  0  0  0  0
  -26.0153  -38.2812   24.1411 H   0  0  0  0  0  0
  -29.0392  -21.6842   22.9433 H   0  0  0  0  0  0
  -29.9026  -17.6065   22.9012 H   0  0  0  0  0  0
  -28.8077  -20.3578   25.1084 H   0  0  0  0  0  0
  -30.5353  -19.9557   25.0290 H   0  0  0  0  0  0
  -29.3215  -18.6629   25.0957 H   0  0  0  0  0  0
  -27.8538  -21.4687   19.7669 H   0  0  0  0  0  0
  -29.4988  -21.5926   19.2544 H   0  0  0  0  0  0
  -30.8481  -17.7539   19.7387 H   0  0  0  0  0  0
  -29.1801  -17.7282   19.2824 H   0  0  0  0  0  0
  -29.9165  -23.5806   20.7548 H   0  0  0  0  0  0
  -28.4742  -23.3135   21.6541 H   0  0  0  0  0  0
  -27.0336  -24.3980   20.0585 H   0  0  0  0  0  0
  -28.2668  -24.5508   18.8583 H   0  0  0  0  0  0
  -28.8083  -15.8641   20.9140 H   0  0  0  0  0  0
  1 25  1  0  0  0
  1 30  2  0  0  0
  1 81  1  0  0  0
  2  3  1  0  0  0
  2 25  1  0  0  0
  2 82  1  0  0  0
  2 83  1  0  0  0
  3  4  1  0  0  0
  3 84  1  0  0  0
  3 85  1  0  0  0
  4  5  1  0  0  0
  4 86  1  0  0  0
  4 87  1  0  0  0
  5  6  1  0  0  0
  5 26  1  0  0  0
  5 88  1  0  0  0
  6 25  1  0  0  0
  6 89  1  0  0  0
  6 90  1  0  0  0
  7  8  2  0  0  0
  7 26  1  0  0  0
  7 29  1  0  0  0
  8  9  1  0  0  0
  8 22  1  0  0  0
  9 10  1  0  0  0
  9 27  2  0  0  0
 10 11  2  0  0  0
 10 15  1  0  0  0
 11 12  1  0  0  0
 11 91  1  0  0  0
 12 13  2  0  0  0
 12 92  1  0  0  0
 13 14  1  0  0  0
 13 31  1  0  0  0
 14 15  2  0  0  0
 14 93  1  0  0  0
 15 94  1  0  0  0
 16 17  2  0  0  0
 16 21  1  0  0  0
 16 31  1  0  0  0
 17 18  1  0  0  0
 17 95  1  0  0  0
 18 19  2  0  0  0
 18 96  1  0  0  0
 19 20  1  0  0  0
 19 24  1  0  0  0
 20 21  2  0  0  0
 20 97  1  0  0  0
 21 23  1  0  0  0
 22 28  1  0  0  0
 22 32  2  0  0  0
 26 27  1  0  0  0
 28 98  1  0  0  0
 28 99  1  0  0  0
 29100  1  0  0  0
 29101  1  0  0  0
 33 34  1  0  0  0
 33 66  1  0  0  0
 33 70  2  0  0  0
 34 36  1  0  0  0
 34 59  1  0  0  0
 34102  1  0  0  0
 35 44  2  0  0  0
 35 45  1  0  0  0
 35 68  1  0  0  0
 36 56  1  0  0  0
 36103  1  0  0  0
 37 39  1  0  0  0
 37 47  1  0  0  0
 37 66  1  0  0  0
 37104  1  0  0  0
 38 43  2  0  0  0
 38 46  1  0  0  0
 38 47  1  0  0  0
 39 64  1  0  0  0
 39 67  2  0  0  0
 40 52  1  0  0  0
 40 53  2  0  0  0
 40 58  1  0  0  0
 41105  1  0  0  0
 41106  1  0  0  0
 41107  1  0  0  0
 41 48  1  0  0  0
 42 43  1  0  0  0
 42 66  1  0  0  0
 42108  1  0  0  0
 42109  1  0  0  0
 43 44  1  0  0  0
 44110  1  0  0  0
 45 46  2  0  0  0
 45111  1  0  0  0
 46112  1  0  0  0
 47113  1  0  0  0
 47114  1  0  0  0
 48 56  1  0  0  0
 48 65  1  0  0  0
 48115  1  0  0  0
 49 50  1  0  0  0
 49 53  1  0  0  0
 49 64  1  0  0  0
 49116  1  0  0  0
 50 51  1  0  0  0
 50117  1  0  0  0
 50118  1  0  0  0
 51 52  1  0  0  0
 51119  1  0  0  0
 51120  1  0  0  0
 52121  1  0  0  0
 52122  1  0  0  0
 53 54  1  0  0  0
 54 55  2  0  0  0
 54123  1  0  0  0
 55 57  1  0  0  0
 55124  1  0  0  0
 56 69  2  0  0  0
 57 58  2  0  0  0
 57125  1  0  0  0
 58126  1  0  0  0
 59 60  1  0  0  0
 59 61  1  0  0  0
 59 62  1  0  0  0
 60127  1  0  0  0
 60128  1  0  0  0
 60129  1  0  0  0
 61130  1  0  0  0
 61131  1  0  0  0
 61132  1  0  0  0
 62133  1  0  0  0
 62134  1  0  0  0
 62135  1  0  0  0
 63 65  1  0  0  0
 63136  1  0  0  0
 63137  1  0  0  0
 63138  1  0  0  0
 64139  1  0  0  0
 65140  1  0  0  0
 68 79  1  0  0  0
 71 73  2  0  0  0
 71 80  1  0  0  0
 71141  1  0  0  0
 72 74  2  0  0  0
 72 80  1  0  0  0
 72142  1  0  0  0
 73 74  1  0  0  0
 73 76  1  0  0  0
 74 77  1  0  0  0
 75 80  1  0  0  0
 75143  1  0  0  0
 75144  1  0  0  0
 75145  1  0  0  0
 76 78  1  0  0  0
 76146  1  0  0  0
 76147  1  0  0  0
 77 81  1  0  0  0
 77148  1  0  0  0
 77149  1  0  0  0
 78 79  1  0  0  0
 78150  1  0  0  0
 78151  1  0  0  0
 79152  1  0  0  0
 79153  1  0  0  0
 81154  1  0  0  0
M  ISO  4   1 100  68 101  79 101  81 100
M  END
> <chiral flag>
0

> <version>
0

> <s_m_source_file>
/data/baiqing/PycharmProjects/Reinvent-master-3.2/result/LINK_invent/BTK/process_docking_weight1_custom_sum_contain_oxygen_bond_distance_aromatic_linkinvent_7_9_3/rearranged_h_0039.sdf

> <i_m_source_file_index>
22

> <r_mmod_Potential_Energy-OPLS-2005>
455.407196044922

> <r_mmod_Stretch_Energy-OPLS-2005>
279.510375976562

> <r_mmod_Bend_Energy-OPLS-2005>
295.256866455078

> <r_mmod_Torsional_Energy-OPLS-2005>
204.584106445312

> <r_mmod_Improper_Torsional_Energy-OPLS-2005>
5.43321847915649

> <r_mmod_Van_der_Waal_Energy-OPLS-2005>
114.025398254395

> <r_mmod_Electrostatic_Energy-OPLS-2005>
-413.549896240234

> <r_mmod_Solvation_Energy-OPLS-2005>
-221.261962890625

> <b_mmod_Minimization_Converged-OPLS-2005>
0

> <r_mmod_RMS_Derivative-OPLS-2005>
0.196802109479904

$$$$
22
                    3D
 Structure written by MMmdl.
150158  0  0  1  0            999 V2000
  -30.5112  -15.0117   20.3966 C   0  0  0  0  0  0
  -30.4365  -12.6225   19.5254 C   0  0  0  0  0  0
  -29.5316  -12.5491   18.2729 C   0  0  0  0  0  0
  -28.0630  -12.3242   18.6789 C   0  0  0  0  0  0
  -27.6276  -13.2565   19.8408 C   0  0  2  0  0  0
  -28.6622  -13.3068   20.9860 C   0  0  0  0  0  0
  -25.2446  -13.8226   20.5707 C   0  0  0  0  0  0
  -24.1772  -13.0440   20.9217 C   0  0  0  0  0  0
  -24.6397  -11.6927   20.8743 C   0  0  0  0  0  0
  -23.9086  -10.4292   21.0395 C   0  0  0  0  0  0
  -24.3637   -9.4207   21.9174 C   0  0  0  0  0  0
  -23.6304   -8.2244   22.0750 C   0  0  0  0  0  0
  -22.4284   -8.0282   21.3542 C   0  0  0  0  0  0
  -21.9923   -9.0256   20.4641 C   0  0  0  0  0  0
  -22.7258  -10.2132   20.3045 C   0  0  0  0  0  0
  -21.6853   -6.0737   22.5278 C   0  0  0  0  0  0
  -21.4014   -6.5638   23.8213 C   0  0  0  0  0  0
  -21.3660   -5.6788   24.9173 C   0  0  0  0  0  0
  -21.6043   -4.3052   24.7219 C   0  0  0  0  0  0
  -21.8821   -3.8147   23.4340 C   0  0  0  0  0  0
  -21.9195   -4.6965   22.3399 C   0  0  0  0  0  0
  -22.7792  -13.5207   21.1867 C   0  0  0  0  0  0
  -22.1661   -4.2154   21.0974 F   0  0  0  0  0  0
  -21.5629   -3.4534   25.7729 F   0  0  0  0  0  0
  -29.9365  -13.7337   20.3952 N   0  0  0  0  0  0
  -26.2872  -12.9471   20.3237 N   0  0  0  0  0  0
  -25.9331  -11.6594   20.5720 N   0  0  0  0  0  0
  -22.0446  -12.8202   22.0429 N   0  0  0  0  0  0
  -25.4107  -15.1955   20.4139 N   0  0  0  0  0  0
  -31.7009  -15.0683   20.0671 O   0  0  0  0  0  0
  -21.6643   -6.8883   21.4240 O   0  0  0  0  0  0
  -22.3475  -14.5511   20.6705 O   0  0  0  0  0  0
  -24.6470  -31.8377   23.1819 C   0  0  0  0  0  0
  -25.9222  -32.4667   23.8232 C   0  0  1  0  0  0
  -27.2206  -27.0839   20.1622 C   0  0  0  0  0  0
  -25.5956  -33.8480   24.2150 N   0  0  0  0  0  0
  -23.4533  -30.4519   21.5287 C   0  0  2  0  0  0
  -24.9036  -28.8668   20.1054 C   0  0  0  0  0  0
  -22.7582  -29.4496   22.4851 C   0  0  0  0  0  0
  -18.0303  -28.1389   22.8485 C   0  0  0  0  0  0
  -24.1484  -36.7237   23.2647 C   0  0  0  0  0  0
  -26.0104  -30.6940   21.3884 C   0  0  0  0  0  0
  -26.0785  -29.3001   20.7301 C   0  0  0  0  0  0
  -27.2320  -28.4241   20.7401 C   0  0  0  0  0  0
  -26.0204  -26.7581   19.4955 C   0  0  0  0  0  0
  -24.8906  -27.6124   19.4718 C   0  0  0  0  0  0
  -23.6805  -29.7741   20.1491 C   0  0  0  0  0  0
  -25.4123  -36.3016   24.0309 C   0  0  1  0  0  0
  -20.5917  -28.3704   23.1247 C   0  0  2  0  0  0
  -20.6786  -26.9405   22.5420 C   0  0  0  0  0  0
  -19.5762  -26.6366   21.5227 C   0  0  0  0  0  0
  -18.1938  -26.7934   22.1624 C   0  0  0  0  0  0
  -19.1564  -28.8871   23.2857 C   0  0  0  0  0  0
  -18.9478  -30.1470   23.8875 C   0  0  0  0  0  0
  -17.6474  -30.6593   24.0552 C   0  0  0  0  0  0
  -25.9076  -34.9393   23.5043 C   0  0  0  0  0  0
  -16.5365  -29.9080   23.6342 C   0  0  0  0  0  0
  -16.7287  -28.6494   23.0371 C   0  0  0  0  0  0
  -26.4527  -31.6571   25.0705 C   0  0  0  0  0  0
  -25.3687  -31.3798   26.1385 C   0  0  0  0  0  0
  -27.0423  -30.2969   24.6337 C   0  0  0  0  0  0
  -27.6038  -32.4357   25.7506 C   0  0  0  0  0  0
  -27.5573  -37.1774   24.8462 C   0  0  0  0  0  0
  -21.4270  -29.3023   22.3612 N   0  0  0  0  0  0
  -26.4282  -37.3737   23.9410 N   0  0  0  0  0  0
  -24.7236  -31.0182   22.0873 N   0  0  0  0  0  0
  -23.4209  -28.8061   23.3030 O   0  0  0  0  0  0
  -28.2862  -26.1047   20.2865 O   0  0  0  0  0  0
  -26.5670  -34.8905   22.4626 O   0  0  0  0  0  0
  -23.5578  -32.1272   23.7010 O   0  0  0  0  0  0
  -28.5380  -20.2131   20.2271 C   0  0  0  0  0  0
  -29.0200  -21.6174   20.4473 C   0  0  0  0  0  0
  -29.5795  -19.2295   20.2753 C   0  0  0  0  0  0
  -32.0409  -19.7316   20.6818 C   0  0  0  0  0  0
  -28.3504  -23.1395   20.7335 C   0  0  0  0  0  0
  -29.8624  -17.6366   19.8261 C   0  0  0  0  0  0
  -28.3535  -24.5896   19.8226 C   0  0  0  0  0  0
  -30.3253  -21.4388   20.6571 N   0  0  0  0  0  0
  -30.6423  -20.0950   20.5511 N   0  0  0  0  0  0
  -29.7370  -16.2130   20.5428 N   0  0  0  0  0  0
  -31.4739  -12.7741   19.2229 H   0  0  0  0  0  0
  -30.4243  -11.6743   20.0656 H   0  0  0  0  0  0
  -29.8666  -11.7534   17.6061 H   0  0  0  0  0  0
  -29.6178  -13.4787   17.7078 H   0  0  0  0  0  0
  -27.9625  -11.2819   18.9834 H   0  0  0  0  0  0
  -27.4064  -12.4552   17.8176 H   0  0  0  0  0  0
  -27.5851  -14.2559   19.4072 H   0  0  0  0  0  0
  -28.7565  -12.3364   21.4759 H   0  0  0  0  0  0
  -28.3473  -14.0136   21.7555 H   0  0  0  0  0  0
  -25.2782   -9.5685   22.4750 H   0  0  0  0  0  0
  -24.0010   -7.4640   22.7475 H   0  0  0  0  0  0
  -21.0852   -8.8776   19.8953 H   0  0  0  0  0  0
  -22.3711  -10.9669   19.6155 H   0  0  0  0  0  0
  -21.2003   -7.6145   23.9720 H   0  0  0  0  0  0
  -21.1479   -6.0513   25.9077 H   0  0  0  0  0  0
  -22.0601   -2.7608   23.2834 H   0  0  0  0  0  0
  -22.4067  -11.9869   22.4827 H   0  0  0  0  0  0
  -21.1058  -13.1218   22.2621 H   0  0  0  0  0  0
  -24.6395  -15.8460   20.5184 H   0  0  0  0  0  0
  -26.2538  -15.6364   20.0702 H   0  0  0  0  0  0
  -26.7289  -32.5246   23.0955 H   0  0  0  0  0  0
  -25.0086  -33.9596   25.0289 H   0  0  0  0  0  0
  -22.7586  -31.2791   21.3711 H   0  0  0  0  0  0
  -23.3763  -35.9550   23.3283 H   0  0  0  0  0  0
  -24.3565  -36.8900   22.2067 H   0  0  0  0  0  0
  -23.7218  -37.6417   23.6702 H   0  0  0  0  0  0
  -26.1750  -31.4460   20.6153 H   0  0  0  0  0  0
  -26.8774  -30.7427   22.0358 H   0  0  0  0  0  0
  -28.1243  -28.7496   21.2556 H   0  0  0  0  0  0
  -25.9169  -25.7931   19.0230 H   0  0  0  0  0  0
  -23.9912  -27.2768   18.9741 H   0  0  0  0  0  0
  -23.8156  -30.5454   19.3899 H   0  0  0  0  0  0
  -22.7942  -29.2149   19.8431 H   0  0  0  0  0  0
  -25.1318  -36.1829   25.0801 H   0  0  0  0  0  0
  -21.0010  -28.3281   24.1369 H   0  0  0  0  0  0
  -20.5679  -26.2308   23.3635 H   0  0  0  0  0  0
  -21.6648  -26.7407   22.1216 H   0  0  0  0  0  0
  -19.6914  -25.6270   21.1272 H   0  0  0  0  0  0
  -19.6711  -27.3164   20.6748 H   0  0  0  0  0  0
  -17.4218  -26.6696   21.4014 H   0  0  0  0  0  0
  -18.0312  -26.0081   22.9018 H   0  0  0  0  0  0
  -19.7955  -30.7292   24.2229 H   0  0  0  0  0  0
  -17.5028  -31.6277   24.5148 H   0  0  0  0  0  0
  -15.5363  -30.2971   23.7690 H   0  0  0  0  0  0
  -15.8684  -28.0799   22.7113 H   0  0  0  0  0  0
  -24.5846  -30.7181   25.7694 H   0  0  0  0  0  0
  -24.8908  -32.3007   26.4737 H   0  0  0  0  0  0
  -25.7931  -30.8999   27.0210 H   0  0  0  0  0  0
  -26.3076  -29.6672   24.1313 H   0  0  0  0  0  0
  -27.4003  -29.7293   25.4936 H   0  0  0  0  0  0
  -27.8980  -30.4226   23.9701 H   0  0  0  0  0  0
  -27.2613  -33.3674   26.2023 H   0  0  0  0  0  0
  -28.3885  -32.6897   25.0368 H   0  0  0  0  0  0
  -28.0664  -31.8529   26.5482 H   0  0  0  0  0  0
  -28.2573  -38.0089   24.7529 H   0  0  0  0  0  0
  -28.1090  -36.2622   24.6262 H   0  0  0  0  0  0
  -27.2296  -37.1382   25.8867 H   0  0  0  0  0  0
  -20.9479  -29.8723   21.6781 H   0  0  0  0  0  0
  -26.0137  -38.2800   24.1429 H   0  0  0  0  0  0
  -27.5070  -19.9579   20.0252 H   0  0  0  0  0  0
  -32.4732  -19.5723   19.6937 H   0  0  0  0  0  0
  -32.1342  -18.8124   21.2607 H   0  0  0  0  0  0
  -32.6005  -20.5179   21.1892 H   0  0  0  0  0  0
  -28.7705  -23.4488   21.6904 H   0  0  0  0  0  0
  -27.3020  -22.9713   20.9786 H   0  0  0  0  0  0
  -30.8663  -17.6199   19.4022 H   0  0  0  0  0  0
  -29.2404  -17.4942   18.9424 H   0  0  0  0  0  0
  -27.6571  -24.4547   18.9966 H   0  0  0  0  0  0
  -29.3256  -24.5656   19.3304 H   0  0  0  0  0  0
  -28.8124  -16.0386   20.9078 H   0  0  0  0  0  0
  1 25  1  0  0  0
  1 30  2  0  0  0
  1 80  1  0  0  0
  2  3  1  0  0  0
  2 25  1  0  0  0
  2 81  1  0  0  0
  2 82  1  0  0  0
  3  4  1  0  0  0
  3 83  1  0  0  0
  3 84  1  0  0  0
  4  5  1  0  0  0
  4 85  1  0  0  0
  4 86  1  0  0  0
  5  6  1  0  0  0
  5 26  1  0  0  0
  5 87  1  0  0  0
  6 25  1  0  0  0
  6 88  1  0  0  0
  6 89  1  0  0  0
  7  8  2  0  0  0
  7 26  1  0  0  0
  7 29  1  0  0  0
  8  9  1  0  0  0
  8 22  1  0  0  0
  9 10  1  0  0  0
  9 27  2  0  0  0
 10 11  2  0  0  0
 10 15  1  0  0  0
 11 12  1  0  0  0
 11 90  1  0  0  0
 12 13  2  0  0  0
 12 91  1  0  0  0
 13 14  1  0  0  0
 13 31  1  0  0  0
 14 15  2  0  0  0
 14 92  1  0  0  0
 15 93  1  0  0  0
 16 17  2  0  0  0
 16 21  1  0  0  0
 16 31  1  0  0  0
 17 18  1  0  0  0
 17 94  1  0  0  0
 18 19  2  0  0  0
 18 95  1  0  0  0
 19 20  1  0  0  0
 19 24  1  0  0  0
 20 21  2  0  0  0
 20 96  1  0  0  0
 21 23  1  0  0  0
 22 28  1  0  0  0
 22 32  2  0  0  0
 26 27  1  0  0  0
 28 97  1  0  0  0
 28 98  1  0  0  0
 29 99  1  0  0  0
 29100  1  0  0  0
 33 34  1  0  0  0
 33 66  1  0  0  0
 33 70  2  0  0  0
 34 36  1  0  0  0
 34 59  1  0  0  0
 34101  1  0  0  0
 35 44  2  0  0  0
 35 45  1  0  0  0
 35 68  1  0  0  0
 36 56  1  0  0  0
 36102  1  0  0  0
 37 39  1  0  0  0
 37 47  1  0  0  0
 37 66  1  0  0  0
 37103  1  0  0  0
 38 43  2  0  0  0
 38 46  1  0  0  0
 38 47  1  0  0  0
 39 64  1  0  0  0
 39 67  2  0  0  0
 40 52  1  0  0  0
 40 53  2  0  0  0
 40 58  1  0  0  0
 41104  1  0  0  0
 41105  1  0  0  0
 41106  1  0  0  0
 41 48  1  0  0  0
 42 43  1  0  0  0
 42 66  1  0  0  0
 42107  1  0  0  0
 42108  1  0  0  0
 43 44  1  0  0  0
 44109  1  0  0  0
 45 46  2  0  0  0
 45110  1  0  0  0
 46111  1  0  0  0
 47112  1  0  0  0
 47113  1  0  0  0
 48 56  1  0  0  0
 48 65  1  0  0  0
 48114  1  0  0  0
 49 50  1  0  0  0
 49 53  1  0  0  0
 49 64  1  0  0  0
 49115  1  0  0  0
 50 51  1  0  0  0
 50116  1  0  0  0
 50117  1  0  0  0
 51 52  1  0  0  0
 51118  1  0  0  0
 51119  1  0  0  0
 52120  1  0  0  0
 52121  1  0  0  0
 53 54  1  0  0  0
 54 55  2  0  0  0
 54122  1  0  0  0
 55 57  1  0  0  0
 55123  1  0  0  0
 56 69  2  0  0  0
 57 58  2  0  0  0
 57124  1  0  0  0
 58125  1  0  0  0
 59 60  1  0  0  0
 59 61  1  0  0  0
 59 62  1  0  0  0
 60126  1  0  0  0
 60127  1  0  0  0
 60128  1  0  0  0
 61129  1  0  0  0
 61130  1  0  0  0
 61131  1  0  0  0
 62132  1  0  0  0
 62133  1  0  0  0
 62134  1  0  0  0
 63 65  1  0  0  0
 63135  1  0  0  0
 63136  1  0  0  0
 63137  1  0  0  0
 64138  1  0  0  0
 65139  1  0  0  0
 68 77  1  0  0  0
 71 72  1  0  0  0
 71 73  2  0  0  0
 71140  1  0  0  0
 72 75  1  0  0  0
 72 78  2  0  0  0
 73 76  1  0  0  0
 73 79  1  0  0  0
 74 79  1  0  0  0
 74141  1  0  0  0
 74142  1  0  0  0
 74143  1  0  0  0
 75 77  1  0  0  0
 75144  1  0  0  0
 75145  1  0  0  0
 76 80  1  0  0  0
 76146  1  0  0  0
 76147  1  0  0  0
 77148  1  0  0  0
 77149  1  0  0  0
 78 79  1  0  0  0
 80150  1  0  0  0
M  ISO  4   1 100  68 101  77 101  80 100
M  END
> <chiral flag>
0

> <version>
0

> <s_m_source_file>
/data/baiqing/PycharmProjects/Reinvent-master-3.2/result/LINK_invent/BTK/process_docking_weight1_custom_sum_contain_oxygen_bond_distance_aromatic_linkinvent_7_9_3/rearranged_h_0039.sdf

> <i_m_source_file_index>
23

> <r_mmod_Potential_Energy-OPLS-2005>
579.498413085938

> <r_mmod_Stretch_Energy-OPLS-2005>
317.043823242188

> <r_mmod_Bend_Energy-OPLS-2005>
347.939117431641

> <r_mmod_Torsional_Energy-OPLS-2005>
217.277862548828

> <r_mmod_Improper_Torsional_Energy-OPLS-2005>
8.65524864196777

> <r_mmod_Van_der_Waal_Energy-OPLS-2005>
109.363983154297

> <r_mmod_Electrostatic_Energy-OPLS-2005>
-423.656402587891

> <r_mmod_Solvation_Energy-OPLS-2005>
-235.314117431641

> <b_mmod_Minimization_Converged-OPLS-2005>
0

> <r_mmod_RMS_Derivative-OPLS-2005>
1.01132214069366

$$$$
23
                    3D
 Structure written by MMmdl.
181190  0  0  1  0            999 V2000
  -30.7973  -14.2698   20.7749 C   0  0  0  0  0  0
  -30.4185  -12.2805   19.3593 C   0  0  0  0  0  0
  -29.4729  -12.5489   18.1757 C   0  0  0  0  0  0
  -28.0016  -12.3933   18.5995 C   0  0  0  0  0  0
  -27.6724  -13.1947   19.8826 C   0  0  2  0  0  0
  -28.7062  -12.8932   20.9878 C   0  0  0  0  0  0
  -25.2648  -13.8145   20.5671 C   0  0  0  0  0  0
  -24.1871  -13.0437   20.9156 C   0  0  0  0  0  0
  -24.6417  -11.6908   20.8729 C   0  0  0  0  0  0
  -23.9075  -10.4296   21.0413 C   0  0  0  0  0  0
  -24.3618   -9.4208   21.9199 C   0  0  0  0  0  0
  -23.6291   -8.2248   22.0761 C   0  0  0  0  0  0
  -22.4283   -8.0287   21.3536 C   0  0  0  0  0  0
  -21.9927   -9.0265   20.4641 C   0  0  0  0  0  0
  -22.7252  -10.2150   20.3060 C   0  0  0  0  0  0
  -21.6853   -6.0747   22.5281 C   0  0  0  0  0  0
  -21.4021   -6.5644   23.8216 C   0  0  0  0  0  0
  -21.3654   -5.6799   24.9174 C   0  0  0  0  0  0
  -21.6043   -4.3066   24.7228 C   0  0  0  0  0  0
  -21.8820   -3.8162   23.4341 C   0  0  0  0  0  0
  -21.9189   -4.6973   22.3395 C   0  0  0  0  0  0
  -22.7900  -13.5249   21.1824 C   0  0  0  0  0  0
  -22.1665   -4.2166   21.0974 F   0  0  0  0  0  0
  -21.5626   -3.4542   25.7734 F   0  0  0  0  0  0
  -30.0610  -13.1764   20.4666 N   0  0  0  0  0  0
  -26.3076  -12.9309   20.3385 N   0  0  0  0  0  0
  -25.9334  -11.6470   20.5745 N   0  0  0  0  0  0
  -22.0550  -12.8212   22.0376 N   0  0  0  0  0  0
  -25.4388  -15.1853   20.4105 N   0  0  0  0  0  0
  -31.7374  -14.6887   20.0902 O   0  0  0  0  0  0
  -21.6631   -6.8899   21.4240 O   0  0  0  0  0  0
  -22.3603  -14.5560   20.6693 O   0  0  0  0  0  0
  -24.6177  -31.8729   23.2222 C   0  0  0  0  0  0
  -25.9090  -32.4804   23.8462 C   0  0  1  0  0  0
  -27.2052  -27.4499   20.0675 C   0  0  0  0  0  0
  -25.5949  -33.8616   24.2371 N   0  0  0  0  0  0
  -23.3944  -30.5107   21.5618 C   0  0  2  0  0  0
  -24.8290  -28.9963   20.1190 C   0  0  0  0  0  0
  -22.7388  -29.4719   22.5027 C   0  0  0  0  0  0
  -18.0253  -28.1359   22.8490 C   0  0  0  0  0  0
  -24.1491  -36.7342   23.2625 C   0  0  0  0  0  0
  -25.9315  -30.8517   21.3696 C   0  0  0  0  0  0
  -26.0031  -29.4961   20.6988 C   0  0  0  0  0  0
  -27.1995  -28.7379   20.6588 C   0  0  0  0  0  0
  -25.9872  -26.9641   19.5431 C   0  0  0  0  0  0
  -24.8154  -27.7251   19.5418 C   0  0  0  0  0  0
  -23.5941  -29.8603   20.1715 C   0  0  0  0  0  0
  -25.4114  -36.3099   24.0319 C   0  0  1  0  0  0
  -20.5852  -28.3644   23.1312 C   0  0  2  0  0  0
  -20.6748  -26.9381   22.5392 C   0  0  0  0  0  0
  -19.5720  -26.6372   21.5186 C   0  0  0  0  0  0
  -18.1893  -26.7910   22.1604 C   0  0  0  0  0  0
  -19.1506  -28.8822   23.2889 C   0  0  0  0  0  0
  -18.9429  -30.1447   23.8867 C   0  0  0  0  0  0
  -17.6435  -30.6565   24.0541 C   0  0  0  0  0  0
  -25.9038  -34.9457   23.5122 C   0  0  0  0  0  0
  -16.5322  -29.9039   23.6338 C   0  0  0  0  0  0
  -16.7252  -28.6465   23.0349 C   0  0  0  0  0  0
  -26.4529  -31.6582   25.0785 C   0  0  0  0  0  0
  -25.3795  -31.3673   26.1526 C   0  0  0  0  0  0
  -27.0422  -30.3019   24.6233 C   0  0  0  0  0  0
  -27.6071  -32.4331   25.7571 C   0  0  0  0  0  0
  -27.5583  -37.1842   24.8446 C   0  0  0  0  0  0
  -21.4128  -29.3035   22.3756 N   0  0  0  0  0  0
  -26.4299  -37.3789   23.9374 N   0  0  0  0  0  0
  -24.6654  -31.0886   22.1090 N   0  0  0  0  0  0
  -23.4195  -28.8238   23.3019 O   0  0  0  0  0  0
  -28.3700  -26.7060   20.0186 O   0  0  0  0  0  0
  -26.5572  -34.8891   22.4671 O   0  0  0  0  0  0
  -23.5388  -32.1492   23.7642 O   0  0  0  0  0  0
  -26.6502  -21.1097   20.0693 C   0  0  0  0  0  0
  -26.5817  -22.3880   19.5070 C   0  0  0  0  0  0
  -27.4956  -20.2214   17.9517 C   0  0  0  0  0  0
  -27.5256  -21.5396   17.4159 C   0  0  0  0  0  0
  -27.1217  -20.0243   19.3116 C   0  0  0  0  0  0
  -27.0551  -22.6292   18.2027 C   0  0  0  0  0  0
  -27.8589  -19.0383   17.0491 C   0  0  0  0  0  0
  -28.0866  -21.7580   16.0081 C   0  0  0  0  0  0
  -26.9091  -18.8823   15.8423 C   0  0  0  0  0  0
  -27.1543  -21.2599   14.8895 C   0  0  0  0  0  0
  -27.2799  -19.7476   14.6214 C   0  0  2  0  0  0
  -26.4694  -19.3277   13.3812 C   0  0  0  0  0  0
  -27.2979  -18.6991   20.0435 C   0  0  0  0  0  0
  -26.9835  -24.0632   17.6906 C   0  0  0  0  0  0
  -28.7817  -18.4930   20.3930 C   0  0  0  0  0  0
  -28.1274  -25.0061   18.1732 C   0  0  0  0  0  0
  -29.0549  -17.3337   21.3554 C   0  0  0  0  0  0
  -30.5490  -17.2742   21.7397 C   0  0  0  0  0  0
  -30.9515  -16.0365   22.5603 C   0  0  0  0  0  0
  -28.2555  -25.3047   19.6983 C   0  0  0  0  0  0
  -30.4727  -14.7994   21.9608 N   0  0  0  0  0  0
  -31.4562  -12.4071   19.0439 H   0  0  0  0  0  0
  -30.3331  -11.2427   19.6872 H   0  0  0  0  0  0
  -29.6968  -11.8716   17.3504 H   0  0  0  0  0  0
  -29.6407  -13.5586   17.7975 H   0  0  0  0  0  0
  -27.8079  -11.3342   18.7657 H   0  0  0  0  0  0
  -27.3412  -12.7031   17.7874 H   0  0  0  0  0  0
  -27.7473  -14.2534   19.6353 H   0  0  0  0  0  0
  -28.6508  -11.8425   21.2785 H   0  0  0  0  0  0
  -28.4407  -13.4499   21.8860 H   0  0  0  0  0  0
  -25.2770   -9.5677   22.4774 H   0  0  0  0  0  0
  -23.9988   -7.4648   22.7497 H   0  0  0  0  0  0
  -21.0869   -8.8807   19.8947 H   0  0  0  0  0  0
  -22.3730  -10.9701   19.6174 H   0  0  0  0  0  0
  -21.2029   -7.6155   23.9722 H   0  0  0  0  0  0
  -21.1478   -6.0532   25.9079 H   0  0  0  0  0  0
  -22.0605   -2.7635   23.2841 H   0  0  0  0  0  0
  -22.4167  -11.9845   22.4707 H   0  0  0  0  0  0
  -21.1175  -13.1240   22.2600 H   0  0  0  0  0  0
  -24.6780  -15.8448   20.5238 H   0  0  0  0  0  0
  -26.3035  -15.6177   20.1139 H   0  0  0  0  0  0
  -26.7167  -32.5537   23.1236 H   0  0  0  0  0  0
  -25.0116  -33.9760   25.0543 H   0  0  0  0  0  0
  -22.6792  -31.3292   21.4391 H   0  0  0  0  0  0
  -23.3737  -35.9686   23.3235 H   0  0  0  0  0  0
  -24.3557  -36.9051   22.2045 H   0  0  0  0  0  0
  -23.7298  -37.6540   23.6723 H   0  0  0  0  0  0
  -26.0494  -31.6359   20.6195 H   0  0  0  0  0  0
  -26.8188  -30.8831   21.9902 H   0  0  0  0  0  0
  -28.1112  -29.1366   21.0822 H   0  0  0  0  0  0
  -25.8894  -25.9828   19.1418 H   0  0  0  0  0  0
  -23.9045  -27.3200   19.1191 H   0  0  0  0  0  0
  -23.6890  -30.6415   19.4146 H   0  0  0  0  0  0
  -22.7207  -29.2731   19.8811 H   0  0  0  0  0  0
  -25.1303  -36.1945   25.0812 H   0  0  0  0  0  0
  -20.9904  -28.3188   24.1444 H   0  0  0  0  0  0
  -20.5655  -26.2233   23.3573 H   0  0  0  0  0  0
  -21.6622  -26.7415   22.1219 H   0  0  0  0  0  0
  -19.6859  -25.6288   21.1208 H   0  0  0  0  0  0
  -19.6650  -27.3178   20.6722 H   0  0  0  0  0  0
  -17.4178  -26.6674   21.3976 H   0  0  0  0  0  0
  -18.0254  -26.0058   22.8994 H   0  0  0  0  0  0
  -19.7909  -30.7269   24.2216 H   0  0  0  0  0  0
  -17.4982  -31.6242   24.5147 H   0  0  0  0  0  0
  -15.5317  -30.2911   23.7729 H   0  0  0  0  0  0
  -15.8649  -28.0787   22.7065 H   0  0  0  0  0  0
  -24.5946  -30.7040   25.7872 H   0  0  0  0  0  0
  -24.9011  -32.2823   26.5013 H   0  0  0  0  0  0
  -25.8156  -30.8814   27.0263 H   0  0  0  0  0  0
  -26.3023  -29.6687   24.1320 H   0  0  0  0  0  0
  -27.4209  -29.7334   25.4747 H   0  0  0  0  0  0
  -27.8833  -30.4300   23.9412 H   0  0  0  0  0  0
  -27.2641  -33.3636   26.2108 H   0  0  0  0  0  0
  -28.3905  -32.6888   25.0418 H   0  0  0  0  0  0
  -28.0712  -31.8495   26.5534 H   0  0  0  0  0  0
  -28.2595  -38.0148   24.7488 H   0  0  0  0  0  0
  -28.1099  -36.2678   24.6303 H   0  0  0  0  0  0
  -27.2252  -37.1522   25.8834 H   0  0  0  0  0  0
  -20.9292  -29.8775   21.7007 H   0  0  0  0  0  0
  -26.0170  -38.2856   24.1397 H   0  0  0  0  0  0
  -26.3440  -20.9736   21.0976 H   0  0  0  0  0  0
  -26.1789  -23.1913   20.1053 H   0  0  0  0  0  0
  -27.8299  -18.1009   17.5960 H   0  0  0  0  0  0
  -28.8928  -19.1217   16.7181 H   0  0  0  0  0  0
  -29.0526  -21.2608   15.9368 H   0  0  0  0  0  0
  -28.3451  -22.7996   15.8348 H   0  0  0  0  0  0
  -25.8724  -19.0409   16.1423 H   0  0  0  0  0  0
  -26.9661  -17.8393   15.5274 H   0  0  0  0  0  0
  -27.4351  -21.7797   13.9732 H   0  0  0  0  0  0
  -26.1201  -21.5542   15.0818 H   0  0  0  0  0  0
  -28.3250  -19.5460   14.3858 H   0  0  0  0  0  0
  -25.3968  -19.4706   13.5223 H   0  0  0  0  0  0
  -26.6332  -18.2753   13.1430 H   0  0  0  0  0  0
  -26.7699  -19.8999   12.5030 H   0  0  0  0  0  0
  -26.8877  -17.8670   19.4717 H   0  0  0  0  0  0
  -26.7126  -18.7177   20.9648 H   0  0  0  0  0  0
  -25.9944  -24.4229   17.9519 H   0  0  0  0  0  0
  -26.9300  -24.0943   16.6049 H   0  0  0  0  0  0
  -29.1661  -19.4095   20.8432 H   0  0  0  0  0  0
  -29.3501  -18.3450   19.4746 H   0  0  0  0  0  0
  -28.0137  -25.9518   17.6468 H   0  0  0  0  0  0
  -29.0767  -24.5964   17.8238 H   0  0  0  0  0  0
  -28.7350  -16.4083   20.8768 H   0  0  0  0  0  0
  -28.4496  -17.4452   22.2564 H   0  0  0  0  0  0
  -30.8110  -18.1700   22.3057 H   0  0  0  0  0  0
  -31.1578  -17.3040   20.8355 H   0  0  0  0  0  0
  -30.5190  -16.1040   23.5591 H   0  0  0  0  0  0
  -32.0335  -15.9975   22.6968 H   0  0  0  0  0  0
  -29.1487  -24.8059   20.0720 H   0  0  0  0  0  0
  -27.4490  -24.8735   20.2874 H   0  0  0  0  0  0
  -29.7578  -14.3025   22.4715 H   0  0  0  0  0  0
  1 25  1  0  0  0
  1 30  2  0  0  0
  1 91  1  0  0  0
  2  3  1  0  0  0
  2 25  1  0  0  0
  2 92  1  0  0  0
  2 93  1  0  0  0
  3  4  1  0  0  0
  3 94  1  0  0  0
  3 95  1  0  0  0
  4  5  1  0  0  0
  4 96  1  0  0  0
  4 97  1  0  0  0
  5  6  1  0  0  0
  5 26  1  0  0  0
  5 98  1  0  0  0
  6 25  1  0  0  0
  6 99  1  0  0  0
  6100  1  0  0  0
  7  8  2  0  0  0
  7 26  1  0  0  0
  7 29  1  0  0  0
  8  9  1  0  0  0
  8 22  1  0  0  0
  9 10  1  0  0  0
  9 27  2  0  0  0
 10 11  2  0  0  0
 10 15  1  0  0  0
 11 12  1  0  0  0
 11101  1  0  0  0
 12 13  2  0  0  0
 12102  1  0  0  0
 13 14  1  0  0  0
 13 31  1  0  0  0
 14 15  2  0  0  0
 14103  1  0  0  0
 15104  1  0  0  0
 16 17  2  0  0  0
 16 21  1  0  0  0
 16 31  1  0  0  0
 17 18  1  0  0  0
 17105  1  0  0  0
 18 19  2  0  0  0
 18106  1  0  0  0
 19 20  1  0  0  0
 19 24  1  0  0  0
 20 21  2  0  0  0
 20107  1  0  0  0
 21 23  1  0  0  0
 22 28  1  0  0  0
 22 32  2  0  0  0
 26 27  1  0  0  0
 28108  1  0  0  0
 28109  1  0  0  0
 29110  1  0  0  0
 29111  1  0  0  0
 33 34  1  0  0  0
 33 66  1  0  0  0
 33 70  2  0  0  0
 34 36  1  0  0  0
 34 59  1  0  0  0
 34112  1  0  0  0
 35 44  2  0  0  0
 35 45  1  0  0  0
 35 68  1  0  0  0
 36 56  1  0  0  0
 36113  1  0  0  0
 37 39  1  0  0  0
 37 47  1  0  0  0
 37 66  1  0  0  0
 37114  1  0  0  0
 38 43  2  0  0  0
 38 46  1  0  0  0
 38 47  1  0  0  0
 39 64  1  0  0  0
 39 67  2  0  0  0
 40 52  1  0  0  0
 40 53  2  0  0  0
 40 58  1  0  0  0
 41115  1  0  0  0
 41116  1  0  0  0
 41117  1  0  0  0
 41 48  1  0  0  0
 42 43  1  0  0  0
 42 66  1  0  0  0
 42118  1  0  0  0
 42119  1  0  0  0
 43 44  1  0  0  0
 44120  1  0  0  0
 45 46  2  0  0  0
 45121  1  0  0  0
 46122  1  0  0  0
 47123  1  0  0  0
 47124  1  0  0  0
 48 56  1  0  0  0
 48 65  1  0  0  0
 48125  1  0  0  0
 49 50  1  0  0  0
 49 53  1  0  0  0
 49 64  1  0  0  0
 49126  1  0  0  0
 50 51  1  0  0  0
 50127  1  0  0  0
 50128  1  0  0  0
 51 52  1  0  0  0
 51129  1  0  0  0
 51130  1  0  0  0
 52131  1  0  0  0
 52132  1  0  0  0
 53 54  1  0  0  0
 54 55  2  0  0  0
 54133  1  0  0  0
 55 57  1  0  0  0
 55134  1  0  0  0
 56 69  2  0  0  0
 57 58  2  0  0  0
 57135  1  0  0  0
 58136  1  0  0  0
 59 60  1  0  0  0
 59 61  1  0  0  0
 59 62  1  0  0  0
 60137  1  0  0  0
 60138  1  0  0  0
 60139  1  0  0  0
 61140  1  0  0  0
 61141  1  0  0  0
 61142  1  0  0  0
 62143  1  0  0  0
 62144  1  0  0  0
 62145  1  0  0  0
 63 65  1  0  0  0
 63146  1  0  0  0
 63147  1  0  0  0
 63148  1  0  0  0
 64149  1  0  0  0
 65150  1  0  0  0
 68 90  1  0  0  0
 71 72  2  0  0  0
 71 75  1  0  0  0
 71151  1  0  0  0
 72 76  1  0  0  0
 72152  1  0  0  0
 73 74  1  0  0  0
 73 75  2  0  0  0
 73 77  1  0  0  0
 74 76  2  0  0  0
 74 78  1  0  0  0
 75 83  1  0  0  0
 76 84  1  0  0  0
 77 79  1  0  0  0
 77153  1  0  0  0
 77154  1  0  0  0
 78 80  1  0  0  0
 78155  1  0  0  0
 78156  1  0  0  0
 79 81  1  0  0  0
 79157  1  0  0  0
 79158  1  0  0  0
 80 81  1  0  0  0
 80159  1  0  0  0
 80160  1  0  0  0
 81 82  1  0  0  0
 81161  1  0  0  0
 82162  1  0  0  0
 82163  1  0  0  0
 82164  1  0  0  0
 83 85  1  0  0  0
 83165  1  0  0  0
 83166  1  0  0  0
 84 86  1  0  0  0
 84167  1  0  0  0
 84168  1  0  0  0
 85 87  1  0  0  0
 85169  1  0  0  0
 85170  1  0  0  0
 86 90  1  0  0  0
 86171  1  0  0  0
 86172  1  0  0  0
 87 88  1  0  0  0
 87173  1  0  0  0
 87174  1  0  0  0
 88 89  1  0  0  0
 88175  1  0  0  0
 88176  1  0  0  0
 89 91  1  0  0  0
 89177  1  0  0  0
 89178  1  0  0  0
 90179  1  0  0  0
 90180  1  0  0  0
 91181  1  0  0  0
M  ISO  4   1 100  68 101  90 101  91 100
M  END
> <chiral flag>
0

> <version>
0

> <s_m_source_file>
/data/baiqing/PycharmProjects/Reinvent-master-3.2/result/LINK_invent/BTK/process_docking_weight1_custom_sum_contain_oxygen_bond_distance_aromatic_linkinvent_7_9_3/rearranged_h_0039.sdf

> <i_m_source_file_index>
24

> <r_mmod_Potential_Energy-OPLS-2005>
-25.3435077667236

> <r_mmod_Stretch_Energy-OPLS-2005>
39.8216819763184

> <r_mmod_Bend_Energy-OPLS-2005>
112.893737792969

> <r_mmod_Torsional_Energy-OPLS-2005>
230.200317382812

> <r_mmod_Improper_Torsional_Energy-OPLS-2005>
2.52414894104004

> <r_mmod_Van_der_Waal_Energy-OPLS-2005>
172.312210083008

> <r_mmod_Electrostatic_Energy-OPLS-2005>
-397.264068603516

> <r_mmod_Solvation_Energy-OPLS-2005>
-198.344970703125

> <b_mmod_Minimization_Converged-OPLS-2005>
0

> <r_mmod_RMS_Derivative-OPLS-2005>
3.57385802268982

$$$$
24
                    3D
 Structure written by MMmdl.
177185  0  0  1  0            999 V2000
  -30.5952  -14.7648   20.4422 C   0  0  0  0  0  0
  -30.4357  -12.4637   19.4760 C   0  0  0  0  0  0
  -29.5163  -12.5124   18.2348 C   0  0  0  0  0  0
  -28.0377  -12.3471   18.6379 C   0  0  0  0  0  0
  -27.6419  -13.2404   19.8462 C   0  0  2  0  0  0
  -28.6853  -13.1733   20.9810 C   0  0  0  0  0  0
  -25.2496  -13.8237   20.5699 C   0  0  0  0  0  0
  -24.1795  -13.0466   20.9214 C   0  0  0  0  0  0
  -24.6407  -11.6954   20.8729 C   0  0  0  0  0  0
  -23.9097  -10.4311   21.0381 C   0  0  0  0  0  0
  -24.3645   -9.4226   21.9148 C   0  0  0  0  0  0
  -23.6330   -8.2262   22.0724 C   0  0  0  0  0  0
  -22.4302   -8.0272   21.3524 C   0  0  0  0  0  0
  -21.9945   -9.0263   20.4636 C   0  0  0  0  0  0
  -22.7267  -10.2152   20.3032 C   0  0  0  0  0  0
  -21.6881   -6.0727   22.5267 C   0  0  0  0  0  0
  -21.4026   -6.5628   23.8191 C   0  0  0  0  0  0
  -21.3659   -5.6780   24.9163 C   0  0  0  0  0  0
  -21.6049   -4.3042   24.7202 C   0  0  0  0  0  0
  -21.8825   -3.8134   23.4327 C   0  0  0  0  0  0
  -21.9212   -4.6958   22.3399 C   0  0  0  0  0  0
  -22.7813  -13.5229   21.1873 C   0  0  0  0  0  0
  -22.1674   -4.2141   21.0970 F   0  0  0  0  0  0
  -21.5639   -3.4510   25.7716 F   0  0  0  0  0  0
  -29.9853  -13.5282   20.4024 N   0  0  0  0  0  0
  -26.2932  -12.9467   20.3240 N   0  0  0  0  0  0
  -25.9337  -11.6605   20.5712 N   0  0  0  0  0  0
  -22.0486  -12.8212   22.0440 N   0  0  0  0  0  0
  -25.4178  -15.1968   20.4130 N   0  0  0  0  0  0
  -31.7809  -14.8673   20.1127 O   0  0  0  0  0  0
  -21.6662   -6.8878   21.4225 O   0  0  0  0  0  0
  -22.3479  -14.5516   20.6695 O   0  0  0  0  0  0
  -24.6265  -31.8513   23.1983 C   0  0  0  0  0  0
  -25.9075  -32.4743   23.8341 C   0  0  1  0  0  0
  -27.2300  -27.2514   20.1216 C   0  0  0  0  0  0
  -25.5905  -33.8562   24.2226 N   0  0  0  0  0  0
  -23.4279  -30.4676   21.5403 C   0  0  2  0  0  0
  -24.8793  -28.9123   20.1057 C   0  0  0  0  0  0
  -22.7493  -29.4528   22.4910 C   0  0  0  0  0  0
  -18.0271  -28.1379   22.8467 C   0  0  0  0  0  0
  -24.1512  -36.7250   23.2644 C   0  0  0  0  0  0
  -25.9743  -30.7543   21.3888 C   0  0  0  0  0  0
  -26.0447  -29.3781   20.7245 C   0  0  0  0  0  0
  -27.2142  -28.5523   20.7325 C   0  0  0  0  0  0
  -26.0416  -26.8492   19.4756 C   0  0  0  0  0  0
  -24.8826  -27.6564   19.4737 C   0  0  0  0  0  0
  -23.6471  -29.7982   20.1567 C   0  0  0  0  0  0
  -25.4151  -36.3042   24.0303 C   0  0  1  0  0  0
  -20.5877  -28.3659   23.1269 C   0  0  2  0  0  0
  -20.6752  -26.9372   22.5411 C   0  0  0  0  0  0
  -19.5749  -26.6360   21.5197 C   0  0  0  0  0  0
  -18.1921  -26.7926   22.1596 C   0  0  0  0  0  0
  -19.1525  -28.8846   23.2869 C   0  0  0  0  0  0
  -18.9443  -30.1441   23.8893 C   0  0  0  0  0  0
  -17.6445  -30.6584   24.0538 C   0  0  0  0  0  0
  -25.9072  -34.9418   23.5057 C   0  0  0  0  0  0
  -16.5337  -29.9072   23.6336 C   0  0  0  0  0  0
  -16.7256  -28.6488   23.0373 C   0  0  0  0  0  0
  -26.4456  -31.6630   25.0761 C   0  0  0  0  0  0
  -25.3664  -31.3777   26.1468 C   0  0  0  0  0  0
  -27.0285  -30.3039   24.6273 C   0  0  0  0  0  0
  -27.6009  -32.4412   25.7498 C   0  0  0  0  0  0
  -27.5589  -37.1770   24.8443 C   0  0  0  0  0  0
  -21.4198  -29.2989   22.3662 N   0  0  0  0  0  0
  -26.4307  -37.3748   23.9384 N   0  0  0  0  0  0
  -24.6941  -31.0450   22.0972 N   0  0  0  0  0  0
  -23.4186  -28.8070   23.3027 O   0  0  0  0  0  0
  -28.3403  -26.3811   20.2300 O   0  0  0  0  0  0
  -26.5649  -34.8885   22.4624 O   0  0  0  0  0  0
  -23.5396  -32.1366   23.7230 O   0  0  0  0  0  0
  -28.8635  -23.5865   22.1477 C   0  0  0  0  0  0
  -29.6246  -20.9272   22.4689 C   0  0  0  0  0  0
  -29.2589  -23.1367   23.4147 C   0  0  0  0  0  0
  -28.8281  -22.7535   21.0087 C   0  0  0  0  0  0
  -29.6201  -21.7853   23.5831 C   0  0  0  0  0  0
  -29.2245  -21.3310   21.1708 C   0  0  0  0  0  0
  -29.2856  -24.1317   24.5659 C   0  0  0  0  0  0
  -24.8444  -18.0607   27.3074 C   0  0  0  0  0  0
  -29.9786  -21.2253   24.9538 C   0  0  0  0  0  0
  -29.3447  -20.1406   20.1166 C   0  0  0  0  0  0
  -28.2349  -23.5414   19.7762 C   0  0  0  0  0  0
  -26.2368  -18.1133   26.6677 C   0  0  0  0  0  0
  -28.7355  -20.9983   25.8383 C   0  0  0  0  0  0
  -29.0763  -18.5686   20.5432 C   0  0  0  0  0  0
  -26.7539  -19.5470   26.4910 C   0  0  0  0  0  0
  -28.0709  -19.6191   25.6997 C   0  0  0  0  0  0
  -30.1886  -17.3804   20.4108 C   0  0  0  0  0  0
  -28.5565  -25.1196   19.4388 C   0  0  0  0  0  0
  -29.8155  -15.9009   20.6344 N   0  0  0  0  0  0
  -31.4760  -12.5923   19.1737 H   0  0  0  0  0  0
  -30.3843  -11.4876   19.9636 H   0  0  0  0  0  0
  -29.8019  -11.7345   17.5251 H   0  0  0  0  0  0
  -29.6466  -13.4647   17.7150 H   0  0  0  0  0  0
  -27.8892  -11.2992   18.8960 H   0  0  0  0  0  0
  -27.3907  -12.5480   17.7828 H   0  0  0  0  0  0
  -27.6367  -14.2658   19.4748 H   0  0  0  0  0  0
  -28.7218  -12.1752   21.4219 H   0  0  0  0  0  0
  -28.4219  -13.8542   21.7903 H   0  0  0  0  0  0
  -25.2803   -9.5712   22.4706 H   0  0  0  0  0  0
  -24.0038   -7.4668   22.7452 H   0  0  0  0  0  0
  -21.0853   -8.8789   19.8974 H   0  0  0  0  0  0
  -22.3700  -10.9683   19.6128 H   0  0  0  0  0  0
  -21.1992   -7.6137   23.9695 H   0  0  0  0  0  0
  -21.1492   -6.0507   25.9070 H   0  0  0  0  0  0
  -22.0609   -2.7593   23.2826 H   0  0  0  0  0  0
  -22.4146  -11.9888   22.4841 H   0  0  0  0  0  0
  -21.1093  -13.1180   22.2637 H   0  0  0  0  0  0
  -24.6535  -15.8543   20.5234 H   0  0  0  0  0  0
  -26.2632  -15.6328   20.0685 H   0  0  0  0  0  0
  -26.7125  -32.5368   23.1069 H   0  0  0  0  0  0
  -25.0026  -33.9752   25.0349 H   0  0  0  0  0  0
  -22.7186  -31.2851   21.3924 H   0  0  0  0  0  0
  -23.3789  -35.9564   23.3296 H   0  0  0  0  0  0
  -24.3603  -36.8899   22.2063 H   0  0  0  0  0  0
  -23.7256  -37.6429   23.6709 H   0  0  0  0  0  0
  -26.1331  -31.5223   20.6306 H   0  0  0  0  0  0
  -26.8409  -30.7869   22.0382 H   0  0  0  0  0  0
  -28.1015  -28.8907   21.2480 H   0  0  0  0  0  0
  -25.9819  -25.8781   19.0082 H   0  0  0  0  0  0
  -23.9860  -27.2923   18.9924 H   0  0  0  0  0  0
  -23.7634  -30.5734   19.3978 H   0  0  0  0  0  0
  -22.7673  -29.2243   19.8612 H   0  0  0  0  0  0
  -25.1356  -36.1866   25.0797 H   0  0  0  0  0  0
  -20.9975  -28.3247   24.1390 H   0  0  0  0  0  0
  -20.5616  -26.2274   23.3617 H   0  0  0  0  0  0
  -21.6628  -26.7375   22.1233 H   0  0  0  0  0  0
  -19.6912  -25.6267   21.1248 H   0  0  0  0  0  0
  -19.6739  -27.3150   20.6721 H   0  0  0  0  0  0
  -17.4196  -26.6655   21.3991 H   0  0  0  0  0  0
  -18.0321  -26.0089   22.9013 H   0  0  0  0  0  0
  -19.7924  -30.7234   24.2302 H   0  0  0  0  0  0
  -17.5003  -31.6279   24.5102 H   0  0  0  0  0  0
  -15.5336  -30.2958   23.7694 H   0  0  0  0  0  0
  -15.8656  -28.0785   22.7139 H   0  0  0  0  0  0
  -24.5814  -30.7185   25.7748 H   0  0  0  0  0  0
  -24.8893  -32.2948   26.4931 H   0  0  0  0  0  0
  -25.7960  -30.8886   27.0221 H   0  0  0  0  0  0
  -26.2864  -29.6831   24.1248 H   0  0  0  0  0  0
  -27.3864  -29.7274   25.4807 H   0  0  0  0  0  0
  -27.8803  -30.4288   23.9589 H   0  0  0  0  0  0
  -27.2611  -33.3704   26.2085 H   0  0  0  0  0  0
  -28.3788  -32.7019   25.0312 H   0  0  0  0  0  0
  -28.0741  -31.8575   26.5401 H   0  0  0  0  0  0
  -28.2555  -38.0112   24.7529 H   0  0  0  0  0  0
  -28.1131  -36.2629   24.6238 H   0  0  0  0  0  0
  -27.2295  -37.1375   25.8841 H   0  0  0  0  0  0
  -20.9374  -29.8722   21.6879 H   0  0  0  0  0  0
  -26.0156  -38.2788   24.1468 H   0  0  0  0  0  0
  -28.5405  -24.6127   22.0546 H   0  0  0  0  0  0
  -29.9441  -19.9081   22.6328 H   0  0  0  0  0  0
  -29.0112  -25.1333   24.2336 H   0  0  0  0  0  0
  -30.2862  -24.1974   24.9932 H   0  0  0  0  0  0
  -28.5886  -23.8551   25.3543 H   0  0  0  0  0  0
  -24.5239  -17.0285   27.4479 H   0  0  0  0  0  0
  -24.0950  -18.5527   26.6852 H   0  0  0  0  0  0
  -24.8414  -18.5491   28.2822 H   0  0  0  0  0  0
  -30.6625  -21.9191   25.4455 H   0  0  0  0  0  0
  -30.5434  -20.2986   24.8491 H   0  0  0  0  0  0
  -30.3555  -20.2026   19.7108 H   0  0  0  0  0  0
  -28.6903  -20.3846   19.2789 H   0  0  0  0  0  0
  -27.1534  -23.4358   19.8597 H   0  0  0  0  0  0
  -28.5040  -22.9703   18.8874 H   0  0  0  0  0  0
  -26.2117  -17.6032   25.7039 H   0  0  0  0  0  0
  -26.9387  -17.5587   27.2941 H   0  0  0  0  0  0
  -27.9899  -21.7682   25.6457 H   0  0  0  0  0  0
  -29.0343  -21.1233   26.8797 H   0  0  0  0  0  0
  -28.2465  -18.2534   19.9102 H   0  0  0  0  0  0
  -28.6439  -18.5288   21.5424 H   0  0  0  0  0  0
  -26.8823  -19.9939   27.4795 H   0  0  0  0  0  0
  -26.0031  -20.1550   25.9830 H   0  0  0  0  0  0
  -28.7591  -18.8470   26.0470 H   0  0  0  0  0  0
  -27.8685  -19.4031   24.6484 H   0  0  0  0  0  0
  -31.0102  -17.6053   21.0940 H   0  0  0  0  0  0
  -30.6226  -17.4417   19.4117 H   0  0  0  0  0  0
  -28.1249  -25.3086   18.4559 H   0  0  0  0  0  0
  -29.6307  -25.1425   19.2491 H   0  0  0  0  0  0
  -28.8562  -15.7164   20.8876 H   0  0  0  0  0  0
  1 25  1  0  0  0
  1 30  2  0  0  0
  1 89  1  0  0  0
  2  3  1  0  0  0
  2 25  1  0  0  0
  2 90  1  0  0  0
  2 91  1  0  0  0
  3  4  1  0  0  0
  3 92  1  0  0  0
  3 93  1  0  0  0
  4  5  1  0  0  0
  4 94  1  0  0  0
  4 95  1  0  0  0
  5  6  1  0  0  0
  5 26  1  0  0  0
  5 96  1  0  0  0
  6 25  1  0  0  0
  6 97  1  0  0  0
  6 98  1  0  0  0
  7  8  2  0  0  0
  7 26  1  0  0  0
  7 29  1  0  0  0
  8  9  1  0  0  0
  8 22  1  0  0  0
  9 10  1  0  0  0
  9 27  2  0  0  0
 10 11  2  0  0  0
 10 15  1  0  0  0
 11 12  1  0  0  0
 11 99  1  0  0  0
 12 13  2  0  0  0
 12100  1  0  0  0
 13 14  1  0  0  0
 13 31  1  0  0  0
 14 15  2  0  0  0
 14101  1  0  0  0
 15102  1  0  0  0
 16 17  2  0  0  0
 16 21  1  0  0  0
 16 31  1  0  0  0
 17 18  1  0  0  0
 17103  1  0  0  0
 18 19  2  0  0  0
 18104  1  0  0  0
 19 20  1  0  0  0
 19 24  1  0  0  0
 20 21  2  0  0  0
 20105  1  0  0  0
 21 23  1  0  0  0
 22 28  1  0  0  0
 22 32  2  0  0  0
 26 27  1  0  0  0
 28106  1  0  0  0
 28107  1  0  0  0
 29108  1  0  0  0
 29109  1  0  0  0
 33 34  1  0  0  0
 33 66  1  0  0  0
 33 70  2  0  0  0
 34 36  1  0  0  0
 34 59  1  0  0  0
 34110  1  0  0  0
 35 44  2  0  0  0
 35 45  1  0  0  0
 35 68  1  0  0  0
 36 56  1  0  0  0
 36111  1  0  0  0
 37 39  1  0  0  0
 37 47  1  0  0  0
 37 66  1  0  0  0
 37112  1  0  0  0
 38 43  2  0  0  0
 38 46  1  0  0  0
 38 47  1  0  0  0
 39 64  1  0  0  0
 39 67  2  0  0  0
 40 52  1  0  0  0
 40 53  2  0  0  0
 40 58  1  0  0  0
 41113  1  0  0  0
 41114  1  0  0  0
 41115  1  0  0  0
 41 48  1  0  0  0
 42 43  1  0  0  0
 42 66  1  0  0  0
 42116  1  0  0  0
 42117  1  0  0  0
 43 44  1  0  0  0
 44118  1  0  0  0
 45 46  2  0  0  0
 45119  1  0  0  0
 46120  1  0  0  0
 47121  1  0  0  0
 47122  1  0  0  0
 48 56  1  0  0  0
 48 65  1  0  0  0
 48123  1  0  0  0
 49 50  1  0  0  0
 49 53  1  0  0  0
 49 64  1  0  0  0
 49124  1  0  0  0
 50 51  1  0  0  0
 50125  1  0  0  0
 50126  1  0  0  0
 51 52  1  0  0  0
 51127  1  0  0  0
 51128  1  0  0  0
 52129  1  0  0  0
 52130  1  0  0  0
 53 54  1  0  0  0
 54 55  2  0  0  0
 54131  1  0  0  0
 55 57  1  0  0  0
 55132  1  0  0  0
 56 69  2  0  0  0
 57 58  2  0  0  0
 57133  1  0  0  0
 58134  1  0  0  0
 59 60  1  0  0  0
 59 61  1  0  0  0
 59 62  1  0  0  0
 60135  1  0  0  0
 60136  1  0  0  0
 60137  1  0  0  0
 61138  1  0  0  0
 61139  1  0  0  0
 61140  1  0  0  0
 62141  1  0  0  0
 62142  1  0  0  0
 62143  1  0  0  0
 63 65  1  0  0  0
 63144  1  0  0  0
 63145  1  0  0  0
 63146  1  0  0  0
 64147  1  0  0  0
 65148  1  0  0  0
 68 88  1  0  0  0
 71 73  2  0  0  0
 71 74  1  0  0  0
 71149  1  0  0  0
 72 75  2  0  0  0
 72 76  1  0  0  0
 72150  1  0  0  0
 73 75  1  0  0  0
 73 77  1  0  0  0
 74 76  2  0  0  0
 74 81  1  0  0  0
 75 79  1  0  0  0
 76 80  1  0  0  0
 77151  1  0  0  0
 77152  1  0  0  0
 77153  1  0  0  0
 78 82  1  0  0  0
 78154  1  0  0  0
 78155  1  0  0  0
 78156  1  0  0  0
 79 83  1  0  0  0
 79157  1  0  0  0
 79158  1  0  0  0
 80 84  1  0  0  0
 80159  1  0  0  0
 80160  1  0  0  0
 81 88  1  0  0  0
 81161  1  0  0  0
 81162  1  0  0  0
 82 85  1  0  0  0
 82163  1  0  0  0
 82164  1  0  0  0
 83 86  1  0  0  0
 83165  1  0  0  0
 83166  1  0  0  0
 84 87  1  0  0  0
 84167  1  0  0  0
 84168  1  0  0  0
 85 86  1  0  0  0
 85169  1  0  0  0
 85170  1  0  0  0
 86171  1  0  0  0
 86172  1  0  0  0
 87 89  1  0  0  0
 87173  1  0  0  0
 87174  1  0  0  0
 88175  1  0  0  0
 88176  1  0  0  0
 89177  1  0  0  0
M  ISO  4   1 100  68 101  88 101  89 100
M  END
> <chiral flag>
0

> <version>
0

> <s_m_source_file>
/data/baiqing/PycharmProjects/Reinvent-master-3.2/result/LINK_invent/BTK/process_docking_weight1_custom_sum_contain_oxygen_bond_distance_aromatic_linkinvent_7_9_3/rearranged_h_0039.sdf

> <i_m_source_file_index>
25

> <r_mmod_Potential_Energy-OPLS-2005>
270.858581542969

> <r_mmod_Stretch_Energy-OPLS-2005>
150.297744750977

> <r_mmod_Bend_Energy-OPLS-2005>
251.475448608398

> <r_mmod_Torsional_Energy-OPLS-2005>
215.826522827148

> <r_mmod_Improper_Torsional_Energy-OPLS-2005>
5.58984899520874

> <r_mmod_Van_der_Waal_Energy-OPLS-2005>
132.013687133789

> <r_mmod_Electrostatic_Energy-OPLS-2005>
-372.622955322266

> <r_mmod_Solvation_Energy-OPLS-2005>
-204.844772338867

> <b_mmod_Minimization_Converged-OPLS-2005>
0

> <r_mmod_RMS_Derivative-OPLS-2005>
3.46480083465576

$$$$
25
                    3D
 Structure written by MMmdl.
162170  0  0  1  0            999 V2000
  -30.7753  -14.4865   20.6331 C   0  0  0  0  0  0
  -30.4164  -12.3405   19.4341 C   0  0  0  0  0  0
  -29.4861  -12.5198   18.2174 C   0  0  0  0  0  0
  -28.0147  -12.3673   18.6357 C   0  0  0  0  0  0
  -27.6596  -13.2243   19.8773 C   0  0  2  0  0  0
  -28.7086  -13.0587   21.0043 C   0  0  0  0  0  0
  -25.2576  -13.8215   20.5767 C   0  0  0  0  0  0
  -24.1829  -13.0453   20.9220 C   0  0  0  0  0  0
  -24.6415  -11.6936   20.8741 C   0  0  0  0  0  0
  -23.9093  -10.4296   21.0385 C   0  0  0  0  0  0
  -24.3636   -9.4201   21.9171 C   0  0  0  0  0  0
  -23.6297   -8.2243   22.0755 C   0  0  0  0  0  0
  -22.4278   -8.0281   21.3544 C   0  0  0  0  0  0
  -21.9914   -9.0246   20.4651 C   0  0  0  0  0  0
  -22.7264  -10.2123   20.3048 C   0  0  0  0  0  0
  -21.6855   -6.0731   22.5285 C   0  0  0  0  0  0
  -21.4028   -6.5637   23.8223 C   0  0  0  0  0  0
  -21.3646   -5.6783   24.9182 C   0  0  0  0  0  0
  -21.6054   -4.3048   24.7222 C   0  0  0  0  0  0
  -21.8800   -3.8136   23.4342 C   0  0  0  0  0  0
  -21.9189   -4.6964   22.3400 C   0  0  0  0  0  0
  -22.7834  -13.5215   21.1856 C   0  0  0  0  0  0
  -22.1650   -4.2145   21.0980 F   0  0  0  0  0  0
  -21.5618   -3.4543   25.7741 F   0  0  0  0  0  0
  -30.0485  -13.3416   20.4574 N   0  0  0  0  0  0
  -26.3029  -12.9411   20.3449 N   0  0  0  0  0  0
  -25.9353  -11.6551   20.5810 N   0  0  0  0  0  0
  -22.0483  -12.8203   22.0427 N   0  0  0  0  0  0
  -25.4245  -15.1925   20.4229 N   0  0  0  0  0  0
  -31.8340  -14.6929   20.0433 O   0  0  0  0  0  0
  -21.6645   -6.8881   21.4246 O   0  0  0  0  0  0
  -22.3497  -14.5490   20.6664 O   0  0  0  0  0  0
  -24.6189  -31.8659   23.2066 C   0  0  0  0  0  0
  -25.9069  -32.4797   23.8381 C   0  0  1  0  0  0
  -27.2458  -27.4032   20.1072 C   0  0  0  0  0  0
  -25.5914  -33.8590   24.2330 N   0  0  0  0  0  0
  -23.4066  -30.4886   21.5460 C   0  0  2  0  0  0
  -24.8516  -28.9391   20.1212 C   0  0  0  0  0  0
  -22.7423  -29.4670   22.4964 C   0  0  0  0  0  0
  -18.0278  -28.1391   22.8495 C   0  0  0  0  0  0
  -24.1496  -36.7305   23.2636 C   0  0  0  0  0  0
  -25.9354  -30.8226   21.3608 C   0  0  0  0  0  0
  -26.0113  -29.4520   20.7119 C   0  0  0  0  0  0
  -27.2046  -28.6924   20.6959 C   0  0  0  0  0  0
  -26.0586  -26.9026   19.5183 C   0  0  0  0  0  0
  -24.8710  -27.6651   19.5248 C   0  0  0  0  0  0
  -23.6172  -29.8151   20.1633 C   0  0  0  0  0  0
  -25.4110  -36.3103   24.0341 C   0  0  1  0  0  0
  -20.5878  -28.3699   23.1297 C   0  0  2  0  0  0
  -20.6762  -26.9426   22.5414 C   0  0  0  0  0  0
  -19.5750  -26.6409   21.5202 C   0  0  0  0  0  0
  -18.1932  -26.7937   22.1619 C   0  0  0  0  0  0
  -19.1525  -28.8855   23.2897 C   0  0  0  0  0  0
  -18.9441  -30.1450   23.8938 C   0  0  0  0  0  0
  -17.6439  -30.6591   24.0568 C   0  0  0  0  0  0
  -25.9038  -34.9462   23.5129 C   0  0  0  0  0  0
  -16.5338  -29.9092   23.6317 C   0  0  0  0  0  0
  -16.7258  -28.6501   23.0354 C   0  0  0  0  0  0
  -26.4505  -31.6561   25.0697 C   0  0  0  0  0  0
  -25.3780  -31.3631   26.1443 C   0  0  0  0  0  0
  -27.0321  -30.3014   24.6064 C   0  0  0  0  0  0
  -27.6121  -32.4250   25.7440 C   0  0  0  0  0  0
  -27.5587  -37.1813   24.8475 C   0  0  0  0  0  0
  -21.4150  -29.3048   22.3680 N   0  0  0  0  0  0
  -26.4305  -37.3782   23.9406 N   0  0  0  0  0  0
  -24.6715  -31.0757   22.0965 N   0  0  0  0  0  0
  -23.4179  -28.8236   23.3026 O   0  0  0  0  0  0
  -28.4540  -26.7227   20.1352 O   0  0  0  0  0  0
  -26.5595  -34.8910   22.4691 O   0  0  0  0  0  0
  -23.5369  -32.1400   23.7454 O   0  0  0  0  0  0
  -31.3535  -20.8746   20.3113 C   0  0  0  0  0  0
  -30.9852  -23.2949   20.3054 C   0  0  0  0  0  0
  -29.2121  -21.8044   21.0309 C   0  0  0  0  0  0
  -31.8244  -22.1906   20.0592 C   0  0  0  0  0  0
  -30.0430  -20.6620   20.8109 C   0  0  0  0  0  0
  -29.6669  -23.1286   20.7683 C   0  0  0  0  0  0
  -34.0466  -21.2975   19.0541 C   0  0  0  0  0  0
  -33.2174  -22.4993   19.5147 C   0  0  0  0  0  0
  -29.4774  -19.2380   21.0791 C   0  0  0  0  0  0
  -28.8157  -24.3941   21.0242 C   0  0  0  0  0  0
  -30.4142  -17.9701   21.1361 C   0  0  0  0  0  0
  -29.6022  -16.6239   21.2568 C   0  0  0  0  0  0
  -28.6048  -25.3283   19.7872 C   0  0  0  0  0  0
  -30.3547  -15.3795   21.5532 N   0  0  0  0  0  0
  -31.4575  -12.4322   19.1226 H   0  0  0  0  0  0
  -30.3188  -11.3342   19.8447 H   0  0  0  0  0  0
  -29.7301  -11.7966   17.4394 H   0  0  0  0  0  0
  -29.6420  -13.5019   17.7715 H   0  0  0  0  0  0
  -27.8429  -11.3154   18.8575 H   0  0  0  0  0  0
  -27.3545  -12.6125   17.8019 H   0  0  0  0  0  0
  -27.6873  -14.2638   19.5551 H   0  0  0  0  0  0
  -28.6869  -12.0447   21.4018 H   0  0  0  0  0  0
  -28.4596  -13.7118   21.8414 H   0  0  0  0  0  0
  -25.2765   -9.5669   22.4780 H   0  0  0  0  0  0
  -23.9988   -7.4631   22.7478 H   0  0  0  0  0  0
  -21.0828   -8.8763   19.8976 H   0  0  0  0  0  0
  -22.3690  -10.9659   19.6171 H   0  0  0  0  0  0
  -21.2052   -7.6156   23.9710 H   0  0  0  0  0  0
  -21.1497   -6.0543   25.9087 H   0  0  0  0  0  0
  -22.0597   -2.7607   23.2847 H   0  0  0  0  0  0
  -22.4127  -11.9879   22.4816 H   0  0  0  0  0  0
  -21.1117  -13.1243   22.2672 H   0  0  0  0  0  0
  -24.6578  -15.8455   20.5526 H   0  0  0  0  0  0
  -26.2849  -15.6448   20.1378 H   0  0  0  0  0  0
  -26.7124  -32.5524   23.1128 H   0  0  0  0  0  0
  -25.0084  -33.9737   25.0494 H   0  0  0  0  0  0
  -22.6955  -31.3052   21.4033 H   0  0  0  0  0  0
  -23.3763  -35.9633   23.3275 H   0  0  0  0  0  0
  -24.3606  -36.8937   22.2056 H   0  0  0  0  0  0
  -23.7232  -37.6498   23.6653 H   0  0  0  0  0  0
  -26.0499  -31.5867   20.5886 H   0  0  0  0  0  0
  -26.8229  -30.8803   21.9802 H   0  0  0  0  0  0
  -28.1047  -29.0882   21.1453 H   0  0  0  0  0  0
  -26.0222  -25.9345   19.0463 H   0  0  0  0  0  0
  -23.9740  -27.2669   19.0723 H   0  0  0  0  0  0
  -23.7361  -30.5874   19.4013 H   0  0  0  0  0  0
  -22.7383  -29.2434   19.8668 H   0  0  0  0  0  0
  -25.1283  -36.1971   25.0835 H   0  0  0  0  0  0
  -20.9968  -28.3270   24.1419 H   0  0  0  0  0  0
  -20.5661  -26.2307   23.3600 H   0  0  0  0  0  0
  -21.6624  -26.7455   22.1209 H   0  0  0  0  0  0
  -19.6902  -25.6324   21.1226 H   0  0  0  0  0  0
  -19.6683  -27.3210   20.6720 H   0  0  0  0  0  0
  -17.4189  -26.6683   21.4024 H   0  0  0  0  0  0
  -18.0336  -26.0070   22.9011 H   0  0  0  0  0  0
  -19.7912  -30.7252   24.2342 H   0  0  0  0  0  0
  -17.4992  -31.6275   24.5160 H   0  0  0  0  0  0
  -15.5340  -30.3005   23.7613 H   0  0  0  0  0  0
  -15.8664  -28.0819   22.7072 H   0  0  0  0  0  0
  -24.5996  -30.6927   25.7771 H   0  0  0  0  0  0
  -24.8909  -32.2748   26.4912 H   0  0  0  0  0  0
  -25.8147  -30.8801   27.0195 H   0  0  0  0  0  0
  -26.2856  -29.6788   24.1111 H   0  0  0  0  0  0
  -27.4088  -29.7234   25.4516 H   0  0  0  0  0  0
  -27.8702  -30.4335   23.9207 H   0  0  0  0  0  0
  -27.2812  -33.3561   26.2048 H   0  0  0  0  0  0
  -28.3910  -32.6768   25.0224 H   0  0  0  0  0  0
  -28.0816  -31.8331   26.5309 H   0  0  0  0  0  0
  -28.2625  -38.0090   24.7485 H   0  0  0  0  0  0
  -28.1059  -36.2618   24.6341 H   0  0  0  0  0  0
  -27.2303  -37.1516   25.8880 H   0  0  0  0  0  0
  -20.9317  -29.8734   21.6877 H   0  0  0  0  0  0
  -26.0200  -38.2873   24.1366 H   0  0  0  0  0  0
  -31.9936  -20.0256   20.1217 H   0  0  0  0  0  0
  -31.3649  -24.2925   20.1252 H   0  0  0  0  0  0
  -28.2105  -21.6644   21.4208 H   0  0  0  0  0  0
  -35.0077  -21.6287   18.6622 H   0  0  0  0  0  0
  -33.5461  -20.7480   18.2582 H   0  0  0  0  0  0
  -34.2476  -20.6149   19.8786 H   0  0  0  0  0  0
  -33.7762  -23.0565   20.2692 H   0  0  0  0  0  0
  -33.0999  -23.1821   18.6696 H   0  0  0  0  0  0
  -28.7235  -19.0636   20.3098 H   0  0  0  0  0  0
  -28.9361  -19.2871   22.0250 H   0  0  0  0  0  0
  -29.3373  -24.9706   21.7938 H   0  0  0  0  0  0
  -27.8516  -24.1198   21.4565 H   0  0  0  0  0  0
  -31.1118  -18.0678   21.9715 H   0  0  0  0  0  0
  -31.0252  -17.9200   20.2365 H   0  0  0  0  0  0
  -29.0130  -16.4795   20.3520 H   0  0  0  0  0  0
  -28.8751  -16.7343   22.0627 H   0  0  0  0  0  0
  -27.8441  -24.9300   19.1202 H   0  0  0  0  0  0
  -29.5174  -25.3190   19.1905 H   0  0  0  0  0  0
  -31.0728  -15.5400   22.2475 H   0  0  0  0  0  0
  1 25  1  0  0  0
  1 30  2  0  0  0
  1 84  1  0  0  0
  2  3  1  0  0  0
  2 25  1  0  0  0
  2 85  1  0  0  0
  2 86  1  0  0  0
  3  4  1  0  0  0
  3 87  1  0  0  0
  3 88  1  0  0  0
  4  5  1  0  0  0
  4 89  1  0  0  0
  4 90  1  0  0  0
  5  6  1  0  0  0
  5 26  1  0  0  0
  5 91  1  0  0  0
  6 25  1  0  0  0
  6 92  1  0  0  0
  6 93  1  0  0  0
  7  8  2  0  0  0
  7 26  1  0  0  0
  7 29  1  0  0  0
  8  9  1  0  0  0
  8 22  1  0  0  0
  9 10  1  0  0  0
  9 27  2  0  0  0
 10 11  2  0  0  0
 10 15  1  0  0  0
 11 12  1  0  0  0
 11 94  1  0  0  0
 12 13  2  0  0  0
 12 95  1  0  0  0
 13 14  1  0  0  0
 13 31  1  0  0  0
 14 15  2  0  0  0
 14 96  1  0  0  0
 15 97  1  0  0  0
 16 17  2  0  0  0
 16 21  1  0  0  0
 16 31  1  0  0  0
 17 18  1  0  0  0
 17 98  1  0  0  0
 18 19  2  0  0  0
 18 99  1  0  0  0
 19 20  1  0  0  0
 19 24  1  0  0  0
 20 21  2  0  0  0
 20100  1  0  0  0
 21 23  1  0  0  0
 22 28  1  0  0  0
 22 32  2  0  0  0
 26 27  1  0  0  0
 28101  1  0  0  0
 28102  1  0  0  0
 29103  1  0  0  0
 29104  1  0  0  0
 33 34  1  0  0  0
 33 66  1  0  0  0
 33 70  2  0  0  0
 34 36  1  0  0  0
 34 59  1  0  0  0
 34105  1  0  0  0
 35 44  2  0  0  0
 35 45  1  0  0  0
 35 68  1  0  0  0
 36 56  1  0  0  0
 36106  1  0  0  0
 37 39  1  0  0  0
 37 47  1  0  0  0
 37 66  1  0  0  0
 37107  1  0  0  0
 38 43  2  0  0  0
 38 46  1  0  0  0
 38 47  1  0  0  0
 39 64  1  0  0  0
 39 67  2  0  0  0
 40 52  1  0  0  0
 40 53  2  0  0  0
 40 58  1  0  0  0
 41108  1  0  0  0
 41109  1  0  0  0
 41110  1  0  0  0
 41 48  1  0  0  0
 42 43  1  0  0  0
 42 66  1  0  0  0
 42111  1  0  0  0
 42112  1  0  0  0
 43 44  1  0  0  0
 44113  1  0  0  0
 45 46  2  0  0  0
 45114  1  0  0  0
 46115  1  0  0  0
 47116  1  0  0  0
 47117  1  0  0  0
 48 56  1  0  0  0
 48 65  1  0  0  0
 48118  1  0  0  0
 49 50  1  0  0  0
 49 53  1  0  0  0
 49 64  1  0  0  0
 49119  1  0  0  0
 50 51  1  0  0  0
 50120  1  0  0  0
 50121  1  0  0  0
 51 52  1  0  0  0
 51122  1  0  0  0
 51123  1  0  0  0
 52124  1  0  0  0
 52125  1  0  0  0
 53 54  1  0  0  0
 54 55  2  0  0  0
 54126  1  0  0  0
 55 57  1  0  0  0
 55127  1  0  0  0
 56 69  2  0  0  0
 57 58  2  0  0  0
 57128  1  0  0  0
 58129  1  0  0  0
 59 60  1  0  0  0
 59 61  1  0  0  0
 59 62  1  0  0  0
 60130  1  0  0  0
 60131  1  0  0  0
 60132  1  0  0  0
 61133  1  0  0  0
 61134  1  0  0  0
 61135  1  0  0  0
 62136  1  0  0  0
 62137  1  0  0  0
 62138  1  0  0  0
 63 65  1  0  0  0
 63139  1  0  0  0
 63140  1  0  0  0
 63141  1  0  0  0
 64142  1  0  0  0
 65143  1  0  0  0
 68 83  1  0  0  0
 71 74  2  0  0  0
 71 75  1  0  0  0
 71144  1  0  0  0
 72 74  1  0  0  0
 72 76  2  0  0  0
 72145  1  0  0  0
 73 75  2  0  0  0
 73 76  1  0  0  0
 73146  1  0  0  0
 74 78  1  0  0  0
 75 79  1  0  0  0
 76 80  1  0  0  0
 77 78  1  0  0  0
 77147  1  0  0  0
 77148  1  0  0  0
 77149  1  0  0  0
 78150  1  0  0  0
 78151  1  0  0  0
 79 81  1  0  0  0
 79152  1  0  0  0
 79153  1  0  0  0
 80 83  1  0  0  0
 80154  1  0  0  0
 80155  1  0  0  0
 81 82  1  0  0  0
 81156  1  0  0  0
 81157  1  0  0  0
 82 84  1  0  0  0
 82158  1  0  0  0
 82159  1  0  0  0
 83160  1  0  0  0
 83161  1  0  0  0
 84162  1  0  0  0
M  ISO  4   1 100  68 101  83 101  84 100
M  END
> <chiral flag>
0

> <version>
0

> <s_m_source_file>
/data/baiqing/PycharmProjects/Reinvent-master-3.2/result/LINK_invent/BTK/process_docking_weight1_custom_sum_contain_oxygen_bond_distance_aromatic_linkinvent_7_9_3/rearranged_h_0039.sdf

> <i_m_source_file_index>
26

> <r_mmod_Potential_Energy-OPLS-2005>
35.4681510925293

> <r_mmod_Stretch_Energy-OPLS-2005>
52.6932907104492

> <r_mmod_Bend_Energy-OPLS-2005>
138.55143737793

> <r_mmod_Torsional_Energy-OPLS-2005>
259.394470214844

> <r_mmod_Improper_Torsional_Energy-OPLS-2005>
5.92904949188232

> <r_mmod_Van_der_Waal_Energy-OPLS-2005>
140.485443115234

> <r_mmod_Electrostatic_Energy-OPLS-2005>
-376.123962402344

> <r_mmod_Solvation_Energy-OPLS-2005>
-202.084686279297

> <b_mmod_Minimization_Converged-OPLS-2005>
0

> <r_mmod_RMS_Derivative-OPLS-2005>
4.21580457687378

$$$$
26
                    3D
 Structure written by MMmdl.
156164  0  0  1  0            999 V2000
  -30.6933  -14.5461   20.5560 C   0  0  0  0  0  0
  -30.4225  -12.3527   19.4332 C   0  0  0  0  0  0
  -29.4955  -12.5076   18.2104 C   0  0  0  0  0  0
  -28.0182  -12.3590   18.6240 C   0  0  0  0  0  0
  -27.6543  -13.2175   19.8652 C   0  0  2  0  0  0
  -28.6990  -13.0501   20.9911 C   0  0  0  0  0  0
  -25.2563  -13.8181   20.5685 C   0  0  0  0  0  0
  -24.1827  -13.0441   20.9184 C   0  0  0  0  0  0
  -24.6403  -11.6915   20.8739 C   0  0  0  0  0  0
  -23.9073  -10.4295   21.0404 C   0  0  0  0  0  0
  -24.3623   -9.4209   21.9180 C   0  0  0  0  0  0
  -23.6296   -8.2243   22.0755 C   0  0  0  0  0  0
  -22.4277   -8.0286   21.3545 C   0  0  0  0  0  0
  -21.9917   -9.0257   20.4643 C   0  0  0  0  0  0
  -22.7248  -10.2135   20.3051 C   0  0  0  0  0  0
  -21.6857   -6.0741   22.5280 C   0  0  0  0  0  0
  -21.4014   -6.5642   23.8213 C   0  0  0  0  0  0
  -21.3656   -5.6794   24.9174 C   0  0  0  0  0  0
  -21.6044   -4.3059   24.7224 C   0  0  0  0  0  0
  -21.8820   -3.8151   23.4345 C   0  0  0  0  0  0
  -21.9191   -4.6968   22.3401 C   0  0  0  0  0  0
  -22.7849  -13.5229   21.1845 C   0  0  0  0  0  0
  -22.1662   -4.2156   21.0978 F   0  0  0  0  0  0
  -21.5625   -3.4539   25.7734 F   0  0  0  0  0  0
  -30.0193  -13.3656   20.4251 N   0  0  0  0  0  0
  -26.2996  -12.9369   20.3338 N   0  0  0  0  0  0
  -25.9329  -11.6523   20.5759 N   0  0  0  0  0  0
  -22.0496  -12.8212   22.0400 N   0  0  0  0  0  0
  -25.4271  -15.1901   20.4101 N   0  0  0  0  0  0
  -31.8422  -14.6901   20.1316 O   0  0  0  0  0  0
  -21.6641   -6.8886   21.4243 O   0  0  0  0  0  0
  -22.3531  -14.5532   20.6699 O   0  0  0  0  0  0
  -24.6206  -31.8654   23.2071 C   0  0  0  0  0  0
  -25.9085  -32.4800   23.8380 C   0  0  1  0  0  0
  -27.2243  -27.3809   20.1098 C   0  0  0  0  0  0
  -25.5936  -33.8596   24.2323 N   0  0  0  0  0  0
  -23.4100  -30.4875   21.5485 C   0  0  2  0  0  0
  -24.8559  -28.9472   20.1129 C   0  0  0  0  0  0
  -22.7449  -29.4637   22.4977 C   0  0  0  0  0  0
  -18.0282  -28.1361   22.8486 C   0  0  0  0  0  0
  -24.1492  -36.7294   23.2635 C   0  0  0  0  0  0
  -25.9441  -30.8136   21.3688 C   0  0  0  0  0  0
  -26.0208  -29.4445   20.7132 C   0  0  0  0  0  0
  -27.2116  -28.6715   20.7027 C   0  0  0  0  0  0
  -26.0443  -26.9148   19.4921 C   0  0  0  0  0  0
  -24.8659  -27.6846   19.4960 C   0  0  0  0  0  0
  -23.6214  -29.8218   20.1622 C   0  0  0  0  0  0
  -25.4114  -36.3097   24.0330 C   0  0  1  0  0  0
  -20.5876  -28.3663   23.1303 C   0  0  2  0  0  0
  -20.6779  -26.9393   22.5410 C   0  0  0  0  0  0
  -19.5760  -26.6375   21.5199 C   0  0  0  0  0  0
  -18.1935  -26.7910   22.1608 C   0  0  0  0  0  0
  -19.1532  -28.8823   23.2891 C   0  0  0  0  0  0
  -18.9469  -30.1433   23.8896 C   0  0  0  0  0  0
  -17.6467  -30.6575   24.0550 C   0  0  0  0  0  0
  -25.9044  -34.9463   23.5119 C   0  0  0  0  0  0
  -16.5355  -29.9068   23.6322 C   0  0  0  0  0  0
  -16.7270  -28.6482   23.0347 C   0  0  0  0  0  0
  -26.4503  -31.6588   25.0714 C   0  0  0  0  0  0
  -25.3755  -31.3687   26.1450 C   0  0  0  0  0  0
  -27.0345  -30.3033   24.6094 C   0  0  0  0  0  0
  -27.6086  -32.4299   25.7469 C   0  0  0  0  0  0
  -27.5592  -37.1799   24.8462 C   0  0  0  0  0  0
  -21.4173  -29.3021   22.3711 N   0  0  0  0  0  0
  -26.4302  -37.3784   23.9408 N   0  0  0  0  0  0
  -24.6767  -31.0712   22.0993 N   0  0  0  0  0  0
  -23.4203  -28.8184   23.3036 O   0  0  0  0  0  0
  -28.3552  -26.5780   20.1153 O   0  0  0  0  0  0
  -26.5597  -34.8918   22.4676 O   0  0  0  0  0  0
  -23.5392  -32.1430   23.7453 O   0  0  0  0  0  0
  -28.3385  -21.2793   22.0855 C   0  0  0  0  0  0
  -28.8057  -20.4759   21.0046 C   0  0  0  0  0  0
  -29.0834  -21.4268   20.0388 C   0  0  0  0  0  0
  -29.6392  -21.2391   18.6648 C   0  0  0  0  0  0
  -28.8552  -18.9265   21.0291 C   0  0  0  0  0  0
  -30.2027  -18.2161   20.6820 C   0  0  0  0  0  0
  -28.7976  -24.0407   19.8907 C   0  0  0  0  0  0
  -30.5747  -16.9111   21.4857 C   0  0  0  0  0  0
  -28.2013  -25.2491   20.7042 C   0  0  0  0  0  0
  -28.2960  -22.5758   21.8091 N   0  0  0  0  0  0
  -28.7349  -22.6951   20.5360 N   0  0  0  0  0  0
  -30.0045  -15.6001   21.0664 N   0  0  0  0  0  0
  -31.4656  -12.4556   19.1303 H   0  0  0  0  0  0
  -30.3342  -11.3517   19.8583 H   0  0  0  0  0  0
  -29.7457  -11.7674   17.4491 H   0  0  0  0  0  0
  -29.6526  -13.4848   17.7504 H   0  0  0  0  0  0
  -27.8396  -11.3043   18.8369 H   0  0  0  0  0  0
  -27.3660  -12.6131   17.7876 H   0  0  0  0  0  0
  -27.6830  -14.2579   19.5414 H   0  0  0  0  0  0
  -28.6938  -12.0270   21.3704 H   0  0  0  0  0  0
  -28.4552  -13.6836   21.8457 H   0  0  0  0  0  0
  -25.2772   -9.5682   22.4755 H   0  0  0  0  0  0
  -24.0005   -7.4639   22.7477 H   0  0  0  0  0  0
  -21.0850   -8.8779   19.8949 H   0  0  0  0  0  0
  -22.3712  -10.9674   19.6157 H   0  0  0  0  0  0
  -21.2011   -7.6153   23.9719 H   0  0  0  0  0  0
  -21.1474   -6.0524   25.9077 H   0  0  0  0  0  0
  -22.0602   -2.7614   23.2841 H   0  0  0  0  0  0
  -22.4116  -11.9868   22.4776 H   0  0  0  0  0  0
  -21.1107  -13.1229   22.2607 H   0  0  0  0  0  0
  -24.6607  -15.8458   20.5187 H   0  0  0  0  0  0
  -26.2790  -15.6298   20.0846 H   0  0  0  0  0  0
  -26.7139  -32.5492   23.1123 H   0  0  0  0  0  0
  -25.0128  -33.9739   25.0496 H   0  0  0  0  0  0
  -22.7000  -31.3057   21.4102 H   0  0  0  0  0  0
  -23.3759  -35.9627   23.3303 H   0  0  0  0  0  0
  -24.3595  -36.8905   22.2054 H   0  0  0  0  0  0
  -23.7240  -37.6492   23.6648 H   0  0  0  0  0  0
  -26.0665  -31.5813   20.6044 H   0  0  0  0  0  0
  -26.8282  -30.8631   21.9926 H   0  0  0  0  0  0
  -28.1089  -29.0476   21.1729 H   0  0  0  0  0  0
  -26.0332  -25.9464   19.0110 H   0  0  0  0  0  0
  -23.9726  -27.2983   19.0238 H   0  0  0  0  0  0
  -23.7365  -30.5996   19.4060 H   0  0  0  0  0  0
  -22.7437  -29.2472   19.8616 H   0  0  0  0  0  0
  -25.1297  -36.1954   25.0822 H   0  0  0  0  0  0
  -20.9956  -28.3223   24.1429 H   0  0  0  0  0  0
  -20.5686  -26.2260   23.3601 H   0  0  0  0  0  0
  -21.6655  -26.7442   22.1202 H   0  0  0  0  0  0
  -19.6921  -25.6285   21.1230 H   0  0  0  0  0  0
  -19.6700  -27.3192   20.6732 H   0  0  0  0  0  0
  -17.4212  -26.6662   21.3999 H   0  0  0  0  0  0
  -18.0328  -26.0042   22.8993 H   0  0  0  0  0  0
  -19.7945  -30.7244   24.2276 H   0  0  0  0  0  0
  -17.5022  -31.6261   24.5157 H   0  0  0  0  0  0
  -15.5354  -30.2971   23.7649 H   0  0  0  0  0  0
  -15.8669  -28.0803   22.7058 H   0  0  0  0  0  0
  -24.5949  -30.7011   25.7784 H   0  0  0  0  0  0
  -24.8914  -32.2831   26.4887 H   0  0  0  0  0  0
  -25.8106  -30.8874   27.0216 H   0  0  0  0  0  0
  -26.2886  -29.6760   24.1197 H   0  0  0  0  0  0
  -27.4181  -29.7304   25.4548 H   0  0  0  0  0  0
  -27.8694  -30.4363   23.9209 H   0  0  0  0  0  0
  -27.2732  -33.3611   26.2045 H   0  0  0  0  0  0
  -28.3895  -32.6827   25.0281 H   0  0  0  0  0  0
  -28.0743  -31.8404   26.5380 H   0  0  0  0  0  0
  -28.2601  -38.0112   24.7554 H   0  0  0  0  0  0
  -28.1104  -36.2648   24.6241 H   0  0  0  0  0  0
  -27.2313  -37.1384   25.8865 H   0  0  0  0  0  0
  -20.9348  -29.8747   21.6932 H   0  0  0  0  0  0
  -26.0191  -38.2853   24.1432 H   0  0  0  0  0  0
  -28.0008  -20.9516   23.0585 H   0  0  0  0  0  0
  -29.4391  -20.2328   18.2965 H   0  0  0  0  0  0
  -30.7196  -21.3823   18.6683 H   0  0  0  0  0  0
  -29.2051  -21.9431   17.9558 H   0  0  0  0  0  0
  -28.0809  -18.5176   20.3789 H   0  0  0  0  0  0
  -28.5639  -18.5922   22.0254 H   0  0  0  0  0  0
  -30.9924  -18.9329   20.9119 H   0  0  0  0  0  0
  -30.2836  -18.0491   19.6073 H   0  0  0  0  0  0
  -29.8428  -24.2449   19.6576 H   0  0  0  0  0  0
  -28.2774  -23.9736   18.9347 H   0  0  0  0  0  0
  -30.3259  -17.0552   22.5387 H   0  0  0  0  0  0
  -31.6640  -16.8287   21.4794 H   0  0  0  0  0  0
  -28.7011  -25.2981   21.6717 H   0  0  0  0  0  0
  -27.1584  -25.0304   20.9394 H   0  0  0  0  0  0
  -29.0500  -15.4130   21.3379 H   0  0  0  0  0  0
  1 25  1  0  0  0
  1 30  2  0  0  0
  1 82  1  0  0  0
  2  3  1  0  0  0
  2 25  1  0  0  0
  2 83  1  0  0  0
  2 84  1  0  0  0
  3  4  1  0  0  0
  3 85  1  0  0  0
  3 86  1  0  0  0
  4  5  1  0  0  0
  4 87  1  0  0  0
  4 88  1  0  0  0
  5  6  1  0  0  0
  5 26  1  0  0  0
  5 89  1  0  0  0
  6 25  1  0  0  0
  6 90  1  0  0  0
  6 91  1  0  0  0
  7  8  2  0  0  0
  7 26  1  0  0  0
  7 29  1  0  0  0
  8  9  1  0  0  0
  8 22  1  0  0  0
  9 10  1  0  0  0
  9 27  2  0  0  0
 10 11  2  0  0  0
 10 15  1  0  0  0
 11 12  1  0  0  0
 11 92  1  0  0  0
 12 13  2  0  0  0
 12 93  1  0  0  0
 13 14  1  0  0  0
 13 31  1  0  0  0
 14 15  2  0  0  0
 14 94  1  0  0  0
 15 95  1  0  0  0
 16 17  2  0  0  0
 16 21  1  0  0  0
 16 31  1  0  0  0
 17 18  1  0  0  0
 17 96  1  0  0  0
 18 19  2  0  0  0
 18 97  1  0  0  0
 19 20  1  0  0  0
 19 24  1  0  0  0
 20 21  2  0  0  0
 20 98  1  0  0  0
 21 23  1  0  0  0
 22 28  1  0  0  0
 22 32  2  0  0  0
 26 27  1  0  0  0
 28 99  1  0  0  0
 28100  1  0  0  0
 29101  1  0  0  0
 29102  1  0  0  0
 33 34  1  0  0  0
 33 66  1  0  0  0
 33 70  2  0  0  0
 34 36  1  0  0  0
 34 59  1  0  0  0
 34103  1  0  0  0
 35 44  2  0  0  0
 35 45  1  0  0  0
 35 68  1  0  0  0
 36 56  1  0  0  0
 36104  1  0  0  0
 37 39  1  0  0  0
 37 47  1  0  0  0
 37 66  1  0  0  0
 37105  1  0  0  0
 38 43  2  0  0  0
 38 46  1  0  0  0
 38 47  1  0  0  0
 39 64  1  0  0  0
 39 67  2  0  0  0
 40 52  1  0  0  0
 40 53  2  0  0  0
 40 58  1  0  0  0
 41106  1  0  0  0
 41107  1  0  0  0
 41108  1  0  0  0
 41 48  1  0  0  0
 42 43  1  0  0  0
 42 66  1  0  0  0
 42109  1  0  0  0
 42110  1  0  0  0
 43 44  1  0  0  0
 44111  1  0  0  0
 45 46  2  0  0  0
 45112  1  0  0  0
 46113  1  0  0  0
 47114  1  0  0  0
 47115  1  0  0  0
 48 56  1  0  0  0
 48 65  1  0  0  0
 48116  1  0  0  0
 49 50  1  0  0  0
 49 53  1  0  0  0
 49 64  1  0  0  0
 49117  1  0  0  0
 50 51  1  0  0  0
 50118  1  0  0  0
 50119  1  0  0  0
 51 52  1  0  0  0
 51120  1  0  0  0
 51121  1  0  0  0
 52122  1  0  0  0
 52123  1  0  0  0
 53 54  1  0  0  0
 54 55  2  0  0  0
 54124  1  0  0  0
 55 57  1  0  0  0
 55125  1  0  0  0
 56 69  2  0  0  0
 57 58  2  0  0  0
 57126  1  0  0  0
 58127  1  0  0  0
 59 60  1  0  0  0
 59 61  1  0  0  0
 59 62  1  0  0  0
 60128  1  0  0  0
 60129  1  0  0  0
 60130  1  0  0  0
 61131  1  0  0  0
 61132  1  0  0  0
 61133  1  0  0  0
 62134  1  0  0  0
 62135  1  0  0  0
 62136  1  0  0  0
 63 65  1  0  0  0
 63137  1  0  0  0
 63138  1  0  0  0
 63139  1  0  0  0
 64140  1  0  0  0
 65141  1  0  0  0
 68 79  1  0  0  0
 71 72  1  0  0  0
 71 80  2  0  0  0
 71142  1  0  0  0
 72 73  2  0  0  0
 72 75  1  0  0  0
 73 74  1  0  0  0
 73 81  1  0  0  0
 74143  1  0  0  0
 74144  1  0  0  0
 74145  1  0  0  0
 75 76  1  0  0  0
 75146  1  0  0  0
 75147  1  0  0  0
 76 78  1  0  0  0
 76148  1  0  0  0
 76149  1  0  0  0
 77 79  1  0  0  0
 77 81  1  0  0  0
 77150  1  0  0  0
 77151  1  0  0  0
 78 82  1  0  0  0
 78152  1  0  0  0
 78153  1  0  0  0
 79154  1  0  0  0
 79155  1  0  0  0
 80 81  1  0  0  0
 82156  1  0  0  0
M  ISO  4   1 100  68 101  79 101  82 100
M  END
> <chiral flag>
0

> <version>
0

> <s_m_source_file>
/data/baiqing/PycharmProjects/Reinvent-master-3.2/result/LINK_invent/BTK/process_docking_weight1_custom_sum_contain_oxygen_bond_distance_aromatic_linkinvent_7_9_3/rearranged_h_0039.sdf

> <i_m_source_file_index>
27

> <r_mmod_Potential_Energy-OPLS-2005>
-35.4251022338867

> <r_mmod_Stretch_Energy-OPLS-2005>
53.5766448974609

> <r_mmod_Bend_Energy-OPLS-2005>
118.10262298584

> <r_mmod_Torsional_Energy-OPLS-2005>
236.141754150391

> <r_mmod_Improper_Torsional_Energy-OPLS-2005>
3.09170079231262

> <r_mmod_Van_der_Waal_Energy-OPLS-2005>
122.095031738281

> <r_mmod_Electrostatic_Energy-OPLS-2005>
-371.498779296875

> <r_mmod_Solvation_Energy-OPLS-2005>
-221.898544311523

> <b_mmod_Minimization_Converged-OPLS-2005>
0

> <r_mmod_RMS_Derivative-OPLS-2005>
1.65056490898132

$$$$
27
                    3D
 Structure written by MMmdl.
182190  0  0  1  0            999 V2000
  -30.8484  -14.2468   20.7799 C   0  0  0  0  0  0
  -30.4057  -12.2878   19.3602 C   0  0  0  0  0  0
  -29.4658  -12.5489   18.1745 C   0  0  0  0  0  0
  -27.9983  -12.3872   18.6038 C   0  0  0  0  0  0
  -27.6649  -13.2060   19.8770 C   0  0  2  0  0  0
  -28.7047  -12.9555   20.9911 C   0  0  0  0  0  0
  -25.2588  -13.8162   20.5692 C   0  0  0  0  0  0
  -24.1835  -13.0442   20.9175 C   0  0  0  0  0  0
  -24.6395  -11.6911   20.8729 C   0  0  0  0  0  0
  -23.9054  -10.4300   21.0409 C   0  0  0  0  0  0
  -24.3607   -9.4219   21.9194 C   0  0  0  0  0  0
  -23.6296   -8.2242   22.0749 C   0  0  0  0  0  0
  -22.4273   -8.0275   21.3536 C   0  0  0  0  0  0
  -21.9903   -9.0251   20.4634 C   0  0  0  0  0  0
  -22.7226  -10.2139   20.3057 C   0  0  0  0  0  0
  -21.6855   -6.0732   22.5280 C   0  0  0  0  0  0
  -21.4007   -6.5637   23.8209 C   0  0  0  0  0  0
  -21.3665   -5.6789   24.9174 C   0  0  0  0  0  0
  -21.6052   -4.3056   24.7222 C   0  0  0  0  0  0
  -21.8820   -3.8147   23.4348 C   0  0  0  0  0  0
  -21.9190   -4.6961   22.3403 C   0  0  0  0  0  0
  -22.7859  -13.5244   21.1841 C   0  0  0  0  0  0
  -22.1664   -4.2148   21.0980 F   0  0  0  0  0  0
  -21.5631   -3.4542   25.7742 F   0  0  0  0  0  0
  -30.0574  -13.1991   20.4570 N   0  0  0  0  0  0
  -26.3038  -12.9345   20.3379 N   0  0  0  0  0  0
  -25.9323  -11.6497   20.5756 N   0  0  0  0  0  0
  -22.0488  -12.8233   22.0392 N   0  0  0  0  0  0
  -25.4282  -15.1884   20.4114 N   0  0  0  0  0  0
  -31.7444  -14.6857   20.0500 O   0  0  0  0  0  0
  -21.6641   -6.8879   21.4242 O   0  0  0  0  0  0
  -22.3551  -14.5565   20.6709 O   0  0  0  0  0  0
  -24.6138  -31.8704   23.2123 C   0  0  0  0  0  0
  -25.9047  -32.4823   23.8399 C   0  0  1  0  0  0
  -27.2289  -27.4537   20.0697 C   0  0  0  0  0  0
  -25.5907  -33.8618   24.2337 N   0  0  0  0  0  0
  -23.3980  -30.5006   21.5510 C   0  0  2  0  0  0
  -24.8400  -28.9704   20.1147 C   0  0  0  0  0  0
  -22.7395  -29.4709   22.4964 C   0  0  0  0  0  0
  -18.0274  -28.1416   22.8505 C   0  0  0  0  0  0
  -24.1485  -36.7307   23.2636 C   0  0  0  0  0  0
  -25.9278  -30.8378   21.3657 C   0  0  0  0  0  0
  -26.0002  -29.4733   20.7151 C   0  0  0  0  0  0
  -27.1936  -28.7185   20.6989 C   0  0  0  0  0  0
  -26.0569  -26.9869   19.4352 C   0  0  0  0  0  0
  -24.8614  -27.7230   19.4735 C   0  0  0  0  0  0
  -23.6043  -29.8363   20.1644 C   0  0  0  0  0  0
  -25.4101  -36.3097   24.0340 C   0  0  1  0  0  0
  -20.5864  -28.3705   23.1308 C   0  0  2  0  0  0
  -20.6756  -26.9435   22.5426 C   0  0  0  0  0  0
  -19.5727  -26.6420   21.5224 C   0  0  0  0  0  0
  -18.1905  -26.7970   22.1623 C   0  0  0  0  0  0
  -19.1524  -28.8868   23.2915 C   0  0  0  0  0  0
  -18.9452  -30.1472   23.8941 C   0  0  0  0  0  0
  -17.6454  -30.6605   24.0594 C   0  0  0  0  0  0
  -25.9030  -34.9469   23.5119 C   0  0  0  0  0  0
  -16.5346  -29.9124   23.6330 C   0  0  0  0  0  0
  -16.7270  -28.6538   23.0356 C   0  0  0  0  0  0
  -26.4473  -31.6604   25.0732 C   0  0  0  0  0  0
  -25.3740  -31.3719   26.1482 C   0  0  0  0  0  0
  -27.0309  -30.3047   24.6116 C   0  0  0  0  0  0
  -27.6057  -32.4322   25.7482 C   0  0  0  0  0  0
  -27.5574  -37.1809   24.8453 C   0  0  0  0  0  0
  -21.4120  -29.3067   22.3702 N   0  0  0  0  0  0
  -26.4278  -37.3798   23.9410 N   0  0  0  0  0  0
  -24.6642  -31.0853   22.0991 N   0  0  0  0  0  0
  -23.4177  -28.8226   23.2977 O   0  0  0  0  0  0
  -28.4150  -26.7501   20.0467 O   0  0  0  0  0  0
  -26.5592  -34.8909   22.4680 O   0  0  0  0  0  0
  -23.5337  -32.1436   23.7536 O   0  0  0  0  0  0
  -26.5028  -23.5168   22.7940 C   0  0  0  0  0  0
  -26.7609  -24.0572   21.5216 C   0  0  0  0  0  0
  -28.0408  -24.6281   21.2671 C   0  0  0  0  0  0
  -27.5164  -23.5164   23.7593 C   0  0  0  0  0  0
  -29.0164  -24.5311   22.3001 C   0  0  0  0  0  0
  -25.6394  -23.9566   20.5007 C   0  0  0  0  0  0
  -30.8313  -26.7655   23.8858 C   0  0  0  0  0  0
  -32.1077  -26.8404   21.7103 C   0  0  0  0  0  0
  -28.3850  -25.3208   19.9387 C   0  0  0  0  0  0
  -27.2995  -22.8286   25.0955 C   0  0  0  0  0  0
  -30.4802  -24.9368   22.1218 C   0  0  0  0  0  0
  -27.3828  -21.2907   25.0025 C   0  0  0  0  0  0
  -28.6441  -20.7720   24.2914 C   0  0  0  0  0  0
  -28.7337  -19.2430   24.2502 C   0  0  0  0  0  0
  -30.0020  -18.7900   23.5192 C   0  0  0  0  0  0
  -30.1586  -17.2683   23.4620 C   0  0  0  0  0  0
  -31.4633  -16.8747   22.7570 C   0  0  0  0  0  0
  -31.7483  -15.3709   22.8085 C   0  0  0  0  0  0
  -30.7887  -26.4281   22.3873 C   0  0  0  0  0  0
  -28.7466  -24.0016   23.5141 N   0  0  0  0  0  0
  -30.7582  -14.5957   22.0679 N   0  0  0  0  0  0
  -31.4456  -12.3976   19.0459 H   0  0  0  0  0  0
  -30.3069  -11.2579   19.7051 H   0  0  0  0  0  0
  -29.6915  -11.8648   17.3546 H   0  0  0  0  0  0
  -29.6318  -13.5564   17.7877 H   0  0  0  0  0  0
  -27.8101  -11.3278   18.7796 H   0  0  0  0  0  0
  -27.3357  -12.6825   17.7894 H   0  0  0  0  0  0
  -27.7214  -14.2601   19.6044 H   0  0  0  0  0  0
  -28.6453  -11.9259   21.3448 H   0  0  0  0  0  0
  -28.4633  -13.5858   21.8477 H   0  0  0  0  0  0
  -25.2756   -9.5701   22.4762 H   0  0  0  0  0  0
  -24.0013   -7.4633   22.7464 H   0  0  0  0  0  0
  -21.0833   -8.8768   19.8941 H   0  0  0  0  0  0
  -22.3689  -10.9671   19.6155 H   0  0  0  0  0  0
  -21.1998   -7.6139   23.9707 H   0  0  0  0  0  0
  -21.1488   -6.0520   25.9070 H   0  0  0  0  0  0
  -22.0593   -2.7608   23.2849 H   0  0  0  0  0  0
  -22.4076  -11.9879   22.4777 H   0  0  0  0  0  0
  -21.1111  -13.1271   22.2602 H   0  0  0  0  0  0
  -24.6639  -15.8438   20.5281 H   0  0  0  0  0  0
  -26.2901  -15.6306   20.1158 H   0  0  0  0  0  0
  -26.7121  -32.5551   23.1168 H   0  0  0  0  0  0
  -25.0090  -33.9767   25.0501 H   0  0  0  0  0  0
  -22.6874  -31.3183   21.4154 H   0  0  0  0  0  0
  -23.3726  -35.9658   23.3294 H   0  0  0  0  0  0
  -24.3589  -36.8937   22.2054 H   0  0  0  0  0  0
  -23.7262  -37.6518   23.6653 H   0  0  0  0  0  0
  -26.0464  -31.6027   20.5952 H   0  0  0  0  0  0
  -26.8126  -30.8865   21.9868 H   0  0  0  0  0  0
  -28.0880  -29.1067   21.1654 H   0  0  0  0  0  0
  -26.0432  -26.0714   18.8699 H   0  0  0  0  0  0
  -23.9794  -27.3431   18.9774 H   0  0  0  0  0  0
  -23.7171  -30.6085   19.4025 H   0  0  0  0  0  0
  -22.7275  -29.2569   19.8700 H   0  0  0  0  0  0
  -25.1285  -36.1956   25.0842 H   0  0  0  0  0  0
  -21.0002  -28.3288   24.1406 H   0  0  0  0  0  0
  -20.5659  -26.2321   23.3626 H   0  0  0  0  0  0
  -21.6636  -26.7477   22.1229 H   0  0  0  0  0  0
  -19.6866  -25.6329   21.1256 H   0  0  0  0  0  0
  -19.6652  -27.3217   20.6733 H   0  0  0  0  0  0
  -17.4196  -26.6786   21.3995 H   0  0  0  0  0  0
  -18.0245  -26.0099   22.8992 H   0  0  0  0  0  0
  -19.7920  -30.7294   24.2326 H   0  0  0  0  0  0
  -17.5006  -31.6282   24.5201 H   0  0  0  0  0  0
  -15.5348  -30.3050   23.7606 H   0  0  0  0  0  0
  -15.8672  -28.0866   22.7055 H   0  0  0  0  0  0
  -24.5930  -30.7041   25.7819 H   0  0  0  0  0  0
  -24.8902  -32.2883   26.4887 H   0  0  0  0  0  0
  -25.8117  -30.8930   27.0258 H   0  0  0  0  0  0
  -26.2858  -29.6801   24.1179 H   0  0  0  0  0  0
  -27.4073  -29.7299   25.4588 H   0  0  0  0  0  0
  -27.8694  -30.4339   23.9269 H   0  0  0  0  0  0
  -27.2686  -33.3620   26.2073 H   0  0  0  0  0  0
  -28.3853  -32.6901   25.0301 H   0  0  0  0  0  0
  -28.0736  -31.8448   26.5392 H   0  0  0  0  0  0
  -28.2601  -38.0096   24.7510 H   0  0  0  0  0  0
  -28.1067  -36.2641   24.6255 H   0  0  0  0  0  0
  -27.2313  -37.1458   25.8862 H   0  0  0  0  0  0
  -20.9264  -29.8838   21.6974 H   0  0  0  0  0  0
  -26.0149  -38.2869   24.1411 H   0  0  0  0  0  0
  -25.5443  -23.0715   23.0238 H   0  0  0  0  0  0
  -25.0272  -23.0784   20.7034 H   0  0  0  0  0  0
  -25.9944  -23.8388   19.4792 H   0  0  0  0  0  0
  -24.9819  -24.8223   20.5724 H   0  0  0  0  0  0
  -31.0550  -27.8217   24.0436 H   0  0  0  0  0  0
  -31.5917  -26.1807   24.4061 H   0  0  0  0  0  0
  -29.8718  -26.5632   24.3633 H   0  0  0  0  0  0
  -32.3090  -27.9021   21.8555 H   0  0  0  0  0  0
  -32.0746  -26.6654   20.6342 H   0  0  0  0  0  0
  -32.9557  -26.2833   22.1107 H   0  0  0  0  0  0
  -27.7732  -24.9746   19.1114 H   0  0  0  0  0  0
  -29.3772  -25.0143   19.6164 H   0  0  0  0  0  0
  -26.3249  -23.1202   25.4887 H   0  0  0  0  0  0
  -28.0344  -23.1951   25.8134 H   0  0  0  0  0  0
  -30.8113  -24.6496   21.1258 H   0  0  0  0  0  0
  -31.0967  -24.3227   22.7806 H   0  0  0  0  0  0
  -26.5075  -20.9280   24.4627 H   0  0  0  0  0  0
  -27.3175  -20.8670   26.0057 H   0  0  0  0  0  0
  -29.5293  -21.1836   24.7787 H   0  0  0  0  0  0
  -28.6648  -21.1393   23.2634 H   0  0  0  0  0  0
  -27.8550  -18.8336   23.7495 H   0  0  0  0  0  0
  -28.7291  -18.8460   25.2666 H   0  0  0  0  0  0
  -30.8738  -19.2203   24.0152 H   0  0  0  0  0  0
  -30.0006  -19.1888   22.5035 H   0  0  0  0  0  0
  -29.3043  -16.8249   22.9477 H   0  0  0  0  0  0
  -30.1540  -16.8646   24.4750 H   0  0  0  0  0  0
  -32.2960  -17.3951   23.2321 H   0  0  0  0  0  0
  -31.4459  -17.2167   21.7203 H   0  0  0  0  0  0
  -31.7513  -15.0304   23.8448 H   0  0  0  0  0  0
  -32.7514  -15.1690   22.4286 H   0  0  0  0  0  0
  -30.0028  -27.0288   21.9328 H   0  0  0  0  0  0
  -30.0404  -14.1309   22.6051 H   0  0  0  0  0  0
  1 25  1  0  0  0
  1 30  2  0  0  0
  1 91  1  0  0  0
  2  3  1  0  0  0
  2 25  1  0  0  0
  2 92  1  0  0  0
  2 93  1  0  0  0
  3  4  1  0  0  0
  3 94  1  0  0  0
  3 95  1  0  0  0
  4  5  1  0  0  0
  4 96  1  0  0  0
  4 97  1  0  0  0
  5  6  1  0  0  0
  5 26  1  0  0  0
  5 98  1  0  0  0
  6 25  1  0  0  0
  6 99  1  0  0  0
  6100  1  0  0  0
  7  8  2  0  0  0
  7 26  1  0  0  0
  7 29  1  0  0  0
  8  9  1  0  0  0
  8 22  1  0  0  0
  9 10  1  0  0  0
  9 27  2  0  0  0
 10 11  2  0  0  0
 10 15  1  0  0  0
 11 12  1  0  0  0
 11101  1  0  0  0
 12 13  2  0  0  0
 12102  1  0  0  0
 13 14  1  0  0  0
 13 31  1  0  0  0
 14 15  2  0  0  0
 14103  1  0  0  0
 15104  1  0  0  0
 16 17  2  0  0  0
 16 21  1  0  0  0
 16 31  1  0  0  0
 17 18  1  0  0  0
 17105  1  0  0  0
 18 19  2  0  0  0
 18106  1  0  0  0
 19 20  1  0  0  0
 19 24  1  0  0  0
 20 21  2  0  0  0
 20107  1  0  0  0
 21 23  1  0  0  0
 22 28  1  0  0  0
 22 32  2  0  0  0
 26 27  1  0  0  0
 28108  1  0  0  0
 28109  1  0  0  0
 29110  1  0  0  0
 29111  1  0  0  0
 33 34  1  0  0  0
 33 66  1  0  0  0
 33 70  2  0  0  0
 34 36  1  0  0  0
 34 59  1  0  0  0
 34112  1  0  0  0
 35 44  2  0  0  0
 35 45  1  0  0  0
 35 68  1  0  0  0
 36 56  1  0  0  0
 36113  1  0  0  0
 37 39  1  0  0  0
 37 47  1  0  0  0
 37 66  1  0  0  0
 37114  1  0  0  0
 38 43  2  0  0  0
 38 46  1  0  0  0
 38 47  1  0  0  0
 39 64  1  0  0  0
 39 67  2  0  0  0
 40 52  1  0  0  0
 40 53  2  0  0  0
 40 58  1  0  0  0
 41115  1  0  0  0
 41116  1  0  0  0
 41117  1  0  0  0
 41 48  1  0  0  0
 42 43  1  0  0  0
 42 66  1  0  0  0
 42118  1  0  0  0
 42119  1  0  0  0
 43 44  1  0  0  0
 44120  1  0  0  0
 45 46  2  0  0  0
 45121  1  0  0  0
 46122  1  0  0  0
 47123  1  0  0  0
 47124  1  0  0  0
 48 56  1  0  0  0
 48 65  1  0  0  0
 48125  1  0  0  0
 49 50  1  0  0  0
 49 53  1  0  0  0
 49 64  1  0  0  0
 49126  1  0  0  0
 50 51  1  0  0  0
 50127  1  0  0  0
 50128  1  0  0  0
 51 52  1  0  0  0
 51129  1  0  0  0
 51130  1  0  0  0
 52131  1  0  0  0
 52132  1  0  0  0
 53 54  1  0  0  0
 54 55  2  0  0  0
 54133  1  0  0  0
 55 57  1  0  0  0
 55134  1  0  0  0
 56 69  2  0  0  0
 57 58  2  0  0  0
 57135  1  0  0  0
 58136  1  0  0  0
 59 60  1  0  0  0
 59 61  1  0  0  0
 59 62  1  0  0  0
 60137  1  0  0  0
 60138  1  0  0  0
 60139  1  0  0  0
 61140  1  0  0  0
 61141  1  0  0  0
 61142  1  0  0  0
 62143  1  0  0  0
 62144  1  0  0  0
 62145  1  0  0  0
 63 65  1  0  0  0
 63146  1  0  0  0
 63147  1  0  0  0
 63148  1  0  0  0
 64149  1  0  0  0
 65150  1  0  0  0
 68 79  1  0  0  0
 71 72  2  0  0  0
 71 74  1  0  0  0
 71151  1  0  0  0
 72 73  1  0  0  0
 72 76  1  0  0  0
 73 75  2  0  0  0
 73 79  1  0  0  0
 74 80  1  0  0  0
 74 90  2  0  0  0
 75 81  1  0  0  0
 75 90  1  0  0  0
 76152  1  0  0  0
 76153  1  0  0  0
 76154  1  0  0  0
 77155  1  0  0  0
 77156  1  0  0  0
 77157  1  0  0  0
 77 89  1  0  0  0
 78 89  1  0  0  0
 78158  1  0  0  0
 78159  1  0  0  0
 78160  1  0  0  0
 79161  1  0  0  0
 79162  1  0  0  0
 80 82  1  0  0  0
 80163  1  0  0  0
 80164  1  0  0  0
 81 89  1  0  0  0
 81165  1  0  0  0
 81166  1  0  0  0
 82 83  1  0  0  0
 82167  1  0  0  0
 82168  1  0  0  0
 83 84  1  0  0  0
 83169  1  0  0  0
 83170  1  0  0  0
 84 85  1  0  0  0
 84171  1  0  0  0
 84172  1  0  0  0
 85 86  1  0  0  0
 85173  1  0  0  0
 85174  1  0  0  0
 86 87  1  0  0  0
 86175  1  0  0  0
 86176  1  0  0  0
 87 88  1  0  0  0
 87177  1  0  0  0
 87178  1  0  0  0
 88 91  1  0  0  0
 88179  1  0  0  0
 88180  1  0  0  0
 89181  1  0  0  0
 91182  1  0  0  0
M  ISO  4   1 100  68 101  79 101  91 100
M  END
> <chiral flag>
0

> <version>
0

> <s_m_source_file>
/data/baiqing/PycharmProjects/Reinvent-master-3.2/result/LINK_invent/BTK/process_docking_weight1_custom_sum_contain_oxygen_bond_distance_aromatic_linkinvent_7_9_3/rearranged_h_0039.sdf

> <i_m_source_file_index>
28

> <r_mmod_Potential_Energy-OPLS-2005>
-143.278549194336

> <r_mmod_Stretch_Energy-OPLS-2005>
34.2230834960938

> <r_mmod_Bend_Energy-OPLS-2005>
101.285491943359

> <r_mmod_Torsional_Energy-OPLS-2005>
207.974319458008

> <r_mmod_Improper_Torsional_Energy-OPLS-2005>
6.50689935684204

> <r_mmod_Van_der_Waal_Energy-OPLS-2005>
151.007385253906

> <r_mmod_Electrostatic_Energy-OPLS-2005>
-450.082183837891

> <r_mmod_Solvation_Energy-OPLS-2005>
-205.845504760742

> <b_mmod_Minimization_Converged-OPLS-2005>
0

> <r_mmod_RMS_Derivative-OPLS-2005>
2.45205593109131

$$$$
28
                    3D
 Structure written by MMmdl.
151159  0  0  1  0            999 V2000
  -30.5785  -14.8821   20.3846 C   0  0  0  0  0  0
  -30.4196  -12.5428   19.4806 C   0  0  0  0  0  0
  -29.5025  -12.5126   18.2374 C   0  0  0  0  0  0
  -28.0364  -12.3090   18.6587 C   0  0  0  0  0  0
  -27.6196  -13.2429   19.8287 C   0  0  2  0  0  0
  -28.6640  -13.2724   20.9639 C   0  0  0  0  0  0
  -25.2402  -13.8192   20.5727 C   0  0  0  0  0  0
  -24.1715  -13.0415   20.9244 C   0  0  0  0  0  0
  -24.6359  -11.6895   20.8753 C   0  0  0  0  0  0
  -23.9037  -10.4282   21.0408 C   0  0  0  0  0  0
  -24.3590   -9.4187   21.9177 C   0  0  0  0  0  0
  -23.6284   -8.2219   22.0739 C   0  0  0  0  0  0
  -22.4250   -8.0270   21.3549 C   0  0  0  0  0  0
  -21.9885   -9.0229   20.4629 C   0  0  0  0  0  0
  -22.7209  -10.2128   20.3055 C   0  0  0  0  0  0
  -21.6874   -6.0715   22.5273 C   0  0  0  0  0  0
  -21.4010   -6.5614   23.8203 C   0  0  0  0  0  0
  -21.3664   -5.6777   24.9174 C   0  0  0  0  0  0
  -21.6058   -4.3046   24.7230 C   0  0  0  0  0  0
  -21.8815   -3.8126   23.4356 C   0  0  0  0  0  0
  -21.9185   -4.6930   22.3407 C   0  0  0  0  0  0
  -22.7761  -13.5199   21.1880 C   0  0  0  0  0  0
  -22.1661   -4.2120   21.0981 F   0  0  0  0  0  0
  -21.5639   -3.4515   25.7745 F   0  0  0  0  0  0
  -29.9449  -13.6503   20.3516 N   0  0  0  0  0  0
  -26.2811  -12.9428   20.3215 N   0  0  0  0  0  0
  -25.9294  -11.6553   20.5743 N   0  0  0  0  0  0
  -22.0417  -12.8214   22.0473 N   0  0  0  0  0  0
  -25.4047  -15.1918   20.4097 N   0  0  0  0  0  0
  -31.7921  -14.9062   20.1577 O   0  0  0  0  0  0
  -21.6643   -6.8856   21.4247 O   0  0  0  0  0  0
  -22.3443  -14.5507   20.6733 O   0  0  0  0  0  0
  -24.6434  -31.8470   23.1875 C   0  0  0  0  0  0
  -25.9246  -32.4666   23.8241 C   0  0  1  0  0  0
  -27.2207  -27.1617   20.1279 C   0  0  0  0  0  0
  -25.6000  -33.8462   24.2164 N   0  0  0  0  0  0
  -23.4412  -30.4621   21.5370 C   0  0  2  0  0  0
  -24.8843  -28.8766   20.1176 C   0  0  0  0  0  0
  -22.7538  -29.4565   22.4920 C   0  0  0  0  0  0
  -18.0302  -28.1416   22.8489 C   0  0  0  0  0  0
  -24.1495  -36.7223   23.2628 C   0  0  0  0  0  0
  -25.9939  -30.7188   21.3783 C   0  0  0  0  0  0
  -26.0635  -29.3284   20.7244 C   0  0  0  0  0  0
  -27.2340  -28.4872   20.7100 C   0  0  0  0  0  0
  -26.0109  -26.7827   19.5133 C   0  0  0  0  0  0
  -24.8668  -27.6130   19.5042 C   0  0  0  0  0  0
  -23.6630  -29.7826   20.1595 C   0  0  0  0  0  0
  -25.4131  -36.2993   24.0301 C   0  0  1  0  0  0
  -20.5907  -28.3732   23.1264 C   0  0  2  0  0  0
  -20.6796  -26.9451   22.5417 C   0  0  0  0  0  0
  -19.5773  -26.6408   21.5228 C   0  0  0  0  0  0
  -18.1950  -26.7955   22.1635 C   0  0  0  0  0  0
  -19.1558  -28.8901   23.2857 C   0  0  0  0  0  0
  -18.9469  -30.1501   23.8883 C   0  0  0  0  0  0
  -17.6463  -30.6608   24.0574 C   0  0  0  0  0  0
  -25.9102  -34.9371   23.5041 C   0  0  0  0  0  0
  -16.5355  -29.9110   23.6338 C   0  0  0  0  0  0
  -16.7284  -28.6527   23.0356 C   0  0  0  0  0  0
  -26.4577  -31.6517   25.0673 C   0  0  0  0  0  0
  -25.3762  -31.3708   26.1357 C   0  0  0  0  0  0
  -27.0411  -30.2902   24.6220 C   0  0  0  0  0  0
  -27.6098  -32.4277   25.7482 C   0  0  0  0  0  0
  -27.5567  -37.1771   24.8473 C   0  0  0  0  0  0
  -21.4236  -29.3045   22.3642 N   0  0  0  0  0  0
  -26.4279  -37.3728   23.9410 N   0  0  0  0  0  0
  -24.7138  -31.0304   22.0898 N   0  0  0  0  0  0
  -23.4189  -28.8133   23.3074 O   0  0  0  0  0  0
  -28.3255  -26.2541   20.0801 O   0  0  0  0  0  0
  -26.5665  -34.8908   22.4609 O   0  0  0  0  0  0
  -23.5570  -32.1325   23.7117 O   0  0  0  0  0  0
  -30.5891  -20.1566   19.7591 C   0  0  0  0  0  0
  -29.7656  -19.0607   20.1705 C   0  0  0  0  0  0
  -28.4669  -19.5831   20.4797 C   0  0  0  0  0  0
  -28.9597  -21.8860   19.9298 C   0  0  0  0  0  0
  -27.3895  -18.6686   21.0187 C   0  0  0  0  0  0
  -30.4352  -17.5473   20.2883 C   0  0  0  0  0  0
  -28.5035  -23.4182   19.5037 C   0  0  0  0  0  0
  -28.2651  -24.7562   20.4714 C   0  0  0  0  0  0
  -30.2084  -21.4786   19.6422 N   0  0  0  0  0  0
  -28.0939  -20.9224   20.3393 N   0  0  0  0  0  0
  -29.8542  -16.0977   20.4368 N   0  0  0  0  0  0
  -31.4550  -12.6769   19.1666 H   0  0  0  0  0  0
  -30.3885  -11.5895   20.0125 H   0  0  0  0  0  0
  -29.8095  -11.7158   17.5600 H   0  0  0  0  0  0
  -29.5982  -13.4484   17.6805 H   0  0  0  0  0  0
  -27.9285  -11.2663   18.9639 H   0  0  0  0  0  0
  -27.3677  -12.4445   17.8049 H   0  0  0  0  0  0
  -27.5854  -14.2448   19.4025 H   0  0  0  0  0  0
  -28.7344  -12.3015   21.4601 H   0  0  0  0  0  0
  -28.3683  -13.9887   21.7344 H   0  0  0  0  0  0
  -25.2726   -9.5671   22.4769 H   0  0  0  0  0  0
  -23.9991   -7.4617   22.7453 H   0  0  0  0  0  0
  -21.0829   -8.8719   19.8972 H   0  0  0  0  0  0
  -22.3619  -10.9649   19.6177 H   0  0  0  0  0  0
  -21.2013   -7.6117   23.9696 H   0  0  0  0  0  0
  -21.1503   -6.0503   25.9074 H   0  0  0  0  0  0
  -22.0598   -2.7578   23.2845 H   0  0  0  0  0  0
  -22.4024  -11.9906   22.4922 H   0  0  0  0  0  0
  -21.1057  -13.1242   22.2660 H   0  0  0  0  0  0
  -24.6305  -15.8377   20.5121 H   0  0  0  0  0  0
  -26.2434  -15.6278   20.0485 H   0  0  0  0  0  0
  -26.7283  -32.5266   23.0946 H   0  0  0  0  0  0
  -25.0168  -33.9577   25.0323 H   0  0  0  0  0  0
  -22.7430  -31.2866   21.3835 H   0  0  0  0  0  0
  -23.3767  -35.9550   23.3289 H   0  0  0  0  0  0
  -24.3566  -36.8858   22.2042 H   0  0  0  0  0  0
  -23.7269  -37.6430   23.6665 H   0  0  0  0  0  0
  -26.1429  -31.4681   20.5979 H   0  0  0  0  0  0
  -26.8669  -30.7704   22.0187 H   0  0  0  0  0  0
  -28.1381  -28.8366   21.1868 H   0  0  0  0  0  0
  -25.9426  -25.8178   19.0310 H   0  0  0  0  0  0
  -23.9617  -27.2588   19.0298 H   0  0  0  0  0  0
  -23.8021  -30.5543   19.4012 H   0  0  0  0  0  0
  -22.7740  -29.2287   19.8529 H   0  0  0  0  0  0
  -25.1327  -36.1798   25.0792 H   0  0  0  0  0  0
  -20.9971  -28.3326   24.1396 H   0  0  0  0  0  0
  -20.5747  -26.2344   23.3630 H   0  0  0  0  0  0
  -21.6658  -26.7513   22.1190 H   0  0  0  0  0  0
  -19.6944  -25.6324   21.1263 H   0  0  0  0  0  0
  -19.6705  -27.3219   20.6761 H   0  0  0  0  0  0
  -17.4224  -26.6707   21.4024 H   0  0  0  0  0  0
  -18.0337  -26.0105   22.9037 H   0  0  0  0  0  0
  -19.7951  -30.7325   24.2222 H   0  0  0  0  0  0
  -17.5029  -31.6280   24.5198 H   0  0  0  0  0  0
  -15.5373  -30.3009   23.7674 H   0  0  0  0  0  0
  -15.8681  -28.0851   22.7067 H   0  0  0  0  0  0
  -24.5993  -30.6995   25.7693 H   0  0  0  0  0  0
  -24.8903  -32.2879   26.4667 H   0  0  0  0  0  0
  -25.8053  -30.8985   27.0190 H   0  0  0  0  0  0
  -26.2989  -29.6640   24.1239 H   0  0  0  0  0  0
  -27.4050  -29.7189   25.4770 H   0  0  0  0  0  0
  -27.8900  -30.4127   23.9488 H   0  0  0  0  0  0
  -27.2680  -33.3602   26.1981 H   0  0  0  0  0  0
  -28.3970  -32.6778   25.0357 H   0  0  0  0  0  0
  -28.0688  -31.8441   26.5466 H   0  0  0  0  0  0
  -28.2592  -38.0060   24.7499 H   0  0  0  0  0  0
  -28.1053  -36.2587   24.6323 H   0  0  0  0  0  0
  -27.2265  -37.1447   25.8872 H   0  0  0  0  0  0
  -20.9463  -29.8696   21.6756 H   0  0  0  0  0  0
  -26.0132  -38.2789   24.1422 H   0  0  0  0  0  0
  -31.6178  -19.9630   19.5045 H   0  0  0  0  0  0
  -26.8106  -18.2337   20.2023 H   0  0  0  0  0  0
  -27.8302  -17.8657   21.6119 H   0  0  0  0  0  0
  -26.7065  -19.2171   21.6674 H   0  0  0  0  0  0
  -31.1488  -17.6290   21.1104 H   0  0  0  0  0  0
  -31.0761  -17.4797   19.4037 H   0  0  0  0  0  0
  -27.5865  -23.2946   18.9259 H   0  0  0  0  0  0
  -29.2418  -23.7255   18.7600 H   0  0  0  0  0  0
  -27.3550  -24.5873   21.0484 H   0  0  0  0  0  0
  -29.0643  -24.6871   21.2088 H   0  0  0  0  0  0
  -28.8550  -16.0003   20.5229 H   0  0  0  0  0  0
  1 25  1  0  0  0
  1 30  2  0  0  0
  1 81  1  0  0  0
  2  3  1  0  0  0
  2 25  1  0  0  0
  2 82  1  0  0  0
  2 83  1  0  0  0
  3  4  1  0  0  0
  3 84  1  0  0  0
  3 85  1  0  0  0
  4  5  1  0  0  0
  4 86  1  0  0  0
  4 87  1  0  0  0
  5  6  1  0  0  0
  5 26  1  0  0  0
  5 88  1  0  0  0
  6 25  1  0  0  0
  6 89  1  0  0  0
  6 90  1  0  0  0
  7  8  2  0  0  0
  7 26  1  0  0  0
  7 29  1  0  0  0
  8  9  1  0  0  0
  8 22  1  0  0  0
  9 10  1  0  0  0
  9 27  2  0  0  0
 10 11  2  0  0  0
 10 15  1  0  0  0
 11 12  1  0  0  0
 11 91  1  0  0  0
 12 13  2  0  0  0
 12 92  1  0  0  0
 13 14  1  0  0  0
 13 31  1  0  0  0
 14 15  2  0  0  0
 14 93  1  0  0  0
 15 94  1  0  0  0
 16 17  2  0  0  0
 16 21  1  0  0  0
 16 31  1  0  0  0
 17 18  1  0  0  0
 17 95  1  0  0  0
 18 19  2  0  0  0
 18 96  1  0  0  0
 19 20  1  0  0  0
 19 24  1  0  0  0
 20 21  2  0  0  0
 20 97  1  0  0  0
 21 23  1  0  0  0
 22 28  1  0  0  0
 22 32  2  0  0  0
 26 27  1  0  0  0
 28 98  1  0  0  0
 28 99  1  0  0  0
 29100  1  0  0  0
 29101  1  0  0  0
 33 34  1  0  0  0
 33 66  1  0  0  0
 33 70  2  0  0  0
 34 36  1  0  0  0
 34 59  1  0  0  0
 34102  1  0  0  0
 35 44  2  0  0  0
 35 45  1  0  0  0
 35 68  1  0  0  0
 36 56  1  0  0  0
 36103  1  0  0  0
 37 39  1  0  0  0
 37 47  1  0  0  0
 37 66  1  0  0  0
 37104  1  0  0  0
 38 43  2  0  0  0
 38 46  1  0  0  0
 38 47  1  0  0  0
 39 64  1  0  0  0
 39 67  2  0  0  0
 40 52  1  0  0  0
 40 53  2  0  0  0
 40 58  1  0  0  0
 41105  1  0  0  0
 41106  1  0  0  0
 41107  1  0  0  0
 41 48  1  0  0  0
 42 43  1  0  0  0
 42 66  1  0  0  0
 42108  1  0  0  0
 42109  1  0  0  0
 43 44  1  0  0  0
 44110  1  0  0  0
 45 46  2  0  0  0
 45111  1  0  0  0
 46112  1  0  0  0
 47113  1  0  0  0
 47114  1  0  0  0
 48 56  1  0  0  0
 48 65  1  0  0  0
 48115  1  0  0  0
 49 50  1  0  0  0
 49 53  1  0  0  0
 49 64  1  0  0  0
 49116  1  0  0  0
 50 51  1  0  0  0
 50117  1  0  0  0
 50118  1  0  0  0
 51 52  1  0  0  0
 51119  1  0  0  0
 51120  1  0  0  0
 52121  1  0  0  0
 52122  1  0  0  0
 53 54  1  0  0  0
 54 55  2  0  0  0
 54123  1  0  0  0
 55 57  1  0  0  0
 55124  1  0  0  0
 56 69  2  0  0  0
 57 58  2  0  0  0
 57125  1  0  0  0
 58126  1  0  0  0
 59 60  1  0  0  0
 59 61  1  0  0  0
 59 62  1  0  0  0
 60127  1  0  0  0
 60128  1  0  0  0
 60129  1  0  0  0
 61130  1  0  0  0
 61131  1  0  0  0
 61132  1  0  0  0
 62133  1  0  0  0
 62134  1  0  0  0
 62135  1  0  0  0
 63 65  1  0  0  0
 63136  1  0  0  0
 63137  1  0  0  0
 63138  1  0  0  0
 64139  1  0  0  0
 65140  1  0  0  0
 68 78  1  0  0  0
 71 72  2  0  0  0
 71 79  1  0  0  0
 71141  1  0  0  0
 72 73  1  0  0  0
 72 76  1  0  0  0
 73 75  1  0  0  0
 73 80  2  0  0  0
 74 77  1  0  0  0
 74 79  2  0  0  0
 74 80  1  0  0  0
 75142  1  0  0  0
 75143  1  0  0  0
 75144  1  0  0  0
 76 81  1  0  0  0
 76145  1  0  0  0
 76146  1  0  0  0
 77 78  1  0  0  0
 77147  1  0  0  0
 77148  1  0  0  0
 78149  1  0  0  0
 78150  1  0  0  0
 81151  1  0  0  0
M  ISO  4   1 100  68 101  78 101  81 100
M  END
> <chiral flag>
0

> <version>
0

> <s_m_source_file>
/data/baiqing/PycharmProjects/Reinvent-master-3.2/result/LINK_invent/BTK/process_docking_weight1_custom_sum_contain_oxygen_bond_distance_aromatic_linkinvent_7_9_3/rearranged_h_0039.sdf

> <i_m_source_file_index>
29

> <r_mmod_Potential_Energy-OPLS-2005>
89.1601867675781

> <r_mmod_Stretch_Energy-OPLS-2005>
210.335067749023

> <r_mmod_Bend_Energy-OPLS-2005>
291.961486816406

> <r_mmod_Torsional_Energy-OPLS-2005>
208.485092163086

> <r_mmod_Improper_Torsional_Energy-OPLS-2005>
6.76856470108032

> <r_mmod_Van_der_Waal_Energy-OPLS-2005>
132.62370300293

> <r_mmod_Electrostatic_Energy-OPLS-2005>
-673.799682617188

> <r_mmod_Solvation_Energy-OPLS-2005>
-241.433609008789

> <b_mmod_Minimization_Converged-OPLS-2005>
0

> <r_mmod_RMS_Derivative-OPLS-2005>
5.37333869934082

$$$$
30
                    3D
 Structure written by MMmdl.
173181  0  0  1  0            999 V2000
  -30.7174  -14.4001   20.6902 C   0  0  0  0  0  0
  -30.4359  -12.3182   19.3877 C   0  0  0  0  0  0
  -29.4830  -12.5249   18.1922 C   0  0  0  0  0  0
  -28.0136  -12.3525   18.6210 C   0  0  0  0  0  0
  -27.6635  -13.1859   19.8819 C   0  0  2  0  0  0
  -28.6976  -12.9181   20.9942 C   0  0  0  0  0  0
  -25.2620  -13.8115   20.5662 C   0  0  0  0  0  0
  -24.1835  -13.0431   20.9112 C   0  0  0  0  0  0
  -24.6351  -11.6877   20.8745 C   0  0  0  0  0  0
  -23.8997  -10.4298   21.0467 C   0  0  0  0  0  0
  -24.3561   -9.4209   21.9258 C   0  0  0  0  0  0
  -23.6244   -8.2237   22.0794 C   0  0  0  0  0  0
  -22.4232   -8.0293   21.3559 C   0  0  0  0  0  0
  -21.9867   -9.0285   20.4664 C   0  0  0  0  0  0
  -22.7173  -10.2162   20.3093 C   0  0  0  0  0  0
  -21.6865   -6.0724   22.5278 C   0  0  0  0  0  0
  -21.4030   -6.5631   23.8216 C   0  0  0  0  0  0
  -21.3654   -5.6779   24.9187 C   0  0  0  0  0  0
  -21.6033   -4.3039   24.7229 C   0  0  0  0  0  0
  -21.8805   -3.8132   23.4366 C   0  0  0  0  0  0
  -21.9183   -4.6957   22.3412 C   0  0  0  0  0  0
  -22.7858  -13.5297   21.1814 C   0  0  0  0  0  0
  -22.1639   -4.2141   21.0995 F   0  0  0  0  0  0
  -21.5628   -3.4515   25.7744 F   0  0  0  0  0  0
  -30.0320  -13.2554   20.4484 N   0  0  0  0  0  0
  -26.3013  -12.9228   20.3375 N   0  0  0  0  0  0
  -25.9266  -11.6400   20.5788 N   0  0  0  0  0  0
  -22.0446  -12.8356   22.0372 N   0  0  0  0  0  0
  -25.4462  -15.1837   20.4074 N   0  0  0  0  0  0
  -31.8013  -14.6736   20.1607 O   0  0  0  0  0  0
  -21.6618   -6.8873   21.4242 O   0  0  0  0  0  0
  -22.3589  -14.5625   20.6657 O   0  0  0  0  0  0
  -24.6243  -31.8694   23.2090 C   0  0  0  0  0  0
  -25.9150  -32.4777   23.8392 C   0  0  1  0  0  0
  -27.2101  -27.3791   20.0912 C   0  0  0  0  0  0
  -25.6004  -33.8579   24.2337 N   0  0  0  0  0  0
  -23.4096  -30.5108   21.5404 C   0  0  2  0  0  0
  -24.8501  -28.9806   20.0986 C   0  0  0  0  0  0
  -22.7424  -29.4755   22.4782 C   0  0  0  0  0  0
  -18.0297  -28.1367   22.8434 C   0  0  0  0  0  0
  -24.1500  -36.7308   23.2632 C   0  0  0  0  0  0
  -25.9507  -30.8058   21.3840 C   0  0  0  0  0  0
  -26.0128  -29.4449   20.7235 C   0  0  0  0  0  0
  -27.1907  -28.6502   20.7304 C   0  0  0  0  0  0
  -26.0102  -26.9577   19.4570 C   0  0  0  0  0  0
  -24.8475  -27.7372   19.4581 C   0  0  0  0  0  0
  -23.6246  -29.8683   20.1472 C   0  0  0  0  0  0
  -25.4107  -36.3078   24.0350 C   0  0  1  0  0  0
  -20.5904  -28.3725   23.1170 C   0  0  2  0  0  0
  -20.6784  -26.9434   22.5334 C   0  0  0  0  0  0
  -19.5778  -26.6372   21.5135 C   0  0  0  0  0  0
  -18.1958  -26.7901   22.1572 C   0  0  0  0  0  0
  -19.1550  -28.8844   23.2824 C   0  0  0  0  0  0
  -18.9492  -30.1431   23.8851 C   0  0  0  0  0  0
  -17.6492  -30.6564   24.0558 C   0  0  0  0  0  0
  -25.9065  -34.9446   23.5127 C   0  0  0  0  0  0
  -16.5380  -29.9054   23.6324 C   0  0  0  0  0  0
  -16.7285  -28.6497   23.0299 C   0  0  0  0  0  0
  -26.4552  -31.6525   25.0728 C   0  0  0  0  0  0
  -25.3835  -31.3608   26.1485 C   0  0  0  0  0  0
  -27.0391  -30.2946   24.6145 C   0  0  0  0  0  0
  -27.6133  -32.4212   25.7494 C   0  0  0  0  0  0
  -27.5571  -37.1826   24.8463 C   0  0  0  0  0  0
  -21.4143  -29.3137   22.3574 N   0  0  0  0  0  0
  -26.4284  -37.3781   23.9415 N   0  0  0  0  0  0
  -24.6784  -31.0796   22.0993 N   0  0  0  0  0  0
  -23.4164  -28.8227   23.2796 O   0  0  0  0  0  0
  -28.3549  -26.5764   20.0998 O   0  0  0  0  0  0
  -26.5577  -34.8937   22.4659 O   0  0  0  0  0  0
  -23.5459  -32.1464   23.7506 O   0  0  0  0  0  0
  -30.2186  -24.0305   20.7058 C   0  0  0  0  0  0
  -30.5342  -22.4597   18.4779 C   0  0  0  0  0  0
  -29.3056  -24.2098   19.6426 C   0  0  0  0  0  0
  -29.4282  -23.3211   18.5370 C   0  0  0  0  0  0
  -31.2302  -23.0496   20.5951 C   0  0  0  0  0  0
  -26.3485  -25.0754   15.1219 C   0  0  0  0  0  0
  -28.3398  -23.1335   17.4851 C   0  0  0  0  0  0
  -28.1220  -25.1854   19.7556 C   0  0  0  0  0  0
  -32.1265  -22.6570   21.7640 C   0  0  0  0  0  0
  -27.2315  -23.8422   15.3300 C   0  0  0  0  0  0
  -28.4291  -24.0690   16.2746 C   0  0  0  0  0  0
  -31.6377  -21.3765   22.4935 C   0  0  0  0  0  0
  -31.8996  -20.0306   21.7657 C   0  0  0  0  0  0
  -31.1661  -18.8299   22.4049 C   0  0  0  0  0  0
  -31.0905  -17.5687   21.5157 C   0  0  0  0  0  0
  -30.6788  -16.3263   22.3377 C   0  0  0  0  0  0
  -31.4282  -22.3369   19.4697 N   0  0  0  0  0  0
  -30.1173  -15.2180   21.5678 N   0  0  0  0  0  0
  -31.4731  -12.4547   19.0715 H   0  0  0  0  0  0
  -30.3704  -11.2967   19.7658 H   0  0  0  0  0  0
  -29.7272  -11.8241   17.3914 H   0  0  0  0  0  0
  -29.6210  -13.5295   17.7862 H   0  0  0  0  0  0
  -27.8415  -11.2955   18.8313 H   0  0  0  0  0  0
  -27.3433  -12.6039   17.8030 H   0  0  0  0  0  0
  -27.7259  -14.2399   19.6071 H   0  0  0  0  0  0
  -28.6825  -11.8582   21.2621 H   0  0  0  0  0  0
  -28.4393  -13.4441   21.9156 H   0  0  0  0  0  0
  -25.2729   -9.5705   22.4807 H   0  0  0  0  0  0
  -23.9966   -7.4644   22.7521 H   0  0  0  0  0  0
  -21.0774   -8.8804   19.8988 H   0  0  0  0  0  0
  -22.3654  -10.9722   19.6176 H   0  0  0  0  0  0
  -21.2051   -7.6143   23.9721 H   0  0  0  0  0  0
  -21.1473   -6.0526   25.9093 H   0  0  0  0  0  0
  -22.0592   -2.7600   23.2863 H   0  0  0  0  0  0
  -22.3959  -11.9984   22.4761 H   0  0  0  0  0  0
  -21.1144  -13.1547   22.2614 H   0  0  0  0  0  0
  -24.6993  -15.8602   20.5410 H   0  0  0  0  0  0
  -26.3094  -15.6046   20.0843 H   0  0  0  0  0  0
  -26.7176  -32.5462   23.1111 H   0  0  0  0  0  0
  -25.0278  -33.9709   25.0563 H   0  0  0  0  0  0
  -22.7048  -31.3364   21.4111 H   0  0  0  0  0  0
  -23.3755  -35.9651   23.3299 H   0  0  0  0  0  0
  -24.3599  -36.8925   22.2043 H   0  0  0  0  0  0
  -23.7287  -37.6546   23.6621 H   0  0  0  0  0  0
  -26.1098  -31.5708   20.6230 H   0  0  0  0  0  0
  -26.8246  -30.8245   22.0225 H   0  0  0  0  0  0
  -28.0711  -29.0057   21.2451 H   0  0  0  0  0  0
  -25.8948  -26.0280   18.9213 H   0  0  0  0  0  0
  -23.9625  -27.3835   18.9462 H   0  0  0  0  0  0
  -23.7623  -30.6663   19.4135 H   0  0  0  0  0  0
  -22.7363  -29.3203   19.8205 H   0  0  0  0  0  0
  -25.1282  -36.1938   25.0849 H   0  0  0  0  0  0
  -21.0055  -28.3340   24.1263 H   0  0  0  0  0  0
  -20.5605  -26.2373   23.3560 H   0  0  0  0  0  0
  -21.6654  -26.7372   22.1194 H   0  0  0  0  0  0
  -19.6950  -25.6276   21.1172 H   0  0  0  0  0  0
  -19.6705  -27.3159   20.6645 H   0  0  0  0  0  0
  -17.4195  -26.6573   21.4009 H   0  0  0  0  0  0
  -18.0437  -26.0056   22.9000 H   0  0  0  0  0  0
  -19.7986  -30.7247   24.2193 H   0  0  0  0  0  0
  -17.5069  -31.6246   24.5177 H   0  0  0  0  0  0
  -15.5385  -30.2964   23.7680 H   0  0  0  0  0  0
  -15.8680  -28.0839   22.6972 H   0  0  0  0  0  0
  -24.6060  -30.6866   25.7869 H   0  0  0  0  0  0
  -24.8981  -32.2734   26.4935 H   0  0  0  0  0  0
  -25.8285  -30.8828   27.0220 H   0  0  0  0  0  0
  -26.2936  -29.6661   24.1248 H   0  0  0  0  0  0
  -27.4190  -29.7221   25.4618 H   0  0  0  0  0  0
  -27.8778  -30.4240   23.9301 H   0  0  0  0  0  0
  -27.2769  -33.3514   26.2072 H   0  0  0  0  0  0
  -28.3961  -32.6731   25.0323 H   0  0  0  0  0  0
  -28.0745  -31.8292   26.5412 H   0  0  0  0  0  0
  -28.2593  -38.0120   24.7494 H   0  0  0  0  0  0
  -28.1069  -36.2654   24.6280 H   0  0  0  0  0  0
  -27.2295  -37.1469   25.8873 H   0  0  0  0  0  0
  -20.9236  -29.8988   21.6946 H   0  0  0  0  0  0
  -26.0175  -38.2875   24.1386 H   0  0  0  0  0  0
  -30.0993  -24.5969   21.6190 H   0  0  0  0  0  0
  -30.6621  -21.7857   17.6426 H   0  0  0  0  0  0
  -25.5136  -24.8486   14.4579 H   0  0  0  0  0  0
  -26.9184  -25.8902   14.6759 H   0  0  0  0  0  0
  -25.9287  -25.4237   16.0659 H   0  0  0  0  0  0
  -27.3634  -23.2143   17.9600 H   0  0  0  0  0  0
  -28.3763  -22.1043   17.1204 H   0  0  0  0  0  0
  -27.3994  -24.7566   20.4520 H   0  0  0  0  0  0
  -27.6870  -25.1782   18.7659 H   0  0  0  0  0  0
  -32.1552  -23.4846   22.4736 H   0  0  0  0  0  0
  -33.1507  -22.5255   21.4102 H   0  0  0  0  0  0
  -27.6065  -23.5068   14.3652 H   0  0  0  0  0  0
  -26.6009  -23.0291   15.6928 H   0  0  0  0  0  0
  -29.3546  -23.8724   15.7301 H   0  0  0  0  0  0
  -28.4841  -25.1116   16.5918 H   0  0  0  0  0  0
  -30.5772  -21.5007   22.7052 H   0  0  0  0  0  0
  -32.1232  -21.3310   23.4688 H   0  0  0  0  0  0
  -32.9740  -19.8451   21.7486 H   0  0  0  0  0  0
  -31.5884  -20.1044   20.7289 H   0  0  0  0  0  0
  -30.1413  -19.1233   22.6253 H   0  0  0  0  0  0
  -31.6079  -18.6027   23.3764 H   0  0  0  0  0  0
  -32.0478  -17.3838   21.0203 H   0  0  0  0  0  0
  -30.3749  -17.7594   20.7111 H   0  0  0  0  0  0
  -29.9149  -16.5993   23.0684 H   0  0  0  0  0  0
  -31.5251  -15.9531   22.9183 H   0  0  0  0  0  0
  -29.1859  -14.9315   21.8420 H   0  0  0  0  0  0
  1 25  1  0  0  0
  1 30  2  0  0  0
  1 88  1  0  0  0
  2  3  1  0  0  0
  2 25  1  0  0  0
  2 89  1  0  0  0
  2 90  1  0  0  0
  3  4  1  0  0  0
  3 91  1  0  0  0
  3 92  1  0  0  0
  4  5  1  0  0  0
  4 93  1  0  0  0
  4 94  1  0  0  0
  5  6  1  0  0  0
  5 26  1  0  0  0
  5 95  1  0  0  0
  6 25  1  0  0  0
  6 96  1  0  0  0
  6 97  1  0  0  0
  7  8  2  0  0  0
  7 26  1  0  0  0
  7 29  1  0  0  0
  8  9  1  0  0  0
  8 22  1  0  0  0
  9 10  1  0  0  0
  9 27  2  0  0  0
 10 11  2  0  0  0
 10 15  1  0  0  0
 11 12  1  0  0  0
 11 98  1  0  0  0
 12 13  2  0  0  0
 12 99  1  0  0  0
 13 14  1  0  0  0
 13 31  1  0  0  0
 14 15  2  0  0  0
 14100  1  0  0  0
 15101  1  0  0  0
 16 17  2  0  0  0
 16 21  1  0  0  0
 16 31  1  0  0  0
 17 18  1  0  0  0
 17102  1  0  0  0
 18 19  2  0  0  0
 18103  1  0  0  0
 19 20  1  0  0  0
 19 24  1  0  0  0
 20 21  2  0  0  0
 20104  1  0  0  0
 21 23  1  0  0  0
 22 28  1  0  0  0
 22 32  2  0  0  0
 26 27  1  0  0  0
 28105  1  0  0  0
 28106  1  0  0  0
 29107  1  0  0  0
 29108  1  0  0  0
 33 34  1  0  0  0
 33 66  1  0  0  0
 33 70  2  0  0  0
 34 36  1  0  0  0
 34 59  1  0  0  0
 34109  1  0  0  0
 35 44  2  0  0  0
 35 45  1  0  0  0
 35 68  1  0  0  0
 36 56  1  0  0  0
 36110  1  0  0  0
 37 39  1  0  0  0
 37 47  1  0  0  0
 37 66  1  0  0  0
 37111  1  0  0  0
 38 43  2  0  0  0
 38 46  1  0  0  0
 38 47  1  0  0  0
 39 64  1  0  0  0
 39 67  2  0  0  0
 40 52  1  0  0  0
 40 53  2  0  0  0
 40 58  1  0  0  0
 41112  1  0  0  0
 41113  1  0  0  0
 41114  1  0  0  0
 41 48  1  0  0  0
 42 43  1  0  0  0
 42 66  1  0  0  0
 42115  1  0  0  0
 42116  1  0  0  0
 43 44  1  0  0  0
 44117  1  0  0  0
 45 46  2  0  0  0
 45118  1  0  0  0
 46119  1  0  0  0
 47120  1  0  0  0
 47121  1  0  0  0
 48 56  1  0  0  0
 48 65  1  0  0  0
 48122  1  0  0  0
 49 50  1  0  0  0
 49 53  1  0  0  0
 49 64  1  0  0  0
 49123  1  0  0  0
 50 51  1  0  0  0
 50124  1  0  0  0
 50125  1  0  0  0
 51 52  1  0  0  0
 51126  1  0  0  0
 51127  1  0  0  0
 52128  1  0  0  0
 52129  1  0  0  0
 53 54  1  0  0  0
 54 55  2  0  0  0
 54130  1  0  0  0
 55 57  1  0  0  0
 55131  1  0  0  0
 56 69  2  0  0  0
 57 58  2  0  0  0
 57132  1  0  0  0
 58133  1  0  0  0
 59 60  1  0  0  0
 59 61  1  0  0  0
 59 62  1  0  0  0
 60134  1  0  0  0
 60135  1  0  0  0
 60136  1  0  0  0
 61137  1  0  0  0
 61138  1  0  0  0
 61139  1  0  0  0
 62140  1  0  0  0
 62141  1  0  0  0
 62142  1  0  0  0
 63 65  1  0  0  0
 63143  1  0  0  0
 63144  1  0  0  0
 63145  1  0  0  0
 64146  1  0  0  0
 65147  1  0  0  0
 68 78  1  0  0  0
 71 73  2  0  0  0
 71 75  1  0  0  0
 71148  1  0  0  0
 72 74  2  0  0  0
 72 87  1  0  0  0
 72149  1  0  0  0
 73 74  1  0  0  0
 73 78  1  0  0  0
 74 77  1  0  0  0
 75 79  1  0  0  0
 75 87  2  0  0  0
 76 80  1  0  0  0
 76150  1  0  0  0
 76151  1  0  0  0
 76152  1  0  0  0
 77 81  1  0  0  0
 77153  1  0  0  0
 77154  1  0  0  0
 78155  1  0  0  0
 78156  1  0  0  0
 79 82  1  0  0  0
 79157  1  0  0  0
 79158  1  0  0  0
 80 81  1  0  0  0
 80159  1  0  0  0
 80160  1  0  0  0
 81161  1  0  0  0
 81162  1  0  0  0
 82 83  1  0  0  0
 82163  1  0  0  0
 82164  1  0  0  0
 83 84  1  0  0  0
 83165  1  0  0  0
 83166  1  0  0  0
 84 85  1  0  0  0
 84167  1  0  0  0
 84168  1  0  0  0
 85 86  1  0  0  0
 85169  1  0  0  0
 85170  1  0  0  0
 86 88  1  0  0  0
 86171  1  0  0  0
 86172  1  0  0  0
 88173  1  0  0  0
M  ISO  4   1 100  68 101  78 101  88 100
M  END
> <chiral flag>
0

> <version>
0

> <s_m_source_file>
/data/baiqing/PycharmProjects/Reinvent-master-3.2/result/LINK_invent/BTK/process_docking_weight1_custom_sum_contain_oxygen_bond_distance_aromatic_linkinvent_7_9_3/rearranged_h_0039.sdf

> <i_m_source_file_index>
30

> <r_mmod_Potential_Energy-OPLS-2005>
-132.61701965332

> <r_mmod_Stretch_Energy-OPLS-2005>
42.5941581726074

> <r_mmod_Bend_Energy-OPLS-2005>
112.39372253418

> <r_mmod_Torsional_Energy-OPLS-2005>
220.900268554688

> <r_mmod_Improper_Torsional_Energy-OPLS-2005>
3.16648387908936

> <r_mmod_Van_der_Waal_Energy-OPLS-2005>
170.058944702148

> <r_mmod_Electrostatic_Energy-OPLS-2005>
-482.712127685547

> <r_mmod_Solvation_Energy-OPLS-2005>
-217.926345825195

> <b_mmod_Minimization_Converged-OPLS-2005>
0

> <r_mmod_RMS_Derivative-OPLS-2005>
7.4275484085083

$$$$
31
                    3D
 Structure written by MMmdl.
156164  0  0  1  0            999 V2000
  -30.6781  -14.5218   20.5567 C   0  0  0  0  0  0
  -30.4250  -12.3345   19.4310 C   0  0  0  0  0  0
  -29.4965  -12.5013   18.2102 C   0  0  0  0  0  0
  -28.0182  -12.3566   18.6232 C   0  0  0  0  0  0
  -27.6563  -13.2097   19.8688 C   0  0  2  0  0  0
  -28.6982  -13.0186   20.9930 C   0  0  0  0  0  0
  -25.2568  -13.8165   20.5681 C   0  0  0  0  0  0
  -24.1825  -13.0438   20.9182 C   0  0  0  0  0  0
  -24.6386  -11.6906   20.8735 C   0  0  0  0  0  0
  -23.9054  -10.4294   21.0407 C   0  0  0  0  0  0
  -24.3608   -9.4210   21.9184 C   0  0  0  0  0  0
  -23.6284   -8.2244   22.0754 C   0  0  0  0  0  0
  -22.4269   -8.0280   21.3543 C   0  0  0  0  0  0
  -21.9902   -9.0256   20.4648 C   0  0  0  0  0  0
  -22.7228  -10.2135   20.3056 C   0  0  0  0  0  0
  -21.6852   -6.0733   22.5280 C   0  0  0  0  0  0
  -21.4016   -6.5637   23.8214 C   0  0  0  0  0  0
  -21.3659   -5.6789   24.9173 C   0  0  0  0  0  0
  -21.6044   -4.3052   24.7224 C   0  0  0  0  0  0
  -21.8818   -3.8144   23.4346 C   0  0  0  0  0  0
  -21.9194   -4.6961   22.3402 C   0  0  0  0  0  0
  -22.7849  -13.5240   21.1841 C   0  0  0  0  0  0
  -22.1660   -4.2147   21.0979 F   0  0  0  0  0  0
  -21.5628   -3.4537   25.7736 F   0  0  0  0  0  0
  -30.0210  -13.3349   20.4336 N   0  0  0  0  0  0
  -26.2994  -12.9336   20.3337 N   0  0  0  0  0  0
  -25.9310  -11.6495   20.5758 N   0  0  0  0  0  0
  -22.0484  -12.8244   22.0400 N   0  0  0  0  0  0
  -25.4296  -15.1885   20.4101 N   0  0  0  0  0  0
  -31.8245  -14.6871   20.1305 O   0  0  0  0  0  0
  -21.6635   -6.8876   21.4240 O   0  0  0  0  0  0
  -22.3542  -14.5546   20.6684 O   0  0  0  0  0  0
  -24.6177  -31.8649   23.2064 C   0  0  0  0  0  0
  -25.9058  -32.4806   23.8368 C   0  0  1  0  0  0
  -27.2329  -27.3957   20.0994 C   0  0  0  0  0  0
  -25.5899  -33.8604   24.2301 N   0  0  0  0  0  0
  -23.4064  -30.4875   21.5480 C   0  0  2  0  0  0
  -24.8507  -28.9454   20.1147 C   0  0  0  0  0  0
  -22.7421  -29.4645   22.4974 C   0  0  0  0  0  0
  -18.0272  -28.1376   22.8491 C   0  0  0  0  0  0
  -24.1487  -36.7309   23.2638 C   0  0  0  0  0  0
  -25.9379  -30.8189   21.3631 C   0  0  0  0  0  0
  -26.0125  -29.4502   20.7094 C   0  0  0  0  0  0
  -27.2033  -28.6840   20.6946 C   0  0  0  0  0  0
  -26.0461  -26.9096   19.5049 C   0  0  0  0  0  0
  -24.8643  -27.6767   19.5098 C   0  0  0  0  0  0
  -23.6152  -29.8174   20.1634 C   0  0  0  0  0  0
  -25.4110  -36.3102   24.0334 C   0  0  1  0  0  0
  -20.5865  -28.3667   23.1311 C   0  0  2  0  0  0
  -20.6763  -26.9401   22.5414 C   0  0  0  0  0  0
  -19.5740  -26.6383   21.5213 C   0  0  0  0  0  0
  -18.1920  -26.7921   22.1627 C   0  0  0  0  0  0
  -19.1521  -28.8838   23.2897 C   0  0  0  0  0  0
  -18.9448  -30.1446   23.8908 C   0  0  0  0  0  0
  -17.6450  -30.6582   24.0565 C   0  0  0  0  0  0
  -25.9039  -34.9468   23.5116 C   0  0  0  0  0  0
  -16.5342  -29.9085   23.6326 C   0  0  0  0  0  0
  -16.7262  -28.6500   23.0349 C   0  0  0  0  0  0
  -26.4477  -31.6596   25.0711 C   0  0  0  0  0  0
  -25.3738  -31.3711   26.1457 C   0  0  0  0  0  0
  -27.0312  -30.3036   24.6107 C   0  0  0  0  0  0
  -27.6045  -32.4323   25.7477 C   0  0  0  0  0  0
  -27.5580  -37.1810   24.8465 C   0  0  0  0  0  0
  -21.4147  -29.3034   22.3718 N   0  0  0  0  0  0
  -26.4294  -37.3788   23.9406 N   0  0  0  0  0  0
  -24.6725  -31.0725   22.0974 N   0  0  0  0  0  0
  -23.4184  -28.8191   23.3028 O   0  0  0  0  0  0
  -28.4179  -26.6747   20.1208 O   0  0  0  0  0  0
  -26.5607  -34.8929   22.4682 O   0  0  0  0  0  0
  -23.5364  -32.1411   23.7444 O   0  0  0  0  0  0
  -27.9191  -21.9151   19.5972 C   0  0  0  0  0  0
  -28.4153  -22.8029   20.5975 C   0  0  0  0  0  0
  -29.2687  -21.9927   21.3146 C   0  0  0  0  0  0
  -30.1233  -22.3251   22.4966 C   0  0  0  0  0  0
  -28.0380  -24.2764   20.8333 C   0  0  0  0  0  0
  -29.4642  -18.0953   20.8173 C   0  0  0  0  0  0
  -30.0276  -19.5172   21.1557 C   0  0  0  0  0  0
  -30.4361  -16.9483   21.2554 C   0  0  0  0  0  0
  -28.4797  -25.2800   19.7277 C   0  0  0  0  0  0
  -28.4126  -20.6819   19.6944 N   0  0  0  0  0  0
  -29.2320  -20.7062   20.7705 N   0  0  0  0  0  0
  -29.9549  -15.5616   21.0399 N   0  0  0  0  0  0
  -31.4689  -12.4421   19.1302 H   0  0  0  0  0  0
  -30.3386  -11.3293   19.8467 H   0  0  0  0  0  0
  -29.7443  -11.7641   17.4455 H   0  0  0  0  0  0
  -29.6571  -13.4800   17.7558 H   0  0  0  0  0  0
  -27.8382  -11.3019   18.8337 H   0  0  0  0  0  0
  -27.3669  -12.6141   17.7875 H   0  0  0  0  0  0
  -27.6917  -14.2531   19.5556 H   0  0  0  0  0  0
  -28.6874  -11.9883   21.3517 H   0  0  0  0  0  0
  -28.4568  -13.6340   21.8609 H   0  0  0  0  0  0
  -25.2754   -9.5690   22.4756 H   0  0  0  0  0  0
  -23.9996   -7.4640   22.7475 H   0  0  0  0  0  0
  -21.0833   -8.8775   19.8956 H   0  0  0  0  0  0
  -22.3688  -10.9672   19.6167 H   0  0  0  0  0  0
  -21.2010   -7.6146   23.9717 H   0  0  0  0  0  0
  -21.1480   -6.0517   25.9076 H   0  0  0  0  0  0
  -22.0599   -2.7607   23.2845 H   0  0  0  0  0  0
  -22.4088  -11.9906   22.4803 H   0  0  0  0  0  0
  -21.1104  -13.1286   22.2598 H   0  0  0  0  0  0
  -24.6645  -15.8448   20.5228 H   0  0  0  0  0  0
  -26.2816  -15.6280   20.0851 H   0  0  0  0  0  0
  -26.7126  -32.5505   23.1126 H   0  0  0  0  0  0
  -25.0054  -33.9762   25.0449 H   0  0  0  0  0  0
  -22.6966  -31.3052   21.4073 H   0  0  0  0  0  0
  -23.3746  -35.9646   23.3311 H   0  0  0  0  0  0
  -24.3573  -36.8917   22.2049 H   0  0  0  0  0  0
  -23.7250  -37.6520   23.6650 H   0  0  0  0  0  0
  -26.0543  -31.5838   20.5940 H   0  0  0  0  0  0
  -26.8240  -30.8714   21.9839 H   0  0  0  0  0  0
  -28.1018  -29.0736   21.1527 H   0  0  0  0  0  0
  -26.0071  -25.9385   19.0359 H   0  0  0  0  0  0
  -23.9683  -27.2817   19.0509 H   0  0  0  0  0  0
  -23.7270  -30.5910   19.4029 H   0  0  0  0  0  0
  -22.7376  -29.2400   19.8679 H   0  0  0  0  0  0
  -25.1292  -36.1959   25.0828 H   0  0  0  0  0  0
  -20.9957  -28.3235   24.1431 H   0  0  0  0  0  0
  -20.5671  -26.2275   23.3603 H   0  0  0  0  0  0
  -21.6634  -26.7449   22.1201 H   0  0  0  0  0  0
  -19.6901  -25.6297   21.1235 H   0  0  0  0  0  0
  -19.6679  -27.3202   20.6750 H   0  0  0  0  0  0
  -17.4190  -26.6667   21.4030 H   0  0  0  0  0  0
  -18.0326  -26.0062   22.9021 H   0  0  0  0  0  0
  -19.7925  -30.7257   24.2283 H   0  0  0  0  0  0
  -17.5006  -31.6264   24.5163 H   0  0  0  0  0  0
  -15.5344  -30.2990   23.7640 H   0  0  0  0  0  0
  -15.8661  -28.0825   22.7058 H   0  0  0  0  0  0
  -24.5896  -30.7079   25.7789 H   0  0  0  0  0  0
  -24.8950  -32.2873   26.4924 H   0  0  0  0  0  0
  -25.8082  -30.8858   27.0204 H   0  0  0  0  0  0
  -26.2861  -29.6793   24.1158 H   0  0  0  0  0  0
  -27.4071  -29.7278   25.4574 H   0  0  0  0  0  0
  -27.8700  -30.4348   23.9267 H   0  0  0  0  0  0
  -27.2652  -33.3605   26.2089 H   0  0  0  0  0  0
  -28.3836  -32.6915   25.0297 H   0  0  0  0  0  0
  -28.0738  -31.8432   26.5367 H   0  0  0  0  0  0
  -28.2608  -38.0096   24.7503 H   0  0  0  0  0  0
  -28.1066  -36.2629   24.6302 H   0  0  0  0  0  0
  -27.2294  -37.1478   25.8867 H   0  0  0  0  0  0
  -20.9305  -29.8759   21.6942 H   0  0  0  0  0  0
  -26.0181  -38.2867   24.1402 H   0  0  0  0  0  0
  -27.2084  -22.1283   18.8110 H   0  0  0  0  0  0
  -30.2986  -23.3979   22.5708 H   0  0  0  0  0  0
  -29.6481  -21.9977   23.4215 H   0  0  0  0  0  0
  -31.0988  -21.8445   22.4284 H   0  0  0  0  0  0
  -28.4582  -24.6219   21.7775 H   0  0  0  0  0  0
  -26.9595  -24.3671   20.9647 H   0  0  0  0  0  0
  -28.4978  -17.9694   21.3064 H   0  0  0  0  0  0
  -29.2808  -18.0215   19.7450 H   0  0  0  0  0  0
  -31.0106  -19.6301   20.6976 H   0  0  0  0  0  0
  -30.1919  -19.5660   22.2326 H   0  0  0  0  0  0
  -30.6480  -17.0502   22.3209 H   0  0  0  0  0  0
  -31.3922  -17.0974   20.7516 H   0  0  0  0  0  0
  -27.9675  -25.0926   18.7842 H   0  0  0  0  0  0
  -29.5317  -25.0903   19.5130 H   0  0  0  0  0  0
  -29.0120  -15.3514   21.3317 H   0  0  0  0  0  0
  1 25  1  0  0  0
  1 30  2  0  0  0
  1 82  1  0  0  0
  2  3  1  0  0  0
  2 25  1  0  0  0
  2 83  1  0  0  0
  2 84  1  0  0  0
  3  4  1  0  0  0
  3 85  1  0  0  0
  3 86  1  0  0  0
  4  5  1  0  0  0
  4 87  1  0  0  0
  4 88  1  0  0  0
  5  6  1  0  0  0
  5 26  1  0  0  0
  5 89  1  0  0  0
  6 25  1  0  0  0
  6 90  1  0  0  0
  6 91  1  0  0  0
  7  8  2  0  0  0
  7 26  1  0  0  0
  7 29  1  0  0  0
  8  9  1  0  0  0
  8 22  1  0  0  0
  9 10  1  0  0  0
  9 27  2  0  0  0
 10 11  2  0  0  0
 10 15  1  0  0  0
 11 12  1  0  0  0
 11 92  1  0  0  0
 12 13  2  0  0  0
 12 93  1  0  0  0
 13 14  1  0  0  0
 13 31  1  0  0  0
 14 15  2  0  0  0
 14 94  1  0  0  0
 15 95  1  0  0  0
 16 17  2  0  0  0
 16 21  1  0  0  0
 16 31  1  0  0  0
 17 18  1  0  0  0
 17 96  1  0  0  0
 18 19  2  0  0  0
 18 97  1  0  0  0
 19 20  1  0  0  0
 19 24  1  0  0  0
 20 21  2  0  0  0
 20 98  1  0  0  0
 21 23  1  0  0  0
 22 28  1  0  0  0
 22 32  2  0  0  0
 26 27  1  0  0  0
 28 99  1  0  0  0
 28100  1  0  0  0
 29101  1  0  0  0
 29102  1  0  0  0
 33 34  1  0  0  0
 33 66  1  0  0  0
 33 70  2  0  0  0
 34 36  1  0  0  0
 34 59  1  0  0  0
 34103  1  0  0  0
 35 44  2  0  0  0
 35 45  1  0  0  0
 35 68  1  0  0  0
 36 56  1  0  0  0
 36104  1  0  0  0
 37 39  1  0  0  0
 37 47  1  0  0  0
 37 66  1  0  0  0
 37105  1  0  0  0
 38 43  2  0  0  0
 38 46  1  0  0  0
 38 47  1  0  0  0
 39 64  1  0  0  0
 39 67  2  0  0  0
 40 52  1  0  0  0
 40 53  2  0  0  0
 40 58  1  0  0  0
 41106  1  0  0  0
 41107  1  0  0  0
 41108  1  0  0  0
 41 48  1  0  0  0
 42 43  1  0  0  0
 42 66  1  0  0  0
 42109  1  0  0  0
 42110  1  0  0  0
 43 44  1  0  0  0
 44111  1  0  0  0
 45 46  2  0  0  0
 45112  1  0  0  0
 46113  1  0  0  0
 47114  1  0  0  0
 47115  1  0  0  0
 48 56  1  0  0  0
 48 65  1  0  0  0
 48116  1  0  0  0
 49 50  1  0  0  0
 49 53  1  0  0  0
 49 64  1  0  0  0
 49117  1  0  0  0
 50 51  1  0  0  0
 50118  1  0  0  0
 50119  1  0  0  0
 51 52  1  0  0  0
 51120  1  0  0  0
 51121  1  0  0  0
 52122  1  0  0  0
 52123  1  0  0  0
 53 54  1  0  0  0
 54 55  2  0  0  0
 54124  1  0  0  0
 55 57  1  0  0  0
 55125  1  0  0  0
 56 69  2  0  0  0
 57 58  2  0  0  0
 57126  1  0  0  0
 58127  1  0  0  0
 59 60  1  0  0  0
 59 61  1  0  0  0
 59 62  1  0  0  0
 60128  1  0  0  0
 60129  1  0  0  0
 60130  1  0  0  0
 61131  1  0  0  0
 61132  1  0  0  0
 61133  1  0  0  0
 62134  1  0  0  0
 62135  1  0  0  0
 62136  1  0  0  0
 63 65  1  0  0  0
 63137  1  0  0  0
 63138  1  0  0  0
 63139  1  0  0  0
 64140  1  0  0  0
 65141  1  0  0  0
 68 79  1  0  0  0
 71 72  1  0  0  0
 71 80  2  0  0  0
 71142  1  0  0  0
 72 73  2  0  0  0
 72 75  1  0  0  0
 73 74  1  0  0  0
 73 81  1  0  0  0
 74143  1  0  0  0
 74144  1  0  0  0
 74145  1  0  0  0
 75 79  1  0  0  0
 75146  1  0  0  0
 75147  1  0  0  0
 76 77  1  0  0  0
 76 78  1  0  0  0
 76148  1  0  0  0
 76149  1  0  0  0
 77 81  1  0  0  0
 77150  1  0  0  0
 77151  1  0  0  0
 78 82  1  0  0  0
 78152  1  0  0  0
 78153  1  0  0  0
 79154  1  0  0  0
 79155  1  0  0  0
 80 81  1  0  0  0
 82156  1  0  0  0
M  ISO  4   1 100  68 101  79 101  82 100
M  END
> <chiral flag>
0

> <version>
0

> <s_m_source_file>
/data/baiqing/PycharmProjects/Reinvent-master-3.2/result/LINK_invent/BTK/process_docking_weight1_custom_sum_contain_oxygen_bond_distance_aromatic_linkinvent_7_9_3/rearranged_h_0039.sdf

> <i_m_source_file_index>
31

> <r_mmod_Potential_Energy-OPLS-2005>
-116.753967285156

> <r_mmod_Stretch_Energy-OPLS-2005>
44.8975830078125

> <r_mmod_Bend_Energy-OPLS-2005>
112.003112792969

> <r_mmod_Torsional_Energy-OPLS-2005>
193.845108032227

> <r_mmod_Improper_Torsional_Energy-OPLS-2005>
3.484947681427

> <r_mmod_Van_der_Waal_Energy-OPLS-2005>
123.42049407959

> <r_mmod_Electrostatic_Energy-OPLS-2005>
-392.531829833984

> <r_mmod_Solvation_Energy-OPLS-2005>
-221.217239379883

> <b_mmod_Minimization_Converged-OPLS-2005>
0

> <r_mmod_RMS_Derivative-OPLS-2005>
0.760086417198181

$$$$
32
                    3D
 Structure written by MMmdl.
163171  0  0  1  0            999 V2000
  -30.7755  -14.3164   20.6883 C   0  0  0  0  0  0
  -30.4098  -12.2669   19.3719 C   0  0  0  0  0  0
  -29.4701  -12.5009   18.1766 C   0  0  0  0  0  0
  -27.9978  -12.3621   18.6063 C   0  0  0  0  0  0
  -27.6636  -13.1900   19.8753 C   0  0  2  0  0  0
  -28.7011  -12.9187   20.9845 C   0  0  0  0  0  0
  -25.2607  -13.8138   20.5649 C   0  0  0  0  0  0
  -24.1848  -13.0455   20.9165 C   0  0  0  0  0  0
  -24.6349  -11.6893   20.8718 C   0  0  0  0  0  0
  -23.9015  -10.4299   21.0412 C   0  0  0  0  0  0
  -24.3572   -9.4240   21.9214 C   0  0  0  0  0  0
  -23.6259   -8.2274   22.0787 C   0  0  0  0  0  0
  -22.4264   -8.0273   21.3556 C   0  0  0  0  0  0
  -21.9897   -9.0236   20.4642 C   0  0  0  0  0  0
  -22.7192  -10.2132   20.3051 C   0  0  0  0  0  0
  -21.6849   -6.0726   22.5280 C   0  0  0  0  0  0
  -21.4002   -6.5626   23.8216 C   0  0  0  0  0  0
  -21.3643   -5.6782   24.9186 C   0  0  0  0  0  0
  -21.6046   -4.3045   24.7236 C   0  0  0  0  0  0
  -21.8813   -3.8146   23.4344 C   0  0  0  0  0  0
  -21.9182   -4.6956   22.3405 C   0  0  0  0  0  0
  -22.7877  -13.5285   21.1808 C   0  0  0  0  0  0
  -22.1656   -4.2144   21.0985 F   0  0  0  0  0  0
  -21.5625   -3.4532   25.7750 F   0  0  0  0  0  0
  -30.0418  -13.2068   20.4397 N   0  0  0  0  0  0
  -26.3021  -12.9277   20.3357 N   0  0  0  0  0  0
  -25.9268  -11.6451   20.5761 N   0  0  0  0  0  0
  -22.0473  -12.8286   22.0319 N   0  0  0  0  0  0
  -25.4376  -15.1862   20.4049 N   0  0  0  0  0  0
  -31.7942  -14.6193   20.0575 O   0  0  0  0  0  0
  -21.6632   -6.8869   21.4248 O   0  0  0  0  0  0
  -22.3593  -14.5615   20.6651 O   0  0  0  0  0  0
  -24.6078  -31.8681   23.2092 C   0  0  0  0  0  0
  -25.9011  -32.4793   23.8367 C   0  0  1  0  0  0
  -27.2529  -27.4897   20.0910 C   0  0  0  0  0  0
  -25.5929  -33.8588   24.2314 N   0  0  0  0  0  0
  -23.3911  -30.4851   21.5496 C   0  0  2  0  0  0
  -24.8388  -28.9477   20.1170 C   0  0  0  0  0  0
  -22.7340  -29.4651   22.5051 C   0  0  0  0  0  0
  -18.0240  -28.1383   22.8495 C   0  0  0  0  0  0
  -24.1511  -36.7270   23.2648 C   0  0  0  0  0  0
  -25.9071  -30.8520   21.3476 C   0  0  0  0  0  0
  -25.9882  -29.4863   20.7054 C   0  0  0  0  0  0
  -27.1901  -28.7573   20.6997 C   0  0  0  0  0  0
  -26.0859  -26.9491   19.4997 C   0  0  0  0  0  0
  -24.8775  -27.6736   19.5186 C   0  0  0  0  0  0
  -23.5928  -29.7983   20.1691 C   0  0  0  0  0  0
  -25.4142  -36.3058   24.0326 C   0  0  1  0  0  0
  -20.5807  -28.3644   23.1355 C   0  0  2  0  0  0
  -20.6735  -26.9410   22.5424 C   0  0  0  0  0  0
  -19.5738  -26.6409   21.5187 C   0  0  0  0  0  0
  -18.1889  -26.7956   22.1547 C   0  0  0  0  0  0
  -19.1483  -28.8830   23.2911 C   0  0  0  0  0  0
  -18.9421  -30.1432   23.8931 C   0  0  0  0  0  0
  -17.6453  -30.6603   24.0572 C   0  0  0  0  0  0
  -25.9064  -34.9430   23.5104 C   0  0  0  0  0  0
  -16.5333  -29.9101   23.6352 C   0  0  0  0  0  0
  -16.7229  -28.6504   23.0401 C   0  0  0  0  0  0
  -26.4444  -31.6579   25.0679 C   0  0  0  0  0  0
  -25.3702  -31.3545   26.1371 C   0  0  0  0  0  0
  -27.0365  -30.3101   24.5965 C   0  0  0  0  0  0
  -27.5944  -32.4325   25.7537 C   0  0  0  0  0  0
  -27.5570  -37.1836   24.8488 C   0  0  0  0  0  0
  -21.4071  -29.3020   22.3775 N   0  0  0  0  0  0
  -26.4316  -37.3753   23.9377 N   0  0  0  0  0  0
  -24.6530  -31.0829   22.0957 N   0  0  0  0  0  0
  -23.4122  -28.8227   23.3110 O   0  0  0  0  0  0
  -28.4643  -26.8426   20.1610 O   0  0  0  0  0  0
  -26.5573  -34.8867   22.4636 O   0  0  0  0  0  0
  -23.5286  -32.1410   23.7545 O   0  0  0  0  0  0
  -28.8453  -22.0525   19.7520 C   0  0  0  0  0  0
  -28.4499  -21.7889   21.0798 C   0  0  0  0  0  0
  -28.0848  -24.0570   21.4251 C   0  0  0  0  0  0
  -28.5062  -24.3192   20.0787 C   0  0  0  0  0  0
  -28.8267  -25.6755   23.2796 C   0  0  0  0  0  0
  -28.4555  -20.3775   21.6512 C   0  0  0  0  0  0
  -27.6585  -25.0999   22.4615 C   0  0  0  0  0  0
  -28.7057  -25.6796   19.3960 C   0  0  0  0  0  0
  -29.6614  -19.5328   21.2028 C   0  0  0  0  0  0
  -29.6913  -18.1500   21.8666 C   0  0  0  0  0  0
  -31.0113  -17.4190   21.6016 C   0  0  0  0  0  0
  -31.1251  -16.0967   22.3728 C   0  0  0  0  0  0
  -28.8711  -23.3052   19.2582 N   0  0  0  0  0  0
  -28.0647  -22.7878   21.9095 N   0  0  0  0  0  0
  -30.3629  -15.0312   21.7387 N   0  0  0  0  0  0
  -31.4510  -12.3749   19.0572 H   0  0  0  0  0  0
  -30.3200  -11.2411   19.7362 H   0  0  0  0  0  0
  -29.6920  -11.7843   17.3842 H   0  0  0  0  0  0
  -29.6425  -13.4901   17.7490 H   0  0  0  0  0  0
  -27.8064  -11.3052   18.7963 H   0  0  0  0  0  0
  -27.3358  -12.6447   17.7867 H   0  0  0  0  0  0
  -27.7298  -14.2439   19.6048 H   0  0  0  0  0  0
  -28.6637  -11.8732   21.2957 H   0  0  0  0  0  0
  -28.4474  -13.4918   21.8784 H   0  0  0  0  0  0
  -25.2707   -9.5751   22.4794 H   0  0  0  0  0  0
  -23.9961   -7.4705   22.7538 H   0  0  0  0  0  0
  -21.0840   -8.8708   19.8946 H   0  0  0  0  0  0
  -22.3630  -10.9644   19.6139 H   0  0  0  0  0  0
  -21.1996   -7.6133   23.9718 H   0  0  0  0  0  0
  -21.1453   -6.0510   25.9082 H   0  0  0  0  0  0
  -22.0592   -2.7594   23.2850 H   0  0  0  0  0  0
  -22.4009  -11.9889   22.4673 H   0  0  0  0  0  0
  -21.1094  -13.1335   22.2480 H   0  0  0  0  0  0
  -24.6809  -15.8493   20.5323 H   0  0  0  0  0  0
  -26.2986  -15.6190   20.0937 H   0  0  0  0  0  0
  -26.7070  -32.5550   23.1136 H   0  0  0  0  0  0
  -25.0258  -33.9750   25.0572 H   0  0  0  0  0  0
  -22.6732  -31.2953   21.4031 H   0  0  0  0  0  0
  -23.3788  -35.9588   23.3254 H   0  0  0  0  0  0
  -24.3621  -36.8966   22.2078 H   0  0  0  0  0  0
  -23.7231  -37.6424   23.6734 H   0  0  0  0  0  0
  -25.9929  -31.6116   20.5691 H   0  0  0  0  0  0
  -26.8054  -30.9242   21.9489 H   0  0  0  0  0  0
  -28.0758  -29.1677   21.1654 H   0  0  0  0  0  0
  -26.0878  -25.9685   19.0472 H   0  0  0  0  0  0
  -23.9918  -27.2375   19.0765 H   0  0  0  0  0  0
  -23.6838  -30.5571   19.3913 H   0  0  0  0  0  0
  -22.7255  -29.1926   19.8966 H   0  0  0  0  0  0
  -25.1355  -36.1913   25.0834 H   0  0  0  0  0  0
  -20.9869  -28.3201   24.1483 H   0  0  0  0  0  0
  -20.5661  -26.2247   23.3567 H   0  0  0  0  0  0
  -21.6611  -26.7523   22.1229 H   0  0  0  0  0  0
  -19.6923  -25.6321   21.1207 H   0  0  0  0  0  0
  -19.6718  -27.3198   20.6698 H   0  0  0  0  0  0
  -17.4214  -26.6776   21.3886 H   0  0  0  0  0  0
  -18.0238  -26.0052   22.8877 H   0  0  0  0  0  0
  -19.7897  -30.7214   24.2350 H   0  0  0  0  0  0
  -17.5013  -31.6291   24.5163 H   0  0  0  0  0  0
  -15.5335  -30.3039   23.7697 H   0  0  0  0  0  0
  -15.8596  -28.0831   22.7191 H   0  0  0  0  0  0
  -24.6294  -30.6369   25.7801 H   0  0  0  0  0  0
  -24.8346  -32.2544   26.4404 H   0  0  0  0  0  0
  -25.8151  -30.9236   27.0354 H   0  0  0  0  0  0
  -26.2922  -29.6823   24.1032 H   0  0  0  0  0  0
  -27.4264  -29.7344   25.4371 H   0  0  0  0  0  0
  -27.8667  -30.4549   23.9039 H   0  0  0  0  0  0
  -27.2532  -33.3707   26.1932 H   0  0  0  0  0  0
  -28.3905  -32.6722   25.0480 H   0  0  0  0  0  0
  -28.0400  -31.8526   26.5626 H   0  0  0  0  0  0
  -28.2613  -38.0100   24.7489 H   0  0  0  0  0  0
  -28.1045  -36.2616   24.6459 H   0  0  0  0  0  0
  -27.2237  -37.1684   25.8875 H   0  0  0  0  0  0
  -20.9225  -29.8705   21.6970 H   0  0  0  0  0  0
  -26.0182  -38.2838   24.1314 H   0  0  0  0  0  0
  -29.1725  -21.2715   19.0807 H   0  0  0  0  0  0
  -28.4685  -26.3994   24.0137 H   0  0  0  0  0  0
  -29.5515  -26.1829   22.6433 H   0  0  0  0  0  0
  -29.3512  -24.8916   23.8276 H   0  0  0  0  0  0
  -27.5260  -19.8771   21.3805 H   0  0  0  0  0  0
  -28.4601  -20.4455   22.7404 H   0  0  0  0  0  0
  -26.9677  -24.6235   23.1617 H   0  0  0  0  0  0
  -27.0606  -25.8835   22.0141 H   0  0  0  0  0  0
  -28.2019  -25.7089   18.4287 H   0  0  0  0  0  0
  -29.7666  -25.7372   19.1462 H   0  0  0  0  0  0
  -30.5786  -20.0726   21.4451 H   0  0  0  0  0  0
  -29.6563  -19.3956   20.1207 H   0  0  0  0  0  0
  -28.8488  -17.5501   21.5173 H   0  0  0  0  0  0
  -29.5630  -18.2639   22.9427 H   0  0  0  0  0  0
  -31.8391  -18.0620   21.9048 H   0  0  0  0  0  0
  -31.1388  -17.2519   20.5308 H   0  0  0  0  0  0
  -30.7715  -16.2160   23.3978 H   0  0  0  0  0  0
  -32.1714  -15.7922   22.4478 H   0  0  0  0  0  0
  -29.5078  -14.7288   22.1837 H   0  0  0  0  0  0
  1 25  1  0  0  0
  1 30  2  0  0  0
  1 85  1  0  0  0
  2  3  1  0  0  0
  2 25  1  0  0  0
  2 86  1  0  0  0
  2 87  1  0  0  0
  3  4  1  0  0  0
  3 88  1  0  0  0
  3 89  1  0  0  0
  4  5  1  0  0  0
  4 90  1  0  0  0
  4 91  1  0  0  0
  5  6  1  0  0  0
  5 26  1  0  0  0
  5 92  1  0  0  0
  6 25  1  0  0  0
  6 93  1  0  0  0
  6 94  1  0  0  0
  7  8  2  0  0  0
  7 26  1  0  0  0
  7 29  1  0  0  0
  8  9  1  0  0  0
  8 22  1  0  0  0
  9 10  1  0  0  0
  9 27  2  0  0  0
 10 11  2  0  0  0
 10 15  1  0  0  0
 11 12  1  0  0  0
 11 95  1  0  0  0
 12 13  2  0  0  0
 12 96  1  0  0  0
 13 14  1  0  0  0
 13 31  1  0  0  0
 14 15  2  0  0  0
 14 97  1  0  0  0
 15 98  1  0  0  0
 16 17  2  0  0  0
 16 21  1  0  0  0
 16 31  1  0  0  0
 17 18  1  0  0  0
 17 99  1  0  0  0
 18 19  2  0  0  0
 18100  1  0  0  0
 19 20  1  0  0  0
 19 24  1  0  0  0
 20 21  2  0  0  0
 20101  1  0  0  0
 21 23  1  0  0  0
 22 28  1  0  0  0
 22 32  2  0  0  0
 26 27  1  0  0  0
 28102  1  0  0  0
 28103  1  0  0  0
 29104  1  0  0  0
 29105  1  0  0  0
 33 34  1  0  0  0
 33 66  1  0  0  0
 33 70  2  0  0  0
 34 36  1  0  0  0
 34 59  1  0  0  0
 34106  1  0  0  0
 35 44  2  0  0  0
 35 45  1  0  0  0
 35 68  1  0  0  0
 36 56  1  0  0  0
 36107  1  0  0  0
 37 39  1  0  0  0
 37 47  1  0  0  0
 37 66  1  0  0  0
 37108  1  0  0  0
 38 43  2  0  0  0
 38 46  1  0  0  0
 38 47  1  0  0  0
 39 64  1  0  0  0
 39 67  2  0  0  0
 40 52  1  0  0  0
 40 53  2  0  0  0
 40 58  1  0  0  0
 41109  1  0  0  0
 41110  1  0  0  0
 41111  1  0  0  0
 41 48  1  0  0  0
 42 43  1  0  0  0
 42 66  1  0  0  0
 42112  1  0  0  0
 42113  1  0  0  0
 43 44  1  0  0  0
 44114  1  0  0  0
 45 46  2  0  0  0
 45115  1  0  0  0
 46116  1  0  0  0
 47117  1  0  0  0
 47118  1  0  0  0
 48 56  1  0  0  0
 48 65  1  0  0  0
 48119  1  0  0  0
 49 50  1  0  0  0
 49 53  1  0  0  0
 49 64  1  0  0  0
 49120  1  0  0  0
 50 51  1  0  0  0
 50121  1  0  0  0
 50122  1  0  0  0
 51 52  1  0  0  0
 51123  1  0  0  0
 51124  1  0  0  0
 52125  1  0  0  0
 52126  1  0  0  0
 53 54  1  0  0  0
 54 55  2  0  0  0
 54127  1  0  0  0
 55 57  1  0  0  0
 55128  1  0  0  0
 56 69  2  0  0  0
 57 58  2  0  0  0
 57129  1  0  0  0
 58130  1  0  0  0
 59 60  1  0  0  0
 59 61  1  0  0  0
 59 62  1  0  0  0
 60131  1  0  0  0
 60132  1  0  0  0
 60133  1  0  0  0
 61134  1  0  0  0
 61135  1  0  0  0
 61136  1  0  0  0
 62137  1  0  0  0
 62138  1  0  0  0
 62139  1  0  0  0
 63 65  1  0  0  0
 63140  1  0  0  0
 63141  1  0  0  0
 63142  1  0  0  0
 64143  1  0  0  0
 65144  1  0  0  0
 68 78  1  0  0  0
 71 72  2  0  0  0
 71 83  1  0  0  0
 71145  1  0  0  0
 72 76  1  0  0  0
 72 84  1  0  0  0
 73 74  1  0  0  0
 73 77  1  0  0  0
 73 84  2  0  0  0
 74 78  1  0  0  0
 74 83  2  0  0  0
 75 77  1  0  0  0
 75146  1  0  0  0
 75147  1  0  0  0
 75148  1  0  0  0
 76 79  1  0  0  0
 76149  1  0  0  0
 76150  1  0  0  0
 77151  1  0  0  0
 77152  1  0  0  0
 78153  1  0  0  0
 78154  1  0  0  0
 79 80  1  0  0  0
 79155  1  0  0  0
 79156  1  0  0  0
 80 81  1  0  0  0
 80157  1  0  0  0
 80158  1  0  0  0
 81 82  1  0  0  0
 81159  1  0  0  0
 81160  1  0  0  0
 82 85  1  0  0  0
 82161  1  0  0  0
 82162  1  0  0  0
 85163  1  0  0  0
M  ISO  4   1 100  68 101  78 101  85 100
M  END
> <chiral flag>
0

> <version>
0

> <s_m_source_file>
/data/baiqing/PycharmProjects/Reinvent-master-3.2/result/LINK_invent/BTK/process_docking_weight1_custom_sum_contain_oxygen_bond_distance_aromatic_linkinvent_7_9_3/rearranged_h_0039.sdf

> <i_m_source_file_index>
32

> <r_mmod_Potential_Energy-OPLS-2005>
17.160327911377

> <r_mmod_Stretch_Energy-OPLS-2005>
34.140510559082

> <r_mmod_Bend_Energy-OPLS-2005>
116.078277587891

> <r_mmod_Torsional_Energy-OPLS-2005>
194.740036010742

> <r_mmod_Improper_Torsional_Energy-OPLS-2005>
2.28909921646118

> <r_mmod_Van_der_Waal_Energy-OPLS-2005>
160.684661865234

> <r_mmod_Electrostatic_Energy-OPLS-2005>
-291.140380859375

> <r_mmod_Solvation_Energy-OPLS-2005>
-209.65788269043

> <b_mmod_Minimization_Converged-OPLS-2005>
0

> <r_mmod_RMS_Derivative-OPLS-2005>
4.31486034393311

$$$$
33
                    3D
 Structure written by MMmdl.
156164  0  0  1  0            999 V2000
  -30.6771  -14.4885   20.5610 C   0  0  0  0  0  0
  -30.4329  -12.3062   19.4372 C   0  0  0  0  0  0
  -29.5036  -12.5062   18.2196 C   0  0  0  0  0  0
  -28.0233  -12.3635   18.6263 C   0  0  0  0  0  0
  -27.6679  -13.2008   19.8829 C   0  0  2  0  0  0
  -28.7081  -12.9734   21.0066 C   0  0  0  0  0  0
  -25.2616  -13.8149   20.5677 C   0  0  0  0  0  0
  -24.1852  -13.0437   20.9167 C   0  0  0  0  0  0
  -24.6388  -11.6901   20.8724 C   0  0  0  0  0  0
  -23.9047  -10.4294   21.0397 C   0  0  0  0  0  0
  -24.3607   -9.4213   21.9177 C   0  0  0  0  0  0
  -23.6301   -8.2239   22.0747 C   0  0  0  0  0  0
  -22.4278   -8.0277   21.3539 C   0  0  0  0  0  0
  -21.9908   -9.0243   20.4635 C   0  0  0  0  0  0
  -22.7223  -10.2130   20.3044 C   0  0  0  0  0  0
  -21.6851   -6.0741   22.5283 C   0  0  0  0  0  0
  -21.4006   -6.5646   23.8214 C   0  0  0  0  0  0
  -21.3661   -5.6799   24.9179 C   0  0  0  0  0  0
  -21.6045   -4.3061   24.7230 C   0  0  0  0  0  0
  -21.8820   -3.8150   23.4349 C   0  0  0  0  0  0
  -21.9193   -4.6967   22.3406 C   0  0  0  0  0  0
  -22.7878  -13.5240   21.1850 C   0  0  0  0  0  0
  -22.1664   -4.2149   21.0986 F   0  0  0  0  0  0
  -21.5633   -3.4545   25.7742 F   0  0  0  0  0  0
  -30.0463  -13.2843   20.4677 N   0  0  0  0  0  0
  -26.3053  -12.9300   20.3394 N   0  0  0  0  0  0
  -25.9314  -11.6465   20.5765 N   0  0  0  0  0  0
  -22.0521  -12.8220   22.0400 N   0  0  0  0  0  0
  -25.4362  -15.1868   20.4087 N   0  0  0  0  0  0
  -31.7723  -14.7207   20.0424 O   0  0  0  0  0  0
  -21.6639   -6.8878   21.4242 O   0  0  0  0  0  0
  -22.3564  -14.5559   20.6723 O   0  0  0  0  0  0
  -24.6154  -31.8665   23.2097 C   0  0  0  0  0  0
  -25.9052  -32.4814   23.8391 C   0  0  1  0  0  0
  -27.2361  -27.4344   20.0981 C   0  0  0  0  0  0
  -25.5910  -33.8610   24.2321 N   0  0  0  0  0  0
  -23.4047  -30.4912   21.5475 C   0  0  2  0  0  0
  -24.8552  -28.9609   20.1081 C   0  0  0  0  0  0
  -22.7415  -29.4658   22.4961 C   0  0  0  0  0  0
  -18.0273  -28.1379   22.8497 C   0  0  0  0  0  0
  -24.1483  -36.7305   23.2639 C   0  0  0  0  0  0
  -25.9344  -30.8332   21.3638 C   0  0  0  0  0  0
  -26.0155  -29.4694   20.7076 C   0  0  0  0  0  0
  -27.2126  -28.7134   20.7007 C   0  0  0  0  0  0
  -26.0642  -26.9466   19.4819 C   0  0  0  0  0  0
  -24.8746  -27.6981   19.4913 C   0  0  0  0  0  0
  -23.6146  -29.8240   20.1616 C   0  0  0  0  0  0
  -25.4107  -36.3104   24.0340 C   0  0  1  0  0  0
  -20.5866  -28.3666   23.1311 C   0  0  2  0  0  0
  -20.6764  -26.9401   22.5412 C   0  0  0  0  0  0
  -19.5741  -26.6383   21.5211 C   0  0  0  0  0  0
  -18.1919  -26.7933   22.1619 C   0  0  0  0  0  0
  -19.1523  -28.8840   23.2902 C   0  0  0  0  0  0
  -18.9456  -30.1446   23.8911 C   0  0  0  0  0  0
  -17.6461  -30.6589   24.0566 C   0  0  0  0  0  0
  -25.9035  -34.9472   23.5121 C   0  0  0  0  0  0
  -16.5347  -29.9095   23.6337 C   0  0  0  0  0  0
  -16.7260  -28.6506   23.0361 C   0  0  0  0  0  0
  -26.4486  -31.6594   25.0716 C   0  0  0  0  0  0
  -25.3758  -31.3706   26.1470 C   0  0  0  0  0  0
  -27.0314  -30.3037   24.6094 C   0  0  0  0  0  0
  -27.6059  -32.4314   25.7478 C   0  0  0  0  0  0
  -27.5579  -37.1801   24.8465 C   0  0  0  0  0  0
  -21.4142  -29.3035   22.3710 N   0  0  0  0  0  0
  -26.4287  -37.3792   23.9417 N   0  0  0  0  0  0
  -24.6696  -31.0771   22.0993 N   0  0  0  0  0  0
  -23.4187  -28.8202   23.3001 O   0  0  0  0  0  0
  -28.3534  -26.6271   20.1428 O   0  0  0  0  0  0
  -26.5585  -34.8934   22.4677 O   0  0  0  0  0  0
  -23.5346  -32.1411   23.7495 O   0  0  0  0  0  0
  -30.2679  -22.7103   22.1331 C   0  0  0  0  0  0
  -30.3153  -21.9483   20.9392 C   0  0  0  0  0  0
  -29.1036  -24.3380   21.0103 C   0  0  0  0  0  0
  -30.8691  -22.2380   23.4431 C   0  0  0  0  0  0
  -31.0027  -20.5719   20.8478 C   0  0  0  0  0  0
  -28.1875  -25.5717   21.1166 C   0  0  0  0  0  0
  -30.0317  -19.3651   20.7559 C   0  0  0  0  0  0
  -30.6580  -17.9602   21.0130 C   0  0  0  0  0  0
  -29.7293  -16.8199   20.5191 C   0  0  0  0  0  0
  -29.6576  -23.9168   22.1561 N   0  0  0  0  0  0
  -29.7617  -22.4597   19.8066 N   0  0  0  0  0  0
  -29.1409  -23.6575   19.8450 N   0  0  0  0  0  0
  -29.9272  -15.4740   21.0891 N   0  0  0  0  0  0
  -31.4774  -12.4103   19.1381 H   0  0  0  0  0  0
  -30.3396  -11.2931   19.8318 H   0  0  0  0  0  0
  -29.7468  -11.7846   17.4387 H   0  0  0  0  0  0
  -29.6697  -13.4942   17.7875 H   0  0  0  0  0  0
  -27.8351  -11.3068   18.8214 H   0  0  0  0  0  0
  -27.3741  -12.6381   17.7941 H   0  0  0  0  0  0
  -27.7153  -14.2497   19.5893 H   0  0  0  0  0  0
  -28.6810  -11.9351   21.3413 H   0  0  0  0  0  0
  -28.4634  -13.5661   21.8889 H   0  0  0  0  0  0
  -25.2747   -9.5704   22.4754 H   0  0  0  0  0  0
  -24.0019   -7.4631   22.7462 H   0  0  0  0  0  0
  -21.0843   -8.8747   19.8941 H   0  0  0  0  0  0
  -22.3671  -10.9665   19.6156 H   0  0  0  0  0  0
  -21.1982   -7.6151   23.9719 H   0  0  0  0  0  0
  -21.1487   -6.0526   25.9084 H   0  0  0  0  0  0
  -22.0595   -2.7610   23.2846 H   0  0  0  0  0  0
  -22.4136  -11.9866   22.4757 H   0  0  0  0  0  0
  -21.1136  -13.1234   22.2617 H   0  0  0  0  0  0
  -24.6702  -15.8451   20.5031 H   0  0  0  0  0  0
  -26.2959  -15.6224   20.0998 H   0  0  0  0  0  0
  -26.7122  -32.5532   23.1153 H   0  0  0  0  0  0
  -25.0094  -33.9767   25.0494 H   0  0  0  0  0  0
  -22.6935  -31.3087   21.4089 H   0  0  0  0  0  0
  -23.3746  -35.9635   23.3308 H   0  0  0  0  0  0
  -24.3584  -36.8903   22.2050 H   0  0  0  0  0  0
  -23.7233  -37.6515   23.6647 H   0  0  0  0  0  0
  -26.0481  -31.6026   20.5989 H   0  0  0  0  0  0
  -26.8220  -30.8836   21.9831 H   0  0  0  0  0  0
  -28.1046  -29.0960   21.1774 H   0  0  0  0  0  0
  -26.0672  -25.9727   19.0122 H   0  0  0  0  0  0
  -23.9837  -27.2985   19.0264 H   0  0  0  0  0  0
  -23.7211  -30.5993   19.4020 H   0  0  0  0  0  0
  -22.7404  -29.2418   19.8640 H   0  0  0  0  0  0
  -25.1282  -36.1953   25.0830 H   0  0  0  0  0  0
  -20.9963  -28.3225   24.1430 H   0  0  0  0  0  0
  -20.5663  -26.2271   23.3598 H   0  0  0  0  0  0
  -21.6634  -26.7442   22.1202 H   0  0  0  0  0  0
  -19.6897  -25.6295   21.1235 H   0  0  0  0  0  0
  -19.6685  -27.3200   20.6748 H   0  0  0  0  0  0
  -17.4190  -26.6687   21.4015 H   0  0  0  0  0  0
  -18.0317  -26.0072   22.9008 H   0  0  0  0  0  0
  -19.7933  -30.7256   24.2283 H   0  0  0  0  0  0
  -17.5023  -31.6276   24.5156 H   0  0  0  0  0  0
  -15.5351  -30.3004   23.7668 H   0  0  0  0  0  0
  -15.8656  -28.0833   22.7081 H   0  0  0  0  0  0
  -24.5913  -30.7074   25.7809 H   0  0  0  0  0  0
  -24.8982  -32.2871   26.4947 H   0  0  0  0  0  0
  -25.8119  -30.8847   27.0207 H   0  0  0  0  0  0
  -26.2847  -29.6790   24.1182 H   0  0  0  0  0  0
  -27.4117  -29.7283   25.4541 H   0  0  0  0  0  0
  -27.8675  -30.4350   23.9224 H   0  0  0  0  0  0
  -27.2677  -33.3606   26.2078 H   0  0  0  0  0  0
  -28.3871  -32.6879   25.0308 H   0  0  0  0  0  0
  -28.0739  -31.8425   26.5376 H   0  0  0  0  0  0
  -28.2589  -38.0102   24.7524 H   0  0  0  0  0  0
  -28.1075  -36.2639   24.6269 H   0  0  0  0  0  0
  -27.2304  -37.1417   25.8866 H   0  0  0  0  0  0
  -20.9297  -29.8758   21.6943 H   0  0  0  0  0  0
  -26.0170  -38.2861   24.1442 H   0  0  0  0  0  0
  -31.9571  -22.2688   23.3876 H   0  0  0  0  0  0
  -30.5597  -21.2156   23.6607 H   0  0  0  0  0  0
  -30.5559  -22.8653   24.2778 H   0  0  0  0  0  0
  -31.6621  -20.4363   21.7039 H   0  0  0  0  0  0
  -31.6636  -20.5737   19.9803 H   0  0  0  0  0  0
  -28.3172  -26.0212   22.1024 H   0  0  0  0  0  0
  -27.1685  -25.1805   21.1077 H   0  0  0  0  0  0
  -29.5532  -19.3857   19.7753 H   0  0  0  0  0  0
  -29.2292  -19.5053   21.4809 H   0  0  0  0  0  0
  -30.8670  -17.8486   22.0776 H   0  0  0  0  0  0
  -31.6196  -17.8788   20.5036 H   0  0  0  0  0  0
  -29.7680  -16.7636   19.4291 H   0  0  0  0  0  0
  -28.6985  -17.0859   20.7557 H   0  0  0  0  0  0
  -29.1315  -15.1273   21.6054 H   0  0  0  0  0  0
  1 25  1  0  0  0
  1 30  2  0  0  0
  1 83  1  0  0  0
  2  3  1  0  0  0
  2 25  1  0  0  0
  2 84  1  0  0  0
  2 85  1  0  0  0
  3  4  1  0  0  0
  3 86  1  0  0  0
  3 87  1  0  0  0
  4  5  1  0  0  0
  4 88  1  0  0  0
  4 89  1  0  0  0
  5  6  1  0  0  0
  5 26  1  0  0  0
  5 90  1  0  0  0
  6 25  1  0  0  0
  6 91  1  0  0  0
  6 92  1  0  0  0
  7  8  2  0  0  0
  7 26  1  0  0  0
  7 29  1  0  0  0
  8  9  1  0  0  0
  8 22  1  0  0  0
  9 10  1  0  0  0
  9 27  2  0  0  0
 10 11  2  0  0  0
 10 15  1  0  0  0
 11 12  1  0  0  0
 11 93  1  0  0  0
 12 13  2  0  0  0
 12 94  1  0  0  0
 13 14  1  0  0  0
 13 31  1  0  0  0
 14 15  2  0  0  0
 14 95  1  0  0  0
 15 96  1  0  0  0
 16 17  2  0  0  0
 16 21  1  0  0  0
 16 31  1  0  0  0
 17 18  1  0  0  0
 17 97  1  0  0  0
 18 19  2  0  0  0
 18 98  1  0  0  0
 19 20  1  0  0  0
 19 24  1  0  0  0
 20 21  2  0  0  0
 20 99  1  0  0  0
 21 23  1  0  0  0
 22 28  1  0  0  0
 22 32  2  0  0  0
 26 27  1  0  0  0
 28100  1  0  0  0
 28101  1  0  0  0
 29102  1  0  0  0
 29103  1  0  0  0
 33 34  1  0  0  0
 33 66  1  0  0  0
 33 70  2  0  0  0
 34 36  1  0  0  0
 34 59  1  0  0  0
 34104  1  0  0  0
 35 44  2  0  0  0
 35 45  1  0  0  0
 35 68  1  0  0  0
 36 56  1  0  0  0
 36105  1  0  0  0
 37 39  1  0  0  0
 37 47  1  0  0  0
 37 66  1  0  0  0
 37106  1  0  0  0
 38 43  2  0  0  0
 38 46  1  0  0  0
 38 47  1  0  0  0
 39 64  1  0  0  0
 39 67  2  0  0  0
 40 52  1  0  0  0
 40 53  2  0  0  0
 40 58  1  0  0  0
 41107  1  0  0  0
 41108  1  0  0  0
 41109  1  0  0  0
 41 48  1  0  0  0
 42 43  1  0  0  0
 42 66  1  0  0  0
 42110  1  0  0  0
 42111  1  0  0  0
 43 44  1  0  0  0
 44112  1  0  0  0
 45 46  2  0  0  0
 45113  1  0  0  0
 46114  1  0  0  0
 47115  1  0  0  0
 47116  1  0  0  0
 48 56  1  0  0  0
 48 65  1  0  0  0
 48117  1  0  0  0
 49 50  1  0  0  0
 49 53  1  0  0  0
 49 64  1  0  0  0
 49118  1  0  0  0
 50 51  1  0  0  0
 50119  1  0  0  0
 50120  1  0  0  0
 51 52  1  0  0  0
 51121  1  0  0  0
 51122  1  0  0  0
 52123  1  0  0  0
 52124  1  0  0  0
 53 54  1  0  0  0
 54 55  2  0  0  0
 54125  1  0  0  0
 55 57  1  0  0  0
 55126  1  0  0  0
 56 69  2  0  0  0
 57 58  2  0  0  0
 57127  1  0  0  0
 58128  1  0  0  0
 59 60  1  0  0  0
 59 61  1  0  0  0
 59 62  1  0  0  0
 60129  1  0  0  0
 60130  1  0  0  0
 60131  1  0  0  0
 61132  1  0  0  0
 61133  1  0  0  0
 61134  1  0  0  0
 62135  1  0  0  0
 62136  1  0  0  0
 62137  1  0  0  0
 63 65  1  0  0  0
 63138  1  0  0  0
 63139  1  0  0  0
 63140  1  0  0  0
 64141  1  0  0  0
 65142  1  0  0  0
 68 76  1  0  0  0
 71 72  2  0  0  0
 71 74  1  0  0  0
 71 80  1  0  0  0
 72 75  1  0  0  0
 72 81  1  0  0  0
 73 76  1  0  0  0
 73 80  2  0  0  0
 73 82  1  0  0  0
 74143  1  0  0  0
 74144  1  0  0  0
 74145  1  0  0  0
 75 77  1  0  0  0
 75146  1  0  0  0
 75147  1  0  0  0
 76148  1  0  0  0
 76149  1  0  0  0
 77 78  1  0  0  0
 77150  1  0  0  0
 77151  1  0  0  0
 78 79  1  0  0  0
 78152  1  0  0  0
 78153  1  0  0  0
 79 83  1  0  0  0
 79154  1  0  0  0
 79155  1  0  0  0
 81 82  2  0  0  0
 83156  1  0  0  0
M  ISO  4   1 100  68 101  76 101  83 100
M  END
> <chiral flag>
0

> <version>
0

> <s_m_source_file>
/data/baiqing/PycharmProjects/Reinvent-master-3.2/result/LINK_invent/BTK/process_docking_weight1_custom_sum_contain_oxygen_bond_distance_aromatic_linkinvent_7_9_3/rearranged_h_0039.sdf

> <i_m_source_file_index>
33

> <r_mmod_Potential_Energy-OPLS-2005>
-7.61676836013794

> <r_mmod_Stretch_Energy-OPLS-2005>
43.8195037841797

> <r_mmod_Bend_Energy-OPLS-2005>
105.20817565918

> <r_mmod_Torsional_Energy-OPLS-2005>
239.463943481445

> <r_mmod_Improper_Torsional_Energy-OPLS-2005>
8.01780986785889

> <r_mmod_Van_der_Waal_Energy-OPLS-2005>
155.34928894043

> <r_mmod_Electrostatic_Energy-OPLS-2005>
-336.018585205078

> <r_mmod_Solvation_Energy-OPLS-2005>
-239.055435180664

> <b_mmod_Minimization_Converged-OPLS-2005>
0

> <r_mmod_RMS_Derivative-OPLS-2005>
1.47993361949921

$$$$
34
                    3D
 Structure written by MMmdl.
173181  0  0  1  0            999 V2000
  -30.7360  -14.4088   20.6278 C   0  0  0  0  0  0
  -30.4268  -12.2913   19.4062 C   0  0  0  0  0  0
  -29.4843  -12.4977   18.2040 C   0  0  0  0  0  0
  -28.0070  -12.3735   18.6213 C   0  0  0  0  0  0
  -27.6696  -13.1962   19.8930 C   0  0  2  0  0  0
  -28.7170  -12.9408   21.0012 C   0  0  0  0  0  0
  -25.2658  -13.8153   20.5778 C   0  0  0  0  0  0
  -24.1874  -13.0446   20.9197 C   0  0  0  0  0  0
  -24.6389  -11.6907   20.8748 C   0  0  0  0  0  0
  -23.9033  -10.4300   21.0402 C   0  0  0  0  0  0
  -24.3575   -9.4214   21.9179 C   0  0  0  0  0  0
  -23.6271   -8.2237   22.0738 C   0  0  0  0  0  0
  -22.4251   -8.0281   21.3546 C   0  0  0  0  0  0
  -21.9872   -9.0264   20.4659 C   0  0  0  0  0  0
  -22.7211  -10.2143   20.3057 C   0  0  0  0  0  0
  -21.6865   -6.0730   22.5261 C   0  0  0  0  0  0
  -21.4033   -6.5629   23.8196 C   0  0  0  0  0  0
  -21.3647   -5.6777   24.9153 C   0  0  0  0  0  0
  -21.6042   -4.3040   24.7198 C   0  0  0  0  0  0
  -21.8821   -3.8142   23.4325 C   0  0  0  0  0  0
  -21.9205   -4.6955   22.3387 C   0  0  0  0  0  0
  -22.7897  -13.5270   21.1819 C   0  0  0  0  0  0
  -22.1678   -4.2152   21.0971 F   0  0  0  0  0  0
  -21.5610   -3.4521   25.7707 F   0  0  0  0  0  0
  -30.0466  -13.2532   20.4472 N   0  0  0  0  0  0
  -26.3087  -12.9285   20.3522 N   0  0  0  0  0  0
  -25.9333  -11.6460   20.5860 N   0  0  0  0  0  0
  -22.0532  -12.8236   22.0345 N   0  0  0  0  0  0
  -25.4414  -15.1859   20.4207 N   0  0  0  0  0  0
  -31.8297  -14.6383   20.1014 O   0  0  0  0  0  0
  -21.6644   -6.8864   21.4220 O   0  0  0  0  0  0
  -22.3589  -14.5570   20.6663 O   0  0  0  0  0  0
  -24.6109  -31.8707   23.2116 C   0  0  0  0  0  0
  -25.9032  -32.4836   23.8391 C   0  0  1  0  0  0
  -27.2366  -27.4611   20.1036 C   0  0  0  0  0  0
  -25.5915  -33.8628   24.2330 N   0  0  0  0  0  0
  -23.3970  -30.4931   21.5512 C   0  0  2  0  0  0
  -24.8467  -28.9622   20.1151 C   0  0  0  0  0  0
  -22.7386  -29.4668   22.4998 C   0  0  0  0  0  0
  -18.0266  -28.1371   22.8489 C   0  0  0  0  0  0
  -24.1487  -36.7310   23.2630 C   0  0  0  0  0  0
  -25.9220  -30.8427   21.3652 C   0  0  0  0  0  0
  -26.0021  -29.4775   20.7176 C   0  0  0  0  0  0
  -27.2001  -28.7334   20.7158 C   0  0  0  0  0  0
  -26.0750  -26.9572   19.4865 C   0  0  0  0  0  0
  -24.8777  -27.6993   19.4952 C   0  0  0  0  0  0
  -23.6054  -29.8247   20.1654 C   0  0  0  0  0  0
  -25.4106  -36.3108   24.0334 C   0  0  1  0  0  0
  -20.5856  -28.3649   23.1324 C   0  0  2  0  0  0
  -20.6762  -26.9389   22.5421 C   0  0  0  0  0  0
  -19.5750  -26.6378   21.5210 C   0  0  0  0  0  0
  -18.1923  -26.7920   22.1611 C   0  0  0  0  0  0
  -19.1521  -28.8826   23.2905 C   0  0  0  0  0  0
  -18.9446  -30.1438   23.8902 C   0  0  0  0  0  0
  -17.6452  -30.6580   24.0563 C   0  0  0  0  0  0
  -25.9033  -34.9478   23.5121 C   0  0  0  0  0  0
  -16.5340  -29.9081   23.6329 C   0  0  0  0  0  0
  -16.7257  -28.6500   23.0342 C   0  0  0  0  0  0
  -26.4471  -31.6606   25.0713 C   0  0  0  0  0  0
  -25.3749  -31.3761   26.1483 C   0  0  0  0  0  0
  -27.0271  -30.3027   24.6097 C   0  0  0  0  0  0
  -27.6053  -32.4314   25.7477 C   0  0  0  0  0  0
  -27.5585  -37.1805   24.8457 C   0  0  0  0  0  0
  -21.4117  -29.3023   22.3731 N   0  0  0  0  0  0
  -26.4287  -37.3795   23.9412 N   0  0  0  0  0  0
  -24.6605  -31.0831   22.1008 N   0  0  0  0  0  0
  -23.4172  -28.8220   23.3028 O   0  0  0  0  0  0
  -28.3779  -26.7012   20.0572 O   0  0  0  0  0  0
  -26.5573  -34.8921   22.4672 O   0  0  0  0  0  0
  -23.5318  -32.1446   23.7536 O   0  0  0  0  0  0
  -29.3135  -24.3008   22.7928 C   0  0  0  0  0  0
  -29.0529  -23.9582   20.4116 C   0  0  0  0  0  0
  -29.0982  -24.8485   21.5092 C   0  0  0  0  0  0
  -29.4966  -22.9117   22.9200 C   0  0  0  0  0  0
  -29.2335  -22.5787   20.6342 C   0  0  0  0  0  0
  -27.4320  -19.7879   26.3710 C   0  0  0  0  0  0
  -28.9448  -26.3573   21.3237 C   0  0  0  0  0  0
  -29.7029  -22.2418   24.2700 C   0  0  0  0  0  0
  -29.2127  -21.5684   19.4881 C   0  0  0  0  0  0
  -28.6821  -20.5758   25.9502 C   0  0  0  0  0  0
  -28.4245  -21.5424   24.7779 C   0  0  0  0  0  0
  -28.0492  -20.5427   19.5212 C   0  0  0  0  0  0
  -28.1074  -19.4489   20.6178 C   0  0  0  0  0  0
  -29.2688  -18.4378   20.5005 C   0  0  0  0  0  0
  -29.5315  -17.7046   21.8305 C   0  0  0  0  0  0
  -30.6380  -16.6359   21.7533 C   0  0  0  0  0  0
  -29.4836  -22.0801   21.8601 N   0  0  0  0  0  0
  -30.1108  -15.3259   21.3747 N   0  0  0  0  0  0
  -31.4656  -12.4025   19.0898 H   0  0  0  0  0  0
  -30.3474  -11.2760   19.7974 H   0  0  0  0  0  0
  -29.7084  -11.7660   17.4275 H   0  0  0  0  0  0
  -29.6518  -13.4802   17.7595 H   0  0  0  0  0  0
  -27.7948  -11.3162   18.7899 H   0  0  0  0  0  0
  -27.3609  -12.6796   17.7995 H   0  0  0  0  0  0
  -27.7226  -14.2507   19.6216 H   0  0  0  0  0  0
  -28.6927  -11.8955   21.3146 H   0  0  0  0  0  0
  -28.4821  -13.5072   21.9029 H   0  0  0  0  0  0
  -25.2689   -9.5722   22.4789 H   0  0  0  0  0  0
  -24.0014   -7.4620   22.7436 H   0  0  0  0  0  0
  -21.0793   -8.8784   19.8981 H   0  0  0  0  0  0
  -22.3655  -10.9680   19.6175 H   0  0  0  0  0  0
  -21.2031   -7.6140   23.9687 H   0  0  0  0  0  0
  -21.1472   -6.0514   25.9052 H   0  0  0  0  0  0
  -22.0612   -2.7600   23.2821 H   0  0  0  0  0  0
  -22.4172  -11.9908   22.4710 H   0  0  0  0  0  0
  -21.1135  -13.1240   22.2508 H   0  0  0  0  0  0
  -24.6784  -15.8399   20.5571 H   0  0  0  0  0  0
  -26.2893  -15.6317   20.0911 H   0  0  0  0  0  0
  -26.7102  -32.5565   23.1155 H   0  0  0  0  0  0
  -25.0126  -33.9792   25.0516 H   0  0  0  0  0  0
  -22.6832  -31.3081   21.4148 H   0  0  0  0  0  0
  -23.3741  -35.9655   23.3303 H   0  0  0  0  0  0
  -24.3577  -36.8908   22.2040 H   0  0  0  0  0  0
  -23.7239  -37.6521   23.6626 H   0  0  0  0  0  0
  -26.0328  -31.6074   20.5950 H   0  0  0  0  0  0
  -26.8089  -30.8953   21.9838 H   0  0  0  0  0  0
  -28.0938  -29.1380   21.1698 H   0  0  0  0  0  0
  -26.0984  -25.9883   19.0083 H   0  0  0  0  0  0
  -23.9925  -27.2976   19.0215 H   0  0  0  0  0  0
  -23.7065  -30.5992   19.4042 H   0  0  0  0  0  0
  -22.7307  -29.2413   19.8733 H   0  0  0  0  0  0
  -25.1277  -36.1974   25.0823 H   0  0  0  0  0  0
  -20.9948  -28.3228   24.1440 H   0  0  0  0  0  0
  -20.5646  -26.2260   23.3603 H   0  0  0  0  0  0
  -21.6642  -26.7424   22.1237 H   0  0  0  0  0  0
  -19.6908  -25.6290   21.1234 H   0  0  0  0  0  0
  -19.6711  -27.3192   20.6743 H   0  0  0  0  0  0
  -17.4202  -26.6676   21.4000 H   0  0  0  0  0  0
  -18.0312  -26.0056   22.8988 H   0  0  0  0  0  0
  -19.7929  -30.7259   24.2266 H   0  0  0  0  0  0
  -17.5009  -31.6264   24.5161 H   0  0  0  0  0  0
  -15.5342  -30.2984   23.7649 H   0  0  0  0  0  0
  -15.8656  -28.0824   22.7040 H   0  0  0  0  0  0
  -24.5941  -30.7060   25.7876 H   0  0  0  0  0  0
  -24.8929  -32.2943   26.4854 H   0  0  0  0  0  0
  -25.8132  -30.9029   27.0280 H   0  0  0  0  0  0
  -26.2814  -29.6825   24.1114 H   0  0  0  0  0  0
  -27.3965  -29.7236   25.4570 H   0  0  0  0  0  0
  -27.8688  -30.4296   23.9285 H   0  0  0  0  0  0
  -27.2670  -33.3596   26.2089 H   0  0  0  0  0  0
  -28.3859  -32.6899   25.0311 H   0  0  0  0  0  0
  -28.0725  -31.8420   26.5374 H   0  0  0  0  0  0
  -28.2608  -38.0095   24.7502 H   0  0  0  0  0  0
  -28.1071  -36.2627   24.6275 H   0  0  0  0  0  0
  -27.2311  -37.1464   25.8862 H   0  0  0  0  0  0
  -20.9258  -29.8736   21.6966 H   0  0  0  0  0  0
  -26.0180  -38.2871   24.1427 H   0  0  0  0  0  0
  -29.3437  -24.9378   23.6659 H   0  0  0  0  0  0
  -28.8914  -24.3370   19.4115 H   0  0  0  0  0  0
  -27.6700  -19.0901   27.1757 H   0  0  0  0  0  0
  -27.0264  -19.2066   25.5406 H   0  0  0  0  0  0
  -26.6425  -20.4495   26.7307 H   0  0  0  0  0  0
  -29.9279  -26.8244   21.3929 H   0  0  0  0  0  0
  -28.3591  -26.7466   22.1596 H   0  0  0  0  0  0
  -30.0606  -22.9709   24.9983 H   0  0  0  0  0  0
  -30.5061  -21.5100   24.1618 H   0  0  0  0  0  0
  -30.1775  -21.0665   19.4342 H   0  0  0  0  0  0
  -29.1354  -22.1302   18.5565 H   0  0  0  0  0  0
  -29.4596  -19.8661   25.6645 H   0  0  0  0  0  0
  -29.0742  -21.1199   26.8106 H   0  0  0  0  0  0
  -27.9847  -20.9729   23.9578 H   0  0  0  0  0  0
  -27.6844  -22.2955   25.0528 H   0  0  0  0  0  0
  -27.9917  -20.0519   18.5485 H   0  0  0  0  0  0
  -27.1133  -21.0943   19.6247 H   0  0  0  0  0  0
  -27.1690  -18.8923   20.6013 H   0  0  0  0  0  0
  -28.1279  -19.9237   21.5972 H   0  0  0  0  0  0
  -30.1871  -18.9520   20.2145 H   0  0  0  0  0  0
  -29.0583  -17.7212   19.7038 H   0  0  0  0  0  0
  -28.6080  -17.2726   22.2209 H   0  0  0  0  0  0
  -29.8374  -18.4534   22.5637 H   0  0  0  0  0  0
  -31.1042  -16.5202   22.7334 H   0  0  0  0  0  0
  -31.4265  -16.9661   21.0741 H   0  0  0  0  0  0
  -29.1987  -15.0694   21.7234 H   0  0  0  0  0  0
  1 25  1  0  0  0
  1 30  2  0  0  0
  1 88  1  0  0  0
  2  3  1  0  0  0
  2 25  1  0  0  0
  2 89  1  0  0  0
  2 90  1  0  0  0
  3  4  1  0  0  0
  3 91  1  0  0  0
  3 92  1  0  0  0
  4  5  1  0  0  0
  4 93  1  0  0  0
  4 94  1  0  0  0
  5  6  1  0  0  0
  5 26  1  0  0  0
  5 95  1  0  0  0
  6 25  1  0  0  0
  6 96  1  0  0  0
  6 97  1  0  0  0
  7  8  2  0  0  0
  7 26  1  0  0  0
  7 29  1  0  0  0
  8  9  1  0  0  0
  8 22  1  0  0  0
  9 10  1  0  0  0
  9 27  2  0  0  0
 10 11  2  0  0  0
 10 15  1  0  0  0
 11 12  1  0  0  0
 11 98  1  0  0  0
 12 13  2  0  0  0
 12 99  1  0  0  0
 13 14  1  0  0  0
 13 31  1  0  0  0
 14 15  2  0  0  0
 14100  1  0  0  0
 15101  1  0  0  0
 16 17  2  0  0  0
 16 21  1  0  0  0
 16 31  1  0  0  0
 17 18  1  0  0  0
 17102  1  0  0  0
 18 19  2  0  0  0
 18103  1  0  0  0
 19 20  1  0  0  0
 19 24  1  0  0  0
 20 21  2  0  0  0
 20104  1  0  0  0
 21 23  1  0  0  0
 22 28  1  0  0  0
 22 32  2  0  0  0
 26 27  1  0  0  0
 28105  1  0  0  0
 28106  1  0  0  0
 29107  1  0  0  0
 29108  1  0  0  0
 33 34  1  0  0  0
 33 66  1  0  0  0
 33 70  2  0  0  0
 34 36  1  0  0  0
 34 59  1  0  0  0
 34109  1  0  0  0
 35 44  2  0  0  0
 35 45  1  0  0  0
 35 68  1  0  0  0
 36 56  1  0  0  0
 36110  1  0  0  0
 37 39  1  0  0  0
 37 47  1  0  0  0
 37 66  1  0  0  0
 37111  1  0  0  0
 38 43  2  0  0  0
 38 46  1  0  0  0
 38 47  1  0  0  0
 39 64  1  0  0  0
 39 67  2  0  0  0
 40 52  1  0  0  0
 40 53  2  0  0  0
 40 58  1  0  0  0
 41112  1  0  0  0
 41113  1  0  0  0
 41114  1  0  0  0
 41 48  1  0  0  0
 42 43  1  0  0  0
 42 66  1  0  0  0
 42115  1  0  0  0
 42116  1  0  0  0
 43 44  1  0  0  0
 44117  1  0  0  0
 45 46  2  0  0  0
 45118  1  0  0  0
 46119  1  0  0  0
 47120  1  0  0  0
 47121  1  0  0  0
 48 56  1  0  0  0
 48 65  1  0  0  0
 48122  1  0  0  0
 49 50  1  0  0  0
 49 53  1  0  0  0
 49 64  1  0  0  0
 49123  1  0  0  0
 50 51  1  0  0  0
 50124  1  0  0  0
 50125  1  0  0  0
 51 52  1  0  0  0
 51126  1  0  0  0
 51127  1  0  0  0
 52128  1  0  0  0
 52129  1  0  0  0
 53 54  1  0  0  0
 54 55  2  0  0  0
 54130  1  0  0  0
 55 57  1  0  0  0
 55131  1  0  0  0
 56 69  2  0  0  0
 57 58  2  0  0  0
 57132  1  0  0  0
 58133  1  0  0  0
 59 60  1  0  0  0
 59 61  1  0  0  0
 59 62  1  0  0  0
 60134  1  0  0  0
 60135  1  0  0  0
 60136  1  0  0  0
 61137  1  0  0  0
 61138  1  0  0  0
 61139  1  0  0  0
 62140  1  0  0  0
 62141  1  0  0  0
 62142  1  0  0  0
 63 65  1  0  0  0
 63143  1  0  0  0
 63144  1  0  0  0
 63145  1  0  0  0
 64146  1  0  0  0
 65147  1  0  0  0
 68 77  1  0  0  0
 71 73  2  0  0  0
 71 74  1  0  0  0
 71148  1  0  0  0
 72 73  1  0  0  0
 72 75  2  0  0  0
 72149  1  0  0  0
 73 77  1  0  0  0
 74 78  1  0  0  0
 74 87  2  0  0  0
 75 79  1  0  0  0
 75 87  1  0  0  0
 76 80  1  0  0  0
 76150  1  0  0  0
 76151  1  0  0  0
 76152  1  0  0  0
 77153  1  0  0  0
 77154  1  0  0  0
 78 81  1  0  0  0
 78155  1  0  0  0
 78156  1  0  0  0
 79 82  1  0  0  0
 79157  1  0  0  0
 79158  1  0  0  0
 80 81  1  0  0  0
 80159  1  0  0  0
 80160  1  0  0  0
 81161  1  0  0  0
 81162  1  0  0  0
 82 83  1  0  0  0
 82163  1  0  0  0
 82164  1  0  0  0
 83 84  1  0  0  0
 83165  1  0  0  0
 83166  1  0  0  0
 84 85  1  0  0  0
 84167  1  0  0  0
 84168  1  0  0  0
 85 86  1  0  0  0
 85169  1  0  0  0
 85170  1  0  0  0
 86 88  1  0  0  0
 86171  1  0  0  0
 86172  1  0  0  0
 88173  1  0  0  0
M  ISO  4   1 100  68 101  77 101  88 100
M  END
> <chiral flag>
0

> <version>
0

> <s_m_source_file>
/data/baiqing/PycharmProjects/Reinvent-master-3.2/result/LINK_invent/BTK/process_docking_weight1_custom_sum_contain_oxygen_bond_distance_aromatic_linkinvent_7_9_3/rearranged_h_0039.sdf

> <i_m_source_file_index>
34

> <r_mmod_Potential_Energy-OPLS-2005>
-201.819458007812

> <r_mmod_Stretch_Energy-OPLS-2005>
32.9626197814941

> <r_mmod_Bend_Energy-OPLS-2005>
93.9334564208984

> <r_mmod_Torsional_Energy-OPLS-2005>
226.995483398438

> <r_mmod_Improper_Torsional_Energy-OPLS-2005>
2.02127504348755

> <r_mmod_Van_der_Waal_Energy-OPLS-2005>
145.679168701172

> <r_mmod_Electrostatic_Energy-OPLS-2005>
-506.550659179688

> <r_mmod_Solvation_Energy-OPLS-2005>
-204.888687133789

> <b_mmod_Minimization_Converged-OPLS-2005>
0

> <r_mmod_RMS_Derivative-OPLS-2005>
3.11494636535645

$$$$
35
                    3D
 Structure written by MMmdl.
171179  0  0  1  0            999 V2000
  -30.7160  -14.4513   20.5200 C   0  0  0  0  0  0
  -30.4112  -12.2734   19.4382 C   0  0  0  0  0  0
  -29.4902  -12.4779   18.2171 C   0  0  0  0  0  0
  -28.0103  -12.3558   18.6266 C   0  0  0  0  0  0
  -27.6594  -13.2061   19.8756 C   0  0  2  0  0  0
  -28.7015  -13.0107   21.0020 C   0  0  0  0  0  0
  -25.2554  -13.8145   20.5686 C   0  0  0  0  0  0
  -24.1808  -13.0418   20.9185 C   0  0  0  0  0  0
  -24.6364  -11.6886   20.8752 C   0  0  0  0  0  0
  -23.9040  -10.4272   21.0435 C   0  0  0  0  0  0
  -24.3587   -9.4179   21.9206 C   0  0  0  0  0  0
  -23.6261   -8.2217   22.0763 C   0  0  0  0  0  0
  -22.4240   -8.0262   21.3556 C   0  0  0  0  0  0
  -21.9889   -9.0235   20.4666 C   0  0  0  0  0  0
  -22.7212  -10.2112   20.3081 C   0  0  0  0  0  0
  -21.6843   -6.0724   22.5284 C   0  0  0  0  0  0
  -21.4020   -6.5644   23.8222 C   0  0  0  0  0  0
  -21.3662   -5.6798   24.9182 C   0  0  0  0  0  0
  -21.6042   -4.3059   24.7233 C   0  0  0  0  0  0
  -21.8812   -3.8145   23.4352 C   0  0  0  0  0  0
  -21.9171   -4.6954   22.3408 C   0  0  0  0  0  0
  -22.7820  -13.5210   21.1842 C   0  0  0  0  0  0
  -22.1645   -4.2144   21.0985 F   0  0  0  0  0  0
  -21.5619   -3.4541   25.7740 F   0  0  0  0  0  0
  -30.0370  -13.2778   20.4433 N   0  0  0  0  0  0
  -26.2995  -12.9326   20.3373 N   0  0  0  0  0  0
  -25.9292  -11.6485   20.5790 N   0  0  0  0  0  0
  -22.0458  -12.8220   22.0423 N   0  0  0  0  0  0
  -25.4248  -15.1857   20.4075 N   0  0  0  0  0  0
  -31.8752  -14.5858   20.1188 O   0  0  0  0  0  0
  -21.6620   -6.8857   21.4241 O   0  0  0  0  0  0
  -22.3495  -14.5498   20.6657 O   0  0  0  0  0  0
  -24.6113  -31.8706   23.2148 C   0  0  0  0  0  0
  -25.9027  -32.4834   23.8420 C   0  0  1  0  0  0
  -27.2419  -27.4720   20.0879 C   0  0  0  0  0  0
  -25.5901  -33.8631   24.2356 N   0  0  0  0  0  0
  -23.3980  -30.4962   21.5538 C   0  0  2  0  0  0
  -24.8494  -28.9711   20.1170 C   0  0  0  0  0  0
  -22.7389  -29.4669   22.4996 C   0  0  0  0  0  0
  -18.0263  -28.1364   22.8501 C   0  0  0  0  0  0
  -24.1490  -36.7319   23.2632 C   0  0  0  0  0  0
  -25.9247  -30.8506   21.3619 C   0  0  0  0  0  0
  -26.0088  -29.4865   20.7133 C   0  0  0  0  0  0
  -27.2123  -28.7451   20.7034 C   0  0  0  0  0  0
  -26.0679  -26.9696   19.4929 C   0  0  0  0  0  0
  -24.8716  -27.7075   19.5051 C   0  0  0  0  0  0
  -23.6071  -29.8315   20.1676 C   0  0  0  0  0  0
  -25.4112  -36.3117   24.0335 C   0  0  1  0  0  0
  -20.5856  -28.3644   23.1331 C   0  0  2  0  0  0
  -20.6760  -26.9384   22.5418 C   0  0  0  0  0  0
  -19.5738  -26.6380   21.5214 C   0  0  0  0  0  0
  -18.1920  -26.7912   22.1629 C   0  0  0  0  0  0
  -19.1516  -28.8819   23.2917 C   0  0  0  0  0  0
  -18.9440  -30.1430   23.8919 C   0  0  0  0  0  0
  -17.6446  -30.6574   24.0568 C   0  0  0  0  0  0
  -25.9039  -34.9480   23.5130 C   0  0  0  0  0  0
  -16.5335  -29.9079   23.6322 C   0  0  0  0  0  0
  -16.7257  -28.6495   23.0348 C   0  0  0  0  0  0
  -26.4481  -31.6580   25.0711 C   0  0  0  0  0  0
  -25.3764  -31.3674   26.1466 C   0  0  0  0  0  0
  -27.0303  -30.3026   24.6037 C   0  0  0  0  0  0
  -27.6061  -32.4292   25.7472 C   0  0  0  0  0  0
  -27.5584  -37.1814   24.8464 C   0  0  0  0  0  0
  -21.4126  -29.3024   22.3739 N   0  0  0  0  0  0
  -26.4300  -37.3797   23.9405 N   0  0  0  0  0  0
  -24.6628  -31.0847   22.1029 N   0  0  0  0  0  0
  -23.4182  -28.8191   23.3014 O   0  0  0  0  0  0
  -28.3377  -26.6498   19.9982 O   0  0  0  0  0  0
  -26.5589  -34.8917   22.4694 O   0  0  0  0  0  0
  -23.5315  -32.1438   23.7568 O   0  0  0  0  0  0
  -31.3103  -23.5556   19.9554 C   0  0  0  0  0  0
  -30.4164  -24.9945   22.1781 C   0  0  0  0  0  0
  -31.4222  -22.9749   21.2386 C   0  0  0  0  0  0
  -30.7505  -24.8388   19.7658 C   0  0  0  0  0  0
  -30.9968  -23.7221   22.3681 C   0  0  0  0  0  0
  -30.2654  -25.5563   20.8928 C   0  0  0  0  0  0
  -31.8291  -26.3484   18.0138 C   0  0  0  0  0  0
  -32.3783  -23.7944   24.4955 C   0  0  0  0  0  0
  -30.6747  -25.3917   18.3446 C   0  0  0  0  0  0
  -31.1423  -23.2129   23.7961 C   0  0  0  0  0  0
  -32.0341  -21.5766   21.3528 C   0  0  0  0  0  0
  -29.5127  -26.8784   20.7574 C   0  0  0  0  0  0
  -31.0362  -20.4479   21.7194 C   0  0  0  0  0  0
  -31.1277  -19.2169   20.7942 C   0  0  0  0  0  0
  -30.4666  -17.9403   21.3601 C   0  0  0  0  0  0
  -30.2628  -16.8722   20.2691 C   0  0  0  0  0  0
  -29.9632  -15.5294   20.7898 N   0  0  0  0  0  0
  -31.4591  -12.3461   19.1393 H   0  0  0  0  0  0
  -30.2844  -11.2709   19.8496 H   0  0  0  0  0  0
  -29.7206  -11.7440   17.4431 H   0  0  0  0  0  0
  -29.6702  -13.4584   17.7734 H   0  0  0  0  0  0
  -27.8059  -11.3028   18.8244 H   0  0  0  0  0  0
  -27.3611  -12.6379   17.7961 H   0  0  0  0  0  0
  -27.7005  -14.2487   19.5603 H   0  0  0  0  0  0
  -28.6604  -11.9899   21.3843 H   0  0  0  0  0  0
  -28.4809  -13.6573   21.8540 H   0  0  0  0  0  0
  -25.2740   -9.5620   22.4771 H   0  0  0  0  0  0
  -23.9963   -7.4592   22.7472 H   0  0  0  0  0  0
  -21.0821   -8.8740   19.8967 H   0  0  0  0  0  0
  -22.3682  -10.9636   19.6175 H   0  0  0  0  0  0
  -21.2058   -7.6153   23.9727 H   0  0  0  0  0  0
  -21.1486   -6.0536   25.9087 H   0  0  0  0  0  0
  -22.0588   -2.7604   23.2864 H   0  0  0  0  0  0
  -22.4058  -11.9893   22.4847 H   0  0  0  0  0  0
  -21.1079  -13.1251   22.2636 H   0  0  0  0  0  0
  -24.6547  -15.8343   20.5347 H   0  0  0  0  0  0
  -26.2692  -15.6303   20.0678 H   0  0  0  0  0  0
  -26.7098  -32.5574   23.1195 H   0  0  0  0  0  0
  -25.0082  -33.9801   25.0514 H   0  0  0  0  0  0
  -22.6841  -31.3119   21.4181 H   0  0  0  0  0  0
  -23.3741  -35.9662   23.3315 H   0  0  0  0  0  0
  -24.3581  -36.8911   22.2043 H   0  0  0  0  0  0
  -23.7258  -37.6536   23.6633 H   0  0  0  0  0  0
  -26.0278  -31.6180   20.5928 H   0  0  0  0  0  0
  -26.8154  -30.9080   21.9752 H   0  0  0  0  0  0
  -28.1024  -29.1606   21.1545 H   0  0  0  0  0  0
  -26.0833  -25.9983   19.0198 H   0  0  0  0  0  0
  -23.9831  -27.3024   19.0408 H   0  0  0  0  0  0
  -23.7090  -30.6088   19.4093 H   0  0  0  0  0  0
  -22.7330  -29.2474   19.8735 H   0  0  0  0  0  0
  -25.1288  -36.1994   25.0827 H   0  0  0  0  0  0
  -20.9960  -28.3207   24.1448 H   0  0  0  0  0  0
  -20.5671  -26.2246   23.3598 H   0  0  0  0  0  0
  -21.6633  -26.7432   22.1205 H   0  0  0  0  0  0
  -19.6902  -25.6302   21.1219 H   0  0  0  0  0  0
  -19.6684  -27.3215   20.6769 H   0  0  0  0  0  0
  -17.4193  -26.6661   21.4030 H   0  0  0  0  0  0
  -18.0318  -26.0045   22.9016 H   0  0  0  0  0  0
  -19.7916  -30.7243   24.2303 H   0  0  0  0  0  0
  -17.4996  -31.6259   24.5159 H   0  0  0  0  0  0
  -15.5340  -30.2991   23.7624 H   0  0  0  0  0  0
  -15.8656  -28.0823   22.7052 H   0  0  0  0  0  0
  -24.5940  -30.7012   25.7814 H   0  0  0  0  0  0
  -24.8948  -32.2825   26.4922 H   0  0  0  0  0  0
  -25.8131  -30.8844   27.0215 H   0  0  0  0  0  0
  -26.2827  -29.6784   24.1123 H   0  0  0  0  0  0
  -27.4138  -29.7251   25.4461 H   0  0  0  0  0  0
  -27.8631  -30.4361   23.9127 H   0  0  0  0  0  0
  -27.2683  -33.3586   26.2075 H   0  0  0  0  0  0
  -28.3859  -32.6864   25.0288 H   0  0  0  0  0  0
  -28.0736  -31.8393   26.5367 H   0  0  0  0  0  0
  -28.2614  -38.0100   24.7502 H   0  0  0  0  0  0
  -28.1065  -36.2630   24.6306 H   0  0  0  0  0  0
  -27.2286  -37.1480   25.8861 H   0  0  0  0  0  0
  -20.9262  -29.8754   21.6977 H   0  0  0  0  0  0
  -26.0187  -38.2869   24.1418 H   0  0  0  0  0  0
  -31.6589  -23.0001   19.0942 H   0  0  0  0  0  0
  -30.0601  -25.5423   23.0394 H   0  0  0  0  0  0
  -31.7576  -26.6967   16.9835 H   0  0  0  0  0  0
  -32.7958  -25.8567   18.1256 H   0  0  0  0  0  0
  -31.8233  -27.2270   18.6590 H   0  0  0  0  0  0
  -32.4541  -23.4307   25.5201 H   0  0  0  0  0  0
  -32.3308  -24.8830   24.5337 H   0  0  0  0  0  0
  -33.2968  -23.5193   23.9763 H   0  0  0  0  0  0
  -29.7215  -25.8861   18.1674 H   0  0  0  0  0  0
  -30.6936  -24.5610   17.6372 H   0  0  0  0  0  0
  -31.1805  -22.1271   23.8322 H   0  0  0  0  0  0
  -30.2468  -23.4885   24.3550 H   0  0  0  0  0  0
  -32.8473  -21.6040   22.0788 H   0  0  0  0  0  0
  -32.5155  -21.3387   20.4033 H   0  0  0  0  0  0
  -30.1377  -27.6216   20.2628 H   0  0  0  0  0  0
  -29.2696  -27.2658   21.7482 H   0  0  0  0  0  0
  -30.0144  -20.8282   21.6973 H   0  0  0  0  0  0
  -31.2158  -20.1342   22.7473 H   0  0  0  0  0  0
  -32.1746  -18.9919   20.5857 H   0  0  0  0  0  0
  -30.6793  -19.4725   19.8328 H   0  0  0  0  0  0
  -29.5009  -18.1824   21.8057 H   0  0  0  0  0  0
  -31.0899  -17.5453   22.1624 H   0  0  0  0  0  0
  -31.1310  -16.8549   19.6057 H   0  0  0  0  0  0
  -29.4300  -17.1732   19.6309 H   0  0  0  0  0  0
  -29.0177  -15.3534   21.0944 H   0  0  0  0  0  0
  1 25  1  0  0  0
  1 30  2  0  0  0
  1 87  1  0  0  0
  2  3  1  0  0  0
  2 25  1  0  0  0
  2 88  1  0  0  0
  2 89  1  0  0  0
  3  4  1  0  0  0
  3 90  1  0  0  0
  3 91  1  0  0  0
  4  5  1  0  0  0
  4 92  1  0  0  0
  4 93  1  0  0  0
  5  6  1  0  0  0
  5 26  1  0  0  0
  5 94  1  0  0  0
  6 25  1  0  0  0
  6 95  1  0  0  0
  6 96  1  0  0  0
  7  8  2  0  0  0
  7 26  1  0  0  0
  7 29  1  0  0  0
  8  9  1  0  0  0
  8 22  1  0  0  0
  9 10  1  0  0  0
  9 27  2  0  0  0
 10 11  2  0  0  0
 10 15  1  0  0  0
 11 12  1  0  0  0
 11 97  1  0  0  0
 12 13  2  0  0  0
 12 98  1  0  0  0
 13 14  1  0  0  0
 13 31  1  0  0  0
 14 15  2  0  0  0
 14 99  1  0  0  0
 15100  1  0  0  0
 16 17  2  0  0  0
 16 21  1  0  0  0
 16 31  1  0  0  0
 17 18  1  0  0  0
 17101  1  0  0  0
 18 19  2  0  0  0
 18102  1  0  0  0
 19 20  1  0  0  0
 19 24  1  0  0  0
 20 21  2  0  0  0
 20103  1  0  0  0
 21 23  1  0  0  0
 22 28  1  0  0  0
 22 32  2  0  0  0
 26 27  1  0  0  0
 28104  1  0  0  0
 28105  1  0  0  0
 29106  1  0  0  0
 29107  1  0  0  0
 33 34  1  0  0  0
 33 66  1  0  0  0
 33 70  2  0  0  0
 34 36  1  0  0  0
 34 59  1  0  0  0
 34108  1  0  0  0
 35 44  2  0  0  0
 35 45  1  0  0  0
 35 68  1  0  0  0
 36 56  1  0  0  0
 36109  1  0  0  0
 37 39  1  0  0  0
 37 47  1  0  0  0
 37 66  1  0  0  0
 37110  1  0  0  0
 38 43  2  0  0  0
 38 46  1  0  0  0
 38 47  1  0  0  0
 39 64  1  0  0  0
 39 67  2  0  0  0
 40 52  1  0  0  0
 40 53  2  0  0  0
 40 58  1  0  0  0
 41111  1  0  0  0
 41112  1  0  0  0
 41113  1  0  0  0
 41 48  1  0  0  0
 42 43  1  0  0  0
 42 66  1  0  0  0
 42114  1  0  0  0
 42115  1  0  0  0
 43 44  1  0  0  0
 44116  1  0  0  0
 45 46  2  0  0  0
 45117  1  0  0  0
 46118  1  0  0  0
 47119  1  0  0  0
 47120  1  0  0  0
 48 56  1  0  0  0
 48 65  1  0  0  0
 48121  1  0  0  0
 49 50  1  0  0  0
 49 53  1  0  0  0
 49 64  1  0  0  0
 49122  1  0  0  0
 50 51  1  0  0  0
 50123  1  0  0  0
 50124  1  0  0  0
 51 52  1  0  0  0
 51125  1  0  0  0
 51126  1  0  0  0
 52127  1  0  0  0
 52128  1  0  0  0
 53 54  1  0  0  0
 54 55  2  0  0  0
 54129  1  0  0  0
 55 57  1  0  0  0
 55130  1  0  0  0
 56 69  2  0  0  0
 57 58  2  0  0  0
 57131  1  0  0  0
 58132  1  0  0  0
 59 60  1  0  0  0
 59 61  1  0  0  0
 59 62  1  0  0  0
 60133  1  0  0  0
 60134  1  0  0  0
 60135  1  0  0  0
 61136  1  0  0  0
 61137  1  0  0  0
 61138  1  0  0  0
 62139  1  0  0  0
 62140  1  0  0  0
 62141  1  0  0  0
 63 65  1  0  0  0
 63142  1  0  0  0
 63143  1  0  0  0
 63144  1  0  0  0
 64145  1  0  0  0
 65146  1  0  0  0
 68 82  1  0  0  0
 71 73  2  0  0  0
 71 74  1  0  0  0
 71147  1  0  0  0
 72 75  2  0  0  0
 72 76  1  0  0  0
 72148  1  0  0  0
 73 75  1  0  0  0
 73 81  1  0  0  0
 74 76  2  0  0  0
 74 79  1  0  0  0
 75 80  1  0  0  0
 76 82  1  0  0  0
 77 79  1  0  0  0
 77149  1  0  0  0
 77150  1  0  0  0
 77151  1  0  0  0
 78 80  1  0  0  0
 78152  1  0  0  0
 78153  1  0  0  0
 78154  1  0  0  0
 79155  1  0  0  0
 79156  1  0  0  0
 80157  1  0  0  0
 80158  1  0  0  0
 81 83  1  0  0  0
 81159  1  0  0  0
 81160  1  0  0  0
 82161  1  0  0  0
 82162  1  0  0  0
 83 84  1  0  0  0
 83163  1  0  0  0
 83164  1  0  0  0
 84 85  1  0  0  0
 84165  1  0  0  0
 84166  1  0  0  0
 85 86  1  0  0  0
 85167  1  0  0  0
 85168  1  0  0  0
 86 87  1  0  0  0
 86169  1  0  0  0
 86170  1  0  0  0
 87171  1  0  0  0
M  ISO  4   1 100  68 101  82 101  87 100
M  END
> <chiral flag>
0

> <version>
0

> <s_m_source_file>
/data/baiqing/PycharmProjects/Reinvent-master-3.2/result/LINK_invent/BTK/process_docking_weight1_custom_sum_contain_oxygen_bond_distance_aromatic_linkinvent_7_9_3/rearranged_h_0039.sdf

> <i_m_source_file_index>
35

> <r_mmod_Potential_Energy-OPLS-2005>
-27.3212203979492

> <r_mmod_Stretch_Energy-OPLS-2005>
34.8372344970703

> <r_mmod_Bend_Energy-OPLS-2005>
105.905075073242

> <r_mmod_Torsional_Energy-OPLS-2005>
229.607147216797

> <r_mmod_Improper_Torsional_Energy-OPLS-2005>
8.0164213180542

> <r_mmod_Van_der_Waal_Energy-OPLS-2005>
153.002685546875

> <r_mmod_Electrostatic_Energy-OPLS-2005>
-373.404388427734

> <r_mmod_Solvation_Energy-OPLS-2005>
-198.939636230469

> <b_mmod_Minimization_Converged-OPLS-2005>
0

> <r_mmod_RMS_Derivative-OPLS-2005>
2.60672307014465

$$$$
36
                    3D
 Structure written by MMmdl.
166175  0  0  1  0            999 V2000
  -30.6878  -14.4820   20.6650 C   0  0  0  0  0  0
  -30.4371  -12.3414   19.4233 C   0  0  0  0  0  0
  -29.5052  -12.5417   18.2117 C   0  0  0  0  0  0
  -28.0266  -12.3765   18.6218 C   0  0  0  0  0  0
  -27.6682  -13.2048   19.8847 C   0  0  2  0  0  0
  -28.7069  -12.9644   21.0029 C   0  0  0  0  0  0
  -25.2608  -13.8150   20.5673 C   0  0  0  0  0  0
  -24.1862  -13.0435   20.9175 C   0  0  0  0  0  0
  -24.6408  -11.6896   20.8735 C   0  0  0  0  0  0
  -23.9074  -10.4285   21.0392 C   0  0  0  0  0  0
  -24.3629   -9.4195   21.9170 C   0  0  0  0  0  0
  -23.6307   -8.2229   22.0746 C   0  0  0  0  0  0
  -22.4282   -8.0271   21.3544 C   0  0  0  0  0  0
  -21.9920   -9.0237   20.4633 C   0  0  0  0  0  0
  -22.7251  -10.2114   20.3025 C   0  0  0  0  0  0
  -21.6856   -6.0743   22.5291 C   0  0  0  0  0  0
  -21.4020   -6.5642   23.8228 C   0  0  0  0  0  0
  -21.3660   -5.6788   24.9189 C   0  0  0  0  0  0
  -21.6041   -4.3052   24.7233 C   0  0  0  0  0  0
  -21.8817   -3.8153   23.4350 C   0  0  0  0  0  0
  -21.9199   -4.6974   22.3415 C   0  0  0  0  0  0
  -22.7872  -13.5204   21.1843 C   0  0  0  0  0  0
  -22.1650   -4.2168   21.0989 F   0  0  0  0  0  0
  -21.5646   -3.4526   25.7738 F   0  0  0  0  0  0
  -30.0335  -13.3017   20.4658 N   0  0  0  0  0  0
  -26.3067  -12.9328   20.3404 N   0  0  0  0  0  0
  -25.9348  -11.6498   20.5790 N   0  0  0  0  0  0
  -22.0507  -12.8210   22.0400 N   0  0  0  0  0  0
  -25.4327  -15.1878   20.4076 N   0  0  0  0  0  0
  -31.7651  -14.7186   20.1060 O   0  0  0  0  0  0
  -21.6646   -6.8870   21.4244 O   0  0  0  0  0  0
  -22.3542  -14.5492   20.6651 O   0  0  0  0  0  0
  -24.6120  -31.8692   23.2086 C   0  0  0  0  0  0
  -25.9014  -32.4811   23.8382 C   0  0  1  0  0  0
  -27.2388  -27.4355   20.0793 C   0  0  0  0  0  0
  -25.5889  -33.8616   24.2324 N   0  0  0  0  0  0
  -23.4015  -30.4911   21.5508 C   0  0  2  0  0  0
  -24.8473  -28.9621   20.1157 C   0  0  0  0  0  0
  -22.7394  -29.4662   22.4996 C   0  0  0  0  0  0
  -18.0259  -28.1367   22.8508 C   0  0  0  0  0  0
  -24.1500  -36.7299   23.2626 C   0  0  0  0  0  0
  -25.9329  -30.8300   21.3692 C   0  0  0  0  0  0
  -26.0101  -29.4681   20.7096 C   0  0  0  0  0  0
  -27.2059  -28.7119   20.6900 C   0  0  0  0  0  0
  -26.0498  -26.9490   19.4825 C   0  0  0  0  0  0
  -24.8632  -27.7003   19.5023 C   0  0  0  0  0  0
  -23.6076  -29.8230   20.1672 C   0  0  0  0  0  0
  -25.4119  -36.3111   24.0332 C   0  0  1  0  0  0
  -20.5856  -28.3647   23.1329 C   0  0  2  0  0  0
  -20.6733  -26.9381   22.5419 C   0  0  0  0  0  0
  -19.5699  -26.6373   21.5218 C   0  0  0  0  0  0
  -18.1893  -26.7914   22.1649 C   0  0  0  0  0  0
  -19.1511  -28.8817   23.2926 C   0  0  0  0  0  0
  -18.9445  -30.1428   23.8931 C   0  0  0  0  0  0
  -17.6447  -30.6582   24.0556 C   0  0  0  0  0  0
  -25.9041  -34.9460   23.5127 C   0  0  0  0  0  0
  -16.5330  -29.9085   23.6327 C   0  0  0  0  0  0
  -16.7251  -28.6493   23.0365 C   0  0  0  0  0  0
  -26.4415  -31.6552   25.0704 C   0  0  0  0  0  0
  -25.3683  -31.3641   26.1453 C   0  0  0  0  0  0
  -27.0204  -30.2966   24.6073 C   0  0  0  0  0  0
  -27.5990  -32.4243   25.7478 C   0  0  0  0  0  0
  -27.5597  -37.1815   24.8463 C   0  0  0  0  0  0
  -21.4121  -29.3026   22.3738 N   0  0  0  0  0  0
  -26.4316  -37.3790   23.9394 N   0  0  0  0  0  0
  -24.6667  -31.0783   22.1005 N   0  0  0  0  0  0
  -23.4157  -28.8193   23.3037 O   0  0  0  0  0  0
  -28.4208  -26.7116   20.0930 O   0  0  0  0  0  0
  -26.5616  -34.8911   22.4701 O   0  0  0  0  0  0
  -23.5309  -32.1457   23.7469 O   0  0  0  0  0  0
  -29.6277  -22.6299   21.2589 C   0  0  0  0  0  0
  -30.1109  -24.8170   22.1663 C   0  0  0  0  0  0
  -29.8267  -24.0121   21.0552 C   0  0  0  0  0  0
  -29.6849  -22.1012   22.5673 C   0  0  0  0  0  0
  -29.9132  -23.0183   23.6294 C   0  0  0  0  0  0
  -28.6254  -21.9967   25.6851 C   0  0  0  0  0  0
  -28.9025  -23.4404   25.9966 C   0  0  0  0  0  0
  -29.8473  -22.6676   25.0898 C   0  0  0  0  0  0
  -29.7306  -24.6330   19.6683 C   0  0  0  0  0  0
  -29.4251  -20.6029   22.8154 C   0  0  0  0  0  0
  -30.0705  -15.5861   21.5777 C   0  0  0  0  0  0
  -30.0816  -19.6034   21.8212 C   0  0  0  0  0  0
  -30.4481  -17.0626   21.2383 C   0  0  0  0  0  0
  -29.8576  -18.1180   22.2217 C   0  0  0  0  0  0
  -28.4326  -25.4344   19.4410 C   0  0  0  0  0  0
  -30.1588  -24.3299   23.4191 N   0  0  0  0  0  0
  -31.4787  -12.4667   19.1230 H   0  0  0  0  0  0
  -30.3592  -11.3221   19.8052 H   0  0  0  0  0  0
  -29.7599  -11.8362   17.4203 H   0  0  0  0  0  0
  -29.6621  -13.5404   17.7989 H   0  0  0  0  0  0
  -27.8512  -11.3157   18.8128 H   0  0  0  0  0  0
  -27.3716  -12.6440   17.7911 H   0  0  0  0  0  0
  -27.7201  -14.2583   19.6071 H   0  0  0  0  0  0
  -28.6962  -11.9163   21.3051 H   0  0  0  0  0  0
  -28.4489  -13.5126   21.9092 H   0  0  0  0  0  0
  -25.2776   -9.5713   22.4737 H   0  0  0  0  0  0
  -24.0052   -7.4635   22.7453 H   0  0  0  0  0  0
  -21.0865   -8.8732   19.8921 H   0  0  0  0  0  0
  -22.3698  -10.9653   19.6131 H   0  0  0  0  0  0
  -21.1980   -7.6150   23.9743 H   0  0  0  0  0  0
  -21.1496   -6.0512   25.9095 H   0  0  0  0  0  0
  -22.0591   -2.7620   23.2852 H   0  0  0  0  0  0
  -22.4097  -11.9888   22.4862 H   0  0  0  0  0  0
  -21.1072  -13.1199   22.2477 H   0  0  0  0  0  0
  -24.6690  -15.8451   20.5277 H   0  0  0  0  0  0
  -26.2917  -15.6366   20.1163 H   0  0  0  0  0  0
  -26.7085  -32.5510   23.1148 H   0  0  0  0  0  0
  -25.0019  -33.9781   25.0452 H   0  0  0  0  0  0
  -22.6900  -31.3073   21.4092 H   0  0  0  0  0  0
  -23.3772  -35.9628   23.3294 H   0  0  0  0  0  0
  -24.3603  -36.8900   22.2042 H   0  0  0  0  0  0
  -23.7236  -37.6496   23.6634 H   0  0  0  0  0  0
  -26.0650  -31.6033   20.6105 H   0  0  0  0  0  0
  -26.8129  -30.8668   22.0001 H   0  0  0  0  0  0
  -28.1059  -29.1084   21.1401 H   0  0  0  0  0  0
  -26.0013  -25.9906   18.9897 H   0  0  0  0  0  0
  -23.9702  -27.3000   19.0424 H   0  0  0  0  0  0
  -23.7055  -30.5937   19.4025 H   0  0  0  0  0  0
  -22.7349  -29.2338   19.8789 H   0  0  0  0  0  0
  -25.1309  -36.1981   25.0827 H   0  0  0  0  0  0
  -20.9961  -28.3190   24.1437 H   0  0  0  0  0  0
  -20.5616  -26.2250   23.3605 H   0  0  0  0  0  0
  -21.6604  -26.7398   22.1202 H   0  0  0  0  0  0
  -19.6846  -25.6287   21.1227 H   0  0  0  0  0  0
  -19.6621  -27.3204   20.6760 H   0  0  0  0  0  0
  -17.4149  -26.6673   21.4050 H   0  0  0  0  0  0
  -18.0287  -26.0040   22.9024 H   0  0  0  0  0  0
  -19.7921  -30.7245   24.2287 H   0  0  0  0  0  0
  -17.5005  -31.6267   24.5145 H   0  0  0  0  0  0
  -15.5342  -30.3003   23.7623 H   0  0  0  0  0  0
  -15.8647  -28.0825   22.7072 H   0  0  0  0  0  0
  -24.5839  -30.7029   25.7760 H   0  0  0  0  0  0
  -24.8907  -32.2800   26.4965 H   0  0  0  0  0  0
  -25.8036  -30.8738   27.0173 H   0  0  0  0  0  0
  -26.2759  -29.6848   24.0956 H   0  0  0  0  0  0
  -27.3740  -29.7069   25.4537 H   0  0  0  0  0  0
  -27.8704  -30.4225   23.9367 H   0  0  0  0  0  0
  -27.2599  -33.3527   26.2079 H   0  0  0  0  0  0
  -28.3800  -32.6816   25.0310 H   0  0  0  0  0  0
  -28.0654  -31.8342   26.5378 H   0  0  0  0  0  0
  -28.2619  -38.0107   24.7522 H   0  0  0  0  0  0
  -28.1097  -36.2643   24.6292 H   0  0  0  0  0  0
  -27.2321  -37.1451   25.8868 H   0  0  0  0  0  0
  -20.9253  -29.8769   21.6991 H   0  0  0  0  0  0
  -26.0208  -38.2878   24.1372 H   0  0  0  0  0  0
  -29.4046  -21.9862   20.4206 H   0  0  0  0  0  0
  -30.2802  -25.8802   22.0560 H   0  0  0  0  0  0
  -27.7939  -21.7793   25.0173 H   0  0  0  0  0  0
  -28.7786  -21.2830   26.4900 H   0  0  0  0  0  0
  -29.2362  -23.6738   27.0047 H   0  0  0  0  0  0
  -28.2514  -24.1838   25.5380 H   0  0  0  0  0  0
  -30.8268  -22.4023   25.4894 H   0  0  0  0  0  0
  -29.7810  -23.8311   18.9301 H   0  0  0  0  0  0
  -30.6024  -25.2618   19.4817 H   0  0  0  0  0  0
  -28.3440  -20.4481   22.8134 H   0  0  0  0  0  0
  -29.7635  -20.3428   23.8176 H   0  0  0  0  0  0
  -28.9837  -15.5356   21.5559 H   0  0  0  0  0  0
  -30.3721  -15.3603   22.6013 H   0  0  0  0  0  0
  -31.1517  -19.8053   21.7674 H   0  0  0  0  0  0
  -29.6844  -19.7610   20.8183 H   0  0  0  0  0  0
  -30.0908  -17.2884   20.2320 H   0  0  0  0  0  0
  -31.5327  -17.1748   21.2079 H   0  0  0  0  0  0
  -28.7848  -17.9504   22.3302 H   0  0  0  0  0  0
  -30.2854  -17.9520   23.2109 H   0  0  0  0  0  0
  -27.6014  -24.8180   19.7839 H   0  0  0  0  0  0
  -28.3024  -25.5976   18.3703 H   0  0  0  0  0  0
  1 25  1  0  0  0
  1 30  2  0  0  0
  1 81  1  0  0  0
  2  3  1  0  0  0
  2 25  1  0  0  0
  2 87  1  0  0  0
  2 88  1  0  0  0
  3  4  1  0  0  0
  3 89  1  0  0  0
  3 90  1  0  0  0
  4  5  1  0  0  0
  4 91  1  0  0  0
  4 92  1  0  0  0
  5  6  1  0  0  0
  5 26  1  0  0  0
  5 93  1  0  0  0
  6 25  1  0  0  0
  6 94  1  0  0  0
  6 95  1  0  0  0
  7  8  2  0  0  0
  7 26  1  0  0  0
  7 29  1  0  0  0
  8  9  1  0  0  0
  8 22  1  0  0  0
  9 10  1  0  0  0
  9 27  2  0  0  0
 10 11  2  0  0  0
 10 15  1  0  0  0
 11 12  1  0  0  0
 11 96  1  0  0  0
 12 13  2  0  0  0
 12 97  1  0  0  0
 13 14  1  0  0  0
 13 31  1  0  0  0
 14 15  2  0  0  0
 14 98  1  0  0  0
 15 99  1  0  0  0
 16 17  2  0  0  0
 16 21  1  0  0  0
 16 31  1  0  0  0
 17 18  1  0  0  0
 17100  1  0  0  0
 18 19  2  0  0  0
 18101  1  0  0  0
 19 20  1  0  0  0
 19 24  1  0  0  0
 20 21  2  0  0  0
 20102  1  0  0  0
 21 23  1  0  0  0
 22 28  1  0  0  0
 22 32  2  0  0  0
 26 27  1  0  0  0
 28103  1  0  0  0
 28104  1  0  0  0
 29105  1  0  0  0
 29106  1  0  0  0
 33 34  1  0  0  0
 33 66  1  0  0  0
 33 70  2  0  0  0
 34 36  1  0  0  0
 34 59  1  0  0  0
 34107  1  0  0  0
 35 44  2  0  0  0
 35 45  1  0  0  0
 35 68  1  0  0  0
 36 56  1  0  0  0
 36108  1  0  0  0
 37 39  1  0  0  0
 37 47  1  0  0  0
 37 66  1  0  0  0
 37109  1  0  0  0
 38 43  2  0  0  0
 38 46  1  0  0  0
 38 47  1  0  0  0
 39 64  1  0  0  0
 39 67  2  0  0  0
 40 52  1  0  0  0
 40 53  2  0  0  0
 40 58  1  0  0  0
 41110  1  0  0  0
 41111  1  0  0  0
 41112  1  0  0  0
 41 48  1  0  0  0
 42 43  1  0  0  0
 42 66  1  0  0  0
 42113  1  0  0  0
 42114  1  0  0  0
 43 44  1  0  0  0
 44115  1  0  0  0
 45 46  2  0  0  0
 45116  1  0  0  0
 46117  1  0  0  0
 47118  1  0  0  0
 47119  1  0  0  0
 48 56  1  0  0  0
 48 65  1  0  0  0
 48120  1  0  0  0
 49 50  1  0  0  0
 49 53  1  0  0  0
 49 64  1  0  0  0
 49121  1  0  0  0
 50 51  1  0  0  0
 50122  1  0  0  0
 50123  1  0  0  0
 51 52  1  0  0  0
 51124  1  0  0  0
 51125  1  0  0  0
 52126  1  0  0  0
 52127  1  0  0  0
 53 54  1  0  0  0
 54 55  2  0  0  0
 54128  1  0  0  0
 55 57  1  0  0  0
 55129  1  0  0  0
 56 69  2  0  0  0
 57 58  2  0  0  0
 57130  1  0  0  0
 58131  1  0  0  0
 59 60  1  0  0  0
 59 61  1  0  0  0
 59 62  1  0  0  0
 60132  1  0  0  0
 60133  1  0  0  0
 60134  1  0  0  0
 61135  1  0  0  0
 61136  1  0  0  0
 61137  1  0  0  0
 62138  1  0  0  0
 62139  1  0  0  0
 62140  1  0  0  0
 63 65  1  0  0  0
 63141  1  0  0  0
 63142  1  0  0  0
 63143  1  0  0  0
 64144  1  0  0  0
 65145  1  0  0  0
 68 85  1  0  0  0
 71 73  2  0  0  0
 71 74  1  0  0  0
 71146  1  0  0  0
 72 73  1  0  0  0
 72 86  2  0  0  0
 72147  1  0  0  0
 73 79  1  0  0  0
 74 75  2  0  0  0
 74 80  1  0  0  0
 75 86  1  0  0  0
 75 78  1  0  0  0
 76 77  1  0  0  0
 76 78  1  0  0  0
 76148  1  0  0  0
 76149  1  0  0  0
 77 78  1  0  0  0
 77150  1  0  0  0
 77151  1  0  0  0
 78152  1  0  0  0
 79 85  1  0  0  0
 79153  1  0  0  0
 79154  1  0  0  0
 80 82  1  0  0  0
 80155  1  0  0  0
 80156  1  0  0  0
 81 83  1  0  0  0
 81157  1  0  0  0
 81158  1  0  0  0
 82 84  1  0  0  0
 82159  1  0  0  0
 82160  1  0  0  0
 83 84  1  0  0  0
 83161  1  0  0  0
 83162  1  0  0  0
 84163  1  0  0  0
 84164  1  0  0  0
 85165  1  0  0  0
 85166  1  0  0  0
M  ISO  4   1 100  68 101  81 100  85 101
M  END
> <chiral flag>
0

> <version>
0

> <s_m_source_file>
/data/baiqing/PycharmProjects/Reinvent-master-3.2/result/LINK_invent/BTK/process_docking_weight1_custom_sum_contain_oxygen_bond_distance_aromatic_linkinvent_7_9_3/rearranged_h_0039.sdf

> <i_m_source_file_index>
36

> <r_mmod_Potential_Energy-OPLS-2005>
-198.926010131836

> <r_mmod_Stretch_Energy-OPLS-2005>
41.1765060424805

> <r_mmod_Bend_Energy-OPLS-2005>
99.8730239868164

> <r_mmod_Torsional_Energy-OPLS-2005>
182.174942016602

> <r_mmod_Improper_Torsional_Energy-OPLS-2005>
1.95904004573822

> <r_mmod_Van_der_Waal_Energy-OPLS-2005>
153.195785522461

> <r_mmod_Electrostatic_Energy-OPLS-2005>
-480.636840820312

> <r_mmod_Solvation_Energy-OPLS-2005>
-209.41926574707

> <b_mmod_Minimization_Converged-OPLS-2005>
0

> <r_mmod_RMS_Derivative-OPLS-2005>
3.29501938819885

$$$$
37
                    3D
 Structure written by MMmdl.
156164  0  0  1  0            999 V2000
  -30.6645  -14.5283   20.5608 C   0  0  0  0  0  0
  -30.4263  -12.3437   19.4227 C   0  0  0  0  0  0
  -29.4946  -12.5060   18.2040 C   0  0  0  0  0  0
  -28.0150  -12.3623   18.6143 C   0  0  0  0  0  0
  -27.6542  -13.2085   19.8655 C   0  0  2  0  0  0
  -28.6960  -13.0103   20.9871 C   0  0  0  0  0  0
  -25.2562  -13.8159   20.5677 C   0  0  0  0  0  0
  -24.1822  -13.0432   20.9184 C   0  0  0  0  0  0
  -24.6377  -11.6901   20.8721 C   0  0  0  0  0  0
  -23.9045  -10.4285   21.0388 C   0  0  0  0  0  0
  -24.3606   -9.4210   21.9171 C   0  0  0  0  0  0
  -23.6288   -8.2245   22.0744 C   0  0  0  0  0  0
  -22.4271   -8.0274   21.3536 C   0  0  0  0  0  0
  -21.9901   -9.0241   20.4638 C   0  0  0  0  0  0
  -22.7215  -10.2124   20.3042 C   0  0  0  0  0  0
  -21.6856   -6.0730   22.5272 C   0  0  0  0  0  0
  -21.4015   -6.5636   23.8202 C   0  0  0  0  0  0
  -21.3656   -5.6790   24.9167 C   0  0  0  0  0  0
  -21.6045   -4.3050   24.7221 C   0  0  0  0  0  0
  -21.8824   -3.8144   23.4342 C   0  0  0  0  0  0
  -21.9197   -4.6960   22.3399 C   0  0  0  0  0  0
  -22.7846  -13.5229   21.1851 C   0  0  0  0  0  0
  -22.1663   -4.2144   21.0974 F   0  0  0  0  0  0
  -21.5628   -3.4536   25.7737 F   0  0  0  0  0  0
  -30.0157  -13.3377   20.4270 N   0  0  0  0  0  0
  -26.2977  -12.9325   20.3310 N   0  0  0  0  0  0
  -25.9297  -11.6483   20.5731 N   0  0  0  0  0  0
  -22.0488  -12.8216   22.0399 N   0  0  0  0  0  0
  -25.4285  -15.1884   20.4103 N   0  0  0  0  0  0
  -31.8165  -14.7036   20.1547 O   0  0  0  0  0  0
  -21.6640   -6.8869   21.4232 O   0  0  0  0  0  0
  -22.3531  -14.5530   20.6688 O   0  0  0  0  0  0
  -24.6203  -31.8633   23.2068 C   0  0  0  0  0  0
  -25.9078  -32.4796   23.8378 C   0  0  1  0  0  0
  -27.2328  -27.3841   20.1110 C   0  0  0  0  0  0
  -25.5930  -33.8595   24.2320 N   0  0  0  0  0  0
  -23.4103  -30.4866   21.5476 C   0  0  2  0  0  0
  -24.8564  -28.9403   20.1206 C   0  0  0  0  0  0
  -22.7432  -29.4644   22.4967 C   0  0  0  0  0  0
  -18.0280  -28.1381   22.8496 C   0  0  0  0  0  0
  -24.1481  -36.7287   23.2643 C   0  0  0  0  0  0
  -25.9435  -30.8149   21.3649 C   0  0  0  0  0  0
  -26.0186  -29.4435   20.7165 C   0  0  0  0  0  0
  -27.2115  -28.6761   20.6999 C   0  0  0  0  0  0
  -26.0504  -26.9045   19.5108 C   0  0  0  0  0  0
  -24.8693  -27.6726   19.5133 C   0  0  0  0  0  0
  -23.6221  -29.8155   20.1640 C   0  0  0  0  0  0
  -25.4104  -36.3091   24.0344 C   0  0  1  0  0  0
  -20.5873  -28.3676   23.1308 C   0  0  2  0  0  0
  -20.6769  -26.9408   22.5416 C   0  0  0  0  0  0
  -19.5751  -26.6387   21.5212 C   0  0  0  0  0  0
  -18.1927  -26.7927   22.1621 C   0  0  0  0  0  0
  -19.1528  -28.8842   23.2901 C   0  0  0  0  0  0
  -18.9454  -30.1447   23.8921 C   0  0  0  0  0  0
  -17.6452  -30.6586   24.0567 C   0  0  0  0  0  0
  -25.9040  -34.9458   23.5122 C   0  0  0  0  0  0
  -16.5347  -29.9086   23.6328 C   0  0  0  0  0  0
  -16.7266  -28.6502   23.0355 C   0  0  0  0  0  0
  -26.4494  -31.6586   25.0720 C   0  0  0  0  0  0
  -25.3756  -31.3681   26.1463 C   0  0  0  0  0  0
  -27.0344  -30.3039   24.6100 C   0  0  0  0  0  0
  -27.6072  -32.4308   25.7480 C   0  0  0  0  0  0
  -27.5568  -37.1800   24.8472 C   0  0  0  0  0  0
  -21.4156  -29.3041   22.3709 N   0  0  0  0  0  0
  -26.4282  -37.3785   23.9415 N   0  0  0  0  0  0
  -24.6767  -31.0710   22.0978 N   0  0  0  0  0  0
  -23.4185  -28.8180   23.3021 O   0  0  0  0  0  0
  -28.4095  -26.6531   20.0585 O   0  0  0  0  0  0
  -26.5594  -34.8920   22.4680 O   0  0  0  0  0  0
  -23.5388  -32.1400   23.7438 O   0  0  0  0  0  0
  -28.3008  -21.6539   20.5524 C   0  0  0  0  0  0
  -28.6632  -22.7539   19.7123 C   0  0  0  0  0  0
  -29.0853  -20.5668   20.2319 C   0  0  0  0  0  0
  -30.9091  -20.3777   18.4101 C   0  0  0  0  0  0
  -28.0357  -24.1470   19.5197 C   0  0  0  0  0  0
  -29.0510  -19.1378   20.8091 C   0  0  0  0  0  0
  -30.1719  -18.0941   20.4609 C   0  0  0  0  0  0
  -30.3901  -16.8996   21.4575 C   0  0  0  0  0  0
  -28.4453  -25.2722   20.5233 C   0  0  0  0  0  0
  -29.6655  -22.3685   18.9292 N   0  0  0  0  0  0
  -29.9019  -21.0535   19.2095 N   0  0  0  0  0  0
  -29.9218  -15.5539   21.0446 N   0  0  0  0  0  0
  -27.0343  -21.6701   21.7256 Cl  0  0  0  0  0  0
  -31.4676  -12.4646   19.1185 H   0  0  0  0  0  0
  -30.3497  -11.3372   19.8368 H   0  0  0  0  0  0
  -29.7427  -11.7675   17.4401 H   0  0  0  0  0  0
  -29.6541  -13.4843   17.7470 H   0  0  0  0  0  0
  -27.8279  -11.3060   18.8132 H   0  0  0  0  0  0
  -27.3663  -12.6312   17.7795 H   0  0  0  0  0  0
  -27.6894  -14.2542   19.5585 H   0  0  0  0  0  0
  -28.6889  -11.9759   21.3349 H   0  0  0  0  0  0
  -28.4498  -13.6157   21.8614 H   0  0  0  0  0  0
  -25.2754   -9.5698   22.4737 H   0  0  0  0  0  0
  -24.0005   -7.4643   22.7466 H   0  0  0  0  0  0
  -21.0831   -8.8747   19.8945 H   0  0  0  0  0  0
  -22.3665  -10.9657   19.6149 H   0  0  0  0  0  0
  -21.2002   -7.6143   23.9702 H   0  0  0  0  0  0
  -21.1472   -6.0520   25.9067 H   0  0  0  0  0  0
  -22.0608   -2.7607   23.2842 H   0  0  0  0  0  0
  -22.4120  -11.9894   22.4804 H   0  0  0  0  0  0
  -21.1087  -13.1208   22.2565 H   0  0  0  0  0  0
  -24.6652  -15.8443   20.5347 H   0  0  0  0  0  0
  -26.2763  -15.6278   20.0739 H   0  0  0  0  0  0
  -26.7145  -32.5494   23.1134 H   0  0  0  0  0  0
  -25.0130  -33.9755   25.0501 H   0  0  0  0  0  0
  -22.7028  -31.3062   21.4043 H   0  0  0  0  0  0
  -23.3745  -35.9620   23.3318 H   0  0  0  0  0  0
  -24.3573  -36.8887   22.2055 H   0  0  0  0  0  0
  -23.7226  -37.6494   23.6646 H   0  0  0  0  0  0
  -26.0616  -31.5746   20.5910 H   0  0  0  0  0  0
  -26.8306  -30.8706   21.9838 H   0  0  0  0  0  0
  -28.1149  -29.0677   21.1459 H   0  0  0  0  0  0
  -26.0348  -25.9482   19.0134 H   0  0  0  0  0  0
  -23.9779  -27.2837   19.0423 H   0  0  0  0  0  0
  -23.7387  -30.5894   19.4040 H   0  0  0  0  0  0
  -22.7443  -29.2398   19.8650 H   0  0  0  0  0  0
  -25.1272  -36.1953   25.0837 H   0  0  0  0  0  0
  -20.9976  -28.3244   24.1424 H   0  0  0  0  0  0
  -20.5672  -26.2281   23.3606 H   0  0  0  0  0  0
  -21.6639  -26.7445   22.1207 H   0  0  0  0  0  0
  -19.6911  -25.6300   21.1237 H   0  0  0  0  0  0
  -19.6693  -27.3204   20.6749 H   0  0  0  0  0  0
  -17.4198  -26.6691   21.4019 H   0  0  0  0  0  0
  -18.0325  -26.0061   22.9007 H   0  0  0  0  0  0
  -19.7925  -30.7256   24.2308 H   0  0  0  0  0  0
  -17.5004  -31.6273   24.5155 H   0  0  0  0  0  0
  -15.5348  -30.2991   23.7636 H   0  0  0  0  0  0
  -15.8667  -28.0819   22.7066 H   0  0  0  0  0  0
  -24.5948  -30.7009   25.7790 H   0  0  0  0  0  0
  -24.8925  -32.2828   26.4913 H   0  0  0  0  0  0
  -25.8112  -30.8850   27.0220 H   0  0  0  0  0  0
  -26.2902  -29.6793   24.1145 H   0  0  0  0  0  0
  -27.4122  -29.7276   25.4553 H   0  0  0  0  0  0
  -27.8726  -30.4375   23.9257 H   0  0  0  0  0  0
  -27.2710  -33.3617   26.2056 H   0  0  0  0  0  0
  -28.3883  -32.6848   25.0302 H   0  0  0  0  0  0
  -28.0738  -31.8426   26.5393 H   0  0  0  0  0  0
  -28.2593  -38.0090   24.7514 H   0  0  0  0  0  0
  -28.1051  -36.2619   24.6299 H   0  0  0  0  0  0
  -27.2290  -37.1460   25.8879 H   0  0  0  0  0  0
  -20.9317  -29.8770   21.6935 H   0  0  0  0  0  0
  -26.0163  -38.2859   24.1421 H   0  0  0  0  0  0
  -31.7856  -20.1542   19.0172 H   0  0  0  0  0  0
  -31.2280  -21.0066   17.5775 H   0  0  0  0  0  0
  -30.5014  -19.4563   17.9960 H   0  0  0  0  0  0
  -26.9525  -24.0365   19.5392 H   0  0  0  0  0  0
  -28.2681  -24.4972   18.5138 H   0  0  0  0  0  0
  -28.0885  -18.6928   20.5546 H   0  0  0  0  0  0
  -29.0251  -19.2427   21.8936 H   0  0  0  0  0  0
  -31.1148  -18.6374   20.4881 H   0  0  0  0  0  0
  -30.0628  -17.7318   19.4390 H   0  0  0  0  0  0
  -29.9407  -17.1344   22.4229 H   0  0  0  0  0  0
  -31.4589  -16.8248   21.6694 H   0  0  0  0  0  0
  -29.4892  -25.1034   20.7897 H   0  0  0  0  0  0
  -27.8899  -25.1674   21.4565 H   0  0  0  0  0  0
  -28.9667  -15.3226   21.2766 H   0  0  0  0  0  0
  1 25  1  0  0  0
  1 30  2  0  0  0
  1 82  1  0  0  0
  2  3  1  0  0  0
  2 25  1  0  0  0
  2 84  1  0  0  0
  2 85  1  0  0  0
  3  4  1  0  0  0
  3 86  1  0  0  0
  3 87  1  0  0  0
  4  5  1  0  0  0
  4 88  1  0  0  0
  4 89  1  0  0  0
  5  6  1  0  0  0
  5 26  1  0  0  0
  5 90  1  0  0  0
  6 25  1  0  0  0
  6 91  1  0  0  0
  6 92  1  0  0  0
  7  8  2  0  0  0
  7 26  1  0  0  0
  7 29  1  0  0  0
  8  9  1  0  0  0
  8 22  1  0  0  0
  9 10  1  0  0  0
  9 27  2  0  0  0
 10 11  2  0  0  0
 10 15  1  0  0  0
 11 12  1  0  0  0
 11 93  1  0  0  0
 12 13  2  0  0  0
 12 94  1  0  0  0
 13 14  1  0  0  0
 13 31  1  0  0  0
 14 15  2  0  0  0
 14 95  1  0  0  0
 15 96  1  0  0  0
 16 17  2  0  0  0
 16 21  1  0  0  0
 16 31  1  0  0  0
 17 18  1  0  0  0
 17 97  1  0  0  0
 18 19  2  0  0  0
 18 98  1  0  0  0
 19 20  1  0  0  0
 19 24  1  0  0  0
 20 21  2  0  0  0
 20 99  1  0  0  0
 21 23  1  0  0  0
 22 28  1  0  0  0
 22 32  2  0  0  0
 26 27  1  0  0  0
 28100  1  0  0  0
 28101  1  0  0  0
 29102  1  0  0  0
 29103  1  0  0  0
 33 34  1  0  0  0
 33 66  1  0  0  0
 33 70  2  0  0  0
 34 36  1  0  0  0
 34 59  1  0  0  0
 34104  1  0  0  0
 35 44  2  0  0  0
 35 45  1  0  0  0
 35 68  1  0  0  0
 36 56  1  0  0  0
 36105  1  0  0  0
 37 39  1  0  0  0
 37 47  1  0  0  0
 37 66  1  0  0  0
 37106  1  0  0  0
 38 43  2  0  0  0
 38 46  1  0  0  0
 38 47  1  0  0  0
 39 64  1  0  0  0
 39 67  2  0  0  0
 40 52  1  0  0  0
 40 53  2  0  0  0
 40 58  1  0  0  0
 41107  1  0  0  0
 41108  1  0  0  0
 41109  1  0  0  0
 41 48  1  0  0  0
 42 43  1  0  0  0
 42 66  1  0  0  0
 42110  1  0  0  0
 42111  1  0  0  0
 43 44  1  0  0  0
 44112  1  0  0  0
 45 46  2  0  0  0
 45113  1  0  0  0
 46114  1  0  0  0
 47115  1  0  0  0
 47116  1  0  0  0
 48 56  1  0  0  0
 48 65  1  0  0  0
 48117  1  0  0  0
 49 50  1  0  0  0
 49 53  1  0  0  0
 49 64  1  0  0  0
 49118  1  0  0  0
 50 51  1  0  0  0
 50119  1  0  0  0
 50120  1  0  0  0
 51 52  1  0  0  0
 51121  1  0  0  0
 51122  1  0  0  0
 52123  1  0  0  0
 52124  1  0  0  0
 53 54  1  0  0  0
 54 55  2  0  0  0
 54125  1  0  0  0
 55 57  1  0  0  0
 55126  1  0  0  0
 56 69  2  0  0  0
 57 58  2  0  0  0
 57127  1  0  0  0
 58128  1  0  0  0
 59 60  1  0  0  0
 59 61  1  0  0  0
 59 62  1  0  0  0
 60129  1  0  0  0
 60130  1  0  0  0
 60131  1  0  0  0
 61132  1  0  0  0
 61133  1  0  0  0
 61134  1  0  0  0
 62135  1  0  0  0
 62136  1  0  0  0
 62137  1  0  0  0
 63 65  1  0  0  0
 63138  1  0  0  0
 63139  1  0  0  0
 63140  1  0  0  0
 64141  1  0  0  0
 65142  1  0  0  0
 68 79  1  0  0  0
 71 72  1  0  0  0
 71 73  2  0  0  0
 71 83  1  0  0  0
 72 75  1  0  0  0
 72 80  2  0  0  0
 73 76  1  0  0  0
 73 81  1  0  0  0
 74 81  1  0  0  0
 74143  1  0  0  0
 74144  1  0  0  0
 74145  1  0  0  0
 75 79  1  0  0  0
 75146  1  0  0  0
 75147  1  0  0  0
 76 77  1  0  0  0
 76148  1  0  0  0
 76149  1  0  0  0
 77 78  1  0  0  0
 77150  1  0  0  0
 77151  1  0  0  0
 78 82  1  0  0  0
 78152  1  0  0  0
 78153  1  0  0  0
 79154  1  0  0  0
 79155  1  0  0  0
 80 81  1  0  0  0
 82156  1  0  0  0
M  ISO  4   1 100  68 101  79 101  82 100
M  END
> <chiral flag>
0

> <version>
0

> <s_m_source_file>
/data/baiqing/PycharmProjects/Reinvent-master-3.2/result/LINK_invent/BTK/process_docking_weight1_custom_sum_contain_oxygen_bond_distance_aromatic_linkinvent_7_9_3/rearranged_h_0039.sdf

> <i_m_source_file_index>
37

> <r_mmod_Potential_Energy-OPLS-2005>
-32.8071556091309

> <r_mmod_Stretch_Energy-OPLS-2005>
49.2525405883789

> <r_mmod_Bend_Energy-OPLS-2005>
136.287460327148

> <r_mmod_Torsional_Energy-OPLS-2005>
229.821319580078

> <r_mmod_Improper_Torsional_Energy-OPLS-2005>
3.66419696807861

> <r_mmod_Van_der_Waal_Energy-OPLS-2005>
120.032341003418

> <r_mmod_Electrostatic_Energy-OPLS-2005>
-369.833038330078

> <r_mmod_Solvation_Energy-OPLS-2005>
-222.159118652344

> <b_mmod_Minimization_Converged-OPLS-2005>
0

> <r_mmod_RMS_Derivative-OPLS-2005>
1.20832848548889

$$$$
38
                    3D
 Structure written by MMmdl.
176185  0  0  1  0            999 V2000
  -30.6899  -14.4294   20.6101 C   0  0  0  0  0  0
  -30.4249  -12.2955   19.3960 C   0  0  0  0  0  0
  -29.4814  -12.5043   18.1914 C   0  0  0  0  0  0
  -28.0047  -12.3660   18.6134 C   0  0  0  0  0  0
  -27.6619  -13.1947   19.8778 C   0  0  2  0  0  0
  -28.7056  -12.9457   20.9894 C   0  0  0  0  0  0
  -25.2608  -13.8142   20.5678 C   0  0  0  0  0  0
  -24.1848  -13.0433   20.9187 C   0  0  0  0  0  0
  -24.6380  -11.6889   20.8745 C   0  0  0  0  0  0
  -23.9061  -10.4274   21.0425 C   0  0  0  0  0  0
  -24.3614   -9.4198   21.9206 C   0  0  0  0  0  0
  -23.6280   -8.2243   22.0791 C   0  0  0  0  0  0
  -22.4263   -8.0284   21.3580 C   0  0  0  0  0  0
  -21.9902   -9.0258   20.4677 C   0  0  0  0  0  0
  -22.7240  -10.2130   20.3075 C   0  0  0  0  0  0
  -21.6852   -6.0731   22.5282 C   0  0  0  0  0  0
  -21.4008   -6.5638   23.8216 C   0  0  0  0  0  0
  -21.3646   -5.6798   24.9182 C   0  0  0  0  0  0
  -21.6038   -4.3063   24.7237 C   0  0  0  0  0  0
  -21.8828   -3.8154   23.4363 C   0  0  0  0  0  0
  -21.9196   -4.6958   22.3414 C   0  0  0  0  0  0
  -22.7878  -13.5244   21.1873 C   0  0  0  0  0  0
  -22.1682   -4.2142   21.0998 F   0  0  0  0  0  0
  -21.5618   -3.4549   25.7758 F   0  0  0  0  0  0
  -30.0361  -13.2520   20.4414 N   0  0  0  0  0  0
  -26.3021  -12.9283   20.3373 N   0  0  0  0  0  0
  -25.9297  -11.6451   20.5757 N   0  0  0  0  0  0
  -22.0535  -12.8202   22.0412 N   0  0  0  0  0  0
  -25.4347  -15.1845   20.4104 N   0  0  0  0  0  0
  -31.8080  -14.6356   20.1255 O   0  0  0  0  0  0
  -21.6650   -6.8872   21.4246 O   0  0  0  0  0  0
  -22.3562  -14.5561   20.6752 O   0  0  0  0  0  0
  -24.6126  -31.8701   23.2120 C   0  0  0  0  0  0
  -25.9028  -32.4832   23.8402 C   0  0  1  0  0  0
  -27.2286  -27.4596   20.0978 C   0  0  0  0  0  0
  -25.5900  -33.8627   24.2341 N   0  0  0  0  0  0
  -23.3971  -30.4943   21.5522 C   0  0  2  0  0  0
  -24.8423  -28.9639   20.1136 C   0  0  0  0  0  0
  -22.7396  -29.4677   22.4998 C   0  0  0  0  0  0
  -18.0266  -28.1386   22.8493 C   0  0  0  0  0  0
  -24.1488  -36.7311   23.2639 C   0  0  0  0  0  0
  -25.9235  -30.8440   21.3604 C   0  0  0  0  0  0
  -26.0009  -29.4806   20.7082 C   0  0  0  0  0  0
  -27.1994  -28.7360   20.6955 C   0  0  0  0  0  0
  -26.0588  -26.9551   19.4883 C   0  0  0  0  0  0
  -24.8652  -27.6988   19.5005 C   0  0  0  0  0  0
  -23.6030  -29.8265   20.1662 C   0  0  0  0  0  0
  -25.4108  -36.3113   24.0342 C   0  0  1  0  0  0
  -20.5861  -28.3670   23.1329 C   0  0  2  0  0  0
  -20.6763  -26.9405   22.5424 C   0  0  0  0  0  0
  -19.5746  -26.6391   21.5216 C   0  0  0  0  0  0
  -18.1919  -26.7934   22.1620 C   0  0  0  0  0  0
  -19.1516  -28.8840   23.2908 C   0  0  0  0  0  0
  -18.9444  -30.1449   23.8915 C   0  0  0  0  0  0
  -17.6442  -30.6594   24.0572 C   0  0  0  0  0  0
  -25.9035  -34.9484   23.5139 C   0  0  0  0  0  0
  -16.5336  -29.9093   23.6325 C   0  0  0  0  0  0
  -16.7257  -28.6515   23.0343 C   0  0  0  0  0  0
  -26.4466  -31.6590   25.0715 C   0  0  0  0  0  0
  -25.3728  -31.3658   26.1452 C   0  0  0  0  0  0
  -27.0310  -30.3049   24.6058 C   0  0  0  0  0  0
  -27.6036  -32.4303   25.7492 C   0  0  0  0  0  0
  -27.5581  -37.1810   24.8464 C   0  0  0  0  0  0
  -21.4128  -29.3032   22.3740 N   0  0  0  0  0  0
  -26.4294  -37.3798   23.9414 N   0  0  0  0  0  0
  -24.6620  -31.0823   22.1003 N   0  0  0  0  0  0
  -23.4178  -28.8226   23.3041 O   0  0  0  0  0  0
  -28.4000  -26.7405   20.1008 O   0  0  0  0  0  0
  -26.5590  -34.8927   22.4695 O   0  0  0  0  0  0
  -23.5323  -32.1445   23.7532 O   0  0  0  0  0  0
  -32.5812  -24.7679   20.6694 C   0  0  0  0  0  0
  -31.1655  -24.8545   20.5186 C   0  0  0  0  0  0
  -30.5308  -25.1142   21.7048 C   0  0  0  0  0  0
  -33.0035  -24.9619   21.9607 C   0  0  0  0  0  0
  -30.4137  -24.6991   19.2256 C   0  0  0  0  0  0
  -29.0543  -25.2422   21.8851 C   0  0  0  0  0  0
  -28.9014  -24.4730   19.4463 C   0  0  0  0  0  0
  -28.3040  -25.3812   20.5426 C   0  0  2  0  0  0
  -34.4071  -24.9252   22.4757 C   0  0  0  0  0  0
  -29.9490  -15.5943   21.3093 C   0  0  0  0  0  0
  -34.7556  -23.6573   23.2765 C   0  0  0  0  0  0
  -30.5449  -17.0047   21.0669 C   0  0  0  0  0  0
  -34.4618  -22.3497   22.5204 C   0  0  0  0  0  0
  -31.3765  -17.5607   22.2397 C   0  0  0  0  0  0
  -34.9385  -21.0926   23.2682 C   0  0  0  0  0  0
  -32.6326  -18.3157   21.7738 C   0  0  0  0  0  0
  -34.5895  -19.7990   22.5119 C   0  0  0  0  0  0
  -33.1786  -19.2799   22.8368 C   0  0  0  0  0  0
  -31.6560  -25.2705   23.0261 S   0  0  0  0  0  0
  -31.4637  -12.4159   19.0822 H   0  0  0  0  0  0
  -30.3446  -11.2761   19.7760 H   0  0  0  0  0  0
  -29.7079  -11.7848   17.4043 H   0  0  0  0  0  0
  -29.6448  -13.4939   17.7586 H   0  0  0  0  0  0
  -27.8096  -11.3105   18.8026 H   0  0  0  0  0  0
  -27.3489  -12.6533   17.7907 H   0  0  0  0  0  0
  -27.7131  -14.2428   19.5877 H   0  0  0  0  0  0
  -28.6762  -11.9024   21.3075 H   0  0  0  0  0  0
  -28.4711  -13.5233   21.8847 H   0  0  0  0  0  0
  -25.2760   -9.5678   22.4782 H   0  0  0  0  0  0
  -23.9998   -7.4631   22.7503 H   0  0  0  0  0  0
  -21.0850   -8.8775   19.8958 H   0  0  0  0  0  0
  -22.3710  -10.9681   19.6193 H   0  0  0  0  0  0
  -21.2010   -7.6150   23.9713 H   0  0  0  0  0  0
  -21.1447   -6.0537   25.9079 H   0  0  0  0  0  0
  -22.0612   -2.7618   23.2875 H   0  0  0  0  0  0
  -22.4156  -11.9798   22.4675 H   0  0  0  0  0  0
  -21.1180  -13.1233   22.2731 H   0  0  0  0  0  0
  -24.6725  -15.8425   20.5287 H   0  0  0  0  0  0
  -26.2980  -15.6233   20.1141 H   0  0  0  0  0  0
  -26.7109  -32.5559   23.1177 H   0  0  0  0  0  0
  -25.0083  -33.9793   25.0511 H   0  0  0  0  0  0
  -22.6844  -31.3103   21.4150 H   0  0  0  0  0  0
  -23.3758  -35.9633   23.3294 H   0  0  0  0  0  0
  -24.3585  -36.8930   22.2054 H   0  0  0  0  0  0
  -23.7225  -37.6508   23.6658 H   0  0  0  0  0  0
  -26.0296  -31.6095   20.5898 H   0  0  0  0  0  0
  -26.8156  -30.8995   21.9736 H   0  0  0  0  0  0
  -28.0959  -29.1282   21.1559 H   0  0  0  0  0  0
  -26.0680  -25.9908   19.0002 H   0  0  0  0  0  0
  -23.9764  -27.2978   19.0337 H   0  0  0  0  0  0
  -23.7078  -30.6008   19.4055 H   0  0  0  0  0  0
  -22.7283  -29.2423   19.8738 H   0  0  0  0  0  0
  -25.1278  -36.1979   25.0834 H   0  0  0  0  0  0
  -20.9948  -28.3233   24.1453 H   0  0  0  0  0  0
  -20.5684  -26.2265   23.3605 H   0  0  0  0  0  0
  -21.6634  -26.7469   22.1206 H   0  0  0  0  0  0
  -19.6908  -25.6308   21.1231 H   0  0  0  0  0  0
  -19.6691  -27.3208   20.6752 H   0  0  0  0  0  0
  -17.4200  -26.6700   21.4008 H   0  0  0  0  0  0
  -18.0302  -26.0068   22.9003 H   0  0  0  0  0  0
  -19.7922  -30.7256   24.2291 H   0  0  0  0  0  0
  -17.5007  -31.6272   24.5177 H   0  0  0  0  0  0
  -15.5337  -30.3002   23.7644 H   0  0  0  0  0  0
  -15.8661  -28.0839   22.7041 H   0  0  0  0  0  0
  -24.5939  -30.6962   25.7771 H   0  0  0  0  0  0
  -24.8866  -32.2794   26.4886 H   0  0  0  0  0  0
  -25.8093  -30.8845   27.0215 H   0  0  0  0  0  0
  -26.2856  -29.6809   24.1115 H   0  0  0  0  0  0
  -27.4109  -29.7272   25.4492 H   0  0  0  0  0  0
  -27.8663  -30.4391   23.9184 H   0  0  0  0  0  0
  -27.2650  -33.3588   26.2099 H   0  0  0  0  0  0
  -28.3837  -32.6881   25.0318 H   0  0  0  0  0  0
  -28.0711  -31.8403   26.5385 H   0  0  0  0  0  0
  -28.2588  -38.0119   24.7542 H   0  0  0  0  0  0
  -28.1092  -36.2654   24.6263 H   0  0  0  0  0  0
  -27.2306  -37.1423   25.8867 H   0  0  0  0  0  0
  -20.9286  -29.8737   21.6948 H   0  0  0  0  0  0
  -26.0183  -38.2873   24.1427 H   0  0  0  0  0  0
  -33.2346  -24.5633   19.8327 H   0  0  0  0  0  0
  -30.8236  -23.8805   18.6334 H   0  0  0  0  0  0
  -30.5488  -25.5989   18.6250 H   0  0  0  0  0  0
  -28.8187  -26.0830   22.5391 H   0  0  0  0  0  0
  -28.6939  -24.3502   22.3996 H   0  0  0  0  0  0
  -28.7476  -23.4369   19.7504 H   0  0  0  0  0  0
  -28.3595  -24.5934   18.5079 H   0  0  0  0  0  0
  -27.2707  -25.0836   20.7281 H   0  0  0  0  0  0
  -34.5841  -25.8038   23.0982 H   0  0  0  0  0  0
  -35.0996  -25.0179   21.6366 H   0  0  0  0  0  0
  -28.9318  -15.6201   20.9209 H   0  0  0  0  0  0
  -29.8569  -15.3813   22.3747 H   0  0  0  0  0  0
  -34.1973  -23.6598   24.2134 H   0  0  0  0  0  0
  -35.8113  -23.6962   23.5493 H   0  0  0  0  0  0
  -29.7281  -17.7028   20.8750 H   0  0  0  0  0  0
  -31.1290  -17.0229   20.1448 H   0  0  0  0  0  0
  -34.9436  -22.3882   21.5428 H   0  0  0  0  0  0
  -33.3916  -22.2713   22.3307 H   0  0  0  0  0  0
  -31.6779  -16.7625   22.9198 H   0  0  0  0  0  0
  -30.7418  -18.2261   22.8302 H   0  0  0  0  0  0
  -34.5162  -21.0637   24.2741 H   0  0  0  0  0  0
  -36.0182  -21.1522   23.4008 H   0  0  0  0  0  0
  -32.4059  -18.8897   20.8743 H   0  0  0  0  0  0
  -33.3959  -17.5890   21.4883 H   0  0  0  0  0  0
  -35.3118  -19.0228   22.7683 H   0  0  0  0  0  0
  -34.7021  -19.9645   21.4377 H   0  0  0  0  0  0
  -33.2023  -18.7910   23.8126 H   0  0  0  0  0  0
  -32.4836  -20.1162   22.9322 H   0  0  0  0  0  0
  1 25  1  0  0  0
  1 30  2  0  0  0
  1 80  1  0  0  0
  2  3  1  0  0  0
  2 25  1  0  0  0
  2 90  1  0  0  0
  2 91  1  0  0  0
  3  4  1  0  0  0
  3 92  1  0  0  0
  3 93  1  0  0  0
  4  5  1  0  0  0
  4 94  1  0  0  0
  4 95  1  0  0  0
  5  6  1  0  0  0
  5 26  1  0  0  0
  5 96  1  0  0  0
  6 25  1  0  0  0
  6 97  1  0  0  0
  6 98  1  0  0  0
  7  8  2  0  0  0
  7 26  1  0  0  0
  7 29  1  0  0  0
  8  9  1  0  0  0
  8 22  1  0  0  0
  9 10  1  0  0  0
  9 27  2  0  0  0
 10 11  2  0  0  0
 10 15  1  0  0  0
 11 12  1  0  0  0
 11 99  1  0  0  0
 12 13  2  0  0  0
 12100  1  0  0  0
 13 14  1  0  0  0
 13 31  1  0  0  0
 14 15  2  0  0  0
 14101  1  0  0  0
 15102  1  0  0  0
 16 17  2  0  0  0
 16 21  1  0  0  0
 16 31  1  0  0  0
 17 18  1  0  0  0
 17103  1  0  0  0
 18 19  2  0  0  0
 18104  1  0  0  0
 19 20  1  0  0  0
 19 24  1  0  0  0
 20 21  2  0  0  0
 20105  1  0  0  0
 21 23  1  0  0  0
 22 28  1  0  0  0
 22 32  2  0  0  0
 26 27  1  0  0  0
 28106  1  0  0  0
 28107  1  0  0  0
 29108  1  0  0  0
 29109  1  0  0  0
 33 34  1  0  0  0
 33 66  1  0  0  0
 33 70  2  0  0  0
 34 36  1  0  0  0
 34 59  1  0  0  0
 34110  1  0  0  0
 35 44  2  0  0  0
 35 45  1  0  0  0
 35 68  1  0  0  0
 36 56  1  0  0  0
 36111  1  0  0  0
 37 39  1  0  0  0
 37 47  1  0  0  0
 37 66  1  0  0  0
 37112  1  0  0  0
 38 43  2  0  0  0
 38 46  1  0  0  0
 38 47  1  0  0  0
 39 64  1  0  0  0
 39 67  2  0  0  0
 40 52  1  0  0  0
 40 53  2  0  0  0
 40 58  1  0  0  0
 41113  1  0  0  0
 41114  1  0  0  0
 41115  1  0  0  0
 41 48  1  0  0  0
 42 43  1  0  0  0
 42 66  1  0  0  0
 42116  1  0  0  0
 42117  1  0  0  0
 43 44  1  0  0  0
 44118  1  0  0  0
 45 46  2  0  0  0
 45119  1  0  0  0
 46120  1  0  0  0
 47121  1  0  0  0
 47122  1  0  0  0
 48 56  1  0  0  0
 48 65  1  0  0  0
 48123  1  0  0  0
 49 50  1  0  0  0
 49 53  1  0  0  0
 49 64  1  0  0  0
 49124  1  0  0  0
 50 51  1  0  0  0
 50125  1  0  0  0
 50126  1  0  0  0
 51 52  1  0  0  0
 51127  1  0  0  0
 51128  1  0  0  0
 52129  1  0  0  0
 52130  1  0  0  0
 53 54  1  0  0  0
 54 55  2  0  0  0
 54131  1  0  0  0
 55 57  1  0  0  0
 55132  1  0  0  0
 56 69  2  0  0  0
 57 58  2  0  0  0
 57133  1  0  0  0
 58134  1  0  0  0
 59 60  1  0  0  0
 59 61  1  0  0  0
 59 62  1  0  0  0
 60135  1  0  0  0
 60136  1  0  0  0
 60137  1  0  0  0
 61138  1  0  0  0
 61139  1  0  0  0
 61140  1  0  0  0
 62141  1  0  0  0
 62142  1  0  0  0
 62143  1  0  0  0
 63 65  1  0  0  0
 63144  1  0  0  0
 63145  1  0  0  0
 63146  1  0  0  0
 64147  1  0  0  0
 65148  1  0  0  0
 68 78  1  0  0  0
 71 72  1  0  0  0
 71 74  2  0  0  0
 71149  1  0  0  0
 72 73  2  0  0  0
 72 75  1  0  0  0
 73 76  1  0  0  0
 73 89  1  0  0  0
 74 79  1  0  0  0
 74 89  1  0  0  0
 75 77  1  0  0  0
 75150  1  0  0  0
 75151  1  0  0  0
 76 78  1  0  0  0
 76152  1  0  0  0
 76153  1  0  0  0
 77 78  1  0  0  0
 77154  1  0  0  0
 77155  1  0  0  0
 78156  1  0  0  0
 79 81  1  0  0  0
 79157  1  0  0  0
 79158  1  0  0  0
 80 82  1  0  0  0
 80159  1  0  0  0
 80160  1  0  0  0
 81 83  1  0  0  0
 81161  1  0  0  0
 81162  1  0  0  0
 82 84  1  0  0  0
 82163  1  0  0  0
 82164  1  0  0  0
 83 85  1  0  0  0
 83165  1  0  0  0
 83166  1  0  0  0
 84 86  1  0  0  0
 84167  1  0  0  0
 84168  1  0  0  0
 85 87  1  0  0  0
 85169  1  0  0  0
 85170  1  0  0  0
 86 88  1  0  0  0
 86171  1  0  0  0
 86172  1  0  0  0
 87 88  1  0  0  0
 87173  1  0  0  0
 87174  1  0  0  0
 88175  1  0  0  0
 88176  1  0  0  0
M  ISO  4   1 100  68 101  78 101  80 100
M  END
> <chiral flag>
0

> <version>
0

> <s_m_source_file>
/data/baiqing/PycharmProjects/Reinvent-master-3.2/result/LINK_invent/BTK/process_docking_weight1_custom_sum_contain_oxygen_bond_distance_aromatic_linkinvent_7_9_3/rearranged_h_0039.sdf

> <i_m_source_file_index>
38

> <r_mmod_Potential_Energy-OPLS-2005>
-26.5924301147461

> <r_mmod_Stretch_Energy-OPLS-2005>
31.7991847991943

> <r_mmod_Bend_Energy-OPLS-2005>
95.873176574707

> <r_mmod_Torsional_Energy-OPLS-2005>
199.897033691406

> <r_mmod_Improper_Torsional_Energy-OPLS-2005>
2.81363344192505

> <r_mmod_Van_der_Waal_Energy-OPLS-2005>
133.230392456055

> <r_mmod_Electrostatic_Energy-OPLS-2005>
-314.445068359375

> <r_mmod_Solvation_Energy-OPLS-2005>
-185.350875854492

> <b_mmod_Minimization_Converged-OPLS-2005>
0

> <r_mmod_RMS_Derivative-OPLS-2005>
2.31421661376953

$$$$
39
                    3D
 Structure written by MMmdl.
162170  0  0  1  0            999 V2000
  -28.4933  -16.6328   20.7933 C   0  0  0  0  0  0
  -29.8933  -14.1397   19.7445 C   0  0  0  0  0  0
  -29.4648  -13.0991   18.5902 C   0  0  0  0  0  0
  -28.1945  -12.3325   18.9517 C   0  0  0  0  0  0
  -27.4049  -13.2927   19.8354 C   0  0  2  0  0  0
  -28.1337  -13.8663   21.0563 C   0  0  0  0  0  0
  -25.1274  -13.8024   20.5531 C   0  0  0  0  0  0
  -24.0942  -13.0185   20.9384 C   0  0  0  0  0  0
  -24.5748  -11.6714   20.8861 C   0  0  0  0  0  0
  -23.8683  -10.4125   21.0527 C   0  0  0  0  0  0
  -24.3402   -9.4104   21.9257 C   0  0  0  0  0  0
  -23.6180   -8.2096   22.0774 C   0  0  0  0  0  0
  -22.4172   -8.0132   21.3544 C   0  0  0  0  0  0
  -21.9721   -9.0061   20.4650 C   0  0  0  0  0  0
  -22.6947  -10.1968   20.3103 C   0  0  0  0  0  0
  -21.6803   -6.0661   22.5301 C   0  0  0  0  0  0
  -21.3982   -6.5600   23.8227 C   0  0  0  0  0  0
  -21.3641   -5.6765   24.9196 C   0  0  0  0  0  0
  -21.6027   -4.3030   24.7245 C   0  0  0  0  0  0
  -21.8827   -3.8107   23.4378 C   0  0  0  0  0  0
  -21.9189   -4.6906   22.3429 C   0  0  0  0  0  0
  -22.7101  -13.5028   21.2111 C   0  0  0  0  0  0
  -22.1658   -4.2098   21.1003 F   0  0  0  0  0  0
  -21.5630   -3.4533   25.7764 F   0  0  0  0  0  0
  -28.7480  -15.0688   20.4892 N   0  0  0  0  0  0
  -26.1344  -12.9110   20.2723 N   0  0  0  0  0  0
  -25.8522  -11.6283   20.5478 N   0  0  0  0  0  0
  -21.9818  -12.8074   22.0724 N   0  0  0  0  0  0
  -25.2911  -15.1813   20.3842 N   0  0  0  0  0  0
  -29.7935  -16.7550   20.6798 O   0  0  0  0  0  0
  -21.6564   -6.8746   21.4242 O   0  0  0  0  0  0
  -22.2912  -14.5390   20.6954 O   0  0  0  0  0  0
  -24.7196  -32.0328   23.1071 C   0  0  0  0  0  0
  -25.9781  -32.5534   23.8437 C   0  0  1  0  0  0
  -26.8262  -27.3548   20.6273 C   0  0  0  0  0  0
  -25.6468  -33.9125   24.2565 N   0  0  0  0  0  0
  -23.6515  -30.7311   21.3121 C   0  0  2  0  0  0
  -25.0336  -29.2294   19.8230 C   0  0  0  0  0  0
  -23.4951  -29.5028   22.1269 C   0  0  0  0  0  0
  -18.3906  -26.9046   23.3225 C   0  0  0  0  0  0
  -24.1498  -36.7530   23.2590 C   0  0  0  0  0  0
  -26.1276  -30.9960   21.2756 C   0  0  0  0  0  0
  -26.1458  -29.6313   20.5804 C   0  0  0  0  0  0
  -27.1553  -28.7009   20.8589 C   0  0  0  0  0  0
  -25.9417  -26.9942   19.6012 C   0  0  0  0  0  0
  -24.9492  -27.9294   19.2742 C   0  0  0  0  0  0
  -23.8825  -30.2168   19.8468 C   0  0  0  0  0  0
  -25.4110  -36.3396   24.0319 C   0  0  1  0  0  0
  -22.2038  -27.2872   22.0456 C   0  0  2  0  0  0
  -21.5583  -26.1499   20.5898 C   0  0  0  0  0  0
  -19.7493  -25.3962   20.7273 C   0  0  0  0  0  0
  -18.4300  -25.7248   22.0527 C   0  0  0  0  0  0
  -19.8104  -27.3003   23.9644 C   0  0  0  0  0  0
  -19.2523  -28.6053   24.6951 C   0  0  0  0  0  0
  -18.1359  -29.5372   24.4669 C   0  0  0  0  0  0
  -25.9168  -34.9871   23.5114 C   0  0  0  0  0  0
  -17.0653  -29.1404   23.6773 C   0  0  0  0  0  0
  -17.2092  -27.8157   23.1869 C   0  0  0  0  0  0
  -26.4554  -31.6945   25.0806 C   0  0  0  0  0  0
  -25.3413  -31.3795   26.1032 C   0  0  0  0  0  0
  -27.0684  -30.3574   24.6216 C   0  0  0  0  0  0
  -27.5886  -32.4473   25.8132 C   0  0  0  0  0  0
  -27.5622  -37.1954   24.8442 C   0  0  0  0  0  0
  -22.8180  -28.5425   21.5505 N   0  0  0  0  0  0
  -26.4270  -37.4085   23.9495 N   0  0  0  0  0  0
  -24.8432  -31.3512   21.9192 N   0  0  0  0  0  0
  -24.0043  -29.3855   23.2265 O   0  0  0  0  0  0
  -26.6007  -26.5877   21.7605 O   0  0  0  0  0  0
  -26.5520  -34.9283   22.4545 O   0  0  0  0  0  0
  -23.6111  -32.2414   23.6346 O   0  0  0  0  0  0
  -21.7176  -28.7179   23.9180 C   0  0  0  0  0  0
  -21.9188  -25.8918   24.0311 C   0  0  0  0  0  0
  -22.5108  -27.3039   24.3615 C   0  0  0  0  0  0
  -20.6285  -28.9499   22.5762 C   0  0  0  0  0  0
  -21.0624  -25.5073   22.7734 C   0  0  0  0  0  0
  -20.0910  -27.4953   21.7909 C   0  0  0  0  0  0
  -20.3626  -30.8726   20.7939 C   0  0  0  0  0  0
  -24.2477  -26.9684   24.1556 C   0  0  0  0  0  0
  -20.1148  -30.3565   22.2157 C   0  0  0  0  0  0
  -22.2777  -23.4679   22.2380 C   0  0  0  0  0  0
  -24.1180  -21.7115   21.6245 C   0  0  0  0  0  0
  -25.8507  -19.7613   21.6716 C   0  0  0  0  0  0
  -25.6382  -27.1804   22.9625 C   0  0  0  0  0  0
  -27.0698  -17.8916   21.0778 N   0  0  0  0  0  0
  -19.2024  -28.0041   20.3262 Cl  0  0  0  0  0  0
  -30.5829  -14.8333   19.2629 H   0  0  0  0  0  0
  -30.5272  -13.6442   20.4835 H   0  0  0  0  0  0
  -30.2823  -12.4196   18.3463 H   0  0  0  0  0  0
  -29.2685  -13.6709   17.6823 H   0  0  0  0  0  0
  -28.4443  -11.4322   19.5130 H   0  0  0  0  0  0
  -27.6397  -12.0278   18.0654 H   0  0  0  0  0  0
  -27.1801  -14.0932   19.1248 H   0  0  0  0  0  0
  -28.7773  -13.1438   21.5666 H   0  0  0  0  0  0
  -27.4519  -14.2166   21.8342 H   0  0  0  0  0  0
  -25.2536   -9.5658   22.4825 H   0  0  0  0  0  0
  -23.9929   -7.4485   22.7467 H   0  0  0  0  0  0
  -21.0669   -8.8521   19.8957 H   0  0  0  0  0  0
  -22.3386  -10.9512   19.6231 H   0  0  0  0  0  0
  -21.1960   -7.6112   23.9712 H   0  0  0  0  0  0
  -21.1455   -6.0505   25.9095 H   0  0  0  0  0  0
  -22.0627   -2.7576   23.2894 H   0  0  0  0  0  0
  -22.3436  -11.9708   22.5057 H   0  0  0  0  0  0
  -21.0464  -13.1142   22.3010 H   0  0  0  0  0  0
  -24.4174  -15.6970   20.3636 H   0  0  0  0  0  0
  -25.8977  -15.4542   19.6212 H   0  0  0  0  0  0
  -26.8266  -32.6300   23.1685 H   0  0  0  0  0  0
  -25.0673  -34.0171   25.0769 H   0  0  0  0  0  0
  -22.7990  -31.4004   21.3893 H   0  0  0  0  0  0
  -23.3809  -35.9812   23.3181 H   0  0  0  0  0  0
  -24.3617  -36.9221   22.2026 H   0  0  0  0  0  0
  -23.7161  -37.6685   23.6627 H   0  0  0  0  0  0
  -26.3660  -31.7648   20.5392 H   0  0  0  0  0  0
  -26.9593  -30.9791   21.9709 H   0  0  0  0  0  0
  -27.8723  -28.9457   21.6290 H   0  0  0  0  0  0
  -25.7371  -25.9548   19.3858 H   0  0  0  0  0  0
  -24.0896  -27.6241   18.6928 H   0  0  0  0  0  0
  -24.1494  -31.0636   19.2139 H   0  0  0  0  0  0
  -23.0032  -29.7858   19.3666 H   0  0  0  0  0  0
  -25.1242  -36.2243   25.0792 H   0  0  0  0  0  0
  -22.1793  -27.7292   21.0383 H   0  0  0  0  0  0
  -22.2865  -25.3560   20.4275 H   0  0  0  0  0  0
  -21.5970  -26.6431   19.6118 H   0  0  0  0  0  0
  -19.8598  -24.3123   20.7134 H   0  0  0  0  0  0
  -19.2752  -25.5178   19.7513 H   0  0  0  0  0  0
  -17.4807  -25.7882   21.5217 H   0  0  0  0  0  0
  -18.3387  -24.7857   22.6016 H   0  0  0  0  0  0
  -19.9255  -29.0387   25.4218 H   0  0  0  0  0  0
  -18.0971  -30.4807   24.9946 H   0  0  0  0  0  0
  -16.1914  -29.7550   23.5032 H   0  0  0  0  0  0
  -16.3944  -27.4624   22.5714 H   0  0  0  0  0  0
  -24.5608  -30.7507   25.6736 H   0  0  0  0  0  0
  -24.8645  -32.2879   26.4718 H   0  0  0  0  0  0
  -25.7327  -30.8464   26.9697 H   0  0  0  0  0  0
  -26.3545  -29.7974   24.0402 H   0  0  0  0  0  0
  -27.3498  -29.7300   25.4682 H   0  0  0  0  0  0
  -27.9627  -30.5019   24.0147 H   0  0  0  0  0  0
  -27.2319  -33.3636   26.2849 H   0  0  0  0  0  0
  -28.3956  -32.7229   25.1340 H   0  0  0  0  0  0
  -28.0253  -31.8400   26.6064 H   0  0  0  0  0  0
  -28.2523  -38.0374   24.7725 H   0  0  0  0  0  0
  -28.1240  -36.2932   24.5957 H   0  0  0  0  0  0
  -27.2395  -37.1252   25.8845 H   0  0  0  0  0  0
  -22.5494  -28.7668   20.6058 H   0  0  0  0  0  0
  -26.0172  -38.3121   24.1712 H   0  0  0  0  0  0
  -22.0395  -29.6298   24.4084 H   0  0  0  0  0  0
  -22.5079  -25.0540   24.3739 H   0  0  0  0  0  0
  -19.4660  -30.7897   20.1792 H   0  0  0  0  0  0
  -21.1373  -30.3107   20.2883 H   0  0  0  0  0  0
  -20.6359  -31.9283   20.8121 H   0  0  0  0  0  0
  -24.4022  -25.9626   24.5451 H   0  0  0  0  0  0
  -24.6120  -27.5751   24.9859 H   0  0  0  0  0  0
  -20.5075  -31.0613   22.9492 H   0  0  0  0  0  0
  -19.0356  -30.3792   22.3263 H   0  0  0  0  0  0
  -21.7358  -23.3148   21.3069 H   0  0  0  0  0  0
  -21.7337  -22.8483   22.9536 H   0  0  0  0  0  0
  -24.5924  -22.2871   20.8275 H   0  0  0  0  0  0
  -23.3869  -21.0874   21.1106 H   0  0  0  0  0  0
  -25.4865  -19.3100   22.5938 H   0  0  0  0  0  0
  -26.7146  -20.3525   21.9812 H   0  0  0  0  0  0
  -26.4004  -26.9529   23.7094 H   0  0  0  0  0  0
  -25.8330  -28.2227   22.8597 H   0  0  0  0  0  0
  -26.3157  -17.2240   20.9459 H   0  0  0  0  0  0
  1 25  1  0  0  0
  1 30  2  0  0  0
  1 84  1  0  0  0
  2  3  1  0  0  0
  2 25  1  0  0  0
  2 86  1  0  0  0
  2 87  1  0  0  0
  3  4  1  0  0  0
  3 88  1  0  0  0
  3 89  1  0  0  0
  4  5  1  0  0  0
  4 90  1  0  0  0
  4 91  1  0  0  0
  5  6  1  0  0  0
  5 26  1  0  0  0
  5 92  1  0  0  0
  6 25  1  0  0  0
  6 93  1  0  0  0
  6 94  1  0  0  0
  7  8  2  0  0  0
  7 26  1  0  0  0
  7 29  1  0  0  0
  8  9  1  0  0  0
  8 22  1  0  0  0
  9 10  1  0  0  0
  9 27  2  0  0  0
 10 11  2  0  0  0
 10 15  1  0  0  0
 11 12  1  0  0  0
 11 95  1  0  0  0
 12 13  2  0  0  0
 12 96  1  0  0  0
 13 14  1  0  0  0
 13 31  1  0  0  0
 14 15  2  0  0  0
 14 97  1  0  0  0
 15 98  1  0  0  0
 16 17  2  0  0  0
 16 21  1  0  0  0
 16 31  1  0  0  0
 17 18  1  0  0  0
 17 99  1  0  0  0
 18 19  2  0  0  0
 18100  1  0  0  0
 19 20  1  0  0  0
 19 24  1  0  0  0
 20 21  2  0  0  0
 20101  1  0  0  0
 21 23  1  0  0  0
 22 28  1  0  0  0
 22 32  2  0  0  0
 26 27  1  0  0  0
 28102  1  0  0  0
 28103  1  0  0  0
 29104  1  0  0  0
 29105  1  0  0  0
 33 34  1  0  0  0
 33 66  1  0  0  0
 33 70  2  0  0  0
 34 36  1  0  0  0
 34 59  1  0  0  0
 34106  1  0  0  0
 35 44  2  0  0  0
 35 45  1  0  0  0
 35 68  1  0  0  0
 36 56  1  0  0  0
 36107  1  0  0  0
 37 39  1  0  0  0
 37 47  1  0  0  0
 37 66  1  0  0  0
 37108  1  0  0  0
 38 43  2  0  0  0
 38 46  1  0  0  0
 38 47  1  0  0  0
 39 64  1  0  0  0
 39 67  2  0  0  0
 40 52  1  0  0  0
 40 53  2  0  0  0
 40 58  1  0  0  0
 41109  1  0  0  0
 41110  1  0  0  0
 41111  1  0  0  0
 41 48  1  0  0  0
 42 43  1  0  0  0
 42 66  1  0  0  0
 42112  1  0  0  0
 42113  1  0  0  0
 43 44  1  0  0  0
 44114  1  0  0  0
 45 46  2  0  0  0
 45115  1  0  0  0
 46116  1  0  0  0
 47117  1  0  0  0
 47118  1  0  0  0
 48 56  1  0  0  0
 48 65  1  0  0  0
 48119  1  0  0  0
 49 50  1  0  0  0
 49 53  1  0  0  0
 49 64  1  0  0  0
 49120  1  0  0  0
 50 51  1  0  0  0
 50121  1  0  0  0
 50122  1  0  0  0
 51 52  1  0  0  0
 51123  1  0  0  0
 51124  1  0  0  0
 52125  1  0  0  0
 52126  1  0  0  0
 53 54  1  0  0  0
 54 55  2  0  0  0
 54127  1  0  0  0
 55 57  1  0  0  0
 55128  1  0  0  0
 56 69  2  0  0  0
 57 58  2  0  0  0
 57129  1  0  0  0
 58130  1  0  0  0
 59 60  1  0  0  0
 59 61  1  0  0  0
 59 62  1  0  0  0
 60131  1  0  0  0
 60132  1  0  0  0
 60133  1  0  0  0
 61134  1  0  0  0
 61135  1  0  0  0
 61136  1  0  0  0
 62137  1  0  0  0
 62138  1  0  0  0
 62139  1  0  0  0
 63 65  1  0  0  0
 63140  1  0  0  0
 63141  1  0  0  0
 63142  1  0  0  0
 64143  1  0  0  0
 65144  1  0  0  0
 68 83  1  0  0  0
 71 73  2  0  0  0
 71 74  1  0  0  0
 71145  1  0  0  0
 72 73  1  0  0  0
 72 75  2  0  0  0
 72146  1  0  0  0
 73 78  1  0  0  0
 74 76  2  0  0  0
 74 79  1  0  0  0
 75 76  1  0  0  0
 75 80  1  0  0  0
 76 85  1  0  0  0
 77 79  1  0  0  0
 77147  1  0  0  0
 77148  1  0  0  0
 77149  1  0  0  0
 78 83  1  0  0  0
 78150  1  0  0  0
 78151  1  0  0  0
 79152  1  0  0  0
 79153  1  0  0  0
 80 81  1  0  0  0
 80154  1  0  0  0
 80155  1  0  0  0
 81 82  1  0  0  0
 81156  1  0  0  0
 81157  1  0  0  0
 82 84  1  0  0  0
 82158  1  0  0  0
 82159  1  0  0  0
 83160  1  0  0  0
 83161  1  0  0  0
 84162  1  0  0  0
M  ISO  4   1 100  68 101  83 101  84 100
M  END
> <chiral flag>
0

> <version>
0

> <s_m_source_file>
/data/baiqing/PycharmProjects/Reinvent-master-3.2/result/LINK_invent/BTK/process_docking_weight1_custom_sum_contain_oxygen_bond_distance_aromatic_linkinvent_7_9_3/rearranged_h_0039.sdf

> <i_m_source_file_index>
39

> <r_mmod_Potential_Energy-OPLS-2005>
25777.732421875

> <r_mmod_Stretch_Energy-OPLS-2005>
12892.5068359375

> <r_mmod_Bend_Energy-OPLS-2005>
2382.96557617188

> <r_mmod_Torsional_Energy-OPLS-2005>
701.509216308594

> <r_mmod_Improper_Torsional_Energy-OPLS-2005>
92.2756271362305

> <r_mmod_Van_der_Waal_Energy-OPLS-2005>
3424.3857421875

> <r_mmod_Electrostatic_Energy-OPLS-2005>
-349.872772216797

> <r_mmod_Solvation_Energy-OPLS-2005>
-200.983123779297

> <b_mmod_Minimization_Converged-OPLS-2005>
0

> <r_mmod_RMS_Derivative-OPLS-2005>
6.76380348205566

$$$$
40
                    3D
 Structure written by MMmdl.
167175  0  0  1  0            999 V2000
  -30.7368  -14.4966   20.5630 C   0  0  0  0  0  0
  -30.4204  -12.3280   19.4303 C   0  0  0  0  0  0
  -29.5013  -12.5263   18.2069 C   0  0  0  0  0  0
  -28.0253  -12.3703   18.6149 C   0  0  0  0  0  0
  -27.6676  -13.2115   19.8703 C   0  0  2  0  0  0
  -28.7122  -13.0368   21.0015 C   0  0  0  0  0  0
  -25.2653  -13.8167   20.5631 C   0  0  0  0  0  0
  -24.1913  -13.0415   20.9137 C   0  0  0  0  0  0
  -24.6490  -11.6892   20.8766 C   0  0  0  0  0  0
  -23.9160  -10.4281   21.0441 C   0  0  0  0  0  0
  -24.3720   -9.4218   21.9209 C   0  0  0  0  0  0
  -23.6373   -8.2271   22.0783 C   0  0  0  0  0  0
  -22.4347   -8.0338   21.3566 C   0  0  0  0  0  0
  -21.9989   -9.0311   20.4663 C   0  0  0  0  0  0
  -22.7344  -10.2162   20.3072 C   0  0  0  0  0  0
  -21.6862   -6.0812   22.5295 C   0  0  0  0  0  0
  -21.4030   -6.5693   23.8243 C   0  0  0  0  0  0
  -21.3645   -5.6826   24.9196 C   0  0  0  0  0  0
  -21.6030   -4.3082   24.7227 C   0  0  0  0  0  0
  -21.8830   -3.8214   23.4344 C   0  0  0  0  0  0
  -21.9195   -4.7049   22.3413 C   0  0  0  0  0  0
  -22.7936  -13.5243   21.1785 C   0  0  0  0  0  0
  -22.1675   -4.2255   21.0979 F   0  0  0  0  0  0
  -21.5592   -3.4551   25.7723 F   0  0  0  0  0  0
  -30.0422  -13.3313   20.4411 N   0  0  0  0  0  0
  -26.3104  -12.9348   20.3322 N   0  0  0  0  0  0
  -25.9427  -11.6509   20.5796 N   0  0  0  0  0  0
  -22.0577  -12.8239   22.0318 N   0  0  0  0  0  0
  -25.4266  -15.1905   20.4121 N   0  0  0  0  0  0
  -31.8493  -14.6542   20.0561 O   0  0  0  0  0  0
  -21.6665   -6.8965   21.4261 O   0  0  0  0  0  0
  -22.3617  -14.5549   20.6668 O   0  0  0  0  0  0
  -24.6148  -31.8677   23.2155 C   0  0  0  0  0  0
  -25.9069  -32.4807   23.8413 C   0  0  1  0  0  0
  -27.2125  -27.4287   20.0764 C   0  0  0  0  0  0
  -25.5966  -33.8604   24.2363 N   0  0  0  0  0  0
  -23.4007  -30.5005   21.5527 C   0  0  2  0  0  0
  -24.8420  -28.9826   20.1066 C   0  0  0  0  0  0
  -22.7391  -29.4691   22.4943 C   0  0  0  0  0  0
  -18.0278  -28.1390   22.8475 C   0  0  0  0  0  0
  -24.1501  -36.7304   23.2630 C   0  0  0  0  0  0
  -25.9308  -30.8281   21.3761 C   0  0  0  0  0  0
  -26.0011  -29.4667   20.7175 C   0  0  0  0  0  0
  -27.1900  -28.6927   20.7087 C   0  0  0  0  0  0
  -26.0312  -26.9792   19.4354 C   0  0  0  0  0  0
  -24.8508  -27.7353   19.4667 C   0  0  0  0  0  0
  -23.6078  -29.8496   20.1615 C   0  0  0  0  0  0
  -25.4123  -36.3088   24.0321 C   0  0  1  0  0  0
  -20.5866  -28.3681   23.1281 C   0  0  2  0  0  0
  -20.6787  -26.9427   22.5398 C   0  0  0  0  0  0
  -19.5784  -26.6412   21.5173 C   0  0  0  0  0  0
  -18.1941  -26.7956   22.1574 C   0  0  0  0  0  0
  -19.1521  -28.8846   23.2886 C   0  0  0  0  0  0
  -18.9467  -30.1438   23.8940 C   0  0  0  0  0  0
  -17.6466  -30.6609   24.0561 C   0  0  0  0  0  0
  -25.9049  -34.9452   23.5128 C   0  0  0  0  0  0
  -16.5364  -29.9116   23.6317 C   0  0  0  0  0  0
  -16.7266  -28.6515   23.0377 C   0  0  0  0  0  0
  -26.4551  -31.6593   25.0715 C   0  0  0  0  0  0
  -25.3836  -31.3661   26.1460 C   0  0  0  0  0  0
  -27.0441  -30.3052   24.6106 C   0  0  0  0  0  0
  -27.6134  -32.4334   25.7475 C   0  0  0  0  0  0
  -27.5599  -37.1787   24.8461 C   0  0  0  0  0  0
  -21.4120  -29.3057   22.3680 N   0  0  0  0  0  0
  -26.4318  -37.3759   23.9397 N   0  0  0  0  0  0
  -24.6659  -31.0786   22.1075 N   0  0  0  0  0  0
  -23.4160  -28.8224   23.2984 O   0  0  0  0  0  0
  -28.3704  -26.6683   20.1178 O   0  0  0  0  0  0
  -26.5560  -34.8900   22.4658 O   0  0  0  0  0  0
  -23.5347  -32.1469   23.7560 O   0  0  0  0  0  0
  -29.0517  -24.1379   21.8548 C   0  0  0  0  0  0
  -29.1833  -24.4432   20.5172 C   0  0  0  0  0  0
  -30.6766  -22.6279   21.2846 C   0  0  0  0  0  0
  -27.5847  -26.1197   24.8495 C   0  0  0  0  0  0
  -29.7540  -26.4783   23.5503 C   0  0  0  0  0  0
  -28.0154  -24.6650   22.8225 C   0  0  0  0  0  0
  -28.2778  -25.2991   19.6942 C   0  0  0  0  0  0
  -31.6096  -21.4642   21.4412 C   0  0  0  0  0  0
  -31.0578  -20.0996   20.9448 C   0  0  0  0  0  0
  -29.9791  -19.4097   21.8243 C   0  0  0  0  0  0
  -30.2082  -17.8937   22.1090 C   0  0  0  0  0  0
  -30.4026  -16.9688   20.8716 C   0  0  0  0  0  0
  -28.2743  -26.0504   23.4732 C   0  0  0  0  0  0
  -29.9246  -23.1219   22.2752 N   0  0  0  0  0  0
  -30.0897  -15.5414   21.1188 N   0  0  0  0  0  0
  -30.4255  -23.4694   19.7591 S   0  0  0  0  0  0
  -31.4676  -12.4046   19.1311 H   0  0  0  0  0  0
  -30.3047  -11.3282   19.8460 H   0  0  0  0  0  0
  -29.7602  -11.8158   17.4230 H   0  0  0  0  0  0
  -29.6544  -13.5167   17.7731 H   0  0  0  0  0  0
  -27.8336  -11.3139   18.7996 H   0  0  0  0  0  0
  -27.3767  -12.6489   17.7845 H   0  0  0  0  0  0
  -27.6950  -14.2558   19.5592 H   0  0  0  0  0  0
  -28.6972  -12.0234   21.4076 H   0  0  0  0  0  0
  -28.4719  -13.6898   21.8443 H   0  0  0  0  0  0
  -25.2905   -9.5680   22.4721 H   0  0  0  0  0  0
  -24.0124   -7.4663   22.7502 H   0  0  0  0  0  0
  -21.0918   -8.8857   19.8951 H   0  0  0  0  0  0
  -22.3880  -10.9724   19.6162 H   0  0  0  0  0  0
  -21.2049   -7.6214   23.9780 H   0  0  0  0  0  0
  -21.1416   -6.0550   25.9096 H   0  0  0  0  0  0
  -22.0615   -2.7699   23.2795 H   0  0  0  0  0  0
  -22.4341  -11.9966   22.4718 H   0  0  0  0  0  0
  -21.1173  -13.1239   22.2485 H   0  0  0  0  0  0
  -24.6425  -15.8242   20.5316 H   0  0  0  0  0  0
  -26.2776  -15.6605   20.1243 H   0  0  0  0  0  0
  -26.7123  -32.5533   23.1152 H   0  0  0  0  0  0
  -25.0155  -33.9775   25.0534 H   0  0  0  0  0  0
  -22.6877  -31.3184   21.4239 H   0  0  0  0  0  0
  -23.3749  -35.9653   23.3305 H   0  0  0  0  0  0
  -24.3602  -36.8894   22.2048 H   0  0  0  0  0  0
  -23.7280  -37.6515   23.6647 H   0  0  0  0  0  0
  -26.0492  -31.5962   20.6109 H   0  0  0  0  0  0
  -26.8169  -30.8728   21.9968 H   0  0  0  0  0  0
  -28.0842  -29.0535   21.2011 H   0  0  0  0  0  0
  -25.9833  -26.0565   18.8787 H   0  0  0  0  0  0
  -23.9599  -27.3649   18.9766 H   0  0  0  0  0  0
  -23.7217  -30.6352   19.4142 H   0  0  0  0  0  0
  -22.7283  -29.2790   19.8594 H   0  0  0  0  0  0
  -25.1293  -36.1937   25.0811 H   0  0  0  0  0  0
  -20.9939  -28.3279   24.1404 H   0  0  0  0  0  0
  -20.5688  -26.2283   23.3572 H   0  0  0  0  0  0
  -21.6651  -26.7504   22.1185 H   0  0  0  0  0  0
  -19.6948  -25.6312   21.1225 H   0  0  0  0  0  0
  -19.6754  -27.3183   20.6674 H   0  0  0  0  0  0
  -17.4210  -26.6677   21.3992 H   0  0  0  0  0  0
  -18.0376  -26.0095   22.8974 H   0  0  0  0  0  0
  -19.7946  -30.7204   24.2368 H   0  0  0  0  0  0
  -17.5058  -31.6300   24.5152 H   0  0  0  0  0  0
  -15.5374  -30.3053   23.7651 H   0  0  0  0  0  0
  -15.8649  -28.0845   22.7136 H   0  0  0  0  0  0
  -24.6039  -30.6978   25.7771 H   0  0  0  0  0  0
  -24.9008  -32.2798   26.4944 H   0  0  0  0  0  0
  -25.8200  -30.8809   27.0200 H   0  0  0  0  0  0
  -26.2963  -29.6654   24.1394 H   0  0  0  0  0  0
  -27.4478  -29.7432   25.4540 H   0  0  0  0  0  0
  -27.8681  -30.4378   23.9087 H   0  0  0  0  0  0
  -27.2798  -33.3663   26.2044 H   0  0  0  0  0  0
  -28.3974  -32.6842   25.0309 H   0  0  0  0  0  0
  -28.0798  -31.8460   26.5399 H   0  0  0  0  0  0
  -28.2579  -38.0119   24.7512 H   0  0  0  0  0  0
  -28.1129  -36.2630   24.6284 H   0  0  0  0  0  0
  -27.2301  -37.1423   25.8860 H   0  0  0  0  0  0
  -20.9248  -29.8809   21.6929 H   0  0  0  0  0  0
  -26.0194  -38.2818   24.1424 H   0  0  0  0  0  0
  -27.6784  -27.1066   25.3067 H   0  0  0  0  0  0
  -27.9964  -25.3850   25.5441 H   0  0  0  0  0  0
  -26.5175  -25.9132   24.7560 H   0  0  0  0  0  0
  -29.8597  -27.4492   24.0394 H   0  0  0  0  0  0
  -30.1842  -26.5870   22.5549 H   0  0  0  0  0  0
  -30.3605  -25.7557   24.0968 H   0  0  0  0  0  0
  -27.8935  -23.9279   23.6163 H   0  0  0  0  0  0
  -27.0377  -24.7022   22.3415 H   0  0  0  0  0  0
  -27.2926  -24.8607   19.8503 H   0  0  0  0  0  0
  -28.5135  -25.2199   18.6325 H   0  0  0  0  0  0
  -31.9362  -21.3957   22.4834 H   0  0  0  0  0  0
  -32.5094  -21.7081   20.8777 H   0  0  0  0  0  0
  -31.9102  -19.4258   20.8568 H   0  0  0  0  0  0
  -30.6750  -20.2144   19.9301 H   0  0  0  0  0  0
  -29.9044  -19.9270   22.7874 H   0  0  0  0  0  0
  -29.0061  -19.5472   21.3493 H   0  0  0  0  0  0
  -29.3600  -17.5453   22.6988 H   0  0  0  0  0  0
  -31.0766  -17.8006   22.7632 H   0  0  0  0  0  0
  -31.4246  -17.0959   20.5018 H   0  0  0  0  0  0
  -29.7538  -17.2906   20.0555 H   0  0  0  0  0  0
  -27.7945  -26.8010   22.8424 H   0  0  0  0  0  0
  -29.1885  -15.3351   21.5230 H   0  0  0  0  0  0
  1 25  1  0  0  0
  1 30  2  0  0  0
  1 85  1  0  0  0
  2  3  1  0  0  0
  2 25  1  0  0  0
  2 87  1  0  0  0
  2 88  1  0  0  0
  3  4  1  0  0  0
  3 89  1  0  0  0
  3 90  1  0  0  0
  4  5  1  0  0  0
  4 91  1  0  0  0
  4 92  1  0  0  0
  5  6  1  0  0  0
  5 26  1  0  0  0
  5 93  1  0  0  0
  6 25  1  0  0  0
  6 94  1  0  0  0
  6 95  1  0  0  0
  7  8  2  0  0  0
  7 26  1  0  0  0
  7 29  1  0  0  0
  8  9  1  0  0  0
  8 22  1  0  0  0
  9 10  1  0  0  0
  9 27  2  0  0  0
 10 11  2  0  0  0
 10 15  1  0  0  0
 11 12  1  0  0  0
 11 96  1  0  0  0
 12 13  2  0  0  0
 12 97  1  0  0  0
 13 14  1  0  0  0
 13 31  1  0  0  0
 14 15  2  0  0  0
 14 98  1  0  0  0
 15 99  1  0  0  0
 16 17  2  0  0  0
 16 21  1  0  0  0
 16 31  1  0  0  0
 17 18  1  0  0  0
 17100  1  0  0  0
 18 19  2  0  0  0
 18101  1  0  0  0
 19 20  1  0  0  0
 19 24  1  0  0  0
 20 21  2  0  0  0
 20102  1  0  0  0
 21 23  1  0  0  0
 22 28  1  0  0  0
 22 32  2  0  0  0
 26 27  1  0  0  0
 28103  1  0  0  0
 28104  1  0  0  0
 29105  1  0  0  0
 29106  1  0  0  0
 33 34  1  0  0  0
 33 66  1  0  0  0
 33 70  2  0  0  0
 34 36  1  0  0  0
 34 59  1  0  0  0
 34107  1  0  0  0
 35 44  2  0  0  0
 35 45  1  0  0  0
 35 68  1  0  0  0
 36 56  1  0  0  0
 36108  1  0  0  0
 37 39  1  0  0  0
 37 47  1  0  0  0
 37 66  1  0  0  0
 37109  1  0  0  0
 38 43  2  0  0  0
 38 46  1  0  0  0
 38 47  1  0  0  0
 39 64  1  0  0  0
 39 67  2  0  0  0
 40 52  1  0  0  0
 40 53  2  0  0  0
 40 58  1  0  0  0
 41110  1  0  0  0
 41111  1  0  0  0
 41112  1  0  0  0
 41 48  1  0  0  0
 42 43  1  0  0  0
 42 66  1  0  0  0
 42113  1  0  0  0
 42114  1  0  0  0
 43 44  1  0  0  0
 44115  1  0  0  0
 45 46  2  0  0  0
 45116  1  0  0  0
 46117  1  0  0  0
 47118  1  0  0  0
 47119  1  0  0  0
 48 56  1  0  0  0
 48 65  1  0  0  0
 48120  1  0  0  0
 49 50  1  0  0  0
 49 53  1  0  0  0
 49 64  1  0  0  0
 49121  1  0  0  0
 50 51  1  0  0  0
 50122  1  0  0  0
 50123  1  0  0  0
 51 52  1  0  0  0
 51124  1  0  0  0
 51125  1  0  0  0
 52126  1  0  0  0
 52127  1  0  0  0
 53 54  1  0  0  0
 54 55  2  0  0  0
 54128  1  0  0  0
 55 57  1  0  0  0
 55129  1  0  0  0
 56 69  2  0  0  0
 57 58  2  0  0  0
 57130  1  0  0  0
 58131  1  0  0  0
 59 60  1  0  0  0
 59 61  1  0  0  0
 59 62  1  0  0  0
 60132  1  0  0  0
 60133  1  0  0  0
 60134  1  0  0  0
 61135  1  0  0  0
 61136  1  0  0  0
 61137  1  0  0  0
 62138  1  0  0  0
 62139  1  0  0  0
 62140  1  0  0  0
 63 65  1  0  0  0
 63141  1  0  0  0
 63142  1  0  0  0
 63143  1  0  0  0
 64144  1  0  0  0
 65145  1  0  0  0
 68 77  1  0  0  0
 71 72  2  0  0  0
 71 76  1  0  0  0
 71 84  1  0  0  0
 72 77  1  0  0  0
 72 86  1  0  0  0
 73 78  1  0  0  0
 73 84  2  0  0  0
 73 86  1  0  0  0
 74146  1  0  0  0
 74147  1  0  0  0
 74148  1  0  0  0
 74 83  1  0  0  0
 75 83  1  0  0  0
 75149  1  0  0  0
 75150  1  0  0  0
 75151  1  0  0  0
 76 83  1  0  0  0
 76152  1  0  0  0
 76153  1  0  0  0
 77154  1  0  0  0
 77155  1  0  0  0
 78 79  1  0  0  0
 78156  1  0  0  0
 78157  1  0  0  0
 79 80  1  0  0  0
 79158  1  0  0  0
 79159  1  0  0  0
 80 81  1  0  0  0
 80160  1  0  0  0
 80161  1  0  0  0
 81 82  1  0  0  0
 81162  1  0  0  0
 81163  1  0  0  0
 82 85  1  0  0  0
 82164  1  0  0  0
 82165  1  0  0  0
 83166  1  0  0  0
 85167  1  0  0  0
M  ISO  4   1 100  68 101  77 101  85 100
M  END
> <chiral flag>
0

> <version>
0

> <s_m_source_file>
/data/baiqing/PycharmProjects/Reinvent-master-3.2/result/LINK_invent/BTK/process_docking_weight1_custom_sum_contain_oxygen_bond_distance_aromatic_linkinvent_7_9_3/rearranged_h_0039.sdf

> <i_m_source_file_index>
40

> <r_mmod_Potential_Energy-OPLS-2005>
-47.5144271850586

> <r_mmod_Stretch_Energy-OPLS-2005>
38.4976387023926

> <r_mmod_Bend_Energy-OPLS-2005>
114.298904418945

> <r_mmod_Torsional_Energy-OPLS-2005>
207.374603271484

> <r_mmod_Improper_Torsional_Energy-OPLS-2005>
5.4346752166748

> <r_mmod_Van_der_Waal_Energy-OPLS-2005>
120.792129516602

> <r_mmod_Electrostatic_Energy-OPLS-2005>
-345.397705078125

> <r_mmod_Solvation_Energy-OPLS-2005>
-206.040481567383

> <b_mmod_Minimization_Converged-OPLS-2005>
0

> <r_mmod_RMS_Derivative-OPLS-2005>
6.3515625

$$$$
41
                    3D
 Structure written by MMmdl.
162170  0  0  1  0            999 V2000
  -30.7227  -14.5397   20.4964 C   0  0  0  0  0  0
  -30.4024  -12.3386   19.4389 C   0  0  0  0  0  0
  -29.4870  -12.4873   18.2067 C   0  0  0  0  0  0
  -28.0114  -12.3378   18.6239 C   0  0  0  0  0  0
  -27.6435  -13.2173   19.8498 C   0  0  2  0  0  0
  -28.6916  -13.1010   20.9792 C   0  0  0  0  0  0
  -25.2530  -13.8171   20.5688 C   0  0  0  0  0  0
  -24.1804  -13.0422   20.9198 C   0  0  0  0  0  0
  -24.6383  -11.6919   20.8749 C   0  0  0  0  0  0
  -23.9060  -10.4296   21.0408 C   0  0  0  0  0  0
  -24.3611   -9.4223   21.9197 C   0  0  0  0  0  0
  -23.6294   -8.2255   22.0762 C   0  0  0  0  0  0
  -22.4282   -8.0277   21.3539 C   0  0  0  0  0  0
  -21.9911   -9.0256   20.4653 C   0  0  0  0  0  0
  -22.7231  -10.2143   20.3067 C   0  0  0  0  0  0
  -21.6862   -6.0747   22.5287 C   0  0  0  0  0  0
  -21.4017   -6.5643   23.8222 C   0  0  0  0  0  0
  -21.3657   -5.6792   24.9170 C   0  0  0  0  0  0
  -21.6033   -4.3058   24.7223 C   0  0  0  0  0  0
  -21.8821   -3.8152   23.4347 C   0  0  0  0  0  0
  -21.9191   -4.6970   22.3400 C   0  0  0  0  0  0
  -22.7838  -13.5234   21.1836 C   0  0  0  0  0  0
  -22.1666   -4.2151   21.0983 F   0  0  0  0  0  0
  -21.5615   -3.4541   25.7741 F   0  0  0  0  0  0
  -30.0003  -13.3913   20.3891 N   0  0  0  0  0  0
  -26.2937  -12.9356   20.3287 N   0  0  0  0  0  0
  -25.9302  -11.6505   20.5778 N   0  0  0  0  0  0
  -22.0470  -12.8235   22.0394 N   0  0  0  0  0  0
  -25.4175  -15.1890   20.4064 N   0  0  0  0  0  0
  -31.9227  -14.5707   20.2398 O   0  0  0  0  0  0
  -21.6636   -6.8881   21.4248 O   0  0  0  0  0  0
  -22.3527  -14.5528   20.6679 O   0  0  0  0  0  0
  -24.6149  -31.8662   23.2059 C   0  0  0  0  0  0
  -25.9030  -32.4814   23.8348 C   0  0  1  0  0  0
  -27.2159  -27.3680   20.1093 C   0  0  0  0  0  0
  -25.5848  -33.8630   24.2269 N   0  0  0  0  0  0
  -23.4044  -30.4888   21.5506 C   0  0  2  0  0  0
  -24.8482  -28.9554   20.1091 C   0  0  0  0  0  0
  -22.7404  -29.4658   22.4984 C   0  0  0  0  0  0
  -18.0264  -28.1355   22.8524 C   0  0  0  0  0  0
  -24.1487  -36.7342   23.2641 C   0  0  0  0  0  0
  -25.9386  -30.8108   21.3687 C   0  0  0  0  0  0
  -26.0094  -29.4396   20.7213 C   0  0  0  0  0  0
  -27.1882  -28.6472   20.7318 C   0  0  0  0  0  0
  -26.0459  -26.9444   19.4409 C   0  0  0  0  0  0
  -24.8666  -27.7092   19.4674 C   0  0  0  0  0  0
  -23.6099  -29.8212   20.1641 C   0  0  0  0  0  0
  -25.4111  -36.3146   24.0337 C   0  0  1  0  0  0
  -20.5859  -28.3673   23.1328 C   0  0  2  0  0  0
  -20.6754  -26.9397   22.5448 C   0  0  0  0  0  0
  -19.5741  -26.6380   21.5225 C   0  0  0  0  0  0
  -18.1913  -26.7906   22.1635 C   0  0  0  0  0  0
  -19.1512  -28.8823   23.2915 C   0  0  0  0  0  0
  -18.9431  -30.1413   23.8953 C   0  0  0  0  0  0
  -17.6434  -30.6576   24.0574 C   0  0  0  0  0  0
  -25.9047  -34.9502   23.5124 C   0  0  0  0  0  0
  -16.5322  -29.9098   23.6299 C   0  0  0  0  0  0
  -16.7253  -28.6490   23.0364 C   0  0  0  0  0  0
  -26.4411  -31.6604   25.0710 C   0  0  0  0  0  0
  -25.3624  -31.3745   26.1417 C   0  0  0  0  0  0
  -27.0203  -30.3038   24.6123 C   0  0  0  0  0  0
  -27.6006  -32.4281   25.7461 C   0  0  0  0  0  0
  -27.5581  -37.1851   24.8451 C   0  0  0  0  0  0
  -21.4116  -29.3027   22.3713 N   0  0  0  0  0  0
  -26.4318  -37.3818   23.9387 N   0  0  0  0  0  0
  -24.6719  -31.0713   22.0997 N   0  0  0  0  0  0
  -23.4176  -28.8172   23.3021 O   0  0  0  0  0  0
  -28.3456  -26.5625   20.2095 O   0  0  0  0  0  0
  -26.5630  -34.8968   22.4712 O   0  0  0  0  0  0
  -23.5329  -32.1417   23.7444 O   0  0  0  0  0  0
  -28.3434  -23.2081   22.0163 C   0  0  0  0  0  0
  -28.0921  -21.5525   20.2483 C   0  0  0  0  0  0
  -28.0788  -22.9189   20.6640 C   0  0  0  0  0  0
  -28.6020  -22.1687   22.9451 C   0  0  0  0  0  0
  -28.3347  -20.4878   21.1670 C   0  0  0  0  0  0
  -28.5866  -20.8212   22.5162 C   0  0  0  0  0  0
  -29.5640  -23.7784   24.7245 C   0  0  0  0  0  0
  -27.5983  -24.0425   19.7149 C   0  0  0  0  0  0
  -28.8057  -22.4776   24.4277 C   0  0  0  0  0  0
  -28.1523  -18.9984   20.7670 C   0  0  0  0  0  0
  -29.3524  -18.0144   20.9658 C   0  0  0  0  0  0
  -29.0050  -16.4816   20.8707 C   0  0  0  0  0  0
  -28.4799  -25.3290   19.4422 C   0  0  0  0  0  0
  -30.0980  -15.7131   20.2484 N   0  0  0  0  0  0
  -28.7624  -19.8274   23.4223 F   0  0  0  0  0  0
  -31.4482  -12.4125   19.1377 H   0  0  0  0  0  0
  -30.2878  -11.3504   19.8906 H   0  0  0  0  0  0
  -29.7395  -11.7436   17.4509 H   0  0  0  0  0  0
  -29.6416  -13.4618   17.7411 H   0  0  0  0  0  0
  -27.8375  -11.2879   18.8546 H   0  0  0  0  0  0
  -27.3561  -12.5727   17.7837 H   0  0  0  0  0  0
  -27.6524  -14.2454   19.4907 H   0  0  0  0  0  0
  -28.6884  -12.0990   21.4100 H   0  0  0  0  0  0
  -28.4675  -13.7875   21.7955 H   0  0  0  0  0  0
  -25.2765   -9.5693   22.4769 H   0  0  0  0  0  0
  -24.0000   -7.4646   22.7503 H   0  0  0  0  0  0
  -21.0828   -8.8783   19.8979 H   0  0  0  0  0  0
  -22.3692  -10.9678   19.6176 H   0  0  0  0  0  0
  -21.2032   -7.6159   23.9720 H   0  0  0  0  0  0
  -21.1464   -6.0525   25.9068 H   0  0  0  0  0  0
  -22.0601   -2.7619   23.2845 H   0  0  0  0  0  0
  -22.4086  -11.9894   22.4782 H   0  0  0  0  0  0
  -21.1101  -13.1289   22.2605 H   0  0  0  0  0  0
  -24.6430  -15.8354   20.5084 H   0  0  0  0  0  0
  -26.2537  -15.6282   20.0452 H   0  0  0  0  0  0
  -26.7099  -32.5518   23.1099 H   0  0  0  0  0  0
  -24.9894  -33.9741   25.0335 H   0  0  0  0  0  0
  -22.7013  -31.3118   21.4104 H   0  0  0  0  0  0
  -23.3743  -35.9669   23.3302 H   0  0  0  0  0  0
  -24.3564  -36.8969   22.2060 H   0  0  0  0  0  0
  -23.7259  -37.6569   23.6620 H   0  0  0  0  0  0
  -26.0532  -31.5664   20.5872 H   0  0  0  0  0  0
  -26.8256  -30.8689   21.9869 H   0  0  0  0  0  0
  -28.0725  -29.0070   21.2384 H   0  0  0  0  0  0
  -26.0084  -26.0171   18.8942 H   0  0  0  0  0  0
  -23.9859  -27.3414   18.9640 H   0  0  0  0  0  0
  -23.7078  -30.5917   19.3982 H   0  0  0  0  0  0
  -22.7339  -29.2320   19.8813 H   0  0  0  0  0  0
  -25.1296  -36.2057   25.0829 H   0  0  0  0  0  0
  -20.9945  -28.3234   24.1444 H   0  0  0  0  0  0
  -20.5656  -26.2263   23.3637 H   0  0  0  0  0  0
  -21.6632  -26.7433   22.1227 H   0  0  0  0  0  0
  -19.6914  -25.6285   21.1246 H   0  0  0  0  0  0
  -19.6681  -27.3203   20.6761 H   0  0  0  0  0  0
  -17.4180  -26.6644   21.4032 H   0  0  0  0  0  0
  -18.0330  -26.0019   22.9014 H   0  0  0  0  0  0
  -19.7897  -30.7200   24.2393 H   0  0  0  0  0  0
  -17.4993  -31.6299   24.5114 H   0  0  0  0  0  0
  -15.5327  -30.3038   23.7586 H   0  0  0  0  0  0
  -15.8639  -28.0830   22.7087 H   0  0  0  0  0  0
  -24.5821  -30.7074   25.7707 H   0  0  0  0  0  0
  -24.8749  -32.2912   26.4758 H   0  0  0  0  0  0
  -25.7904  -30.8984   27.0243 H   0  0  0  0  0  0
  -26.2773  -29.6909   24.1019 H   0  0  0  0  0  0
  -27.3755  -29.7196   25.4607 H   0  0  0  0  0  0
  -27.8674  -30.4299   23.9381 H   0  0  0  0  0  0
  -27.2646  -33.3586   26.2025 H   0  0  0  0  0  0
  -28.3786  -32.6847   25.0254 H   0  0  0  0  0  0
  -28.0648  -31.8415   26.5388 H   0  0  0  0  0  0
  -28.2637  -38.0119   24.7480 H   0  0  0  0  0  0
  -28.1070  -36.2684   24.6290 H   0  0  0  0  0  0
  -27.2298  -37.1497   25.8853 H   0  0  0  0  0  0
  -20.9275  -29.8769   21.6935 H   0  0  0  0  0  0
  -26.0242  -38.2915   24.1345 H   0  0  0  0  0  0
  -28.2930  -24.2372   22.3380 H   0  0  0  0  0  0
  -27.8409  -21.3043   19.2260 H   0  0  0  0  0  0
  -29.6535  -23.9135   25.8018 H   0  0  0  0  0  0
  -29.0448  -24.6582   24.3410 H   0  0  0  0  0  0
  -30.5741  -23.7521   24.3131 H   0  0  0  0  0  0
  -26.6012  -24.3231   20.0492 H   0  0  0  0  0  0
  -27.4420  -23.5632   18.7461 H   0  0  0  0  0  0
  -29.3398  -21.6544   24.9128 H   0  0  0  0  0  0
  -27.8254  -22.5181   24.9038 H   0  0  0  0  0  0
  -27.8410  -18.9550   19.7236 H   0  0  0  0  0  0
  -27.3004  -18.6201   21.3323 H   0  0  0  0  0  0
  -29.8205  -18.1850   21.9357 H   0  0  0  0  0  0
  -30.1126  -18.2765   20.2319 H   0  0  0  0  0  0
  -28.7545  -16.0878   21.8559 H   0  0  0  0  0  0
  -28.1206  -16.3581   20.2485 H   0  0  0  0  0  0
  -28.3129  -25.6215   18.4047 H   0  0  0  0  0  0
  -29.5313  -25.0381   19.4675 H   0  0  0  0  0  0
  -30.7592  -16.3366   19.8099 H   0  0  0  0  0  0
  1 25  1  0  0  0
  1 30  2  0  0  0
  1 84  1  0  0  0
  2  3  1  0  0  0
  2 25  1  0  0  0
  2 86  1  0  0  0
  2 87  1  0  0  0
  3  4  1  0  0  0
  3 88  1  0  0  0
  3 89  1  0  0  0
  4  5  1  0  0  0
  4 90  1  0  0  0
  4 91  1  0  0  0
  5  6  1  0  0  0
  5 26  1  0  0  0
  5 92  1  0  0  0
  6 25  1  0  0  0
  6 93  1  0  0  0
  6 94  1  0  0  0
  7  8  2  0  0  0
  7 26  1  0  0  0
  7 29  1  0  0  0
  8  9  1  0  0  0
  8 22  1  0  0  0
  9 10  1  0  0  0
  9 27  2  0  0  0
 10 11  2  0  0  0
 10 15  1  0  0  0
 11 12  1  0  0  0
 11 95  1  0  0  0
 12 13  2  0  0  0
 12 96  1  0  0  0
 13 14  1  0  0  0
 13 31  1  0  0  0
 14 15  2  0  0  0
 14 97  1  0  0  0
 15 98  1  0  0  0
 16 17  2  0  0  0
 16 21  1  0  0  0
 16 31  1  0  0  0
 17 18  1  0  0  0
 17 99  1  0  0  0
 18 19  2  0  0  0
 18100  1  0  0  0
 19 20  1  0  0  0
 19 24  1  0  0  0
 20 21  2  0  0  0
 20101  1  0  0  0
 21 23  1  0  0  0
 22 28  1  0  0  0
 22 32  2  0  0  0
 26 27  1  0  0  0
 28102  1  0  0  0
 28103  1  0  0  0
 29104  1  0  0  0
 29105  1  0  0  0
 33 34  1  0  0  0
 33 66  1  0  0  0
 33 70  2  0  0  0
 34 36  1  0  0  0
 34 59  1  0  0  0
 34106  1  0  0  0
 35 44  2  0  0  0
 35 45  1  0  0  0
 35 68  1  0  0  0
 36 56  1  0  0  0
 36107  1  0  0  0
 37 39  1  0  0  0
 37 47  1  0  0  0
 37 66  1  0  0  0
 37108  1  0  0  0
 38 43  2  0  0  0
 38 46  1  0  0  0
 38 47  1  0  0  0
 39 64  1  0  0  0
 39 67  2  0  0  0
 40 52  1  0  0  0
 40 53  2  0  0  0
 40 58  1  0  0  0
 41109  1  0  0  0
 41110  1  0  0  0
 41111  1  0  0  0
 41 48  1  0  0  0
 42 43  1  0  0  0
 42 66  1  0  0  0
 42112  1  0  0  0
 42113  1  0  0  0
 43 44  1  0  0  0
 44114  1  0  0  0
 45 46  2  0  0  0
 45115  1  0  0  0
 46116  1  0  0  0
 47117  1  0  0  0
 47118  1  0  0  0
 48 56  1  0  0  0
 48 65  1  0  0  0
 48119  1  0  0  0
 49 50  1  0  0  0
 49 53  1  0  0  0
 49 64  1  0  0  0
 49120  1  0  0  0
 50 51  1  0  0  0
 50121  1  0  0  0
 50122  1  0  0  0
 51 52  1  0  0  0
 51123  1  0  0  0
 51124  1  0  0  0
 52125  1  0  0  0
 52126  1  0  0  0
 53 54  1  0  0  0
 54 55  2  0  0  0
 54127  1  0  0  0
 55 57  1  0  0  0
 55128  1  0  0  0
 56 69  2  0  0  0
 57 58  2  0  0  0
 57129  1  0  0  0
 58130  1  0  0  0
 59 60  1  0  0  0
 59 61  1  0  0  0
 59 62  1  0  0  0
 60131  1  0  0  0
 60132  1  0  0  0
 60133  1  0  0  0
 61134  1  0  0  0
 61135  1  0  0  0
 61136  1  0  0  0
 62137  1  0  0  0
 62138  1  0  0  0
 62139  1  0  0  0
 63 65  1  0  0  0
 63140  1  0  0  0
 63141  1  0  0  0
 63142  1  0  0  0
 64143  1  0  0  0
 65144  1  0  0  0
 68 83  1  0  0  0
 71 73  2  0  0  0
 71 74  1  0  0  0
 71145  1  0  0  0
 72 73  1  0  0  0
 72 75  2  0  0  0
 72146  1  0  0  0
 73 78  1  0  0  0
 74 76  2  0  0  0
 74 79  1  0  0  0
 75 76  1  0  0  0
 75 80  1  0  0  0
 76 85  1  0  0  0
 77 79  1  0  0  0
 77147  1  0  0  0
 77148  1  0  0  0
 77149  1  0  0  0
 78 83  1  0  0  0
 78150  1  0  0  0
 78151  1  0  0  0
 79152  1  0  0  0
 79153  1  0  0  0
 80 81  1  0  0  0
 80154  1  0  0  0
 80155  1  0  0  0
 81 82  1  0  0  0
 81156  1  0  0  0
 81157  1  0  0  0
 82 84  1  0  0  0
 82158  1  0  0  0
 82159  1  0  0  0
 83160  1  0  0  0
 83161  1  0  0  0
 84162  1  0  0  0
M  ISO  4   1 100  68 101  83 101  84 100
M  END
> <chiral flag>
0

> <version>
0

> <s_m_source_file>
/data/baiqing/PycharmProjects/Reinvent-master-3.2/result/LINK_invent/BTK/process_docking_weight1_custom_sum_contain_oxygen_bond_distance_aromatic_linkinvent_7_9_3/rearranged_h_0039.sdf

> <i_m_source_file_index>
41

> <r_mmod_Potential_Energy-OPLS-2005>
119.121734619141

> <r_mmod_Stretch_Energy-OPLS-2005>
52.3789100646973

> <r_mmod_Bend_Energy-OPLS-2005>
160.396331787109

> <r_mmod_Torsional_Energy-OPLS-2005>
259.875366210938

> <r_mmod_Improper_Torsional_Energy-OPLS-2005>
26.2869663238525

> <r_mmod_Van_der_Waal_Energy-OPLS-2005>
141.06640625

> <r_mmod_Electrostatic_Energy-OPLS-2005>
-365.308502197266

> <r_mmod_Solvation_Energy-OPLS-2005>
-194.521453857422

> <b_mmod_Minimization_Converged-OPLS-2005>
0

> <r_mmod_RMS_Derivative-OPLS-2005>
4.49833965301514

$$$$
42
                    3D
 Structure written by MMmdl.
156164  0  0  1  0            999 V2000
  -30.6393  -14.6930   20.4608 C   0  0  0  0  0  0
  -30.4285  -12.4209   19.4687 C   0  0  0  0  0  0
  -29.5103  -12.4974   18.2306 C   0  0  0  0  0  0
  -28.0329  -12.3395   18.6413 C   0  0  0  0  0  0
  -27.6465  -13.2305   19.8532 C   0  0  2  0  0  0
  -28.6916  -13.1487   20.9869 C   0  0  0  0  0  0
  -25.2534  -13.8202   20.5696 C   0  0  0  0  0  0
  -24.1816  -13.0453   20.9206 C   0  0  0  0  0  0
  -24.6404  -11.6928   20.8745 C   0  0  0  0  0  0
  -23.9074  -10.4307   21.0407 C   0  0  0  0  0  0
  -24.3621   -9.4216   21.9179 C   0  0  0  0  0  0
  -23.6298   -8.2252   22.0743 C   0  0  0  0  0  0
  -22.4282   -8.0289   21.3534 C   0  0  0  0  0  0
  -21.9919   -9.0265   20.4641 C   0  0  0  0  0  0
  -22.7246  -10.2145   20.3051 C   0  0  0  0  0  0
  -21.6862   -6.0735   22.5274 C   0  0  0  0  0  0
  -21.4022   -6.5635   23.8211 C   0  0  0  0  0  0
  -21.3661   -5.6787   24.9171 C   0  0  0  0  0  0
  -21.6049   -4.3048   24.7219 C   0  0  0  0  0  0
  -21.8823   -3.8141   23.4343 C   0  0  0  0  0  0
  -21.9198   -4.6960   22.3398 C   0  0  0  0  0  0
  -22.7830  -13.5233   21.1859 C   0  0  0  0  0  0
  -22.1661   -4.2147   21.0975 F   0  0  0  0  0  0
  -21.5635   -3.4534   25.7732 F   0  0  0  0  0  0
  -29.9971  -13.4810   20.4054 N   0  0  0  0  0  0
  -26.2965  -12.9406   20.3288 N   0  0  0  0  0  0
  -25.9336  -11.6551   20.5751 N   0  0  0  0  0  0
  -22.0466  -12.8231   22.0416 N   0  0  0  0  0  0
  -25.4246  -15.1918   20.4106 N   0  0  0  0  0  0
  -31.8265  -14.7835   20.1374 O   0  0  0  0  0  0
  -21.6640   -6.8879   21.4237 O   0  0  0  0  0  0
  -22.3526  -14.5542   20.6704 O   0  0  0  0  0  0
  -24.6294  -31.8567   23.2000 C   0  0  0  0  0  0
  -25.9123  -32.4762   23.8349 C   0  0  1  0  0  0
  -27.2236  -27.2835   20.1211 C   0  0  0  0  0  0
  -25.5923  -33.8563   24.2269 N   0  0  0  0  0  0
  -23.4244  -30.4811   21.5429 C   0  0  2  0  0  0
  -24.8710  -28.9276   20.1151 C   0  0  0  0  0  0
  -22.7489  -29.4621   22.4918 C   0  0  0  0  0  0
  -18.0294  -28.1398   22.8495 C   0  0  0  0  0  0
  -24.1488  -36.7289   23.2642 C   0  0  0  0  0  0
  -25.9694  -30.7776   21.3755 C   0  0  0  0  0  0
  -26.0422  -29.4010   20.7186 C   0  0  0  0  0  0
  -27.2214  -28.5926   20.7059 C   0  0  0  0  0  0
  -26.0244  -26.8688   19.4983 C   0  0  0  0  0  0
  -24.8660  -27.6690   19.4962 C   0  0  0  0  0  0
  -23.6417  -29.8133   20.1599 C   0  0  0  0  0  0
  -25.4111  -36.3071   24.0330 C   0  0  1  0  0  0
  -20.5899  -28.3708   23.1278 C   0  0  2  0  0  0
  -20.6781  -26.9424   22.5414 C   0  0  0  0  0  0
  -19.5748  -26.6392   21.5224 C   0  0  0  0  0  0
  -18.1932  -26.7943   22.1639 C   0  0  0  0  0  0
  -19.1549  -28.8868   23.2889 C   0  0  0  0  0  0
  -18.9469  -30.1468   23.8902 C   0  0  0  0  0  0
  -17.6465  -30.6593   24.0568 C   0  0  0  0  0  0
  -25.9052  -34.9440   23.5099 C   0  0  0  0  0  0
  -16.5355  -29.9092   23.6327 C   0  0  0  0  0  0
  -16.7283  -28.6514   23.0347 C   0  0  0  0  0  0
  -26.4496  -31.6585   25.0731 C   0  0  0  0  0  0
  -25.3728  -31.3733   26.1458 C   0  0  0  0  0  0
  -27.0335  -30.2998   24.6212 C   0  0  0  0  0  0
  -27.6046  -32.4333   25.7503 C   0  0  0  0  0  0
  -27.5576  -37.1797   24.8464 C   0  0  0  0  0  0
  -21.4200  -29.3054   22.3659 N   0  0  0  0  0  0
  -26.4285  -37.3767   23.9412 N   0  0  0  0  0  0
  -24.6935  -31.0562   22.0959 N   0  0  0  0  0  0
  -23.4199  -28.8155   23.3003 O   0  0  0  0  0  0
  -28.3573  -26.4443   20.1352 O   0  0  0  0  0  0
  -26.5626  -34.8909   22.4673 O   0  0  0  0  0  0
  -23.5451  -32.1371   23.7321 O   0  0  0  0  0  0
  -29.5395  -24.1172   19.7869 C   0  0  0  0  0  0
  -29.9067  -22.7366   19.7595 C   0  0  0  0  0  0
  -30.7170  -24.7529   19.2882 C   0  0  0  0  0  0
  -32.0881  -21.6552   18.7716 C   0  0  0  0  0  0
  -28.2487  -24.9468   20.1423 C   0  0  0  0  0  0
  -29.1938  -21.3688   20.1341 C   0  0  0  0  0  0
  -30.0015  -19.9589   20.1791 C   0  0  0  0  0  0
  -29.3637  -18.5212   20.5187 C   0  0  0  0  0  0
  -30.3747  -17.2665   20.4502 C   0  0  0  0  0  0
  -31.6860  -23.9527   18.9480 N   0  0  0  0  0  0
  -31.1987  -22.7286   19.1905 N   0  0  0  0  0  0
  -29.8918  -15.8381   20.6521 N   0  0  0  0  0  0
  -30.9668  -26.4422   19.0287 Cl  0  0  0  0  0  0
  -31.4725  -12.5275   19.1691 H   0  0  0  0  0  0
  -30.3520  -11.4420   19.9444 H   0  0  0  0  0  0
  -29.7817  -11.7227   17.5118 H   0  0  0  0  0  0
  -29.6532  -13.4515   17.7200 H   0  0  0  0  0  0
  -27.8742  -11.2897   18.8889 H   0  0  0  0  0  0
  -27.3811  -12.5519   17.7940 H   0  0  0  0  0  0
  -27.6480  -14.2553   19.4839 H   0  0  0  0  0  0
  -28.7142  -12.1494   21.4238 H   0  0  0  0  0  0
  -28.4363  -13.8335   21.7973 H   0  0  0  0  0  0
  -25.2767   -9.5697   22.4752 H   0  0  0  0  0  0
  -24.0011   -7.4645   22.7460 H   0  0  0  0  0  0
  -21.0849   -8.8791   19.8946 H   0  0  0  0  0  0
  -22.3702  -10.9686   19.6163 H   0  0  0  0  0  0
  -21.2002   -7.6143   23.9714 H   0  0  0  0  0  0
  -21.1486   -6.0510   25.9076 H   0  0  0  0  0  0
  -22.0596   -2.7602   23.2839 H   0  0  0  0  0  0
  -22.4082  -11.9908   22.4828 H   0  0  0  0  0  0
  -21.1078  -13.1252   22.2595 H   0  0  0  0  0  0
  -24.6599  -15.8482   20.5250 H   0  0  0  0  0  0
  -26.2708  -15.6279   20.0665 H   0  0  0  0  0  0
  -26.7192  -32.5415   23.1098 H   0  0  0  0  0  0
  -25.0046  -33.9706   25.0396 H   0  0  0  0  0  0
  -22.7205  -31.3032   21.3972 H   0  0  0  0  0  0
  -23.3741  -35.9630   23.3302 H   0  0  0  0  0  0
  -24.3579  -36.8912   22.2056 H   0  0  0  0  0  0
  -23.7245  -37.6492   23.6666 H   0  0  0  0  0  0
  -26.1062  -31.5390   20.6066 H   0  0  0  0  0  0
  -26.8480  -30.8269   22.0069 H   0  0  0  0  0  0
  -28.1238  -28.9559   21.1775 H   0  0  0  0  0  0
  -25.9507  -25.9177   18.9969 H   0  0  0  0  0  0
  -23.9683  -27.3034   19.0164 H   0  0  0  0  0  0
  -23.7664  -30.5882   19.4026 H   0  0  0  0  0  0
  -22.7603  -29.2463   19.8543 H   0  0  0  0  0  0
  -25.1291  -36.1918   25.0820 H   0  0  0  0  0  0
  -21.0013  -28.3289   24.1391 H   0  0  0  0  0  0
  -20.5695  -26.2312   23.3618 H   0  0  0  0  0  0
  -21.6643  -26.7452   22.1188 H   0  0  0  0  0  0
  -19.6901  -25.6304   21.1245 H   0  0  0  0  0  0
  -19.6677  -27.3210   20.6758 H   0  0  0  0  0  0
  -17.4198  -26.6704   21.4041 H   0  0  0  0  0  0
  -18.0326  -26.0086   22.9036 H   0  0  0  0  0  0
  -19.7942  -30.7295   24.2264 H   0  0  0  0  0  0
  -17.5013  -31.6268   24.5181 H   0  0  0  0  0  0
  -15.5356  -30.2994   23.7645 H   0  0  0  0  0  0
  -15.8686  -28.0832   22.7053 H   0  0  0  0  0  0
  -24.5897  -30.7090   25.7789 H   0  0  0  0  0  0
  -24.8930  -32.2904   26.4886 H   0  0  0  0  0  0
  -25.8053  -30.8903   27.0230 H   0  0  0  0  0  0
  -26.2917  -29.6753   24.1219 H   0  0  0  0  0  0
  -27.3993  -29.7253   25.4736 H   0  0  0  0  0  0
  -27.8808  -30.4265   23.9467 H   0  0  0  0  0  0
  -27.2639  -33.3628   26.2079 H   0  0  0  0  0  0
  -28.3851  -32.6908   25.0331 H   0  0  0  0  0  0
  -28.0721  -31.8463   26.5420 H   0  0  0  0  0  0
  -28.2587  -38.0098   24.7498 H   0  0  0  0  0  0
  -28.1072  -36.2624   24.6298 H   0  0  0  0  0  0
  -27.2295  -37.1458   25.8868 H   0  0  0  0  0  0
  -20.9383  -29.8771   21.6860 H   0  0  0  0  0  0
  -26.0161  -38.2839   24.1412 H   0  0  0  0  0  0
  -31.6178  -21.0717   17.9811 H   0  0  0  0  0  0
  -32.3680  -21.0241   19.6117 H   0  0  0  0  0  0
  -33.0148  -22.0557   18.3554 H   0  0  0  0  0  0
  -27.8905  -24.6605   21.1323 H   0  0  0  0  0  0
  -27.4693  -24.6214   19.4592 H   0  0  0  0  0  0
  -28.3616  -21.2395   19.4421 H   0  0  0  0  0  0
  -28.7242  -21.5049   21.1081 H   0  0  0  0  0  0
  -30.8404  -20.0864   20.8624 H   0  0  0  0  0  0
  -30.4154  -19.7949   19.1894 H   0  0  0  0  0  0
  -28.5393  -18.3411   19.8283 H   0  0  0  0  0  0
  -28.9172  -18.5606   21.5123 H   0  0  0  0  0  0
  -31.1722  -17.4372   21.1756 H   0  0  0  0  0  0
  -30.8666  -17.2968   19.4763 H   0  0  0  0  0  0
  -28.9162  -15.7078   20.8732 H   0  0  0  0  0  0
  1 25  1  0  0  0
  1 30  2  0  0  0
  1 82  1  0  0  0
  2  3  1  0  0  0
  2 25  1  0  0  0
  2 84  1  0  0  0
  2 85  1  0  0  0
  3  4  1  0  0  0
  3 86  1  0  0  0
  3 87  1  0  0  0
  4  5  1  0  0  0
  4 88  1  0  0  0
  4 89  1  0  0  0
  5  6  1  0  0  0
  5 26  1  0  0  0
  5 90  1  0  0  0
  6 25  1  0  0  0
  6 91  1  0  0  0
  6 92  1  0  0  0
  7  8  2  0  0  0
  7 26  1  0  0  0
  7 29  1  0  0  0
  8  9  1  0  0  0
  8 22  1  0  0  0
  9 10  1  0  0  0
  9 27  2  0  0  0
 10 11  2  0  0  0
 10 15  1  0  0  0
 11 12  1  0  0  0
 11 93  1  0  0  0
 12 13  2  0  0  0
 12 94  1  0  0  0
 13 14  1  0  0  0
 13 31  1  0  0  0
 14 15  2  0  0  0
 14 95  1  0  0  0
 15 96  1  0  0  0
 16 17  2  0  0  0
 16 21  1  0  0  0
 16 31  1  0  0  0
 17 18  1  0  0  0
 17 97  1  0  0  0
 18 19  2  0  0  0
 18 98  1  0  0  0
 19 20  1  0  0  0
 19 24  1  0  0  0
 20 21  2  0  0  0
 20 99  1  0  0  0
 21 23  1  0  0  0
 22 28  1  0  0  0
 22 32  2  0  0  0
 26 27  1  0  0  0
 28100  1  0  0  0
 28101  1  0  0  0
 29102  1  0  0  0
 29103  1  0  0  0
 33 34  1  0  0  0
 33 66  1  0  0  0
 33 70  2  0  0  0
 34 36  1  0  0  0
 34 59  1  0  0  0
 34104  1  0  0  0
 35 44  2  0  0  0
 35 45  1  0  0  0
 35 68  1  0  0  0
 36 56  1  0  0  0
 36105  1  0  0  0
 37 39  1  0  0  0
 37 47  1  0  0  0
 37 66  1  0  0  0
 37106  1  0  0  0
 38 43  2  0  0  0
 38 46  1  0  0  0
 38 47  1  0  0  0
 39 64  1  0  0  0
 39 67  2  0  0  0
 40 52  1  0  0  0
 40 53  2  0  0  0
 40 58  1  0  0  0
 41107  1  0  0  0
 41108  1  0  0  0
 41109  1  0  0  0
 41 48  1  0  0  0
 42 43  1  0  0  0
 42 66  1  0  0  0
 42110  1  0  0  0
 42111  1  0  0  0
 43 44  1  0  0  0
 44112  1  0  0  0
 45 46  2  0  0  0
 45113  1  0  0  0
 46114  1  0  0  0
 47115  1  0  0  0
 47116  1  0  0  0
 48 56  1  0  0  0
 48 65  1  0  0  0
 48117  1  0  0  0
 49 50  1  0  0  0
 49 53  1  0  0  0
 49 64  1  0  0  0
 49118  1  0  0  0
 50 51  1  0  0  0
 50119  1  0  0  0
 50120  1  0  0  0
 51 52  1  0  0  0
 51121  1  0  0  0
 51122  1  0  0  0
 52123  1  0  0  0
 52124  1  0  0  0
 53 54  1  0  0  0
 54 55  2  0  0  0
 54125  1  0  0  0
 55 57  1  0  0  0
 55126  1  0  0  0
 56 69  2  0  0  0
 57 58  2  0  0  0
 57127  1  0  0  0
 58128  1  0  0  0
 59 60  1  0  0  0
 59 61  1  0  0  0
 59 62  1  0  0  0
 60129  1  0  0  0
 60130  1  0  0  0
 60131  1  0  0  0
 61132  1  0  0  0
 61133  1  0  0  0
 61134  1  0  0  0
 62135  1  0  0  0
 62136  1  0  0  0
 62137  1  0  0  0
 63 65  1  0  0  0
 63138  1  0  0  0
 63139  1  0  0  0
 63140  1  0  0  0
 64141  1  0  0  0
 65142  1  0  0  0
 68 75  1  0  0  0
 71 72  2  0  0  0
 71 73  1  0  0  0
 71 75  1  0  0  0
 72 76  1  0  0  0
 72 81  1  0  0  0
 73 80  2  0  0  0
 73 83  1  0  0  0
 74 81  1  0  0  0
 74143  1  0  0  0
 74144  1  0  0  0
 74145  1  0  0  0
 75146  1  0  0  0
 75147  1  0  0  0
 76 77  1  0  0  0
 76148  1  0  0  0
 76149  1  0  0  0
 77 78  1  0  0  0
 77150  1  0  0  0
 77151  1  0  0  0
 78 79  1  0  0  0
 78152  1  0  0  0
 78153  1  0  0  0
 79 82  1  0  0  0
 79154  1  0  0  0
 79155  1  0  0  0
 80 81  1  0  0  0
 82156  1  0  0  0
M  ISO  4   1 100  68 101  75 101  82 100
M  END
> <chiral flag>
0

> <version>
0

> <s_m_source_file>
/data/baiqing/PycharmProjects/Reinvent-master-3.2/result/LINK_invent/BTK/process_docking_weight1_custom_sum_contain_oxygen_bond_distance_aromatic_linkinvent_7_9_3/rearranged_h_0039.sdf

> <i_m_source_file_index>
42

> <r_mmod_Potential_Energy-OPLS-2005>
117.953842163086

> <r_mmod_Stretch_Energy-OPLS-2005>
118.571563720703

> <r_mmod_Bend_Energy-OPLS-2005>
172.254089355469

> <r_mmod_Torsional_Energy-OPLS-2005>
215.82585144043

> <r_mmod_Improper_Torsional_Energy-OPLS-2005>
5.53304719924927

> <r_mmod_Van_der_Waal_Energy-OPLS-2005>
131.669418334961

> <r_mmod_Electrostatic_Energy-OPLS-2005>
-367.736480712891

> <r_mmod_Solvation_Energy-OPLS-2005>
-223.008071899414

> <b_mmod_Minimization_Converged-OPLS-2005>
0

> <r_mmod_RMS_Derivative-OPLS-2005>
1.53354728221893

$$$$
43
                    3D
 Structure written by MMmdl.
159167  0  0  1  0            999 V2000
  -30.6288  -14.5973   20.4918 C   0  0  0  0  0  0
  -30.4284  -12.3580   19.4580 C   0  0  0  0  0  0
  -29.5113  -12.5086   18.2232 C   0  0  0  0  0  0
  -28.0277  -12.3594   18.6188 C   0  0  0  0  0  0
  -27.6513  -13.2168   19.8564 C   0  0  2  0  0  0
  -28.6902  -13.0602   20.9884 C   0  0  0  0  0  0
  -25.2544  -13.8159   20.5661 C   0  0  0  0  0  0
  -24.1815  -13.0434   20.9175 C   0  0  0  0  0  0
  -24.6378  -11.6891   20.8716 C   0  0  0  0  0  0
  -23.9060  -10.4285   21.0404 C   0  0  0  0  0  0
  -24.3609   -9.4203   21.9178 C   0  0  0  0  0  0
  -23.6290   -8.2243   22.0749 C   0  0  0  0  0  0
  -22.4273   -8.0281   21.3537 C   0  0  0  0  0  0
  -21.9900   -9.0253   20.4642 C   0  0  0  0  0  0
  -22.7229  -10.2134   20.3053 C   0  0  0  0  0  0
  -21.6865   -6.0745   22.5279 C   0  0  0  0  0  0
  -21.4018   -6.5636   23.8213 C   0  0  0  0  0  0
  -21.3664   -5.6784   24.9169 C   0  0  0  0  0  0
  -21.6044   -4.3046   24.7216 C   0  0  0  0  0  0
  -21.8817   -3.8148   23.4332 C   0  0  0  0  0  0
  -21.9187   -4.6974   22.3393 C   0  0  0  0  0  0
  -22.7842  -13.5240   21.1855 C   0  0  0  0  0  0
  -22.1651   -4.2164   21.0972 F   0  0  0  0  0  0
  -21.5638   -3.4517   25.7729 F   0  0  0  0  0  0
  -30.0134  -13.3773   20.4391 N   0  0  0  0  0  0
  -26.2971  -12.9340   20.3256 N   0  0  0  0  0  0
  -25.9303  -11.6490   20.5693 N   0  0  0  0  0  0
  -22.0463  -12.8255   22.0414 N   0  0  0  0  0  0
  -25.4234  -15.1887   20.4086 N   0  0  0  0  0  0
  -31.8143  -14.7155   20.1694 O   0  0  0  0  0  0
  -21.6620   -6.8887   21.4247 O   0  0  0  0  0  0
  -22.3526  -14.5541   20.6688 O   0  0  0  0  0  0
  -24.6207  -31.8651   23.2065 C   0  0  0  0  0  0
  -25.9091  -32.4800   23.8375 C   0  0  1  0  0  0
  -27.2173  -27.3550   20.1194 C   0  0  0  0  0  0
  -25.5928  -33.8583   24.2310 N   0  0  0  0  0  0
  -23.4144  -30.4902   21.5470 C   0  0  2  0  0  0
  -24.8626  -28.9547   20.1059 C   0  0  0  0  0  0
  -22.7476  -29.4635   22.4938 C   0  0  0  0  0  0
  -18.0299  -28.1379   22.8503 C   0  0  0  0  0  0
  -24.1486  -36.7310   23.2635 C   0  0  0  0  0  0
  -25.9501  -30.8057   21.3759 C   0  0  0  0  0  0
  -26.0257  -29.4350   20.7201 C   0  0  0  0  0  0
  -27.2076  -28.6436   20.7251 C   0  0  0  0  0  0
  -26.0461  -26.9354   19.4506 C   0  0  0  0  0  0
  -24.8730  -27.7096   19.4589 C   0  0  0  0  0  0
  -23.6296  -29.8297   20.1584 C   0  0  0  0  0  0
  -25.4106  -36.3093   24.0339 C   0  0  1  0  0  0
  -20.5888  -28.3682   23.1299 C   0  0  2  0  0  0
  -20.6781  -26.9404   22.5448 C   0  0  0  0  0  0
  -19.5765  -26.6368   21.5234 C   0  0  0  0  0  0
  -18.1923  -26.7941   22.1606 C   0  0  0  0  0  0
  -19.1542  -28.8837   23.2923 C   0  0  0  0  0  0
  -18.9470  -30.1437   23.8950 C   0  0  0  0  0  0
  -17.6473  -30.6576   24.0609 C   0  0  0  0  0  0
  -25.9048  -34.9458   23.5118 C   0  0  0  0  0  0
  -16.5360  -29.9096   23.6327 C   0  0  0  0  0  0
  -16.7284  -28.6515   23.0335 C   0  0  0  0  0  0
  -26.4487  -31.6575   25.0716 C   0  0  0  0  0  0
  -25.3724  -31.3707   26.1450 C   0  0  0  0  0  0
  -27.0316  -30.2996   24.6127 C   0  0  0  0  0  0
  -27.6057  -32.4299   25.7477 C   0  0  0  0  0  0
  -27.5577  -37.1809   24.8461 C   0  0  0  0  0  0
  -21.4185  -29.3057   22.3718 N   0  0  0  0  0  0
  -26.4296  -37.3777   23.9405 N   0  0  0  0  0  0
  -24.6799  -31.0702   22.0997 N   0  0  0  0  0  0
  -23.4239  -28.8162   23.2982 O   0  0  0  0  0  0
  -28.3091  -26.4888   20.1833 O   0  0  0  0  0  0
  -26.5594  -34.8928   22.4680 O   0  0  0  0  0  0
  -23.5379  -32.1442   23.7409 O   0  0  0  0  0  0
  -30.3401  -20.9860   21.1594 C   0  0  0  0  0  0
  -28.1541  -20.0330   20.9867 C   0  0  0  0  0  0
  -28.9533  -21.2006   21.0383 C   0  0  0  0  0  0
  -30.8467  -19.6604   21.2712 C   0  0  0  0  0  0
  -29.9572  -18.5451   21.2208 C   0  0  0  0  0  0
  -32.3395  -19.4888   21.5124 C   0  0  0  0  0  0
  -30.1751  -16.7735   23.0257 C   0  0  0  0  0  0
  -28.2738  -22.6036   21.1193 C   0  0  0  0  0  0
  -29.7989  -15.9260   20.6466 C   0  0  0  0  0  0
  -28.9211  -23.9137   20.5188 C   0  0  0  0  0  0
  -27.9950  -25.1717   20.7576 C   0  0  0  0  0  0
  -30.4105  -17.0770   21.5333 C   0  0  1  0  0  0
  -28.6278  -18.7608   21.0795 N   0  0  0  0  0  0
  -31.4750  -12.4620   19.1665 H   0  0  0  0  0  0
  -30.3376  -11.3593   19.8870 H   0  0  0  0  0  0
  -29.7728  -11.7702   17.4639 H   0  0  0  0  0  0
  -29.6741  -13.4863   17.7666 H   0  0  0  0  0  0
  -27.8469  -11.3049   18.8271 H   0  0  0  0  0  0
  -27.3845  -12.6168   17.7759 H   0  0  0  0  0  0
  -27.6702  -14.2534   19.5224 H   0  0  0  0  0  0
  -28.6849  -12.0369   21.3695 H   0  0  0  0  0  0
  -28.4460  -13.6981   21.8390 H   0  0  0  0  0  0
  -25.2751   -9.5691   22.4747 H   0  0  0  0  0  0
  -24.0001   -7.4639   22.7467 H   0  0  0  0  0  0
  -21.0833   -8.8776   19.8949 H   0  0  0  0  0  0
  -22.3683  -10.9678   19.6160 H   0  0  0  0  0  0
  -21.2005   -7.6142   23.9734 H   0  0  0  0  0  0
  -21.1493   -6.0496   25.9083 H   0  0  0  0  0  0
  -22.0593   -2.7619   23.2811 H   0  0  0  0  0  0
  -22.4031  -11.9922   22.4858 H   0  0  0  0  0  0
  -21.1088  -13.1326   22.2604 H   0  0  0  0  0  0
  -24.6548  -15.8400   20.5267 H   0  0  0  0  0  0
  -26.2790  -15.6395   20.1106 H   0  0  0  0  0  0
  -26.7151  -32.5486   23.1129 H   0  0  0  0  0  0
  -25.0092  -33.9736   25.0468 H   0  0  0  0  0  0
  -22.7012  -31.3065   21.4069 H   0  0  0  0  0  0
  -23.3742  -35.9644   23.3290 H   0  0  0  0  0  0
  -24.3577  -36.8929   22.2046 H   0  0  0  0  0  0
  -23.7243  -37.6523   23.6650 H   0  0  0  0  0  0
  -26.0726  -31.5701   20.6066 H   0  0  0  0  0  0
  -26.8341  -30.8561   22.0006 H   0  0  0  0  0  0
  -28.0945  -29.0000   21.2297 H   0  0  0  0  0  0
  -26.0268  -25.9924   18.9209 H   0  0  0  0  0  0
  -23.9878  -27.3449   18.9565 H   0  0  0  0  0  0
  -23.7483  -30.6076   19.4021 H   0  0  0  0  0  0
  -22.7525  -29.2574   19.8544 H   0  0  0  0  0  0
  -25.1275  -36.1946   25.0829 H   0  0  0  0  0  0
  -20.9974  -28.3242   24.1423 H   0  0  0  0  0  0
  -20.5664  -26.2299   23.3652 H   0  0  0  0  0  0
  -21.6649  -26.7459   22.1240 H   0  0  0  0  0  0
  -19.6935  -25.6270   21.1282 H   0  0  0  0  0  0
  -19.6685  -27.3143   20.6743 H   0  0  0  0  0  0
  -17.4229  -26.6764   21.3975 H   0  0  0  0  0  0
  -18.0274  -26.0056   22.8947 H   0  0  0  0  0  0
  -19.7948  -30.7232   24.2320 H   0  0  0  0  0  0
  -17.5047  -31.6240   24.5249 H   0  0  0  0  0  0
  -15.5362  -30.3015   23.7626 H   0  0  0  0  0  0
  -15.8703  -28.0853   22.6965 H   0  0  0  0  0  0
  -24.5909  -30.7046   25.7782 H   0  0  0  0  0  0
  -24.8924  -32.2878   26.4861 H   0  0  0  0  0  0
  -25.8063  -30.8894   27.0221 H   0  0  0  0  0  0
  -26.2877  -29.6760   24.1157 H   0  0  0  0  0  0
  -27.4040  -29.7223   25.4598 H   0  0  0  0  0  0
  -27.8728  -30.4298   23.9316 H   0  0  0  0  0  0
  -27.2672  -33.3595   26.2050 H   0  0  0  0  0  0
  -28.3850  -32.6853   25.0289 H   0  0  0  0  0  0
  -28.0726  -31.8422   26.5382 H   0  0  0  0  0  0
  -28.2594  -38.0103   24.7498 H   0  0  0  0  0  0
  -28.1075  -36.2643   24.6291 H   0  0  0  0  0  0
  -27.2302  -37.1453   25.8864 H   0  0  0  0  0  0
  -20.9375  -29.8896   21.7019 H   0  0  0  0  0  0
  -26.0177  -38.2857   24.1391 H   0  0  0  0  0  0
  -31.0092  -21.8323   21.2268 H   0  0  0  0  0  0
  -27.0804  -20.1201   20.9201 H   0  0  0  0  0  0
  -32.8003  -20.4322   21.8103 H   0  0  0  0  0  0
  -32.8414  -19.1456   20.6100 H   0  0  0  0  0  0
  -32.5362  -18.7752   22.3121 H   0  0  0  0  0  0
  -30.6842  -17.4973   23.6606 H   0  0  0  0  0  0
  -30.5333  -15.7829   23.3029 H   0  0  0  0  0  0
  -29.1123  -16.8220   23.2707 H   0  0  0  0  0  0
  -28.0888  -22.7864   22.1791 H   0  0  0  0  0  0
  -27.2822  -22.4972   20.6767 H   0  0  0  0  0  0
  -29.7021  -16.3127   19.6323 H   0  0  0  0  0  0
  -28.7782  -15.7342   20.9696 H   0  0  0  0  0  0
  -29.0864  -23.7795   19.4495 H   0  0  0  0  0  0
  -29.8994  -24.0925   20.9666 H   0  0  0  0  0  0
  -27.9057  -25.3206   21.8351 H   0  0  0  0  0  0
  -27.0028  -24.8457   20.4513 H   0  0  0  0  0  0
  -31.4858  -17.0338   21.3663 H   0  0  0  0  0  0
  1 25  1  0  0  0
  1 30  2  0  0  0
  1 79  1  0  0  0
  2  3  1  0  0  0
  2 25  1  0  0  0
  2 84  1  0  0  0
  2 85  1  0  0  0
  3  4  1  0  0  0
  3 86  1  0  0  0
  3 87  1  0  0  0
  4  5  1  0  0  0
  4 88  1  0  0  0
  4 89  1  0  0  0
  5  6  1  0  0  0
  5 26  1  0  0  0
  5 90  1  0  0  0
  6 25  1  0  0  0
  6 91  1  0  0  0
  6 92  1  0  0  0
  7  8  2  0  0  0
  7 26  1  0  0  0
  7 29  1  0  0  0
  8  9  1  0  0  0
  8 22  1  0  0  0
  9 10  1  0  0  0
  9 27  2  0  0  0
 10 11  2  0  0  0
 10 15  1  0  0  0
 11 12  1  0  0  0
 11 93  1  0  0  0
 12 13  2  0  0  0
 12 94  1  0  0  0
 13 14  1  0  0  0
 13 31  1  0  0  0
 14 15  2  0  0  0
 14 95  1  0  0  0
 15 96  1  0  0  0
 16 17  2  0  0  0
 16 21  1  0  0  0
 16 31  1  0  0  0
 17 18  1  0  0  0
 17 97  1  0  0  0
 18 19  2  0  0  0
 18 98  1  0  0  0
 19 20  1  0  0  0
 19 24  1  0  0  0
 20 21  2  0  0  0
 20 99  1  0  0  0
 21 23  1  0  0  0
 22 28  1  0  0  0
 22 32  2  0  0  0
 26 27  1  0  0  0
 28100  1  0  0  0
 28101  1  0  0  0
 29102  1  0  0  0
 29103  1  0  0  0
 33 34  1  0  0  0
 33 66  1  0  0  0
 33 70  2  0  0  0
 34 36  1  0  0  0
 34 59  1  0  0  0
 34104  1  0  0  0
 35 44  2  0  0  0
 35 45  1  0  0  0
 35 68  1  0  0  0
 36 56  1  0  0  0
 36105  1  0  0  0
 37 39  1  0  0  0
 37 47  1  0  0  0
 37 66  1  0  0  0
 37106  1  0  0  0
 38 43  2  0  0  0
 38 46  1  0  0  0
 38 47  1  0  0  0
 39 64  1  0  0  0
 39 67  2  0  0  0
 40 52  1  0  0  0
 40 53  2  0  0  0
 40 58  1  0  0  0
 41107  1  0  0  0
 41108  1  0  0  0
 41109  1  0  0  0
 41 48  1  0  0  0
 42 43  1  0  0  0
 42 66  1  0  0  0
 42110  1  0  0  0
 42111  1  0  0  0
 43 44  1  0  0  0
 44112  1  0  0  0
 45 46  2  0  0  0
 45113  1  0  0  0
 46114  1  0  0  0
 47115  1  0  0  0
 47116  1  0  0  0
 48 56  1  0  0  0
 48 65  1  0  0  0
 48117  1  0  0  0
 49 50  1  0  0  0
 49 53  1  0  0  0
 49 64  1  0  0  0
 49118  1  0  0  0
 50 51  1  0  0  0
 50119  1  0  0  0
 50120  1  0  0  0
 51 52  1  0  0  0
 51121  1  0  0  0
 51122  1  0  0  0
 52123  1  0  0  0
 52124  1  0  0  0
 53 54  1  0  0  0
 54 55  2  0  0  0
 54125  1  0  0  0
 55 57  1  0  0  0
 55126  1  0  0  0
 56 69  2  0  0  0
 57 58  2  0  0  0
 57127  1  0  0  0
 58128  1  0  0  0
 59 60  1  0  0  0
 59 61  1  0  0  0
 59 62  1  0  0  0
 60129  1  0  0  0
 60130  1  0  0  0
 60131  1  0  0  0
 61132  1  0  0  0
 61133  1  0  0  0
 61134  1  0  0  0
 62135  1  0  0  0
 62136  1  0  0  0
 62137  1  0  0  0
 63 65  1  0  0  0
 63138  1  0  0  0
 63139  1  0  0  0
 63140  1  0  0  0
 64141  1  0  0  0
 65142  1  0  0  0
 68 81  1  0  0  0
 71 73  2  0  0  0
 71 74  1  0  0  0
 71143  1  0  0  0
 72 73  1  0  0  0
 72 83  2  0  0  0
 72144  1  0  0  0
 73 78  1  0  0  0
 74 75  2  0  0  0
 74 76  1  0  0  0
 75 82  1  0  0  0
 75 83  1  0  0  0
 76145  1  0  0  0
 76146  1  0  0  0
 76147  1  0  0  0
 77148  1  0  0  0
 77149  1  0  0  0
 77150  1  0  0  0
 77 82  1  0  0  0
 78 80  1  0  0  0
 78151  1  0  0  0
 78152  1  0  0  0
 79 82  1  0  0  0
 79153  1  0  0  0
 79154  1  0  0  0
 80 81  1  0  0  0
 80155  1  0  0  0
 80156  1  0  0  0
 81157  1  0  0  0
 81158  1  0  0  0
 82159  1  0  0  0
M  ISO  4   1 100  68 101  79 100  81 101
M  END
> <chiral flag>
0

> <version>
0

> <s_m_source_file>
/data/baiqing/PycharmProjects/Reinvent-master-3.2/result/LINK_invent/BTK/process_docking_weight1_custom_sum_contain_oxygen_bond_distance_aromatic_linkinvent_7_9_3/rearranged_h_0039.sdf

> <i_m_source_file_index>
43

> <r_mmod_Potential_Energy-OPLS-2005>
-149.173950195312

> <r_mmod_Stretch_Energy-OPLS-2005>
63.3913078308105

> <r_mmod_Bend_Energy-OPLS-2005>
127.44571685791

> <r_mmod_Torsional_Energy-OPLS-2005>
189.804397583008

> <r_mmod_Improper_Torsional_Energy-OPLS-2005>
8.2209644317627

> <r_mmod_Van_der_Waal_Energy-OPLS-2005>
146.559753417969

> <r_mmod_Electrostatic_Energy-OPLS-2005>
-527.363952636719

> <r_mmod_Solvation_Energy-OPLS-2005>
-197.887451171875

> <b_mmod_Minimization_Converged-OPLS-2005>
0

> <r_mmod_RMS_Derivative-OPLS-2005>
2.95941114425659

$$$$
44
                    3D
 Structure written by MMmdl.
162170  0  0  1  0            999 V2000
  -30.7161  -14.4907   20.5256 C   0  0  0  0  0  0
  -30.4159  -12.3065   19.4218 C   0  0  0  0  0  0
  -29.4941  -12.4851   18.2001 C   0  0  0  0  0  0
  -28.0164  -12.3607   18.6164 C   0  0  0  0  0  0
  -27.6616  -13.2130   19.8651 C   0  0  2  0  0  0
  -28.7085  -13.0291   20.9877 C   0  0  0  0  0  0
  -25.2618  -13.8189   20.5679 C   0  0  0  0  0  0
  -24.1867  -13.0471   20.9178 C   0  0  0  0  0  0
  -24.6398  -11.6931   20.8708 C   0  0  0  0  0  0
  -23.9065  -10.4311   21.0368 C   0  0  0  0  0  0
  -24.3627   -9.4241   21.9175 C   0  0  0  0  0  0
  -23.6329   -8.2259   22.0755 C   0  0  0  0  0  0
  -22.4313   -8.0273   21.3543 C   0  0  0  0  0  0
  -21.9931   -9.0241   20.4645 C   0  0  0  0  0  0
  -22.7211  -10.2146   20.3051 C   0  0  0  0  0  0
  -21.6855   -6.0715   22.5258 C   0  0  0  0  0  0
  -21.3985   -6.5632   23.8181 C   0  0  0  0  0  0
  -21.3690   -5.6799   24.9159 C   0  0  0  0  0  0
  -21.6082   -4.3059   24.7206 C   0  0  0  0  0  0
  -21.8827   -3.8133   23.4322 C   0  0  0  0  0  0
  -21.9204   -4.6946   22.3375 C   0  0  0  0  0  0
  -22.7883  -13.5251   21.1826 C   0  0  0  0  0  0
  -22.1661   -4.2139   21.0942 F   0  0  0  0  0  0
  -21.5683   -3.4540   25.7710 F   0  0  0  0  0  0
  -30.0357  -13.3158   20.4221 N   0  0  0  0  0  0
  -26.3036  -12.9353   20.3332 N   0  0  0  0  0  0
  -25.9323  -11.6511   20.5762 N   0  0  0  0  0  0
  -22.0533  -12.8256   22.0396 N   0  0  0  0  0  0
  -25.4392  -15.1896   20.4042 N   0  0  0  0  0  0
  -31.8513  -14.6458   20.0704 O   0  0  0  0  0  0
  -21.6674   -6.8855   21.4223 O   0  0  0  0  0  0
  -22.3554  -14.5531   20.6642 O   0  0  0  0  0  0
  -24.6124  -31.8707   23.2167 C   0  0  0  0  0  0
  -25.9046  -32.4850   23.8410 C   0  0  1  0  0  0
  -27.2331  -27.5022   20.0725 C   0  0  0  0  0  0
  -25.5892  -33.8643   24.2345 N   0  0  0  0  0  0
  -23.3929  -30.5025   21.5555 C   0  0  2  0  0  0
  -24.8355  -28.9721   20.1258 C   0  0  0  0  0  0
  -22.7382  -29.4693   22.4995 C   0  0  0  0  0  0
  -18.0266  -28.1372   22.8496 C   0  0  0  0  0  0
  -24.1477  -36.7342   23.2636 C   0  0  0  0  0  0
  -25.9146  -30.8624   21.3528 C   0  0  0  0  0  0
  -25.9940  -29.4963   20.7132 C   0  0  0  0  0  0
  -27.1965  -28.7615   20.7000 C   0  0  0  0  0  0
  -26.0523  -26.9647   19.5158 C   0  0  0  0  0  0
  -24.8509  -27.6946   19.5380 C   0  0  0  0  0  0
  -23.6002  -29.8401   20.1683 C   0  0  0  0  0  0
  -25.4086  -36.3131   24.0345 C   0  0  1  0  0  0
  -20.5851  -28.3658   23.1307 C   0  0  2  0  0  0
  -20.6774  -26.9397   22.5414 C   0  0  0  0  0  0
  -19.5763  -26.6384   21.5210 C   0  0  0  0  0  0
  -18.1924  -26.7912   22.1613 C   0  0  0  0  0  0
  -19.1517  -28.8824   23.2905 C   0  0  0  0  0  0
  -18.9460  -30.1423   23.8931 C   0  0  0  0  0  0
  -17.6470  -30.6579   24.0565 C   0  0  0  0  0  0
  -25.9020  -34.9500   23.5110 C   0  0  0  0  0  0
  -16.5348  -29.9111   23.6301 C   0  0  0  0  0  0
  -16.7252  -28.6509   23.0334 C   0  0  0  0  0  0
  -26.4513  -31.6619   25.0707 C   0  0  0  0  0  0
  -25.3836  -31.3721   26.1495 C   0  0  0  0  0  0
  -27.0285  -30.3061   24.5995 C   0  0  0  0  0  0
  -27.6074  -32.4335   25.7496 C   0  0  0  0  0  0
  -27.5576  -37.1812   24.8454 C   0  0  0  0  0  0
  -21.4110  -29.3038   22.3737 N   0  0  0  0  0  0
  -26.4271  -37.3815   23.9442 N   0  0  0  0  0  0
  -24.6586  -31.0896   22.1041 N   0  0  0  0  0  0
  -23.4187  -28.8212   23.2989 O   0  0  0  0  0  0
  -28.4207  -26.8282   19.9759 O   0  0  0  0  0  0
  -26.5560  -34.8941   22.4677 O   0  0  0  0  0  0
  -23.5340  -32.1405   23.7631 O   0  0  0  0  0  0
  -30.3854  -21.0843   18.3325 C   0  0  0  0  0  0
  -29.9617  -22.4177   18.1818 C   0  0  0  0  0  0
  -28.2259  -20.5031   19.2762 C   0  0  0  0  0  0
  -29.5268  -20.1135   18.8864 C   0  0  0  0  0  0
  -28.6710  -22.8157   18.5950 C   0  0  0  0  0  0
  -27.8038  -21.8435   19.1565 C   0  0  0  0  0  0
  -27.2622  -24.3699   17.1963 C   0  0  0  0  0  0
  -30.0354  -18.6789   19.0386 C   0  0  0  0  0  0
  -29.4413  -17.8703   20.2236 C   0  0  0  0  0  0
  -29.3564  -25.2977   18.3396 C   0  0  0  0  0  0
  -30.4387  -16.9501   20.9787 C   0  0  0  0  0  0
  -28.9099  -26.7355   18.6373 C   0  0  0  0  0  0
  -28.2060  -24.2630   18.4098 C   0  0  2  0  0  0
  -30.0163  -15.5367   21.0003 N   0  0  0  0  0  0
  -26.2207  -22.2581   19.7201 Cl  0  0  0  0  0  0
  -31.4618  -12.3873   19.1173 H   0  0  0  0  0  0
  -30.2990  -11.3046   19.8364 H   0  0  0  0  0  0
  -29.7245  -11.7351   17.4425 H   0  0  0  0  0  0
  -29.6751  -13.4574   17.7397 H   0  0  0  0  0  0
  -27.8320  -11.3073   18.8269 H   0  0  0  0  0  0
  -27.3648  -12.6257   17.7818 H   0  0  0  0  0  0
  -27.6983  -14.2571   19.5569 H   0  0  0  0  0  0
  -28.6915  -12.0056   21.3597 H   0  0  0  0  0  0
  -28.4811  -13.6666   21.8433 H   0  0  0  0  0  0
  -25.2778   -9.5750   22.4750 H   0  0  0  0  0  0
  -24.0068   -7.4668   22.7496 H   0  0  0  0  0  0
  -21.0859   -8.8716   19.8968 H   0  0  0  0  0  0
  -22.3626  -10.9687   19.6173 H   0  0  0  0  0  0
  -21.1891   -7.6130   23.9654 H   0  0  0  0  0  0
  -21.1549   -6.0530   25.9070 H   0  0  0  0  0  0
  -22.0575   -2.7595   23.2800 H   0  0  0  0  0  0
  -22.4121  -11.9921   22.4799 H   0  0  0  0  0  0
  -21.1133  -13.1262   22.2557 H   0  0  0  0  0  0
  -24.6790  -15.8555   20.4977 H   0  0  0  0  0  0
  -26.2903  -15.6122   20.0555 H   0  0  0  0  0  0
  -26.7116  -32.5598   23.1193 H   0  0  0  0  0  0
  -25.0154  -33.9811   25.0546 H   0  0  0  0  0  0
  -22.6794  -31.3186   21.4198 H   0  0  0  0  0  0
  -23.3742  -35.9672   23.3284 H   0  0  0  0  0  0
  -24.3586  -36.8954   22.2050 H   0  0  0  0  0  0
  -23.7210  -37.6538   23.6658 H   0  0  0  0  0  0
  -25.9973  -31.6258   20.5779 H   0  0  0  0  0  0
  -26.8160  -30.9308   21.9490 H   0  0  0  0  0  0
  -28.0967  -29.1719   21.1366 H   0  0  0  0  0  0
  -26.0514  -25.9909   19.0551 H   0  0  0  0  0  0
  -23.9554  -27.2725   19.1043 H   0  0  0  0  0  0
  -23.7226  -30.6184   19.4135 H   0  0  0  0  0  0
  -22.7214  -29.2708   19.8587 H   0  0  0  0  0  0
  -25.1264  -36.1996   25.0831 H   0  0  0  0  0  0
  -20.9941  -28.3224   24.1431 H   0  0  0  0  0  0
  -20.5671  -26.2274   23.3610 H   0  0  0  0  0  0
  -21.6650  -26.7463   22.1214 H   0  0  0  0  0  0
  -19.6934  -25.6310   21.1208 H   0  0  0  0  0  0
  -19.6692  -27.3227   20.6765 H   0  0  0  0  0  0
  -17.4213  -26.6651   21.3994 H   0  0  0  0  0  0
  -18.0317  -26.0041   22.8988 H   0  0  0  0  0  0
  -19.7951  -30.7206   24.2311 H   0  0  0  0  0  0
  -17.5047  -31.6257   24.5183 H   0  0  0  0  0  0
  -15.5363  -30.3046   23.7587 H   0  0  0  0  0  0
  -15.8642  -28.0850   22.7032 H   0  0  0  0  0  0
  -24.6008  -30.7034   25.7915 H   0  0  0  0  0  0
  -24.9067  -32.2880   26.4988 H   0  0  0  0  0  0
  -25.8268  -30.8928   27.0225 H   0  0  0  0  0  0
  -26.2736  -29.6841   24.1164 H   0  0  0  0  0  0
  -27.4180  -29.7287   25.4388 H   0  0  0  0  0  0
  -27.8544  -30.4385   23.9002 H   0  0  0  0  0  0
  -27.2664  -33.3622   26.2099 H   0  0  0  0  0  0
  -28.3927  -32.6892   25.0370 H   0  0  0  0  0  0
  -28.0708  -31.8443   26.5418 H   0  0  0  0  0  0
  -28.2585  -38.0123   24.7538 H   0  0  0  0  0  0
  -28.1067  -36.2646   24.6224 H   0  0  0  0  0  0
  -27.2313  -37.1417   25.8860 H   0  0  0  0  0  0
  -20.9237  -29.8825   21.7035 H   0  0  0  0  0  0
  -26.0155  -38.2882   24.1491 H   0  0  0  0  0  0
  -31.3852  -20.8138   18.0217 H   0  0  0  0  0  0
  -30.6522  -23.1267   17.7502 H   0  0  0  0  0  0
  -27.5337  -19.7868   19.6904 H   0  0  0  0  0  0
  -26.3701  -23.7588   17.3402 H   0  0  0  0  0  0
  -27.7493  -24.0308   16.2812 H   0  0  0  0  0  0
  -26.9159  -25.3863   17.0199 H   0  0  0  0  0  0
  -31.1228  -18.7222   19.1171 H   0  0  0  0  0  0
  -29.8345  -18.1575   18.1023 H   0  0  0  0  0  0
  -28.5741  -17.3106   19.8670 H   0  0  0  0  0  0
  -29.0457  -18.5666   20.9642 H   0  0  0  0  0  0
  -30.1283  -25.0460   19.0662 H   0  0  0  0  0  0
  -29.8381  -25.2623   17.3618 H   0  0  0  0  0  0
  -30.4877  -17.2790   22.0184 H   0  0  0  0  0  0
  -31.4608  -17.0750   20.6078 H   0  0  0  0  0  0
  -28.1842  -27.0675   17.8901 H   0  0  0  0  0  0
  -29.7573  -27.4147   18.5400 H   0  0  0  0  0  0
  -27.6497  -24.5093   19.3120 H   0  0  0  0  0  0
  -29.0887  -15.3444   21.3473 H   0  0  0  0  0  0
  1 25  1  0  0  0
  1 30  2  0  0  0
  1 84  1  0  0  0
  2  3  1  0  0  0
  2 25  1  0  0  0
  2 86  1  0  0  0
  2 87  1  0  0  0
  3  4  1  0  0  0
  3 88  1  0  0  0
  3 89  1  0  0  0
  4  5  1  0  0  0
  4 90  1  0  0  0
  4 91  1  0  0  0
  5  6  1  0  0  0
  5 26  1  0  0  0
  5 92  1  0  0  0
  6 25  1  0  0  0
  6 93  1  0  0  0
  6 94  1  0  0  0
  7  8  2  0  0  0
  7 26  1  0  0  0
  7 29  1  0  0  0
  8  9  1  0  0  0
  8 22  1  0  0  0
  9 10  1  0  0  0
  9 27  2  0  0  0
 10 11  2  0  0  0
 10 15  1  0  0  0
 11 12  1  0  0  0
 11 95  1  0  0  0
 12 13  2  0  0  0
 12 96  1  0  0  0
 13 14  1  0  0  0
 13 31  1  0  0  0
 14 15  2  0  0  0
 14 97  1  0  0  0
 15 98  1  0  0  0
 16 17  2  0  0  0
 16 21  1  0  0  0
 16 31  1  0  0  0
 17 18  1  0  0  0
 17 99  1  0  0  0
 18 19  2  0  0  0
 18100  1  0  0  0
 19 20  1  0  0  0
 19 24  1  0  0  0
 20 21  2  0  0  0
 20101  1  0  0  0
 21 23  1  0  0  0
 22 28  1  0  0  0
 22 32  2  0  0  0
 26 27  1  0  0  0
 28102  1  0  0  0
 28103  1  0  0  0
 29104  1  0  0  0
 29105  1  0  0  0
 33 34  1  0  0  0
 33 66  1  0  0  0
 33 70  2  0  0  0
 34 36  1  0  0  0
 34 59  1  0  0  0
 34106  1  0  0  0
 35 44  2  0  0  0
 35 45  1  0  0  0
 35 68  1  0  0  0
 36 56  1  0  0  0
 36107  1  0  0  0
 37 39  1  0  0  0
 37 47  1  0  0  0
 37 66  1  0  0  0
 37108  1  0  0  0
 38 43  2  0  0  0
 38 46  1  0  0  0
 38 47  1  0  0  0
 39 64  1  0  0  0
 39 67  2  0  0  0
 40 52  1  0  0  0
 40 53  2  0  0  0
 40 58  1  0  0  0
 41109  1  0  0  0
 41110  1  0  0  0
 41111  1  0  0  0
 41 48  1  0  0  0
 42 43  1  0  0  0
 42 66  1  0  0  0
 42112  1  0  0  0
 42113  1  0  0  0
 43 44  1  0  0  0
 44114  1  0  0  0
 45 46  2  0  0  0
 45115  1  0  0  0
 46116  1  0  0  0
 47117  1  0  0  0
 47118  1  0  0  0
 48 56  1  0  0  0
 48 65  1  0  0  0
 48119  1  0  0  0
 49 50  1  0  0  0
 49 53  1  0  0  0
 49 64  1  0  0  0
 49120  1  0  0  0
 50 51  1  0  0  0
 50121  1  0  0  0
 50122  1  0  0  0
 51 52  1  0  0  0
 51123  1  0  0  0
 51124  1  0  0  0
 52125  1  0  0  0
 52126  1  0  0  0
 53 54  1  0  0  0
 54 55  2  0  0  0
 54127  1  0  0  0
 55 57  1  0  0  0
 55128  1  0  0  0
 56 69  2  0  0  0
 57 58  2  0  0  0
 57129  1  0  0  0
 58130  1  0  0  0
 59 60  1  0  0  0
 59 61  1  0  0  0
 59 62  1  0  0  0
 60131  1  0  0  0
 60132  1  0  0  0
 60133  1  0  0  0
 61134  1  0  0  0
 61135  1  0  0  0
 61136  1  0  0  0
 62137  1  0  0  0
 62138  1  0  0  0
 62139  1  0  0  0
 63 65  1  0  0  0
 63140  1  0  0  0
 63141  1  0  0  0
 63142  1  0  0  0
 64143  1  0  0  0
 65144  1  0  0  0
 68 82  1  0  0  0
 71 72  2  0  0  0
 71 74  1  0  0  0
 71145  1  0  0  0
 72 75  1  0  0  0
 72146  1  0  0  0
 73 74  2  0  0  0
 73 76  1  0  0  0
 73147  1  0  0  0
 74 78  1  0  0  0
 75 76  2  0  0  0
 75 83  1  0  0  0
 76 85  1  0  0  0
 77148  1  0  0  0
 77149  1  0  0  0
 77150  1  0  0  0
 77 83  1  0  0  0
 78 79  1  0  0  0
 78151  1  0  0  0
 78152  1  0  0  0
 79 81  1  0  0  0
 79153  1  0  0  0
 79154  1  0  0  0
 80 82  1  0  0  0
 80 83  1  0  0  0
 80155  1  0  0  0
 80156  1  0  0  0
 81 84  1  0  0  0
 81157  1  0  0  0
 81158  1  0  0  0
 82159  1  0  0  0
 82160  1  0  0  0
 83161  1  0  0  0
 84162  1  0  0  0
M  ISO  4   1 100  68 101  82 101  84 100
M  END
> <chiral flag>
0

> <version>
0

> <s_m_source_file>
/data/baiqing/PycharmProjects/Reinvent-master-3.2/result/LINK_invent/BTK/process_docking_weight1_custom_sum_contain_oxygen_bond_distance_aromatic_linkinvent_7_9_3/rearranged_h_0039.sdf

> <i_m_source_file_index>
44

> <r_mmod_Potential_Energy-OPLS-2005>
-12.5683994293213

> <r_mmod_Stretch_Energy-OPLS-2005>
34.6984329223633

> <r_mmod_Bend_Energy-OPLS-2005>
93.1096649169922

> <r_mmod_Torsional_Energy-OPLS-2005>
247.59553527832

> <r_mmod_Improper_Torsional_Energy-OPLS-2005>
3.87942004203796

> <r_mmod_Van_der_Waal_Energy-OPLS-2005>
158.629821777344

> <r_mmod_Electrostatic_Energy-OPLS-2005>
-363.037841796875

> <r_mmod_Solvation_Energy-OPLS-2005>
-201.688781738281

> <b_mmod_Minimization_Converged-OPLS-2005>
0

> <r_mmod_RMS_Derivative-OPLS-2005>
4.95066261291504

$$$$
45
                    3D
 Structure written by MMmdl.
158166  0  0  1  0            999 V2000
  -30.6295  -14.6557   20.4860 C   0  0  0  0  0  0
  -30.4117  -12.3863   19.4712 C   0  0  0  0  0  0
  -29.4919  -12.5184   18.2346 C   0  0  0  0  0  0
  -28.0215  -12.3439   18.6499 C   0  0  0  0  0  0
  -27.6509  -13.2192   19.8763 C   0  0  2  0  0  0
  -28.6950  -13.0979   21.0123 C   0  0  0  0  0  0
  -25.2548  -13.8158   20.5707 C   0  0  0  0  0  0
  -24.1817  -13.0425   20.9165 C   0  0  0  0  0  0
  -24.6397  -11.6877   20.8769 C   0  0  0  0  0  0
  -23.9069  -10.4267   21.0413 C   0  0  0  0  0  0
  -24.3623   -9.4178   21.9194 C   0  0  0  0  0  0
  -23.6285   -8.2213   22.0758 C   0  0  0  0  0  0
  -22.4272   -8.0269   21.3537 C   0  0  0  0  0  0
  -21.9914   -9.0251   20.4652 C   0  0  0  0  0  0
  -22.7245  -10.2115   20.3060 C   0  0  0  0  0  0
  -21.6857   -6.0722   22.5255 C   0  0  0  0  0  0
  -21.4030   -6.5634   23.8186 C   0  0  0  0  0  0
  -21.3669   -5.6791   24.9154 C   0  0  0  0  0  0
  -21.6033   -4.3052   24.7205 C   0  0  0  0  0  0
  -21.8824   -3.8140   23.4333 C   0  0  0  0  0  0
  -21.9189   -4.6949   22.3384 C   0  0  0  0  0  0
  -22.7844  -13.5209   21.1832 C   0  0  0  0  0  0
  -22.1664   -4.2129   21.0964 F   0  0  0  0  0  0
  -21.5620   -3.4549   25.7728 F   0  0  0  0  0  0
  -30.0113  -13.4279   20.4473 N   0  0  0  0  0  0
  -26.2983  -12.9350   20.3438 N   0  0  0  0  0  0
  -25.9332  -11.6491   20.5837 N   0  0  0  0  0  0
  -22.0558  -12.8181   22.0408 N   0  0  0  0  0  0
  -25.4307  -15.1877   20.4123 N   0  0  0  0  0  0
  -31.7753  -14.7986   20.0506 O   0  0  0  0  0  0
  -21.6648   -6.8864   21.4220 O   0  0  0  0  0  0
  -22.3520  -14.5516   20.6685 O   0  0  0  0  0  0
  -24.6243  -31.8518   23.1929 C   0  0  0  0  0  0
  -25.9054  -32.4730   23.8324 C   0  0  1  0  0  0
  -27.2019  -27.2641   20.1477 C   0  0  0  0  0  0
  -25.5855  -33.8536   24.2211 N   0  0  0  0  0  0
  -23.4216  -30.4763   21.5305 C   0  0  2  0  0  0
  -24.8712  -28.9183   20.1119 C   0  0  0  0  0  0
  -22.7456  -29.4581   22.4810 C   0  0  0  0  0  0
  -18.0299  -28.1380   22.8396 C   0  0  0  0  0  0
  -24.1492  -36.7302   23.2639 C   0  0  0  0  0  0
  -25.9700  -30.7595   21.3855 C   0  0  0  0  0  0
  -26.0381  -29.3852   20.7289 C   0  0  0  0  0  0
  -27.2094  -28.5668   20.7416 C   0  0  0  0  0  0
  -26.0192  -26.8691   19.4807 C   0  0  0  0  0  0
  -24.8617  -27.6655   19.4830 C   0  0  0  0  0  0
  -23.6433  -29.8014   20.1517 C   0  0  0  0  0  0
  -25.4103  -36.3011   24.0292 C   0  0  1  0  0  0
  -20.5883  -28.3692   23.1185 C   0  0  2  0  0  0
  -20.6777  -26.9415   22.5344 C   0  0  0  0  0  0
  -19.5784  -26.6352   21.5123 C   0  0  0  0  0  0
  -18.1965  -26.7911   22.1555 C   0  0  0  0  0  0
  -19.1554  -28.8861   23.2786 C   0  0  0  0  0  0
  -18.9502  -30.1464   23.8818 C   0  0  0  0  0  0
  -17.6518  -30.6585   24.0548 C   0  0  0  0  0  0
  -25.9035  -34.9396   23.5031 C   0  0  0  0  0  0
  -16.5393  -29.9075   23.6360 C   0  0  0  0  0  0
  -16.7297  -28.6504   23.0326 C   0  0  0  0  0  0
  -26.4473  -31.6586   25.0727 C   0  0  0  0  0  0
  -25.3690  -31.3732   26.1445 C   0  0  0  0  0  0
  -27.0333  -30.2984   24.6274 C   0  0  0  0  0  0
  -27.6001  -32.4426   25.7473 C   0  0  0  0  0  0
  -27.5562  -37.1775   24.8447 C   0  0  0  0  0  0
  -21.4181  -29.3032   22.3576 N   0  0  0  0  0  0
  -26.4269  -37.3712   23.9402 N   0  0  0  0  0  0
  -24.6887  -31.0510   22.0898 N   0  0  0  0  0  0
  -23.4171  -28.8100   23.2874 O   0  0  0  0  0  0
  -28.2827  -26.3666   20.2010 O   0  0  0  0  0  0
  -26.5640  -34.8841   22.4628 O   0  0  0  0  0  0
  -23.5381  -32.1370   23.7186 O   0  0  0  0  0  0
  -28.6164  -22.3873   20.6799 C   0  0  0  0  0  0
  -29.3741  -21.2262   20.2581 C   0  0  0  0  0  0
  -28.9337  -23.7396   20.2659 C   0  0  0  0  0  0
  -30.4658  -21.5275   19.4054 C   0  0  0  0  0  0
  -30.0929  -23.8547   19.4712 C   0  0  0  0  0  0
  -30.6594  -25.1765   18.9850 C   0  0  0  0  0  0
  -28.8877  -19.7298   20.5323 C   0  0  0  0  0  0
  -27.9926  -24.9631   20.6390 C   0  0  0  0  0  0
  -31.3049  -20.4845   18.6850 C   0  0  0  0  0  0
  -29.8158  -18.4895   21.0187 C   0  0  0  0  0  0
  -29.8533  -17.1251   20.1546 C   0  0  0  0  0  0
  -30.8160  -22.7891   19.0711 N   0  0  0  0  0  0
  -29.8587  -15.7507   20.8098 N   0  0  0  0  0  0
  -30.9109  -20.4353   16.9409 Cl  0  0  0  0  0  0
  -31.4607  -12.4634   19.1811 H   0  0  0  0  0  0
  -30.2966  -11.3921   19.9082 H   0  0  0  0  0  0
  -29.7522  -11.7816   17.4730 H   0  0  0  0  0  0
  -29.6277  -13.4980   17.7726 H   0  0  0  0  0  0
  -27.8686  -11.2914   18.8893 H   0  0  0  0  0  0
  -27.3553  -12.5631   17.8159 H   0  0  0  0  0  0
  -27.6645  -14.2515   19.5277 H   0  0  0  0  0  0
  -28.7012  -12.0882   21.4244 H   0  0  0  0  0  0
  -28.4430  -13.7568   21.8443 H   0  0  0  0  0  0
  -25.2765   -9.5631   22.4779 H   0  0  0  0  0  0
  -23.9981   -7.4605   22.7481 H   0  0  0  0  0  0
  -21.0835   -8.8770   19.8970 H   0  0  0  0  0  0
  -22.3711  -10.9663   19.6170 H   0  0  0  0  0  0
  -21.2058   -7.6155   23.9671 H   0  0  0  0  0  0
  -21.1490   -6.0545   25.9047 H   0  0  0  0  0  0
  -22.0603   -2.7604   23.2837 H   0  0  0  0  0  0
  -22.4240  -11.9843   22.4735 H   0  0  0  0  0  0
  -21.1180  -13.1176   22.2712 H   0  0  0  0  0  0
  -24.6673  -15.8473   20.5050 H   0  0  0  0  0  0
  -26.2920  -15.6212   20.1058 H   0  0  0  0  0  0
  -26.7074  -32.5408   23.1022 H   0  0  0  0  0  0
  -24.9967  -33.9739   25.0324 H   0  0  0  0  0  0
  -22.7162  -31.2946   21.3706 H   0  0  0  0  0  0
  -23.3687  -35.9710   23.3289 H   0  0  0  0  0  0
  -24.3554  -36.8968   22.2055 H   0  0  0  0  0  0
  -23.7323  -37.6510   23.6736 H   0  0  0  0  0  0
  -26.1259  -31.5162   20.6170 H   0  0  0  0  0  0
  -26.8406  -30.8000   22.0294 H   0  0  0  0  0  0
  -28.0965  -28.8985   21.2630 H   0  0  0  0  0  0
  -25.9648  -25.9208   18.9616 H   0  0  0  0  0  0
  -23.9623  -27.3028   19.0024 H   0  0  0  0  0  0
  -23.7618  -30.5643   19.3831 H   0  0  0  0  0  0
  -22.7747  -29.2161   19.8464 H   0  0  0  0  0  0
  -25.1279  -36.1831   25.0787 H   0  0  0  0  0  0
  -21.0001  -28.3277   24.1288 H   0  0  0  0  0  0
  -20.5599  -26.2319   23.3548 H   0  0  0  0  0  0
  -21.6667  -26.7378   22.1207 H   0  0  0  0  0  0
  -19.6968  -25.6223   21.1249 H   0  0  0  0  0  0
  -19.6766  -27.3089   20.6586 H   0  0  0  0  0  0
  -17.4218  -26.6592   21.3993 H   0  0  0  0  0  0
  -18.0449  -26.0085   22.8998 H   0  0  0  0  0  0
  -19.7998  -30.7288   24.2125 H   0  0  0  0  0  0
  -17.5087  -31.6257   24.5161 H   0  0  0  0  0  0
  -15.5406  -30.2969   23.7723 H   0  0  0  0  0  0
  -15.8680  -28.0825   22.7057 H   0  0  0  0  0  0
  -24.5892  -30.7060   25.7761 H   0  0  0  0  0  0
  -24.8860  -32.2889   26.4874 H   0  0  0  0  0  0
  -25.7990  -30.8912   27.0227 H   0  0  0  0  0  0
  -26.2904  -29.6719   24.1328 H   0  0  0  0  0  0
  -27.3972  -29.7292   25.4834 H   0  0  0  0  0  0
  -27.8801  -30.4209   23.9515 H   0  0  0  0  0  0
  -27.2573  -33.3784   26.1918 H   0  0  0  0  0  0
  -28.3831  -32.6937   25.0299 H   0  0  0  0  0  0
  -28.0653  -31.8682   26.5504 H   0  0  0  0  0  0
  -28.2509  -38.0128   24.7471 H   0  0  0  0  0  0
  -28.1122  -36.2632   24.6289 H   0  0  0  0  0  0
  -27.2297  -37.1411   25.8855 H   0  0  0  0  0  0
  -20.9380  -29.8714   21.6749 H   0  0  0  0  0  0
  -26.0111  -38.2770   24.1431 H   0  0  0  0  0  0
  -27.7357  -22.2417   21.2893 H   0  0  0  0  0  0
  -31.4163  -25.0279   18.2126 H   0  0  0  0  0  0
  -31.1443  -25.6910   19.8147 H   0  0  0  0  0  0
  -29.8912  -25.8174   18.5575 H   0  0  0  0  0  0
  -28.3591  -19.4231   19.6297 H   0  0  0  0  0  0
  -28.1008  -19.8050   21.2855 H   0  0  0  0  0  0
  -27.9221  -24.9957   21.7262 H   0  0  0  0  0  0
  -27.0030  -24.6390   20.3169 H   0  0  0  0  0  0
  -31.1959  -19.4798   19.0746 H   0  0  0  0  0  0
  -32.3576  -20.7490   18.7752 H   0  0  0  0  0  0
  -29.4608  -18.2108   22.0109 H   0  0  0  0  0  0
  -30.8333  -18.8419   21.1988 H   0  0  0  0  0  0
  -30.6799  -17.1768   19.4461 H   0  0  0  0  0  0
  -28.9634  -17.1059   19.5259 H   0  0  0  0  0  0
  -28.9978  -15.5063   21.2783 H   0  0  0  0  0  0
  1 25  1  0  0  0
  1 30  2  0  0  0
  1 83  1  0  0  0
  2  3  1  0  0  0
  2 25  1  0  0  0
  2 85  1  0  0  0
  2 86  1  0  0  0
  3  4  1  0  0  0
  3 87  1  0  0  0
  3 88  1  0  0  0
  4  5  1  0  0  0
  4 89  1  0  0  0
  4 90  1  0  0  0
  5  6  1  0  0  0
  5 26  1  0  0  0
  5 91  1  0  0  0
  6 25  1  0  0  0
  6 92  1  0  0  0
  6 93  1  0  0  0
  7  8  2  0  0  0
  7 26  1  0  0  0
  7 29  1  0  0  0
  8  9  1  0  0  0
  8 22  1  0  0  0
  9 10  1  0  0  0
  9 27  2  0  0  0
 10 11  2  0  0  0
 10 15  1  0  0  0
 11 12  1  0  0  0
 11 94  1  0  0  0
 12 13  2  0  0  0
 12 95  1  0  0  0
 13 14  1  0  0  0
 13 31  1  0  0  0
 14 15  2  0  0  0
 14 96  1  0  0  0
 15 97  1  0  0  0
 16 17  2  0  0  0
 16 21  1  0  0  0
 16 31  1  0  0  0
 17 18  1  0  0  0
 17 98  1  0  0  0
 18 19  2  0  0  0
 18 99  1  0  0  0
 19 20  1  0  0  0
 19 24  1  0  0  0
 20 21  2  0  0  0
 20100  1  0  0  0
 21 23  1  0  0  0
 22 28  1  0  0  0
 22 32  2  0  0  0
 26 27  1  0  0  0
 28101  1  0  0  0
 28102  1  0  0  0
 29103  1  0  0  0
 29104  1  0  0  0
 33 34  1  0  0  0
 33 66  1  0  0  0
 33 70  2  0  0  0
 34 36  1  0  0  0
 34 59  1  0  0  0
 34105  1  0  0  0
 35 44  2  0  0  0
 35 45  1  0  0  0
 35 68  1  0  0  0
 36 56  1  0  0  0
 36106  1  0  0  0
 37 39  1  0  0  0
 37 47  1  0  0  0
 37 66  1  0  0  0
 37107  1  0  0  0
 38 43  2  0  0  0
 38 46  1  0  0  0
 38 47  1  0  0  0
 39 64  1  0  0  0
 39 67  2  0  0  0
 40 52  1  0  0  0
 40 53  2  0  0  0
 40 58  1  0  0  0
 41108  1  0  0  0
 41109  1  0  0  0
 41110  1  0  0  0
 41 48  1  0  0  0
 42 43  1  0  0  0
 42 66  1  0  0  0
 42111  1  0  0  0
 42112  1  0  0  0
 43 44  1  0  0  0
 44113  1  0  0  0
 45 46  2  0  0  0
 45114  1  0  0  0
 46115  1  0  0  0
 47116  1  0  0  0
 47117  1  0  0  0
 48 56  1  0  0  0
 48 65  1  0  0  0
 48118  1  0  0  0
 49 50  1  0  0  0
 49 53  1  0  0  0
 49 64  1  0  0  0
 49119  1  0  0  0
 50 51  1  0  0  0
 50120  1  0  0  0
 50121  1  0  0  0
 51 52  1  0  0  0
 51122  1  0  0  0
 51123  1  0  0  0
 52124  1  0  0  0
 52125  1  0  0  0
 53 54  1  0  0  0
 54 55  2  0  0  0
 54126  1  0  0  0
 55 57  1  0  0  0
 55127  1  0  0  0
 56 69  2  0  0  0
 57 58  2  0  0  0
 57128  1  0  0  0
 58129  1  0  0  0
 59 60  1  0  0  0
 59 61  1  0  0  0
 59 62  1  0  0  0
 60130  1  0  0  0
 60131  1  0  0  0
 60132  1  0  0  0
 61133  1  0  0  0
 61134  1  0  0  0
 61135  1  0  0  0
 62136  1  0  0  0
 62137  1  0  0  0
 62138  1  0  0  0
 63 65  1  0  0  0
 63139  1  0  0  0
 63140  1  0  0  0
 63141  1  0  0  0
 64142  1  0  0  0
 65143  1  0  0  0
 68 78  1  0  0  0
 71 72  2  0  0  0
 71 73  1  0  0  0
 71144  1  0  0  0
 72 74  1  0  0  0
 72 77  1  0  0  0
 73 75  2  0  0  0
 73 78  1  0  0  0
 74 79  1  0  0  0
 74 82  2  0  0  0
 75 76  1  0  0  0
 75 82  1  0  0  0
 76145  1  0  0  0
 76146  1  0  0  0
 76147  1  0  0  0
 77 80  1  0  0  0
 77148  1  0  0  0
 77149  1  0  0  0
 78150  1  0  0  0
 78151  1  0  0  0
 79 84  1  0  0  0
 79152  1  0  0  0
 79153  1  0  0  0
 80 81  1  0  0  0
 80154  1  0  0  0
 80155  1  0  0  0
 81 83  1  0  0  0
 81156  1  0  0  0
 81157  1  0  0  0
 83158  1  0  0  0
M  ISO  4   1 100  68 101  78 101  83 100
M  END
> <chiral flag>
0

> <version>
0

> <s_m_source_file>
/data/baiqing/PycharmProjects/Reinvent-master-3.2/result/LINK_invent/BTK/process_docking_weight1_custom_sum_contain_oxygen_bond_distance_aromatic_linkinvent_7_9_3/rearranged_h_0039.sdf

> <i_m_source_file_index>
45

> <r_mmod_Potential_Energy-OPLS-2005>
47.230770111084

> <r_mmod_Stretch_Energy-OPLS-2005>
109.342704772949

> <r_mmod_Bend_Energy-OPLS-2005>
168.63410949707

> <r_mmod_Torsional_Energy-OPLS-2005>
260.509124755859

> <r_mmod_Improper_Torsional_Energy-OPLS-2005>
7.9577260017395

> <r_mmod_Van_der_Waal_Energy-OPLS-2005>
144.417694091797

> <r_mmod_Electrostatic_Energy-OPLS-2005>
-482.518951416016

> <r_mmod_Solvation_Energy-OPLS-2005>
-228.309753417969

> <b_mmod_Minimization_Converged-OPLS-2005>
0

> <r_mmod_RMS_Derivative-OPLS-2005>
5.5241756439209

$$$$
46
                    3D
 Structure written by MMmdl.
169177  0  0  1  0            999 V2000
  -30.6203  -14.6202   20.5585 C   0  0  0  0  0  0
  -30.4465  -12.3885   19.4511 C   0  0  0  0  0  0
  -29.5166  -12.5162   18.2212 C   0  0  0  0  0  0
  -28.0359  -12.3512   18.6216 C   0  0  0  0  0  0
  -27.6554  -13.2105   19.8551 C   0  0  2  0  0  0
  -28.6954  -13.0523   20.9863 C   0  0  0  0  0  0
  -25.2613  -13.8162   20.5699 C   0  0  0  0  0  0
  -24.1841  -13.0423   20.9147 C   0  0  0  0  0  0
  -24.6413  -11.6909   20.8735 C   0  0  0  0  0  0
  -23.9057  -10.4300   21.0428 C   0  0  0  0  0  0
  -24.3612   -9.4202   21.9189 C   0  0  0  0  0  0
  -23.6294   -8.2221   22.0774 C   0  0  0  0  0  0
  -22.4271   -8.0270   21.3568 C   0  0  0  0  0  0
  -21.9915   -9.0241   20.4649 C   0  0  0  0  0  0
  -22.7245  -10.2126   20.3073 C   0  0  0  0  0  0
  -21.6855   -6.0728   22.5292 C   0  0  0  0  0  0
  -21.4000   -6.5640   23.8212 C   0  0  0  0  0  0
  -21.3666   -5.6808   24.9187 C   0  0  0  0  0  0
  -21.6046   -4.3068   24.7220 C   0  0  0  0  0  0
  -21.8828   -3.8143   23.4345 C   0  0  0  0  0  0
  -21.9200   -4.6964   22.3410 C   0  0  0  0  0  0
  -22.7883  -13.5244   21.1817 C   0  0  0  0  0  0
  -22.1689   -4.2140   21.1007 F   0  0  0  0  0  0
  -21.5616   -3.4561   25.7738 F   0  0  0  0  0  0
  -30.0157  -13.3961   20.4420 N   0  0  0  0  0  0
  -26.2997  -12.9310   20.3246 N   0  0  0  0  0  0
  -25.9325  -11.6475   20.5685 N   0  0  0  0  0  0
  -22.0522  -12.8219   22.0371 N   0  0  0  0  0  0
  -25.4396  -15.1868   20.4197 N   0  0  0  0  0  0
  -31.7637  -14.7955   20.1250 O   0  0  0  0  0  0
  -21.6638   -6.8870   21.4265 O   0  0  0  0  0  0
  -22.3553  -14.5563   20.6712 O   0  0  0  0  0  0
  -24.6212  -31.8585   23.2006 C   0  0  0  0  0  0
  -25.9072  -32.4759   23.8331 C   0  0  1  0  0  0
  -27.2462  -27.3424   20.1472 C   0  0  0  0  0  0
  -25.5938  -33.8563   24.2275 N   0  0  0  0  0  0
  -23.4153  -30.4768   21.5395 C   0  0  2  0  0  0
  -24.8691  -28.9224   20.1157 C   0  0  0  0  0  0
  -22.7455  -29.4597   22.4909 C   0  0  0  0  0  0
  -18.0286  -28.1375   22.8488 C   0  0  0  0  0  0
  -24.1491  -36.7286   23.2610 C   0  0  0  0  0  0
  -25.9504  -30.8002   21.3650 C   0  0  0  0  0  0
  -26.0273  -29.4252   20.7183 C   0  0  0  0  0  0
  -27.2120  -28.6433   20.7268 C   0  0  0  0  0  0
  -26.0682  -26.8734   19.5248 C   0  0  0  0  0  0
  -24.8900  -27.6519   19.5118 C   0  0  0  0  0  0
  -23.6330  -29.7996   20.1575 C   0  0  0  0  0  0
  -25.4104  -36.3066   24.0330 C   0  0  1  0  0  0
  -20.5882  -28.3698   23.1297 C   0  0  2  0  0  0
  -20.6780  -26.9417   22.5419 C   0  0  0  0  0  0
  -19.5757  -26.6379   21.5218 C   0  0  0  0  0  0
  -18.1927  -26.7929   22.1609 C   0  0  0  0  0  0
  -19.1529  -28.8851   23.2888 C   0  0  0  0  0  0
  -18.9456  -30.1471   23.8878 C   0  0  0  0  0  0
  -17.6455  -30.6589   24.0560 C   0  0  0  0  0  0
  -25.9063  -34.9441   23.5099 C   0  0  0  0  0  0
  -16.5356  -29.9083   23.6321 C   0  0  0  0  0  0
  -16.7280  -28.6499   23.0352 C   0  0  0  0  0  0
  -26.4502  -31.6551   25.0679 C   0  0  0  0  0  0
  -25.3777  -31.3671   26.1441 C   0  0  0  0  0  0
  -27.0339  -30.2975   24.6095 C   0  0  0  0  0  0
  -27.6081  -32.4265   25.7466 C   0  0  0  0  0  0
  -27.5628  -37.1722   24.8404 C   0  0  0  0  0  0
  -21.4161  -29.3053   22.3690 N   0  0  0  0  0  0
  -26.4247  -37.3805   23.9494 N   0  0  0  0  0  0
  -24.6798  -31.0642   22.0921 N   0  0  0  0  0  0
  -23.4187  -28.8120   23.2969 O   0  0  0  0  0  0
  -28.4135  -26.5856   20.2494 O   0  0  0  0  0  0
  -26.5636  -34.8922   22.4667 O   0  0  0  0  0  0
  -23.5394  -32.1360   23.7369 O   0  0  0  0  0  0
  -28.2127  -18.2678   19.6083 C   0  0  0  0  0  0
  -27.1683  -19.3807   19.4668 C   0  0  0  0  0  0
  -29.7512  -20.0225   20.6374 C   0  0  0  0  0  0
  -29.2155  -18.5230   20.7469 C   0  0  2  0  0  0
  -27.8390  -20.7318   19.1403 C   0  0  2  0  0  0
  -28.6768  -21.1788   20.3739 C   0  0  2  0  0  0
  -25.8516  -21.2860   17.5544 C   0  0  0  0  0  0
  -28.5056  -24.2546   22.1092 C   0  0  0  0  0  0
  -29.8214  -15.8681   21.1197 C   0  0  0  0  0  0
  -30.2975  -17.3473   20.7528 C   0  0  0  0  0  0
  -26.8465  -21.7912   18.6041 C   0  0  0  0  0  0
  -29.2492  -22.6619   20.2250 C   0  0  0  0  0  0
  -28.5919  -25.2282   19.7182 C   0  0  0  0  0  0
  -28.3575  -23.9360   20.6170 C   0  0  2  0  0  0
  -31.4891  -12.5193   19.1536 H   0  0  0  0  0  0
  -30.3793  -11.3875   19.8809 H   0  0  0  0  0  0
  -29.7848  -11.7756   17.4680 H   0  0  0  0  0  0
  -29.6655  -13.4921   17.7549 H   0  0  0  0  0  0
  -27.8609  -11.2983   18.8395 H   0  0  0  0  0  0
  -27.3921  -12.5967   17.7757 H   0  0  0  0  0  0
  -27.6747  -14.2421   19.5095 H   0  0  0  0  0  0
  -28.6988  -12.0270   21.3593 H   0  0  0  0  0  0
  -28.4350  -13.6728   21.8448 H   0  0  0  0  0  0
  -25.2779   -9.5661   22.4707 H   0  0  0  0  0  0
  -24.0007   -7.4630   22.7514 H   0  0  0  0  0  0
  -21.0835   -8.8782   19.8946 H   0  0  0  0  0  0
  -22.3748  -10.9659   19.6139 H   0  0  0  0  0  0
  -21.1991   -7.6155   23.9702 H   0  0  0  0  0  0
  -21.1489   -6.0547   25.9086 H   0  0  0  0  0  0
  -22.0600   -2.7589   23.2865 H   0  0  0  0  0  0
  -22.4156  -11.9899   22.4760 H   0  0  0  0  0  0
  -21.1130  -13.1256   22.2536 H   0  0  0  0  0  0
  -24.6887  -15.8585   20.5351 H   0  0  0  0  0  0
  -26.3031  -15.6220   20.1256 H   0  0  0  0  0  0
  -26.7129  -32.5447   23.1078 H   0  0  0  0  0  0
  -25.0162  -33.9702   25.0473 H   0  0  0  0  0  0
  -22.7058  -31.2934   21.3893 H   0  0  0  0  0  0
  -23.3832  -35.9516   23.3024 H   0  0  0  0  0  0
  -24.3649  -36.9176   22.2081 H   0  0  0  0  0  0
  -23.7107  -37.6352   23.6798 H   0  0  0  0  0  0
  -26.0720  -31.5558   20.5866 H   0  0  0  0  0  0
  -26.8351  -30.8594   21.9887 H   0  0  0  0  0  0
  -28.1006  -29.0244   21.2083 H   0  0  0  0  0  0
  -26.0362  -25.8919   19.0750 H   0  0  0  0  0  0
  -23.9986  -27.2508   19.0490 H   0  0  0  0  0  0
  -23.7537  -30.5716   19.3967 H   0  0  0  0  0  0
  -22.7561  -29.2255   19.8547 H   0  0  0  0  0  0
  -25.1233  -36.1871   25.0813 H   0  0  0  0  0  0
  -20.9974  -28.3275   24.1416 H   0  0  0  0  0  0
  -20.5728  -26.2282   23.3604 H   0  0  0  0  0  0
  -21.6646  -26.7467   22.1191 H   0  0  0  0  0  0
  -19.6928  -25.6290   21.1259 H   0  0  0  0  0  0
  -19.6709  -27.3187   20.6753 H   0  0  0  0  0  0
  -17.4212  -26.6718   21.3990 H   0  0  0  0  0  0
  -18.0294  -26.0064   22.8993 H   0  0  0  0  0  0
  -19.7929  -30.7301   24.2205 H   0  0  0  0  0  0
  -17.5013  -31.6260   24.5172 H   0  0  0  0  0  0
  -15.5357  -30.2991   23.7640 H   0  0  0  0  0  0
  -15.8674  -28.0832   22.7053 H   0  0  0  0  0  0
  -24.5952  -30.6997   25.7795 H   0  0  0  0  0  0
  -24.8964  -32.2838   26.4877 H   0  0  0  0  0  0
  -25.8158  -30.8860   27.0196 H   0  0  0  0  0  0
  -26.2876  -29.6714   24.1185 H   0  0  0  0  0  0
  -27.4131  -29.7234   25.4559 H   0  0  0  0  0  0
  -27.8708  -30.4262   23.9222 H   0  0  0  0  0  0
  -27.2715  -33.3598   26.1998 H   0  0  0  0  0  0
  -28.3946  -32.6755   25.0324 H   0  0  0  0  0  0
  -28.0675  -31.8389   26.5432 H   0  0  0  0  0  0
  -28.2373  -38.0278   24.7865 H   0  0  0  0  0  0
  -28.1396  -36.2864   24.5692 H   0  0  0  0  0  0
  -27.2427  -37.0705   25.8788 H   0  0  0  0  0  0
  -20.9302  -29.8789   21.6936 H   0  0  0  0  0  0
  -26.0096  -38.2801   24.1765 H   0  0  0  0  0  0
  -28.7511  -18.1615   18.6650 H   0  0  0  0  0  0
  -27.6901  -17.3265   19.7659 H   0  0  0  0  0  0
  -26.5745  -19.4637   20.3778 H   0  0  0  0  0  0
  -26.4809  -19.0698   18.6835 H   0  0  0  0  0  0
  -30.4929  -20.0608   19.8384 H   0  0  0  0  0  0
  -30.3018  -20.2605   21.5490 H   0  0  0  0  0  0
  -28.6657  -18.4593   21.6882 H   0  0  0  0  0  0
  -28.5365  -20.5483   18.3217 H   0  0  0  0  0  0
  -28.0172  -21.1978   21.2425 H   0  0  0  0  0  0
  -25.3978  -22.1145   17.0118 H   0  0  0  0  0  0
  -25.0394  -20.7341   18.0319 H   0  0  0  0  0  0
  -26.3301  -20.6301   16.8267 H   0  0  0  0  0  0
  -28.4111  -23.3517   22.7156 H   0  0  0  0  0  0
  -27.7244  -24.9465   22.4295 H   0  0  0  0  0  0
  -29.4699  -24.7130   22.3263 H   0  0  0  0  0  0
  -28.7941  -15.7597   20.7898 H   0  0  0  0  0  0
  -29.7749  -15.7768   22.2037 H   0  0  0  0  0  0
  -31.0831  -17.6135   21.4594 H   0  0  0  0  0  0
  -30.7919  -17.3280   19.7799 H   0  0  0  0  0  0
  -27.4249  -22.5965   18.1458 H   0  0  0  0  0  0
  -26.2661  -22.2293   19.4115 H   0  0  0  0  0  0
  -29.5952  -22.7809   19.1985 H   0  0  0  0  0  0
  -30.1643  -22.7220   20.8159 H   0  0  0  0  0  0
  -28.0828  -25.1133   18.7628 H   0  0  0  0  0  0
  -29.6500  -25.2131   19.4610 H   0  0  0  0  0  0
  -27.3084  -23.6813   20.5023 H   0  0  0  0  0  0
  1 25  1  0  0  0
  1 30  2  0  0  0
  1 79  1  0  0  0
  2  3  1  0  0  0
  2 25  1  0  0  0
  2 85  1  0  0  0
  2 86  1  0  0  0
  3  4  1  0  0  0
  3 87  1  0  0  0
  3 88  1  0  0  0
  4  5  1  0  0  0
  4 89  1  0  0  0
  4 90  1  0  0  0
  5  6  1  0  0  0
  5 26  1  0  0  0
  5 91  1  0  0  0
  6 25  1  0  0  0
  6 92  1  0  0  0
  6 93  1  0  0  0
  7  8  2  0  0  0
  7 26  1  0  0  0
  7 29  1  0  0  0
  8  9  1  0  0  0
  8 22  1  0  0  0
  9 10  1  0  0  0
  9 27  2  0  0  0
 10 11  2  0  0  0
 10 15  1  0  0  0
 11 12  1  0  0  0
 11 94  1  0  0  0
 12 13  2  0  0  0
 12 95  1  0  0  0
 13 14  1  0  0  0
 13 31  1  0  0  0
 14 15  2  0  0  0
 14 96  1  0  0  0
 15 97  1  0  0  0
 16 17  2  0  0  0
 16 21  1  0  0  0
 16 31  1  0  0  0
 17 18  1  0  0  0
 17 98  1  0  0  0
 18 19  2  0  0  0
 18 99  1  0  0  0
 19 20  1  0  0  0
 19 24  1  0  0  0
 20 21  2  0  0  0
 20100  1  0  0  0
 21 23  1  0  0  0
 22 28  1  0  0  0
 22 32  2  0  0  0
 26 27  1  0  0  0
 28101  1  0  0  0
 28102  1  0  0  0
 29103  1  0  0  0
 29104  1  0  0  0
 33 34  1  0  0  0
 33 66  1  0  0  0
 33 70  2  0  0  0
 34 36  1  0  0  0
 34 59  1  0  0  0
 34105  1  0  0  0
 35 44  2  0  0  0
 35 45  1  0  0  0
 35 68  1  0  0  0
 36 56  1  0  0  0
 36106  1  0  0  0
 37 39  1  0  0  0
 37 47  1  0  0  0
 37 66  1  0  0  0
 37107  1  0  0  0
 38 43  2  0  0  0
 38 46  1  0  0  0
 38 47  1  0  0  0
 39 64  1  0  0  0
 39 67  2  0  0  0
 40 52  1  0  0  0
 40 53  2  0  0  0
 40 58  1  0  0  0
 41108  1  0  0  0
 41109  1  0  0  0
 41110  1  0  0  0
 41 48  1  0  0  0
 42 43  1  0  0  0
 42 66  1  0  0  0
 42111  1  0  0  0
 42112  1  0  0  0
 43 44  1  0  0  0
 44113  1  0  0  0
 45 46  2  0  0  0
 45114  1  0  0  0
 46115  1  0  0  0
 47116  1  0  0  0
 47117  1  0  0  0
 48 56  1  0  0  0
 48 65  1  0  0  0
 48118  1  0  0  0
 49 50  1  0  0  0
 49 53  1  0  0  0
 49 64  1  0  0  0
 49119  1  0  0  0
 50 51  1  0  0  0
 50120  1  0  0  0
 50121  1  0  0  0
 51 52  1  0  0  0
 51122  1  0  0  0
 51123  1  0  0  0
 52124  1  0  0  0
 52125  1  0  0  0
 53 54  1  0  0  0
 54 55  2  0  0  0
 54126  1  0  0  0
 55 57  1  0  0  0
 55127  1  0  0  0
 56 69  2  0  0  0
 57 58  2  0  0  0
 57128  1  0  0  0
 58129  1  0  0  0
 59 60  1  0  0  0
 59 61  1  0  0  0
 59 62  1  0  0  0
 60130  1  0  0  0
 60131  1  0  0  0
 60132  1  0  0  0
 61133  1  0  0  0
 61134  1  0  0  0
 61135  1  0  0  0
 62136  1  0  0  0
 62137  1  0  0  0
 62138  1  0  0  0
 63 65  1  0  0  0
 63139  1  0  0  0
 63140  1  0  0  0
 63141  1  0  0  0
 64142  1  0  0  0
 65143  1  0  0  0
 68 83  1  0  0  0
 71 72  1  0  0  0
 71 74  1  0  0  0
 71144  1  0  0  0
 71145  1  0  0  0
 72 75  1  0  0  0
 72146  1  0  0  0
 72147  1  0  0  0
 73 74  1  0  0  0
 73 76  1  0  0  0
 73148  1  0  0  0
 73149  1  0  0  0
 74 80  1  0  0  0
 74150  1  0  0  0
 75 76  1  0  0  0
 75 81  1  0  0  0
 75151  1  0  0  0
 76 82  1  0  0  0
 76152  1  0  0  0
 77 81  1  0  0  0
 77153  1  0  0  0
 77154  1  0  0  0
 77155  1  0  0  0
 78156  1  0  0  0
 78157  1  0  0  0
 78158  1  0  0  0
 78 84  1  0  0  0
 79 80  1  0  0  0
 79159  1  0  0  0
 79160  1  0  0  0
 80161  1  0  0  0
 80162  1  0  0  0
 81163  1  0  0  0
 81164  1  0  0  0
 82 84  1  0  0  0
 82165  1  0  0  0
 82166  1  0  0  0
 83 84  1  0  0  0
 83167  1  0  0  0
 83168  1  0  0  0
 84169  1  0  0  0
M  ISO  4   1 100  68 101  79 100  83 101
M  END
> <chiral flag>
0

> <version>
0

> <s_m_source_file>
/data/baiqing/PycharmProjects/Reinvent-master-3.2/result/LINK_invent/BTK/process_docking_weight1_custom_sum_contain_oxygen_bond_distance_aromatic_linkinvent_7_9_3/rearranged_h_0039.sdf

> <i_m_source_file_index>
46

> <r_mmod_Potential_Energy-OPLS-2005>
141.265258789062

> <r_mmod_Stretch_Energy-OPLS-2005>
83.6179962158203

> <r_mmod_Bend_Energy-OPLS-2005>
160.204330444336

> <r_mmod_Torsional_Energy-OPLS-2005>
226.8837890625

> <r_mmod_Improper_Torsional_Energy-OPLS-2005>
2.79477000236511

> <r_mmod_Van_der_Waal_Energy-OPLS-2005>
122.884063720703

> <r_mmod_Electrostatic_Energy-OPLS-2005>
-324.031402587891

> <r_mmod_Solvation_Energy-OPLS-2005>
-172.048202514648

> <b_mmod_Minimization_Converged-OPLS-2005>
0

> <r_mmod_RMS_Derivative-OPLS-2005>
4.35970163345337

$$$$
47
                    3D
 Structure written by MMmdl.
171179  0  0  1  0            999 V2000
  -30.7061  -14.4058   20.5523 C   0  0  0  0  0  0
  -30.4143  -12.2582   19.4107 C   0  0  0  0  0  0
  -29.4899  -12.4991   18.1981 C   0  0  0  0  0  0
  -28.0093  -12.3729   18.6086 C   0  0  0  0  0  0
  -27.6648  -13.1964   19.8774 C   0  0  2  0  0  0
  -28.7064  -12.9496   20.9950 C   0  0  0  0  0  0
  -25.2623  -13.8142   20.5670 C   0  0  0  0  0  0
  -24.1857  -13.0439   20.9173 C   0  0  0  0  0  0
  -24.6392  -11.6897   20.8731 C   0  0  0  0  0  0
  -23.9047  -10.4291   21.0410 C   0  0  0  0  0  0
  -24.3605   -9.4211   21.9185 C   0  0  0  0  0  0
  -23.6295   -8.2237   22.0748 C   0  0  0  0  0  0
  -22.4281   -8.0273   21.3534 C   0  0  0  0  0  0
  -21.9903   -9.0240   20.4644 C   0  0  0  0  0  0
  -22.7217  -10.2135   20.3067 C   0  0  0  0  0  0
  -21.6848   -6.0738   22.5282 C   0  0  0  0  0  0
  -21.3994   -6.5641   23.8211 C   0  0  0  0  0  0
  -21.3667   -5.6800   24.9177 C   0  0  0  0  0  0
  -21.6068   -4.3059   24.7226 C   0  0  0  0  0  0
  -21.8822   -3.8149   23.4343 C   0  0  0  0  0  0
  -21.9182   -4.6962   22.3403 C   0  0  0  0  0  0
  -22.7883  -13.5233   21.1843 C   0  0  0  0  0  0
  -22.1660   -4.2146   21.0984 F   0  0  0  0  0  0
  -21.5639   -3.4550   25.7735 F   0  0  0  0  0  0
  -30.0416  -13.2309   20.4438 N   0  0  0  0  0  0
  -26.3039  -12.9286   20.3371 N   0  0  0  0  0  0
  -25.9311  -11.6457   20.5765 N   0  0  0  0  0  0
  -22.0534  -12.8214   22.0412 N   0  0  0  0  0  0
  -25.4373  -15.1864   20.4059 N   0  0  0  0  0  0
  -31.8574  -14.5814   20.1471 O   0  0  0  0  0  0
  -21.6645   -6.8872   21.4242 O   0  0  0  0  0  0
  -22.3571  -14.5539   20.6697 O   0  0  0  0  0  0
  -24.6099  -31.8711   23.2139 C   0  0  0  0  0  0
  -25.9013  -32.4842   23.8415 C   0  0  1  0  0  0
  -27.2365  -27.4762   20.0969 C   0  0  0  0  0  0
  -25.5883  -33.8638   24.2351 N   0  0  0  0  0  0
  -23.3957  -30.4940   21.5538 C   0  0  2  0  0  0
  -24.8412  -28.9607   20.1234 C   0  0  0  0  0  0
  -22.7386  -29.4669   22.5028 C   0  0  0  0  0  0
  -18.0260  -28.1374   22.8493 C   0  0  0  0  0  0
  -24.1482  -36.7327   23.2637 C   0  0  0  0  0  0
  -25.9190  -30.8508   21.3580 C   0  0  0  0  0  0
  -25.9985  -29.4859   20.7112 C   0  0  0  0  0  0
  -27.2012  -28.7521   20.6911 C   0  0  0  0  0  0
  -26.0632  -26.9512   19.5106 C   0  0  0  0  0  0
  -24.8652  -27.6896   19.5234 C   0  0  0  0  0  0
  -23.6016  -29.8234   20.1693 C   0  0  0  0  0  0
  -25.4101  -36.3126   24.0342 C   0  0  1  0  0  0
  -20.5849  -28.3646   23.1339 C   0  0  2  0  0  0
  -20.6750  -26.9391   22.5422 C   0  0  0  0  0  0
  -19.5737  -26.6386   21.5209 C   0  0  0  0  0  0
  -18.1914  -26.7921   22.1619 C   0  0  0  0  0  0
  -19.1510  -28.8826   23.2912 C   0  0  0  0  0  0
  -18.9444  -30.1432   23.8920 C   0  0  0  0  0  0
  -17.6447  -30.6580   24.0569 C   0  0  0  0  0  0
  -25.9024  -34.9488   23.5144 C   0  0  0  0  0  0
  -16.5339  -29.9084   23.6323 C   0  0  0  0  0  0
  -16.7252  -28.6503   23.0344 C   0  0  0  0  0  0
  -26.4460  -31.6606   25.0722 C   0  0  0  0  0  0
  -25.3749  -31.3695   26.1490 C   0  0  0  0  0  0
  -27.0279  -30.3058   24.6055 C   0  0  0  0  0  0
  -27.6053  -32.4311   25.7471 C   0  0  0  0  0  0
  -27.5584  -37.1813   24.8463 C   0  0  0  0  0  0
  -21.4119  -29.3026   22.3764 N   0  0  0  0  0  0
  -26.4294  -37.3805   23.9411 N   0  0  0  0  0  0
  -24.6600  -31.0846   22.1016 N   0  0  0  0  0  0
  -23.4178  -28.8213   23.3055 O   0  0  0  0  0  0
  -28.4293  -26.8045   20.0422 O   0  0  0  0  0  0
  -26.5587  -34.8934   22.4706 O   0  0  0  0  0  0
  -23.5306  -32.1445   23.7565 O   0  0  0  0  0  0
  -29.4410  -24.0946   18.6082 C   0  0  0  0  0  0
  -30.7650  -23.6215   18.3914 C   0  0  0  0  0  0
  -29.5148  -24.7616   19.8014 C   0  0  0  0  0  0
  -28.2357  -23.8784   17.7324 C   0  0  0  0  0  0
  -31.8538  -26.7064   21.1986 C   0  0  0  0  0  0
  -31.2465  -22.7161   17.2919 C   0  0  0  0  0  0
  -28.4359  -25.4770   20.5518 C   0  0  0  0  0  0
  -31.3317  -21.2690   17.7980 C   0  0  0  0  0  0
  -30.8976  -20.2139   16.7697 C   0  0  0  0  0  0
  -31.0422  -18.7731   17.2887 C   0  0  0  0  0  0
  -30.4031  -18.5450   18.6713 C   0  0  0  0  0  0
  -30.3170  -17.0658   19.0492 C   0  0  0  0  0  0
  -31.4580  -25.2414   21.4131 C   0  0  0  0  0  0
  -30.1953  -16.8392   20.5728 C   0  0  0  0  0  0
  -31.5947  -23.9888   19.3547 N   0  0  0  0  0  0
  -30.8306  -24.6836   20.2265 N   0  0  0  0  0  0
  -29.9254  -15.4396   20.8910 N   0  0  0  0  0  0
  -31.4616  -12.3389   19.1142 H   0  0  0  0  0  0
  -30.2866  -11.2447   19.7933 H   0  0  0  0  0  0
  -29.7144  -11.7914   17.3996 H   0  0  0  0  0  0
  -29.6733  -13.4928   17.7881 H   0  0  0  0  0  0
  -27.8048  -11.3165   18.7878 H   0  0  0  0  0  0
  -27.3621  -12.6723   17.7834 H   0  0  0  0  0  0
  -27.7150  -14.2471   19.5931 H   0  0  0  0  0  0
  -28.6705  -11.9122   21.3308 H   0  0  0  0  0  0
  -28.4875  -13.5509   21.8785 H   0  0  0  0  0  0
  -25.2753   -9.5685   22.4753 H   0  0  0  0  0  0
  -24.0011   -7.4634   22.7468 H   0  0  0  0  0  0
  -21.0828   -8.8753   19.8956 H   0  0  0  0  0  0
  -22.3666  -10.9670   19.6179 H   0  0  0  0  0  0
  -21.1973   -7.6148   23.9694 H   0  0  0  0  0  0
  -21.1495   -6.0542   25.9080 H   0  0  0  0  0  0
  -22.0588   -2.7606   23.2848 H   0  0  0  0  0  0
  -22.4143  -11.9867   22.4786 H   0  0  0  0  0  0
  -21.1171  -13.1254   22.2640 H   0  0  0  0  0  0
  -24.6720  -15.8446   20.5104 H   0  0  0  0  0  0
  -26.2849  -15.6202   20.0625 H   0  0  0  0  0  0
  -26.7088  -32.5574   23.1189 H   0  0  0  0  0  0
  -25.0036  -33.9808   25.0497 H   0  0  0  0  0  0
  -22.6825  -31.3092   21.4158 H   0  0  0  0  0  0
  -23.3740  -35.9666   23.3313 H   0  0  0  0  0  0
  -24.3579  -36.8923   22.2048 H   0  0  0  0  0  0
  -23.7240  -37.6541   23.6636 H   0  0  0  0  0  0
  -26.0210  -31.6159   20.5870 H   0  0  0  0  0  0
  -26.8112  -30.9097   21.9697 H   0  0  0  0  0  0
  -28.1020  -29.1628   21.1263 H   0  0  0  0  0  0
  -26.0695  -25.9875   19.0244 H   0  0  0  0  0  0
  -23.9752  -27.2806   19.0654 H   0  0  0  0  0  0
  -23.7087  -30.5965   19.4074 H   0  0  0  0  0  0
  -22.7275  -29.2386   19.8765 H   0  0  0  0  0  0
  -25.1275  -36.1999   25.0835 H   0  0  0  0  0  0
  -20.9931  -28.3197   24.1464 H   0  0  0  0  0  0
  -20.5644  -26.2254   23.3600 H   0  0  0  0  0  0
  -21.6625  -26.7434   22.1224 H   0  0  0  0  0  0
  -19.6901  -25.6302   21.1222 H   0  0  0  0  0  0
  -19.6686  -27.3212   20.6753 H   0  0  0  0  0  0
  -17.4189  -26.6672   21.4016 H   0  0  0  0  0  0
  -18.0314  -26.0052   22.9002 H   0  0  0  0  0  0
  -19.7921  -30.7236   24.2308 H   0  0  0  0  0  0
  -17.5006  -31.6266   24.5162 H   0  0  0  0  0  0
  -15.5339  -30.2999   23.7632 H   0  0  0  0  0  0
  -15.8648  -28.0826   22.7050 H   0  0  0  0  0  0
  -24.5921  -30.7036   25.7838 H   0  0  0  0  0  0
  -24.8940  -32.2844   26.4961 H   0  0  0  0  0  0
  -25.8125  -30.8858   27.0232 H   0  0  0  0  0  0
  -26.2801  -29.6828   24.1134 H   0  0  0  0  0  0
  -27.4099  -29.7278   25.4479 H   0  0  0  0  0  0
  -27.8613  -30.4394   23.9155 H   0  0  0  0  0  0
  -27.2684  -33.3590   26.2106 H   0  0  0  0  0  0
  -28.3828  -32.6906   25.0274 H   0  0  0  0  0  0
  -28.0764  -31.8403   26.5337 H   0  0  0  0  0  0
  -28.2610  -38.0103   24.7509 H   0  0  0  0  0  0
  -28.1070  -36.2638   24.6280 H   0  0  0  0  0  0
  -27.2308  -37.1458   25.8869 H   0  0  0  0  0  0
  -20.9274  -29.8759   21.6997 H   0  0  0  0  0  0
  -26.0190  -38.2885   24.1418 H   0  0  0  0  0  0
  -28.4981  -23.8307   16.6756 H   0  0  0  0  0  0
  -27.5095  -24.6834   17.8296 H   0  0  0  0  0  0
  -27.7192  -22.9511   17.9794 H   0  0  0  0  0  0
  -32.3554  -27.1072   22.0795 H   0  0  0  0  0  0
  -30.9802  -27.3271   20.9972 H   0  0  0  0  0  0
  -32.5345  -26.8037   20.3521 H   0  0  0  0  0  0
  -32.2147  -23.0410   16.9088 H   0  0  0  0  0  0
  -30.5607  -22.7778   16.4474 H   0  0  0  0  0  0
  -28.6366  -25.5012   21.6222 H   0  0  0  0  0  0
  -27.4902  -24.9507   20.4270 H   0  0  0  0  0  0
  -30.6590  -21.1807   18.6518 H   0  0  0  0  0  0
  -32.3327  -21.0664   18.1827 H   0  0  0  0  0  0
  -31.4799  -20.3275   15.8546 H   0  0  0  0  0  0
  -29.8570  -20.3911   16.4909 H   0  0  0  0  0  0
  -32.0993  -18.5079   17.3366 H   0  0  0  0  0  0
  -30.5977  -18.0942   16.5601 H   0  0  0  0  0  0
  -29.4039  -18.9829   18.7047 H   0  0  0  0  0  0
  -31.0008  -19.0624   19.4223 H   0  0  0  0  0  0
  -31.2097  -16.5641   18.6749 H   0  0  0  0  0  0
  -29.4711  -16.6126   18.5297 H   0  0  0  0  0  0
  -30.7824  -25.1422   22.2633 H   0  0  0  0  0  0
  -32.3408  -24.6495   21.6590 H   0  0  0  0  0  0
  -29.3801  -17.4442   20.9717 H   0  0  0  0  0  0
  -31.1024  -17.1636   21.0847 H   0  0  0  0  0  0
  -28.9947  -15.2135   21.2087 H   0  0  0  0  0  0
  1 25  1  0  0  0
  1 30  2  0  0  0
  1 87  1  0  0  0
  2  3  1  0  0  0
  2 25  1  0  0  0
  2 88  1  0  0  0
  2 89  1  0  0  0
  3  4  1  0  0  0
  3 90  1  0  0  0
  3 91  1  0  0  0
  4  5  1  0  0  0
  4 92  1  0  0  0
  4 93  1  0  0  0
  5  6  1  0  0  0
  5 26  1  0  0  0
  5 94  1  0  0  0
  6 25  1  0  0  0
  6 95  1  0  0  0
  6 96  1  0  0  0
  7  8  2  0  0  0
  7 26  1  0  0  0
  7 29  1  0  0  0
  8  9  1  0  0  0
  8 22  1  0  0  0
  9 10  1  0  0  0
  9 27  2  0  0  0
 10 11  2  0  0  0
 10 15  1  0  0  0
 11 12  1  0  0  0
 11 97  1  0  0  0
 12 13  2  0  0  0
 12 98  1  0  0  0
 13 14  1  0  0  0
 13 31  1  0  0  0
 14 15  2  0  0  0
 14 99  1  0  0  0
 15100  1  0  0  0
 16 17  2  0  0  0
 16 21  1  0  0  0
 16 31  1  0  0  0
 17 18  1  0  0  0
 17101  1  0  0  0
 18 19  2  0  0  0
 18102  1  0  0  0
 19 20  1  0  0  0
 19 24  1  0  0  0
 20 21  2  0  0  0
 20103  1  0  0  0
 21 23  1  0  0  0
 22 28  1  0  0  0
 22 32  2  0  0  0
 26 27  1  0  0  0
 28104  1  0  0  0
 28105  1  0  0  0
 29106  1  0  0  0
 29107  1  0  0  0
 33 34  1  0  0  0
 33 66  1  0  0  0
 33 70  2  0  0  0
 34 36  1  0  0  0
 34 59  1  0  0  0
 34108  1  0  0  0
 35 44  2  0  0  0
 35 45  1  0  0  0
 35 68  1  0  0  0
 36 56  1  0  0  0
 36109  1  0  0  0
 37 39  1  0  0  0
 37 47  1  0  0  0
 37 66  1  0  0  0
 37110  1  0  0  0
 38 43  2  0  0  0
 38 46  1  0  0  0
 38 47  1  0  0  0
 39 64  1  0  0  0
 39 67  2  0  0  0
 40 52  1  0  0  0
 40 53  2  0  0  0
 40 58  1  0  0  0
 41111  1  0  0  0
 41112  1  0  0  0
 41113  1  0  0  0
 41 48  1  0  0  0
 42 43  1  0  0  0
 42 66  1  0  0  0
 42114  1  0  0  0
 42115  1  0  0  0
 43 44  1  0  0  0
 44116  1  0  0  0
 45 46  2  0  0  0
 45117  1  0  0  0
 46118  1  0  0  0
 47119  1  0  0  0
 47120  1  0  0  0
 48 56  1  0  0  0
 48 65  1  0  0  0
 48121  1  0  0  0
 49 50  1  0  0  0
 49 53  1  0  0  0
 49 64  1  0  0  0
 49122  1  0  0  0
 50 51  1  0  0  0
 50123  1  0  0  0
 50124  1  0  0  0
 51 52  1  0  0  0
 51125  1  0  0  0
 51126  1  0  0  0
 52127  1  0  0  0
 52128  1  0  0  0
 53 54  1  0  0  0
 54 55  2  0  0  0
 54129  1  0  0  0
 55 57  1  0  0  0
 55130  1  0  0  0
 56 69  2  0  0  0
 57 58  2  0  0  0
 57131  1  0  0  0
 58132  1  0  0  0
 59 60  1  0  0  0
 59 61  1  0  0  0
 59 62  1  0  0  0
 60133  1  0  0  0
 60134  1  0  0  0
 60135  1  0  0  0
 61136  1  0  0  0
 61137  1  0  0  0
 61138  1  0  0  0
 62139  1  0  0  0
 62140  1  0  0  0
 62141  1  0  0  0
 63 65  1  0  0  0
 63142  1  0  0  0
 63143  1  0  0  0
 63144  1  0  0  0
 64145  1  0  0  0
 65146  1  0  0  0
 68 77  1  0  0  0
 71 72  1  0  0  0
 71 73  2  0  0  0
 71 74  1  0  0  0
 72 76  1  0  0  0
 72 85  2  0  0  0
 73 77  1  0  0  0
 73 86  1  0  0  0
 74147  1  0  0  0
 74148  1  0  0  0
 74149  1  0  0  0
 75 83  1  0  0  0
 75150  1  0  0  0
 75151  1  0  0  0
 75152  1  0  0  0
 76 78  1  0  0  0
 76153  1  0  0  0
 76154  1  0  0  0
 77155  1  0  0  0
 77156  1  0  0  0
 78 79  1  0  0  0
 78157  1  0  0  0
 78158  1  0  0  0
 79 80  1  0  0  0
 79159  1  0  0  0
 79160  1  0  0  0
 80 81  1  0  0  0
 80161  1  0  0  0
 80162  1  0  0  0
 81 82  1  0  0  0
 81163  1  0  0  0
 81164  1  0  0  0
 82 84  1  0  0  0
 82165  1  0  0  0
 82166  1  0  0  0
 83 86  1  0  0  0
 83167  1  0  0  0
 83168  1  0  0  0
 84 87  1  0  0  0
 84169  1  0  0  0
 84170  1  0  0  0
 85 86  1  0  0  0
 87171  1  0  0  0
M  ISO  4   1 100  68 101  77 101  87 100
M  END
> <chiral flag>
0

> <version>
0

> <s_m_source_file>
/data/baiqing/PycharmProjects/Reinvent-master-3.2/result/LINK_invent/BTK/process_docking_weight1_custom_sum_contain_oxygen_bond_distance_aromatic_linkinvent_7_9_3/rearranged_h_0039.sdf

> <i_m_source_file_index>
47

> <r_mmod_Potential_Energy-OPLS-2005>
-76.4204711914062

> <r_mmod_Stretch_Energy-OPLS-2005>
28.8836040496826

> <r_mmod_Bend_Energy-OPLS-2005>
87.5718460083008

> <r_mmod_Torsional_Energy-OPLS-2005>
240.786239624023

> <r_mmod_Improper_Torsional_Energy-OPLS-2005>
7.0486364364624

> <r_mmod_Van_der_Waal_Energy-OPLS-2005>
127.411987304688

> <r_mmod_Electrostatic_Energy-OPLS-2005>
-363.438537597656

> <r_mmod_Solvation_Energy-OPLS-2005>
-215.354949951172

> <b_mmod_Minimization_Converged-OPLS-2005>
0

> <r_mmod_RMS_Derivative-OPLS-2005>
1.81220328807831

$$$$
48
                    3D
 Structure written by MMmdl.
164172  0  0  1  0            999 V2000
  -30.6975  -14.4367   20.5642 C   0  0  0  0  0  0
  -30.4216  -12.2816   19.4158 C   0  0  0  0  0  0
  -29.4942  -12.5038   18.2032 C   0  0  0  0  0  0
  -28.0129  -12.3775   18.6134 C   0  0  0  0  0  0
  -27.6663  -13.2022   19.8817 C   0  0  2  0  0  0
  -28.7069  -12.9572   20.9990 C   0  0  0  0  0  0
  -25.2613  -13.8148   20.5669 C   0  0  0  0  0  0
  -24.1858  -13.0445   20.9171 C   0  0  0  0  0  0
  -24.6396  -11.6905   20.8739 C   0  0  0  0  0  0
  -23.9056  -10.4299   21.0413 C   0  0  0  0  0  0
  -24.3611   -9.4212   21.9191 C   0  0  0  0  0  0
  -23.6289   -8.2246   22.0755 C   0  0  0  0  0  0
  -22.4277   -8.0279   21.3539 C   0  0  0  0  0  0
  -21.9907   -9.0254   20.4646 C   0  0  0  0  0  0
  -22.7228  -10.2140   20.3058 C   0  0  0  0  0  0
  -21.6848   -6.0739   22.5279 C   0  0  0  0  0  0
  -21.4010   -6.5642   23.8213 C   0  0  0  0  0  0
  -21.3662   -5.6791   24.9172 C   0  0  0  0  0  0
  -21.6048   -4.3055   24.7220 C   0  0  0  0  0  0
  -21.8820   -3.8149   23.4339 C   0  0  0  0  0  0
  -21.9192   -4.6968   22.3397 C   0  0  0  0  0  0
  -22.7879  -13.5251   21.1837 C   0  0  0  0  0  0
  -22.1660   -4.2159   21.0973 F   0  0  0  0  0  0
  -21.5637   -3.4532   25.7732 F   0  0  0  0  0  0
  -30.0411  -13.2538   20.4508 N   0  0  0  0  0  0
  -26.3047  -12.9311   20.3390 N   0  0  0  0  0  0
  -25.9329  -11.6472   20.5782 N   0  0  0  0  0  0
  -22.0498  -12.8253   22.0377 N   0  0  0  0  0  0
  -25.4363  -15.1863   20.4077 N   0  0  0  0  0  0
  -31.8185  -14.6374   20.0886 O   0  0  0  0  0  0
  -21.6637   -6.8880   21.4242 O   0  0  0  0  0  0
  -22.3572  -14.5564   20.6688 O   0  0  0  0  0  0
  -24.6106  -31.8694   23.2103 C   0  0  0  0  0  0
  -25.9004  -32.4830   23.8390 C   0  0  1  0  0  0
  -27.2360  -27.4616   20.0910 C   0  0  0  0  0  0
  -25.5862  -33.8626   24.2328 N   0  0  0  0  0  0
  -23.3976  -30.4916   21.5511 C   0  0  2  0  0  0
  -24.8423  -28.9595   20.1165 C   0  0  0  0  0  0
  -22.7384  -29.4660   22.5001 C   0  0  0  0  0  0
  -18.0268  -28.1378   22.8505 C   0  0  0  0  0  0
  -24.1484  -36.7315   23.2642 C   0  0  0  0  0  0
  -25.9207  -30.8474   21.3545 C   0  0  0  0  0  0
  -26.0004  -29.4826   20.7034 C   0  0  0  0  0  0
  -27.2010  -28.7424   20.6822 C   0  0  0  0  0  0
  -26.0591  -26.9435   19.5036 C   0  0  0  0  0  0
  -24.8650  -27.6887   19.5157 C   0  0  0  0  0  0
  -23.6023  -29.8212   20.1661 C   0  0  0  0  0  0
  -25.4101  -36.3117   24.0346 C   0  0  1  0  0  0
  -20.5853  -28.3660   23.1327 C   0  0  2  0  0  0
  -20.6753  -26.9394   22.5433 C   0  0  0  0  0  0
  -19.5735  -26.6386   21.5223 C   0  0  0  0  0  0
  -18.1913  -26.7929   22.1631 C   0  0  0  0  0  0
  -19.1515  -28.8832   23.2919 C   0  0  0  0  0  0
  -18.9447  -30.1441   23.8925 C   0  0  0  0  0  0
  -17.6451  -30.6589   24.0561 C   0  0  0  0  0  0
  -25.9019  -34.9481   23.5137 C   0  0  0  0  0  0
  -16.5341  -29.9093   23.6327 C   0  0  0  0  0  0
  -16.7259  -28.6508   23.0351 C   0  0  0  0  0  0
  -26.4465  -31.6585   25.0687 C   0  0  0  0  0  0
  -25.3748  -31.3651   26.1438 C   0  0  0  0  0  0
  -27.0292  -30.3047   24.6004 C   0  0  0  0  0  0
  -27.6059  -32.4287   25.7439 C   0  0  0  0  0  0
  -27.5577  -37.1807   24.8470 C   0  0  0  0  0  0
  -21.4113  -29.3031   22.3731 N   0  0  0  0  0  0
  -26.4296  -37.3793   23.9413 N   0  0  0  0  0  0
  -24.6614  -31.0825   22.0986 N   0  0  0  0  0  0
  -23.4163  -28.8190   23.3030 O   0  0  0  0  0  0
  -28.4238  -26.7659   20.1012 O   0  0  0  0  0  0
  -26.5586  -34.8935   22.4705 O   0  0  0  0  0  0
  -23.5305  -32.1418   23.7520 O   0  0  0  0  0  0
  -27.2559  -20.3595   19.6047 C   0  0  0  0  0  0
  -26.4170  -22.2217   20.9006 C   0  0  0  0  0  0
  -26.1694  -21.1494   20.0255 C   0  0  0  0  0  0
  -28.5516  -20.6783   20.0635 C   0  0  0  0  0  0
  -27.7389  -22.4738   21.3041 C   0  0  0  0  0  0
  -24.7629  -20.8511   19.5531 C   0  0  0  0  0  0
  -29.8054  -19.9139   19.6440 C   0  0  0  0  0  0
  -28.0614  -23.6197   22.2468 C   0  0  0  0  0  0
  -29.6157  -18.5822   18.8846 C   0  0  0  0  0  0
  -27.7350  -25.0181   21.6906 C   0  0  0  0  0  0
  -29.1521  -17.3663   19.7143 C   0  0  0  0  0  0
  -30.1775  -16.8641   20.7572 C   0  0  0  0  0  0
  -28.3780  -25.3532   20.3270 C   0  0  0  0  0  0
  -28.7821  -21.7270   20.8844 N   0  0  0  0  0  0
  -29.9550  -15.4448   21.0485 N   0  0  0  0  0  0
  -31.4672  -12.3762   19.1140 H   0  0  0  0  0  0
  -30.3124  -11.2663   19.7999 H   0  0  0  0  0  0
  -29.7235  -11.7862   17.4147 H   0  0  0  0  0  0
  -29.6766  -13.4913   17.7765 H   0  0  0  0  0  0
  -27.8051  -11.3219   18.7901 H   0  0  0  0  0  0
  -27.3689  -12.6768   17.7859 H   0  0  0  0  0  0
  -27.7177  -14.2540   19.5994 H   0  0  0  0  0  0
  -28.6746  -11.9169   21.3252 H   0  0  0  0  0  0
  -28.4779  -13.5462   21.8885 H   0  0  0  0  0  0
  -25.2756   -9.5692   22.4766 H   0  0  0  0  0  0
  -24.0000   -7.4635   22.7472 H   0  0  0  0  0  0
  -21.0835   -8.8760   19.8953 H   0  0  0  0  0  0
  -22.3670  -10.9679   19.6168 H   0  0  0  0  0  0
  -21.1995   -7.6150   23.9713 H   0  0  0  0  0  0
  -21.1489   -6.0524   25.9076 H   0  0  0  0  0  0
  -22.0601   -2.7613   23.2829 H   0  0  0  0  0  0
  -22.4076  -11.9913   22.4797 H   0  0  0  0  0  0
  -21.1124  -13.1313   22.2569 H   0  0  0  0  0  0
  -24.6744  -15.8463   20.5186 H   0  0  0  0  0  0
  -26.2936  -15.6217   20.0927 H   0  0  0  0  0  0
  -26.7059  -32.5569   23.1143 H   0  0  0  0  0  0
  -24.9999  -33.9800   25.0466 H   0  0  0  0  0  0
  -22.6856  -31.3074   21.4119 H   0  0  0  0  0  0
  -23.3747  -35.9648   23.3325 H   0  0  0  0  0  0
  -24.3582  -36.8914   22.2054 H   0  0  0  0  0  0
  -23.7243  -37.6529   23.6645 H   0  0  0  0  0  0
  -26.0155  -31.6127   20.5831 H   0  0  0  0  0  0
  -26.8148  -30.9079   21.9636 H   0  0  0  0  0  0
  -28.0985  -29.1456   21.1306 H   0  0  0  0  0  0
  -26.0519  -25.9737   19.0286 H   0  0  0  0  0  0
  -23.9724  -27.2816   19.0603 H   0  0  0  0  0  0
  -23.7032  -30.5930   19.4021 H   0  0  0  0  0  0
  -22.7293  -29.2331   19.8778 H   0  0  0  0  0  0
  -25.1280  -36.1980   25.0838 H   0  0  0  0  0  0
  -20.9957  -28.3224   24.1437 H   0  0  0  0  0  0
  -20.5636  -26.2267   23.3619 H   0  0  0  0  0  0
  -21.6625  -26.7425   22.1228 H   0  0  0  0  0  0
  -19.6898  -25.6303   21.1235 H   0  0  0  0  0  0
  -19.6680  -27.3211   20.6762 H   0  0  0  0  0  0
  -17.4187  -26.6686   21.4026 H   0  0  0  0  0  0
  -18.0305  -26.0069   22.9025 H   0  0  0  0  0  0
  -19.7923  -30.7248   24.2308 H   0  0  0  0  0  0
  -17.5012  -31.6277   24.5141 H   0  0  0  0  0  0
  -15.5343  -30.2997   23.7643 H   0  0  0  0  0  0
  -15.8665  -28.0831   22.7050 H   0  0  0  0  0  0
  -24.5935  -30.6989   25.7752 H   0  0  0  0  0  0
  -24.8918  -32.2786   26.4912 H   0  0  0  0  0  0
  -25.8116  -30.8792   27.0170 H   0  0  0  0  0  0
  -26.2804  -29.6790   24.1129 H   0  0  0  0  0  0
  -27.4175  -29.7285   25.4413 H   0  0  0  0  0  0
  -27.8586  -30.4406   23.9058 H   0  0  0  0  0  0
  -27.2711  -33.3587   26.2044 H   0  0  0  0  0  0
  -28.3852  -32.6839   25.0240 H   0  0  0  0  0  0
  -28.0742  -31.8378   26.5323 H   0  0  0  0  0  0
  -28.2602  -38.0094   24.7506 H   0  0  0  0  0  0
  -28.1066  -36.2629   24.6310 H   0  0  0  0  0  0
  -27.2295  -37.1468   25.8872 H   0  0  0  0  0  0
  -20.9248  -29.8788   21.6999 H   0  0  0  0  0  0
  -26.0187  -38.2875   24.1410 H   0  0  0  0  0  0
  -27.0839  -19.5263   18.9386 H   0  0  0  0  0  0
  -25.6078  -22.8454   21.2575 H   0  0  0  0  0  0
  -24.7735  -20.3868   18.5665 H   0  0  0  0  0  0
  -24.1751  -21.7677   19.4883 H   0  0  0  0  0  0
  -24.2677  -20.1719   20.2474 H   0  0  0  0  0  0
  -30.4349  -19.7500   20.5193 H   0  0  0  0  0  0
  -30.3685  -20.5877   18.9973 H   0  0  0  0  0  0
  -29.1172  -23.5825   22.5175 H   0  0  0  0  0  0
  -27.5126  -23.4613   23.1757 H   0  0  0  0  0  0
  -30.5725  -18.3227   18.4297 H   0  0  0  0  0  0
  -28.9437  -18.7344   18.0400 H   0  0  0  0  0  0
  -28.0596  -25.7513   22.4288 H   0  0  0  0  0  0
  -26.6524  -25.1242   21.6157 H   0  0  0  0  0  0
  -28.9457  -16.5630   19.0047 H   0  0  0  0  0  0
  -28.1970  -17.5784   20.1969 H   0  0  0  0  0  0
  -30.0881  -17.4390   21.6798 H   0  0  0  0  0  0
  -31.1949  -17.0309   20.3979 H   0  0  0  0  0  0
  -29.4111  -25.0037   20.3198 H   0  0  0  0  0  0
  -27.8824  -24.8288   19.5113 H   0  0  0  0  0  0
  -29.0620  -15.1909   21.4443 H   0  0  0  0  0  0
  1 25  1  0  0  0
  1 30  2  0  0  0
  1 85  1  0  0  0
  2  3  1  0  0  0
  2 25  1  0  0  0
  2 86  1  0  0  0
  2 87  1  0  0  0
  3  4  1  0  0  0
  3 88  1  0  0  0
  3 89  1  0  0  0
  4  5  1  0  0  0
  4 90  1  0  0  0
  4 91  1  0  0  0
  5  6  1  0  0  0
  5 26  1  0  0  0
  5 92  1  0  0  0
  6 25  1  0  0  0
  6 93  1  0  0  0
  6 94  1  0  0  0
  7  8  2  0  0  0
  7 26  1  0  0  0
  7 29  1  0  0  0
  8  9  1  0  0  0
  8 22  1  0  0  0
  9 10  1  0  0  0
  9 27  2  0  0  0
 10 11  2  0  0  0
 10 15  1  0  0  0
 11 12  1  0  0  0
 11 95  1  0  0  0
 12 13  2  0  0  0
 12 96  1  0  0  0
 13 14  1  0  0  0
 13 31  1  0  0  0
 14 15  2  0  0  0
 14 97  1  0  0  0
 15 98  1  0  0  0
 16 17  2  0  0  0
 16 21  1  0  0  0
 16 31  1  0  0  0
 17 18  1  0  0  0
 17 99  1  0  0  0
 18 19  2  0  0  0
 18100  1  0  0  0
 19 20  1  0  0  0
 19 24  1  0  0  0
 20 21  2  0  0  0
 20101  1  0  0  0
 21 23  1  0  0  0
 22 28  1  0  0  0
 22 32  2  0  0  0
 26 27  1  0  0  0
 28102  1  0  0  0
 28103  1  0  0  0
 29104  1  0  0  0
 29105  1  0  0  0
 33 34  1  0  0  0
 33 66  1  0  0  0
 33 70  2  0  0  0
 34 36  1  0  0  0
 34 59  1  0  0  0
 34106  1  0  0  0
 35 44  2  0  0  0
 35 45  1  0  0  0
 35 68  1  0  0  0
 36 56  1  0  0  0
 36107  1  0  0  0
 37 39  1  0  0  0
 37 47  1  0  0  0
 37 66  1  0  0  0
 37108  1  0  0  0
 38 43  2  0  0  0
 38 46  1  0  0  0
 38 47  1  0  0  0
 39 64  1  0  0  0
 39 67  2  0  0  0
 40 52  1  0  0  0
 40 53  2  0  0  0
 40 58  1  0  0  0
 41109  1  0  0  0
 41110  1  0  0  0
 41111  1  0  0  0
 41 48  1  0  0  0
 42 43  1  0  0  0
 42 66  1  0  0  0
 42112  1  0  0  0
 42113  1  0  0  0
 43 44  1  0  0  0
 44114  1  0  0  0
 45 46  2  0  0  0
 45115  1  0  0  0
 46116  1  0  0  0
 47117  1  0  0  0
 47118  1  0  0  0
 48 56  1  0  0  0
 48 65  1  0  0  0
 48119  1  0  0  0
 49 50  1  0  0  0
 49 53  1  0  0  0
 49 64  1  0  0  0
 49120  1  0  0  0
 50 51  1  0  0  0
 50121  1  0  0  0
 50122  1  0  0  0
 51 52  1  0  0  0
 51123  1  0  0  0
 51124  1  0  0  0
 52125  1  0  0  0
 52126  1  0  0  0
 53 54  1  0  0  0
 54 55  2  0  0  0
 54127  1  0  0  0
 55 57  1  0  0  0
 55128  1  0  0  0
 56 69  2  0  0  0
 57 58  2  0  0  0
 57129  1  0  0  0
 58130  1  0  0  0
 59 60  1  0  0  0
 59 61  1  0  0  0
 59 62  1  0  0  0
 60131  1  0  0  0
 60132  1  0  0  0
 60133  1  0  0  0
 61134  1  0  0  0
 61135  1  0  0  0
 61136  1  0  0  0
 62137  1  0  0  0
 62138  1  0  0  0
 62139  1  0  0  0
 63 65  1  0  0  0
 63140  1  0  0  0
 63141  1  0  0  0
 63142  1  0  0  0
 64143  1  0  0  0
 65144  1  0  0  0
 68 83  1  0  0  0
 71 73  2  0  0  0
 71 74  1  0  0  0
 71145  1  0  0  0
 72 73  1  0  0  0
 72 75  2  0  0  0
 72146  1  0  0  0
 73 76  1  0  0  0
 74 77  1  0  0  0
 74 84  2  0  0  0
 75 78  1  0  0  0
 75 84  1  0  0  0
 76147  1  0  0  0
 76148  1  0  0  0
 76149  1  0  0  0
 77 79  1  0  0  0
 77150  1  0  0  0
 77151  1  0  0  0
 78 80  1  0  0  0
 78152  1  0  0  0
 78153  1  0  0  0
 79 81  1  0  0  0
 79154  1  0  0  0
 79155  1  0  0  0
 80 83  1  0  0  0
 80156  1  0  0  0
 80157  1  0  0  0
 81 82  1  0  0  0
 81158  1  0  0  0
 81159  1  0  0  0
 82 85  1  0  0  0
 82160  1  0  0  0
 82161  1  0  0  0
 83162  1  0  0  0
 83163  1  0  0  0
 85164  1  0  0  0
M  ISO  4   1 100  68 101  83 101  85 100
M  END
> <chiral flag>
0

> <version>
0

> <s_m_source_file>
/data/baiqing/PycharmProjects/Reinvent-master-3.2/result/LINK_invent/BTK/process_docking_weight1_custom_sum_contain_oxygen_bond_distance_aromatic_linkinvent_7_9_3/rearranged_h_0039.sdf

> <i_m_source_file_index>
48

> <r_mmod_Potential_Energy-OPLS-2005>
-253.484436035156

> <r_mmod_Stretch_Energy-OPLS-2005>
32.3601913452148

> <r_mmod_Bend_Energy-OPLS-2005>
97.4641494750977

> <r_mmod_Torsional_Energy-OPLS-2005>
212.935501098633

> <r_mmod_Improper_Torsional_Energy-OPLS-2005>
5.2938380241394

> <r_mmod_Van_der_Waal_Energy-OPLS-2005>
150.688461303711

> <r_mmod_Electrostatic_Energy-OPLS-2005>
-545.893859863281

> <r_mmod_Solvation_Energy-OPLS-2005>
-216.256912231445

> <b_mmod_Minimization_Converged-OPLS-2005>
0

> <r_mmod_RMS_Derivative-OPLS-2005>
1.63955426216125

$$$$
49
                    3D
 Structure written by MMmdl.
172180  0  0  1  0            999 V2000
  -30.7640  -14.3592   20.6995 C   0  0  0  0  0  0
  -30.4211  -12.2980   19.3849 C   0  0  0  0  0  0
  -29.4849  -12.5423   18.1875 C   0  0  0  0  0  0
  -28.0084  -12.3990   18.6037 C   0  0  0  0  0  0
  -27.6695  -13.2051   19.8849 C   0  0  2  0  0  0
  -28.7073  -12.9265   20.9927 C   0  0  0  0  0  0
  -25.2611  -13.8152   20.5664 C   0  0  0  0  0  0
  -24.1854  -13.0438   20.9151 C   0  0  0  0  0  0
  -24.6400  -11.6901   20.8714 C   0  0  0  0  0  0
  -23.9057  -10.4288   21.0389 C   0  0  0  0  0  0
  -24.3609   -9.4209   21.9174 C   0  0  0  0  0  0
  -23.6288   -8.2246   22.0751 C   0  0  0  0  0  0
  -22.4272   -8.0275   21.3544 C   0  0  0  0  0  0
  -21.9902   -9.0247   20.4645 C   0  0  0  0  0  0
  -22.7224  -10.2131   20.3047 C   0  0  0  0  0  0
  -21.6854   -6.0730   22.5277 C   0  0  0  0  0  0
  -21.4012   -6.5638   23.8204 C   0  0  0  0  0  0
  -21.3659   -5.6794   24.9170 C   0  0  0  0  0  0
  -21.6047   -4.3053   24.7225 C   0  0  0  0  0  0
  -21.8822   -3.8144   23.4345 C   0  0  0  0  0  0
  -21.9192   -4.6957   22.3403 C   0  0  0  0  0  0
  -22.7876  -13.5237   21.1823 C   0  0  0  0  0  0
  -22.1666   -4.2141   21.0978 F   0  0  0  0  0  0
  -21.5628   -3.4539   25.7741 F   0  0  0  0  0  0
  -30.0497  -13.2288   20.4601 N   0  0  0  0  0  0
  -26.3066  -12.9331   20.3397 N   0  0  0  0  0  0
  -25.9332  -11.6490   20.5742 N   0  0  0  0  0  0
  -22.0525  -12.8236   22.0381 N   0  0  0  0  0  0
  -25.4336  -15.1867   20.4080 N   0  0  0  0  0  0
  -31.7848  -14.6648   20.0748 O   0  0  0  0  0  0
  -21.6638   -6.8873   21.4239 O   0  0  0  0  0  0
  -22.3568  -14.5550   20.6673 O   0  0  0  0  0  0
  -24.6103  -31.8707   23.2175 C   0  0  0  0  0  0
  -25.9030  -32.4848   23.8433 C   0  0  1  0  0  0
  -27.2367  -27.4764   20.0781 C   0  0  0  0  0  0
  -25.5912  -33.8649   24.2371 N   0  0  0  0  0  0
  -23.3973  -30.4942   21.5573 C   0  0  2  0  0  0
  -24.8467  -28.9721   20.1119 C   0  0  0  0  0  0
  -22.7402  -29.4651   22.5030 C   0  0  0  0  0  0
  -18.0267  -28.1354   22.8486 C   0  0  0  0  0  0
  -24.1491  -36.7307   23.2639 C   0  0  0  0  0  0
  -25.9210  -30.8464   21.3677 C   0  0  0  0  0  0
  -26.0018  -29.4840   20.7172 C   0  0  0  0  0  0
  -27.2010  -28.7388   20.7113 C   0  0  0  0  0  0
  -26.0742  -26.9836   19.4545 C   0  0  0  0  0  0
  -24.8742  -27.7159   19.4822 C   0  0  0  0  0  0
  -23.6035  -29.8310   20.1694 C   0  0  0  0  0  0
  -25.4118  -36.3121   24.0331 C   0  0  1  0  0  0
  -20.5857  -28.3640   23.1334 C   0  0  2  0  0  0
  -20.6770  -26.9382   22.5428 C   0  0  0  0  0  0
  -19.5763  -26.6373   21.5205 C   0  0  0  0  0  0
  -18.1924  -26.7916   22.1593 C   0  0  0  0  0  0
  -19.1513  -28.8810   23.2908 C   0  0  0  0  0  0
  -18.9448  -30.1408   23.8937 C   0  0  0  0  0  0
  -17.6459  -30.6577   24.0545 C   0  0  0  0  0  0
  -25.9030  -34.9488   23.5132 C   0  0  0  0  0  0
  -16.5343  -29.9077   23.6317 C   0  0  0  0  0  0
  -16.7256  -28.6473   23.0365 C   0  0  0  0  0  0
  -26.4501  -31.6611   25.0711 C   0  0  0  0  0  0
  -25.3775  -31.3673   26.1450 C   0  0  0  0  0  0
  -27.0334  -30.3068   24.6022 C   0  0  0  0  0  0
  -27.6077  -32.4329   25.7469 C   0  0  0  0  0  0
  -27.5589  -37.1805   24.8460 C   0  0  0  0  0  0
  -21.4136  -29.3008   22.3761 N   0  0  0  0  0  0
  -26.4314  -37.3800   23.9397 N   0  0  0  0  0  0
  -24.6605  -31.0827   22.1079 N   0  0  0  0  0  0
  -23.4191  -28.8196   23.3064 O   0  0  0  0  0  0
  -28.3669  -26.6960   20.0413 O   0  0  0  0  0  0
  -26.5569  -34.8922   22.4676 O   0  0  0  0  0  0
  -23.5305  -32.1463   23.7596 O   0  0  0  0  0  0
  -26.2206  -21.8560   21.3948 C   0  0  0  0  0  0
  -26.2165  -22.9101   20.4558 C   0  0  0  0  0  0
  -26.9524  -22.0962   22.5800 C   0  0  0  0  0  0
  -27.4583  -24.2228   21.8740 C   0  0  0  0  0  0
  -25.4804  -22.8481   19.1297 C   0  0  0  0  0  0
  -27.0535  -21.1003   23.7198 C   0  0  0  0  0  0
  -25.3917  -20.5836   21.1761 C   0  0  0  0  0  0
  -27.9212  -25.6260   22.2693 C   0  0  0  0  0  0
  -26.1756  -19.2627   21.0432 C   0  0  0  0  0  0
  -27.2375  -19.2313   19.9268 C   0  0  0  0  0  0
  -28.6906  -19.1283   20.4235 C   0  0  0  0  0  0
  -29.0228  -17.7833   21.0984 C   0  0  0  0  0  0
  -30.5341  -17.5775   21.3033 C   0  0  0  0  0  0
  -30.8807  -16.3659   22.1888 C   0  0  0  0  0  0
  -28.9165  -26.3309   21.3118 C   0  0  0  0  0  0
  -26.8222  -24.0803   20.7181 N   0  0  0  0  0  0
  -27.5710  -23.2725   22.7983 N   0  0  0  0  0  0
  -30.2966  -15.1195   21.6976 N   0  0  0  0  0  0
  -31.4623  -12.4111   19.0762 H   0  0  0  0  0  0
  -30.3298  -11.2692   19.7368 H   0  0  0  0  0  0
  -29.7149  -11.8471   17.3793 H   0  0  0  0  0  0
  -29.6570  -13.5437   17.7871 H   0  0  0  0  0  0
  -27.8081  -11.3393   18.7667 H   0  0  0  0  0  0
  -27.3574  -12.7087   17.7847 H   0  0  0  0  0  0
  -27.7330  -14.2633   19.6295 H   0  0  0  0  0  0
  -28.6692  -11.8763   21.2853 H   0  0  0  0  0  0
  -28.4528  -13.4812   21.8960 H   0  0  0  0  0  0
  -25.2756   -9.5687   22.4746 H   0  0  0  0  0  0
  -23.9990   -7.4644   22.7474 H   0  0  0  0  0  0
  -21.0828   -8.8769   19.8953 H   0  0  0  0  0  0
  -22.3680  -10.9671   19.6157 H   0  0  0  0  0  0
  -21.2007   -7.6142   23.9707 H   0  0  0  0  0  0
  -21.1480   -6.0524   25.9073 H   0  0  0  0  0  0
  -22.0602   -2.7607   23.2852 H   0  0  0  0  0  0
  -22.4142  -11.9896   22.4771 H   0  0  0  0  0  0
  -21.1135  -13.1263   22.2580 H   0  0  0  0  0  0
  -24.6673  -15.8425   20.5075 H   0  0  0  0  0  0
  -26.2960  -15.6255   20.1122 H   0  0  0  0  0  0
  -26.7085  -32.5597   23.1190 H   0  0  0  0  0  0
  -25.0128  -33.9829   25.0558 H   0  0  0  0  0  0
  -22.6830  -31.3097   21.4223 H   0  0  0  0  0  0
  -23.3764  -35.9633   23.3325 H   0  0  0  0  0  0
  -24.3572  -36.8892   22.2044 H   0  0  0  0  0  0
  -23.7237  -37.6515   23.6643 H   0  0  0  0  0  0
  -26.0203  -31.6181   20.6031 H   0  0  0  0  0  0
  -26.8136  -30.9058   21.9787 H   0  0  0  0  0  0
  -28.0911  -29.1327   21.1806 H   0  0  0  0  0  0
  -26.0963  -26.0227   18.9611 H   0  0  0  0  0  0
  -23.9876  -27.3188   19.0083 H   0  0  0  0  0  0
  -23.7050  -30.6079   19.4107 H   0  0  0  0  0  0
  -22.7318  -29.2425   19.8783 H   0  0  0  0  0  0
  -25.1300  -36.1998   25.0829 H   0  0  0  0  0  0
  -20.9926  -28.3191   24.1460 H   0  0  0  0  0  0
  -20.5659  -26.2237   23.3601 H   0  0  0  0  0  0
  -21.6644  -26.7426   22.1220 H   0  0  0  0  0  0
  -19.6935  -25.6288   21.1212 H   0  0  0  0  0  0
  -19.6736  -27.3195   20.6748 H   0  0  0  0  0  0
  -17.4212  -26.6690   21.3964 H   0  0  0  0  0  0
  -18.0286  -26.0044   22.8967 H   0  0  0  0  0  0
  -19.7928  -30.7178   24.2375 H   0  0  0  0  0  0
  -17.5019  -31.6277   24.5118 H   0  0  0  0  0  0
  -15.5346  -30.2982   23.7638 H   0  0  0  0  0  0
  -15.8652  -28.0783   22.7115 H   0  0  0  0  0  0
  -24.5990  -30.6983   25.7768 H   0  0  0  0  0  0
  -24.8915  -32.2811   26.4887 H   0  0  0  0  0  0
  -25.8124  -30.8857   27.0215 H   0  0  0  0  0  0
  -26.2838  -29.6800   24.1177 H   0  0  0  0  0  0
  -27.4258  -29.7326   25.4430 H   0  0  0  0  0  0
  -27.8612  -30.4422   23.9053 H   0  0  0  0  0  0
  -27.2700  -33.3627   26.2081 H   0  0  0  0  0  0
  -28.3867  -32.6912   25.0271 H   0  0  0  0  0  0
  -28.0787  -31.8441   26.5355 H   0  0  0  0  0  0
  -28.2615  -38.0099   24.7503 H   0  0  0  0  0  0
  -28.1076  -36.2622   24.6307 H   0  0  0  0  0  0
  -27.2284  -37.1458   25.8859 H   0  0  0  0  0  0
  -20.9299  -29.8745   21.6993 H   0  0  0  0  0  0
  -26.0207  -38.2878   24.1429 H   0  0  0  0  0  0
  -24.4060  -22.9289   19.2939 H   0  0  0  0  0  0
  -25.6809  -21.9145   18.6049 H   0  0  0  0  0  0
  -25.7807  -23.6594   18.4674 H   0  0  0  0  0  0
  -27.9177  -20.4503   23.5790 H   0  0  0  0  0  0
  -26.1602  -20.4830   23.8006 H   0  0  0  0  0  0
  -27.1752  -21.6129   24.6757 H   0  0  0  0  0  0
  -24.7563  -20.6884   20.2979 H   0  0  0  0  0  0
  -24.6863  -20.4940   22.0032 H   0  0  0  0  0  0
  -28.4023  -25.5592   23.2464 H   0  0  0  0  0  0
  -27.0415  -26.2467   22.4347 H   0  0  0  0  0  0
  -25.4484  -18.4754   20.8363 H   0  0  0  0  0  0
  -26.6116  -18.9882   22.0011 H   0  0  0  0  0  0
  -27.1347  -20.1106   19.2903 H   0  0  0  0  0  0
  -27.0320  -18.3834   19.2712 H   0  0  0  0  0  0
  -28.9117  -19.9539   21.1014 H   0  0  0  0  0  0
  -29.3481  -19.2619   19.5636 H   0  0  0  0  0  0
  -28.6316  -16.9651   20.4921 H   0  0  0  0  0  0
  -28.5173  -17.7202   22.0625 H   0  0  0  0  0  0
  -30.9661  -18.4711   21.7571 H   0  0  0  0  0  0
  -31.0185  -17.4712   20.3312 H   0  0  0  0  0  0
  -30.5104  -16.5390   23.2004 H   0  0  0  0  0  0
  -31.9636  -16.2612   22.2806 H   0  0  0  0  0  0
  -29.7688  -25.6745   21.1340 H   0  0  0  0  0  0
  -29.3204  -27.2222   21.7939 H   0  0  0  0  0  0
  -29.4708  -14.7827   22.1699 H   0  0  0  0  0  0
  1 25  1  0  0  0
  1 30  2  0  0  0
  1 88  1  0  0  0
  2  3  1  0  0  0
  2 25  1  0  0  0
  2 89  1  0  0  0
  2 90  1  0  0  0
  3  4  1  0  0  0
  3 91  1  0  0  0
  3 92  1  0  0  0
  4  5  1  0  0  0
  4 93  1  0  0  0
  4 94  1  0  0  0
  5  6  1  0  0  0
  5 26  1  0  0  0
  5 95  1  0  0  0
  6 25  1  0  0  0
  6 96  1  0  0  0
  6 97  1  0  0  0
  7  8  2  0  0  0
  7 26  1  0  0  0
  7 29  1  0  0  0
  8  9  1  0  0  0
  8 22  1  0  0  0
  9 10  1  0  0  0
  9 27  2  0  0  0
 10 11  2  0  0  0
 10 15  1  0  0  0
 11 12  1  0  0  0
 11 98  1  0  0  0
 12 13  2  0  0  0
 12 99  1  0  0  0
 13 14  1  0  0  0
 13 31  1  0  0  0
 14 15  2  0  0  0
 14100  1  0  0  0
 15101  1  0  0  0
 16 17  2  0  0  0
 16 21  1  0  0  0
 16 31  1  0  0  0
 17 18  1  0  0  0
 17102  1  0  0  0
 18 19  2  0  0  0
 18103  1  0  0  0
 19 20  1  0  0  0
 19 24  1  0  0  0
 20 21  2  0  0  0
 20104  1  0  0  0
 21 23  1  0  0  0
 22 28  1  0  0  0
 22 32  2  0  0  0
 26 27  1  0  0  0
 28105  1  0  0  0
 28106  1  0  0  0
 29107  1  0  0  0
 29108  1  0  0  0
 33 34  1  0  0  0
 33 66  1  0  0  0
 33 70  2  0  0  0
 34 36  1  0  0  0
 34 59  1  0  0  0
 34109  1  0  0  0
 35 44  2  0  0  0
 35 45  1  0  0  0
 35 68  1  0  0  0
 36 56  1  0  0  0
 36110  1  0  0  0
 37 39  1  0  0  0
 37 47  1  0  0  0
 37 66  1  0  0  0
 37111  1  0  0  0
 38 43  2  0  0  0
 38 46  1  0  0  0
 38 47  1  0  0  0
 39 64  1  0  0  0
 39 67  2  0  0  0
 40 52  1  0  0  0
 40 53  2  0  0  0
 40 58  1  0  0  0
 41112  1  0  0  0
 41113  1  0  0  0
 41114  1  0  0  0
 41 48  1  0  0  0
 42 43  1  0  0  0
 42 66  1  0  0  0
 42115  1  0  0  0
 42116  1  0  0  0
 43 44  1  0  0  0
 44117  1  0  0  0
 45 46  2  0  0  0
 45118  1  0  0  0
 46119  1  0  0  0
 47120  1  0  0  0
 47121  1  0  0  0
 48 56  1  0  0  0
 48 65  1  0  0  0
 48122  1  0  0  0
 49 50  1  0  0  0
 49 53  1  0  0  0
 49 64  1  0  0  0
 49123  1  0  0  0
 50 51  1  0  0  0
 50124  1  0  0  0
 50125  1  0  0  0
 51 52  1  0  0  0
 51126  1  0  0  0
 51127  1  0  0  0
 52128  1  0  0  0
 52129  1  0  0  0
 53 54  1  0  0  0
 54 55  2  0  0  0
 54130  1  0  0  0
 55 57  1  0  0  0
 55131  1  0  0  0
 56 69  2  0  0  0
 57 58  2  0  0  0
 57132  1  0  0  0
 58133  1  0  0  0
 59 60  1  0  0  0
 59 61  1  0  0  0
 59 62  1  0  0  0
 60134  1  0  0  0
 60135  1  0  0  0
 60136  1  0  0  0
 61137  1  0  0  0
 61138  1  0  0  0
 61139  1  0  0  0
 62140  1  0  0  0
 62141  1  0  0  0
 62142  1  0  0  0
 63 65  1  0  0  0
 63143  1  0  0  0
 63144  1  0  0  0
 63145  1  0  0  0
 64146  1  0  0  0
 65147  1  0  0  0
 68 85  1  0  0  0
 71 72  2  0  0  0
 71 73  1  0  0  0
 71 77  1  0  0  0
 72 75  1  0  0  0
 72 86  1  0  0  0
 73 76  1  0  0  0
 73 87  2  0  0  0
 74 78  1  0  0  0
 74 86  2  0  0  0
 74 87  1  0  0  0
 75148  1  0  0  0
 75149  1  0  0  0
 75150  1  0  0  0
 76151  1  0  0  0
 76152  1  0  0  0
 76153  1  0  0  0
 77 79  1  0  0  0
 77154  1  0  0  0
 77155  1  0  0  0
 78 85  1  0  0  0
 78156  1  0  0  0
 78157  1  0  0  0
 79 80  1  0  0  0
 79158  1  0  0  0
 79159  1  0  0  0
 80 81  1  0  0  0
 80160  1  0  0  0
 80161  1  0  0  0
 81 82  1  0  0  0
 81162  1  0  0  0
 81163  1  0  0  0
 82 83  1  0  0  0
 82164  1  0  0  0
 82165  1  0  0  0
 83 84  1  0  0  0
 83166  1  0  0  0
 83167  1  0  0  0
 84 88  1  0  0  0
 84168  1  0  0  0
 84169  1  0  0  0
 85170  1  0  0  0
 85171  1  0  0  0
 88172  1  0  0  0
M  ISO  4   1 100  68 101  85 101  88 100
M  END
> <chiral flag>
0

> <version>
0

> <s_m_source_file>
/data/baiqing/PycharmProjects/Reinvent-master-3.2/result/LINK_invent/BTK/process_docking_weight1_custom_sum_contain_oxygen_bond_distance_aromatic_linkinvent_7_9_3/rearranged_h_0039.sdf

> <i_m_source_file_index>
49

> <r_mmod_Potential_Energy-OPLS-2005>
-455.441345214844

> <r_mmod_Stretch_Energy-OPLS-2005>
32.6595878601074

> <r_mmod_Bend_Energy-OPLS-2005>
103.183097839355

> <r_mmod_Torsional_Energy-OPLS-2005>
218.443557739258

> <r_mmod_Improper_Torsional_Energy-OPLS-2005>
2.97273898124695

> <r_mmod_Van_der_Waal_Energy-OPLS-2005>
148.670608520508

> <r_mmod_Electrostatic_Energy-OPLS-2005>
-739.907531738281

> <r_mmod_Solvation_Energy-OPLS-2005>
-228.438705444336

> <b_mmod_Minimization_Converged-OPLS-2005>
0

> <r_mmod_RMS_Derivative-OPLS-2005>
2.33449077606201

$$$$
50
                    3D
 Structure written by MMmdl.
165173  0  0  1  0            999 V2000
  -30.7182  -14.3810   20.6276 C   0  0  0  0  0  0
  -30.4254  -12.2683   19.3920 C   0  0  0  0  0  0
  -29.4866  -12.4923   18.1883 C   0  0  0  0  0  0
  -28.0076  -12.3693   18.6078 C   0  0  0  0  0  0
  -27.6700  -13.1915   19.8801 C   0  0  2  0  0  0
  -28.7086  -12.9080   20.9885 C   0  0  0  0  0  0
  -25.2637  -13.8128   20.5662 C   0  0  0  0  0  0
  -24.1860  -13.0427   20.9158 C   0  0  0  0  0  0
  -24.6383  -11.6882   20.8713 C   0  0  0  0  0  0
  -23.9032  -10.4287   21.0393 C   0  0  0  0  0  0
  -24.3599   -9.4208   21.9172 C   0  0  0  0  0  0
  -23.6281   -8.2238   22.0750 C   0  0  0  0  0  0
  -22.4261   -8.0273   21.3546 C   0  0  0  0  0  0
  -21.9885   -9.0241   20.4645 C   0  0  0  0  0  0
  -22.7201  -10.2122   20.3044 C   0  0  0  0  0  0
  -21.6849   -6.0714   22.5272 C   0  0  0  0  0  0
  -21.4010   -6.5627   23.8206 C   0  0  0  0  0  0
  -21.3654   -5.6783   24.9174 C   0  0  0  0  0  0
  -21.6050   -4.3046   24.7226 C   0  0  0  0  0  0
  -21.8823   -3.8134   23.4354 C   0  0  0  0  0  0
  -21.9198   -4.6945   22.3407 C   0  0  0  0  0  0
  -22.7883  -13.5244   21.1831 C   0  0  0  0  0  0
  -22.1666   -4.2131   21.0981 F   0  0  0  0  0  0
  -21.5635   -3.4535   25.7744 F   0  0  0  0  0  0
  -30.0451  -13.2165   20.4478 N   0  0  0  0  0  0
  -26.3068  -12.9275   20.3380 N   0  0  0  0  0  0
  -25.9311  -11.6448   20.5756 N   0  0  0  0  0  0
  -22.0521  -12.8239   22.0395 N   0  0  0  0  0  0
  -25.4399  -15.1840   20.4075 N   0  0  0  0  0  0
  -31.8117  -14.6242   20.1084 O   0  0  0  0  0  0
  -21.6631   -6.8860   21.4236 O   0  0  0  0  0  0
  -22.3575  -14.5556   20.6688 O   0  0  0  0  0  0
  -24.6105  -31.8718   23.2105 C   0  0  0  0  0  0
  -25.9003  -32.4860   23.8401 C   0  0  1  0  0  0
  -27.2315  -27.4687   20.1087 C   0  0  0  0  0  0
  -25.5862  -33.8659   24.2322 N   0  0  0  0  0  0
  -23.3957  -30.4959   21.5483 C   0  0  2  0  0  0
  -24.8427  -28.9620   20.1145 C   0  0  0  0  0  0
  -22.7378  -29.4693   22.4980 C   0  0  0  0  0  0
  -18.0258  -28.1431   22.8536 C   0  0  0  0  0  0
  -24.1470  -36.7309   23.2637 C   0  0  0  0  0  0
  -25.9197  -30.8497   21.3579 C   0  0  0  0  0  0
  -25.9959  -29.4838   20.7152 C   0  0  0  0  0  0
  -27.1941  -28.7434   20.7168 C   0  0  0  0  0  0
  -26.0733  -26.9605   19.4912 C   0  0  0  0  0  0
  -24.8737  -27.6984   19.4980 C   0  0  0  0  0  0
  -23.6009  -29.8222   20.1641 C   0  0  0  0  0  0
  -25.4105  -36.3151   24.0339 C   0  0  1  0  0  0
  -20.5856  -28.3705   23.1343 C   0  0  2  0  0  0
  -20.6746  -26.9439   22.5444 C   0  0  0  0  0  0
  -19.5710  -26.6432   21.5247 C   0  0  0  0  0  0
  -18.1893  -26.7983   22.1665 C   0  0  0  0  0  0
  -19.1518  -28.8875   23.2959 C   0  0  0  0  0  0
  -18.9461  -30.1474   23.8990 C   0  0  0  0  0  0
  -17.6475  -30.6640   24.0591 C   0  0  0  0  0  0
  -25.9034  -34.9508   23.5137 C   0  0  0  0  0  0
  -16.5358  -29.9165   23.6336 C   0  0  0  0  0  0
  -16.7260  -28.6561   23.0392 C   0  0  0  0  0  0
  -26.4430  -31.6652   25.0731 C   0  0  0  0  0  0
  -25.3704  -31.3764   26.1482 C   0  0  0  0  0  0
  -27.0249  -30.3090   24.6129 C   0  0  0  0  0  0
  -27.6001  -32.4396   25.7481 C   0  0  0  0  0  0
  -27.5582  -37.1811   24.8475 C   0  0  0  0  0  0
  -21.4110  -29.3064   22.3726 N   0  0  0  0  0  0
  -26.4296  -37.3845   23.9421 N   0  0  0  0  0  0
  -24.6592  -31.0884   22.0970 N   0  0  0  0  0  0
  -23.4163  -28.8231   23.3009 O   0  0  0  0  0  0
  -28.3631  -26.6928   20.0970 O   0  0  0  0  0  0
  -26.5629  -34.8953   22.4724 O   0  0  0  0  0  0
  -23.5307  -32.1426   23.7540 O   0  0  0  0  0  0
  -29.8033  -22.9551   19.2930 C   0  0  0  0  0  0
  -30.9043  -23.7678   19.6789 C   0  0  0  0  0  0
  -30.3629  -21.8516   18.7157 C   0  0  0  0  0  0
  -32.8149  -21.1908   18.2858 C   0  0  0  0  0  0
  -30.8754  -25.1589   20.2527 C   0  0  0  0  0  0
  -29.6527  -20.7230   18.0257 C   0  0  0  0  0  0
  -29.8562  -25.3316   21.3964 C   0  0  0  0  0  0
  -30.0994  -19.2833   18.3331 C   0  0  0  0  0  0
  -30.0841  -18.8672   19.8156 C   0  0  0  0  0  0
  -30.1553  -17.3369   19.9086 C   0  0  0  0  0  0
  -30.3162  -16.7478   21.3235 C   0  0  0  0  0  0
  -29.1036  -26.6651   21.3153 C   0  0  0  0  0  0
  -32.0599  -23.1848   19.4060 N   0  0  0  0  0  0
  -31.7381  -22.0266   18.7850 N   0  0  0  0  0  0
  -30.0364  -15.3130   21.3061 N   0  0  0  0  0  0
  -31.4665  -12.3762   19.0823 H   0  0  0  0  0  0
  -30.3320  -11.2437   19.7573 H   0  0  0  0  0  0
  -29.7052  -11.7673   17.4021 H   0  0  0  0  0  0
  -29.6684  -13.4751   17.7524 H   0  0  0  0  0  0
  -27.8047  -11.3134   18.7878 H   0  0  0  0  0  0
  -27.3550  -12.6631   17.7848 H   0  0  0  0  0  0
  -27.7346  -14.2475   19.6142 H   0  0  0  0  0  0
  -28.6739  -11.8536   21.2690 H   0  0  0  0  0  0
  -28.4735  -13.4523   21.9043 H   0  0  0  0  0  0
  -25.2748   -9.5680   22.4744 H   0  0  0  0  0  0
  -23.9991   -7.4624   22.7466 H   0  0  0  0  0  0
  -21.0818   -8.8746   19.8955 H   0  0  0  0  0  0
  -22.3655  -10.9655   19.6155 H   0  0  0  0  0  0
  -21.1988   -7.6133   23.9701 H   0  0  0  0  0  0
  -21.1478   -6.0516   25.9075 H   0  0  0  0  0  0
  -22.0608   -2.7595   23.2858 H   0  0  0  0  0  0
  -22.4140  -11.9894   22.4768 H   0  0  0  0  0  0
  -21.1148  -13.1286   22.2615 H   0  0  0  0  0  0
  -24.6792  -15.8450   20.5187 H   0  0  0  0  0  0
  -26.3007  -15.6176   20.0974 H   0  0  0  0  0  0
  -26.7080  -32.5574   23.1179 H   0  0  0  0  0  0
  -24.9949  -33.9821   25.0429 H   0  0  0  0  0  0
  -22.6833  -31.3135   21.4117 H   0  0  0  0  0  0
  -23.3748  -35.9626   23.3355 H   0  0  0  0  0  0
  -24.3518  -36.8870   22.2032 H   0  0  0  0  0  0
  -23.7185  -37.6513   23.6616 H   0  0  0  0  0  0
  -26.0362  -31.6131   20.5863 H   0  0  0  0  0  0
  -26.8039  -30.9019   21.9810 H   0  0  0  0  0  0
  -28.0794  -29.1519   21.1808 H   0  0  0  0  0  0
  -26.0926  -25.9843   19.0253 H   0  0  0  0  0  0
  -23.9870  -27.2953   19.0265 H   0  0  0  0  0  0
  -23.7067  -30.5923   19.3990 H   0  0  0  0  0  0
  -22.7264  -29.2364   19.8739 H   0  0  0  0  0  0
  -25.1294  -36.2026   25.0831 H   0  0  0  0  0  0
  -21.0006  -28.3291   24.1443 H   0  0  0  0  0  0
  -20.5671  -26.2318   23.3632 H   0  0  0  0  0  0
  -21.6612  -26.7487   22.1225 H   0  0  0  0  0  0
  -19.6852  -25.6354   21.1251 H   0  0  0  0  0  0
  -19.6657  -27.3262   20.6787 H   0  0  0  0  0  0
  -17.4166  -26.6776   21.4053 H   0  0  0  0  0  0
  -18.0275  -26.0123   22.9058 H   0  0  0  0  0  0
  -19.7937  -30.7255   24.2420 H   0  0  0  0  0  0
  -17.5041  -31.6329   24.5188 H   0  0  0  0  0  0
  -15.5372  -30.3120   23.7608 H   0  0  0  0  0  0
  -15.8643  -28.0891   22.7135 H   0  0  0  0  0  0
  -24.5847  -30.7151   25.7791 H   0  0  0  0  0  0
  -24.8939  -32.2938   26.4963 H   0  0  0  0  0  0
  -25.8061  -30.8882   27.0207 H   0  0  0  0  0  0
  -26.2790  -29.6877   24.1157 H   0  0  0  0  0  0
  -27.3932  -29.7323   25.4620 H   0  0  0  0  0  0
  -27.8671  -30.4376   23.9327 H   0  0  0  0  0  0
  -27.2599  -33.3678   26.2088 H   0  0  0  0  0  0
  -28.3784  -32.7003   25.0296 H   0  0  0  0  0  0
  -28.0699  -31.8521   26.5375 H   0  0  0  0  0  0
  -28.2674  -38.0050   24.7555 H   0  0  0  0  0  0
  -28.1031  -36.2608   24.6321 H   0  0  0  0  0  0
  -27.2306  -37.1479   25.8880 H   0  0  0  0  0  0
  -20.9259  -29.8779   21.6947 H   0  0  0  0  0  0
  -26.0194  -38.2922   24.1458 H   0  0  0  0  0  0
  -28.7482  -23.1792   19.3774 H   0  0  0  0  0  0
  -32.5398  -20.7339   17.3354 H   0  0  0  0  0  0
  -33.0415  -20.4095   19.0110 H   0  0  0  0  0  0
  -33.7175  -21.7821   18.1242 H   0  0  0  0  0  0
  -30.6456  -25.8519   19.4415 H   0  0  0  0  0  0
  -31.8640  -25.4583   20.6030 H   0  0  0  0  0  0
  -29.7103  -20.8893   16.9490 H   0  0  0  0  0  0
  -28.5902  -20.7931   18.2662 H   0  0  0  0  0  0
  -30.3608  -25.2392   22.3598 H   0  0  0  0  0  0
  -29.1129  -24.5353   21.3786 H   0  0  0  0  0  0
  -31.0893  -19.0962   17.9217 H   0  0  0  0  0  0
  -29.4340  -18.6239   17.7746 H   0  0  0  0  0  0
  -29.1711  -19.2181   20.3005 H   0  0  0  0  0  0
  -30.9192  -19.3307   20.3459 H   0  0  0  0  0  0
  -30.9859  -16.9953   19.2902 H   0  0  0  0  0  0
  -29.2530  -16.9288   19.4510 H   0  0  0  0  0  0
  -29.6154  -17.2191   22.0128 H   0  0  0  0  0  0
  -31.3207  -16.9285   21.7123 H   0  0  0  0  0  0
  -28.4354  -26.7437   22.1773 H   0  0  0  0  0  0
  -29.7971  -27.5053   21.3541 H   0  0  0  0  0  0
  -29.1516  -15.0154   21.6928 H   0  0  0  0  0  0
  1 25  1  0  0  0
  1 30  2  0  0  0
  1 85  1  0  0  0
  2  3  1  0  0  0
  2 25  1  0  0  0
  2 86  1  0  0  0
  2 87  1  0  0  0
  3  4  1  0  0  0
  3 88  1  0  0  0
  3 89  1  0  0  0
  4  5  1  0  0  0
  4 90  1  0  0  0
  4 91  1  0  0  0
  5  6  1  0  0  0
  5 26  1  0  0  0
  5 92  1  0  0  0
  6 25  1  0  0  0
  6 93  1  0  0  0
  6 94  1  0  0  0
  7  8  2  0  0  0
  7 26  1  0  0  0
  7 29  1  0  0  0
  8  9  1  0  0  0
  8 22  1  0  0  0
  9 10  1  0  0  0
  9 27  2  0  0  0
 10 11  2  0  0  0
 10 15  1  0  0  0
 11 12  1  0  0  0
 11 95  1  0  0  0
 12 13  2  0  0  0
 12 96  1  0  0  0
 13 14  1  0  0  0
 13 31  1  0  0  0
 14 15  2  0  0  0
 14 97  1  0  0  0
 15 98  1  0  0  0
 16 17  2  0  0  0
 16 21  1  0  0  0
 16 31  1  0  0  0
 17 18  1  0  0  0
 17 99  1  0  0  0
 18 19  2  0  0  0
 18100  1  0  0  0
 19 20  1  0  0  0
 19 24  1  0  0  0
 20 21  2  0  0  0
 20101  1  0  0  0
 21 23  1  0  0  0
 22 28  1  0  0  0
 22 32  2  0  0  0
 26 27  1  0  0  0
 28102  1  0  0  0
 28103  1  0  0  0
 29104  1  0  0  0
 29105  1  0  0  0
 33 34  1  0  0  0
 33 66  1  0  0  0
 33 70  2  0  0  0
 34 36  1  0  0  0
 34 59  1  0  0  0
 34106  1  0  0  0
 35 44  2  0  0  0
 35 45  1  0  0  0
 35 68  1  0  0  0
 36 56  1  0  0  0
 36107  1  0  0  0
 37 39  1  0  0  0
 37 47  1  0  0  0
 37 66  1  0  0  0
 37108  1  0  0  0
 38 43  2  0  0  0
 38 46  1  0  0  0
 38 47  1  0  0  0
 39 64  1  0  0  0
 39 67  2  0  0  0
 40 52  1  0  0  0
 40 53  2  0  0  0
 40 58  1  0  0  0
 41109  1  0  0  0
 41110  1  0  0  0
 41111  1  0  0  0
 41 48  1  0  0  0
 42 43  1  0  0  0
 42 66  1  0  0  0
 42112  1  0  0  0
 42113  1  0  0  0
 43 44  1  0  0  0
 44114  1  0  0  0
 45 46  2  0  0  0
 45115  1  0  0  0
 46116  1  0  0  0
 47117  1  0  0  0
 47118  1  0  0  0
 48 56  1  0  0  0
 48 65  1  0  0  0
 48119  1  0  0  0
 49 50  1  0  0  0
 49 53  1  0  0  0
 49 64  1  0  0  0
 49120  1  0  0  0
 50 51  1  0  0  0
 50121  1  0  0  0
 50122  1  0  0  0
 51 52  1  0  0  0
 51123  1  0  0  0
 51124  1  0  0  0
 52125  1  0  0  0
 52126  1  0  0  0
 53 54  1  0  0  0
 54 55  2  0  0  0
 54127  1  0  0  0
 55 57  1  0  0  0
 55128  1  0  0  0
 56 69  2  0  0  0
 57 58  2  0  0  0
 57129  1  0  0  0
 58130  1  0  0  0
 59 60  1  0  0  0
 59 61  1  0  0  0
 59 62  1  0  0  0
 60131  1  0  0  0
 60132  1  0  0  0
 60133  1  0  0  0
 61134  1  0  0  0
 61135  1  0  0  0
 61136  1  0  0  0
 62137  1  0  0  0
 62138  1  0  0  0
 62139  1  0  0  0
 63 65  1  0  0  0
 63140  1  0  0  0
 63141  1  0  0  0
 63142  1  0  0  0
 64143  1  0  0  0
 65144  1  0  0  0
 68 82  1  0  0  0
 71 72  1  0  0  0
 71 73  2  0  0  0
 71145  1  0  0  0
 72 75  1  0  0  0
 72 83  2  0  0  0
 73 76  1  0  0  0
 73 84  1  0  0  0
 74 84  1  0  0  0
 74146  1  0  0  0
 74147  1  0  0  0
 74148  1  0  0  0
 75 77  1  0  0  0
 75149  1  0  0  0
 75150  1  0  0  0
 76 78  1  0  0  0
 76151  1  0  0  0
 76152  1  0  0  0
 77 82  1  0  0  0
 77153  1  0  0  0
 77154  1  0  0  0
 78 79  1  0  0  0
 78155  1  0  0  0
 78156  1  0  0  0
 79 80  1  0  0  0
 79157  1  0  0  0
 79158  1  0  0  0
 80 81  1  0  0  0
 80159  1  0  0  0
 80160  1  0  0  0
 81 85  1  0  0  0
 81161  1  0  0  0
 81162  1  0  0  0
 82163  1  0  0  0
 82164  1  0  0  0
 83 84  1  0  0  0
 85165  1  0  0  0
M  ISO  4   1 100  68 101  82 101  85 100
M  END
> <chiral flag>
0

> <version>
0

> <s_m_source_file>
/data/baiqing/PycharmProjects/Reinvent-master-3.2/result/LINK_invent/BTK/process_docking_weight1_custom_sum_contain_oxygen_bond_distance_aromatic_linkinvent_7_9_3/rearranged_h_0039.sdf

> <i_m_source_file_index>
50

> <r_mmod_Potential_Energy-OPLS-2005>
-150.545257568359

> <r_mmod_Stretch_Energy-OPLS-2005>
30.0374965667725

> <r_mmod_Bend_Energy-OPLS-2005>
95.7916488647461

> <r_mmod_Torsional_Energy-OPLS-2005>
219.670974731445

> <r_mmod_Improper_Torsional_Energy-OPLS-2005>
3.80388832092285

> <r_mmod_Van_der_Waal_Energy-OPLS-2005>
131.861618041992

> <r_mmod_Electrostatic_Energy-OPLS-2005>
-418.445953369141

> <r_mmod_Solvation_Energy-OPLS-2005>
-221.649551391602

> <b_mmod_Minimization_Converged-OPLS-2005>
0

> <r_mmod_RMS_Derivative-OPLS-2005>
3.27090096473694

$$$$
51
                    3D
 Structure written by MMmdl.
165173  0  0  1  0            999 V2000
  -30.7032  -14.3839   20.6139 C   0  0  0  0  0  0
  -30.4246  -12.2611   19.4055 C   0  0  0  0  0  0
  -29.4961  -12.5144   18.1997 C   0  0  0  0  0  0
  -28.0132  -12.3848   18.6053 C   0  0  0  0  0  0
  -27.6697  -13.1930   19.8854 C   0  0  2  0  0  0
  -28.7046  -12.9032   20.9969 C   0  0  0  0  0  0
  -25.2611  -13.8126   20.5650 C   0  0  0  0  0  0
  -24.1848  -13.0425   20.9143 C   0  0  0  0  0  0
  -24.6385  -11.6888   20.8710 C   0  0  0  0  0  0
  -23.9045  -10.4284   21.0392 C   0  0  0  0  0  0
  -24.3604   -9.4207   21.9176 C   0  0  0  0  0  0
  -23.6287   -8.2240   22.0753 C   0  0  0  0  0  0
  -22.4268   -8.0274   21.3544 C   0  0  0  0  0  0
  -21.9897   -9.0244   20.4642 C   0  0  0  0  0  0
  -22.7218  -10.2123   20.3045 C   0  0  0  0  0  0
  -21.6851   -6.0731   22.5283 C   0  0  0  0  0  0
  -21.4012   -6.5637   23.8216 C   0  0  0  0  0  0
  -21.3661   -5.6791   24.9180 C   0  0  0  0  0  0
  -21.6043   -4.3055   24.7232 C   0  0  0  0  0  0
  -21.8818   -3.8143   23.4356 C   0  0  0  0  0  0
  -21.9192   -4.6958   22.3409 C   0  0  0  0  0  0
  -22.7877  -13.5239   21.1827 C   0  0  0  0  0  0
  -22.1660   -4.2143   21.0987 F   0  0  0  0  0  0
  -21.5631   -3.4540   25.7746 F   0  0  0  0  0  0
  -30.0482  -13.2050   20.4650 N   0  0  0  0  0  0
  -26.3052  -12.9275   20.3375 N   0  0  0  0  0  0
  -25.9303  -11.6443   20.5734 N   0  0  0  0  0  0
  -22.0513  -12.8236   22.0384 N   0  0  0  0  0  0
  -25.4339  -15.1846   20.4075 N   0  0  0  0  0  0
  -31.7861  -14.6411   20.0788 O   0  0  0  0  0  0
  -21.6637   -6.8871   21.4244 O   0  0  0  0  0  0
  -22.3566  -14.5551   20.6684 O   0  0  0  0  0  0
  -24.6081  -31.8699   23.2109 C   0  0  0  0  0  0
  -25.9004  -32.4823   23.8385 C   0  0  1  0  0  0
  -27.2503  -27.4858   20.0866 C   0  0  0  0  0  0
  -25.5896  -33.8619   24.2332 N   0  0  0  0  0  0
  -23.3940  -30.4898   21.5500 C   0  0  2  0  0  0
  -24.8437  -28.9516   20.1230 C   0  0  0  0  0  0
  -22.7372  -29.4650   22.5010 C   0  0  0  0  0  0
  -18.0256  -28.1359   22.8466 C   0  0  0  0  0  0
  -24.1489  -36.7305   23.2643 C   0  0  0  0  0  0
  -25.9162  -30.8503   21.3557 C   0  0  0  0  0  0
  -25.9978  -29.4857   20.7088 C   0  0  0  0  0  0
  -27.2034  -28.7589   20.6839 C   0  0  0  0  0  0
  -26.0811  -26.9423   19.5131 C   0  0  0  0  0  0
  -24.8772  -27.6754   19.5284 C   0  0  0  0  0  0
  -23.6026  -29.8125   20.1675 C   0  0  0  0  0  0
  -25.4108  -36.3114   24.0342 C   0  0  1  0  0  0
  -20.5843  -28.3641   23.1323 C   0  0  2  0  0  0
  -20.6751  -26.9381   22.5414 C   0  0  0  0  0  0
  -19.5749  -26.6368   21.5190 C   0  0  0  0  0  0
  -18.1917  -26.7899   22.1594 C   0  0  0  0  0  0
  -19.1510  -28.8810   23.2887 C   0  0  0  0  0  0
  -18.9456  -30.1410   23.8907 C   0  0  0  0  0  0
  -17.6475  -30.6582   24.0547 C   0  0  0  0  0  0
  -25.9030  -34.9480   23.5135 C   0  0  0  0  0  0
  -16.5353  -29.9089   23.6316 C   0  0  0  0  0  0
  -16.7251  -28.6497   23.0336 C   0  0  0  0  0  0
  -26.4465  -31.6595   25.0698 C   0  0  0  0  0  0
  -25.3751  -31.3703   26.1471 C   0  0  0  0  0  0
  -27.0297  -30.3052   24.6028 C   0  0  0  0  0  0
  -27.6043  -32.4313   25.7475 C   0  0  0  0  0  0
  -27.5583  -37.1808   24.8465 C   0  0  0  0  0  0
  -21.4108  -29.3016   22.3740 N   0  0  0  0  0  0
  -26.4296  -37.3794   23.9413 N   0  0  0  0  0  0
  -24.6572  -31.0833   22.0996 N   0  0  0  0  0  0
  -23.4148  -28.8193   23.3044 O   0  0  0  0  0  0
  -28.4607  -26.8468   20.0177 O   0  0  0  0  0  0
  -26.5578  -34.8941   22.4685 O   0  0  0  0  0  0
  -23.5283  -32.1448   23.7536 O   0  0  0  0  0  0
  -31.3045  -23.4530   21.6014 C   0  0  0  0  0  0
  -29.1064  -23.3012   22.6334 C   0  0  0  0  0  0
  -30.0513  -24.0283   21.8880 C   0  0  0  0  0  0
  -31.6074  -22.1448   22.0278 C   0  0  0  0  0  0
  -29.3908  -21.9904   23.0650 C   0  0  0  0  0  0
  -30.6417  -21.3956   22.7509 C   0  0  0  0  0  0
  -32.9741  -21.5685   21.6870 C   0  0  0  0  0  0
  -28.3249  -21.2468   23.8553 C   0  0  0  0  0  0
  -29.7269  -25.4305   21.4082 C   0  0  0  0  0  0
  -30.9105  -19.9364   23.1108 C   0  0  0  0  0  0
  -30.4518  -19.0314   21.9605 C   0  0  0  0  0  0
  -30.5820  -17.5297   22.2341 C   0  0  0  0  0  0
  -30.0830  -16.7472   21.0149 C   0  0  0  0  0  0
  -28.5221  -25.5000   20.4554 C   0  0  0  0  0  0
  -29.9941  -15.3156   21.2583 N   0  0  0  0  0  0
  -31.4707  -12.3606   19.1101 H   0  0  0  0  0  0
  -30.3154  -11.2358   19.7629 H   0  0  0  0  0  0
  -29.7263  -11.8161   17.3936 H   0  0  0  0  0  0
  -29.6802  -13.5127   17.7993 H   0  0  0  0  0  0
  -27.8031  -11.3267   18.7668 H   0  0  0  0  0  0
  -27.3721  -12.6989   17.7808 H   0  0  0  0  0  0
  -27.7355  -14.2506   19.6288 H   0  0  0  0  0  0
  -28.6590  -11.8507   21.2817 H   0  0  0  0  0  0
  -28.4650  -13.4504   21.9095 H   0  0  0  0  0  0
  -25.2755   -9.5687   22.4742 H   0  0  0  0  0  0
  -24.0000   -7.4635   22.7476 H   0  0  0  0  0  0
  -21.0828   -8.8754   19.8951 H   0  0  0  0  0  0
  -22.3679  -10.9657   19.6148 H   0  0  0  0  0  0
  -21.2001   -7.6142   23.9717 H   0  0  0  0  0  0
  -21.1484   -6.0523   25.9081 H   0  0  0  0  0  0
  -22.0594   -2.7605   23.2859 H   0  0  0  0  0  0
  -22.4129  -11.9902   22.4778 H   0  0  0  0  0  0
  -21.1131  -13.1264   22.2584 H   0  0  0  0  0  0
  -24.6674  -15.8399   20.5156 H   0  0  0  0  0  0
  -26.2908  -15.6261   20.0983 H   0  0  0  0  0  0
  -26.7073  -32.5581   23.1154 H   0  0  0  0  0  0
  -25.0069  -33.9754   25.0498 H   0  0  0  0  0  0
  -22.6821  -31.3053   21.4035 H   0  0  0  0  0  0
  -23.3740  -35.9647   23.3318 H   0  0  0  0  0  0
  -24.3587  -36.8905   22.2055 H   0  0  0  0  0  0
  -23.7252  -37.6520   23.6647 H   0  0  0  0  0  0
  -26.0141  -31.6170   20.5858 H   0  0  0  0  0  0
  -26.8099  -30.9077   21.9649 H   0  0  0  0  0  0
  -28.1040  -29.1741   21.1147 H   0  0  0  0  0  0
  -26.1044  -25.9726   19.0358 H   0  0  0  0  0  0
  -23.9909  -27.2547   19.0753 H   0  0  0  0  0  0
  -23.7078  -30.5837   19.4037 H   0  0  0  0  0  0
  -22.7303  -29.2254   19.8732 H   0  0  0  0  0  0
  -25.1280  -36.1990   25.0832 H   0  0  0  0  0  0
  -20.9908  -28.3215   24.1454 H   0  0  0  0  0  0
  -20.5642  -26.2242   23.3591 H   0  0  0  0  0  0
  -21.6626  -26.7426   22.1215 H   0  0  0  0  0  0
  -19.6928  -25.6280   21.1216 H   0  0  0  0  0  0
  -19.6722  -27.3174   20.6722 H   0  0  0  0  0  0
  -17.4182  -26.6624   21.4001 H   0  0  0  0  0  0
  -18.0344  -26.0042   22.8997 H   0  0  0  0  0  0
  -19.7952  -30.7189   24.2299 H   0  0  0  0  0  0
  -17.5056  -31.6276   24.5131 H   0  0  0  0  0  0
  -15.5360  -30.3006   23.7663 H   0  0  0  0  0  0
  -15.8631  -28.0838   22.7054 H   0  0  0  0  0  0
  -24.5907  -30.7051   25.7844 H   0  0  0  0  0  0
  -24.8940  -32.2855   26.4936 H   0  0  0  0  0  0
  -25.8120  -30.8886   27.0223 H   0  0  0  0  0  0
  -26.2821  -29.6798   24.1130 H   0  0  0  0  0  0
  -27.4155  -29.7299   25.4450 H   0  0  0  0  0  0
  -27.8609  -30.4385   23.9094 H   0  0  0  0  0  0
  -27.2649  -33.3591   26.2091 H   0  0  0  0  0  0
  -28.3849  -32.6916   25.0313 H   0  0  0  0  0  0
  -28.0717  -31.8412   26.5369 H   0  0  0  0  0  0
  -28.2602  -38.0102   24.7505 H   0  0  0  0  0  0
  -28.1077  -36.2633   24.6302 H   0  0  0  0  0  0
  -27.2289  -37.1465   25.8864 H   0  0  0  0  0  0
  -20.9266  -29.8741   21.6971 H   0  0  0  0  0  0
  -26.0188  -38.2868   24.1435 H   0  0  0  0  0  0
  -32.0378  -24.0165   21.0399 H   0  0  0  0  0  0
  -28.1491  -23.7494   22.8647 H   0  0  0  0  0  0
  -33.5506  -22.2529   21.0642 H   0  0  0  0  0  0
  -32.8887  -20.6307   21.1393 H   0  0  0  0  0  0
  -33.5484  -21.3871   22.5963 H   0  0  0  0  0  0
  -27.4033  -21.8258   23.9264 H   0  0  0  0  0  0
  -28.6707  -21.0549   24.8712 H   0  0  0  0  0  0
  -28.0743  -20.2942   23.3896 H   0  0  0  0  0  0
  -30.6032  -25.8482   20.9108 H   0  0  0  0  0  0
  -29.5397  -26.0596   22.2788 H   0  0  0  0  0  0
  -30.3952  -19.6692   24.0333 H   0  0  0  0  0  0
  -31.9663  -19.7700   23.3222 H   0  0  0  0  0  0
  -31.0065  -19.2833   21.0564 H   0  0  0  0  0  0
  -29.4088  -19.2553   21.7339 H   0  0  0  0  0  0
  -29.9997  -17.2647   23.1177 H   0  0  0  0  0  0
  -31.6216  -17.2729   22.4448 H   0  0  0  0  0  0
  -30.7059  -16.9650   20.1444 H   0  0  0  0  0  0
  -29.0772  -17.0801   20.7528 H   0  0  0  0  0  0
  -27.6099  -25.1796   20.9626 H   0  0  0  0  0  0
  -28.6666  -24.8520   19.5898 H   0  0  0  0  0  0
  -29.1416  -14.9880   21.6887 H   0  0  0  0  0  0
  1 25  1  0  0  0
  1 30  2  0  0  0
  1 85  1  0  0  0
  2  3  1  0  0  0
  2 25  1  0  0  0
  2 86  1  0  0  0
  2 87  1  0  0  0
  3  4  1  0  0  0
  3 88  1  0  0  0
  3 89  1  0  0  0
  4  5  1  0  0  0
  4 90  1  0  0  0
  4 91  1  0  0  0
  5  6  1  0  0  0
  5 26  1  0  0  0
  5 92  1  0  0  0
  6 25  1  0  0  0
  6 93  1  0  0  0
  6 94  1  0  0  0
  7  8  2  0  0  0
  7 26  1  0  0  0
  7 29  1  0  0  0
  8  9  1  0  0  0
  8 22  1  0  0  0
  9 10  1  0  0  0
  9 27  2  0  0  0
 10 11  2  0  0  0
 10 15  1  0  0  0
 11 12  1  0  0  0
 11 95  1  0  0  0
 12 13  2  0  0  0
 12 96  1  0  0  0
 13 14  1  0  0  0
 13 31  1  0  0  0
 14 15  2  0  0  0
 14 97  1  0  0  0
 15 98  1  0  0  0
 16 17  2  0  0  0
 16 21  1  0  0  0
 16 31  1  0  0  0
 17 18  1  0  0  0
 17 99  1  0  0  0
 18 19  2  0  0  0
 18100  1  0  0  0
 19 20  1  0  0  0
 19 24  1  0  0  0
 20 21  2  0  0  0
 20101  1  0  0  0
 21 23  1  0  0  0
 22 28  1  0  0  0
 22 32  2  0  0  0
 26 27  1  0  0  0
 28102  1  0  0  0
 28103  1  0  0  0
 29104  1  0  0  0
 29105  1  0  0  0
 33 34  1  0  0  0
 33 66  1  0  0  0
 33 70  2  0  0  0
 34 36  1  0  0  0
 34 59  1  0  0  0
 34106  1  0  0  0
 35 44  2  0  0  0
 35 45  1  0  0  0
 35 68  1  0  0  0
 36 56  1  0  0  0
 36107  1  0  0  0
 37 39  1  0  0  0
 37 47  1  0  0  0
 37 66  1  0  0  0
 37108  1  0  0  0
 38 43  2  0  0  0
 38 46  1  0  0  0
 38 47  1  0  0  0
 39 64  1  0  0  0
 39 67  2  0  0  0
 40 52  1  0  0  0
 40 53  2  0  0  0
 40 58  1  0  0  0
 41109  1  0  0  0
 41110  1  0  0  0
 41111  1  0  0  0
 41 48  1  0  0  0
 42 43  1  0  0  0
 42 66  1  0  0  0
 42112  1  0  0  0
 42113  1  0  0  0
 43 44  1  0  0  0
 44114  1  0  0  0
 45 46  2  0  0  0
 45115  1  0  0  0
 46116  1  0  0  0
 47117  1  0  0  0
 47118  1  0  0  0
 48 56  1  0  0  0
 48 65  1  0  0  0
 48119  1  0  0  0
 49 50  1  0  0  0
 49 53  1  0  0  0
 49 64  1  0  0  0
 49120  1  0  0  0
 50 51  1  0  0  0
 50121  1  0  0  0
 50122  1  0  0  0
 51 52  1  0  0  0
 51123  1  0  0  0
 51124  1  0  0  0
 52125  1  0  0  0
 52126  1  0  0  0
 53 54  1  0  0  0
 54 55  2  0  0  0
 54127  1  0  0  0
 55 57  1  0  0  0
 55128  1  0  0  0
 56 69  2  0  0  0
 57 58  2  0  0  0
 57129  1  0  0  0
 58130  1  0  0  0
 59 60  1  0  0  0
 59 61  1  0  0  0
 59 62  1  0  0  0
 60131  1  0  0  0
 60132  1  0  0  0
 60133  1  0  0  0
 61134  1  0  0  0
 61135  1  0  0  0
 61136  1  0  0  0
 62137  1  0  0  0
 62138  1  0  0  0
 62139  1  0  0  0
 63 65  1  0  0  0
 63140  1  0  0  0
 63141  1  0  0  0
 63142  1  0  0  0
 64143  1  0  0  0
 65144  1  0  0  0
 68 84  1  0  0  0
 71 73  2  0  0  0
 71 74  1  0  0  0
 71145  1  0  0  0
 72 73  1  0  0  0
 72 75  2  0  0  0
 72146  1  0  0  0
 73 79  1  0  0  0
 74 76  2  0  0  0
 74 77  1  0  0  0
 75 76  1  0  0  0
 75 78  1  0  0  0
 76 80  1  0  0  0
 77147  1  0  0  0
 77148  1  0  0  0
 77149  1  0  0  0
 78150  1  0  0  0
 78151  1  0  0  0
 78152  1  0  0  0
 79 84  1  0  0  0
 79153  1  0  0  0
 79154  1  0  0  0
 80 81  1  0  0  0
 80155  1  0  0  0
 80156  1  0  0  0
 81 82  1  0  0  0
 81157  1  0  0  0
 81158  1  0  0  0
 82 83  1  0  0  0
 82159  1  0  0  0
 82160  1  0  0  0
 83 85  1  0  0  0
 83161  1  0  0  0
 83162  1  0  0  0
 84163  1  0  0  0
 84164  1  0  0  0
 85165  1  0  0  0
M  ISO  4   1 100  68 101  84 101  85 100
M  END
> <chiral flag>
0

> <version>
0

> <s_m_source_file>
/data/baiqing/PycharmProjects/Reinvent-master-3.2/result/LINK_invent/BTK/process_docking_weight1_custom_sum_contain_oxygen_bond_distance_aromatic_linkinvent_7_9_3/rearranged_h_0039.sdf

> <i_m_source_file_index>
51

> <r_mmod_Potential_Energy-OPLS-2005>
-84.8200454711914

> <r_mmod_Stretch_Energy-OPLS-2005>
31.6137523651123

> <r_mmod_Bend_Energy-OPLS-2005>
90.5004959106445

> <r_mmod_Torsional_Energy-OPLS-2005>
215.492614746094

> <r_mmod_Improper_Torsional_Energy-OPLS-2005>
5.22196674346924

> <r_mmod_Van_der_Waal_Energy-OPLS-2005>
157.007659912109

> <r_mmod_Electrostatic_Energy-OPLS-2005>
-389.483978271484

> <r_mmod_Solvation_Energy-OPLS-2005>
-203.65380859375

> <b_mmod_Minimization_Converged-OPLS-2005>
0

> <r_mmod_RMS_Derivative-OPLS-2005>
1.78947520256042

$$$$
52
                    3D
 Structure written by MMmdl.
160168  0  0  1  0            999 V2000
  -30.6371  -14.6161   20.5195 C   0  0  0  0  0  0
  -30.4357  -12.3917   19.4315 C   0  0  0  0  0  0
  -29.5008  -12.5079   18.2086 C   0  0  0  0  0  0
  -28.0250  -12.3447   18.6279 C   0  0  0  0  0  0
  -27.6494  -13.2134   19.8581 C   0  0  2  0  0  0
  -28.6977  -13.0669   20.9820 C   0  0  0  0  0  0
  -25.2550  -13.8163   20.5694 C   0  0  0  0  0  0
  -24.1816  -13.0426   20.9205 C   0  0  0  0  0  0
  -24.6377  -11.6900   20.8735 C   0  0  0  0  0  0
  -23.9049  -10.4284   21.0405 C   0  0  0  0  0  0
  -24.3606   -9.4208   21.9188 C   0  0  0  0  0  0
  -23.6294   -8.2236   22.0754 C   0  0  0  0  0  0
  -22.4282   -8.0265   21.3542 C   0  0  0  0  0  0
  -21.9908   -9.0235   20.4648 C   0  0  0  0  0  0
  -22.7219  -10.2124   20.3060 C   0  0  0  0  0  0
  -21.6859   -6.0724   22.5283 C   0  0  0  0  0  0
  -21.4007   -6.5631   23.8214 C   0  0  0  0  0  0
  -21.3665   -5.6788   24.9180 C   0  0  0  0  0  0
  -21.6062   -4.3052   24.7236 C   0  0  0  0  0  0
  -21.8816   -3.8139   23.4355 C   0  0  0  0  0  0
  -21.9191   -4.6950   22.3411 C   0  0  0  0  0  0
  -22.7841  -13.5227   21.1875 C   0  0  0  0  0  0
  -22.1660   -4.2134   21.0987 F   0  0  0  0  0  0
  -21.5641   -3.4541   25.7750 F   0  0  0  0  0  0
  -30.0076  -13.4085   20.4078 N   0  0  0  0  0  0
  -26.2964  -12.9330   20.3310 N   0  0  0  0  0  0
  -25.9304  -11.6488   20.5744 N   0  0  0  0  0  0
  -22.0475  -12.8208   22.0426 N   0  0  0  0  0  0
  -25.4265  -15.1886   20.4132 N   0  0  0  0  0  0
  -31.8163  -14.7710   20.1930 O   0  0  0  0  0  0
  -21.6648   -6.8863   21.4243 O   0  0  0  0  0  0
  -22.3523  -14.5535   20.6732 O   0  0  0  0  0  0
  -24.6223  -31.8633   23.2044 C   0  0  0  0  0  0
  -25.9082  -32.4798   23.8369 C   0  0  1  0  0  0
  -27.2332  -27.3605   20.1189 C   0  0  0  0  0  0
  -25.5903  -33.8599   24.2297 N   0  0  0  0  0  0
  -23.4138  -30.4875   21.5454 C   0  0  2  0  0  0
  -24.8584  -28.9373   20.1175 C   0  0  0  0  0  0
  -22.7453  -29.4653   22.4952 C   0  0  0  0  0  0
  -18.0296  -28.1377   22.8485 C   0  0  0  0  0  0
  -24.1481  -36.7303   23.2645 C   0  0  0  0  0  0
  -25.9491  -30.8083   21.3644 C   0  0  0  0  0  0
  -26.0244  -29.4370   20.7106 C   0  0  0  0  0  0
  -27.2150  -28.6619   20.6948 C   0  0  0  0  0  0
  -26.0428  -26.8877   19.5245 C   0  0  0  0  0  0
  -24.8661  -27.6646   19.5190 C   0  0  0  0  0  0
  -23.6267  -29.8177   20.1617 C   0  0  0  0  0  0
  -25.4105  -36.3106   24.0344 C   0  0  1  0  0  0
  -20.5887  -28.3688   23.1287 C   0  0  2  0  0  0
  -20.6776  -26.9411   22.5410 C   0  0  0  0  0  0
  -19.5751  -26.6383   21.5208 C   0  0  0  0  0  0
  -18.1935  -26.7921   22.1625 C   0  0  0  0  0  0
  -19.1544  -28.8846   23.2884 C   0  0  0  0  0  0
  -18.9472  -30.1443   23.8909 C   0  0  0  0  0  0
  -17.6473  -30.6580   24.0570 C   0  0  0  0  0  0
  -25.9044  -34.9467   23.5123 C   0  0  0  0  0  0
  -16.5363  -29.9083   23.6320 C   0  0  0  0  0  0
  -16.7282  -28.6495   23.0345 C   0  0  0  0  0  0
  -26.4481  -31.6609   25.0731 C   0  0  0  0  0  0
  -25.3732  -31.3716   26.1475 C   0  0  0  0  0  0
  -27.0324  -30.3057   24.6127 C   0  0  0  0  0  0
  -27.6061  -32.4336   25.7481 C   0  0  0  0  0  0
  -27.5579  -37.1807   24.8469 C   0  0  0  0  0  0
  -21.4169  -29.3052   22.3686 N   0  0  0  0  0  0
  -26.4292  -37.3794   23.9413 N   0  0  0  0  0  0
  -24.6808  -31.0692   22.0956 N   0  0  0  0  0  0
  -23.4195  -28.8198   23.3025 O   0  0  0  0  0  0
  -28.3940  -26.5890   20.1217 O   0  0  0  0  0  0
  -26.5617  -34.8930   22.4693 O   0  0  0  0  0  0
  -23.5399  -32.1411   23.7407 O   0  0  0  0  0  0
  -28.7667  -22.6793   16.9605 C   0  0  0  0  0  0
  -28.3032  -24.0074   16.9268 C   0  0  0  0  0  0
  -28.9671  -22.7831   19.2761 C   0  0  0  0  0  0
  -28.5058  -24.1673   19.2368 C   0  0  0  0  0  0
  -27.9253  -24.6730   15.6220 C   0  0  0  0  0  0
  -29.5260  -21.9880   20.4903 C   0  0  0  0  0  0
  -28.3285  -25.1486   20.4300 C   0  0  0  0  0  0
  -28.9798  -20.5253   20.8110 C   0  0  0  0  0  0
  -29.2773  -19.2604   19.8989 C   0  0  0  0  0  0
  -30.4160  -18.2202   20.2541 C   0  0  0  0  0  0
  -30.1901  -17.0584   21.3041 C   0  0  0  0  0  0
  -29.1024  -22.0800   18.1222 N   0  0  0  0  0  0
  -28.1738  -24.7424   18.0511 N   0  0  0  0  0  0
  -29.8392  -15.6750   20.8457 N   0  0  0  0  0  0
  -31.4739  -12.5275   19.1239 H   0  0  0  0  0  0
  -30.3755  -11.3957   19.8720 H   0  0  0  0  0  0
  -29.7633  -11.7568   17.4629 H   0  0  0  0  0  0
  -29.6413  -13.4783   17.7285 H   0  0  0  0  0  0
  -27.8633  -11.2903   18.8595 H   0  0  0  0  0  0
  -27.3668  -12.5760   17.7900 H   0  0  0  0  0  0
  -27.6663  -14.2490   19.5190 H   0  0  0  0  0  0
  -28.7130  -12.0459   21.3665 H   0  0  0  0  0  0
  -28.4488  -13.7017   21.8332 H   0  0  0  0  0  0
  -25.2747   -9.5699   22.4764 H   0  0  0  0  0  0
  -24.0024   -7.4626   22.7460 H   0  0  0  0  0  0
  -21.0848   -8.8733   19.8946 H   0  0  0  0  0  0
  -22.3666  -10.9656   19.6170 H   0  0  0  0  0  0
  -21.1985   -7.6135   23.9712 H   0  0  0  0  0  0
  -21.1502   -6.0519   25.9083 H   0  0  0  0  0  0
  -22.0592   -2.7597   23.2863 H   0  0  0  0  0  0
  -22.4086  -11.9886   22.4843 H   0  0  0  0  0  0
  -21.1085  -13.1222   22.2612 H   0  0  0  0  0  0
  -24.6617  -15.8443   20.5357 H   0  0  0  0  0  0
  -26.2786  -15.6333   20.0955 H   0  0  0  0  0  0
  -26.7158  -32.5495   23.1132 H   0  0  0  0  0  0
  -25.0058  -33.9747   25.0448 H   0  0  0  0  0  0
  -22.7047  -31.3061   21.4008 H   0  0  0  0  0  0
  -23.3746  -35.9635   23.3329 H   0  0  0  0  0  0
  -24.3572  -36.8904   22.2054 H   0  0  0  0  0  0
  -23.7234  -37.6514   23.6647 H   0  0  0  0  0  0
  -26.0746  -31.5693   20.5933 H   0  0  0  0  0  0
  -26.8320  -30.8605   21.9899 H   0  0  0  0  0  0
  -28.1160  -29.0489   21.1497 H   0  0  0  0  0  0
  -26.0146  -25.9138   19.0583 H   0  0  0  0  0  0
  -23.9689  -27.2708   19.0603 H   0  0  0  0  0  0
  -23.7526  -30.5930   19.4052 H   0  0  0  0  0  0
  -22.7446  -29.2509   19.8583 H   0  0  0  0  0  0
  -25.1285  -36.1971   25.0842 H   0  0  0  0  0  0
  -20.9995  -28.3263   24.1402 H   0  0  0  0  0  0
  -20.5669  -26.2301   23.3619 H   0  0  0  0  0  0
  -21.6649  -26.7435   22.1209 H   0  0  0  0  0  0
  -19.6915  -25.6293   21.1241 H   0  0  0  0  0  0
  -19.6684  -27.3192   20.6738 H   0  0  0  0  0  0
  -17.4205  -26.6685   21.4023 H   0  0  0  0  0  0
  -18.0324  -26.0050   22.9007 H   0  0  0  0  0  0
  -19.7950  -30.7246   24.2288 H   0  0  0  0  0  0
  -17.5034  -31.6261   24.5172 H   0  0  0  0  0  0
  -15.5363  -30.2995   23.7629 H   0  0  0  0  0  0
  -15.8684  -28.0825   22.7045 H   0  0  0  0  0  0
  -24.5883  -30.7093   25.7798 H   0  0  0  0  0  0
  -24.8940  -32.2866   26.4965 H   0  0  0  0  0  0
  -25.8072  -30.8841   27.0216 H   0  0  0  0  0  0
  -26.2870  -29.6801   24.1199 H   0  0  0  0  0  0
  -27.4123  -29.7319   25.4590 H   0  0  0  0  0  0
  -27.8692  -30.4394   23.9269 H   0  0  0  0  0  0
  -27.2697  -33.3636   26.2075 H   0  0  0  0  0  0
  -28.3846  -32.6907   25.0283 H   0  0  0  0  0  0
  -28.0757  -31.8453   26.5374 H   0  0  0  0  0  0
  -28.2616  -38.0087   24.7518 H   0  0  0  0  0  0
  -28.1061  -36.2627   24.6298 H   0  0  0  0  0  0
  -27.2305  -37.1469   25.8875 H   0  0  0  0  0  0
  -20.9336  -29.8785   21.6914 H   0  0  0  0  0  0
  -26.0187  -38.2880   24.1394 H   0  0  0  0  0  0
  -28.8772  -22.0995   16.0559 H   0  0  0  0  0  0
  -28.0154  -25.7574   15.6859 H   0  0  0  0  0  0
  -26.8964  -24.4256   15.3574 H   0  0  0  0  0  0
  -28.5773  -24.3237   14.8211 H   0  0  0  0  0  0
  -29.3639  -22.5953   21.3816 H   0  0  0  0  0  0
  -30.6091  -21.9375   20.3759 H   0  0  0  0  0  0
  -29.1266  -24.9475   21.1430 H   0  0  0  0  0  0
  -27.3999  -24.9130   20.9532 H   0  0  0  0  0  0
  -27.8970  -20.6187   20.8918 H   0  0  0  0  0  0
  -29.3076  -20.2707   21.8193 H   0  0  0  0  0  0
  -29.4842  -19.6212   18.8930 H   0  0  0  0  0  0
  -28.3482  -18.6992   19.7945 H   0  0  0  0  0  0
  -31.2689  -18.8092   20.5922 H   0  0  0  0  0  0
  -30.7626  -17.7615   19.3272 H   0  0  0  0  0  0
  -29.4354  -17.3754   22.0242 H   0  0  0  0  0  0
  -31.1045  -16.9574   21.8918 H   0  0  0  0  0  0
  -28.8679  -15.4287   20.9653 H   0  0  0  0  0  0
  1 25  1  0  0  0
  1 30  2  0  0  0
  1 84  1  0  0  0
  2  3  1  0  0  0
  2 25  1  0  0  0
  2 85  1  0  0  0
  2 86  1  0  0  0
  3  4  1  0  0  0
  3 87  1  0  0  0
  3 88  1  0  0  0
  4  5  1  0  0  0
  4 89  1  0  0  0
  4 90  1  0  0  0
  5  6  1  0  0  0
  5 26  1  0  0  0
  5 91  1  0  0  0
  6 25  1  0  0  0
  6 92  1  0  0  0
  6 93  1  0  0  0
  7  8  2  0  0  0
  7 26  1  0  0  0
  7 29  1  0  0  0
  8  9  1  0  0  0
  8 22  1  0  0  0
  9 10  1  0  0  0
  9 27  2  0  0  0
 10 11  2  0  0  0
 10 15  1  0  0  0
 11 12  1  0  0  0
 11 94  1  0  0  0
 12 13  2  0  0  0
 12 95  1  0  0  0
 13 14  1  0  0  0
 13 31  1  0  0  0
 14 15  2  0  0  0
 14 96  1  0  0  0
 15 97  1  0  0  0
 16 17  2  0  0  0
 16 21  1  0  0  0
 16 31  1  0  0  0
 17 18  1  0  0  0
 17 98  1  0  0  0
 18 19  2  0  0  0
 18 99  1  0  0  0
 19 20  1  0  0  0
 19 24  1  0  0  0
 20 21  2  0  0  0
 20100  1  0  0  0
 21 23  1  0  0  0
 22 28  1  0  0  0
 22 32  2  0  0  0
 26 27  1  0  0  0
 28101  1  0  0  0
 28102  1  0  0  0
 29103  1  0  0  0
 29104  1  0  0  0
 33 34  1  0  0  0
 33 66  1  0  0  0
 33 70  2  0  0  0
 34 36  1  0  0  0
 34 59  1  0  0  0
 34105  1  0  0  0
 35 44  2  0  0  0
 35 45  1  0  0  0
 35 68  1  0  0  0
 36 56  1  0  0  0
 36106  1  0  0  0
 37 39  1  0  0  0
 37 47  1  0  0  0
 37 66  1  0  0  0
 37107  1  0  0  0
 38 43  2  0  0  0
 38 46  1  0  0  0
 38 47  1  0  0  0
 39 64  1  0  0  0
 39 67  2  0  0  0
 40 52  1  0  0  0
 40 53  2  0  0  0
 40 58  1  0  0  0
 41108  1  0  0  0
 41109  1  0  0  0
 41110  1  0  0  0
 41 48  1  0  0  0
 42 43  1  0  0  0
 42 66  1  0  0  0
 42111  1  0  0  0
 42112  1  0  0  0
 43 44  1  0  0  0
 44113  1  0  0  0
 45 46  2  0  0  0
 45114  1  0  0  0
 46115  1  0  0  0
 47116  1  0  0  0
 47117  1  0  0  0
 48 56  1  0  0  0
 48 65  1  0  0  0
 48118  1  0  0  0
 49 50  1  0  0  0
 49 53  1  0  0  0
 49 64  1  0  0  0
 49119  1  0  0  0
 50 51  1  0  0  0
 50120  1  0  0  0
 50121  1  0  0  0
 51 52  1  0  0  0
 51122  1  0  0  0
 51123  1  0  0  0
 52124  1  0  0  0
 52125  1  0  0  0
 53 54  1  0  0  0
 54 55  2  0  0  0
 54126  1  0  0  0
 55 57  1  0  0  0
 55127  1  0  0  0
 56 69  2  0  0  0
 57 58  2  0  0  0
 57128  1  0  0  0
 58129  1  0  0  0
 59 60  1  0  0  0
 59 61  1  0  0  0
 59 62  1  0  0  0
 60130  1  0  0  0
 60131  1  0  0  0
 60132  1  0  0  0
 61133  1  0  0  0
 61134  1  0  0  0
 61135  1  0  0  0
 62136  1  0  0  0
 62137  1  0  0  0
 62138  1  0  0  0
 63 65  1  0  0  0
 63139  1  0  0  0
 63140  1  0  0  0
 63141  1  0  0  0
 64142  1  0  0  0
 65143  1  0  0  0
 68 77  1  0  0  0
 71 72  2  0  0  0
 71 82  1  0  0  0
 71144  1  0  0  0
 72 75  1  0  0  0
 72 83  1  0  0  0
 73 74  1  0  0  0
 73 76  1  0  0  0
 73 82  2  0  0  0
 74 77  1  0  0  0
 74 83  2  0  0  0
 75145  1  0  0  0
 75146  1  0  0  0
 75147  1  0  0  0
 76 78  1  0  0  0
 76148  1  0  0  0
 76149  1  0  0  0
 77150  1  0  0  0
 77151  1  0  0  0
 78 79  1  0  0  0
 78152  1  0  0  0
 78153  1  0  0  0
 79 80  1  0  0  0
 79154  1  0  0  0
 79155  1  0  0  0
 80 81  1  0  0  0
 80156  1  0  0  0
 80157  1  0  0  0
 81 84  1  0  0  0
 81158  1  0  0  0
 81159  1  0  0  0
 84160  1  0  0  0
M  ISO  4   1 100  68 101  77 101  84 100
M  END
> <chiral flag>
0

> <version>
0

> <s_m_source_file>
/data/baiqing/PycharmProjects/Reinvent-master-3.2/result/LINK_invent/BTK/process_docking_weight1_custom_sum_contain_oxygen_bond_distance_aromatic_linkinvent_7_9_3/rearranged_h_0039.sdf

> <i_m_source_file_index>
52

> <r_mmod_Potential_Energy-OPLS-2005>
145.376403808594

> <r_mmod_Stretch_Energy-OPLS-2005>
73.9668045043945

> <r_mmod_Bend_Energy-OPLS-2005>
164.24528503418

> <r_mmod_Torsional_Energy-OPLS-2005>
238.774261474609

> <r_mmod_Improper_Torsional_Energy-OPLS-2005>
4.45193862915039

> <r_mmod_Van_der_Waal_Energy-OPLS-2005>
139.971588134766

> <r_mmod_Electrostatic_Energy-OPLS-2005>
-289.514892578125

> <r_mmod_Solvation_Energy-OPLS-2005>
-223.290542602539

> <b_mmod_Minimization_Converged-OPLS-2005>
0

> <r_mmod_RMS_Derivative-OPLS-2005>
2.20211601257324

$$$$
53
                    3D
 Structure written by MMmdl.
169178  0  0  1  0            999 V2000
  -30.6496  -14.5863   20.5385 C   0  0  0  0  0  0
  -30.4326  -12.3737   19.4299 C   0  0  0  0  0  0
  -29.4985  -12.5045   18.2086 C   0  0  0  0  0  0
  -28.0222  -12.3472   18.6265 C   0  0  0  0  0  0
  -27.6522  -13.2119   19.8607 C   0  0  2  0  0  0
  -28.6975  -13.0486   20.9844 C   0  0  0  0  0  0
  -25.2564  -13.8165   20.5685 C   0  0  0  0  0  0
  -24.1829  -13.0438   20.9193 C   0  0  0  0  0  0
  -24.6389  -11.6907   20.8747 C   0  0  0  0  0  0
  -23.9059  -10.4293   21.0421 C   0  0  0  0  0  0
  -24.3614   -9.4206   21.9194 C   0  0  0  0  0  0
  -23.6291   -8.2241   22.0760 C   0  0  0  0  0  0
  -22.4274   -8.0280   21.3546 C   0  0  0  0  0  0
  -21.9908   -9.0258   20.4650 C   0  0  0  0  0  0
  -22.7238  -10.2138   20.3065 C   0  0  0  0  0  0
  -21.6851   -6.0739   22.5284 C   0  0  0  0  0  0
  -21.4012   -6.5646   23.8215 C   0  0  0  0  0  0
  -21.3655   -5.6800   24.9177 C   0  0  0  0  0  0
  -21.6044   -4.3062   24.7232 C   0  0  0  0  0  0
  -21.8816   -3.8151   23.4353 C   0  0  0  0  0  0
  -21.9191   -4.6966   22.3407 C   0  0  0  0  0  0
  -22.7854  -13.5236   21.1860 C   0  0  0  0  0  0
  -22.1662   -4.2152   21.0983 F   0  0  0  0  0  0
  -21.5625   -3.4543   25.7741 F   0  0  0  0  0  0
  -30.0108  -13.3848   20.4141 N   0  0  0  0  0  0
  -26.2982  -12.9335   20.3312 N   0  0  0  0  0  0
  -25.9310  -11.6495   20.5753 N   0  0  0  0  0  0
  -22.0488  -12.8230   22.0408 N   0  0  0  0  0  0
  -25.4284  -15.1886   20.4098 N   0  0  0  0  0  0
  -31.8202  -14.7440   20.1811 O   0  0  0  0  0  0
  -21.6635   -6.8882   21.4244 O   0  0  0  0  0  0
  -22.3550  -14.5549   20.6710 O   0  0  0  0  0  0
  -24.6220  -31.8623   23.2041 C   0  0  0  0  0  0
  -25.9082  -32.4791   23.8362 C   0  0  1  0  0  0
  -27.2293  -27.3562   20.1140 C   0  0  0  0  0  0
  -25.5908  -33.8594   24.2286 N   0  0  0  0  0  0
  -23.4138  -30.4852   21.5459 C   0  0  2  0  0  0
  -24.8597  -28.9411   20.1139 C   0  0  0  0  0  0
  -22.7445  -29.4638   22.4949 C   0  0  0  0  0  0
  -18.0279  -28.1368   22.8494 C   0  0  0  0  0  0
  -24.1490  -36.7312   23.2635 C   0  0  0  0  0  0
  -25.9498  -30.8062   21.3671 C   0  0  0  0  0  0
  -26.0259  -29.4359   20.7103 C   0  0  0  0  0  0
  -27.2145  -28.6556   20.6966 C   0  0  0  0  0  0
  -26.0390  -26.8969   19.5079 C   0  0  0  0  0  0
  -24.8659  -27.6757   19.5051 C   0  0  0  0  0  0
  -23.6258  -29.8167   20.1621 C   0  0  0  0  0  0
  -25.4111  -36.3092   24.0321 C   0  0  1  0  0  0
  -20.5876  -28.3677   23.1297 C   0  0  2  0  0  0
  -20.6770  -26.9407   22.5414 C   0  0  0  0  0  0
  -19.5750  -26.6382   21.5213 C   0  0  0  0  0  0
  -18.1928  -26.7918   22.1625 C   0  0  0  0  0  0
  -19.1528  -28.8836   23.2892 C   0  0  0  0  0  0
  -18.9457  -30.1442   23.8901 C   0  0  0  0  0  0
  -17.6460  -30.6579   24.0562 C   0  0  0  0  0  0
  -25.9043  -34.9462   23.5105 C   0  0  0  0  0  0
  -16.5347  -29.9082   23.6329 C   0  0  0  0  0  0
  -16.7266  -28.6494   23.0354 C   0  0  0  0  0  0
  -26.4483  -31.6586   25.0720 C   0  0  0  0  0  0
  -25.3726  -31.3711   26.1452 C   0  0  0  0  0  0
  -27.0324  -30.3013   24.6159 C   0  0  0  0  0  0
  -27.6046  -32.4318   25.7486 C   0  0  0  0  0  0
  -27.5582  -37.1799   24.8457 C   0  0  0  0  0  0
  -21.4159  -29.3041   22.3690 N   0  0  0  0  0  0
  -26.4291  -37.3783   23.9405 N   0  0  0  0  0  0
  -24.6803  -31.0671   22.0965 N   0  0  0  0  0  0
  -23.4188  -28.8185   23.3016 O   0  0  0  0  0  0
  -28.3769  -26.5629   20.1395 O   0  0  0  0  0  0
  -26.5621  -34.8928   22.4678 O   0  0  0  0  0  0
  -23.5394  -32.1400   23.7398 O   0  0  0  0  0  0
  -30.6033  -18.6005   19.4857 C   0  0  0  0  0  0
  -30.4808  -19.9976   19.1531 C   0  0  0  0  0  0
  -29.7692  -20.7416   20.0784 C   0  0  0  0  0  0
  -30.0695  -18.2475   20.6969 C   0  0  0  0  0  0
  -29.3525  -22.9991   21.3997 C   0  0  0  0  0  0
  -28.3758  -22.7704   19.1224 C   0  0  0  0  0  0
  -29.3304  -24.5580   21.2556 C   0  0  0  0  0  0
  -28.3845  -24.3251   18.9453 C   0  0  0  0  0  0
  -29.5206  -22.2717   20.0413 C   0  0  2  0  0  0
  -28.2487  -25.1059   20.2824 C   0  0  2  0  0  0
  -33.5074  -20.0863   18.8402 C   0  0  0  0  0  0
  -33.1903  -21.6856   16.9113 C   0  0  0  0  0  0
  -31.1449  -20.5700   17.9280 C   0  0  0  0  0  0
  -30.3040  -16.9509   21.4888 C   0  0  0  0  0  0
  -32.5668  -21.1200   18.1952 C   0  0  0  0  0  0
  -29.8783  -15.6327   20.9405 N   0  0  0  0  0  0
  -29.2290  -19.6563   21.3678 S   0  0  0  0  0  0
  -31.4731  -12.5005   19.1252 H   0  0  0  0  0  0
  -30.3659  -11.3740   19.8620 H   0  0  0  0  0  0
  -29.7549  -11.7577   17.4557 H   0  0  0  0  0  0
  -29.6452  -13.4771   17.7357 H   0  0  0  0  0  0
  -27.8552  -11.2939   18.8528 H   0  0  0  0  0  0
  -27.3655  -12.5859   17.7889 H   0  0  0  0  0  0
  -27.6770  -14.2505   19.5299 H   0  0  0  0  0  0
  -28.7035  -12.0233   21.3582 H   0  0  0  0  0  0
  -28.4506  -13.6748   21.8430 H   0  0  0  0  0  0
  -25.2756   -9.5685   22.4776 H   0  0  0  0  0  0
  -23.9998   -7.4634   22.7482 H   0  0  0  0  0  0
  -21.0838   -8.8783   19.8957 H   0  0  0  0  0  0
  -22.3699  -10.9682   19.6179 H   0  0  0  0  0  0
  -21.2007   -7.6156   23.9719 H   0  0  0  0  0  0
  -21.1480   -6.0531   25.9081 H   0  0  0  0  0  0
  -22.0598   -2.7613   23.2852 H   0  0  0  0  0  0
  -22.4087  -11.9880   22.4791 H   0  0  0  0  0  0
  -21.1112  -13.1269   22.2619 H   0  0  0  0  0  0
  -24.6619  -15.8435   20.5195 H   0  0  0  0  0  0
  -26.2759  -15.6269   20.0723 H   0  0  0  0  0  0
  -26.7147  -32.5474   23.1107 H   0  0  0  0  0  0
  -25.0005  -33.9735   25.0401 H   0  0  0  0  0  0
  -22.7055  -31.3036   21.4033 H   0  0  0  0  0  0
  -23.3746  -35.9653   23.3301 H   0  0  0  0  0  0
  -24.3574  -36.8951   22.2052 H   0  0  0  0  0  0
  -23.7269  -37.6521   23.6668 H   0  0  0  0  0  0
  -26.0736  -31.5720   20.6000 H   0  0  0  0  0  0
  -26.8317  -30.8558   21.9940 H   0  0  0  0  0  0
  -28.1139  -29.0349   21.1618 H   0  0  0  0  0  0
  -25.9988  -25.9268   19.0375 H   0  0  0  0  0  0
  -23.9685  -27.2882   19.0416 H   0  0  0  0  0  0
  -23.7395  -30.5913   19.4027 H   0  0  0  0  0  0
  -22.7472  -29.2411   19.8656 H   0  0  0  0  0  0
  -25.1299  -36.1933   25.0812 H   0  0  0  0  0  0
  -20.9967  -28.3252   24.1418 H   0  0  0  0  0  0
  -20.5677  -26.2285   23.3607 H   0  0  0  0  0  0
  -21.6638  -26.7437   22.1209 H   0  0  0  0  0  0
  -19.6915  -25.6299   21.1236 H   0  0  0  0  0  0
  -19.6692  -27.3194   20.6746 H   0  0  0  0  0  0
  -17.4203  -26.6673   21.4020 H   0  0  0  0  0  0
  -18.0318  -26.0050   22.9008 H   0  0  0  0  0  0
  -19.7933  -30.7252   24.2276 H   0  0  0  0  0  0
  -17.5019  -31.6264   24.5162 H   0  0  0  0  0  0
  -15.5349  -30.2987   23.7651 H   0  0  0  0  0  0
  -15.8669  -28.0817   22.7066 H   0  0  0  0  0  0
  -24.5913  -30.7039   25.7792 H   0  0  0  0  0  0
  -24.8887  -32.2866   26.4860 H   0  0  0  0  0  0
  -25.8059  -30.8914   27.0237 H   0  0  0  0  0  0
  -26.2889  -29.6753   24.1204 H   0  0  0  0  0  0
  -27.4056  -29.7278   25.4658 H   0  0  0  0  0  0
  -27.8748  -30.4310   23.9358 H   0  0  0  0  0  0
  -27.2660  -33.3627   26.2044 H   0  0  0  0  0  0
  -28.3855  -32.6858   25.0307 H   0  0  0  0  0  0
  -28.0708  -31.8454   26.5413 H   0  0  0  0  0  0
  -28.2579  -38.0115   24.7517 H   0  0  0  0  0  0
  -28.1099  -36.2643   24.6262 H   0  0  0  0  0  0
  -27.2297  -37.1429   25.8859 H   0  0  0  0  0  0
  -20.9317  -29.8759   21.6909 H   0  0  0  0  0  0
  -26.0174  -38.2857   24.1420 H   0  0  0  0  0  0
  -31.1771  -17.9247   18.8671 H   0  0  0  0  0  0
  -28.4358  -22.6627   21.8872 H   0  0  0  0  0  0
  -30.1708  -22.7211   22.0646 H   0  0  0  0  0  0
  -28.4694  -22.3103   18.1387 H   0  0  0  0  0  0
  -27.4130  -22.4430   19.5165 H   0  0  0  0  0  0
  -30.3120  -24.8898   20.9156 H   0  0  0  0  0  0
  -29.1896  -25.0079   22.2393 H   0  0  0  0  0  0
  -27.5940  -24.6108   18.2524 H   0  0  0  0  0  0
  -29.3163  -24.6202   18.4610 H   0  0  0  0  0  0
  -30.4322  -22.6966   19.6213 H   0  0  0  0  0  0
  -27.2815  -24.8676   20.7279 H   0  0  0  0  0  0
  -34.5085  -20.4956   18.9788 H   0  0  0  0  0  0
  -33.5964  -19.1906   18.2251 H   0  0  0  0  0  0
  -33.1545  -19.7804   19.8258 H   0  0  0  0  0  0
  -34.1722  -22.1179   17.1070 H   0  0  0  0  0  0
  -32.5697  -22.4730   16.4816 H   0  0  0  0  0  0
  -33.3151  -20.9100   16.1550 H   0  0  0  0  0  0
  -30.5287  -21.3595   17.4988 H   0  0  0  0  0  0
  -31.1998  -19.8036   17.1522 H   0  0  0  0  0  0
  -29.8126  -17.0487   22.4574 H   0  0  0  0  0  0
  -31.3666  -16.8922   21.7314 H   0  0  0  0  0  0
  -32.4784  -21.9479   18.8994 H   0  0  0  0  0  0
  -28.9100  -15.3994   21.0996 H   0  0  0  0  0  0
  1 25  1  0  0  0
  1 30  2  0  0  0
  1 86  1  0  0  0
  2  3  1  0  0  0
  2 25  1  0  0  0
  2 88  1  0  0  0
  2 89  1  0  0  0
  3  4  1  0  0  0
  3 90  1  0  0  0
  3 91  1  0  0  0
  4  5  1  0  0  0
  4 92  1  0  0  0
  4 93  1  0  0  0
  5  6  1  0  0  0
  5 26  1  0  0  0
  5 94  1  0  0  0
  6 25  1  0  0  0
  6 95  1  0  0  0
  6 96  1  0  0  0
  7  8  2  0  0  0
  7 26  1  0  0  0
  7 29  1  0  0  0
  8  9  1  0  0  0
  8 22  1  0  0  0
  9 10  1  0  0  0
  9 27  2  0  0  0
 10 11  2  0  0  0
 10 15  1  0  0  0
 11 12  1  0  0  0
 11 97  1  0  0  0
 12 13  2  0  0  0
 12 98  1  0  0  0
 13 14  1  0  0  0
 13 31  1  0  0  0
 14 15  2  0  0  0
 14 99  1  0  0  0
 15100  1  0  0  0
 16 17  2  0  0  0
 16 21  1  0  0  0
 16 31  1  0  0  0
 17 18  1  0  0  0
 17101  1  0  0  0
 18 19  2  0  0  0
 18102  1  0  0  0
 19 20  1  0  0  0
 19 24  1  0  0  0
 20 21  2  0  0  0
 20103  1  0  0  0
 21 23  1  0  0  0
 22 28  1  0  0  0
 22 32  2  0  0  0
 26 27  1  0  0  0
 28104  1  0  0  0
 28105  1  0  0  0
 29106  1  0  0  0
 29107  1  0  0  0
 33 34  1  0  0  0
 33 66  1  0  0  0
 33 70  2  0  0  0
 34 36  1  0  0  0
 34 59  1  0  0  0
 34108  1  0  0  0
 35 44  2  0  0  0
 35 45  1  0  0  0
 35 68  1  0  0  0
 36 56  1  0  0  0
 36109  1  0  0  0
 37 39  1  0  0  0
 37 47  1  0  0  0
 37 66  1  0  0  0
 37110  1  0  0  0
 38 43  2  0  0  0
 38 46  1  0  0  0
 38 47  1  0  0  0
 39 64  1  0  0  0
 39 67  2  0  0  0
 40 52  1  0  0  0
 40 53  2  0  0  0
 40 58  1  0  0  0
 41111  1  0  0  0
 41112  1  0  0  0
 41113  1  0  0  0
 41 48  1  0  0  0
 42 43  1  0  0  0
 42 66  1  0  0  0
 42114  1  0  0  0
 42115  1  0  0  0
 43 44  1  0  0  0
 44116  1  0  0  0
 45 46  2  0  0  0
 45117  1  0  0  0
 46118  1  0  0  0
 47119  1  0  0  0
 47120  1  0  0  0
 48 56  1  0  0  0
 48 65  1  0  0  0
 48121  1  0  0  0
 49 50  1  0  0  0
 49 53  1  0  0  0
 49 64  1  0  0  0
 49122  1  0  0  0
 50 51  1  0  0  0
 50123  1  0  0  0
 50124  1  0  0  0
 51 52  1  0  0  0
 51125  1  0  0  0
 51126  1  0  0  0
 52127  1  0  0  0
 52128  1  0  0  0
 53 54  1  0  0  0
 54 55  2  0  0  0
 54129  1  0  0  0
 55 57  1  0  0  0
 55130  1  0  0  0
 56 69  2  0  0  0
 57 58  2  0  0  0
 57131  1  0  0  0
 58132  1  0  0  0
 59 60  1  0  0  0
 59 61  1  0  0  0
 59 62  1  0  0  0
 60133  1  0  0  0
 60134  1  0  0  0
 60135  1  0  0  0
 61136  1  0  0  0
 61137  1  0  0  0
 61138  1  0  0  0
 62139  1  0  0  0
 62140  1  0  0  0
 62141  1  0  0  0
 63 65  1  0  0  0
 63142  1  0  0  0
 63143  1  0  0  0
 63144  1  0  0  0
 64145  1  0  0  0
 65146  1  0  0  0
 68 80  1  0  0  0
 71 72  1  0  0  0
 71 74  2  0  0  0
 71147  1  0  0  0
 72 73  2  0  0  0
 72 83  1  0  0  0
 73 87  1  0  0  0
 73 79  1  0  0  0
 74 84  1  0  0  0
 74 87  1  0  0  0
 75 77  1  0  0  0
 75 79  1  0  0  0
 75148  1  0  0  0
 75149  1  0  0  0
 76 78  1  0  0  0
 76 79  1  0  0  0
 76150  1  0  0  0
 76151  1  0  0  0
 77 80  1  0  0  0
 77152  1  0  0  0
 77153  1  0  0  0
 78 80  1  0  0  0
 78154  1  0  0  0
 78155  1  0  0  0
 79156  1  0  0  0
 80157  1  0  0  0
 81158  1  0  0  0
 81159  1  0  0  0
 81160  1  0  0  0
 81 85  1  0  0  0
 82 85  1  0  0  0
 82161  1  0  0  0
 82162  1  0  0  0
 82163  1  0  0  0
 83 85  1  0  0  0
 83164  1  0  0  0
 83165  1  0  0  0
 84 86  1  0  0  0
 84166  1  0  0  0
 84167  1  0  0  0
 85168  1  0  0  0
 86169  1  0  0  0
M  ISO  4   1 100  68 101  80 101  86 100
M  END
> <chiral flag>
0

> <version>
0

> <s_m_source_file>
/data/baiqing/PycharmProjects/Reinvent-master-3.2/result/LINK_invent/BTK/process_docking_weight1_custom_sum_contain_oxygen_bond_distance_aromatic_linkinvent_7_9_3/rearranged_h_0039.sdf

> <i_m_source_file_index>
53

> <r_mmod_Potential_Energy-OPLS-2005>
-38.3224105834961

> <r_mmod_Stretch_Energy-OPLS-2005>
58.2681884765625

> <r_mmod_Bend_Energy-OPLS-2005>
132.201934814453

> <r_mmod_Torsional_Energy-OPLS-2005>
213.781539916992

> <r_mmod_Improper_Torsional_Energy-OPLS-2005>
4.74450731277466

> <r_mmod_Van_der_Waal_Energy-OPLS-2005>
117.65210723877

> <r_mmod_Electrostatic_Energy-OPLS-2005>
-402.917816162109

> <r_mmod_Solvation_Energy-OPLS-2005>
-195.277130126953

> <b_mmod_Minimization_Converged-OPLS-2005>
0

> <r_mmod_RMS_Derivative-OPLS-2005>
1.08976590633392

$$$$
54
                    3D
 Structure written by MMmdl.
158166  0  0  1  0            999 V2000
  -30.7284  -14.5724   20.5207 C   0  0  0  0  0  0
  -30.4043  -12.3662   19.4547 C   0  0  0  0  0  0
  -29.5179  -12.5037   18.1917 C   0  0  0  0  0  0
  -28.0361  -12.8366   18.4969 C   0  0  0  0  0  0
  -27.7065  -12.7397   19.9854 C   0  0  2  0  0  0
  -28.7106  -13.1894   21.0460 C   0  0  0  0  0  0
  -25.3086  -13.7476   20.5516 C   0  0  0  0  0  0
  -24.1849  -13.0378   20.9095 C   0  0  0  0  0  0
  -24.5696  -11.6670   20.8919 C   0  0  0  0  0  0
  -23.8388  -10.4224   21.0632 C   0  0  0  0  0  0
  -24.3184   -9.4166   21.9313 C   0  0  0  0  0  0
  -23.6064   -8.2112   22.0777 C   0  0  0  0  0  0
  -22.4071   -8.0114   21.3533 C   0  0  0  0  0  0
  -21.9576   -9.0042   20.4647 C   0  0  0  0  0  0
  -22.6698  -10.2029   20.3165 C   0  0  0  0  0  0
  -21.6792   -6.0621   22.5295 C   0  0  0  0  0  0
  -21.3964   -6.5569   23.8213 C   0  0  0  0  0  0
  -21.3657   -5.6738   24.9189 C   0  0  0  0  0  0
  -21.6050   -4.3000   24.7245 C   0  0  0  0  0  0
  -21.8836   -3.8076   23.4373 C   0  0  0  0  0  0
  -21.9188   -4.6865   22.3421 C   0  0  0  0  0  0
  -22.8007  -13.5563   21.1771 C   0  0  0  0  0  0
  -22.1642   -4.2058   21.0990 F   0  0  0  0  0  0
  -21.5663   -3.4492   25.7763 F   0  0  0  0  0  0
  -30.0251  -13.4155   20.4200 N   0  0  0  0  0  0
  -26.3018  -12.7794   20.3653 N   0  0  0  0  0  0
  -25.8330  -11.5477   20.6036 N   0  0  0  0  0  0
  -22.0481  -12.8679   22.0311 N   0  0  0  0  0  0
  -25.5491  -15.1066   20.3691 N   0  0  0  0  0  0
  -31.8719  -14.6971   20.0824 O   0  0  0  0  0  0
  -21.6534   -6.8689   21.4226 O   0  0  0  0  0  0
  -22.3903  -14.5919   20.6578 O   0  0  0  0  0  0
  -24.6151  -31.8696   23.2099 C   0  0  0  0  0  0
  -25.9051  -32.4836   23.8406 C   0  0  1  0  0  0
  -27.2342  -27.4382   20.0983 C   0  0  0  0  0  0
  -25.5928  -33.8635   24.2342 N   0  0  0  0  0  0
  -23.4030  -30.4927   21.5514 C   0  0  2  0  0  0
  -24.8511  -28.9541   20.1194 C   0  0  0  0  0  0
  -22.7415  -29.4665   22.4993 C   0  0  0  0  0  0
  -18.0278  -28.1366   22.8510 C   0  0  0  0  0  0
  -24.1484  -36.7313   23.2633 C   0  0  0  0  0  0
  -25.9313  -30.8330   21.3658 C   0  0  0  0  0  0
  -26.0090  -29.4636   20.7216 C   0  0  0  0  0  0
  -27.2047  -28.7092   20.7186 C   0  0  0  0  0  0
  -26.0666  -26.9449   19.4846 C   0  0  0  0  0  0
  -24.8722  -27.6910   19.5016 C   0  0  0  0  0  0
  -23.6138  -29.8224   20.1671 C   0  0  0  0  0  0
  -25.4103  -36.3123   24.0343 C   0  0  1  0  0  0
  -20.5872  -28.3658   23.1325 C   0  0  2  0  0  0
  -20.6761  -26.9396   22.5418 C   0  0  0  0  0  0
  -19.5730  -26.6376   21.5223 C   0  0  0  0  0  0
  -18.1909  -26.7918   22.1632 C   0  0  0  0  0  0
  -19.1530  -28.8832   23.2920 C   0  0  0  0  0  0
  -18.9455  -30.1446   23.8922 C   0  0  0  0  0  0
  -17.6453  -30.6581   24.0569 C   0  0  0  0  0  0
  -25.9038  -34.9489   23.5133 C   0  0  0  0  0  0
  -16.5345  -29.9082   23.6321 C   0  0  0  0  0  0
  -16.7268  -28.6497   23.0351 C   0  0  0  0  0  0
  -26.4468  -31.6612   25.0734 C   0  0  0  0  0  0
  -25.3727  -31.3730   26.1481 C   0  0  0  0  0  0
  -27.0286  -30.3052   24.6104 C   0  0  0  0  0  0
  -27.6051  -32.4317   25.7498 C   0  0  0  0  0  0
  -27.5577  -37.1816   24.8470 C   0  0  0  0  0  0
  -21.4145  -29.3037   22.3744 N   0  0  0  0  0  0
  -26.4285  -37.3809   23.9420 N   0  0  0  0  0  0
  -24.6678  -31.0795   22.1004 N   0  0  0  0  0  0
  -23.4191  -28.8190   23.3020 O   0  0  0  0  0  0
  -28.3761  -26.6736   20.0381 O   0  0  0  0  0  0
  -26.5566  -34.8939   22.4678 O   0  0  0  0  0  0
  -23.5345  -32.1446   23.7503 O   0  0  0  0  0  0
  -27.6920  -23.7088   20.6701 C   0  0  0  0  0  0
  -29.9548  -23.7586   21.4849 C   0  0  0  0  0  0
  -28.7982  -24.4648   21.1017 C   0  0  0  0  0  0
  -27.7766  -22.2967   20.6639 C   0  0  0  0  0  0
  -28.9699  -21.6789   21.1113 C   0  0  0  0  0  0
  -26.5802  -21.4765   20.2079 C   0  0  0  0  0  0
  -28.7248  -25.9895   21.2457 C   0  0  0  0  0  0
  -29.1088  -20.1561   21.2604 C   0  0  0  0  0  0
  -29.7909  -19.4452   20.0695 C   0  0  0  0  0  0
  -29.5792  -17.9068   20.0127 C   0  0  0  0  0  0
  -30.4228  -17.0576   20.9993 C   0  0  0  0  0  0
  -30.0432  -22.4068   21.4887 N   0  0  0  0  0  0
  -30.0351  -15.6354   20.9760 N   0  0  0  0  0  0
  -31.4598  -12.4091   19.1843 H   0  0  0  0  0  0
  -30.2609  -11.3887   19.9166 H   0  0  0  0  0  0
  -29.5795  -11.5827   17.6107 H   0  0  0  0  0  0
  -29.9276  -13.2829   17.5464 H   0  0  0  0  0  0
  -27.3753  -12.1957   17.9120 H   0  0  0  0  0  0
  -27.8252  -13.8566   18.1731 H   0  0  0  0  0  0
  -27.9543  -11.6756   20.0508 H   0  0  0  0  0  0
  -28.8229  -12.4255   21.8177 H   0  0  0  0  0  0
  -28.2995  -14.0509   21.5702 H   0  0  0  0  0  0
  -25.2323   -9.5720   22.4887 H   0  0  0  0  0  0
  -23.9857   -7.4491   22.7438 H   0  0  0  0  0  0
  -21.0534   -8.8459   19.8943 H   0  0  0  0  0  0
  -22.3118  -10.9577   19.6303 H   0  0  0  0  0  0
  -21.1917   -7.6068   23.9705 H   0  0  0  0  0  0
  -21.1469   -6.0450   25.9095 H   0  0  0  0  0  0
  -22.0645   -2.7544   23.2884 H   0  0  0  0  0  0
  -22.3861  -12.0230   22.4694 H   0  0  0  0  0  0
  -21.1171  -13.1922   22.2537 H   0  0  0  0  0  0
  -26.4250  -15.4808   20.0262 H   0  0  0  0  0  0
  -24.8139  -15.8013   20.4390 H   0  0  0  0  0  0
  -26.7130  -32.5557   23.1182 H   0  0  0  0  0  0
  -25.0174  -33.9802   25.0556 H   0  0  0  0  0  0
  -22.6913  -31.3088   21.4100 H   0  0  0  0  0  0
  -23.3753  -35.9642   23.3310 H   0  0  0  0  0  0
  -24.3574  -36.8895   22.2043 H   0  0  0  0  0  0
  -23.7224  -37.6524   23.6618 H   0  0  0  0  0  0
  -26.0413  -31.5946   20.5927 H   0  0  0  0  0  0
  -26.8217  -30.8927   21.9805 H   0  0  0  0  0  0
  -28.1017  -29.1045   21.1754 H   0  0  0  0  0  0
  -26.0840  -25.9834   18.9905 H   0  0  0  0  0  0
  -23.9839  -27.2947   19.0282 H   0  0  0  0  0  0
  -23.7258  -30.5967   19.4067 H   0  0  0  0  0  0
  -22.7373  -29.2428   19.8707 H   0  0  0  0  0  0
  -25.1278  -36.1986   25.0835 H   0  0  0  0  0  0
  -20.9976  -28.3217   24.1442 H   0  0  0  0  0  0
  -20.5657  -26.2275   23.3610 H   0  0  0  0  0  0
  -21.6626  -26.7417   22.1214 H   0  0  0  0  0  0
  -19.6876  -25.6290   21.1240 H   0  0  0  0  0  0
  -19.6657  -27.3204   20.6768 H   0  0  0  0  0  0
  -17.4181  -26.6712   21.4025 H   0  0  0  0  0  0
  -18.0284  -26.0046   22.9010 H   0  0  0  0  0  0
  -19.7934  -30.7270   24.2280 H   0  0  0  0  0  0
  -17.5004  -31.6261   24.5171 H   0  0  0  0  0  0
  -15.5345  -30.2988   23.7622 H   0  0  0  0  0  0
  -15.8672  -28.0820   22.7036 H   0  0  0  0  0  0
  -24.5910  -30.7054   25.7830 H   0  0  0  0  0  0
  -24.8911  -32.2893   26.4910 H   0  0  0  0  0  0
  -25.8085  -30.8926   27.0253 H   0  0  0  0  0  0
  -26.2841  -29.6847   24.1096 H   0  0  0  0  0  0
  -27.3988  -29.7251   25.4569 H   0  0  0  0  0  0
  -27.8711  -30.4373   23.9307 H   0  0  0  0  0  0
  -27.2686  -33.3618   26.2093 H   0  0  0  0  0  0
  -28.3866  -32.6864   25.0325 H   0  0  0  0  0  0
  -28.0713  -31.8424   26.5407 H   0  0  0  0  0  0
  -28.2614  -38.0094   24.7514 H   0  0  0  0  0  0
  -28.1049  -36.2632   24.6298 H   0  0  0  0  0  0
  -27.2300  -37.1480   25.8873 H   0  0  0  0  0  0
  -20.9285  -29.8790   21.7013 H   0  0  0  0  0  0
  -26.0179  -38.2889   24.1421 H   0  0  0  0  0  0
  -26.7789  -24.2055   20.3729 H   0  0  0  0  0  0
  -30.8315  -24.2875   21.8293 H   0  0  0  0  0  0
  -25.8063  -22.1054   19.7670 H   0  0  0  0  0  0
  -26.1371  -20.9467   21.0528 H   0  0  0  0  0  0
  -26.8741  -20.7443   19.4533 H   0  0  0  0  0  0
  -29.6946  -26.3697   21.5716 H   0  0  0  0  0  0
  -28.0260  -26.2146   22.0543 H   0  0  0  0  0  0
  -28.1256  -19.7194   21.4322 H   0  0  0  0  0  0
  -29.6680  -19.9499   22.1737 H   0  0  0  0  0  0
  -29.3651  -19.8649   19.1567 H   0  0  0  0  0  0
  -30.8515  -19.6937   20.0399 H   0  0  0  0  0  0
  -29.8137  -17.5761   18.9987 H   0  0  0  0  0  0
  -28.5194  -17.6910   20.1526 H   0  0  0  0  0  0
  -30.2709  -17.4265   22.0133 H   0  0  0  0  0  0
  -31.4864  -17.1789   20.7886 H   0  0  0  0  0  0
  -29.1002  -15.4270   21.2952 H   0  0  0  0  0  0
  1 25  1  0  0  0
  1 30  2  0  0  0
  1 83  1  0  0  0
  2  3  1  0  0  0
  2 25  1  0  0  0
  2 84  1  0  0  0
  2 85  1  0  0  0
  3  4  1  0  0  0
  3 86  1  0  0  0
  3 87  1  0  0  0
  4  5  1  0  0  0
  4 88  1  0  0  0
  4 89  1  0  0  0
  5  6  1  0  0  0
  5 26  1  0  0  0
  5 90  1  0  0  0
  6 25  1  0  0  0
  6 91  1  0  0  0
  6 92  1  0  0  0
  7  8  2  0  0  0
  7 26  1  0  0  0
  7 29  1  0  0  0
  8  9  1  0  0  0
  8 22  1  0  0  0
  9 10  1  0  0  0
  9 27  2  0  0  0
 10 11  2  0  0  0
 10 15  1  0  0  0
 11 12  1  0  0  0
 11 93  1  0  0  0
 12 13  2  0  0  0
 12 94  1  0  0  0
 13 14  1  0  0  0
 13 31  1  0  0  0
 14 15  2  0  0  0
 14 95  1  0  0  0
 15 96  1  0  0  0
 16 17  2  0  0  0
 16 21  1  0  0  0
 16 31  1  0  0  0
 17 18  1  0  0  0
 17 97  1  0  0  0
 18 19  2  0  0  0
 18 98  1  0  0  0
 19 20  1  0  0  0
 19 24  1  0  0  0
 20 21  2  0  0  0
 20 99  1  0  0  0
 21 23  1  0  0  0
 22 28  1  0  0  0
 22 32  2  0  0  0
 26 27  1  0  0  0
 28100  1  0  0  0
 28101  1  0  0  0
 29102  1  0  0  0
 29103  1  0  0  0
 33 34  1  0  0  0
 33 66  1  0  0  0
 33 70  2  0  0  0
 34 36  1  0  0  0
 34 59  1  0  0  0
 34104  1  0  0  0
 35 44  2  0  0  0
 35 45  1  0  0  0
 35 68  1  0  0  0
 36 56  1  0  0  0
 36105  1  0  0  0
 37 39  1  0  0  0
 37 47  1  0  0  0
 37 66  1  0  0  0
 37106  1  0  0  0
 38 43  2  0  0  0
 38 46  1  0  0  0
 38 47  1  0  0  0
 39 64  1  0  0  0
 39 67  2  0  0  0
 40 52  1  0  0  0
 40 53  2  0  0  0
 40 58  1  0  0  0
 41107  1  0  0  0
 41108  1  0  0  0
 41109  1  0  0  0
 41 48  1  0  0  0
 42 43  1  0  0  0
 42 66  1  0  0  0
 42110  1  0  0  0
 42111  1  0  0  0
 43 44  1  0  0  0
 44112  1  0  0  0
 45 46  2  0  0  0
 45113  1  0  0  0
 46114  1  0  0  0
 47115  1  0  0  0
 47116  1  0  0  0
 48 56  1  0  0  0
 48 65  1  0  0  0
 48117  1  0  0  0
 49 50  1  0  0  0
 49 53  1  0  0  0
 49 64  1  0  0  0
 49118  1  0  0  0
 50 51  1  0  0  0
 50119  1  0  0  0
 50120  1  0  0  0
 51 52  1  0  0  0
 51121  1  0  0  0
 51122  1  0  0  0
 52123  1  0  0  0
 52124  1  0  0  0
 53 54  1  0  0  0
 54 55  2  0  0  0
 54125  1  0  0  0
 55 57  1  0  0  0
 55126  1  0  0  0
 56 69  2  0  0  0
 57 58  2  0  0  0
 57127  1  0  0  0
 58128  1  0  0  0
 59 60  1  0  0  0
 59 61  1  0  0  0
 59 62  1  0  0  0
 60129  1  0  0  0
 60130  1  0  0  0
 60131  1  0  0  0
 61132  1  0  0  0
 61133  1  0  0  0
 61134  1  0  0  0
 62135  1  0  0  0
 62136  1  0  0  0
 62137  1  0  0  0
 63 65  1  0  0  0
 63138  1  0  0  0
 63139  1  0  0  0
 63140  1  0  0  0
 64141  1  0  0  0
 65142  1  0  0  0
 68 77  1  0  0  0
 71 73  2  0  0  0
 71 74  1  0  0  0
 71143  1  0  0  0
 72 73  1  0  0  0
 72 82  2  0  0  0
 72144  1  0  0  0
 73 77  1  0  0  0
 74 75  2  0  0  0
 74 76  1  0  0  0
 75 78  1  0  0  0
 75 82  1  0  0  0
 76145  1  0  0  0
 76146  1  0  0  0
 76147  1  0  0  0
 77148  1  0  0  0
 77149  1  0  0  0
 78 79  1  0  0  0
 78150  1  0  0  0
 78151  1  0  0  0
 79 80  1  0  0  0
 79152  1  0  0  0
 79153  1  0  0  0
 80 81  1  0  0  0
 80154  1  0  0  0
 80155  1  0  0  0
 81 83  1  0  0  0
 81156  1  0  0  0
 81157  1  0  0  0
 83158  1  0  0  0
M  ISO  4   1 100  68 101  77 101  83 100
M  END
> <chiral flag>
0

> <version>
0

> <s_m_source_file>
/data/baiqing/PycharmProjects/Reinvent-master-3.2/result/LINK_invent/BTK/process_docking_weight1_custom_sum_contain_oxygen_bond_distance_aromatic_linkinvent_7_9_3/rearranged_h_0039.sdf

> <i_m_source_file_index>
54

> <r_mmod_Potential_Energy-OPLS-2005>
-42.3443260192871

> <r_mmod_Stretch_Energy-OPLS-2005>
36.1843566894531

> <r_mmod_Bend_Energy-OPLS-2005>
145.696563720703

> <r_mmod_Torsional_Energy-OPLS-2005>
254.328979492188

> <r_mmod_Improper_Torsional_Energy-OPLS-2005>
3.64779710769653

> <r_mmod_Van_der_Waal_Energy-OPLS-2005>
157.82341003418

> <r_mmod_Electrostatic_Energy-OPLS-2005>
-500.099243164062

> <r_mmod_Solvation_Energy-OPLS-2005>
-222.656982421875

> <b_mmod_Minimization_Converged-OPLS-2005>
0

> <r_mmod_RMS_Derivative-OPLS-2005>
2.50129127502441

$$$$
55
                    3D
 Structure written by MMmdl.
171181  0  0  1  0            999 V2000
  -30.6550  -14.8987   20.4382 C   0  0  0  0  0  0
  -30.4096  -12.5717   19.4880 C   0  0  0  0  0  0
  -29.5003  -12.5122   18.2449 C   0  0  0  0  0  0
  -28.0396  -12.2957   18.6732 C   0  0  0  0  0  0
  -27.6183  -13.2421   19.8263 C   0  0  2  0  0  0
  -28.6664  -13.3212   20.9604 C   0  0  0  0  0  0
  -25.2414  -13.8191   20.5717 C   0  0  0  0  0  0
  -24.1744  -13.0420   20.9248 C   0  0  0  0  0  0
  -24.6364  -11.6907   20.8780 C   0  0  0  0  0  0
  -23.9060  -10.4279   21.0423 C   0  0  0  0  0  0
  -24.3616   -9.4194   21.9194 C   0  0  0  0  0  0
  -23.6296   -8.2225   22.0753 C   0  0  0  0  0  0
  -22.4280   -8.0265   21.3539 C   0  0  0  0  0  0
  -21.9915   -9.0239   20.4642 C   0  0  0  0  0  0
  -22.7237  -10.2123   20.3063 C   0  0  0  0  0  0
  -21.6852   -6.0723   22.5274 C   0  0  0  0  0  0
  -21.4011   -6.5630   23.8206 C   0  0  0  0  0  0
  -21.3661   -5.6786   24.9171 C   0  0  0  0  0  0
  -21.6050   -4.3049   24.7224 C   0  0  0  0  0  0
  -21.8822   -3.8134   23.4347 C   0  0  0  0  0  0
  -21.9193   -4.6950   22.3400 C   0  0  0  0  0  0
  -22.7765  -13.5195   21.1900 C   0  0  0  0  0  0
  -22.1661   -4.2129   21.0978 F   0  0  0  0  0  0
  -21.5639   -3.4538   25.7742 F   0  0  0  0  0  0
  -29.9377  -13.7077   20.3376 N   0  0  0  0  0  0
  -26.2829  -12.9416   20.3243 N   0  0  0  0  0  0
  -25.9289  -11.6554   20.5770 N   0  0  0  0  0  0
  -22.0420  -12.8181   22.0457 N   0  0  0  0  0  0
  -25.4045  -15.1907   20.4111 N   0  0  0  0  0  0
  -31.8655  -14.8007   20.2098 O   0  0  0  0  0  0
  -21.6644   -6.8863   21.4236 O   0  0  0  0  0  0
  -22.3454  -14.5499   20.6739 O   0  0  0  0  0  0
  -24.6405  -31.8477   23.1912 C   0  0  0  0  0  0
  -25.9193  -32.4714   23.8286 C   0  0  1  0  0  0
  -27.2078  -27.1719   20.1521 C   0  0  0  0  0  0
  -25.5954  -33.8516   24.2209 N   0  0  0  0  0  0
  -23.4406  -30.4691   21.5369 C   0  0  2  0  0  0
  -24.8867  -28.8991   20.1139 C   0  0  0  0  0  0
  -22.7540  -29.4584   22.4890 C   0  0  0  0  0  0
  -18.0296  -28.1403   22.8485 C   0  0  0  0  0  0
  -24.1488  -36.7265   23.2640 C   0  0  0  0  0  0
  -25.9938  -30.7343   21.3818 C   0  0  0  0  0  0
  -26.0646  -29.3479   20.7260 C   0  0  0  0  0  0
  -27.2319  -28.5021   20.7226 C   0  0  0  0  0  0
  -26.0042  -26.8105   19.5119 C   0  0  0  0  0  0
  -24.8670  -27.6427   19.4905 C   0  0  0  0  0  0
  -23.6630  -29.7986   20.1560 C   0  0  0  0  0  0
  -25.4118  -36.3044   24.0323 C   0  0  1  0  0  0
  -20.5905  -28.3735   23.1250 C   0  0  2  0  0  0
  -20.6790  -26.9447   22.5406 C   0  0  0  0  0  0
  -19.5765  -26.6393   21.5219 C   0  0  0  0  0  0
  -18.1946  -26.7944   22.1627 C   0  0  0  0  0  0
  -19.1550  -28.8886   23.2861 C   0  0  0  0  0  0
  -18.9469  -30.1478   23.8894 C   0  0  0  0  0  0
  -17.6466  -30.6603   24.0566 C   0  0  0  0  0  0
  -25.9069  -34.9420   23.5074 C   0  0  0  0  0  0
  -16.5357  -29.9100   23.6338 C   0  0  0  0  0  0
  -16.7279  -28.6511   23.0370 C   0  0  0  0  0  0
  -26.4520  -31.6571   25.0717 C   0  0  0  0  0  0
  -25.3714  -31.3745   26.1419 C   0  0  0  0  0  0
  -27.0376  -30.2974   24.6267 C   0  0  0  0  0  0
  -27.6055  -32.4332   25.7498 C   0  0  0  0  0  0
  -27.5576  -37.1791   24.8463 C   0  0  0  0  0  0
  -21.4238  -29.3064   22.3628 N   0  0  0  0  0  0
  -26.4280  -37.3760   23.9414 N   0  0  0  0  0  0
  -24.7115  -31.0375   22.0922 N   0  0  0  0  0  0
  -23.4198  -28.8142   23.3038 O   0  0  0  0  0  0
  -28.2696  -26.2119   20.1640 O   0  0  0  0  0  0
  -26.5649  -34.8916   22.4649 O   0  0  0  0  0  0
  -23.5538  -32.1333   23.7168 O   0  0  0  0  0  0
  -28.5430  -23.2845   18.4364 C   0  0  0  0  0  0
  -28.8194  -22.0261   17.8593 C   0  0  0  0  0  0
  -28.4893  -23.3748   19.8511 C   0  0  0  0  0  0
  -28.9863  -20.9571   19.9023 C   0  0  0  0  0  0
  -28.2946  -24.4699   17.5073 C   0  0  0  0  0  0
  -28.9237  -21.8411   16.3521 C   0  0  0  0  0  0
  -30.1160  -22.5986   15.7456 C   0  0  0  0  0  0
  -29.8399  -24.0917   15.4939 C   0  0  0  0  0  0
  -28.3601  -18.2578   20.2409 C   0  0  0  0  0  0
  -30.6867  -18.8491   20.2493 C   0  0  0  0  0  0
  -28.7241  -16.7632   20.7672 C   0  0  0  0  0  0
  -31.0284  -17.4032   20.8453 C   0  0  0  0  0  0
  -29.2971  -19.4947   20.5867 C   0  0  0  0  0  0
  -29.5682  -24.9245   16.7639 C   0  0  1  0  0  0
  -29.4686  -26.4145   16.4063 C   0  0  0  0  0  0
  -28.0065  -24.7529   20.6059 C   0  0  0  0  0  0
  -29.0412  -20.9135   18.5812 N   0  0  0  0  0  0
  -28.7163  -22.1591   20.5486 N   0  0  0  0  0  0
  -30.1163  -16.2240   20.5830 N   0  0  0  0  0  0
  -31.4479  -12.6770   19.1699 H   0  0  0  0  0  0
  -30.3713  -11.6325   20.0423 H   0  0  0  0  0  0
  -29.8193  -11.7098   17.5782 H   0  0  0  0  0  0
  -29.5872  -13.4398   17.6770 H   0  0  0  0  0  0
  -27.9408  -11.2575   18.9925 H   0  0  0  0  0  0
  -27.3707  -12.4162   17.8198 H   0  0  0  0  0  0
  -27.5620  -14.2201   19.3547 H   0  0  0  0  0  0
  -28.7580  -12.3688   21.4838 H   0  0  0  0  0  0
  -28.3712  -14.0574   21.7090 H   0  0  0  0  0  0
  -25.2756   -9.5675   22.4780 H   0  0  0  0  0  0
  -24.0002   -7.4615   22.7473 H   0  0  0  0  0  0
  -21.0843   -8.8756   19.8946 H   0  0  0  0  0  0
  -22.3687  -10.9669   19.6180 H   0  0  0  0  0  0
  -21.1998   -7.6139   23.9704 H   0  0  0  0  0  0
  -21.1487   -6.0518   25.9076 H   0  0  0  0  0  0
  -22.0603   -2.7596   23.2853 H   0  0  0  0  0  0
  -22.4055  -11.9849   22.4840 H   0  0  0  0  0  0
  -21.1033  -13.1185   22.2665 H   0  0  0  0  0  0
  -24.6347  -15.8404   20.5265 H   0  0  0  0  0  0
  -26.2487  -15.6327   20.0728 H   0  0  0  0  0  0
  -26.7263  -32.5329   23.1021 H   0  0  0  0  0  0
  -25.0086  -33.9621   25.0347 H   0  0  0  0  0  0
  -22.7415  -31.2949   21.3854 H   0  0  0  0  0  0
  -23.3758  -35.9591   23.3282 H   0  0  0  0  0  0
  -24.3569  -36.8911   22.2055 H   0  0  0  0  0  0
  -23.7240  -37.6457   23.6682 H   0  0  0  0  0  0
  -26.1418  -31.4893   20.6088 H   0  0  0  0  0  0
  -26.8676  -30.7837   22.0204 H   0  0  0  0  0  0
  -28.1358  -28.8442   21.2065 H   0  0  0  0  0  0
  -25.9204  -25.8459   19.0333 H   0  0  0  0  0  0
  -23.9683  -27.2931   19.0016 H   0  0  0  0  0  0
  -23.7980  -30.5724   19.3994 H   0  0  0  0  0  0
  -22.7783  -29.2386   19.8472 H   0  0  0  0  0  0
  -25.1309  -36.1866   25.0817 H   0  0  0  0  0  0
  -20.9992  -28.3322   24.1375 H   0  0  0  0  0  0
  -20.5702  -26.2352   23.3618 H   0  0  0  0  0  0
  -21.6657  -26.7478   22.1193 H   0  0  0  0  0  0
  -19.6931  -25.6297   21.1269 H   0  0  0  0  0  0
  -19.6703  -27.3190   20.6734 H   0  0  0  0  0  0
  -17.4218  -26.6696   21.4023 H   0  0  0  0  0  0
  -18.0345  -26.0082   22.9015 H   0  0  0  0  0  0
  -19.7940  -30.7296   24.2272 H   0  0  0  0  0  0
  -17.5018  -31.6285   24.5169 H   0  0  0  0  0  0
  -15.5359  -30.3006   23.7666 H   0  0  0  0  0  0
  -15.8672  -28.0820   22.7116 H   0  0  0  0  0  0
  -24.5904  -30.7078   25.7740 H   0  0  0  0  0  0
  -24.8890  -32.2917   26.4805 H   0  0  0  0  0  0
  -25.8008  -30.8944   27.0220 H   0  0  0  0  0  0
  -26.2976  -29.6709   24.1273 H   0  0  0  0  0  0
  -27.3995  -29.7268   25.4828 H   0  0  0  0  0  0
  -27.8885  -30.4225   23.9570 H   0  0  0  0  0  0
  -27.2652  -33.3649   26.2031 H   0  0  0  0  0  0
  -28.3887  -32.6864   25.0339 H   0  0  0  0  0  0
  -28.0699  -31.8483   26.5446 H   0  0  0  0  0  0
  -28.2591  -38.0092   24.7519 H   0  0  0  0  0  0
  -28.1075  -36.2625   24.6275 H   0  0  0  0  0  0
  -27.2295  -37.1422   25.8865 H   0  0  0  0  0  0
  -20.9453  -29.8748   21.6783 H   0  0  0  0  0  0
  -26.0146  -38.2831   24.1410 H   0  0  0  0  0  0
  -27.8781  -25.3050   18.0527 H   0  0  0  0  0  0
  -27.5077  -24.2176   16.7950 H   0  0  0  0  0  0
  -27.9883  -22.1304   15.8721 H   0  0  0  0  0  0
  -29.0398  -20.7780   16.1347 H   0  0  0  0  0  0
  -30.3525  -22.1423   14.7840 H   0  0  0  0  0  0
  -31.0022  -22.4636   16.3670 H   0  0  0  0  0  0
  -29.0041  -24.1932   14.7993 H   0  0  0  0  0  0
  -30.7053  -24.5089   14.9767 H   0  0  0  0  0  0
  -27.3490  -18.5016   20.5685 H   0  0  0  0  0  0
  -28.2945  -18.2032   19.1534 H   0  0  0  0  0  0
  -30.7806  -18.7912   19.1640 H   0  0  0  0  0  0
  -31.4639  -19.5469   20.5616 H   0  0  0  0  0  0
  -28.0285  -16.0778   20.2998 H   0  0  0  0  0  0
  -28.5089  -16.7125   21.8356 H   0  0  0  0  0  0
  -31.1090  -17.4946   21.9297 H   0  0  0  0  0  0
  -32.0420  -17.1765   20.5133 H   0  0  0  0  0  0
  -29.2550  -19.6536   21.6650 H   0  0  0  0  0  0
  -30.4213  -24.8303   17.4381 H   0  0  0  0  0  0
  -28.6161  -26.6110   15.7541 H   0  0  0  0  0  0
  -30.3663  -26.7613   15.8930 H   0  0  0  0  0  0
  -29.3481  -27.0277   17.3003 H   0  0  0  0  0  0
  -28.4292  -24.6934   21.6090 H   0  0  0  0  0  0
  -26.9359  -24.6311   20.7696 H   0  0  0  0  0  0
  1 25  1  0  0  0
  1 30  2  0  0  0
  1 89  1  0  0  0
  2  3  1  0  0  0
  2 25  1  0  0  0
  2 90  1  0  0  0
  2 91  1  0  0  0
  3  4  1  0  0  0
  3 92  1  0  0  0
  3 93  1  0  0  0
  4  5  1  0  0  0
  4 94  1  0  0  0
  4 95  1  0  0  0
  5  6  1  0  0  0
  5 26  1  0  0  0
  5 96  1  0  0  0
  6 25  1  0  0  0
  6 97  1  0  0  0
  6 98  1  0  0  0
  7  8  2  0  0  0
  7 26  1  0  0  0
  7 29  1  0  0  0
  8  9  1  0  0  0
  8 22  1  0  0  0
  9 10  1  0  0  0
  9 27  2  0  0  0
 10 11  2  0  0  0
 10 15  1  0  0  0
 11 12  1  0  0  0
 11 99  1  0  0  0
 12 13  2  0  0  0
 12100  1  0  0  0
 13 14  1  0  0  0
 13 31  1  0  0  0
 14 15  2  0  0  0
 14101  1  0  0  0
 15102  1  0  0  0
 16 17  2  0  0  0
 16 21  1  0  0  0
 16 31  1  0  0  0
 17 18  1  0  0  0
 17103  1  0  0  0
 18 19  2  0  0  0
 18104  1  0  0  0
 19 20  1  0  0  0
 19 24  1  0  0  0
 20 21  2  0  0  0
 20105  1  0  0  0
 21 23  1  0  0  0
 22 28  1  0  0  0
 22 32  2  0  0  0
 26 27  1  0  0  0
 28106  1  0  0  0
 28107  1  0  0  0
 29108  1  0  0  0
 29109  1  0  0  0
 33 34  1  0  0  0
 33 66  1  0  0  0
 33 70  2  0  0  0
 34 36  1  0  0  0
 34 59  1  0  0  0
 34110  1  0  0  0
 35 44  2  0  0  0
 35 45  1  0  0  0
 35 68  1  0  0  0
 36 56  1  0  0  0
 36111  1  0  0  0
 37 39  1  0  0  0
 37 47  1  0  0  0
 37 66  1  0  0  0
 37112  1  0  0  0
 38 43  2  0  0  0
 38 46  1  0  0  0
 38 47  1  0  0  0
 39 64  1  0  0  0
 39 67  2  0  0  0
 40 52  1  0  0  0
 40 53  2  0  0  0
 40 58  1  0  0  0
 41113  1  0  0  0
 41114  1  0  0  0
 41115  1  0  0  0
 41 48  1  0  0  0
 42 43  1  0  0  0
 42 66  1  0  0  0
 42116  1  0  0  0
 42117  1  0  0  0
 43 44  1  0  0  0
 44118  1  0  0  0
 45 46  2  0  0  0
 45119  1  0  0  0
 46120  1  0  0  0
 47121  1  0  0  0
 47122  1  0  0  0
 48 56  1  0  0  0
 48 65  1  0  0  0
 48123  1  0  0  0
 49 50  1  0  0  0
 49 53  1  0  0  0
 49 64  1  0  0  0
 49124  1  0  0  0
 50 51  1  0  0  0
 50125  1  0  0  0
 50126  1  0  0  0
 51 52  1  0  0  0
 51127  1  0  0  0
 51128  1  0  0  0
 52129  1  0  0  0
 52130  1  0  0  0
 53 54  1  0  0  0
 54 55  2  0  0  0
 54131  1  0  0  0
 55 57  1  0  0  0
 55132  1  0  0  0
 56 69  2  0  0  0
 57 58  2  0  0  0
 57133  1  0  0  0
 58134  1  0  0  0
 59 60  1  0  0  0
 59 61  1  0  0  0
 59 62  1  0  0  0
 60135  1  0  0  0
 60136  1  0  0  0
 60137  1  0  0  0
 61138  1  0  0  0
 61139  1  0  0  0
 61140  1  0  0  0
 62141  1  0  0  0
 62142  1  0  0  0
 62143  1  0  0  0
 63 65  1  0  0  0
 63144  1  0  0  0
 63145  1  0  0  0
 63146  1  0  0  0
 64147  1  0  0  0
 65148  1  0  0  0
 68 86  1  0  0  0
 71 72  2  0  0  0
 71 73  1  0  0  0
 71 75  1  0  0  0
 72 76  1  0  0  0
 72 87  1  0  0  0
 73 86  1  0  0  0
 73 88  2  0  0  0
 74 87  2  0  0  0
 74 88  1  0  0  0
 74 83  1  0  0  0
 75 84  1  0  0  0
 75149  1  0  0  0
 75150  1  0  0  0
 76 77  1  0  0  0
 76151  1  0  0  0
 76152  1  0  0  0
 77 78  1  0  0  0
 77153  1  0  0  0
 77154  1  0  0  0
 78 84  1  0  0  0
 78155  1  0  0  0
 78156  1  0  0  0
 79 81  1  0  0  0
 79 83  1  0  0  0
 79157  1  0  0  0
 79158  1  0  0  0
 80 82  1  0  0  0
 80 83  1  0  0  0
 80159  1  0  0  0
 80160  1  0  0  0
 81 89  1  0  0  0
 81161  1  0  0  0
 81162  1  0  0  0
 82 89  1  0  0  0
 82163  1  0  0  0
 82164  1  0  0  0
 83165  1  0  0  0
 84 85  1  0  0  0
 84166  1  0  0  0
 85167  1  0  0  0
 85168  1  0  0  0
 85169  1  0  0  0
 86170  1  0  0  0
 86171  1  0  0  0
M  ISO  4   1 100  68 101  86 101  89 100
M  END
> <chiral flag>
0

> <version>
0

> <s_m_source_file>
/data/baiqing/PycharmProjects/Reinvent-master-3.2/result/LINK_invent/BTK/process_docking_weight1_custom_sum_contain_oxygen_bond_distance_aromatic_linkinvent_7_9_3/rearranged_h_0039.sdf

> <i_m_source_file_index>
55

> <r_mmod_Potential_Energy-OPLS-2005>
258.371185302734

> <r_mmod_Stretch_Energy-OPLS-2005>
207.641662597656

> <r_mmod_Bend_Energy-OPLS-2005>
283.012542724609

> <r_mmod_Torsional_Energy-OPLS-2005>
318.578063964844

> <r_mmod_Improper_Torsional_Energy-OPLS-2005>
4.89403247833252

> <r_mmod_Van_der_Waal_Energy-OPLS-2005>
149.998733520508

> <r_mmod_Electrostatic_Energy-OPLS-2005>
-648.287658691406

> <r_mmod_Solvation_Energy-OPLS-2005>
-221.24560546875

> <b_mmod_Minimization_Converged-OPLS-2005>
0

> <r_mmod_RMS_Derivative-OPLS-2005>
1.05106115341187

$$$$
56
                    3D
 Structure written by MMmdl.
171179  0  0  1  0            999 V2000
  -30.7135  -14.4071   20.5789 C   0  0  0  0  0  0
  -30.3979  -12.2670   19.3990 C   0  0  0  0  0  0
  -29.4722  -12.5226   18.1909 C   0  0  0  0  0  0
  -27.9947  -12.3943   18.6060 C   0  0  0  0  0  0
  -27.6590  -13.2058   19.8871 C   0  0  2  0  0  0
  -28.7047  -12.9412   20.9968 C   0  0  0  0  0  0
  -25.2524  -13.8184   20.5709 C   0  0  0  0  0  0
  -24.1796  -13.0427   20.9171 C   0  0  0  0  0  0
  -24.6363  -11.6924   20.8724 C   0  0  0  0  0  0
  -23.9050  -10.4293   21.0378 C   0  0  0  0  0  0
  -24.3627   -9.4191   21.9126 C   0  0  0  0  0  0
  -23.6304   -8.2221   22.0726 C   0  0  0  0  0  0
  -22.4270   -8.0261   21.3542 C   0  0  0  0  0  0
  -21.9919   -9.0227   20.4624 C   0  0  0  0  0  0
  -22.7241  -10.2105   20.3005 C   0  0  0  0  0  0
  -21.6860   -6.0729   22.5266 C   0  0  0  0  0  0
  -21.4045   -6.5642   23.8199 C   0  0  0  0  0  0
  -21.3657   -5.6800   24.9166 C   0  0  0  0  0  0
  -21.6023   -4.3062   24.7212 C   0  0  0  0  0  0
  -21.8831   -3.8141   23.4341 C   0  0  0  0  0  0
  -21.9210   -4.6955   22.3387 C   0  0  0  0  0  0
  -22.7807  -13.5167   21.1851 C   0  0  0  0  0  0
  -22.1652   -4.2146   21.0962 F   0  0  0  0  0  0
  -21.5619   -3.4529   25.7722 F   0  0  0  0  0  0
  -30.0423  -13.2347   20.4492 N   0  0  0  0  0  0
  -26.3002  -12.9364   20.3461 N   0  0  0  0  0  0
  -25.9286  -11.6519   20.5785 N   0  0  0  0  0  0
  -22.0557  -12.8088   22.0440 N   0  0  0  0  0  0
  -25.4129  -15.1911   20.4144 N   0  0  0  0  0  0
  -31.8109  -14.6211   20.0530 O   0  0  0  0  0  0
  -21.6622   -6.8857   21.4225 O   0  0  0  0  0  0
  -22.3414  -14.5438   20.6711 O   0  0  0  0  0  0
  -24.6130  -31.8718   23.2131 C   0  0  0  0  0  0
  -25.9044  -32.4828   23.8398 C   0  0  1  0  0  0
  -27.2233  -27.4516   20.0743 C   0  0  0  0  0  0
  -25.5919  -33.8630   24.2329 N   0  0  0  0  0  0
  -23.3960  -30.4985   21.5571 C   0  0  2  0  0  0
  -24.8356  -28.9683   20.1182 C   0  0  0  0  0  0
  -22.7383  -29.4697   22.5044 C   0  0  0  0  0  0
  -18.0267  -28.1370   22.8501 C   0  0  0  0  0  0
  -24.1498  -36.7312   23.2634 C   0  0  0  0  0  0
  -25.9261  -30.8373   21.3673 C   0  0  0  0  0  0
  -25.9989  -29.4756   20.7102 C   0  0  0  0  0  0
  -27.1932  -28.7203   20.6952 C   0  0  0  0  0  0
  -26.0256  -26.9433   19.5138 C   0  0  0  0  0  0
  -24.8424  -27.6974   19.5235 C   0  0  0  0  0  0
  -23.5977  -29.8327   20.1714 C   0  0  0  0  0  0
  -25.4121  -36.3119   24.0334 C   0  0  1  0  0  0
  -20.5852  -28.3662   23.1334 C   0  0  2  0  0  0
  -20.6779  -26.9408   22.5415 C   0  0  0  0  0  0
  -19.5757  -26.6386   21.5219 C   0  0  0  0  0  0
  -18.1930  -26.7923   22.1621 C   0  0  0  0  0  0
  -19.1515  -28.8834   23.2908 C   0  0  0  0  0  0
  -18.9450  -30.1450   23.8904 C   0  0  0  0  0  0
  -17.6453  -30.6584   24.0564 C   0  0  0  0  0  0
  -25.9049  -34.9480   23.5123 C   0  0  0  0  0  0
  -16.5342  -29.9080   23.6332 C   0  0  0  0  0  0
  -16.7259  -28.6495   23.0356 C   0  0  0  0  0  0
  -26.4467  -31.6605   25.0718 C   0  0  0  0  0  0
  -25.3734  -31.3709   26.1463 C   0  0  0  0  0  0
  -27.0279  -30.3039   24.6094 C   0  0  0  0  0  0
  -27.6035  -32.4332   25.7482 C   0  0  0  0  0  0
  -27.5594  -37.1812   24.8459 C   0  0  0  0  0  0
  -21.4128  -29.3027   22.3744 N   0  0  0  0  0  0
  -26.4302  -37.3804   23.9405 N   0  0  0  0  0  0
  -24.6627  -31.0834   22.1025 N   0  0  0  0  0  0
  -23.4167  -28.8250   23.3085 O   0  0  0  0  0  0
  -28.3953  -26.7236   20.0631 O   0  0  0  0  0  0
  -26.5602  -34.8929   22.4675 O   0  0  0  0  0  0
  -23.5334  -32.1465   23.7547 O   0  0  0  0  0  0
  -30.6751  -24.8201   19.9575 C   0  0  0  0  0  0
  -29.4650  -23.7189   18.1696 C   0  0  0  0  0  0
  -29.6236  -24.8252   19.0243 C   0  0  0  0  0  0
  -31.6024  -23.7547   19.9893 C   0  0  0  0  0  0
  -30.3770  -22.6401   18.1710 C   0  0  0  0  0  0
  -31.4948  -22.6853   19.0525 C   0  0  0  0  0  0
  -32.5857  -21.6229   18.9641 C   0  0  0  0  0  0
  -32.5096  -22.7490   22.1422 C   0  0  0  0  0  0
  -32.7034  -23.8060   21.0438 C   0  0  0  0  0  0
  -30.1451  -21.5584   17.1047 C   0  0  0  0  0  0
  -28.7075  -26.0295   18.8500 C   0  0  0  0  0  0
  -30.3277  -20.0561   17.4343 C   0  0  0  0  0  0
  -29.6320  -19.5033   18.6940 C   0  0  0  0  0  0
  -29.4837  -17.9716   18.6042 C   0  0  0  0  0  0
  -29.0267  -17.2691   19.8951 C   0  0  0  0  0  0
  -30.1678  -16.8194   20.8461 C   0  0  0  0  0  0
  -30.0238  -15.3934   21.1698 N   0  0  0  0  0  0
  -31.4467  -12.3272   19.1031 H   0  0  0  0  0  0
  -30.2519  -11.2501   19.7667 H   0  0  0  0  0  0
  -29.6903  -11.8221   17.3825 H   0  0  0  0  0  0
  -29.6535  -13.5205   17.7890 H   0  0  0  0  0  0
  -27.7900  -11.3357   18.7731 H   0  0  0  0  0  0
  -27.3470  -12.6988   17.7800 H   0  0  0  0  0  0
  -27.7105  -14.2597   19.6236 H   0  0  0  0  0  0
  -28.6639  -11.8942   21.3035 H   0  0  0  0  0  0
  -28.4761  -13.5092   21.8983 H   0  0  0  0  0  0
  -25.2810   -9.5652   22.4646 H   0  0  0  0  0  0
  -24.0056   -7.4604   22.7407 H   0  0  0  0  0  0
  -21.0870   -8.8733   19.8902 H   0  0  0  0  0  0
  -22.3730  -10.9622   19.6074 H   0  0  0  0  0  0
  -21.2046   -7.6158   23.9703 H   0  0  0  0  0  0
  -21.1458   -6.0520   25.9065 H   0  0  0  0  0  0
  -22.0611   -2.7599   23.2827 H   0  0  0  0  0  0
  -22.4350  -11.9827   22.4821 H   0  0  0  0  0  0
  -21.1110  -13.0918   22.2662 H   0  0  0  0  0  0
  -24.6343  -15.8349   20.5179 H   0  0  0  0  0  0
  -26.2588  -15.6450   20.0998 H   0  0  0  0  0  0
  -26.7107  -32.5539   23.1159 H   0  0  0  0  0  0
  -25.0102  -33.9801   25.0493 H   0  0  0  0  0  0
  -22.6830  -31.3139   21.4234 H   0  0  0  0  0  0
  -23.3762  -35.9644   23.3312 H   0  0  0  0  0  0
  -24.3582  -36.8907   22.2043 H   0  0  0  0  0  0
  -23.7251  -37.6521   23.6632 H   0  0  0  0  0  0
  -26.0468  -31.6087   20.6057 H   0  0  0  0  0  0
  -26.8106  -30.8778   21.9914 H   0  0  0  0  0  0
  -28.0934  -29.1116   21.1481 H   0  0  0  0  0  0
  -25.9688  -25.9536   19.0869 H   0  0  0  0  0  0
  -23.9406  -27.2910   19.0869 H   0  0  0  0  0  0
  -23.6940  -30.6054   19.4079 H   0  0  0  0  0  0
  -22.7215  -29.2479   19.8854 H   0  0  0  0  0  0
  -25.1303  -36.1979   25.0827 H   0  0  0  0  0  0
  -20.9934  -28.3227   24.1462 H   0  0  0  0  0  0
  -20.5727  -26.2265   23.3597 H   0  0  0  0  0  0
  -21.6650  -26.7493   22.1187 H   0  0  0  0  0  0
  -19.6929  -25.6302   21.1241 H   0  0  0  0  0  0
  -19.6697  -27.3204   20.6756 H   0  0  0  0  0  0
  -17.4210  -26.6687   21.4008 H   0  0  0  0  0  0
  -18.0317  -26.0050   22.8999 H   0  0  0  0  0  0
  -19.7922  -30.7268   24.2271 H   0  0  0  0  0  0
  -17.5002  -31.6265   24.5160 H   0  0  0  0  0  0
  -15.5342  -30.2979   23.7657 H   0  0  0  0  0  0
  -15.8663  -28.0811   22.7068 H   0  0  0  0  0  0
  -24.5910  -30.7058   25.7798 H   0  0  0  0  0  0
  -24.8929  -32.2864   26.4916 H   0  0  0  0  0  0
  -25.8094  -30.8872   27.0210 H   0  0  0  0  0  0
  -26.2813  -29.6826   24.1138 H   0  0  0  0  0  0
  -27.4017  -29.7258   25.4552 H   0  0  0  0  0  0
  -27.8667  -30.4339   23.9254 H   0  0  0  0  0  0
  -27.2633  -33.3618   26.2079 H   0  0  0  0  0  0
  -28.3826  -32.6922   25.0302 H   0  0  0  0  0  0
  -28.0714  -31.8446   26.5382 H   0  0  0  0  0  0
  -28.2608  -38.0118   24.7532 H   0  0  0  0  0  0
  -28.1100  -36.2648   24.6263 H   0  0  0  0  0  0
  -27.2308  -37.1436   25.8862 H   0  0  0  0  0  0
  -20.9294  -29.8697   21.6920 H   0  0  0  0  0  0
  -26.0196  -38.2881   24.1406 H   0  0  0  0  0  0
  -30.7837  -25.6571   20.6340 H   0  0  0  0  0  0
  -28.6446  -23.7281   17.4648 H   0  0  0  0  0  0
  -33.5242  -21.9293   19.4151 H   0  0  0  0  0  0
  -32.8274  -21.3958   17.9254 H   0  0  0  0  0  0
  -32.2742  -20.7072   19.4639 H   0  0  0  0  0  0
  -33.3049  -22.8096   22.8866 H   0  0  0  0  0  0
  -32.5169  -21.7357   21.7403 H   0  0  0  0  0  0
  -31.5597  -22.8943   22.6574 H   0  0  0  0  0  0
  -32.7098  -24.7925   21.5093 H   0  0  0  0  0  0
  -33.6854  -23.7146   20.5785 H   0  0  0  0  0  0
  -30.7658  -21.8067   16.2442 H   0  0  0  0  0  0
  -29.1207  -21.6678   16.7459 H   0  0  0  0  0  0
  -27.8376  -25.6858   18.2990 H   0  0  0  0  0  0
  -29.2026  -26.7382   18.1863 H   0  0  0  0  0  0
  -31.3822  -19.7899   17.4653 H   0  0  0  0  0  0
  -29.9468  -19.5142   16.5672 H   0  0  0  0  0  0
  -28.6416  -19.9525   18.7938 H   0  0  0  0  0  0
  -30.1920  -19.7727   19.5884 H   0  0  0  0  0  0
  -30.4031  -17.5112   18.2388 H   0  0  0  0  0  0
  -28.7379  -17.7609   17.8365 H   0  0  0  0  0  0
  -28.4751  -16.3891   19.5680 H   0  0  0  0  0  0
  -28.2912  -17.8779   20.4229 H   0  0  0  0  0  0
  -30.1555  -17.3985   21.7710 H   0  0  0  0  0  0
  -31.1385  -17.0238   20.3929 H   0  0  0  0  0  0
  -29.1813  -15.1163   21.6523 H   0  0  0  0  0  0
  1 25  1  0  0  0
  1 30  2  0  0  0
  1 87  1  0  0  0
  2  3  1  0  0  0
  2 25  1  0  0  0
  2 88  1  0  0  0
  2 89  1  0  0  0
  3  4  1  0  0  0
  3 90  1  0  0  0
  3 91  1  0  0  0
  4  5  1  0  0  0
  4 92  1  0  0  0
  4 93  1  0  0  0
  5  6  1  0  0  0
  5 26  1  0  0  0
  5 94  1  0  0  0
  6 25  1  0  0  0
  6 95  1  0  0  0
  6 96  1  0  0  0
  7  8  2  0  0  0
  7 26  1  0  0  0
  7 29  1  0  0  0
  8  9  1  0  0  0
  8 22  1  0  0  0
  9 10  1  0  0  0
  9 27  2  0  0  0
 10 11  2  0  0  0
 10 15  1  0  0  0
 11 12  1  0  0  0
 11 97  1  0  0  0
 12 13  2  0  0  0
 12 98  1  0  0  0
 13 14  1  0  0  0
 13 31  1  0  0  0
 14 15  2  0  0  0
 14 99  1  0  0  0
 15100  1  0  0  0
 16 17  2  0  0  0
 16 21  1  0  0  0
 16 31  1  0  0  0
 17 18  1  0  0  0
 17101  1  0  0  0
 18 19  2  0  0  0
 18102  1  0  0  0
 19 20  1  0  0  0
 19 24  1  0  0  0
 20 21  2  0  0  0
 20103  1  0  0  0
 21 23  1  0  0  0
 22 28  1  0  0  0
 22 32  2  0  0  0
 26 27  1  0  0  0
 28104  1  0  0  0
 28105  1  0  0  0
 29106  1  0  0  0
 29107  1  0  0  0
 33 34  1  0  0  0
 33 66  1  0  0  0
 33 70  2  0  0  0
 34 36  1  0  0  0
 34 59  1  0  0  0
 34108  1  0  0  0
 35 44  2  0  0  0
 35 45  1  0  0  0
 35 68  1  0  0  0
 36 56  1  0  0  0
 36109  1  0  0  0
 37 39  1  0  0  0
 37 47  1  0  0  0
 37 66  1  0  0  0
 37110  1  0  0  0
 38 43  2  0  0  0
 38 46  1  0  0  0
 38 47  1  0  0  0
 39 64  1  0  0  0
 39 67  2  0  0  0
 40 52  1  0  0  0
 40 53  2  0  0  0
 40 58  1  0  0  0
 41111  1  0  0  0
 41112  1  0  0  0
 41113  1  0  0  0
 41 48  1  0  0  0
 42 43  1  0  0  0
 42 66  1  0  0  0
 42114  1  0  0  0
 42115  1  0  0  0
 43 44  1  0  0  0
 44116  1  0  0  0
 45 46  2  0  0  0
 45117  1  0  0  0
 46118  1  0  0  0
 47119  1  0  0  0
 47120  1  0  0  0
 48 56  1  0  0  0
 48 65  1  0  0  0
 48121  1  0  0  0
 49 50  1  0  0  0
 49 53  1  0  0  0
 49 64  1  0  0  0
 49122  1  0  0  0
 50 51  1  0  0  0
 50123  1  0  0  0
 50124  1  0  0  0
 51 52  1  0  0  0
 51125  1  0  0  0
 51126  1  0  0  0
 52127  1  0  0  0
 52128  1  0  0  0
 53 54  1  0  0  0
 54 55  2  0  0  0
 54129  1  0  0  0
 55 57  1  0  0  0
 55130  1  0  0  0
 56 69  2  0  0  0
 57 58  2  0  0  0
 57131  1  0  0  0
 58132  1  0  0  0
 59 60  1  0  0  0
 59 61  1  0  0  0
 59 62  1  0  0  0
 60133  1  0  0  0
 60134  1  0  0  0
 60135  1  0  0  0
 61136  1  0  0  0
 61137  1  0  0  0
 61138  1  0  0  0
 62139  1  0  0  0
 62140  1  0  0  0
 62141  1  0  0  0
 63 65  1  0  0  0
 63142  1  0  0  0
 63143  1  0  0  0
 63144  1  0  0  0
 64145  1  0  0  0
 65146  1  0  0  0
 68 81  1  0  0  0
 71 73  2  0  0  0
 71 74  1  0  0  0
 71147  1  0  0  0
 72 73  1  0  0  0
 72 75  2  0  0  0
 72148  1  0  0  0
 73 81  1  0  0  0
 74 76  2  0  0  0
 74 79  1  0  0  0
 75 76  1  0  0  0
 75 80  1  0  0  0
 76 77  1  0  0  0
 77149  1  0  0  0
 77150  1  0  0  0
 77151  1  0  0  0
 78 79  1  0  0  0
 78152  1  0  0  0
 78153  1  0  0  0
 78154  1  0  0  0
 79155  1  0  0  0
 79156  1  0  0  0
 80 82  1  0  0  0
 80157  1  0  0  0
 80158  1  0  0  0
 81159  1  0  0  0
 81160  1  0  0  0
 82 83  1  0  0  0
 82161  1  0  0  0
 82162  1  0  0  0
 83 84  1  0  0  0
 83163  1  0  0  0
 83164  1  0  0  0
 84 85  1  0  0  0
 84165  1  0  0  0
 84166  1  0  0  0
 85 86  1  0  0  0
 85167  1  0  0  0
 85168  1  0  0  0
 86 87  1  0  0  0
 86169  1  0  0  0
 86170  1  0  0  0
 87171  1  0  0  0
M  ISO  4   1 100  68 101  81 101  87 100
M  END
> <chiral flag>
0

> <version>
0

> <s_m_source_file>
/data/baiqing/PycharmProjects/Reinvent-master-3.2/result/LINK_invent/BTK/process_docking_weight1_custom_sum_contain_oxygen_bond_distance_aromatic_linkinvent_7_9_3/rearranged_h_0039.sdf

> <i_m_source_file_index>
56

> <r_mmod_Potential_Energy-OPLS-2005>
-7.22899484634399

> <r_mmod_Stretch_Energy-OPLS-2005>
36.9232902526855

> <r_mmod_Bend_Energy-OPLS-2005>
109.833755493164

> <r_mmod_Torsional_Energy-OPLS-2005>
249.5849609375

> <r_mmod_Improper_Torsional_Energy-OPLS-2005>
5.55041408538818

> <r_mmod_Van_der_Waal_Energy-OPLS-2005>
164.082656860352

> <r_mmod_Electrostatic_Energy-OPLS-2005>
-380.238403320312

> <r_mmod_Solvation_Energy-OPLS-2005>
-202.350921630859

> <b_mmod_Minimization_Converged-OPLS-2005>
0

> <r_mmod_RMS_Derivative-OPLS-2005>
3.69076204299927

$$$$
57
                    3D
 Structure written by MMmdl.
158166  0  0  1  0            999 V2000
  -30.7354  -14.4531   20.5630 C   0  0  0  0  0  0
  -30.4202  -12.2790   19.4590 C   0  0  0  0  0  0
  -29.5126  -12.4997   18.2328 C   0  0  0  0  0  0
  -28.0295  -12.3660   18.6281 C   0  0  0  0  0  0
  -27.6686  -13.2102   19.8810 C   0  0  2  0  0  0
  -28.7050  -13.0182   21.0151 C   0  0  0  0  0  0
  -25.2579  -13.8199   20.5678 C   0  0  0  0  0  0
  -24.1822  -13.0483   20.9191 C   0  0  0  0  0  0
  -24.6384  -11.6942   20.8766 C   0  0  0  0  0  0
  -23.9067  -10.4321   21.0431 C   0  0  0  0  0  0
  -24.3616   -9.4218   21.9197 C   0  0  0  0  0  0
  -23.6280   -8.2262   22.0769 C   0  0  0  0  0  0
  -22.4267   -8.0308   21.3548 C   0  0  0  0  0  0
  -21.9910   -9.0302   20.4658 C   0  0  0  0  0  0
  -22.7259  -10.2165   20.3058 C   0  0  0  0  0  0
  -21.6844   -6.0731   22.5284 C   0  0  0  0  0  0
  -21.4025   -6.5617   23.8233 C   0  0  0  0  0  0
  -21.3670   -5.6761   24.9190 C   0  0  0  0  0  0
  -21.6048   -4.3024   24.7220 C   0  0  0  0  0  0
  -21.8813   -3.8122   23.4335 C   0  0  0  0  0  0
  -21.9183   -4.6954   22.3403 C   0  0  0  0  0  0
  -22.7829  -13.5297   21.1829 C   0  0  0  0  0  0
  -22.1647   -4.2143   21.0969 F   0  0  0  0  0  0
  -21.5656   -3.4508   25.7733 F   0  0  0  0  0  0
  -30.0459  -13.2846   20.4675 N   0  0  0  0  0  0
  -26.3042  -12.9374   20.3380 N   0  0  0  0  0  0
  -25.9310  -11.6535   20.5788 N   0  0  0  0  0  0
  -22.0411  -12.8348   22.0380 N   0  0  0  0  0  0
  -25.4273  -15.1933   20.4066 N   0  0  0  0  0  0
  -31.8478  -14.6172   20.0576 O   0  0  0  0  0  0
  -21.6619   -6.8898   21.4255 O   0  0  0  0  0  0
  -22.3549  -14.5627   20.6678 O   0  0  0  0  0  0
  -24.6167  -31.8682   23.2091 C   0  0  0  0  0  0
  -25.9062  -32.4835   23.8379 C   0  0  1  0  0  0
  -27.2246  -27.4205   20.0870 C   0  0  0  0  0  0
  -25.5923  -33.8628   24.2319 N   0  0  0  0  0  0
  -23.4042  -30.4924   21.5541 C   0  0  2  0  0  0
  -24.8478  -28.9671   20.1089 C   0  0  0  0  0  0
  -22.7420  -29.4648   22.5013 C   0  0  0  0  0  0
  -18.0265  -28.1372   22.8493 C   0  0  0  0  0  0
  -24.1498  -36.7312   23.2628 C   0  0  0  0  0  0
  -25.9359  -30.8315   21.3627 C   0  0  0  0  0  0
  -26.0128  -29.4689   20.7027 C   0  0  0  0  0  0
  -27.2065  -28.7052   20.6830 C   0  0  0  0  0  0
  -26.0399  -26.9523   19.4683 C   0  0  0  0  0  0
  -24.8568  -27.7100   19.4874 C   0  0  0  0  0  0
  -23.6102  -29.8328   20.1663 C   0  0  0  0  0  0
  -25.4121  -36.3119   24.0333 C   0  0  1  0  0  0
  -20.5851  -28.3643   23.1337 C   0  0  2  0  0  0
  -20.6759  -26.9392   22.5400 C   0  0  0  0  0  0
  -19.5747  -26.6404   21.5181 C   0  0  0  0  0  0
  -18.1923  -26.7929   22.1597 C   0  0  0  0  0  0
  -19.1510  -28.8829   23.2911 C   0  0  0  0  0  0
  -18.9437  -30.1437   23.8914 C   0  0  0  0  0  0
  -17.6438  -30.6579   24.0556 C   0  0  0  0  0  0
  -25.9045  -34.9484   23.5116 C   0  0  0  0  0  0
  -16.5328  -29.9071   23.6336 C   0  0  0  0  0  0
  -16.7249  -28.6489   23.0353 C   0  0  0  0  0  0
  -26.4482  -31.6613   25.0713 C   0  0  0  0  0  0
  -25.3773  -31.3692   26.1487 C   0  0  0  0  0  0
  -27.0292  -30.3055   24.6067 C   0  0  0  0  0  0
  -27.6064  -32.4325   25.7474 C   0  0  0  0  0  0
  -27.5587  -37.1808   24.8470 C   0  0  0  0  0  0
  -21.4141  -29.3020   22.3761 N   0  0  0  0  0  0
  -26.4306  -37.3804   23.9410 N   0  0  0  0  0  0
  -24.6714  -31.0766   22.1007 N   0  0  0  0  0  0
  -23.4181  -28.8197   23.3065 O   0  0  0  0  0  0
  -28.3720  -26.6426   20.1331 O   0  0  0  0  0  0
  -26.5595  -34.8936   22.4669 O   0  0  0  0  0  0
  -23.5357  -32.1433   23.7495 O   0  0  0  0  0  0
  -29.3526  -21.8091   20.8004 C   0  0  0  0  0  0
  -27.6976  -22.8808   22.1884 C   0  0  0  0  0  0
  -28.7734  -23.0024   21.2964 C   0  0  0  0  0  0
  -28.7984  -20.5469   21.1556 C   0  0  0  0  0  0
  -27.6410  -20.5653   21.9755 C   0  0  0  0  0  0
  -26.8153  -19.3344   22.3041 C   0  0  0  0  0  0
  -29.2505  -24.4080   20.8983 C   0  0  0  0  0  0
  -29.4107  -19.2622   20.5496 C   0  0  0  0  0  0
  -29.5998  -17.9988   21.4480 C   0  0  0  0  0  0
  -30.4357  -16.8974   20.7399 C   0  0  0  0  0  0
  -28.1694  -25.2105   20.1264 C   0  0  0  0  0  0
  -27.1369  -21.7005   22.5041 N   0  0  0  0  0  0
  -30.0718  -15.5063   21.0754 N   0  0  0  0  0  0
  -31.4729  -12.3393   19.1729 H   0  0  0  0  0  0
  -30.2861  -11.2759   19.8668 H   0  0  0  0  0  0
  -29.7628  -11.7889   17.4445 H   0  0  0  0  0  0
  -29.7015  -13.4913   17.8191 H   0  0  0  0  0  0
  -27.8317  -11.3127   18.8287 H   0  0  0  0  0  0
  -27.3943  -12.6438   17.7869 H   0  0  0  0  0  0
  -27.7140  -14.2549   19.5721 H   0  0  0  0  0  0
  -28.6656  -12.0019   21.4125 H   0  0  0  0  0  0
  -28.4702  -13.6722   21.8548 H   0  0  0  0  0  0
  -25.2762   -9.5685   22.4768 H   0  0  0  0  0  0
  -23.9965   -7.4658   22.7490 H   0  0  0  0  0  0
  -21.0837   -8.8875   19.8964 H   0  0  0  0  0  0
  -22.3770  -10.9725   19.6157 H   0  0  0  0  0  0
  -21.2026   -7.6118   23.9763 H   0  0  0  0  0  0
  -21.1507   -6.0463   25.9110 H   0  0  0  0  0  0
  -22.0577   -2.7579   23.2841 H   0  0  0  0  0  0
  -22.3939  -11.9979   22.4786 H   0  0  0  0  0  0
  -21.1067  -13.1503   22.2604 H   0  0  0  0  0  0
  -24.6585  -15.8444   20.5204 H   0  0  0  0  0  0
  -26.2672  -15.6313   20.0526 H   0  0  0  0  0  0
  -26.7144  -32.5540   23.1151 H   0  0  0  0  0  0
  -25.0132  -33.9793   25.0498 H   0  0  0  0  0  0
  -22.6914  -31.3091   21.4194 H   0  0  0  0  0  0
  -23.3761  -35.9643   23.3305 H   0  0  0  0  0  0
  -24.3583  -36.8899   22.2036 H   0  0  0  0  0  0
  -23.7254  -37.6521   23.6626 H   0  0  0  0  0  0
  -26.0522  -31.6033   20.5993 H   0  0  0  0  0  0
  -26.8213  -30.8788   21.9847 H   0  0  0  0  0  0
  -28.1060  -29.0878   21.1442 H   0  0  0  0  0  0
  -26.0047  -25.9946   18.9692 H   0  0  0  0  0  0
  -23.9656  -27.3179   19.0161 H   0  0  0  0  0  0
  -23.7175  -30.6115   19.4104 H   0  0  0  0  0  0
  -22.7331  -29.2559   19.8714 H   0  0  0  0  0  0
  -25.1298  -36.1967   25.0825 H   0  0  0  0  0  0
  -20.9924  -28.3179   24.1460 H   0  0  0  0  0  0
  -20.5668  -26.2224   23.3556 H   0  0  0  0  0  0
  -21.6636  -26.7470   22.1179 H   0  0  0  0  0  0
  -19.6909  -25.6329   21.1178 H   0  0  0  0  0  0
  -19.6693  -27.3245   20.6739 H   0  0  0  0  0  0
  -17.4191  -26.6676   21.3994 H   0  0  0  0  0  0
  -18.0334  -26.0046   22.8977 H   0  0  0  0  0  0
  -19.7908  -30.7252   24.2277 H   0  0  0  0  0  0
  -17.4990  -31.6261   24.5158 H   0  0  0  0  0  0
  -15.5327  -30.2973   23.7664 H   0  0  0  0  0  0
  -15.8643  -28.0814   22.7065 H   0  0  0  0  0  0
  -24.5958  -30.7023   25.7831 H   0  0  0  0  0  0
  -24.8967  -32.2837   26.4973 H   0  0  0  0  0  0
  -25.8179  -30.8847   27.0217 H   0  0  0  0  0  0
  -26.2802  -29.6826   24.1176 H   0  0  0  0  0  0
  -27.4114  -29.7286   25.4494 H   0  0  0  0  0  0
  -27.8622  -30.4356   23.9160 H   0  0  0  0  0  0
  -27.2681  -33.3604   26.2098 H   0  0  0  0  0  0
  -28.3853  -32.6923   25.0293 H   0  0  0  0  0  0
  -28.0772  -31.8433   26.5354 H   0  0  0  0  0  0
  -28.2627  -38.0082   24.7517 H   0  0  0  0  0  0
  -28.1059  -36.2621   24.6308 H   0  0  0  0  0  0
  -27.2304  -37.1481   25.8870 H   0  0  0  0  0  0
  -20.9280  -29.8732   21.6988 H   0  0  0  0  0  0
  -26.0193  -38.2877   24.1407 H   0  0  0  0  0  0
  -30.1971  -21.8650   20.1282 H   0  0  0  0  0  0
  -27.2480  -23.7549   22.6371 H   0  0  0  0  0  0
  -25.8268  -19.6151   22.6717 H   0  0  0  0  0  0
  -27.2965  -18.7493   23.0880 H   0  0  0  0  0  0
  -26.6590  -18.7102   21.4222 H   0  0  0  0  0  0
  -30.1690  -24.3559   20.3138 H   0  0  0  0  0  0
  -29.4987  -24.9475   21.8130 H   0  0  0  0  0  0
  -30.3900  -19.5226   20.1447 H   0  0  0  0  0  0
  -28.8052  -18.9832   19.6850 H   0  0  0  0  0  0
  -28.6389  -17.5764   21.7269 H   0  0  0  0  0  0
  -30.0979  -18.2759   22.3788 H   0  0  0  0  0  0
  -31.4964  -17.0670   20.9438 H   0  0  0  0  0  0
  -30.3243  -16.9924   19.6566 H   0  0  0  0  0  0
  -27.2125  -24.9890   20.6010 H   0  0  0  0  0  0
  -28.1008  -24.8432   19.1006 H   0  0  0  0  0  0
  -29.1669  -15.3235   21.4804 H   0  0  0  0  0  0
  1 25  1  0  0  0
  1 30  2  0  0  0
  1 83  1  0  0  0
  2  3  1  0  0  0
  2 25  1  0  0  0
  2 84  1  0  0  0
  2 85  1  0  0  0
  3  4  1  0  0  0
  3 86  1  0  0  0
  3 87  1  0  0  0
  4  5  1  0  0  0
  4 88  1  0  0  0
  4 89  1  0  0  0
  5  6  1  0  0  0
  5 26  1  0  0  0
  5 90  1  0  0  0
  6 25  1  0  0  0
  6 91  1  0  0  0
  6 92  1  0  0  0
  7  8  2  0  0  0
  7 26  1  0  0  0
  7 29  1  0  0  0
  8  9  1  0  0  0
  8 22  1  0  0  0
  9 10  1  0  0  0
  9 27  2  0  0  0
 10 11  2  0  0  0
 10 15  1  0  0  0
 11 12  1  0  0  0
 11 93  1  0  0  0
 12 13  2  0  0  0
 12 94  1  0  0  0
 13 14  1  0  0  0
 13 31  1  0  0  0
 14 15  2  0  0  0
 14 95  1  0  0  0
 15 96  1  0  0  0
 16 17  2  0  0  0
 16 21  1  0  0  0
 16 31  1  0  0  0
 17 18  1  0  0  0
 17 97  1  0  0  0
 18 19  2  0  0  0
 18 98  1  0  0  0
 19 20  1  0  0  0
 19 24  1  0  0  0
 20 21  2  0  0  0
 20 99  1  0  0  0
 21 23  1  0  0  0
 22 28  1  0  0  0
 22 32  2  0  0  0
 26 27  1  0  0  0
 28100  1  0  0  0
 28101  1  0  0  0
 29102  1  0  0  0
 29103  1  0  0  0
 33 34  1  0  0  0
 33 66  1  0  0  0
 33 70  2  0  0  0
 34 36  1  0  0  0
 34 59  1  0  0  0
 34104  1  0  0  0
 35 44  2  0  0  0
 35 45  1  0  0  0
 35 68  1  0  0  0
 36 56  1  0  0  0
 36105  1  0  0  0
 37 39  1  0  0  0
 37 47  1  0  0  0
 37 66  1  0  0  0
 37106  1  0  0  0
 38 43  2  0  0  0
 38 46  1  0  0  0
 38 47  1  0  0  0
 39 64  1  0  0  0
 39 67  2  0  0  0
 40 52  1  0  0  0
 40 53  2  0  0  0
 40 58  1  0  0  0
 41107  1  0  0  0
 41108  1  0  0  0
 41109  1  0  0  0
 41 48  1  0  0  0
 42 43  1  0  0  0
 42 66  1  0  0  0
 42110  1  0  0  0
 42111  1  0  0  0
 43 44  1  0  0  0
 44112  1  0  0  0
 45 46  2  0  0  0
 45113  1  0  0  0
 46114  1  0  0  0
 47115  1  0  0  0
 47116  1  0  0  0
 48 56  1  0  0  0
 48 65  1  0  0  0
 48117  1  0  0  0
 49 50  1  0  0  0
 49 53  1  0  0  0
 49 64  1  0  0  0
 49118  1  0  0  0
 50 51  1  0  0  0
 50119  1  0  0  0
 50120  1  0  0  0
 51 52  1  0  0  0
 51121  1  0  0  0
 51122  1  0  0  0
 52123  1  0  0  0
 52124  1  0  0  0
 53 54  1  0  0  0
 54 55  2  0  0  0
 54125  1  0  0  0
 55 57  1  0  0  0
 55126  1  0  0  0
 56 69  2  0  0  0
 57 58  2  0  0  0
 57127  1  0  0  0
 58128  1  0  0  0
 59 60  1  0  0  0
 59 61  1  0  0  0
 59 62  1  0  0  0
 60129  1  0  0  0
 60130  1  0  0  0
 60131  1  0  0  0
 61132  1  0  0  0
 61133  1  0  0  0
 61134  1  0  0  0
 62135  1  0  0  0
 62136  1  0  0  0
 62137  1  0  0  0
 63 65  1  0  0  0
 63138  1  0  0  0
 63139  1  0  0  0
 63140  1  0  0  0
 64141  1  0  0  0
 65142  1  0  0  0
 68 81  1  0  0  0
 71 73  2  0  0  0
 71 74  1  0  0  0
 71143  1  0  0  0
 72 73  1  0  0  0
 72 82  2  0  0  0
 72144  1  0  0  0
 73 77  1  0  0  0
 74 75  2  0  0  0
 74 78  1  0  0  0
 75 76  1  0  0  0
 75 82  1  0  0  0
 76145  1  0  0  0
 76146  1  0  0  0
 76147  1  0  0  0
 77 81  1  0  0  0
 77148  1  0  0  0
 77149  1  0  0  0
 78 79  1  0  0  0
 78150  1  0  0  0
 78151  1  0  0  0
 79 80  1  0  0  0
 79152  1  0  0  0
 79153  1  0  0  0
 80 83  1  0  0  0
 80154  1  0  0  0
 80155  1  0  0  0
 81156  1  0  0  0
 81157  1  0  0  0
 83158  1  0  0  0
M  ISO  4   1 100  68 101  81 101  83 100
M  END
> <chiral flag>
0

> <version>
0

> <s_m_source_file>
/data/baiqing/PycharmProjects/Reinvent-master-3.2/result/LINK_invent/BTK/process_docking_weight1_custom_sum_contain_oxygen_bond_distance_aromatic_linkinvent_7_9_3/rearranged_h_0039.sdf

> <i_m_source_file_index>
57

> <r_mmod_Potential_Energy-OPLS-2005>
-208.686218261719

> <r_mmod_Stretch_Energy-OPLS-2005>
42.3942413330078

> <r_mmod_Bend_Energy-OPLS-2005>
102.008483886719

> <r_mmod_Torsional_Energy-OPLS-2005>
214.755844116211

> <r_mmod_Improper_Torsional_Energy-OPLS-2005>
5.27830839157104

> <r_mmod_Van_der_Waal_Energy-OPLS-2005>
162.565521240234

> <r_mmod_Electrostatic_Energy-OPLS-2005>
-525.468383789062

> <r_mmod_Solvation_Energy-OPLS-2005>
-225.806335449219

> <b_mmod_Minimization_Converged-OPLS-2005>
0

> <r_mmod_RMS_Derivative-OPLS-2005>
3.61044859886169

$$$$
58
                    3D
 Structure written by MMmdl.
171179  0  0  1  0            999 V2000
  -30.6908  -14.4204   20.5531 C   0  0  0  0  0  0
  -30.4216  -12.2573   19.4312 C   0  0  0  0  0  0
  -29.4992  -12.4967   18.2169 C   0  0  0  0  0  0
  -28.0147  -12.3759   18.6172 C   0  0  0  0  0  0
  -27.6669  -13.1984   19.8862 C   0  0  2  0  0  0
  -28.7039  -12.9479   21.0078 C   0  0  0  0  0  0
  -25.2605  -13.8157   20.5663 C   0  0  0  0  0  0
  -24.1843  -13.0444   20.9157 C   0  0  0  0  0  0
  -24.6391  -11.6899   20.8746 C   0  0  0  0  0  0
  -23.9059  -10.4284   21.0414 C   0  0  0  0  0  0
  -24.3609   -9.4199   21.9196 C   0  0  0  0  0  0
  -23.6281   -8.2247   22.0771 C   0  0  0  0  0  0
  -22.4271   -8.0299   21.3563 C   0  0  0  0  0  0
  -21.9903   -9.0274   20.4677 C   0  0  0  0  0  0
  -22.7231  -10.2148   20.3071 C   0  0  0  0  0  0
  -21.6854   -6.0746   22.5275 C   0  0  0  0  0  0
  -21.4018   -6.5644   23.8212 C   0  0  0  0  0  0
  -21.3645   -5.6803   24.9181 C   0  0  0  0  0  0
  -21.6023   -4.3063   24.7239 C   0  0  0  0  0  0
  -21.8810   -3.8156   23.4362 C   0  0  0  0  0  0
  -21.9178   -4.6967   22.3408 C   0  0  0  0  0  0
  -22.7859  -13.5248   21.1814 C   0  0  0  0  0  0
  -22.1644   -4.2143   21.0991 F   0  0  0  0  0  0
  -21.5609   -3.4550   25.7756 F   0  0  0  0  0  0
  -30.0469  -13.2283   20.4671 N   0  0  0  0  0  0
  -26.3046  -12.9300   20.3425 N   0  0  0  0  0  0
  -25.9325  -11.6466   20.5818 N   0  0  0  0  0  0
  -22.0513  -12.8276   22.0406 N   0  0  0  0  0  0
  -25.4312  -15.1875   20.3983 N   0  0  0  0  0  0
  -31.8061  -14.6340   20.0711 O   0  0  0  0  0  0
  -21.6628   -6.8906   21.4253 O   0  0  0  0  0  0
  -22.3516  -14.5532   20.6649 O   0  0  0  0  0  0
  -24.6116  -31.8719   23.2127 C   0  0  0  0  0  0
  -25.9027  -32.4851   23.8403 C   0  0  1  0  0  0
  -27.2253  -27.4765   20.0652 C   0  0  0  0  0  0
  -25.5887  -33.8634   24.2343 N   0  0  0  0  0  0
  -23.3949  -30.4975   21.5553 C   0  0  2  0  0  0
  -24.8365  -28.9630   20.1190 C   0  0  0  0  0  0
  -22.7363  -29.4697   22.5031 C   0  0  0  0  0  0
  -18.0264  -28.1368   22.8509 C   0  0  0  0  0  0
  -24.1485  -36.7344   23.2644 C   0  0  0  0  0  0
  -25.9194  -30.8488   21.3556 C   0  0  0  0  0  0
  -25.9981  -29.4843   20.7029 C   0  0  0  0  0  0
  -27.2006  -28.7471   20.6747 C   0  0  0  0  0  0
  -26.0528  -26.9595   19.4821 C   0  0  0  0  0  0
  -24.8530  -27.6945   19.5120 C   0  0  0  0  0  0
  -23.5973  -29.8258   20.1712 C   0  0  0  0  0  0
  -25.4102  -36.3125   24.0345 C   0  0  1  0  0  0
  -20.5855  -28.3652   23.1333 C   0  0  2  0  0  0
  -20.6754  -26.9401   22.5416 C   0  0  0  0  0  0
  -19.5733  -26.6386   21.5207 C   0  0  0  0  0  0
  -18.1914  -26.7922   22.1627 C   0  0  0  0  0  0
  -19.1524  -28.8817   23.2918 C   0  0  0  0  0  0
  -18.9446  -30.1423   23.8925 C   0  0  0  0  0  0
  -17.6458  -30.6586   24.0562 C   0  0  0  0  0  0
  -25.9026  -34.9484   23.5128 C   0  0  0  0  0  0
  -16.5344  -29.9092   23.6317 C   0  0  0  0  0  0
  -16.7255  -28.6499   23.0347 C   0  0  0  0  0  0
  -26.4458  -31.6617   25.0717 C   0  0  0  0  0  0
  -25.3741  -31.3726   26.1484 C   0  0  0  0  0  0
  -27.0279  -30.3058   24.6076 C   0  0  0  0  0  0
  -27.6039  -32.4326   25.7470 C   0  0  0  0  0  0
  -27.5578  -37.1824   24.8466 C   0  0  0  0  0  0
  -21.4104  -29.3046   22.3751 N   0  0  0  0  0  0
  -26.4295  -37.3799   23.9410 N   0  0  0  0  0  0
  -24.6612  -31.0851   22.1002 N   0  0  0  0  0  0
  -23.4151  -28.8246   23.3076 O   0  0  0  0  0  0
  -28.3876  -26.7517   20.0254 O   0  0  0  0  0  0
  -26.5582  -34.8924   22.4689 O   0  0  0  0  0  0
  -23.5320  -32.1433   23.7559 O   0  0  0  0  0  0
  -32.1171  -23.7512   23.6018 C   0  0  0  0  0  0
  -31.0327  -24.1574   21.0533 C   0  0  0  0  0  0
  -32.6697  -23.0698   22.4998 C   0  0  0  0  0  0
  -31.0074  -24.6042   23.4489 C   0  0  0  0  0  0
  -32.1174  -23.2676   21.2104 C   0  0  0  0  0  0
  -30.4393  -24.8015   22.1659 C   0  0  0  0  0  0
  -33.8398  -22.1314   22.7427 C   0  0  0  0  0  0
  -30.4366  -25.2789   24.6885 C   0  0  0  0  0  0
  -32.6336  -22.5316   19.9767 C   0  0  0  0  0  0
  -29.2032  -25.6949   22.0236 C   0  0  0  0  0  0
  -31.7085  -21.3776   19.5439 C   0  0  0  0  0  0
  -31.7460  -20.1564   20.4822 C   0  0  0  0  0  0
  -30.7570  -19.0681   20.0459 C   0  0  0  0  0  0
  -30.8554  -17.7646   20.8575 C   0  0  0  0  0  0
  -29.8631  -16.7278   20.3080 C   0  0  0  0  0  0
  -28.3326  -25.5322   20.7617 C   0  0  0  0  0  0
  -29.9083  -15.4241   20.9651 N   0  0  0  0  0  0
  -31.4682  -12.3480   19.1345 H   0  0  0  0  0  0
  -30.3086  -11.2384   19.8095 H   0  0  0  0  0  0
  -29.7308  -11.7856   17.4211 H   0  0  0  0  0  0
  -29.6885  -13.4912   17.8088 H   0  0  0  0  0  0
  -27.7967  -11.3214   18.7897 H   0  0  0  0  0  0
  -27.3755  -12.6862   17.7882 H   0  0  0  0  0  0
  -27.7197  -14.2500   19.6009 H   0  0  0  0  0  0
  -28.6574  -11.9134   21.3467 H   0  0  0  0  0  0
  -28.4762  -13.5485   21.8916 H   0  0  0  0  0  0
  -25.2763   -9.5642   22.4766 H   0  0  0  0  0  0
  -23.9962   -7.4630   22.7493 H   0  0  0  0  0  0
  -21.0824   -8.8816   19.9005 H   0  0  0  0  0  0
  -22.3701  -10.9699   19.6176 H   0  0  0  0  0  0
  -21.2044   -7.6157   23.9719 H   0  0  0  0  0  0
  -21.1459   -6.0545   25.9080 H   0  0  0  0  0  0
  -22.0604   -2.7619   23.2873 H   0  0  0  0  0  0
  -22.4109  -11.9923   22.4781 H   0  0  0  0  0  0
  -21.1162  -13.1364   22.2673 H   0  0  0  0  0  0
  -24.6668  -15.8459   20.5001 H   0  0  0  0  0  0
  -26.2871  -15.6298   20.0884 H   0  0  0  0  0  0
  -26.7099  -32.5584   23.1173 H   0  0  0  0  0  0
  -25.0019  -33.9788   25.0471 H   0  0  0  0  0  0
  -22.6854  -31.3155   21.4176 H   0  0  0  0  0  0
  -23.3721  -35.9706   23.3331 H   0  0  0  0  0  0
  -24.3573  -36.8921   22.2055 H   0  0  0  0  0  0
  -23.7260  -37.6572   23.6626 H   0  0  0  0  0  0
  -26.0172  -31.6158   20.5861 H   0  0  0  0  0  0
  -26.8122  -30.9058   21.9667 H   0  0  0  0  0  0
  -28.0990  -29.1456   21.1184 H   0  0  0  0  0  0
  -26.0676  -25.9901   19.0021 H   0  0  0  0  0  0
  -23.9603  -27.2872   19.0616 H   0  0  0  0  0  0
  -23.6992  -30.5966   19.4063 H   0  0  0  0  0  0
  -22.7202  -29.2441   19.8826 H   0  0  0  0  0  0
  -25.1277  -36.1996   25.0840 H   0  0  0  0  0  0
  -20.9937  -28.3210   24.1461 H   0  0  0  0  0  0
  -20.5631  -26.2276   23.3604 H   0  0  0  0  0  0
  -21.6623  -26.7442   22.1227 H   0  0  0  0  0  0
  -19.6889  -25.6292   21.1234 H   0  0  0  0  0  0
  -19.6661  -27.3192   20.6736 H   0  0  0  0  0  0
  -17.4181  -26.6668   21.4037 H   0  0  0  0  0  0
  -18.0322  -26.0054   22.9013 H   0  0  0  0  0  0
  -19.7920  -30.7225   24.2324 H   0  0  0  0  0  0
  -17.5013  -31.6273   24.5146 H   0  0  0  0  0  0
  -15.5343  -30.2995   23.7630 H   0  0  0  0  0  0
  -15.8655  -28.0814   22.7061 H   0  0  0  0  0  0
  -24.5901  -30.7087   25.7842 H   0  0  0  0  0  0
  -24.8954  -32.2879   26.4963 H   0  0  0  0  0  0
  -25.8104  -30.8880   27.0222 H   0  0  0  0  0  0
  -26.2806  -29.6836   24.1141 H   0  0  0  0  0  0
  -27.4058  -29.7295   25.4538 H   0  0  0  0  0  0
  -27.8631  -30.4396   23.9199 H   0  0  0  0  0  0
  -27.2662  -33.3602   26.2102 H   0  0  0  0  0  0
  -28.3807  -32.6926   25.0270 H   0  0  0  0  0  0
  -28.0749  -31.8420   26.5340 H   0  0  0  0  0  0
  -28.2625  -38.0092   24.7460 H   0  0  0  0  0  0
  -28.1033  -36.2618   24.6336 H   0  0  0  0  0  0
  -27.2286  -37.1525   25.8865 H   0  0  0  0  0  0
  -20.9250  -29.8782   21.6978 H   0  0  0  0  0  0
  -26.0197  -38.2891   24.1369 H   0  0  0  0  0  0
  -32.5387  -23.6043   24.5864 H   0  0  0  0  0  0
  -30.6533  -24.3070   20.0531 H   0  0  0  0  0  0
  -34.1831  -22.1901   23.7765 H   0  0  0  0  0  0
  -34.6897  -22.3835   22.1069 H   0  0  0  0  0  0
  -33.5540  -21.0979   22.5524 H   0  0  0  0  0  0
  -31.1639  -25.3149   25.4986 H   0  0  0  0  0  0
  -29.5680  -24.7257   25.0470 H   0  0  0  0  0  0
  -30.1295  -26.3060   24.4895 H   0  0  0  0  0  0
  -33.6506  -22.1650   20.1152 H   0  0  0  0  0  0
  -32.7084  -23.2490   19.1575 H   0  0  0  0  0  0
  -29.5255  -26.7335   22.1164 H   0  0  0  0  0  0
  -28.5506  -25.5145   22.8780 H   0  0  0  0  0  0
  -32.0012  -21.0608   18.5418 H   0  0  0  0  0  0
  -30.6840  -21.7412   19.4462 H   0  0  0  0  0  0
  -31.5060  -20.4637   21.4991 H   0  0  0  0  0  0
  -32.7574  -19.7484   20.5138 H   0  0  0  0  0  0
  -30.9111  -18.8418   18.9900 H   0  0  0  0  0  0
  -29.7430  -19.4604   20.1215 H   0  0  0  0  0  0
  -30.6570  -17.9563   21.9138 H   0  0  0  0  0  0
  -31.8718  -17.3765   20.7929 H   0  0  0  0  0  0
  -30.0288  -16.5858   19.2354 H   0  0  0  0  0  0
  -28.8446  -17.1097   20.4006 H   0  0  0  0  0  0
  -27.3176  -25.2773   21.0763 H   0  0  0  0  0  0
  -28.6202  -24.7075   20.1163 H   0  0  0  0  0  0
  -29.0520  -15.1347   21.4143 H   0  0  0  0  0  0
  1 25  1  0  0  0
  1 30  2  0  0  0
  1 87  1  0  0  0
  2  3  1  0  0  0
  2 25  1  0  0  0
  2 88  1  0  0  0
  2 89  1  0  0  0
  3  4  1  0  0  0
  3 90  1  0  0  0
  3 91  1  0  0  0
  4  5  1  0  0  0
  4 92  1  0  0  0
  4 93  1  0  0  0
  5  6  1  0  0  0
  5 26  1  0  0  0
  5 94  1  0  0  0
  6 25  1  0  0  0
  6 95  1  0  0  0
  6 96  1  0  0  0
  7  8  2  0  0  0
  7 26  1  0  0  0
  7 29  1  0  0  0
  8  9  1  0  0  0
  8 22  1  0  0  0
  9 10  1  0  0  0
  9 27  2  0  0  0
 10 11  2  0  0  0
 10 15  1  0  0  0
 11 12  1  0  0  0
 11 97  1  0  0  0
 12 13  2  0  0  0
 12 98  1  0  0  0
 13 14  1  0  0  0
 13 31  1  0  0  0
 14 15  2  0  0  0
 14 99  1  0  0  0
 15100  1  0  0  0
 16 17  2  0  0  0
 16 21  1  0  0  0
 16 31  1  0  0  0
 17 18  1  0  0  0
 17101  1  0  0  0
 18 19  2  0  0  0
 18102  1  0  0  0
 19 20  1  0  0  0
 19 24  1  0  0  0
 20 21  2  0  0  0
 20103  1  0  0  0
 21 23  1  0  0  0
 22 28  1  0  0  0
 22 32  2  0  0  0
 26 27  1  0  0  0
 28104  1  0  0  0
 28105  1  0  0  0
 29106  1  0  0  0
 29107  1  0  0  0
 33 34  1  0  0  0
 33 66  1  0  0  0
 33 70  2  0  0  0
 34 36  1  0  0  0
 34 59  1  0  0  0
 34108  1  0  0  0
 35 44  2  0  0  0
 35 45  1  0  0  0
 35 68  1  0  0  0
 36 56  1  0  0  0
 36109  1  0  0  0
 37 39  1  0  0  0
 37 47  1  0  0  0
 37 66  1  0  0  0
 37110  1  0  0  0
 38 43  2  0  0  0
 38 46  1  0  0  0
 38 47  1  0  0  0
 39 64  1  0  0  0
 39 67  2  0  0  0
 40 52  1  0  0  0
 40 53  2  0  0  0
 40 58  1  0  0  0
 41111  1  0  0  0
 41112  1  0  0  0
 41113  1  0  0  0
 41 48  1  0  0  0
 42 43  1  0  0  0
 42 66  1  0  0  0
 42114  1  0  0  0
 42115  1  0  0  0
 43 44  1  0  0  0
 44116  1  0  0  0
 45 46  2  0  0  0
 45117  1  0  0  0
 46118  1  0  0  0
 47119  1  0  0  0
 47120  1  0  0  0
 48 56  1  0  0  0
 48 65  1  0  0  0
 48121  1  0  0  0
 49 50  1  0  0  0
 49 53  1  0  0  0
 49 64  1  0  0  0
 49122  1  0  0  0
 50 51  1  0  0  0
 50123  1  0  0  0
 50124  1  0  0  0
 51 52  1  0  0  0
 51125  1  0  0  0
 51126  1  0  0  0
 52127  1  0  0  0
 52128  1  0  0  0
 53 54  1  0  0  0
 54 55  2  0  0  0
 54129  1  0  0  0
 55 57  1  0  0  0
 55130  1  0  0  0
 56 69  2  0  0  0
 57 58  2  0  0  0
 57131  1  0  0  0
 58132  1  0  0  0
 59 60  1  0  0  0
 59 61  1  0  0  0
 59 62  1  0  0  0
 60133  1  0  0  0
 60134  1  0  0  0
 60135  1  0  0  0
 61136  1  0  0  0
 61137  1  0  0  0
 61138  1  0  0  0
 62139  1  0  0  0
 62140  1  0  0  0
 62141  1  0  0  0
 63 65  1  0  0  0
 63142  1  0  0  0
 63143  1  0  0  0
 63144  1  0  0  0
 64145  1  0  0  0
 65146  1  0  0  0
 68 86  1  0  0  0
 71 73  2  0  0  0
 71 74  1  0  0  0
 71147  1  0  0  0
 72 75  2  0  0  0
 72 76  1  0  0  0
 72148  1  0  0  0
 73 75  1  0  0  0
 73 77  1  0  0  0
 74 76  2  0  0  0
 74 78  1  0  0  0
 75 79  1  0  0  0
 76 80  1  0  0  0
 77149  1  0  0  0
 77150  1  0  0  0
 77151  1  0  0  0
 78152  1  0  0  0
 78153  1  0  0  0
 78154  1  0  0  0
 79 81  1  0  0  0
 79155  1  0  0  0
 79156  1  0  0  0
 80 86  1  0  0  0
 80157  1  0  0  0
 80158  1  0  0  0
 81 82  1  0  0  0
 81159  1  0  0  0
 81160  1  0  0  0
 82 83  1  0  0  0
 82161  1  0  0  0
 82162  1  0  0  0
 83 84  1  0  0  0
 83163  1  0  0  0
 83164  1  0  0  0
 84 85  1  0  0  0
 84165  1  0  0  0
 84166  1  0  0  0
 85 87  1  0  0  0
 85167  1  0  0  0
 85168  1  0  0  0
 86169  1  0  0  0
 86170  1  0  0  0
 87171  1  0  0  0
M  ISO  4   1 100  68 101  86 101  87 100
M  END
> <chiral flag>
0

> <version>
0

> <s_m_source_file>
/data/baiqing/PycharmProjects/Reinvent-master-3.2/result/LINK_invent/BTK/process_docking_weight1_custom_sum_contain_oxygen_bond_distance_aromatic_linkinvent_7_9_3/rearranged_h_0039.sdf

> <i_m_source_file_index>
58

> <r_mmod_Potential_Energy-OPLS-2005>
-32.9891204833984

> <r_mmod_Stretch_Energy-OPLS-2005>
32.7458038330078

> <r_mmod_Bend_Energy-OPLS-2005>
93.3767166137695

> <r_mmod_Torsional_Energy-OPLS-2005>
249.952102661133

> <r_mmod_Improper_Torsional_Energy-OPLS-2005>
8.55489635467529

> <r_mmod_Van_der_Waal_Energy-OPLS-2005>
160.178817749023

> <r_mmod_Electrostatic_Energy-OPLS-2005>
-381.738006591797

> <r_mmod_Solvation_Energy-OPLS-2005>
-205.575286865234

> <b_mmod_Minimization_Converged-OPLS-2005>
0

> <r_mmod_RMS_Derivative-OPLS-2005>
3.33701753616333

$$$$
59
                    3D
 Structure written by MMmdl.
173181  0  0  1  0            999 V2000
  -30.7466  -14.4043   20.6592 C   0  0  0  0  0  0
  -30.4180  -12.3056   19.3969 C   0  0  0  0  0  0
  -29.4845  -12.5290   18.1918 C   0  0  0  0  0  0
  -28.0086  -12.3831   18.6083 C   0  0  0  0  0  0
  -27.6638  -13.2074   19.8763 C   0  0  2  0  0  0
  -28.7032  -12.9569   20.9907 C   0  0  0  0  0  0
  -25.2594  -13.8166   20.5668 C   0  0  0  0  0  0
  -24.1841  -13.0441   20.9156 C   0  0  0  0  0  0
  -24.6396  -11.6908   20.8713 C   0  0  0  0  0  0
  -23.9059  -10.4293   21.0393 C   0  0  0  0  0  0
  -24.3613   -9.4213   21.9175 C   0  0  0  0  0  0
  -23.6290   -8.2248   22.0752 C   0  0  0  0  0  0
  -22.4272   -8.0281   21.3543 C   0  0  0  0  0  0
  -21.9905   -9.0253   20.4644 C   0  0  0  0  0  0
  -22.7231  -10.2133   20.3049 C   0  0  0  0  0  0
  -21.6853   -6.0734   22.5278 C   0  0  0  0  0  0
  -21.4015   -6.5638   23.8211 C   0  0  0  0  0  0
  -21.3661   -5.6791   24.9173 C   0  0  0  0  0  0
  -21.6046   -4.3055   24.7224 C   0  0  0  0  0  0
  -21.8819   -3.8146   23.4345 C   0  0  0  0  0  0
  -21.9193   -4.6962   22.3403 C   0  0  0  0  0  0
  -22.7867  -13.5242   21.1835 C   0  0  0  0  0  0
  -22.1661   -4.2147   21.0979 F   0  0  0  0  0  0
  -21.5630   -3.4539   25.7738 F   0  0  0  0  0  0
  -30.0414  -13.2610   20.4497 N   0  0  0  0  0  0
  -26.3034  -12.9341   20.3356 N   0  0  0  0  0  0
  -25.9321  -11.6495   20.5739 N   0  0  0  0  0  0
  -22.0515  -12.8228   22.0394 N   0  0  0  0  0  0
  -25.4330  -15.1882   20.4109 N   0  0  0  0  0  0
  -31.8041  -14.6638   20.0780 O   0  0  0  0  0  0
  -21.6639   -6.8877   21.4240 O   0  0  0  0  0  0
  -22.3547  -14.5550   20.6695 O   0  0  0  0  0  0
  -24.6146  -31.8676   23.2109 C   0  0  0  0  0  0
  -25.9043  -32.4817   23.8398 C   0  0  1  0  0  0
  -27.2316  -27.4371   20.0883 C   0  0  0  0  0  0
  -25.5894  -33.8617   24.2322 N   0  0  0  0  0  0
  -23.4011  -30.4929   21.5520 C   0  0  2  0  0  0
  -24.8454  -28.9605   20.1150 C   0  0  0  0  0  0
  -22.7398  -29.4663   22.4995 C   0  0  0  0  0  0
  -18.0264  -28.1377   22.8488 C   0  0  0  0  0  0
  -24.1484  -36.7320   23.2638 C   0  0  0  0  0  0
  -25.9304  -30.8358   21.3613 C   0  0  0  0  0  0
  -26.0080  -29.4719   20.7047 C   0  0  0  0  0  0
  -27.2055  -28.7207   20.6814 C   0  0  0  0  0  0
  -26.0476  -26.9397   19.4971 C   0  0  0  0  0  0
  -24.8602  -27.6937   19.5083 C   0  0  0  0  0  0
  -23.6078  -29.8268   20.1661 C   0  0  0  0  0  0
  -25.4105  -36.3106   24.0334 C   0  0  1  0  0  0
  -20.5853  -28.3661   23.1320 C   0  0  2  0  0  0
  -20.6759  -26.9396   22.5417 C   0  0  0  0  0  0
  -19.5740  -26.6386   21.5208 C   0  0  0  0  0  0
  -18.1914  -26.7924   22.1617 C   0  0  0  0  0  0
  -19.1513  -28.8835   23.2901 C   0  0  0  0  0  0
  -18.9444  -30.1444   23.8907 C   0  0  0  0  0  0
  -17.6450  -30.6583   24.0570 C   0  0  0  0  0  0
  -25.9033  -34.9472   23.5124 C   0  0  0  0  0  0
  -16.5340  -29.9087   23.6330 C   0  0  0  0  0  0
  -16.7255  -28.6508   23.0341 C   0  0  0  0  0  0
  -26.4473  -31.6597   25.0726 C   0  0  0  0  0  0
  -25.3750  -31.3701   26.1483 C   0  0  0  0  0  0
  -27.0305  -30.3040   24.6101 C   0  0  0  0  0  0
  -27.6042  -32.4325   25.7490 C   0  0  0  0  0  0
  -27.5577  -37.1811   24.8462 C   0  0  0  0  0  0
  -21.4127  -29.3034   22.3735 N   0  0  0  0  0  0
  -26.4288  -37.3791   23.9407 N   0  0  0  0  0  0
  -24.6674  -31.0787   22.1002 N   0  0  0  0  0  0
  -23.4176  -28.8198   23.3027 O   0  0  0  0  0  0
  -28.4037  -26.7058   20.0973 O   0  0  0  0  0  0
  -26.5598  -34.8922   22.4687 O   0  0  0  0  0  0
  -23.5343  -32.1423   23.7513 O   0  0  0  0  0  0
  -28.1216  -21.8226   20.9109 C   0  0  0  0  0  0
  -28.5089  -20.5802   21.4518 C   0  0  0  0  0  0
  -28.7681  -19.4998   20.5694 C   0  0  0  0  0  0
  -28.0187  -21.9667   19.5182 C   0  0  0  0  0  0
  -28.6856  -19.7562   19.1759 C   0  0  0  0  0  0
  -28.6018  -20.4307   22.9603 C   0  0  0  0  0  0
  -26.7680  -15.8199   16.5536 C   0  0  0  0  0  0
  -29.0556  -18.0894   21.1125 C   0  0  0  0  0  0
  -27.4623  -23.2422   18.8887 C   0  0  0  0  0  0
  -28.9494  -18.6786   18.1300 C   0  0  0  0  0  0
  -28.0063  -16.6685   16.8623 C   0  0  0  0  0  0
  -30.5524  -17.7460   21.2509 C   0  0  0  0  0  0
  -28.3627  -24.4988   18.9488 C   0  0  0  0  0  0
  -27.6895  -17.8778   17.7571 C   0  0  0  0  0  0
  -30.8374  -16.4713   22.0791 C   0  0  0  0  0  0
  -28.2842  -25.2841   20.2772 C   0  0  0  0  0  0
  -28.3240  -20.9593   18.6723 N   0  0  0  0  0  0
  -30.2164  -15.2494   21.5564 N   0  0  0  0  0  0
  -31.4607  -12.4093   19.0917 H   0  0  0  0  0  0
  -30.3207  -11.2852   19.7705 H   0  0  0  0  0  0
  -29.7192  -11.8210   17.3960 H   0  0  0  0  0  0
  -29.6512  -13.5240   17.7755 H   0  0  0  0  0  0
  -27.8177  -11.3250   18.7909 H   0  0  0  0  0  0
  -27.3555  -12.6723   17.7840 H   0  0  0  0  0  0
  -27.7182  -14.2607   19.5989 H   0  0  0  0  0  0
  -28.6728  -11.9125   21.3047 H   0  0  0  0  0  0
  -28.4502  -13.5293   21.8833 H   0  0  0  0  0  0
  -25.2759   -9.5692   22.4743 H   0  0  0  0  0  0
  -24.0002   -7.4643   22.7474 H   0  0  0  0  0  0
  -21.0835   -8.8767   19.8952 H   0  0  0  0  0  0
  -22.3686  -10.9668   19.6155 H   0  0  0  0  0  0
  -21.2006   -7.6144   23.9713 H   0  0  0  0  0  0
  -21.1485   -6.0521   25.9075 H   0  0  0  0  0  0
  -22.0597   -2.7608   23.2846 H   0  0  0  0  0  0
  -22.4131  -11.9884   22.4767 H   0  0  0  0  0  0
  -21.1138  -13.1256   22.2615 H   0  0  0  0  0  0
  -24.6685  -15.8450   20.5185 H   0  0  0  0  0  0
  -26.2910  -15.6243   20.1013 H   0  0  0  0  0  0
  -26.7110  -32.5532   23.1160 H   0  0  0  0  0  0
  -25.0031  -33.9776   25.0458 H   0  0  0  0  0  0
  -22.6900  -31.3102   21.4145 H   0  0  0  0  0  0
  -23.3735  -35.9663   23.3311 H   0  0  0  0  0  0
  -24.3573  -36.8932   22.2049 H   0  0  0  0  0  0
  -23.7257  -37.6535   23.6653 H   0  0  0  0  0  0
  -26.0405  -31.6038   20.5947 H   0  0  0  0  0  0
  -26.8195  -30.8883   21.9784 H   0  0  0  0  0  0
  -28.1057  -29.1145   21.1324 H   0  0  0  0  0  0
  -26.0267  -25.9716   19.0204 H   0  0  0  0  0  0
  -23.9655  -27.2945   19.0508 H   0  0  0  0  0  0
  -23.7146  -30.6029   19.4072 H   0  0  0  0  0  0
  -22.7320  -29.2467   19.8699 H   0  0  0  0  0  0
  -25.1281  -36.1968   25.0827 H   0  0  0  0  0  0
  -20.9936  -28.3222   24.1444 H   0  0  0  0  0  0
  -20.5657  -26.2261   23.3598 H   0  0  0  0  0  0
  -21.6632  -26.7438   22.1214 H   0  0  0  0  0  0
  -19.6901  -25.6300   21.1230 H   0  0  0  0  0  0
  -19.6687  -27.3206   20.6746 H   0  0  0  0  0  0
  -17.4184  -26.6664   21.4019 H   0  0  0  0  0  0
  -18.0322  -26.0059   22.9007 H   0  0  0  0  0  0
  -19.7922  -30.7260   24.2272 H   0  0  0  0  0  0
  -17.5006  -31.6264   24.5172 H   0  0  0  0  0  0
  -15.5342  -30.2998   23.7653 H   0  0  0  0  0  0
  -15.8650  -28.0850   22.7031 H   0  0  0  0  0  0
  -24.5916  -30.7048   25.7835 H   0  0  0  0  0  0
  -24.8951  -32.2856   26.4951 H   0  0  0  0  0  0
  -25.8117  -30.8864   27.0230 H   0  0  0  0  0  0
  -26.2845  -29.6801   24.1162 H   0  0  0  0  0  0
  -27.4084  -29.7274   25.4556 H   0  0  0  0  0  0
  -27.8675  -30.4357   23.9239 H   0  0  0  0  0  0
  -27.2643  -33.3610   26.2091 H   0  0  0  0  0  0
  -28.3837  -32.6914   25.0313 H   0  0  0  0  0  0
  -28.0725  -31.8443   26.5390 H   0  0  0  0  0  0
  -28.2598  -38.0103   24.7503 H   0  0  0  0  0  0
  -28.1068  -36.2636   24.6294 H   0  0  0  0  0  0
  -27.2296  -37.1479   25.8865 H   0  0  0  0  0  0
  -20.9281  -29.8768   21.6972 H   0  0  0  0  0  0
  -26.0176  -38.2868   24.1412 H   0  0  0  0  0  0
  -27.8672  -22.6494   21.5599 H   0  0  0  0  0  0
  -28.5741  -21.4014   23.4559 H   0  0  0  0  0  0
  -29.5335  -19.9436   23.2476 H   0  0  0  0  0  0
  -27.7687  -19.8396   23.3406 H   0  0  0  0  0  0
  -27.0262  -14.9734   15.9164 H   0  0  0  0  0  0
  -26.0061  -16.4038   16.0362 H   0  0  0  0  0  0
  -26.3230  -15.4211   17.4660 H   0  0  0  0  0  0
  -28.5722  -17.3436   20.4832 H   0  0  0  0  0  0
  -28.5691  -17.9695   22.0800 H   0  0  0  0  0  0
  -26.4882  -23.4536   19.3307 H   0  0  0  0  0  0
  -27.2537  -23.0313   17.8389 H   0  0  0  0  0  0
  -29.7315  -18.0078   18.4787 H   0  0  0  0  0  0
  -29.3587  -19.1460   17.2330 H   0  0  0  0  0  0
  -28.4530  -17.0109   15.9277 H   0  0  0  0  0  0
  -28.7535  -16.0383   17.3477 H   0  0  0  0  0  0
  -31.0576  -18.5778   21.7434 H   0  0  0  0  0  0
  -31.0205  -17.6596   20.2707 H   0  0  0  0  0  0
  -28.0271  -25.1642   18.1537 H   0  0  0  0  0  0
  -29.3948  -24.2510   18.6994 H   0  0  0  0  0  0
  -26.9732  -18.5369   17.2653 H   0  0  0  0  0  0
  -27.2009  -17.5262   18.6656 H   0  0  0  0  0  0
  -30.4770  -16.6176   23.0981 H   0  0  0  0  0  0
  -31.9159  -16.3267   22.1665 H   0  0  0  0  0  0
  -29.0957  -24.9571   20.9282 H   0  0  0  0  0  0
  -27.3719  -25.0436   20.8260 H   0  0  0  0  0  0
  -29.3517  -14.9536   21.9852 H   0  0  0  0  0  0
  1 25  1  0  0  0
  1 30  2  0  0  0
  1 88  1  0  0  0
  2  3  1  0  0  0
  2 25  1  0  0  0
  2 89  1  0  0  0
  2 90  1  0  0  0
  3  4  1  0  0  0
  3 91  1  0  0  0
  3 92  1  0  0  0
  4  5  1  0  0  0
  4 93  1  0  0  0
  4 94  1  0  0  0
  5  6  1  0  0  0
  5 26  1  0  0  0
  5 95  1  0  0  0
  6 25  1  0  0  0
  6 96  1  0  0  0
  6 97  1  0  0  0
  7  8  2  0  0  0
  7 26  1  0  0  0
  7 29  1  0  0  0
  8  9  1  0  0  0
  8 22  1  0  0  0
  9 10  1  0  0  0
  9 27  2  0  0  0
 10 11  2  0  0  0
 10 15  1  0  0  0
 11 12  1  0  0  0
 11 98  1  0  0  0
 12 13  2  0  0  0
 12 99  1  0  0  0
 13 14  1  0  0  0
 13 31  1  0  0  0
 14 15  2  0  0  0
 14100  1  0  0  0
 15101  1  0  0  0
 16 17  2  0  0  0
 16 21  1  0  0  0
 16 31  1  0  0  0
 17 18  1  0  0  0
 17102  1  0  0  0
 18 19  2  0  0  0
 18103  1  0  0  0
 19 20  1  0  0  0
 19 24  1  0  0  0
 20 21  2  0  0  0
 20104  1  0  0  0
 21 23  1  0  0  0
 22 28  1  0  0  0
 22 32  2  0  0  0
 26 27  1  0  0  0
 28105  1  0  0  0
 28106  1  0  0  0
 29107  1  0  0  0
 29108  1  0  0  0
 33 34  1  0  0  0
 33 66  1  0  0  0
 33 70  2  0  0  0
 34 36  1  0  0  0
 34 59  1  0  0  0
 34109  1  0  0  0
 35 44  2  0  0  0
 35 45  1  0  0  0
 35 68  1  0  0  0
 36 56  1  0  0  0
 36110  1  0  0  0
 37 39  1  0  0  0
 37 47  1  0  0  0
 37 66  1  0  0  0
 37111  1  0  0  0
 38 43  2  0  0  0
 38 46  1  0  0  0
 38 47  1  0  0  0
 39 64  1  0  0  0
 39 67  2  0  0  0
 40 52  1  0  0  0
 40 53  2  0  0  0
 40 58  1  0  0  0
 41112  1  0  0  0
 41113  1  0  0  0
 41114  1  0  0  0
 41 48  1  0  0  0
 42 43  1  0  0  0
 42 66  1  0  0  0
 42115  1  0  0  0
 42116  1  0  0  0
 43 44  1  0  0  0
 44117  1  0  0  0
 45 46  2  0  0  0
 45118  1  0  0  0
 46119  1  0  0  0
 47120  1  0  0  0
 47121  1  0  0  0
 48 56  1  0  0  0
 48 65  1  0  0  0
 48122  1  0  0  0
 49 50  1  0  0  0
 49 53  1  0  0  0
 49 64  1  0  0  0
 49123  1  0  0  0
 50 51  1  0  0  0
 50124  1  0  0  0
 50125  1  0  0  0
 51 52  1  0  0  0
 51126  1  0  0  0
 51127  1  0  0  0
 52128  1  0  0  0
 52129  1  0  0  0
 53 54  1  0  0  0
 54 55  2  0  0  0
 54130  1  0  0  0
 55 57  1  0  0  0
 55131  1  0  0  0
 56 69  2  0  0  0
 57 58  2  0  0  0
 57132  1  0  0  0
 58133  1  0  0  0
 59 60  1  0  0  0
 59 61  1  0  0  0
 59 62  1  0  0  0
 60134  1  0  0  0
 60135  1  0  0  0
 60136  1  0  0  0
 61137  1  0  0  0
 61138  1  0  0  0
 61139  1  0  0  0
 62140  1  0  0  0
 62141  1  0  0  0
 62142  1  0  0  0
 63 65  1  0  0  0
 63143  1  0  0  0
 63144  1  0  0  0
 63145  1  0  0  0
 64146  1  0  0  0
 65147  1  0  0  0
 68 86  1  0  0  0
 71 72  2  0  0  0
 71 74  1  0  0  0
 71148  1  0  0  0
 72 73  1  0  0  0
 72 76  1  0  0  0
 73 75  2  0  0  0
 73 78  1  0  0  0
 74 79  1  0  0  0
 74 87  2  0  0  0
 75 80  1  0  0  0
 75 87  1  0  0  0
 76149  1  0  0  0
 76150  1  0  0  0
 76151  1  0  0  0
 77 81  1  0  0  0
 77152  1  0  0  0
 77153  1  0  0  0
 77154  1  0  0  0
 78 82  1  0  0  0
 78155  1  0  0  0
 78156  1  0  0  0
 79 83  1  0  0  0
 79157  1  0  0  0
 79158  1  0  0  0
 80 84  1  0  0  0
 80159  1  0  0  0
 80160  1  0  0  0
 81 84  1  0  0  0
 81161  1  0  0  0
 81162  1  0  0  0
 82 85  1  0  0  0
 82163  1  0  0  0
 82164  1  0  0  0
 83 86  1  0  0  0
 83165  1  0  0  0
 83166  1  0  0  0
 84167  1  0  0  0
 84168  1  0  0  0
 85 88  1  0  0  0
 85169  1  0  0  0
 85170  1  0  0  0
 86171  1  0  0  0
 86172  1  0  0  0
 88173  1  0  0  0
M  ISO  4   1 100  68 101  86 101  88 100
M  END
> <chiral flag>
0

> <version>
0

> <s_m_source_file>
/data/baiqing/PycharmProjects/Reinvent-master-3.2/result/LINK_invent/BTK/process_docking_weight1_custom_sum_contain_oxygen_bond_distance_aromatic_linkinvent_7_9_3/rearranged_h_0039.sdf

> <i_m_source_file_index>
59

> <r_mmod_Potential_Energy-OPLS-2005>
-262.310760498047

> <r_mmod_Stretch_Energy-OPLS-2005>
36.7160949707031

> <r_mmod_Bend_Energy-OPLS-2005>
97.4706268310547

> <r_mmod_Torsional_Energy-OPLS-2005>
204.598114013672

> <r_mmod_Improper_Torsional_Energy-OPLS-2005>
2.13989305496216

> <r_mmod_Van_der_Waal_Energy-OPLS-2005>
138.449203491211

> <r_mmod_Electrostatic_Energy-OPLS-2005>
-533.651000976562

> <r_mmod_Solvation_Energy-OPLS-2005>
-216.915893554688

> <b_mmod_Minimization_Converged-OPLS-2005>
0

> <r_mmod_RMS_Derivative-OPLS-2005>
0.615578651428223

$$$$
60
                    3D
 Structure written by MMmdl.
156165  0  0  1  0            999 V2000
  -30.6575  -14.7122   20.4323 C   0  0  0  0  0  0
  -30.4148  -12.4274   19.4931 C   0  0  0  0  0  0
  -29.5100  -12.4969   18.2440 C   0  0  0  0  0  0
  -28.0306  -12.3418   18.6425 C   0  0  0  0  0  0
  -27.6372  -13.2417   19.8444 C   0  0  2  0  0  0
  -28.6757  -13.1833   20.9825 C   0  0  0  0  0  0
  -25.2493  -13.8230   20.5706 C   0  0  0  0  0  0
  -24.1796  -13.0455   20.9218 C   0  0  0  0  0  0
  -24.6394  -11.6935   20.8747 C   0  0  0  0  0  0
  -23.9071  -10.4305   21.0402 C   0  0  0  0  0  0
  -24.3619   -9.4223   21.9187 C   0  0  0  0  0  0
  -23.6294   -8.2258   22.0759 C   0  0  0  0  0  0
  -22.4280   -8.0289   21.3543 C   0  0  0  0  0  0
  -21.9916   -9.0262   20.4642 C   0  0  0  0  0  0
  -22.7241  -10.2143   20.3054 C   0  0  0  0  0  0
  -21.6856   -6.0741   22.5274 C   0  0  0  0  0  0
  -21.4014   -6.5640   23.8212 C   0  0  0  0  0  0
  -21.3664   -5.6786   24.9172 C   0  0  0  0  0  0
  -21.6048   -4.3052   24.7215 C   0  0  0  0  0  0
  -21.8819   -3.8146   23.4335 C   0  0  0  0  0  0
  -21.9197   -4.6962   22.3395 C   0  0  0  0  0  0
  -22.7815  -13.5229   21.1858 C   0  0  0  0  0  0
  -22.1661   -4.2146   21.0972 F   0  0  0  0  0  0
  -21.5629   -3.4531   25.7729 F   0  0  0  0  0  0
  -29.9848  -13.5098   20.4123 N   0  0  0  0  0  0
  -26.2912  -12.9452   20.3248 N   0  0  0  0  0  0
  -25.9326  -11.6583   20.5739 N   0  0  0  0  0  0
  -22.0460  -12.8215   22.0402 N   0  0  0  0  0  0
  -25.4163  -15.1960   20.4129 N   0  0  0  0  0  0
  -31.8560  -14.7142   20.1446 O   0  0  0  0  0  0
  -21.6648   -6.8885   21.4235 O   0  0  0  0  0  0
  -22.3503  -14.5534   20.6704 O   0  0  0  0  0  0
  -24.6304  -31.8579   23.1992 C   0  0  0  0  0  0
  -25.9141  -32.4769   23.8356 C   0  0  1  0  0  0
  -27.2141  -27.2794   20.1351 C   0  0  0  0  0  0
  -25.5933  -33.8572   24.2266 N   0  0  0  0  0  0
  -23.4263  -30.4789   21.5452 C   0  0  2  0  0  0
  -24.8727  -28.9271   20.1121 C   0  0  0  0  0  0
  -22.7501  -29.4618   22.4954 C   0  0  0  0  0  0
  -18.0299  -28.1401   22.8499 C   0  0  0  0  0  0
  -24.1484  -36.7291   23.2643 C   0  0  0  0  0  0
  -25.9697  -30.7777   21.3729 C   0  0  0  0  0  0
  -26.0449  -29.4001   20.7180 C   0  0  0  0  0  0
  -27.2237  -28.5900   20.7149 C   0  0  0  0  0  0
  -26.0267  -26.8690   19.4959 C   0  0  0  0  0  0
  -24.8672  -27.6690   19.4889 C   0  0  0  0  0  0
  -23.6419  -29.8115   20.1622 C   0  0  0  0  0  0
  -25.4112  -36.3070   24.0325 C   0  0  1  0  0  0
  -20.5898  -28.3718   23.1283 C   0  0  2  0  0  0
  -20.6778  -26.9434   22.5420 C   0  0  0  0  0  0
  -19.5744  -26.6402   21.5224 C   0  0  0  0  0  0
  -18.1924  -26.7952   22.1632 C   0  0  0  0  0  0
  -19.1548  -28.8877   23.2884 C   0  0  0  0  0  0
  -18.9465  -30.1481   23.8896 C   0  0  0  0  0  0
  -17.6460  -30.6600   24.0574 C   0  0  0  0  0  0
  -25.9057  -34.9448   23.5094 C   0  0  0  0  0  0
  -16.5355  -29.9094   23.6339 C   0  0  0  0  0  0
  -16.7282  -28.6510   23.0363 C   0  0  0  0  0  0
  -26.4508  -31.6592   25.0748 C   0  0  0  0  0  0
  -25.3715  -31.3711   26.1454 C   0  0  0  0  0  0
  -27.0388  -30.3028   24.6219 C   0  0  0  0  0  0
  -27.6056  -32.4360   25.7512 C   0  0  0  0  0  0
  -27.5578  -37.1781   24.8454 C   0  0  0  0  0  0
  -21.4214  -29.3053   22.3666 N   0  0  0  0  0  0
  -26.4277  -37.3774   23.9427 N   0  0  0  0  0  0
  -24.6954  -31.0556   22.0965 N   0  0  0  0  0  0
  -23.4199  -28.8173   23.3069 O   0  0  0  0  0  0
  -28.2906  -26.3734   20.1676 O   0  0  0  0  0  0
  -26.5648  -34.8916   22.4675 O   0  0  0  0  0  0
  -23.5453  -32.1411   23.7274 O   0  0  0  0  0  0
  -30.4480  -17.1563   19.6052 C   0  0  0  0  0  0
  -29.0963  -16.6388   21.4373 C   0  0  0  0  0  0
  -30.0099  -16.1314   20.4835 C   0  0  0  0  0  0
  -29.2012  -18.8511   20.6089 C   0  0  0  0  0  0
  -28.0894  -21.0901   19.5421 C   0  0  0  0  0  0
  -29.9281  -21.3888   21.1716 C   0  0  0  0  0  0
  -27.5971  -22.5736   19.8190 C   0  0  0  0  0  0
  -29.4330  -22.8636   21.4664 C   0  0  0  0  0  0
  -28.8050  -20.3957   20.7447 C   0  0  2  0  0  0
  -28.6594  -23.6185   20.3241 C   0  0  2  0  0  0
  -28.0276  -25.0407   20.7962 C   0  0  0  0  0  0
  -30.0582  -18.4697   19.6604 N   0  0  0  0  0  0
  -28.7086  -17.9602   21.4878 N   0  0  0  0  0  0
  -31.4612  -12.5116   19.1947 H   0  0  0  0  0  0
  -30.3271  -11.4559   19.9822 H   0  0  0  0  0  0
  -29.7882  -11.7179   17.5321 H   0  0  0  0  0  0
  -29.6592  -13.4491   17.7338 H   0  0  0  0  0  0
  -27.8687  -11.2933   18.8967 H   0  0  0  0  0  0
  -27.3841  -12.5504   17.7891 H   0  0  0  0  0  0
  -27.6330  -14.2651   19.4679 H   0  0  0  0  0  0
  -28.6991  -12.1903   21.4334 H   0  0  0  0  0  0
  -28.4141  -13.8692   21.7869 H   0  0  0  0  0  0
  -25.2764   -9.5701   22.4771 H   0  0  0  0  0  0
  -23.9994   -7.4659   22.7493 H   0  0  0  0  0  0
  -21.0850   -8.8789   19.8952 H   0  0  0  0  0  0
  -22.3703  -10.9685   19.6172 H   0  0  0  0  0  0
  -21.2011   -7.6149   23.9706 H   0  0  0  0  0  0
  -21.1483   -6.0523   25.9074 H   0  0  0  0  0  0
  -22.0597   -2.7604   23.2837 H   0  0  0  0  0  0
  -22.4077  -11.9869   22.4778 H   0  0  0  0  0  0
  -21.1083  -13.1236   22.2596 H   0  0  0  0  0  0
  -24.6432  -15.8438   20.5228 H   0  0  0  0  0  0
  -26.2497  -15.6344   20.0420 H   0  0  0  0  0  0
  -26.7217  -32.5427   23.1110 H   0  0  0  0  0  0
  -25.0039  -33.9709   25.0380 H   0  0  0  0  0  0
  -22.7208  -31.2993   21.4000 H   0  0  0  0  0  0
  -23.3758  -35.9609   23.3268 H   0  0  0  0  0  0
  -24.3566  -36.8964   22.2063 H   0  0  0  0  0  0
  -23.7206  -37.6459   23.6719 H   0  0  0  0  0  0
  -26.1003  -31.5371   20.6007 H   0  0  0  0  0  0
  -26.8503  -30.8324   22.0020 H   0  0  0  0  0  0
  -28.1246  -28.9460   21.1956 H   0  0  0  0  0  0
  -25.9871  -25.9001   19.0178 H   0  0  0  0  0  0
  -23.9705  -27.3007   19.0092 H   0  0  0  0  0  0
  -23.7591  -30.5868   19.4041 H   0  0  0  0  0  0
  -22.7603  -29.2406   19.8637 H   0  0  0  0  0  0
  -25.1277  -36.1907   25.0805 H   0  0  0  0  0  0
  -20.9981  -28.3310   24.1415 H   0  0  0  0  0  0
  -20.5700  -26.2328   23.3632 H   0  0  0  0  0  0
  -21.6645  -26.7472   22.1198 H   0  0  0  0  0  0
  -19.6904  -25.6319   21.1252 H   0  0  0  0  0  0
  -19.6663  -27.3208   20.6752 H   0  0  0  0  0  0
  -17.4201  -26.6755   21.4025 H   0  0  0  0  0  0
  -18.0264  -26.0093   22.9007 H   0  0  0  0  0  0
  -19.7937  -30.7307   24.2256 H   0  0  0  0  0  0
  -17.5015  -31.6271   24.5199 H   0  0  0  0  0  0
  -15.5350  -30.2994   23.7667 H   0  0  0  0  0  0
  -15.8691  -28.0823   22.7083 H   0  0  0  0  0  0
  -24.5960  -30.6979   25.7781 H   0  0  0  0  0  0
  -24.8808  -32.2847   26.4825 H   0  0  0  0  0  0
  -25.8033  -30.8959   27.0272 H   0  0  0  0  0  0
  -26.2992  -29.6748   24.1249 H   0  0  0  0  0  0
  -27.4098  -29.7313   25.4734 H   0  0  0  0  0  0
  -27.8836  -30.4351   23.9463 H   0  0  0  0  0  0
  -27.2693  -33.3712   26.2002 H   0  0  0  0  0  0
  -28.3888  -32.6833   25.0340 H   0  0  0  0  0  0
  -28.0707  -31.8550   26.5479 H   0  0  0  0  0  0
  -28.2537  -38.0138   24.7587 H   0  0  0  0  0  0
  -28.1128  -36.2669   24.6177 H   0  0  0  0  0  0
  -27.2312  -37.1285   25.8855 H   0  0  0  0  0  0
  -20.9410  -29.8758   21.6852 H   0  0  0  0  0  0
  -26.0148  -38.2832   24.1489 H   0  0  0  0  0  0
  -31.1688  -16.9317   18.8323 H   0  0  0  0  0  0
  -28.6939  -16.0076   22.2136 H   0  0  0  0  0  0
  -28.7563  -21.0823   18.6784 H   0  0  0  0  0  0
  -27.2296  -20.4824   19.2559 H   0  0  0  0  0  0
  -30.4124  -20.9942   22.0653 H   0  0  0  0  0  0
  -30.6968  -21.4085   20.3980 H   0  0  0  0  0  0
  -26.7968  -22.5164   20.5586 H   0  0  0  0  0  0
  -27.1256  -22.9639   18.9155 H   0  0  0  0  0  0
  -30.2920  -23.4669   21.7650 H   0  0  0  0  0  0
  -28.7893  -22.8230   22.3472 H   0  0  0  0  0  0
  -28.0807  -20.4057   21.5617 H   0  0  0  0  0  0
  -29.3625  -23.8116   19.5128 H   0  0  0  0  0  0
  -28.3500  -25.1919   21.8270 H   0  0  0  0  0  0
  -26.9537  -24.8894   20.9061 H   0  0  0  0  0  0
  1 25  1  0  0  0
  1 30  2  0  0  0
  1 73  1  0  0  0
  2  3  1  0  0  0
  2 25  1  0  0  0
  2 84  1  0  0  0
  2 85  1  0  0  0
  3  4  1  0  0  0
  3 86  1  0  0  0
  3 87  1  0  0  0
  4  5  1  0  0  0
  4 88  1  0  0  0
  4 89  1  0  0  0
  5  6  1  0  0  0
  5 26  1  0  0  0
  5 90  1  0  0  0
  6 25  1  0  0  0
  6 91  1  0  0  0
  6 92  1  0  0  0
  7  8  2  0  0  0
  7 26  1  0  0  0
  7 29  1  0  0  0
  8  9  1  0  0  0
  8 22  1  0  0  0
  9 10  1  0  0  0
  9 27  2  0  0  0
 10 11  2  0  0  0
 10 15  1  0  0  0
 11 12  1  0  0  0
 11 93  1  0  0  0
 12 13  2  0  0  0
 12 94  1  0  0  0
 13 14  1  0  0  0
 13 31  1  0  0  0
 14 15  2  0  0  0
 14 95  1  0  0  0
 15 96  1  0  0  0
 16 17  2  0  0  0
 16 21  1  0  0  0
 16 31  1  0  0  0
 17 18  1  0  0  0
 17 97  1  0  0  0
 18 19  2  0  0  0
 18 98  1  0  0  0
 19 20  1  0  0  0
 19 24  1  0  0  0
 20 21  2  0  0  0
 20 99  1  0  0  0
 21 23  1  0  0  0
 22 28  1  0  0  0
 22 32  2  0  0  0
 26 27  1  0  0  0
 28100  1  0  0  0
 28101  1  0  0  0
 29102  1  0  0  0
 29103  1  0  0  0
 33 34  1  0  0  0
 33 66  1  0  0  0
 33 70  2  0  0  0
 34 36  1  0  0  0
 34 59  1  0  0  0
 34104  1  0  0  0
 35 44  2  0  0  0
 35 45  1  0  0  0
 35 68  1  0  0  0
 36 56  1  0  0  0
 36105  1  0  0  0
 37 39  1  0  0  0
 37 47  1  0  0  0
 37 66  1  0  0  0
 37106  1  0  0  0
 38 43  2  0  0  0
 38 46  1  0  0  0
 38 47  1  0  0  0
 39 64  1  0  0  0
 39 67  2  0  0  0
 40 52  1  0  0  0
 40 53  2  0  0  0
 40 58  1  0  0  0
 41107  1  0  0  0
 41108  1  0  0  0
 41109  1  0  0  0
 41 48  1  0  0  0
 42 43  1  0  0  0
 42 66  1  0  0  0
 42110  1  0  0  0
 42111  1  0  0  0
 43 44  1  0  0  0
 44112  1  0  0  0
 45 46  2  0  0  0
 45113  1  0  0  0
 46114  1  0  0  0
 47115  1  0  0  0
 47116  1  0  0  0
 48 56  1  0  0  0
 48 65  1  0  0  0
 48117  1  0  0  0
 49 50  1  0  0  0
 49 53  1  0  0  0
 49 64  1  0  0  0
 49118  1  0  0  0
 50 51  1  0  0  0
 50119  1  0  0  0
 50120  1  0  0  0
 51 52  1  0  0  0
 51121  1  0  0  0
 51122  1  0  0  0
 52123  1  0  0  0
 52124  1  0  0  0
 53 54  1  0  0  0
 54 55  2  0  0  0
 54125  1  0  0  0
 55 57  1  0  0  0
 55126  1  0  0  0
 56 69  2  0  0  0
 57 58  2  0  0  0
 57127  1  0  0  0
 58128  1  0  0  0
 59 60  1  0  0  0
 59 61  1  0  0  0
 59 62  1  0  0  0
 60129  1  0  0  0
 60130  1  0  0  0
 60131  1  0  0  0
 61132  1  0  0  0
 61133  1  0  0  0
 61134  1  0  0  0
 62135  1  0  0  0
 62136  1  0  0  0
 62137  1  0  0  0
 63 65  1  0  0  0
 63138  1  0  0  0
 63139  1  0  0  0
 63140  1  0  0  0
 64141  1  0  0  0
 65142  1  0  0  0
 68 81  1  0  0  0
 71 73  2  0  0  0
 71 82  1  0  0  0
 71143  1  0  0  0
 72 73  1  0  0  0
 72 83  2  0  0  0
 72144  1  0  0  0
 74 82  2  0  0  0
 74 83  1  0  0  0
 74 79  1  0  0  0
 75 77  1  0  0  0
 75 79  1  0  0  0
 75145  1  0  0  0
 75146  1  0  0  0
 76 78  1  0  0  0
 76 79  1  0  0  0
 76147  1  0  0  0
 76148  1  0  0  0
 77 80  1  0  0  0
 77149  1  0  0  0
 77150  1  0  0  0
 78 80  1  0  0  0
 78151  1  0  0  0
 78152  1  0  0  0
 79153  1  0  0  0
 80 81  1  0  0  0
 80154  1  0  0  0
 81155  1  0  0  0
 81156  1  0  0  0
M  ISO  4   1 100  68 101  73 100  81 101
M  END
> <chiral flag>
0

> <version>
0

> <s_m_source_file>
/data/baiqing/PycharmProjects/Reinvent-master-3.2/result/LINK_invent/BTK/process_docking_weight1_custom_sum_contain_oxygen_bond_distance_aromatic_linkinvent_7_9_3/rearranged_h_0039.sdf

> <i_m_source_file_index>
60

> <r_mmod_Potential_Energy-OPLS-2005>
-145.316390991211

> <r_mmod_Stretch_Energy-OPLS-2005>
101.617301940918

> <r_mmod_Bend_Energy-OPLS-2005>
181.720611572266

> <r_mmod_Torsional_Energy-OPLS-2005>
233.094177246094

> <r_mmod_Improper_Torsional_Energy-OPLS-2005>
7.55953311920166

> <r_mmod_Van_der_Waal_Energy-OPLS-2005>
143.876388549805

> <r_mmod_Electrostatic_Energy-OPLS-2005>
-684.269897460938

> <r_mmod_Solvation_Energy-OPLS-2005>
-206.52099609375

> <b_mmod_Minimization_Converged-OPLS-2005>
0

> <r_mmod_RMS_Derivative-OPLS-2005>
2.03331351280212

$$$$
61
                    3D
 Structure written by MMmdl.
167175  0  0  1  0            999 V2000
  -30.6504  -14.5658   20.4734 C   0  0  0  0  0  0
  -30.4232  -12.3355   19.4593 C   0  0  0  0  0  0
  -29.5071  -12.4938   18.2267 C   0  0  0  0  0  0
  -28.0240  -12.3578   18.6251 C   0  0  0  0  0  0
  -27.6535  -13.2167   19.8646 C   0  0  2  0  0  0
  -28.6934  -13.0585   20.9986 C   0  0  0  0  0  0
  -25.2543  -13.8181   20.5660 C   0  0  0  0  0  0
  -24.1808  -13.0448   20.9181 C   0  0  0  0  0  0
  -24.6389  -11.6917   20.8726 C   0  0  0  0  0  0
  -23.9064  -10.4298   21.0387 C   0  0  0  0  0  0
  -24.3619   -9.4216   21.9166 C   0  0  0  0  0  0
  -23.6300   -8.2244   22.0733 C   0  0  0  0  0  0
  -22.4283   -8.0272   21.3526 C   0  0  0  0  0  0
  -21.9911   -9.0245   20.4631 C   0  0  0  0  0  0
  -22.7238  -10.2128   20.3043 C   0  0  0  0  0  0
  -21.6856   -6.0732   22.5272 C   0  0  0  0  0  0
  -21.4016   -6.5632   23.8209 C   0  0  0  0  0  0
  -21.3662   -5.6785   24.9168 C   0  0  0  0  0  0
  -21.6044   -4.3047   24.7221 C   0  0  0  0  0  0
  -21.8817   -3.8142   23.4339 C   0  0  0  0  0  0
  -21.9189   -4.6956   22.3397 C   0  0  0  0  0  0
  -22.7830  -13.5231   21.1846 C   0  0  0  0  0  0
  -22.1650   -4.2138   21.0972 F   0  0  0  0  0  0
  -21.5648   -3.4535   25.7737 F   0  0  0  0  0  0
  -30.0181  -13.3574   20.4373 N   0  0  0  0  0  0
  -26.2979  -12.9372   20.3305 N   0  0  0  0  0  0
  -25.9320  -11.6525   20.5751 N   0  0  0  0  0  0
  -22.0462  -12.8226   22.0401 N   0  0  0  0  0  0
  -25.4239  -15.1894   20.4048 N   0  0  0  0  0  0
  -31.8241  -14.6993   20.1184 O   0  0  0  0  0  0
  -21.6642   -6.8872   21.4232 O   0  0  0  0  0  0
  -22.3496  -14.5532   20.6691 O   0  0  0  0  0  0
  -24.6182  -31.8631   23.2049 C   0  0  0  0  0  0
  -25.9063  -32.4789   23.8350 C   0  0  1  0  0  0
  -27.2338  -27.3829   20.0997 C   0  0  0  0  0  0
  -25.5901  -33.8591   24.2282 N   0  0  0  0  0  0
  -23.4074  -30.4845   21.5478 C   0  0  2  0  0  0
  -24.8524  -28.9392   20.1118 C   0  0  0  0  0  0
  -22.7422  -29.4634   22.4987 C   0  0  0  0  0  0
  -18.0277  -28.1361   22.8493 C   0  0  0  0  0  0
  -24.1492  -36.7314   23.2637 C   0  0  0  0  0  0
  -25.9401  -30.8097   21.3652 C   0  0  0  0  0  0
  -26.0130  -29.4403   20.7125 C   0  0  0  0  0  0
  -27.2009  -28.6682   20.7036 C   0  0  0  0  0  0
  -26.0505  -26.9046   19.4950 C   0  0  0  0  0  0
  -24.8686  -27.6730   19.5004 C   0  0  0  0  0  0
  -23.6154  -29.8106   20.1637 C   0  0  0  0  0  0
  -25.4110  -36.3094   24.0331 C   0  0  1  0  0  0
  -20.5867  -28.3656   23.1316 C   0  0  2  0  0  0
  -20.6767  -26.9388   22.5415 C   0  0  0  0  0  0
  -19.5742  -26.6372   21.5213 C   0  0  0  0  0  0
  -18.1923  -26.7914   22.1621 C   0  0  0  0  0  0
  -19.1525  -28.8830   23.2895 C   0  0  0  0  0  0
  -18.9447  -30.1440   23.8894 C   0  0  0  0  0  0
  -17.6445  -30.6574   24.0559 C   0  0  0  0  0  0
  -25.9038  -34.9461   23.5106 C   0  0  0  0  0  0
  -16.5338  -29.9070   23.6328 C   0  0  0  0  0  0
  -16.7263  -28.6487   23.0351 C   0  0  0  0  0  0
  -26.4470  -31.6594   25.0710 C   0  0  0  0  0  0
  -25.3726  -31.3735   26.1460 C   0  0  0  0  0  0
  -27.0302  -30.3022   24.6132 C   0  0  0  0  0  0
  -27.6024  -32.4329   25.7485 C   0  0  0  0  0  0
  -27.5586  -37.1813   24.8455 C   0  0  0  0  0  0
  -21.4146  -29.3025   22.3731 N   0  0  0  0  0  0
  -26.4294  -37.3784   23.9407 N   0  0  0  0  0  0
  -24.6737  -31.0697   22.0967 N   0  0  0  0  0  0
  -23.4184  -28.8177   23.3039 O   0  0  0  0  0  0
  -28.4137  -26.6511   20.1397 O   0  0  0  0  0  0
  -26.5605  -34.8925   22.4671 O   0  0  0  0  0  0
  -23.5367  -32.1406   23.7429 O   0  0  0  0  0  0
  -30.3879  -18.8708   21.5943 C   0  0  0  0  0  0
  -29.7279  -18.2591   20.4900 C   0  0  0  0  0  0
  -27.6093  -16.1926   24.3593 C   0  0  0  0  0  0
  -31.4716  -18.2980   22.4582 C   0  0  0  0  0  0
  -30.0139  -16.9054   19.8298 C   0  0  0  0  0  0
  -28.5798  -17.2671   23.8546 C   0  0  0  0  0  0
  -31.0460  -18.0767   23.9227 C   0  0  0  0  0  0
  -30.0481  -16.9268   24.1671 C   0  0  0  0  0  0
  -28.8330  -22.7484   20.1058 C   0  0  0  0  0  0
  -28.0952  -24.1064   20.4098 C   0  0  0  0  0  0
  -28.1679  -21.4592   20.6968 C   0  0  0  0  0  0
  -28.5445  -25.3332   19.5445 C   0  0  0  0  0  0
  -29.9502  -20.1010   21.7578 N   0  0  0  0  0  0
  -28.8604  -19.1324   20.0033 N   0  0  0  0  0  0
  -29.0195  -20.2498   20.7824 N   0  0  0  0  0  0
  -29.8432  -15.6484   20.6099 N   0  0  0  0  0  0
  -31.4715  -12.4277   19.1689 H   0  0  0  0  0  0
  -30.3208  -11.3382   19.8932 H   0  0  0  0  0  0
  -29.7642  -11.7526   17.4682 H   0  0  0  0  0  0
  -29.6739  -13.4680   17.7649 H   0  0  0  0  0  0
  -27.8338  -11.3045   18.8352 H   0  0  0  0  0  0
  -27.3815  -12.6189   17.7831 H   0  0  0  0  0  0
  -27.6782  -14.2542   19.5302 H   0  0  0  0  0  0
  -28.6765  -12.0431   21.3965 H   0  0  0  0  0  0
  -28.4606  -13.7135   21.8393 H   0  0  0  0  0  0
  -25.2757   -9.5715   22.4749 H   0  0  0  0  0  0
  -24.0005   -7.4647   22.7464 H   0  0  0  0  0  0
  -21.0838   -8.8782   19.8945 H   0  0  0  0  0  0
  -22.3685  -10.9672   19.6165 H   0  0  0  0  0  0
  -21.2005   -7.6138   23.9713 H   0  0  0  0  0  0
  -21.1491   -6.0509   25.9073 H   0  0  0  0  0  0
  -22.0597   -2.7603   23.2842 H   0  0  0  0  0  0
  -22.4084  -11.9901   22.4815 H   0  0  0  0  0  0
  -21.1074  -13.1242   22.2608 H   0  0  0  0  0  0
  -24.6589  -15.8436   20.5218 H   0  0  0  0  0  0
  -26.2731  -15.6325   20.0779 H   0  0  0  0  0  0
  -26.7130  -32.5468   23.1096 H   0  0  0  0  0  0
  -25.0071  -33.9731   25.0444 H   0  0  0  0  0  0
  -22.6955  -31.3013   21.4060 H   0  0  0  0  0  0
  -23.3745  -35.9651   23.3288 H   0  0  0  0  0  0
  -24.3584  -36.8946   22.2051 H   0  0  0  0  0  0
  -23.7253  -37.6520   23.6662 H   0  0  0  0  0  0
  -26.0603  -31.5716   20.5947 H   0  0  0  0  0  0
  -26.8250  -30.8607   21.9880 H   0  0  0  0  0  0
  -28.0952  -29.0507   21.1745 H   0  0  0  0  0  0
  -26.0178  -25.9323   19.0279 H   0  0  0  0  0  0
  -23.9757  -27.2780   19.0354 H   0  0  0  0  0  0
  -23.7192  -30.5816   19.3998 H   0  0  0  0  0  0
  -22.7377  -29.2296   19.8735 H   0  0  0  0  0  0
  -25.1291  -36.1950   25.0822 H   0  0  0  0  0  0
  -20.9947  -28.3215   24.1439 H   0  0  0  0  0  0
  -20.5678  -26.2250   23.3600 H   0  0  0  0  0  0
  -21.6635  -26.7437   22.1202 H   0  0  0  0  0  0
  -19.6901  -25.6285   21.1236 H   0  0  0  0  0  0
  -19.6685  -27.3185   20.6743 H   0  0  0  0  0  0
  -17.4198  -26.6667   21.4017 H   0  0  0  0  0  0
  -18.0311  -26.0047   22.9008 H   0  0  0  0  0  0
  -19.7921  -30.7260   24.2248 H   0  0  0  0  0  0
  -17.5003  -31.6255   24.5154 H   0  0  0  0  0  0
  -15.5339  -30.2961   23.7664 H   0  0  0  0  0  0
  -15.8666  -28.0807   22.7059 H   0  0  0  0  0  0
  -24.5859  -30.7123   25.7809 H   0  0  0  0  0  0
  -24.8964  -32.2909   26.4927 H   0  0  0  0  0  0
  -25.8063  -30.8882   27.0209 H   0  0  0  0  0  0
  -26.2860  -29.6793   24.1154 H   0  0  0  0  0  0
  -27.4010  -29.7257   25.4618 H   0  0  0  0  0  0
  -27.8722  -30.4315   23.9326 H   0  0  0  0  0  0
  -27.2609  -33.3602   26.2095 H   0  0  0  0  0  0
  -28.3821  -32.6942   25.0320 H   0  0  0  0  0  0
  -28.0708  -31.8446   26.5386 H   0  0  0  0  0  0
  -28.2597  -38.0120   24.7515 H   0  0  0  0  0  0
  -28.1093  -36.2653   24.6259 H   0  0  0  0  0  0
  -27.2307  -37.1434   25.8859 H   0  0  0  0  0  0
  -20.9308  -29.8735   21.6946 H   0  0  0  0  0  0
  -26.0183  -38.2866   24.1383 H   0  0  0  0  0  0
  -26.5802  -16.4487   24.1039 H   0  0  0  0  0  0
  -27.6623  -16.0909   25.4437 H   0  0  0  0  0  0
  -27.8252  -15.2189   23.9197 H   0  0  0  0  0  0
  -32.3298  -18.9710   22.4439 H   0  0  0  0  0  0
  -31.8388  -17.3599   22.0398 H   0  0  0  0  0  0
  -31.0218  -16.9453   19.4117 H   0  0  0  0  0  0
  -29.3706  -16.7982   18.9551 H   0  0  0  0  0  0
  -28.3152  -18.2252   24.3052 H   0  0  0  0  0  0
  -28.4372  -17.3859   22.7817 H   0  0  0  0  0  0
  -30.6700  -19.0053   24.3539 H   0  0  0  0  0  0
  -31.9523  -17.8438   24.4845 H   0  0  0  0  0  0
  -30.3564  -16.0398   23.6109 H   0  0  0  0  0  0
  -30.1152  -16.6557   25.2215 H   0  0  0  0  0  0
  -29.8549  -22.8221   20.4806 H   0  0  0  0  0  0
  -28.9256  -22.6188   19.0275 H   0  0  0  0  0  0
  -28.2486  -24.3431   21.4630 H   0  0  0  0  0  0
  -27.0195  -23.9738   20.2902 H   0  0  0  0  0  0
  -27.2744  -21.2130   20.1234 H   0  0  0  0  0  0
  -27.8188  -21.6710   21.7079 H   0  0  0  0  0  0
  -28.0895  -25.2988   18.5536 H   0  0  0  0  0  0
  -29.6130  -25.2253   19.3566 H   0  0  0  0  0  0
  -28.9069  -15.4605   20.9328 H   0  0  0  0  0  0
  1 25  1  0  0  0
  1 30  2  0  0  0
  1 86  1  0  0  0
  2  3  1  0  0  0
  2 25  1  0  0  0
  2 87  1  0  0  0
  2 88  1  0  0  0
  3  4  1  0  0  0
  3 89  1  0  0  0
  3 90  1  0  0  0
  4  5  1  0  0  0
  4 91  1  0  0  0
  4 92  1  0  0  0
  5  6  1  0  0  0
  5 26  1  0  0  0
  5 93  1  0  0  0
  6 25  1  0  0  0
  6 94  1  0  0  0
  6 95  1  0  0  0
  7  8  2  0  0  0
  7 26  1  0  0  0
  7 29  1  0  0  0
  8  9  1  0  0  0
  8 22  1  0  0  0
  9 10  1  0  0  0
  9 27  2  0  0  0
 10 11  2  0  0  0
 10 15  1  0  0  0
 11 12  1  0  0  0
 11 96  1  0  0  0
 12 13  2  0  0  0
 12 97  1  0  0  0
 13 14  1  0  0  0
 13 31  1  0  0  0
 14 15  2  0  0  0
 14 98  1  0  0  0
 15 99  1  0  0  0
 16 17  2  0  0  0
 16 21  1  0  0  0
 16 31  1  0  0  0
 17 18  1  0  0  0
 17100  1  0  0  0
 18 19  2  0  0  0
 18101  1  0  0  0
 19 20  1  0  0  0
 19 24  1  0  0  0
 20 21  2  0  0  0
 20102  1  0  0  0
 21 23  1  0  0  0
 22 28  1  0  0  0
 22 32  2  0  0  0
 26 27  1  0  0  0
 28103  1  0  0  0
 28104  1  0  0  0
 29105  1  0  0  0
 29106  1  0  0  0
 33 34  1  0  0  0
 33 66  1  0  0  0
 33 70  2  0  0  0
 34 36  1  0  0  0
 34 59  1  0  0  0
 34107  1  0  0  0
 35 44  2  0  0  0
 35 45  1  0  0  0
 35 68  1  0  0  0
 36 56  1  0  0  0
 36108  1  0  0  0
 37 39  1  0  0  0
 37 47  1  0  0  0
 37 66  1  0  0  0
 37109  1  0  0  0
 38 43  2  0  0  0
 38 46  1  0  0  0
 38 47  1  0  0  0
 39 64  1  0  0  0
 39 67  2  0  0  0
 40 52  1  0  0  0
 40 53  2  0  0  0
 40 58  1  0  0  0
 41110  1  0  0  0
 41111  1  0  0  0
 41112  1  0  0  0
 41 48  1  0  0  0
 42 43  1  0  0  0
 42 66  1  0  0  0
 42113  1  0  0  0
 42114  1  0  0  0
 43 44  1  0  0  0
 44115  1  0  0  0
 45 46  2  0  0  0
 45116  1  0  0  0
 46117  1  0  0  0
 47118  1  0  0  0
 47119  1  0  0  0
 48 56  1  0  0  0
 48 65  1  0  0  0
 48120  1  0  0  0
 49 50  1  0  0  0
 49 53  1  0  0  0
 49 64  1  0  0  0
 49121  1  0  0  0
 50 51  1  0  0  0
 50122  1  0  0  0
 50123  1  0  0  0
 51 52  1  0  0  0
 51124  1  0  0  0
 51125  1  0  0  0
 52126  1  0  0  0
 52127  1  0  0  0
 53 54  1  0  0  0
 54 55  2  0  0  0
 54128  1  0  0  0
 55 57  1  0  0  0
 55129  1  0  0  0
 56 69  2  0  0  0
 57 58  2  0  0  0
 57130  1  0  0  0
 58131  1  0  0  0
 59 60  1  0  0  0
 59 61  1  0  0  0
 59 62  1  0  0  0
 60132  1  0  0  0
 60133  1  0  0  0
 60134  1  0  0  0
 61135  1  0  0  0
 61136  1  0  0  0
 61137  1  0  0  0
 62138  1  0  0  0
 62139  1  0  0  0
 62140  1  0  0  0
 63 65  1  0  0  0
 63141  1  0  0  0
 63142  1  0  0  0
 63143  1  0  0  0
 64144  1  0  0  0
 65145  1  0  0  0
 68 82  1  0  0  0
 71 72  1  0  0  0
 71 74  1  0  0  0
 71 83  2  0  0  0
 72 75  1  0  0  0
 72 84  2  0  0  0
 73 76  1  0  0  0
 73146  1  0  0  0
 73147  1  0  0  0
 73148  1  0  0  0
 74 77  1  0  0  0
 74149  1  0  0  0
 74150  1  0  0  0
 75 86  1  0  0  0
 75151  1  0  0  0
 75152  1  0  0  0
 76 78  1  0  0  0
 76153  1  0  0  0
 76154  1  0  0  0
 77 78  1  0  0  0
 77155  1  0  0  0
 77156  1  0  0  0
 78157  1  0  0  0
 78158  1  0  0  0
 79 80  1  0  0  0
 79 81  1  0  0  0
 79159  1  0  0  0
 79160  1  0  0  0
 80 82  1  0  0  0
 80161  1  0  0  0
 80162  1  0  0  0
 81 85  1  0  0  0
 81163  1  0  0  0
 81164  1  0  0  0
 82165  1  0  0  0
 82166  1  0  0  0
 83 85  1  0  0  0
 84 85  1  0  0  0
 86167  1  0  0  0
M  ISO  4   1 100  68 101  82 101  86 100
M  END
> <chiral flag>
0

> <version>
0

> <s_m_source_file>
/data/baiqing/PycharmProjects/Reinvent-master-3.2/result/LINK_invent/BTK/process_docking_weight1_custom_sum_contain_oxygen_bond_distance_aromatic_linkinvent_7_9_3/rearranged_h_0039.sdf

> <i_m_source_file_index>
61

> <r_mmod_Potential_Energy-OPLS-2005>
-80.7118682861328

> <r_mmod_Stretch_Energy-OPLS-2005>
48.923828125

> <r_mmod_Bend_Energy-OPLS-2005>
130.832260131836

> <r_mmod_Torsional_Energy-OPLS-2005>
223.881774902344

> <r_mmod_Improper_Torsional_Energy-OPLS-2005>
10.4681434631348

> <r_mmod_Van_der_Waal_Energy-OPLS-2005>
103.466781616211

> <r_mmod_Electrostatic_Energy-OPLS-2005>
-422.164489746094

> <r_mmod_Solvation_Energy-OPLS-2005>
-203.668853759766

> <b_mmod_Minimization_Converged-OPLS-2005>
0

> <r_mmod_RMS_Derivative-OPLS-2005>
2.04526019096375

$$$$
62
                    3D
 Structure written by MMmdl.
165173  0  0  1  0            999 V2000
  -30.7325  -14.4729   20.5842 C   0  0  0  0  0  0
  -30.4350  -12.3205   19.4326 C   0  0  0  0  0  0
  -29.5084  -12.5089   18.2148 C   0  0  0  0  0  0
  -28.0223  -12.3863   18.6155 C   0  0  0  0  0  0
  -27.6649  -13.2249   19.8742 C   0  0  2  0  0  0
  -28.7042  -13.0216   21.0023 C   0  0  0  0  0  0
  -25.2596  -13.8231   20.5683 C   0  0  0  0  0  0
  -24.1828  -13.0466   20.9149 C   0  0  0  0  0  0
  -24.6424  -11.6946   20.8697 C   0  0  0  0  0  0
  -23.9100  -10.4290   21.0364 C   0  0  0  0  0  0
  -24.3649   -9.4214   21.9149 C   0  0  0  0  0  0
  -23.6310   -8.2260   22.0739 C   0  0  0  0  0  0
  -22.4278   -8.0304   21.3574 C   0  0  0  0  0  0
  -21.9938   -9.0260   20.4655 C   0  0  0  0  0  0
  -22.7280  -10.2127   20.3037 C   0  0  0  0  0  0
  -21.6836   -6.0743   22.5272 C   0  0  0  0  0  0
  -21.3999   -6.5619   23.8206 C   0  0  0  0  0  0
  -21.3672   -5.6792   24.9175 C   0  0  0  0  0  0
  -21.6024   -4.3036   24.7215 C   0  0  0  0  0  0
  -21.8838   -3.8138   23.4337 C   0  0  0  0  0  0
  -21.9196   -4.6975   22.3399 C   0  0  0  0  0  0
  -22.7846  -13.5216   21.1824 C   0  0  0  0  0  0
  -22.1672   -4.2153   21.0984 F   0  0  0  0  0  0
  -21.5645   -3.4521   25.7733 F   0  0  0  0  0  0
  -30.0401  -13.3094   20.4519 N   0  0  0  0  0  0
  -26.3046  -12.9412   20.3362 N   0  0  0  0  0  0
  -25.9362  -11.6551   20.5772 N   0  0  0  0  0  0
  -22.0477  -12.8197   22.0389 N   0  0  0  0  0  0
  -25.4295  -15.1946   20.4135 N   0  0  0  0  0  0
  -31.8484  -14.6374   20.0897 O   0  0  0  0  0  0
  -21.6661   -6.8906   21.4242 O   0  0  0  0  0  0
  -22.3501  -14.5514   20.6683 O   0  0  0  0  0  0
  -24.6094  -31.8664   23.2069 C   0  0  0  0  0  0
  -25.8972  -32.4829   23.8387 C   0  0  1  0  0  0
  -27.2840  -27.4810   20.1050 C   0  0  0  0  0  0
  -25.5852  -33.8630   24.2331 N   0  0  0  0  0  0
  -23.4066  -30.4802   21.5387 C   0  0  2  0  0  0
  -24.8763  -28.9486   20.1133 C   0  0  0  0  0  0
  -22.7420  -29.4620   22.4925 C   0  0  0  0  0  0
  -18.0266  -28.1371   22.8477 C   0  0  0  0  0  0
  -24.1507  -36.7333   23.2631 C   0  0  0  0  0  0
  -25.9303  -30.8394   21.3686 C   0  0  0  0  0  0
  -26.0197  -29.4740   20.7260 C   0  0  0  0  0  0
  -27.2245  -28.7419   20.7307 C   0  0  0  0  0  0
  -26.1320  -26.9588   19.4841 C   0  0  0  0  0  0
  -24.9246  -27.6897   19.4884 C   0  0  0  0  0  0
  -23.6299  -29.8002   20.1565 C   0  0  0  0  0  0
  -25.4124  -36.3116   24.0325 C   0  0  1  0  0  0
  -20.5866  -28.3667   23.1307 C   0  0  2  0  0  0
  -20.6757  -26.9389   22.5417 C   0  0  0  0  0  0
  -19.5746  -26.6375   21.5196 C   0  0  0  0  0  0
  -18.1921  -26.7913   22.1604 C   0  0  0  0  0  0
  -19.1517  -28.8826   23.2899 C   0  0  0  0  0  0
  -18.9452  -30.1420   23.8932 C   0  0  0  0  0  0
  -17.6459  -30.6580   24.0557 C   0  0  0  0  0  0
  -25.9025  -34.9467   23.5121 C   0  0  0  0  0  0
  -16.5351  -29.9102   23.6302 C   0  0  0  0  0  0
  -16.7257  -28.6508   23.0334 C   0  0  0  0  0  0
  -26.4425  -31.6617   25.0707 C   0  0  0  0  0  0
  -25.3704  -31.3728   26.1470 C   0  0  0  0  0  0
  -27.0271  -30.3067   24.6069 C   0  0  0  0  0  0
  -27.6029  -32.4309   25.7454 C   0  0  0  0  0  0
  -27.5603  -37.1823   24.8450 C   0  0  0  0  0  0
  -21.4142  -29.3035   22.3703 N   0  0  0  0  0  0
  -26.4328  -37.3790   23.9372 N   0  0  0  0  0  0
  -24.6634  -31.0824   22.0940 N   0  0  0  0  0  0
  -23.4204  -28.8115   23.2912 O   0  0  0  0  0  0
  -28.4495  -26.7564   20.1378 O   0  0  0  0  0  0
  -26.5576  -34.8926   22.4677 O   0  0  0  0  0  0
  -23.5283  -32.1360   23.7466 O   0  0  0  0  0  0
  -30.6412  -22.5847   21.1356 C   0  0  0  0  0  0
  -29.0913  -23.6228   19.0459 C   0  0  0  0  0  0
  -30.9682  -23.8394   20.5790 C   0  0  0  0  0  0
  -28.8276  -22.3261   19.5345 C   0  0  0  0  0  0
  -29.5462  -21.8413   20.6541 C   0  0  0  0  0  0
  -30.1457  -24.4033   19.5652 C   0  0  0  0  0  0
  -32.2123  -24.5500   21.0771 C   0  0  0  0  0  0
  -27.8083  -21.4650   18.8043 C   0  0  0  0  0  0
  -29.1690  -20.5437   21.3640 C   0  0  0  0  0  0
  -30.4037  -25.7945   18.9689 C   0  0  0  0  0  0
  -30.1866  -19.4107   21.1647 C   0  0  0  0  0  0
  -29.5985  -17.9977   21.3999 C   0  0  0  0  0  0
  -30.6290  -16.8815   21.1298 C   0  0  0  0  0  0
  -29.1837  -26.7480   18.9207 C   0  0  0  0  0  0
  -30.0873  -15.5102   21.1536 N   0  0  0  0  0  0
  -31.4765  -12.4350   19.1193 H   0  0  0  0  0  0
  -30.3608  -11.3087   19.8388 H   0  0  0  0  0  0
  -29.7584  -11.7804   17.4438 H   0  0  0  0  0  0
  -29.6900  -13.4903   17.7699 H   0  0  0  0  0  0
  -27.7976  -11.3331   18.7965 H   0  0  0  0  0  0
  -27.3911  -12.6854   17.7765 H   0  0  0  0  0  0
  -27.7125  -14.2738   19.5793 H   0  0  0  0  0  0
  -28.6762  -11.9941   21.3627 H   0  0  0  0  0  0
  -28.4641  -13.6377   21.8721 H   0  0  0  0  0  0
  -25.2800   -9.5655   22.4728 H   0  0  0  0  0  0
  -24.0020   -7.4631   22.7430 H   0  0  0  0  0  0
  -21.0894   -8.8753   19.8962 H   0  0  0  0  0  0
  -22.3723  -10.9658   19.6144 H   0  0  0  0  0  0
  -21.1979   -7.6121   23.9699 H   0  0  0  0  0  0
  -21.1483   -6.0517   25.9085 H   0  0  0  0  0  0
  -22.0622   -2.7605   23.2816 H   0  0  0  0  0  0
  -22.4155  -11.9920   22.4847 H   0  0  0  0  0  0
  -21.1100  -13.1176   22.2595 H   0  0  0  0  0  0
  -24.6583  -15.8477   20.5094 H   0  0  0  0  0  0
  -26.2874  -15.6322   20.0974 H   0  0  0  0  0  0
  -26.7035  -32.5613   23.1166 H   0  0  0  0  0  0
  -25.0046  -33.9776   25.0505 H   0  0  0  0  0  0
  -22.6954  -31.2935   21.3792 H   0  0  0  0  0  0
  -23.3763  -35.9678   23.3305 H   0  0  0  0  0  0
  -24.3617  -36.8944   22.2049 H   0  0  0  0  0  0
  -23.7286  -37.6548   23.6649 H   0  0  0  0  0  0
  -26.0516  -31.6047   20.6020 H   0  0  0  0  0  0
  -26.8148  -30.8976   21.9914 H   0  0  0  0  0  0
  -28.1095  -29.1387   21.2114 H   0  0  0  0  0  0
  -26.1750  -25.9940   19.0001 H   0  0  0  0  0  0
  -24.0512  -27.2912   18.9913 H   0  0  0  0  0  0
  -23.7389  -30.5616   19.3827 H   0  0  0  0  0  0
  -22.7688  -29.1975   19.8633 H   0  0  0  0  0  0
  -25.1322  -36.1980   25.0827 H   0  0  0  0  0  0
  -20.9957  -28.3216   24.1430 H   0  0  0  0  0  0
  -20.5631  -26.2253   23.3595 H   0  0  0  0  0  0
  -21.6633  -26.7400   22.1226 H   0  0  0  0  0  0
  -19.6915  -25.6285   21.1224 H   0  0  0  0  0  0
  -19.6712  -27.3184   20.6725 H   0  0  0  0  0  0
  -17.4190  -26.6627   21.4020 H   0  0  0  0  0  0
  -18.0348  -26.0063   22.9008 H   0  0  0  0  0  0
  -19.7932  -30.7191   24.2365 H   0  0  0  0  0  0
  -17.5029  -31.6269   24.5137 H   0  0  0  0  0  0
  -15.5358  -30.3022   23.7613 H   0  0  0  0  0  0
  -15.8649  -28.0845   22.7056 H   0  0  0  0  0  0
  -24.5842  -30.7115   25.7803 H   0  0  0  0  0  0
  -24.8932  -32.2903   26.4930 H   0  0  0  0  0  0
  -25.8057  -30.8870   27.0212 H   0  0  0  0  0  0
  -26.2826  -29.6825   24.1109 H   0  0  0  0  0  0
  -27.4055  -29.7291   25.4514 H   0  0  0  0  0  0
  -27.8648  -30.4407   23.9217 H   0  0  0  0  0  0
  -27.2675  -33.3584   26.2092 H   0  0  0  0  0  0
  -28.3811  -32.6896   25.0265 H   0  0  0  0  0  0
  -28.0717  -31.8384   26.5317 H   0  0  0  0  0  0
  -28.2608  -38.0128   24.7505 H   0  0  0  0  0  0
  -28.1116  -36.2664   24.6287 H   0  0  0  0  0  0
  -27.2304  -37.1473   25.8845 H   0  0  0  0  0  0
  -20.9282  -29.8852   21.7021 H   0  0  0  0  0  0
  -26.0222  -38.2876   24.1363 H   0  0  0  0  0  0
  -31.2474  -22.1662   21.9276 H   0  0  0  0  0  0
  -28.4779  -24.0217   18.2491 H   0  0  0  0  0  0
  -31.9691  -25.5589   21.4038 H   0  0  0  0  0  0
  -32.9576  -24.5936   20.2819 H   0  0  0  0  0  0
  -32.6744  -24.0338   21.9196 H   0  0  0  0  0  0
  -28.1255  -20.4199   18.7839 H   0  0  0  0  0  0
  -27.6991  -21.7669   17.7598 H   0  0  0  0  0  0
  -26.8307  -21.5297   19.2797 H   0  0  0  0  0  0
  -28.1763  -20.2167   21.0626 H   0  0  0  0  0  0
  -29.0893  -20.7632   22.4287 H   0  0  0  0  0  0
  -30.7842  -25.6624   17.9531 H   0  0  0  0  0  0
  -31.2022  -26.3101   19.4969 H   0  0  0  0  0  0
  -30.5741  -19.4667   20.1463 H   0  0  0  0  0  0
  -31.0312  -19.5824   21.8325 H   0  0  0  0  0  0
  -28.7335  -17.8602   20.7500 H   0  0  0  0  0  0
  -29.2331  -17.9179   22.4237 H   0  0  0  0  0  0
  -31.0693  -17.0672   20.1488 H   0  0  0  0  0  0
  -31.4446  -16.9497   21.8481 H   0  0  0  0  0  0
  -28.5146  -26.4777   18.1039 H   0  0  0  0  0  0
  -29.5482  -27.7602   18.7268 H   0  0  0  0  0  0
  -29.1681  -15.3551   21.5348 H   0  0  0  0  0  0
  1 25  1  0  0  0
  1 30  2  0  0  0
  1 85  1  0  0  0
  2  3  1  0  0  0
  2 25  1  0  0  0
  2 86  1  0  0  0
  2 87  1  0  0  0
  3  4  1  0  0  0
  3 88  1  0  0  0
  3 89  1  0  0  0
  4  5  1  0  0  0
  4 90  1  0  0  0
  4 91  1  0  0  0
  5  6  1  0  0  0
  5 26  1  0  0  0
  5 92  1  0  0  0
  6 25  1  0  0  0
  6 93  1  0  0  0
  6 94  1  0  0  0
  7  8  2  0  0  0
  7 26  1  0  0  0
  7 29  1  0  0  0
  8  9  1  0  0  0
  8 22  1  0  0  0
  9 10  1  0  0  0
  9 27  2  0  0  0
 10 11  2  0  0  0
 10 15  1  0  0  0
 11 12  1  0  0  0
 11 95  1  0  0  0
 12 13  2  0  0  0
 12 96  1  0  0  0
 13 14  1  0  0  0
 13 31  1  0  0  0
 14 15  2  0  0  0
 14 97  1  0  0  0
 15 98  1  0  0  0
 16 17  2  0  0  0
 16 21  1  0  0  0
 16 31  1  0  0  0
 17 18  1  0  0  0
 17 99  1  0  0  0
 18 19  2  0  0  0
 18100  1  0  0  0
 19 20  1  0  0  0
 19 24  1  0  0  0
 20 21  2  0  0  0
 20101  1  0  0  0
 21 23  1  0  0  0
 22 28  1  0  0  0
 22 32  2  0  0  0
 26 27  1  0  0  0
 28102  1  0  0  0
 28103  1  0  0  0
 29104  1  0  0  0
 29105  1  0  0  0
 33 34  1  0  0  0
 33 66  1  0  0  0
 33 70  2  0  0  0
 34 36  1  0  0  0
 34 59  1  0  0  0
 34106  1  0  0  0
 35 44  2  0  0  0
 35 45  1  0  0  0
 35 68  1  0  0  0
 36 56  1  0  0  0
 36107  1  0  0  0
 37 39  1  0  0  0
 37 47  1  0  0  0
 37 66  1  0  0  0
 37108  1  0  0  0
 38 43  2  0  0  0
 38 46  1  0  0  0
 38 47  1  0  0  0
 39 64  1  0  0  0
 39 67  2  0  0  0
 40 52  1  0  0  0
 40 53  2  0  0  0
 40 58  1  0  0  0
 41109  1  0  0  0
 41110  1  0  0  0
 41111  1  0  0  0
 41 48  1  0  0  0
 42 43  1  0  0  0
 42 66  1  0  0  0
 42112  1  0  0  0
 42113  1  0  0  0
 43 44  1  0  0  0
 44114  1  0  0  0
 45 46  2  0  0  0
 45115  1  0  0  0
 46116  1  0  0  0
 47117  1  0  0  0
 47118  1  0  0  0
 48 56  1  0  0  0
 48 65  1  0  0  0
 48119  1  0  0  0
 49 50  1  0  0  0
 49 53  1  0  0  0
 49 64  1  0  0  0
 49120  1  0  0  0
 50 51  1  0  0  0
 50121  1  0  0  0
 50122  1  0  0  0
 51 52  1  0  0  0
 51123  1  0  0  0
 51124  1  0  0  0
 52125  1  0  0  0
 52126  1  0  0  0
 53 54  1  0  0  0
 54 55  2  0  0  0
 54127  1  0  0  0
 55 57  1  0  0  0
 55128  1  0  0  0
 56 69  2  0  0  0
 57 58  2  0  0  0
 57129  1  0  0  0
 58130  1  0  0  0
 59 60  1  0  0  0
 59 61  1  0  0  0
 59 62  1  0  0  0
 60131  1  0  0  0
 60132  1  0  0  0
 60133  1  0  0  0
 61134  1  0  0  0
 61135  1  0  0  0
 61136  1  0  0  0
 62137  1  0  0  0
 62138  1  0  0  0
 62139  1  0  0  0
 63 65  1  0  0  0
 63140  1  0  0  0
 63141  1  0  0  0
 63142  1  0  0  0
 64143  1  0  0  0
 65144  1  0  0  0
 68 84  1  0  0  0
 71 73  2  0  0  0
 71 75  1  0  0  0
 71145  1  0  0  0
 72 74  1  0  0  0
 72 76  2  0  0  0
 72146  1  0  0  0
 73 76  1  0  0  0
 73 77  1  0  0  0
 74 75  2  0  0  0
 74 78  1  0  0  0
 75 79  1  0  0  0
 76 80  1  0  0  0
 77147  1  0  0  0
 77148  1  0  0  0
 77149  1  0  0  0
 78150  1  0  0  0
 78151  1  0  0  0
 78152  1  0  0  0
 79 81  1  0  0  0
 79153  1  0  0  0
 79154  1  0  0  0
 80 84  1  0  0  0
 80155  1  0  0  0
 80156  1  0  0  0
 81 82  1  0  0  0
 81157  1  0  0  0
 81158  1  0  0  0
 82 83  1  0  0  0
 82159  1  0  0  0
 82160  1  0  0  0
 83 85  1  0  0  0
 83161  1  0  0  0
 83162  1  0  0  0
 84163  1  0  0  0
 84164  1  0  0  0
 85165  1  0  0  0
M  ISO  4   1 100  68 101  84 101  85 100
M  END
> <chiral flag>
0

> <version>
0

> <s_m_source_file>
/data/baiqing/PycharmProjects/Reinvent-master-3.2/result/LINK_invent/BTK/process_docking_weight1_custom_sum_contain_oxygen_bond_distance_aromatic_linkinvent_7_9_3/rearranged_h_0039.sdf

> <i_m_source_file_index>
62

> <r_mmod_Potential_Energy-OPLS-2005>
-67.7153167724609

> <r_mmod_Stretch_Energy-OPLS-2005>
35.9973449707031

> <r_mmod_Bend_Energy-OPLS-2005>
91.8127899169922

> <r_mmod_Torsional_Energy-OPLS-2005>
228.820861816406

> <r_mmod_Improper_Torsional_Energy-OPLS-2005>
3.51895833015442

> <r_mmod_Van_der_Waal_Energy-OPLS-2005>
151.446304321289

> <r_mmod_Electrostatic_Energy-OPLS-2005>
-383.292358398438

> <r_mmod_Solvation_Energy-OPLS-2005>
-209.391723632812

> <b_mmod_Minimization_Converged-OPLS-2005>
0

> <r_mmod_RMS_Derivative-OPLS-2005>
7.11953735351562

$$$$
63
                    3D
 Structure written by MMmdl.
171179  0  0  1  0            999 V2000
  -30.7303  -14.4095   20.6013 C   0  0  0  0  0  0
  -30.4202  -12.2774   19.4009 C   0  0  0  0  0  0
  -29.4867  -12.5179   18.1974 C   0  0  0  0  0  0
  -28.0097  -12.3766   18.6141 C   0  0  0  0  0  0
  -27.6662  -13.2023   19.8825 C   0  0  2  0  0  0
  -28.7106  -12.9443   20.9931 C   0  0  0  0  0  0
  -25.2620  -13.8155   20.5742 C   0  0  0  0  0  0
  -24.1845  -13.0408   20.9173 C   0  0  0  0  0  0
  -24.6400  -11.6893   20.8708 C   0  0  0  0  0  0
  -23.9061  -10.4289   21.0380 C   0  0  0  0  0  0
  -24.3615   -9.4213   21.9154 C   0  0  0  0  0  0
  -23.6295   -8.2246   22.0729 C   0  0  0  0  0  0
  -22.4275   -8.0282   21.3536 C   0  0  0  0  0  0
  -21.9904   -9.0238   20.4626 C   0  0  0  0  0  0
  -22.7226  -10.2126   20.3038 C   0  0  0  0  0  0
  -21.6843   -6.0732   22.5296 C   0  0  0  0  0  0
  -21.3999   -6.5631   23.8231 C   0  0  0  0  0  0
  -21.3677   -5.6799   24.9197 C   0  0  0  0  0  0
  -21.6042   -4.3058   24.7242 C   0  0  0  0  0  0
  -21.8812   -3.8145   23.4368 C   0  0  0  0  0  0
  -21.9193   -4.6956   22.3424 C   0  0  0  0  0  0
  -22.7880  -13.5202   21.1836 C   0  0  0  0  0  0
  -22.1654   -4.2144   21.0995 F   0  0  0  0  0  0
  -21.5635   -3.4542   25.7750 F   0  0  0  0  0  0
  -30.0503  -13.2435   20.4459 N   0  0  0  0  0  0
  -26.3047  -12.9316   20.3426 N   0  0  0  0  0  0
  -25.9321  -11.6466   20.5738 N   0  0  0  0  0  0
  -22.0543  -12.8187   22.0405 N   0  0  0  0  0  0
  -25.4345  -15.1864   20.4221 N   0  0  0  0  0  0
  -31.8273  -14.6368   20.0855 O   0  0  0  0  0  0
  -21.6644   -6.8871   21.4257 O   0  0  0  0  0  0
  -22.3541  -14.5499   20.6703 O   0  0  0  0  0  0
  -24.6157  -31.8710   23.2150 C   0  0  0  0  0  0
  -25.9062  -32.4839   23.8431 C   0  0  1  0  0  0
  -27.2381  -27.4591   20.0731 C   0  0  0  0  0  0
  -25.5935  -33.8644   24.2366 N   0  0  0  0  0  0
  -23.4008  -30.4976   21.5551 C   0  0  2  0  0  0
  -24.8435  -28.9651   20.1265 C   0  0  0  0  0  0
  -22.7411  -29.4682   22.5012 C   0  0  0  0  0  0
  -18.0275  -28.1374   22.8494 C   0  0  0  0  0  0
  -24.1495  -36.7302   23.2623 C   0  0  0  0  0  0
  -25.9301  -30.8395   21.3688 C   0  0  0  0  0  0
  -26.0043  -29.4742   20.7201 C   0  0  0  0  0  0
  -27.2009  -28.7234   20.7016 C   0  0  0  0  0  0
  -26.0450  -26.9534   19.4987 C   0  0  0  0  0  0
  -24.8547  -27.7001   19.5201 C   0  0  0  0  0  0
  -23.6101  -29.8338   20.1694 C   0  0  0  0  0  0
  -25.4117  -36.3117   24.0330 C   0  0  1  0  0  0
  -20.5867  -28.3665   23.1318 C   0  0  2  0  0  0
  -20.6774  -26.9413   22.5404 C   0  0  0  0  0  0
  -19.5744  -26.6385   21.5204 C   0  0  0  0  0  0
  -18.1919  -26.7916   22.1619 C   0  0  0  0  0  0
  -19.1526  -28.8840   23.2902 C   0  0  0  0  0  0
  -18.9449  -30.1448   23.8909 C   0  0  0  0  0  0
  -17.6443  -30.6576   24.0581 C   0  0  0  0  0  0
  -25.9040  -34.9478   23.5132 C   0  0  0  0  0  0
  -16.5339  -29.9080   23.6335 C   0  0  0  0  0  0
  -16.7260  -28.6506   23.0343 C   0  0  0  0  0  0
  -26.4495  -31.6602   25.0739 C   0  0  0  0  0  0
  -25.3776  -31.3708   26.1494 C   0  0  0  0  0  0
  -27.0308  -30.3051   24.6087 C   0  0  0  0  0  0
  -27.6082  -32.4312   25.7478 C   0  0  0  0  0  0
  -27.5594  -37.1805   24.8466 C   0  0  0  0  0  0
  -21.4143  -29.3037   22.3740 N   0  0  0  0  0  0
  -26.4307  -37.3808   23.9411 N   0  0  0  0  0  0
  -24.6666  -31.0843   22.1041 N   0  0  0  0  0  0
  -23.4182  -28.8209   23.3046 O   0  0  0  0  0  0
  -28.4353  -26.7710   20.0212 O   0  0  0  0  0  0
  -26.5590  -34.8923   22.4680 O   0  0  0  0  0  0
  -23.5362  -32.1436   23.7573 O   0  0  0  0  0  0
  -29.6560  -24.1972   15.1373 C   0  0  0  0  0  0
  -29.6814  -24.9612   16.3137 C   0  0  0  0  0  0
  -30.5978  -22.3174   16.3612 C   0  0  0  0  0  0
  -30.0876  -22.8595   15.1632 C   0  0  0  0  0  0
  -30.1246  -24.4115   17.5398 C   0  0  0  0  0  0
  -30.6511  -23.0876   17.5457 C   0  0  0  0  0  0
  -28.5796  -21.7698   13.4412 C   0  0  0  0  0  0
  -30.0233  -22.0306   13.8924 C   0  0  0  0  0  0
  -29.9939  -25.2831   18.7966 C   0  0  0  0  0  0
  -31.3613  -22.4831   18.7553 C   0  0  0  0  0  0
  -30.5265  -21.4877   19.5871 C   0  0  0  0  0  0
  -30.7386  -19.9974   19.2302 C   0  0  0  0  0  0
  -30.3525  -19.0684   20.4017 C   0  0  0  0  0  0
  -30.6556  -17.5725   20.1925 C   0  0  0  0  0  0
  -30.4227  -16.7568   21.4885 C   0  0  0  0  0  0
  -28.5515  -25.7877   18.9919 C   0  0  0  0  0  0
  -30.0623  -15.3551   21.2719 N   0  0  0  0  0  0
  -31.4663  -12.3652   19.0985 H   0  0  0  0  0  0
  -30.3025  -11.2581   19.7715 H   0  0  0  0  0  0
  -29.7141  -11.8197   17.3917 H   0  0  0  0  0  0
  -29.6570  -13.5165   17.7937 H   0  0  0  0  0  0
  -27.8136  -11.3186   18.7933 H   0  0  0  0  0  0
  -27.3589  -12.6667   17.7889 H   0  0  0  0  0  0
  -27.7245  -14.2550   19.6038 H   0  0  0  0  0  0
  -28.6728  -11.8976   21.2987 H   0  0  0  0  0  0
  -28.4733  -13.5093   21.8952 H   0  0  0  0  0  0
  -25.2764   -9.5686   22.4703 H   0  0  0  0  0  0
  -24.0004   -7.4645   22.7448 H   0  0  0  0  0  0
  -21.0827   -8.8757   19.8932 H   0  0  0  0  0  0
  -22.3684  -10.9644   19.6143 H   0  0  0  0  0  0
  -21.1995   -7.6142   23.9732 H   0  0  0  0  0  0
  -21.1488   -6.0529   25.9103 H   0  0  0  0  0  0
  -22.0580   -2.7598   23.2881 H   0  0  0  0  0  0
  -22.4172  -11.9845   22.4742 H   0  0  0  0  0  0
  -21.1162  -13.1177   22.2660 H   0  0  0  0  0  0
  -24.6729  -15.8436   20.5497 H   0  0  0  0  0  0
  -26.2971  -15.6323   20.1331 H   0  0  0  0  0  0
  -26.7129  -32.5580   23.1198 H   0  0  0  0  0  0
  -25.0191  -33.9846   25.0581 H   0  0  0  0  0  0
  -22.6878  -31.3136   21.4188 H   0  0  0  0  0  0
  -23.3763  -35.9631   23.3292 H   0  0  0  0  0  0
  -24.3602  -36.8921   22.2040 H   0  0  0  0  0  0
  -23.7237  -37.6500   23.6635 H   0  0  0  0  0  0
  -26.0457  -31.6035   20.5986 H   0  0  0  0  0  0
  -26.8174  -30.8894   21.9880 H   0  0  0  0  0  0
  -28.1016  -29.1227   21.1466 H   0  0  0  0  0  0
  -26.0066  -25.9862   19.0212 H   0  0  0  0  0  0
  -23.9589  -27.2997   19.0644 H   0  0  0  0  0  0
  -23.7345  -30.6079   19.4110 H   0  0  0  0  0  0
  -22.7328  -29.2594   19.8669 H   0  0  0  0  0  0
  -25.1299  -36.1969   25.0828 H   0  0  0  0  0  0
  -20.9960  -28.3216   24.1436 H   0  0  0  0  0  0
  -20.5701  -26.2275   23.3590 H   0  0  0  0  0  0
  -21.6644  -26.7475   22.1194 H   0  0  0  0  0  0
  -19.6921  -25.6302   21.1223 H   0  0  0  0  0  0
  -19.6663  -27.3211   20.6744 H   0  0  0  0  0  0
  -17.4203  -26.6674   21.4008 H   0  0  0  0  0  0
  -18.0321  -26.0048   22.9005 H   0  0  0  0  0  0
  -19.7928  -30.7273   24.2249 H   0  0  0  0  0  0
  -17.5006  -31.6253   24.5188 H   0  0  0  0  0  0
  -15.5350  -30.2992   23.7638 H   0  0  0  0  0  0
  -15.8664  -28.0840   22.7022 H   0  0  0  0  0  0
  -24.5914  -30.7096   25.7829 H   0  0  0  0  0  0
  -24.9011  -32.2873   26.4983 H   0  0  0  0  0  0
  -25.8135  -30.8831   27.0220 H   0  0  0  0  0  0
  -26.2825  -29.6796   24.1196 H   0  0  0  0  0  0
  -27.4154  -29.7302   25.4518 H   0  0  0  0  0  0
  -27.8636  -30.4379   23.9174 H   0  0  0  0  0  0
  -27.2720  -33.3629   26.2033 H   0  0  0  0  0  0
  -28.3877  -32.6830   25.0277 H   0  0  0  0  0  0
  -28.0731  -31.8436   26.5407 H   0  0  0  0  0  0
  -28.2599  -38.0115   24.7575 H   0  0  0  0  0  0
  -28.1106  -36.2658   24.6221 H   0  0  0  0  0  0
  -27.2339  -37.1396   25.8877 H   0  0  0  0  0  0
  -20.9299  -29.8779   21.6984 H   0  0  0  0  0  0
  -26.0180  -38.2880   24.1427 H   0  0  0  0  0  0
  -29.2941  -24.6438   14.2197 H   0  0  0  0  0  0
  -29.3435  -25.9852   16.2563 H   0  0  0  0  0  0
  -30.9752  -21.3045   16.3720 H   0  0  0  0  0  0
  -28.5579  -21.1905   12.5175 H   0  0  0  0  0  0
  -28.0371  -22.6972   13.2547 H   0  0  0  0  0  0
  -28.0295  -21.2119   14.1982 H   0  0  0  0  0  0
  -30.5454  -21.0822   14.0341 H   0  0  0  0  0  0
  -30.5602  -22.5598   13.1039 H   0  0  0  0  0  0
  -30.6795  -26.1270   18.7088 H   0  0  0  0  0  0
  -30.2733  -24.7491   19.7015 H   0  0  0  0  0  0
  -31.7316  -23.2789   19.3993 H   0  0  0  0  0  0
  -32.2748  -21.9996   18.4082 H   0  0  0  0  0  0
  -29.4694  -21.7561   19.5680 H   0  0  0  0  0  0
  -30.8370  -21.6174   20.6245 H   0  0  0  0  0  0
  -31.7873  -19.8236   18.9839 H   0  0  0  0  0  0
  -30.1701  -19.7479   18.3330 H   0  0  0  0  0  0
  -29.2867  -19.1768   20.6076 H   0  0  0  0  0  0
  -30.8741  -19.4032   21.2987 H   0  0  0  0  0  0
  -31.6930  -17.4468   19.8751 H   0  0  0  0  0  0
  -30.0344  -17.1932   19.3808 H   0  0  0  0  0  0
  -29.5976  -17.1995   22.0482 H   0  0  0  0  0  0
  -31.2945  -16.8173   22.1434 H   0  0  0  0  0  0
  -27.9094  -24.9333   19.2098 H   0  0  0  0  0  0
  -28.1907  -26.2402   18.0704 H   0  0  0  0  0  0
  -29.1820  -15.0594   21.6638 H   0  0  0  0  0  0
  1 25  1  0  0  0
  1 30  2  0  0  0
  1 87  1  0  0  0
  2  3  1  0  0  0
  2 25  1  0  0  0
  2 88  1  0  0  0
  2 89  1  0  0  0
  3  4  1  0  0  0
  3 90  1  0  0  0
  3 91  1  0  0  0
  4  5  1  0  0  0
  4 92  1  0  0  0
  4 93  1  0  0  0
  5  6  1  0  0  0
  5 26  1  0  0  0
  5 94  1  0  0  0
  6 25  1  0  0  0
  6 95  1  0  0  0
  6 96  1  0  0  0
  7  8  2  0  0  0
  7 26  1  0  0  0
  7 29  1  0  0  0
  8  9  1  0  0  0
  8 22  1  0  0  0
  9 10  1  0  0  0
  9 27  2  0  0  0
 10 11  2  0  0  0
 10 15  1  0  0  0
 11 12  1  0  0  0
 11 97  1  0  0  0
 12 13  2  0  0  0
 12 98  1  0  0  0
 13 14  1  0  0  0
 13 31  1  0  0  0
 14 15  2  0  0  0
 14 99  1  0  0  0
 15100  1  0  0  0
 16 17  2  0  0  0
 16 21  1  0  0  0
 16 31  1  0  0  0
 17 18  1  0  0  0
 17101  1  0  0  0
 18 19  2  0  0  0
 18102  1  0  0  0
 19 20  1  0  0  0
 19 24  1  0  0  0
 20 21  2  0  0  0
 20103  1  0  0  0
 21 23  1  0  0  0
 22 28  1  0  0  0
 22 32  2  0  0  0
 26 27  1  0  0  0
 28104  1  0  0  0
 28105  1  0  0  0
 29106  1  0  0  0
 29107  1  0  0  0
 33 34  1  0  0  0
 33 66  1  0  0  0
 33 70  2  0  0  0
 34 36  1  0  0  0
 34 59  1  0  0  0
 34108  1  0  0  0
 35 44  2  0  0  0
 35 45  1  0  0  0
 35 68  1  0  0  0
 36 56  1  0  0  0
 36109  1  0  0  0
 37 39  1  0  0  0
 37 47  1  0  0  0
 37 66  1  0  0  0
 37110  1  0  0  0
 38 43  2  0  0  0
 38 46  1  0  0  0
 38 47  1  0  0  0
 39 64  1  0  0  0
 39 67  2  0  0  0
 40 52  1  0  0  0
 40 53  2  0  0  0
 40 58  1  0  0  0
 41111  1  0  0  0
 41112  1  0  0  0
 41113  1  0  0  0
 41 48  1  0  0  0
 42 43  1  0  0  0
 42 66  1  0  0  0
 42114  1  0  0  0
 42115  1  0  0  0
 43 44  1  0  0  0
 44116  1  0  0  0
 45 46  2  0  0  0
 45117  1  0  0  0
 46118  1  0  0  0
 47119  1  0  0  0
 47120  1  0  0  0
 48 56  1  0  0  0
 48 65  1  0  0  0
 48121  1  0  0  0
 49 50  1  0  0  0
 49 53  1  0  0  0
 49 64  1  0  0  0
 49122  1  0  0  0
 50 51  1  0  0  0
 50123  1  0  0  0
 50124  1  0  0  0
 51 52  1  0  0  0
 51125  1  0  0  0
 51126  1  0  0  0
 52127  1  0  0  0
 52128  1  0  0  0
 53 54  1  0  0  0
 54 55  2  0  0  0
 54129  1  0  0  0
 55 57  1  0  0  0
 55130  1  0  0  0
 56 69  2  0  0  0
 57 58  2  0  0  0
 57131  1  0  0  0
 58132  1  0  0  0
 59 60  1  0  0  0
 59 61  1  0  0  0
 59 62  1  0  0  0
 60133  1  0  0  0
 60134  1  0  0  0
 60135  1  0  0  0
 61136  1  0  0  0
 61137  1  0  0  0
 61138  1  0  0  0
 62139  1  0  0  0
 62140  1  0  0  0
 62141  1  0  0  0
 63 65  1  0  0  0
 63142  1  0  0  0
 63143  1  0  0  0
 63144  1  0  0  0
 64145  1  0  0  0
 65146  1  0  0  0
 68 86  1  0  0  0
 71 72  2  0  0  0
 71 74  1  0  0  0
 71147  1  0  0  0
 72 75  1  0  0  0
 72148  1  0  0  0
 73 74  2  0  0  0
 73 76  1  0  0  0
 73149  1  0  0  0
 74 78  1  0  0  0
 75 76  2  0  0  0
 75 79  1  0  0  0
 76 80  1  0  0  0
 77 78  1  0  0  0
 77150  1  0  0  0
 77151  1  0  0  0
 77152  1  0  0  0
 78153  1  0  0  0
 78154  1  0  0  0
 79 86  1  0  0  0
 79155  1  0  0  0
 79156  1  0  0  0
 80 81  1  0  0  0
 80157  1  0  0  0
 80158  1  0  0  0
 81 82  1  0  0  0
 81159  1  0  0  0
 81160  1  0  0  0
 82 83  1  0  0  0
 82161  1  0  0  0
 82162  1  0  0  0
 83 84  1  0  0  0
 83163  1  0  0  0
 83164  1  0  0  0
 84 85  1  0  0  0
 84165  1  0  0  0
 84166  1  0  0  0
 85 87  1  0  0  0
 85167  1  0  0  0
 85168  1  0  0  0
 86169  1  0  0  0
 86170  1  0  0  0
 87171  1  0  0  0
M  ISO  4   1 100  68 101  86 101  87 100
M  END
> <chiral flag>
0

> <version>
0

> <s_m_source_file>
/data/baiqing/PycharmProjects/Reinvent-master-3.2/result/LINK_invent/BTK/process_docking_weight1_custom_sum_contain_oxygen_bond_distance_aromatic_linkinvent_7_9_3/rearranged_h_0039.sdf

> <i_m_source_file_index>
63

> <r_mmod_Potential_Energy-OPLS-2005>
-53.1522636413574

> <r_mmod_Stretch_Energy-OPLS-2005>
35.5325508117676

> <r_mmod_Bend_Energy-OPLS-2005>
99.5704498291016

> <r_mmod_Torsional_Energy-OPLS-2005>
209.525619506836

> <r_mmod_Improper_Torsional_Energy-OPLS-2005>
2.79151368141174

> <r_mmod_Van_der_Waal_Energy-OPLS-2005>
162.643707275391

> <r_mmod_Electrostatic_Energy-OPLS-2005>
-370.315063476562

> <r_mmod_Solvation_Energy-OPLS-2005>
-201.381591796875

> <b_mmod_Minimization_Converged-OPLS-2005>
0

> <r_mmod_RMS_Derivative-OPLS-2005>
3.47869634628296

$$$$
64
                    3D
 Structure written by MMmdl.
173181  0  0  1  0            999 V2000
  -30.7101  -14.4102   20.6089 C   0  0  0  0  0  0
  -30.4187  -12.2770   19.4126 C   0  0  0  0  0  0
  -29.4976  -12.4933   18.1958 C   0  0  0  0  0  0
  -28.0151  -12.3657   18.6090 C   0  0  0  0  0  0
  -27.6662  -13.1997   19.8736 C   0  0  2  0  0  0
  -28.6994  -12.9461   20.9959 C   0  0  0  0  0  0
  -25.2620  -13.8121   20.5621 C   0  0  0  0  0  0
  -24.1839  -13.0434   20.9176 C   0  0  0  0  0  0
  -24.6376  -11.6907   20.8728 C   0  0  0  0  0  0
  -23.9021  -10.4295   21.0408 C   0  0  0  0  0  0
  -24.3572   -9.4214   21.9181 C   0  0  0  0  0  0
  -23.6249   -8.2239   22.0750 C   0  0  0  0  0  0
  -22.4237   -8.0274   21.3529 C   0  0  0  0  0  0
  -21.9860   -9.0268   20.4639 C   0  0  0  0  0  0
  -22.7204  -10.2154   20.3048 C   0  0  0  0  0  0
  -21.6835   -6.0708   22.5275 C   0  0  0  0  0  0
  -21.4014   -6.5614   23.8213 C   0  0  0  0  0  0
  -21.3658   -5.6772   24.9178 C   0  0  0  0  0  0
  -21.6039   -4.3038   24.7235 C   0  0  0  0  0  0
  -21.8824   -3.8122   23.4365 C   0  0  0  0  0  0
  -21.9194   -4.6931   22.3407 C   0  0  0  0  0  0
  -22.7900  -13.5320   21.1892 C   0  0  0  0  0  0
  -22.1669   -4.2112   21.0984 F   0  0  0  0  0  0
  -21.5607   -3.4534   25.7749 F   0  0  0  0  0  0
  -30.0342  -13.2445   20.4520 N   0  0  0  0  0  0
  -26.3036  -12.9260   20.3312 N   0  0  0  0  0  0
  -25.9301  -11.6441   20.5754 N   0  0  0  0  0  0
  -22.0496  -12.8268   22.0396 N   0  0  0  0  0  0
  -25.4408  -15.1780   20.3933 N   0  0  0  0  0  0
  -31.8086  -14.6375   20.0973 O   0  0  0  0  0  0
  -21.6613   -6.8863   21.4241 O   0  0  0  0  0  0
  -22.3620  -14.5676   20.6849 O   0  0  0  0  0  0
  -24.6066  -31.8764   23.2116 C   0  0  0  0  0  0
  -25.8989  -32.4856   23.8427 C   0  0  1  0  0  0
  -27.2394  -27.4692   20.1159 C   0  0  0  0  0  0
  -25.5840  -33.8644   24.2376 N   0  0  0  0  0  0
  -23.3921  -30.4985   21.5558 C   0  0  2  0  0  0
  -24.8425  -28.9675   20.1186 C   0  0  0  0  0  0
  -22.7333  -29.4695   22.5026 C   0  0  0  0  0  0
  -18.0267  -28.1367   22.8553 C   0  0  0  0  0  0
  -24.1462  -36.7353   23.2655 C   0  0  0  0  0  0
  -25.9135  -30.8563   21.3527 C   0  0  0  0  0  0
  -25.9964  -29.4873   20.7167 C   0  0  0  0  0  0
  -27.1960  -28.7455   20.7191 C   0  0  0  0  0  0
  -26.0756  -26.9667   19.4974 C   0  0  0  0  0  0
  -24.8728  -27.7006   19.5102 C   0  0  0  0  0  0
  -23.5984  -29.8295   20.1693 C   0  0  0  0  0  0
  -25.4078  -36.3153   24.0375 C   0  0  1  0  0  0
  -20.5845  -28.3583   23.1370 C   0  0  2  0  0  0
  -20.6667  -26.9324   22.5400 C   0  0  0  0  0  0
  -19.5599  -26.6340   21.5199 C   0  0  0  0  0  0
  -18.1831  -26.7927   22.1644 C   0  0  0  0  0  0
  -19.1532  -28.8799   23.2950 C   0  0  0  0  0  0
  -18.9514  -30.1433   23.8907 C   0  0  0  0  0  0
  -17.6525  -30.6612   24.0549 C   0  0  0  0  0  0
  -25.8997  -34.9503   23.5185 C   0  0  0  0  0  0
  -16.5387  -29.9120   23.6349 C   0  0  0  0  0  0
  -16.7266  -28.6503   23.0438 C   0  0  0  0  0  0
  -26.4447  -31.6604   25.0708 C   0  0  0  0  0  0
  -25.3763  -31.3641   26.1477 C   0  0  0  0  0  0
  -27.0246  -30.3074   24.5978 C   0  0  0  0  0  0
  -27.6044  -32.4306   25.7445 C   0  0  0  0  0  0
  -27.5580  -37.1813   24.8477 C   0  0  0  0  0  0
  -21.4075  -29.2993   22.3776 N   0  0  0  0  0  0
  -26.4287  -37.3828   23.9429 N   0  0  0  0  0  0
  -24.6580  -31.0845   22.1042 N   0  0  0  0  0  0
  -23.4147  -28.8224   23.3011 O   0  0  0  0  0  0
  -28.3819  -26.7035   20.0758 O   0  0  0  0  0  0
  -26.5608  -34.8947   22.4762 O   0  0  0  0  0  0
  -23.5276  -32.1487   23.7547 O   0  0  0  0  0  0
  -27.3815  -24.7375   21.9767 C   0  0  0  0  0  0
  -29.0490  -23.5315   23.7720 C   0  0  0  0  0  0
  -28.6800  -25.2748   22.1154 C   0  0  0  0  0  0
  -29.5429  -24.6328   23.0478 C   0  0  0  0  0  0
  -26.9972  -23.6114   22.7253 C   0  0  0  0  0  0
  -31.9819  -23.9372   23.0202 C   0  0  0  0  0  0
  -30.9820  -25.0637   23.3243 C   0  0  0  0  0  0
  -29.1026  -26.5131   21.3063 C   0  0  0  0  0  0
  -25.5999  -23.0171   22.6060 C   0  0  0  0  0  0
  -25.6005  -21.4907   22.3869 C   0  0  0  0  0  0
  -26.0531  -21.0822   20.9720 C   0  0  0  0  0  0
  -26.3009  -19.5697   20.8134 C   0  0  0  0  0  0
  -27.4174  -19.0725   21.7430 C   0  0  0  0  0  0
  -28.1633  -17.8327   21.2287 C   0  0  0  0  0  0
  -29.4487  -17.6332   22.0496 C   0  0  0  0  0  0
  -30.5035  -16.7428   21.3878 C   0  0  0  0  0  0
  -27.8089  -23.0365   23.6332 N   0  0  0  0  0  0
  -30.0455  -15.3657   21.2717 N   0  0  0  0  0  0
  -31.4663  -12.3679   19.1205 H   0  0  0  0  0  0
  -30.2980  -11.2573   19.7849 H   0  0  0  0  0  0
  -29.7414  -11.7676   17.4153 H   0  0  0  0  0  0
  -29.6771  -13.4781   17.7631 H   0  0  0  0  0  0
  -27.8209  -11.3137   18.8135 H   0  0  0  0  0  0
  -27.3629  -12.6403   17.7776 H   0  0  0  0  0  0
  -27.7201  -14.2515   19.5879 H   0  0  0  0  0  0
  -28.6603  -11.9011   21.3079 H   0  0  0  0  0  0
  -28.4591  -13.5204   21.8904 H   0  0  0  0  0  0
  -25.2715   -9.5690   22.4790 H   0  0  0  0  0  0
  -23.9965   -7.4622   22.7466 H   0  0  0  0  0  0
  -21.0777   -8.8806   19.8933 H   0  0  0  0  0  0
  -22.3674  -10.9707   19.6174 H   0  0  0  0  0  0
  -21.2015   -7.6129   23.9709 H   0  0  0  0  0  0
  -21.1473   -6.0511   25.9078 H   0  0  0  0  0  0
  -22.0607   -2.7586   23.2888 H   0  0  0  0  0  0
  -22.4032  -11.9909   22.4783 H   0  0  0  0  0  0
  -21.1191  -13.1418   22.2653 H   0  0  0  0  0  0
  -24.6904  -15.8539   20.4856 H   0  0  0  0  0  0
  -26.3058  -15.5782   20.0516 H   0  0  0  0  0  0
  -26.7084  -32.5599   23.1227 H   0  0  0  0  0  0
  -24.9939  -33.9836   25.0484 H   0  0  0  0  0  0
  -22.6878  -31.3231   21.4198 H   0  0  0  0  0  0
  -23.3720  -35.9687   23.3338 H   0  0  0  0  0  0
  -24.3585  -36.8925   22.2065 H   0  0  0  0  0  0
  -23.7196  -37.6568   23.6637 H   0  0  0  0  0  0
  -25.9926  -31.6164   20.5732 H   0  0  0  0  0  0
  -26.8106  -30.9295   21.9537 H   0  0  0  0  0  0
  -28.0835  -29.1719   21.1634 H   0  0  0  0  0  0
  -26.0970  -25.9982   19.0210 H   0  0  0  0  0  0
  -23.9852  -27.2904   19.0480 H   0  0  0  0  0  0
  -23.6987  -30.6043   19.4085 H   0  0  0  0  0  0
  -22.7178  -29.2532   19.8801 H   0  0  0  0  0  0
  -25.1227  -36.2080   25.0877 H   0  0  0  0  0  0
  -20.9903  -28.3076   24.1520 H   0  0  0  0  0  0
  -20.5510  -26.2193   23.3587 H   0  0  0  0  0  0
  -21.6528  -26.7373   22.1194 H   0  0  0  0  0  0
  -19.6616  -25.6196   21.1316 H   0  0  0  0  0  0
  -19.6511  -27.3145   20.6717 H   0  0  0  0  0  0
  -17.4075  -26.6788   21.4057 H   0  0  0  0  0  0
  -18.0220  -26.0036   22.9006 H   0  0  0  0  0  0
  -19.8036  -30.7205   24.2251 H   0  0  0  0  0  0
  -17.5156  -31.6334   24.5099 H   0  0  0  0  0  0
  -15.5400  -30.3051   23.7665 H   0  0  0  0  0  0
  -15.8650  -28.0798   22.7225 H   0  0  0  0  0  0
  -24.5935  -30.6995   25.7828 H   0  0  0  0  0  0
  -24.8940  -32.2740   26.5040 H   0  0  0  0  0  0
  -25.8145  -30.8748   27.0182 H   0  0  0  0  0  0
  -26.2738  -29.6858   24.1085 H   0  0  0  0  0  0
  -27.4133  -29.7266   25.4361 H   0  0  0  0  0  0
  -27.8526  -30.4440   23.9018 H   0  0  0  0  0  0
  -27.2684  -33.3578   26.2107 H   0  0  0  0  0  0
  -28.3781  -32.6910   25.0216 H   0  0  0  0  0  0
  -28.0803  -31.8386   26.5272 H   0  0  0  0  0  0
  -28.2608  -38.0100   24.7500 H   0  0  0  0  0  0
  -28.1050  -36.2622   24.6302 H   0  0  0  0  0  0
  -27.2311  -37.1480   25.8888 H   0  0  0  0  0  0
  -20.9176  -29.8652   21.7012 H   0  0  0  0  0  0
  -26.0205  -38.2928   24.1407 H   0  0  0  0  0  0
  -26.6643  -25.1942   21.3154 H   0  0  0  0  0  0
  -29.6762  -23.0342   24.4991 H   0  0  0  0  0  0
  -33.0084  -24.3008   23.0846 H   0  0  0  0  0  0
  -31.8331  -23.5328   22.0195 H   0  0  0  0  0  0
  -31.8915  -23.1062   23.7220 H   0  0  0  0  0  0
  -31.0674  -25.3474   24.3756 H   0  0  0  0  0  0
  -31.2653  -25.9526   22.7661 H   0  0  0  0  0  0
  -29.0652  -27.3733   21.9751 H   0  0  0  0  0  0
  -30.1436  -26.3991   21.0129 H   0  0  0  0  0  0
  -25.0630  -23.4935   21.7843 H   0  0  0  0  0  0
  -25.0510  -23.2655   23.5147 H   0  0  0  0  0  0
  -24.5933  -21.1132   22.5610 H   0  0  0  0  0  0
  -26.2297  -21.0202   23.1435 H   0  0  0  0  0  0
  -25.3051  -21.4048   20.2481 H   0  0  0  0  0  0
  -26.9749  -21.6012   20.7082 H   0  0  0  0  0  0
  -26.5796  -19.3759   19.7765 H   0  0  0  0  0  0
  -25.3859  -19.0028   20.9811 H   0  0  0  0  0  0
  -27.0199  -18.8910   22.7436 H   0  0  0  0  0  0
  -28.1404  -19.8777   21.8620 H   0  0  0  0  0  0
  -27.5207  -16.9486   21.2666 H   0  0  0  0  0  0
  -28.4245  -17.9836   20.1821 H   0  0  0  0  0  0
  -29.9213  -18.6047   22.2038 H   0  0  0  0  0  0
  -29.1976  -17.2569   23.0452 H   0  0  0  0  0  0
  -31.4161  -16.7635   21.9887 H   0  0  0  0  0  0
  -30.7554  -17.1455   20.4010 H   0  0  0  0  0  0
  -29.1419  -15.1355   21.6590 H   0  0  0  0  0  0
  1 25  1  0  0  0
  1 30  2  0  0  0
  1 88  1  0  0  0
  2  3  1  0  0  0
  2 25  1  0  0  0
  2 89  1  0  0  0
  2 90  1  0  0  0
  3  4  1  0  0  0
  3 91  1  0  0  0
  3 92  1  0  0  0
  4  5  1  0  0  0
  4 93  1  0  0  0
  4 94  1  0  0  0
  5  6  1  0  0  0
  5 26  1  0  0  0
  5 95  1  0  0  0
  6 25  1  0  0  0
  6 96  1  0  0  0
  6 97  1  0  0  0
  7  8  2  0  0  0
  7 26  1  0  0  0
  7 29  1  0  0  0
  8  9  1  0  0  0
  8 22  1  0  0  0
  9 10  1  0  0  0
  9 27  2  0  0  0
 10 11  2  0  0  0
 10 15  1  0  0  0
 11 12  1  0  0  0
 11 98  1  0  0  0
 12 13  2  0  0  0
 12 99  1  0  0  0
 13 14  1  0  0  0
 13 31  1  0  0  0
 14 15  2  0  0  0
 14100  1  0  0  0
 15101  1  0  0  0
 16 17  2  0  0  0
 16 21  1  0  0  0
 16 31  1  0  0  0
 17 18  1  0  0  0
 17102  1  0  0  0
 18 19  2  0  0  0
 18103  1  0  0  0
 19 20  1  0  0  0
 19 24  1  0  0  0
 20 21  2  0  0  0
 20104  1  0  0  0
 21 23  1  0  0  0
 22 28  1  0  0  0
 22 32  2  0  0  0
 26 27  1  0  0  0
 28105  1  0  0  0
 28106  1  0  0  0
 29107  1  0  0  0
 29108  1  0  0  0
 33 34  1  0  0  0
 33 66  1  0  0  0
 33 70  2  0  0  0
 34 36  1  0  0  0
 34 59  1  0  0  0
 34109  1  0  0  0
 35 44  2  0  0  0
 35 45  1  0  0  0
 35 68  1  0  0  0
 36 56  1  0  0  0
 36110  1  0  0  0
 37 39  1  0  0  0
 37 47  1  0  0  0
 37 66  1  0  0  0
 37111  1  0  0  0
 38 43  2  0  0  0
 38 46  1  0  0  0
 38 47  1  0  0  0
 39 64  1  0  0  0
 39 67  2  0  0  0
 40 52  1  0  0  0
 40 53  2  0  0  0
 40 58  1  0  0  0
 41112  1  0  0  0
 41113  1  0  0  0
 41114  1  0  0  0
 41 48  1  0  0  0
 42 43  1  0  0  0
 42 66  1  0  0  0
 42115  1  0  0  0
 42116  1  0  0  0
 43 44  1  0  0  0
 44117  1  0  0  0
 45 46  2  0  0  0
 45118  1  0  0  0
 46119  1  0  0  0
 47120  1  0  0  0
 47121  1  0  0  0
 48 56  1  0  0  0
 48 65  1  0  0  0
 48122  1  0  0  0
 49 50  1  0  0  0
 49 53  1  0  0  0
 49 64  1  0  0  0
 49123  1  0  0  0
 50 51  1  0  0  0
 50124  1  0  0  0
 50125  1  0  0  0
 51 52  1  0  0  0
 51126  1  0  0  0
 51127  1  0  0  0
 52128  1  0  0  0
 52129  1  0  0  0
 53 54  1  0  0  0
 54 55  2  0  0  0
 54130  1  0  0  0
 55 57  1  0  0  0
 55131  1  0  0  0
 56 69  2  0  0  0
 57 58  2  0  0  0
 57132  1  0  0  0
 58133  1  0  0  0
 59 60  1  0  0  0
 59 61  1  0  0  0
 59 62  1  0  0  0
 60134  1  0  0  0
 60135  1  0  0  0
 60136  1  0  0  0
 61137  1  0  0  0
 61138  1  0  0  0
 61139  1  0  0  0
 62140  1  0  0  0
 62141  1  0  0  0
 62142  1  0  0  0
 63 65  1  0  0  0
 63143  1  0  0  0
 63144  1  0  0  0
 63145  1  0  0  0
 64146  1  0  0  0
 65147  1  0  0  0
 68 78  1  0  0  0
 71 73  2  0  0  0
 71 75  1  0  0  0
 71148  1  0  0  0
 72 74  2  0  0  0
 72 87  1  0  0  0
 72149  1  0  0  0
 73 74  1  0  0  0
 73 78  1  0  0  0
 74 77  1  0  0  0
 75 79  1  0  0  0
 75 87  2  0  0  0
 76 77  1  0  0  0
 76150  1  0  0  0
 76151  1  0  0  0
 76152  1  0  0  0
 77153  1  0  0  0
 77154  1  0  0  0
 78155  1  0  0  0
 78156  1  0  0  0
 79 80  1  0  0  0
 79157  1  0  0  0
 79158  1  0  0  0
 80 81  1  0  0  0
 80159  1  0  0  0
 80160  1  0  0  0
 81 82  1  0  0  0
 81161  1  0  0  0
 81162  1  0  0  0
 82 83  1  0  0  0
 82163  1  0  0  0
 82164  1  0  0  0
 83 84  1  0  0  0
 83165  1  0  0  0
 83166  1  0  0  0
 84 85  1  0  0  0
 84167  1  0  0  0
 84168  1  0  0  0
 85 86  1  0  0  0
 85169  1  0  0  0
 85170  1  0  0  0
 86 88  1  0  0  0
 86171  1  0  0  0
 86172  1  0  0  0
 88173  1  0  0  0
M  ISO  4   1 100  68 101  78 101  88 100
M  END
> <chiral flag>
0

> <version>
0

> <s_m_source_file>
/data/baiqing/PycharmProjects/Reinvent-master-3.2/result/LINK_invent/BTK/process_docking_weight1_custom_sum_contain_oxygen_bond_distance_aromatic_linkinvent_7_9_3/rearranged_h_0039.sdf

> <i_m_source_file_index>
64

> <r_mmod_Potential_Energy-OPLS-2005>
-177.200988769531

> <r_mmod_Stretch_Energy-OPLS-2005>
34.3094863891602

> <r_mmod_Bend_Energy-OPLS-2005>
97.0282516479492

> <r_mmod_Torsional_Energy-OPLS-2005>
228.49543762207

> <r_mmod_Improper_Torsional_Energy-OPLS-2005>
2.96806383132935

> <r_mmod_Van_der_Waal_Energy-OPLS-2005>
156.921630859375

> <r_mmod_Electrostatic_Energy-OPLS-2005>
-497.903106689453

> <r_mmod_Solvation_Energy-OPLS-2005>
-206.914352416992

> <b_mmod_Minimization_Converged-OPLS-2005>
0

> <r_mmod_RMS_Derivative-OPLS-2005>
6.39019775390625

$$$$
65
                    3D
 Structure written by MMmdl.
161169  0  0  1  0            999 V2000
  -30.7514  -14.3579   20.6740 C   0  0  0  0  0  0
  -30.4237  -12.2804   19.3869 C   0  0  0  0  0  0
  -29.4864  -12.5260   18.1895 C   0  0  0  0  0  0
  -28.0105  -12.3821   18.6063 C   0  0  0  0  0  0
  -27.6706  -13.1952   19.8835 C   0  0  2  0  0  0
  -28.7092  -12.9135   20.9922 C   0  0  0  0  0  0
  -25.2630  -13.8135   20.5662 C   0  0  0  0  0  0
  -24.1864  -13.0445   20.9147 C   0  0  0  0  0  0
  -24.6394  -11.6895   20.8723 C   0  0  0  0  0  0
  -23.9054  -10.4298   21.0407 C   0  0  0  0  0  0
  -24.3611   -9.4215   21.9187 C   0  0  0  0  0  0
  -23.6283   -8.2252   22.0758 C   0  0  0  0  0  0
  -22.4265   -8.0290   21.3545 C   0  0  0  0  0  0
  -21.9903   -9.0270   20.4652 C   0  0  0  0  0  0
  -22.7230  -10.2143   20.3057 C   0  0  0  0  0  0
  -21.6854   -6.0739   22.5273 C   0  0  0  0  0  0
  -21.4023   -6.5645   23.8213 C   0  0  0  0  0  0
  -21.3656   -5.6793   24.9175 C   0  0  0  0  0  0
  -21.6042   -4.3059   24.7220 C   0  0  0  0  0  0
  -21.8820   -3.8146   23.4346 C   0  0  0  0  0  0
  -21.9199   -4.6965   22.3400 C   0  0  0  0  0  0
  -22.7892  -13.5260   21.1821 C   0  0  0  0  0  0
  -22.1660   -4.2157   21.0974 F   0  0  0  0  0  0
  -21.5625   -3.4533   25.7732 F   0  0  0  0  0  0
  -30.0540  -13.2133   20.4592 N   0  0  0  0  0  0
  -26.3070  -12.9295   20.3392 N   0  0  0  0  0  0
  -25.9317  -11.6466   20.5752 N   0  0  0  0  0  0
  -22.0525  -12.8262   22.0376 N   0  0  0  0  0  0
  -25.4383  -15.1856   20.4087 N   0  0  0  0  0  0
  -31.7767  -14.6666   20.0585 O   0  0  0  0  0  0
  -21.6634   -6.8876   21.4237 O   0  0  0  0  0  0
  -22.3585  -14.5581   20.6684 O   0  0  0  0  0  0
  -24.6105  -31.8705   23.2087 C   0  0  0  0  0  0
  -25.9002  -32.4837   23.8367 C   0  0  1  0  0  0
  -27.2519  -27.4722   20.0991 C   0  0  0  0  0  0
  -25.5890  -33.8630   24.2349 N   0  0  0  0  0  0
  -23.3972  -30.4922   21.5493 C   0  0  2  0  0  0
  -24.8486  -28.9575   20.1241 C   0  0  0  0  0  0
  -22.7378  -29.4692   22.5017 C   0  0  0  0  0  0
  -18.0265  -28.1363   22.8526 C   0  0  0  0  0  0
  -24.1499  -36.7353   23.2627 C   0  0  0  0  0  0
  -25.9195  -30.8513   21.3524 C   0  0  0  0  0  0
  -26.0031  -29.4803   20.7202 C   0  0  0  0  0  0
  -27.2074  -28.7442   20.7145 C   0  0  0  0  0  0
  -26.0847  -26.9606   19.4960 C   0  0  0  0  0  0
  -24.8807  -27.6912   19.5139 C   0  0  0  0  0  0
  -23.6060  -29.8160   20.1676 C   0  0  0  0  0  0
  -25.4114  -36.3144   24.0339 C   0  0  1  0  0  0
  -20.5864  -28.3655   23.1345 C   0  0  2  0  0  0
  -20.6788  -26.9389   22.5435 C   0  0  0  0  0  0
  -19.5756  -26.6380   21.5236 C   0  0  0  0  0  0
  -18.1933  -26.7919   22.1639 C   0  0  0  0  0  0
  -19.1513  -28.8817   23.2948 C   0  0  0  0  0  0
  -18.9430  -30.1442   23.8930 C   0  0  0  0  0  0
  -17.6425  -30.6588   24.0573 C   0  0  0  0  0  0
  -25.9019  -34.9495   23.5140 C   0  0  0  0  0  0
  -16.5321  -29.9080   23.6338 C   0  0  0  0  0  0
  -16.7248  -28.6500   23.0356 C   0  0  0  0  0  0
  -26.4446  -31.6517   25.0628 C   0  0  0  0  0  0
  -25.3741  -31.3571   26.1382 C   0  0  0  0  0  0
  -27.0177  -30.2947   24.5895 C   0  0  0  0  0  0
  -27.6115  -32.4119   25.7365 C   0  0  0  0  0  0
  -27.5587  -37.1815   24.8449 C   0  0  0  0  0  0
  -21.4111  -29.3033   22.3744 N   0  0  0  0  0  0
  -26.4309  -37.3803   23.9386 N   0  0  0  0  0  0
  -24.6603  -31.0868   22.0960 N   0  0  0  0  0  0
  -23.4153  -28.8239   23.3055 O   0  0  0  0  0  0
  -28.3953  -26.7136   20.0000 O   0  0  0  0  0  0
  -26.5561  -34.8931   22.4686 O   0  0  0  0  0  0
  -23.5310  -32.1416   23.7506 O   0  0  0  0  0  0
  -28.2336  -22.2709   21.8667 C   0  0  0  0  0  0
  -27.4294  -21.6229   24.4114 C   0  0  0  0  0  0
  -27.9054  -23.3241   22.7501 C   0  0  0  0  0  0
  -27.5002  -22.9865   24.0648 C   0  0  0  0  0  0
  -28.1429  -20.9411   22.3158 C   0  0  0  0  0  0
  -27.9435  -24.7677   22.2565 C   0  0  0  0  0  0
  -28.4378  -19.7697   21.3924 C   0  0  0  0  0  0
  -29.2873  -25.1924   21.6370 C   0  0  0  0  0  0
  -29.6149  -18.8977   21.8753 C   0  0  0  0  0  0
  -29.5901  -17.4887   21.2633 C   0  0  0  0  0  0
  -30.5924  -16.5247   21.9209 C   0  0  0  0  0  0
  -29.2684  -26.6415   21.1268 C   0  0  0  0  0  0
  -27.7309  -20.6189   23.5606 N   0  0  0  0  0  0
  -30.2231  -15.1506   21.6106 N   0  0  0  0  0  0
  -27.0810  -24.1806   25.2453 Cl  0  0  0  0  0  0
  -31.4657  -12.3905   19.0818 H   0  0  0  0  0  0
  -30.3258  -11.2539   19.7426 H   0  0  0  0  0  0
  -29.7159  -11.8301   17.3813 H   0  0  0  0  0  0
  -29.6585  -13.5265   17.7881 H   0  0  0  0  0  0
  -27.8124  -11.3228   18.7767 H   0  0  0  0  0  0
  -27.3578  -12.6850   17.7861 H   0  0  0  0  0  0
  -27.7368  -14.2512   19.6230 H   0  0  0  0  0  0
  -28.6717  -11.8629   21.2845 H   0  0  0  0  0  0
  -28.4530  -13.4644   21.8973 H   0  0  0  0  0  0
  -25.2767   -9.5693   22.4753 H   0  0  0  0  0  0
  -24.0002   -7.4645   22.7477 H   0  0  0  0  0  0
  -21.0837   -8.8790   19.8957 H   0  0  0  0  0  0
  -22.3698  -10.9686   19.6160 H   0  0  0  0  0  0
  -21.2016   -7.6152   23.9718 H   0  0  0  0  0  0
  -21.1473   -6.0520   25.9076 H   0  0  0  0  0  0
  -22.0600   -2.7609   23.2836 H   0  0  0  0  0  0
  -22.4133  -11.9918   22.4769 H   0  0  0  0  0  0
  -21.1151  -13.1314   22.2581 H   0  0  0  0  0  0
  -24.6774  -15.8455   20.5237 H   0  0  0  0  0  0
  -26.3003  -15.6244   20.1101 H   0  0  0  0  0  0
  -26.7075  -32.5604   23.1145 H   0  0  0  0  0  0
  -25.0027  -33.9773   25.0497 H   0  0  0  0  0  0
  -22.6830  -31.3063   21.4061 H   0  0  0  0  0  0
  -23.3755  -35.9698   23.3302 H   0  0  0  0  0  0
  -24.3583  -36.8939   22.2033 H   0  0  0  0  0  0
  -23.7269  -37.6578   23.6617 H   0  0  0  0  0  0
  -26.0051  -31.5982   20.5629 H   0  0  0  0  0  0
  -26.8161  -30.9324   21.9544 H   0  0  0  0  0  0
  -28.0966  -29.1676   21.1592 H   0  0  0  0  0  0
  -26.1127  -25.9918   19.0172 H   0  0  0  0  0  0
  -23.9918  -27.2815   19.0545 H   0  0  0  0  0  0
  -23.7022  -30.5829   19.3975 H   0  0  0  0  0  0
  -22.7371  -29.2224   19.8831 H   0  0  0  0  0  0
  -25.1298  -36.2031   25.0839 H   0  0  0  0  0  0
  -20.9945  -28.3193   24.1464 H   0  0  0  0  0  0
  -20.5722  -26.2218   23.3598 H   0  0  0  0  0  0
  -21.6660  -26.7474   22.1185 H   0  0  0  0  0  0
  -19.6908  -25.6297   21.1253 H   0  0  0  0  0  0
  -19.6709  -27.3212   20.6791 H   0  0  0  0  0  0
  -17.4203  -26.6684   21.4039 H   0  0  0  0  0  0
  -18.0335  -26.0040   22.9016 H   0  0  0  0  0  0
  -19.7893  -30.7292   24.2279 H   0  0  0  0  0  0
  -17.4965  -31.6276   24.5170 H   0  0  0  0  0  0
  -15.5321  -30.2981   23.7654 H   0  0  0  0  0  0
  -15.8654  -28.0837   22.7027 H   0  0  0  0  0  0
  -24.5929  -30.6911   25.7702 H   0  0  0  0  0  0
  -24.8896  -32.2693   26.4872 H   0  0  0  0  0  0
  -25.8126  -30.8668   27.0081 H   0  0  0  0  0  0
  -26.2647  -29.6836   24.0901 H   0  0  0  0  0  0
  -27.3888  -29.7052   25.4290 H   0  0  0  0  0  0
  -27.8539  -30.4246   23.9023 H   0  0  0  0  0  0
  -27.2861  -33.3444   26.1987 H   0  0  0  0  0  0
  -28.3897  -32.6567   25.0125 H   0  0  0  0  0  0
  -28.0774  -31.8107   26.5187 H   0  0  0  0  0  0
  -28.2587  -38.0125   24.7478 H   0  0  0  0  0  0
  -28.1086  -36.2631   24.6325 H   0  0  0  0  0  0
  -27.2229  -37.1517   25.8826 H   0  0  0  0  0  0
  -20.9249  -29.8727   21.6963 H   0  0  0  0  0  0
  -26.0225  -38.2878   24.1449 H   0  0  0  0  0  0
  -28.5308  -22.4792   20.8475 H   0  0  0  0  0  0
  -27.1110  -21.3225   25.3990 H   0  0  0  0  0  0
  -27.7058  -25.4617   23.0615 H   0  0  0  0  0  0
  -27.1437  -24.8819   21.5234 H   0  0  0  0  0  0
  -28.6354  -20.1303   20.3824 H   0  0  0  0  0  0
  -27.5259  -19.1741   21.3280 H   0  0  0  0  0  0
  -29.5600  -24.5296   20.8143 H   0  0  0  0  0  0
  -30.0714  -25.0927   22.3881 H   0  0  0  0  0  0
  -29.5440  -18.7792   22.9573 H   0  0  0  0  0  0
  -30.5652  -19.3962   21.6837 H   0  0  0  0  0  0
  -29.7714  -17.5416   20.1889 H   0  0  0  0  0  0
  -28.5843  -17.0839   21.3813 H   0  0  0  0  0  0
  -30.5608  -16.6309   23.0057 H   0  0  0  0  0  0
  -31.6158  -16.7504   21.6155 H   0  0  0  0  0  0
  -30.2691  -26.9237   20.7985 H   0  0  0  0  0  0
  -29.0060  -27.3122   21.9455 H   0  0  0  0  0  0
  -29.4115  -14.7807   22.0833 H   0  0  0  0  0  0
  1 25  1  0  0  0
  1 30  2  0  0  0
  1 84  1  0  0  0
  2  3  1  0  0  0
  2 25  1  0  0  0
  2 86  1  0  0  0
  2 87  1  0  0  0
  3  4  1  0  0  0
  3 88  1  0  0  0
  3 89  1  0  0  0
  4  5  1  0  0  0
  4 90  1  0  0  0
  4 91  1  0  0  0
  5  6  1  0  0  0
  5 26  1  0  0  0
  5 92  1  0  0  0
  6 25  1  0  0  0
  6 93  1  0  0  0
  6 94  1  0  0  0
  7  8  2  0  0  0
  7 26  1  0  0  0
  7 29  1  0  0  0
  8  9  1  0  0  0
  8 22  1  0  0  0
  9 10  1  0  0  0
  9 27  2  0  0  0
 10 11  2  0  0  0
 10 15  1  0  0  0
 11 12  1  0  0  0
 11 95  1  0  0  0
 12 13  2  0  0  0
 12 96  1  0  0  0
 13 14  1  0  0  0
 13 31  1  0  0  0
 14 15  2  0  0  0
 14 97  1  0  0  0
 15 98  1  0  0  0
 16 17  2  0  0  0
 16 21  1  0  0  0
 16 31  1  0  0  0
 17 18  1  0  0  0
 17 99  1  0  0  0
 18 19  2  0  0  0
 18100  1  0  0  0
 19 20  1  0  0  0
 19 24  1  0  0  0
 20 21  2  0  0  0
 20101  1  0  0  0
 21 23  1  0  0  0
 22 28  1  0  0  0
 22 32  2  0  0  0
 26 27  1  0  0  0
 28102  1  0  0  0
 28103  1  0  0  0
 29104  1  0  0  0
 29105  1  0  0  0
 33 34  1  0  0  0
 33 66  1  0  0  0
 33 70  2  0  0  0
 34 36  1  0  0  0
 34 59  1  0  0  0
 34106  1  0  0  0
 35 44  2  0  0  0
 35 45  1  0  0  0
 35 68  1  0  0  0
 36 56  1  0  0  0
 36107  1  0  0  0
 37 39  1  0  0  0
 37 47  1  0  0  0
 37 66  1  0  0  0
 37108  1  0  0  0
 38 43  2  0  0  0
 38 46  1  0  0  0
 38 47  1  0  0  0
 39 64  1  0  0  0
 39 67  2  0  0  0
 40 52  1  0  0  0
 40 53  2  0  0  0
 40 58  1  0  0  0
 41109  1  0  0  0
 41110  1  0  0  0
 41111  1  0  0  0
 41 48  1  0  0  0
 42 43  1  0  0  0
 42 66  1  0  0  0
 42112  1  0  0  0
 42113  1  0  0  0
 43 44  1  0  0  0
 44114  1  0  0  0
 45 46  2  0  0  0
 45115  1  0  0  0
 46116  1  0  0  0
 47117  1  0  0  0
 47118  1  0  0  0
 48 56  1  0  0  0
 48 65  1  0  0  0
 48119  1  0  0  0
 49 50  1  0  0  0
 49 53  1  0  0  0
 49 64  1  0  0  0
 49120  1  0  0  0
 50 51  1  0  0  0
 50121  1  0  0  0
 50122  1  0  0  0
 51 52  1  0  0  0
 51123  1  0  0  0
 51124  1  0  0  0
 52125  1  0  0  0
 52126  1  0  0  0
 53 54  1  0  0  0
 54 55  2  0  0  0
 54127  1  0  0  0
 55 57  1  0  0  0
 55128  1  0  0  0
 56 69  2  0  0  0
 57 58  2  0  0  0
 57129  1  0  0  0
 58130  1  0  0  0
 59 60  1  0  0  0
 59 61  1  0  0  0
 59 62  1  0  0  0
 60131  1  0  0  0
 60132  1  0  0  0
 60133  1  0  0  0
 61134  1  0  0  0
 61135  1  0  0  0
 61136  1  0  0  0
 62137  1  0  0  0
 62138  1  0  0  0
 62139  1  0  0  0
 63 65  1  0  0  0
 63140  1  0  0  0
 63141  1  0  0  0
 63142  1  0  0  0
 64143  1  0  0  0
 65144  1  0  0  0
 68 82  1  0  0  0
 71 73  2  0  0  0
 71 75  1  0  0  0
 71145  1  0  0  0
 72 74  2  0  0  0
 72 83  1  0  0  0
 72146  1  0  0  0
 73 74  1  0  0  0
 73 76  1  0  0  0
 74 85  1  0  0  0
 75 77  1  0  0  0
 75 83  2  0  0  0
 76 78  1  0  0  0
 76147  1  0  0  0
 76148  1  0  0  0
 77 79  1  0  0  0
 77149  1  0  0  0
 77150  1  0  0  0
 78 82  1  0  0  0
 78151  1  0  0  0
 78152  1  0  0  0
 79 80  1  0  0  0
 79153  1  0  0  0
 79154  1  0  0  0
 80 81  1  0  0  0
 80155  1  0  0  0
 80156  1  0  0  0
 81 84  1  0  0  0
 81157  1  0  0  0
 81158  1  0  0  0
 82159  1  0  0  0
 82160  1  0  0  0
 84161  1  0  0  0
M  ISO  4   1 100  68 101  82 101  84 100
M  END
> <chiral flag>
0

> <version>
0

> <s_m_source_file>
/data/baiqing/PycharmProjects/Reinvent-master-3.2/result/LINK_invent/BTK/process_docking_weight1_custom_sum_contain_oxygen_bond_distance_aromatic_linkinvent_7_9_3/rearranged_h_0039.sdf

> <i_m_source_file_index>
65

> <r_mmod_Potential_Energy-OPLS-2005>
-205.627243041992

> <r_mmod_Stretch_Energy-OPLS-2005>
31.9094486236572

> <r_mmod_Bend_Energy-OPLS-2005>
93.2504043579102

> <r_mmod_Torsional_Energy-OPLS-2005>
196.836044311523

> <r_mmod_Improper_Torsional_Energy-OPLS-2005>
2.18952775001526

> <r_mmod_Van_der_Waal_Energy-OPLS-2005>
155.675827026367

> <r_mmod_Electrostatic_Energy-OPLS-2005>
-475.668090820312

> <r_mmod_Solvation_Energy-OPLS-2005>
-215.545913696289

> <b_mmod_Minimization_Converged-OPLS-2005>
0

> <r_mmod_RMS_Derivative-OPLS-2005>
2.783047914505

$$$$
66
                    3D
 Structure written by MMmdl.
174182  0  0  1  0            999 V2000
  -30.7670  -14.3722   20.6709 C   0  0  0  0  0  0
  -30.4128  -12.2828   19.3964 C   0  0  0  0  0  0
  -29.4820  -12.5133   18.1913 C   0  0  0  0  0  0
  -28.0073  -12.3657   18.6091 C   0  0  0  0  0  0
  -27.6647  -13.1994   19.8716 C   0  0  2  0  0  0
  -28.7040  -12.9595   20.9886 C   0  0  0  0  0  0
  -25.2614  -13.8145   20.5661 C   0  0  0  0  0  0
  -24.1850  -13.0440   20.9164 C   0  0  0  0  0  0
  -24.6392  -11.6898   20.8721 C   0  0  0  0  0  0
  -23.9054  -10.4295   21.0398 C   0  0  0  0  0  0
  -24.3610   -9.4209   21.9179 C   0  0  0  0  0  0
  -23.6290   -8.2247   22.0752 C   0  0  0  0  0  0
  -22.4275   -8.0278   21.3538 C   0  0  0  0  0  0
  -21.9901   -9.0254   20.4647 C   0  0  0  0  0  0
  -22.7227  -10.2132   20.3052 C   0  0  0  0  0  0
  -21.6851   -6.0736   22.5280 C   0  0  0  0  0  0
  -21.4017   -6.5641   23.8211 C   0  0  0  0  0  0
  -21.3655   -5.6791   24.9173 C   0  0  0  0  0  0
  -21.6046   -4.3055   24.7223 C   0  0  0  0  0  0
  -21.8818   -3.8148   23.4345 C   0  0  0  0  0  0
  -21.9194   -4.6968   22.3401 C   0  0  0  0  0  0
  -22.7878  -13.5240   21.1839 C   0  0  0  0  0  0
  -22.1662   -4.2152   21.0979 F   0  0  0  0  0  0
  -21.5625   -3.4538   25.7736 F   0  0  0  0  0  0
  -30.0443  -13.2426   20.4484 N   0  0  0  0  0  0
  -26.3044  -12.9308   20.3346 N   0  0  0  0  0  0
  -25.9312  -11.6473   20.5743 N   0  0  0  0  0  0
  -22.0515  -12.8236   22.0392 N   0  0  0  0  0  0
  -25.4362  -15.1868   20.4086 N   0  0  0  0  0  0
  -31.8121  -14.6089   20.0563 O   0  0  0  0  0  0
  -21.6635   -6.8878   21.4240 O   0  0  0  0  0  0
  -22.3558  -14.5551   20.6690 O   0  0  0  0  0  0
  -24.6103  -31.8724   23.2099 C   0  0  0  0  0  0
  -25.9021  -32.4837   23.8402 C   0  0  1  0  0  0
  -27.2408  -27.4795   20.0925 C   0  0  0  0  0  0
  -25.5908  -33.8635   24.2346 N   0  0  0  0  0  0
  -23.3966  -30.4914   21.5518 C   0  0  2  0  0  0
  -24.8438  -28.9540   20.1207 C   0  0  0  0  0  0
  -22.7388  -29.4699   22.5041 C   0  0  0  0  0  0
  -18.0268  -28.1384   22.8491 C   0  0  0  0  0  0
  -24.1495  -36.7314   23.2644 C   0  0  0  0  0  0
  -25.9200  -30.8517   21.3533 C   0  0  0  0  0  0
  -25.9991  -29.4869   20.7043 C   0  0  0  0  0  0
  -27.2049  -28.7607   20.6760 C   0  0  0  0  0  0
  -26.0741  -26.9444   19.5095 C   0  0  0  0  0  0
  -24.8722  -27.6813   19.5195 C   0  0  0  0  0  0
  -23.6024  -29.8142   20.1694 C   0  0  0  0  0  0
  -25.4118  -36.3119   24.0347 C   0  0  1  0  0  0
  -20.5860  -28.3670   23.1341 C   0  0  2  0  0  0
  -20.6763  -26.9409   22.5430 C   0  0  0  0  0  0
  -19.5749  -26.6400   21.5215 C   0  0  0  0  0  0
  -18.1919  -26.7924   22.1626 C   0  0  0  0  0  0
  -19.1520  -28.8840   23.2916 C   0  0  0  0  0  0
  -18.9455  -30.1440   23.8927 C   0  0  0  0  0  0
  -17.6457  -30.6583   24.0565 C   0  0  0  0  0  0
  -25.9043  -34.9484   23.5137 C   0  0  0  0  0  0
  -16.5342  -29.9089   23.6320 C   0  0  0  0  0  0
  -16.7260  -28.6510   23.0342 C   0  0  0  0  0  0
  -26.4454  -31.6593   25.0707 C   0  0  0  0  0  0
  -25.3711  -31.3687   26.1448 C   0  0  0  0  0  0
  -27.0273  -30.3034   24.6048 C   0  0  0  0  0  0
  -27.6043  -32.4292   25.7477 C   0  0  0  0  0  0
  -27.5586  -37.1796   24.8457 C   0  0  0  0  0  0
  -21.4126  -29.3043   22.3753 N   0  0  0  0  0  0
  -26.4286  -37.3805   23.9423 N   0  0  0  0  0  0
  -24.6609  -31.0876   22.0967 N   0  0  0  0  0  0
  -23.4193  -28.8258   23.3072 O   0  0  0  0  0  0
  -28.4180  -26.7752   20.0728 O   0  0  0  0  0  0
  -26.5595  -34.8938   22.4690 O   0  0  0  0  0  0
  -23.5300  -32.1463   23.7511 O   0  0  0  0  0  0
  -29.4463  -26.1470   24.8345 C   0  0  0  0  0  0
  -28.6331  -24.1720   23.7154 C   0  0  0  0  0  0
  -28.8501  -25.5611   23.7057 C   0  0  0  0  0  0
  -29.8131  -25.3357   25.9222 C   0  0  0  0  0  0
  -29.5727  -23.9458   25.8345 C   0  0  0  0  0  0
  -30.4485  -25.9867   27.1433 C   0  0  0  0  0  0
  -28.4233  -26.4465   22.5398 C   0  0  0  0  0  0
  -29.9658  -22.9699   26.9393 C   0  0  0  0  0  0
  -30.2725  -15.4197   21.6876 C   0  0  0  0  0  0
  -31.3504  -16.4467   22.1113 C   0  0  0  0  0  0
  -30.7764  -17.6333   22.9041 C   0  0  0  0  0  0
  -31.8663  -18.4878   23.5765 C   0  0  0  0  0  0
  -31.3006  -19.7509   24.2486 C   0  0  0  0  0  0
  -32.2877  -20.3989   25.2410 C   0  0  0  0  0  0
  -31.8270  -21.7630   25.7944 C   0  0  0  0  0  0
  -28.5884  -25.8295   21.1310 C   0  0  0  0  0  0
  -28.9969  -23.3802   24.7469 N   0  0  0  0  0  0
  -30.4612  -21.7097   26.3620 N   0  3  0  0  0  0
  -31.4566  -12.3690   19.0899 H   0  0  0  0  0  0
  -30.3020  -11.2638   19.7713 H   0  0  0  0  0  0
  -29.7159  -11.8073   17.3933 H   0  0  0  0  0  0
  -29.6507  -13.5097   17.7804 H   0  0  0  0  0  0
  -27.8192  -11.3084   18.8001 H   0  0  0  0  0  0
  -27.3513  -12.6434   17.7833 H   0  0  0  0  0  0
  -27.7196  -14.2497   19.5854 H   0  0  0  0  0  0
  -28.6639  -11.9217   21.3228 H   0  0  0  0  0  0
  -28.4474  -13.5537   21.8628 H   0  0  0  0  0  0
  -25.2757   -9.5684   22.4747 H   0  0  0  0  0  0
  -24.0004   -7.4631   22.7460 H   0  0  0  0  0  0
  -21.0834   -8.8768   19.8946 H   0  0  0  0  0  0
  -22.3687  -10.9670   19.6157 H   0  0  0  0  0  0
  -21.2011   -7.6149   23.9717 H   0  0  0  0  0  0
  -21.1477   -6.0521   25.9074 H   0  0  0  0  0  0
  -22.0602   -2.7612   23.2842 H   0  0  0  0  0  0
  -22.4132  -11.9896   22.4781 H   0  0  0  0  0  0
  -21.1131  -13.1255   22.2596 H   0  0  0  0  0  0
  -24.6759  -15.8486   20.5221 H   0  0  0  0  0  0
  -26.3009  -15.6230   20.1122 H   0  0  0  0  0  0
  -26.7100  -32.5566   23.1182 H   0  0  0  0  0  0
  -25.0025  -33.9822   25.0469 H   0  0  0  0  0  0
  -22.6823  -31.3054   21.4109 H   0  0  0  0  0  0
  -23.3734  -35.9665   23.3305 H   0  0  0  0  0  0
  -24.3586  -36.8912   22.2053 H   0  0  0  0  0  0
  -23.7246  -37.6528   23.6631 H   0  0  0  0  0  0
  -26.0265  -31.6173   20.5822 H   0  0  0  0  0  0
  -26.8075  -30.9063   21.9709 H   0  0  0  0  0  0
  -28.1028  -29.1811   21.1063 H   0  0  0  0  0  0
  -26.1020  -25.9700   19.0431 H   0  0  0  0  0  0
  -23.9821  -27.2712   19.0621 H   0  0  0  0  0  0
  -23.7013  -30.5849   19.4030 H   0  0  0  0  0  0
  -22.7295  -29.2288   19.8776 H   0  0  0  0  0  0
  -25.1264  -36.1965   25.0823 H   0  0  0  0  0  0
  -20.9961  -28.3232   24.1470 H   0  0  0  0  0  0
  -20.5676  -26.2281   23.3623 H   0  0  0  0  0  0
  -21.6636  -26.7469   22.1227 H   0  0  0  0  0  0
  -19.6918  -25.6320   21.1228 H   0  0  0  0  0  0
  -19.6679  -27.3243   20.6760 H   0  0  0  0  0  0
  -17.4207  -26.6698   21.4005 H   0  0  0  0  0  0
  -18.0288  -26.0053   22.9008 H   0  0  0  0  0  0
  -19.7929  -30.7233   24.2331 H   0  0  0  0  0  0
  -17.5012  -31.6263   24.5165 H   0  0  0  0  0  0
  -15.5345  -30.3012   23.7601 H   0  0  0  0  0  0
  -15.8666  -28.0829   22.7049 H   0  0  0  0  0  0
  -24.5949  -30.6966   25.7772 H   0  0  0  0  0  0
  -24.8838  -32.2828   26.4834 H   0  0  0  0  0  0
  -25.8078  -30.8919   27.0232 H   0  0  0  0  0  0
  -26.2809  -29.6823   24.1090 H   0  0  0  0  0  0
  -27.4023  -29.7232   25.4492 H   0  0  0  0  0  0
  -27.8644  -30.4349   23.9191 H   0  0  0  0  0  0
  -27.2686  -33.3606   26.2042 H   0  0  0  0  0  0
  -28.3862  -32.6820   25.0300 H   0  0  0  0  0  0
  -28.0682  -31.8409   26.5396 H   0  0  0  0  0  0
  -28.2566  -38.0134   24.7555 H   0  0  0  0  0  0
  -28.1119  -36.2663   24.6192 H   0  0  0  0  0  0
  -27.2325  -37.1334   25.8867 H   0  0  0  0  0  0
  -20.9293  -29.8748   21.6951 H   0  0  0  0  0  0
  -26.0166  -38.2867   24.1445 H   0  0  0  0  0  0
  -29.6108  -27.2135   24.8711 H   0  0  0  0  0  0
  -28.1574  -23.6725   22.8849 H   0  0  0  0  0  0
  -30.0898  -25.5456   28.0739 H   0  0  0  0  0  0
  -30.2109  -27.0516   27.1866 H   0  0  0  0  0  0
  -31.5353  -25.8927   27.1127 H   0  0  0  0  0  0
  -29.0021  -27.3698   22.5816 H   0  0  0  0  0  0
  -27.3806  -26.7238   22.7053 H   0  0  0  0  0  0
  -29.0758  -22.7630   27.5337 H   0  0  0  0  0  0
  -30.7100  -23.3812   27.6187 H   0  0  0  0  0  0
  -29.4228  -15.9342   21.2383 H   0  0  0  0  0  0
  -29.9140  -14.9243   22.5880 H   0  0  0  0  0  0
  -31.8743  -16.8405   21.2388 H   0  0  0  0  0  0
  -32.1036  -15.9323   22.7100 H   0  0  0  0  0  0
  -30.0920  -17.2629   23.6692 H   0  0  0  0  0  0
  -30.1774  -18.2517   22.2333 H   0  0  0  0  0  0
  -32.6243  -18.7773   22.8460 H   0  0  0  0  0  0
  -32.3776  -17.8770   24.3222 H   0  0  0  0  0  0
  -30.3830  -19.4864   24.7782 H   0  0  0  0  0  0
  -31.0162  -20.4716   23.4786 H   0  0  0  0  0  0
  -33.2548  -20.5375   24.7553 H   0  0  0  0  0  0
  -32.4701  -19.7139   26.0702 H   0  0  0  0  0  0
  -31.8702  -22.5144   25.0047 H   0  0  0  0  0  0
  -32.5250  -22.0849   26.5694 H   0  0  0  0  0  0
  -29.6034  -25.4397   21.0304 H   0  0  0  0  0  0
  -27.9093  -24.9894   20.9827 H   0  0  0  0  0  0
  -29.8072  -21.5264   25.6159 H   0  0  0  0  0  0
  -30.3986  -20.9875   27.0586 H   0  0  0  0  0  0
  1 25  1  0  0  0
  1 30  2  0  0  0
  1 79  1  0  0  0
  2  3  1  0  0  0
  2 25  1  0  0  0
  2 89  1  0  0  0
  2 90  1  0  0  0
  3  4  1  0  0  0
  3 91  1  0  0  0
  3 92  1  0  0  0
  4  5  1  0  0  0
  4 93  1  0  0  0
  4 94  1  0  0  0
  5  6  1  0  0  0
  5 26  1  0  0  0
  5 95  1  0  0  0
  6 25  1  0  0  0
  6 96  1  0  0  0
  6 97  1  0  0  0
  7  8  2  0  0  0
  7 26  1  0  0  0
  7 29  1  0  0  0
  8  9  1  0  0  0
  8 22  1  0  0  0
  9 10  1  0  0  0
  9 27  2  0  0  0
 10 11  2  0  0  0
 10 15  1  0  0  0
 11 12  1  0  0  0
 11 98  1  0  0  0
 12 13  2  0  0  0
 12 99  1  0  0  0
 13 14  1  0  0  0
 13 31  1  0  0  0
 14 15  2  0  0  0
 14100  1  0  0  0
 15101  1  0  0  0
 16 17  2  0  0  0
 16 21  1  0  0  0
 16 31  1  0  0  0
 17 18  1  0  0  0
 17102  1  0  0  0
 18 19  2  0  0  0
 18103  1  0  0  0
 19 20  1  0  0  0
 19 24  1  0  0  0
 20 21  2  0  0  0
 20104  1  0  0  0
 21 23  1  0  0  0
 22 28  1  0  0  0
 22 32  2  0  0  0
 26 27  1  0  0  0
 28105  1  0  0  0
 28106  1  0  0  0
 29107  1  0  0  0
 29108  1  0  0  0
 33 34  1  0  0  0
 33 66  1  0  0  0
 33 70  2  0  0  0
 34 36  1  0  0  0
 34 59  1  0  0  0
 34109  1  0  0  0
 35 44  2  0  0  0
 35 45  1  0  0  0
 35 68  1  0  0  0
 36 56  1  0  0  0
 36110  1  0  0  0
 37 39  1  0  0  0
 37 47  1  0  0  0
 37 66  1  0  0  0
 37111  1  0  0  0
 38 43  2  0  0  0
 38 46  1  0  0  0
 38 47  1  0  0  0
 39 64  1  0  0  0
 39 67  2  0  0  0
 40 52  1  0  0  0
 40 53  2  0  0  0
 40 58  1  0  0  0
 41112  1  0  0  0
 41113  1  0  0  0
 41114  1  0  0  0
 41 48  1  0  0  0
 42 43  1  0  0  0
 42 66  1  0  0  0
 42115  1  0  0  0
 42116  1  0  0  0
 43 44  1  0  0  0
 44117  1  0  0  0
 45 46  2  0  0  0
 45118  1  0  0  0
 46119  1  0  0  0
 47120  1  0  0  0
 47121  1  0  0  0
 48 56  1  0  0  0
 48 65  1  0  0  0
 48122  1  0  0  0
 49 50  1  0  0  0
 49 53  1  0  0  0
 49 64  1  0  0  0
 49123  1  0  0  0
 50 51  1  0  0  0
 50124  1  0  0  0
 50125  1  0  0  0
 51 52  1  0  0  0
 51126  1  0  0  0
 51127  1  0  0  0
 52128  1  0  0  0
 52129  1  0  0  0
 53 54  1  0  0  0
 54 55  2  0  0  0
 54130  1  0  0  0
 55 57  1  0  0  0
 55131  1  0  0  0
 56 69  2  0  0  0
 57 58  2  0  0  0
 57132  1  0  0  0
 58133  1  0  0  0
 59 60  1  0  0  0
 59 61  1  0  0  0
 59 62  1  0  0  0
 60134  1  0  0  0
 60135  1  0  0  0
 60136  1  0  0  0
 61137  1  0  0  0
 61138  1  0  0  0
 61139  1  0  0  0
 62140  1  0  0  0
 62141  1  0  0  0
 62142  1  0  0  0
 63 65  1  0  0  0
 63143  1  0  0  0
 63144  1  0  0  0
 63145  1  0  0  0
 64146  1  0  0  0
 65147  1  0  0  0
 68 86  1  0  0  0
 71 73  2  0  0  0
 71 74  1  0  0  0
 71148  1  0  0  0
 72 73  1  0  0  0
 72 87  2  0  0  0
 72149  1  0  0  0
 73 77  1  0  0  0
 74 75  2  0  0  0
 74 76  1  0  0  0
 75 78  1  0  0  0
 75 87  1  0  0  0
 76150  1  0  0  0
 76151  1  0  0  0
 76152  1  0  0  0
 77 86  1  0  0  0
 77153  1  0  0  0
 77154  1  0  0  0
 78 88  1  0  0  0
 78155  1  0  0  0
 78156  1  0  0  0
 79 80  1  0  0  0
 79157  1  0  0  0
 79158  1  0  0  0
 80 81  1  0  0  0
 80159  1  0  0  0
 80160  1  0  0  0
 81 82  1  0  0  0
 81161  1  0  0  0
 81162  1  0  0  0
 82 83  1  0  0  0
 82163  1  0  0  0
 82164  1  0  0  0
 83 84  1  0  0  0
 83165  1  0  0  0
 83166  1  0  0  0
 84 85  1  0  0  0
 84167  1  0  0  0
 84168  1  0  0  0
 85 88  1  0  0  0
 85169  1  0  0  0
 85170  1  0  0  0
 86171  1  0  0  0
 86172  1  0  0  0
 88173  1  0  0  0
 88174  1  0  0  0
M  CHG  1  88   1
M  ISO  4   1 100  68 101  79 100  86 101
M  END
> <chiral flag>
0

> <version>
0

> <s_m_source_file>
/data/baiqing/PycharmProjects/Reinvent-master-3.2/result/LINK_invent/BTK/process_docking_weight1_custom_sum_contain_oxygen_bond_distance_aromatic_linkinvent_7_9_3/rearranged_h_0039.sdf

> <i_m_source_file_index>
66

> <r_mmod_Potential_Energy-OPLS-2005>
-452.196136474609

> <r_mmod_Stretch_Energy-OPLS-2005>
33.1296920776367

> <r_mmod_Bend_Energy-OPLS-2005>
92.9325637817383

> <r_mmod_Torsional_Energy-OPLS-2005>
200.325042724609

> <r_mmod_Improper_Torsional_Energy-OPLS-2005>
1.73581504821777

> <r_mmod_Van_der_Waal_Energy-OPLS-2005>
156.137237548828

> <r_mmod_Electrostatic_Energy-OPLS-2005>
-510.429992675781

> <r_mmod_Solvation_Energy-OPLS-2005>
-433.40380859375

> <b_mmod_Minimization_Converged-OPLS-2005>
0

> <r_mmod_RMS_Derivative-OPLS-2005>
2.96600294113159

$$$$
67
                    3D
 Structure written by MMmdl.
153161  0  0  1  0            999 V2000
  -30.6959  -14.5821   20.5379 C   0  0  0  0  0  0
  -30.4147  -12.3688   19.4484 C   0  0  0  0  0  0
  -29.4962  -12.5083   18.2166 C   0  0  0  0  0  0
  -28.0201  -12.3519   18.6301 C   0  0  0  0  0  0
  -27.6488  -13.2248   19.8597 C   0  0  2  0  0  0
  -28.6937  -13.0921   20.9901 C   0  0  0  0  0  0
  -25.2537  -13.8191   20.5680 C   0  0  0  0  0  0
  -24.1818  -13.0450   20.9186 C   0  0  0  0  0  0
  -24.6399  -11.6918   20.8746 C   0  0  0  0  0  0
  -23.9065  -10.4303   21.0419 C   0  0  0  0  0  0
  -24.3620   -9.4221   21.9200 C   0  0  0  0  0  0
  -23.6301   -8.2250   22.0768 C   0  0  0  0  0  0
  -22.4281   -8.0282   21.3558 C   0  0  0  0  0  0
  -21.9911   -9.0255   20.4660 C   0  0  0  0  0  0
  -22.7231  -10.2141   20.3071 C   0  0  0  0  0  0
  -21.6859   -6.0725   22.5282 C   0  0  0  0  0  0
  -21.4012   -6.5633   23.8210 C   0  0  0  0  0  0
  -21.3661   -5.6795   24.9174 C   0  0  0  0  0  0
  -21.6053   -4.3058   24.7227 C   0  0  0  0  0  0
  -21.8823   -3.8138   23.4349 C   0  0  0  0  0  0
  -21.9193   -4.6953   22.3404 C   0  0  0  0  0  0
  -22.7839  -13.5229   21.1849 C   0  0  0  0  0  0
  -22.1666   -4.2142   21.0984 F   0  0  0  0  0  0
  -21.5635   -3.4541   25.7740 F   0  0  0  0  0  0
  -30.0107  -13.4039   20.4202 N   0  0  0  0  0  0
  -26.2972  -12.9396   20.3321 N   0  0  0  0  0  0
  -25.9337  -11.6538   20.5780 N   0  0  0  0  0  0
  -22.0497  -12.8225   22.0414 N   0  0  0  0  0  0
  -25.4235  -15.1912   20.4064 N   0  0  0  0  0  0
  -31.8511  -14.6906   20.1225 O   0  0  0  0  0  0
  -21.6651   -6.8875   21.4250 O   0  0  0  0  0  0
  -22.3505  -14.5523   20.6685 O   0  0  0  0  0  0
  -24.6241  -31.8620   23.2051 C   0  0  0  0  0  0
  -25.9096  -32.4799   23.8370 C   0  0  1  0  0  0
  -27.2192  -27.3371   20.1061 C   0  0  0  0  0  0
  -25.5915  -33.8600   24.2297 N   0  0  0  0  0  0
  -23.4161  -30.4887   21.5469 C   0  0  2  0  0  0
  -24.8616  -28.9521   20.1078 C   0  0  0  0  0  0
  -22.7461  -29.4638   22.4929 C   0  0  0  0  0  0
  -18.0282  -28.1371   22.8469 C   0  0  0  0  0  0
  -24.1495  -36.7334   23.2635 C   0  0  0  0  0  0
  -25.9566  -30.7968   21.3755 C   0  0  0  0  0  0
  -26.0300  -29.4268   20.7163 C   0  0  0  0  0  0
  -27.2110  -28.6289   20.7119 C   0  0  0  0  0  0
  -26.0268  -26.9222   19.4612 C   0  0  0  0  0  0
  -24.8601  -27.7033   19.4742 C   0  0  0  0  0  0
  -23.6294  -29.8292   20.1596 C   0  0  0  0  0  0
  -25.4114  -36.3106   24.0322 C   0  0  1  0  0  0
  -20.5884  -28.3684   23.1282 C   0  0  2  0  0  0
  -20.6773  -26.9410   22.5401 C   0  0  0  0  0  0
  -19.5760  -26.6375   21.5188 C   0  0  0  0  0  0
  -18.1939  -26.7909   22.1606 C   0  0  0  0  0  0
  -19.1532  -28.8838   23.2873 C   0  0  0  0  0  0
  -18.9456  -30.1438   23.8894 C   0  0  0  0  0  0
  -17.6458  -30.6576   24.0556 C   0  0  0  0  0  0
  -25.9041  -34.9465   23.5107 C   0  0  0  0  0  0
  -16.5351  -29.9074   23.6323 C   0  0  0  0  0  0
  -16.7267  -28.6488   23.0345 C   0  0  0  0  0  0
  -26.4486  -31.6596   25.0722 C   0  0  0  0  0  0
  -25.3739  -31.3717   26.1463 C   0  0  0  0  0  0
  -27.0315  -30.3024   24.6145 C   0  0  0  0  0  0
  -27.6052  -32.4327   25.7498 C   0  0  0  0  0  0
  -27.5585  -37.1825   24.8453 C   0  0  0  0  0  0
  -21.4175  -29.3054   22.3686 N   0  0  0  0  0  0
  -26.4301  -37.3791   23.9389 N   0  0  0  0  0  0
  -24.6838  -31.0653   22.0992 N   0  0  0  0  0  0
  -23.4185  -28.8157   23.2989 O   0  0  0  0  0  0
  -28.3301  -26.4814   20.1710 O   0  0  0  0  0  0
  -26.5616  -34.8920   22.4678 O   0  0  0  0  0  0
  -23.5411  -32.1406   23.7396 O   0  0  0  0  0  0
  -29.0274  -18.5773   20.1265 C   0  0  0  0  0  0
  -30.6586  -19.5234   21.6104 C   0  0  0  0  0  0
  -30.0865  -18.3613   21.0335 C   0  0  0  0  0  0
  -29.1282  -21.0683   20.4212 C   0  0  0  0  0  0
  -28.5642  -19.8912   19.8300 C   0  0  0  0  0  0
  -30.2033  -20.8426   21.3287 C   0  0  0  0  0  0
  -28.4737  -22.4627   20.0766 C   0  0  0  0  0  0
  -30.6724  -16.9645   21.4152 C   0  0  0  0  0  0
  -29.0560  -23.9045   20.4101 C   0  0  0  0  0  0
  -28.0641  -25.0472   19.9526 C   0  0  0  0  0  0
  -30.0298  -15.6734   21.0133 N   0  0  0  0  0  0
  -27.2419  -20.0177   18.7229 Cl  0  0  0  0  0  0
  -31.0043  -22.1362   22.1454 Cl  0  0  0  0  0  0
  -31.4616  -12.4514   19.1525 H   0  0  0  0  0  0
  -30.3099  -11.3769   19.8903 H   0  0  0  0  0  0
  -29.7564  -11.7624   17.4645 H   0  0  0  0  0  0
  -29.6479  -13.4817   17.7467 H   0  0  0  0  0  0
  -27.8486  -11.2983   18.8560 H   0  0  0  0  0  0
  -27.3673  -12.5875   17.7887 H   0  0  0  0  0  0
  -27.6676  -14.2604   19.5182 H   0  0  0  0  0  0
  -28.6937  -12.0797   21.3968 H   0  0  0  0  0  0
  -28.4489  -13.7482   21.8255 H   0  0  0  0  0  0
  -25.2773   -9.5696   22.4758 H   0  0  0  0  0  0
  -24.0030   -7.4634   22.7469 H   0  0  0  0  0  0
  -21.0851   -8.8741   19.8958 H   0  0  0  0  0  0
  -22.3677  -10.9662   19.6170 H   0  0  0  0  0  0
  -21.1998   -7.6143   23.9701 H   0  0  0  0  0  0
  -21.1492   -6.0535   25.9081 H   0  0  0  0  0  0
  -22.0602   -2.7597   23.2854 H   0  0  0  0  0  0
  -22.4112  -11.9877   22.4796 H   0  0  0  0  0  0
  -21.1121  -13.1244   22.2638 H   0  0  0  0  0  0
  -24.6538  -15.8439   20.5053 H   0  0  0  0  0  0
  -26.2743  -15.6299   20.0782 H   0  0  0  0  0  0
  -26.7149  -32.5470   23.1114 H   0  0  0  0  0  0
  -25.0026  -33.9757   25.0415 H   0  0  0  0  0  0
  -22.7088  -31.3085   21.4084 H   0  0  0  0  0  0
  -23.3738  -35.9688   23.3288 H   0  0  0  0  0  0
  -24.3588  -36.8969   22.2052 H   0  0  0  0  0  0
  -23.7273  -37.6541   23.6667 H   0  0  0  0  0  0
  -26.0843  -31.5595   20.6058 H   0  0  0  0  0  0
  -26.8398  -30.8480   21.9995 H   0  0  0  0  0  0
  -28.1020  -28.9864   21.2075 H   0  0  0  0  0  0
  -25.9554  -25.9759   18.9451 H   0  0  0  0  0  0
  -23.9659  -27.3388   18.9877 H   0  0  0  0  0  0
  -23.7451  -30.6069   19.4038 H   0  0  0  0  0  0
  -22.7501  -29.2567   19.8594 H   0  0  0  0  0  0
  -25.1296  -36.1968   25.0816 H   0  0  0  0  0  0
  -20.9969  -28.3239   24.1407 H   0  0  0  0  0  0
  -20.5651  -26.2283   23.3588 H   0  0  0  0  0  0
  -21.6646  -26.7422   22.1217 H   0  0  0  0  0  0
  -19.6928  -25.6279   21.1231 H   0  0  0  0  0  0
  -19.6714  -27.3168   20.6707 H   0  0  0  0  0  0
  -17.4202  -26.6619   21.4021 H   0  0  0  0  0  0
  -18.0376  -26.0059   22.9019 H   0  0  0  0  0  0
  -19.7936  -30.7249   24.2266 H   0  0  0  0  0  0
  -17.5015  -31.6259   24.5159 H   0  0  0  0  0  0
  -15.5351  -30.2979   23.7649 H   0  0  0  0  0  0
  -15.8660  -28.0808   22.7073 H   0  0  0  0  0  0
  -24.5911  -30.7062   25.7791 H   0  0  0  0  0  0
  -24.8934  -32.2876   26.4912 H   0  0  0  0  0  0
  -25.8092  -30.8876   27.0214 H   0  0  0  0  0  0
  -26.2876  -29.6809   24.1138 H   0  0  0  0  0  0
  -27.3986  -29.7246   25.4638 H   0  0  0  0  0  0
  -27.8760  -30.4309   23.9371 H   0  0  0  0  0  0
  -27.2651  -33.3612   26.2098 H   0  0  0  0  0  0
  -28.3858  -32.6916   25.0330 H   0  0  0  0  0  0
  -28.0720  -31.8431   26.5399 H   0  0  0  0  0  0
  -28.2598  -38.0130   24.7492 H   0  0  0  0  0  0
  -28.1093  -36.2656   24.6289 H   0  0  0  0  0  0
  -27.2299  -37.1483   25.8858 H   0  0  0  0  0  0
  -20.9323  -29.8822   21.6959 H   0  0  0  0  0  0
  -26.0187  -38.2869   24.1371 H   0  0  0  0  0  0
  -28.5538  -17.7303   19.6502 H   0  0  0  0  0  0
  -31.4779  -19.4031   22.3054 H   0  0  0  0  0  0
  -28.3085  -22.4635   18.9985 H   0  0  0  0  0  0
  -27.4762  -22.4154   20.5148 H   0  0  0  0  0  0
  -31.7133  -16.9761   21.0870 H   0  0  0  0  0  0
  -30.7293  -16.9391   22.5044 H   0  0  0  0  0  0
  -30.0238  -24.0428   19.9247 H   0  0  0  0  0  0
  -29.2156  -24.0099   21.4828 H   0  0  0  0  0  0
  -27.8935  -24.9085   18.8839 H   0  0  0  0  0  0
  -27.1244  -24.8049   20.4529 H   0  0  0  0  0  0
  -29.0706  -15.5342   21.2931 H   0  0  0  0  0  0
  1 25  1  0  0  0
  1 30  2  0  0  0
  1 81  1  0  0  0
  2  3  1  0  0  0
  2 25  1  0  0  0
  2 84  1  0  0  0
  2 85  1  0  0  0
  3  4  1  0  0  0
  3 86  1  0  0  0
  3 87  1  0  0  0
  4  5  1  0  0  0
  4 88  1  0  0  0
  4 89  1  0  0  0
  5  6  1  0  0  0
  5 26  1  0  0  0
  5 90  1  0  0  0
  6 25  1  0  0  0
  6 91  1  0  0  0
  6 92  1  0  0  0
  7  8  2  0  0  0
  7 26  1  0  0  0
  7 29  1  0  0  0
  8  9  1  0  0  0
  8 22  1  0  0  0
  9 10  1  0  0  0
  9 27  2  0  0  0
 10 11  2  0  0  0
 10 15  1  0  0  0
 11 12  1  0  0  0
 11 93  1  0  0  0
 12 13  2  0  0  0
 12 94  1  0  0  0
 13 14  1  0  0  0
 13 31  1  0  0  0
 14 15  2  0  0  0
 14 95  1  0  0  0
 15 96  1  0  0  0
 16 17  2  0  0  0
 16 21  1  0  0  0
 16 31  1  0  0  0
 17 18  1  0  0  0
 17 97  1  0  0  0
 18 19  2  0  0  0
 18 98  1  0  0  0
 19 20  1  0  0  0
 19 24  1  0  0  0
 20 21  2  0  0  0
 20 99  1  0  0  0
 21 23  1  0  0  0
 22 28  1  0  0  0
 22 32  2  0  0  0
 26 27  1  0  0  0
 28100  1  0  0  0
 28101  1  0  0  0
 29102  1  0  0  0
 29103  1  0  0  0
 33 34  1  0  0  0
 33 66  1  0  0  0
 33 70  2  0  0  0
 34 36  1  0  0  0
 34 59  1  0  0  0
 34104  1  0  0  0
 35 44  2  0  0  0
 35 45  1  0  0  0
 35 68  1  0  0  0
 36 56  1  0  0  0
 36105  1  0  0  0
 37 39  1  0  0  0
 37 47  1  0  0  0
 37 66  1  0  0  0
 37106  1  0  0  0
 38 43  2  0  0  0
 38 46  1  0  0  0
 38 47  1  0  0  0
 39 64  1  0  0  0
 39 67  2  0  0  0
 40 52  1  0  0  0
 40 53  2  0  0  0
 40 58  1  0  0  0
 41107  1  0  0  0
 41108  1  0  0  0
 41109  1  0  0  0
 41 48  1  0  0  0
 42 43  1  0  0  0
 42 66  1  0  0  0
 42110  1  0  0  0
 42111  1  0  0  0
 43 44  1  0  0  0
 44112  1  0  0  0
 45 46  2  0  0  0
 45113  1  0  0  0
 46114  1  0  0  0
 47115  1  0  0  0
 47116  1  0  0  0
 48 56  1  0  0  0
 48 65  1  0  0  0
 48117  1  0  0  0
 49 50  1  0  0  0
 49 53  1  0  0  0
 49 64  1  0  0  0
 49118  1  0  0  0
 50 51  1  0  0  0
 50119  1  0  0  0
 50120  1  0  0  0
 51 52  1  0  0  0
 51121  1  0  0  0
 51122  1  0  0  0
 52123  1  0  0  0
 52124  1  0  0  0
 53 54  1  0  0  0
 54 55  2  0  0  0
 54125  1  0  0  0
 55 57  1  0  0  0
 55126  1  0  0  0
 56 69  2  0  0  0
 57 58  2  0  0  0
 57127  1  0  0  0
 58128  1  0  0  0
 59 60  1  0  0  0
 59 61  1  0  0  0
 59 62  1  0  0  0
 60129  1  0  0  0
 60130  1  0  0  0
 60131  1  0  0  0
 61132  1  0  0  0
 61133  1  0  0  0
 61134  1  0  0  0
 62135  1  0  0  0
 62136  1  0  0  0
 62137  1  0  0  0
 63 65  1  0  0  0
 63138  1  0  0  0
 63139  1  0  0  0
 63140  1  0  0  0
 64141  1  0  0  0
 65142  1  0  0  0
 68 80  1  0  0  0
 71 73  2  0  0  0
 71 75  1  0  0  0
 71143  1  0  0  0
 72 73  1  0  0  0
 72 76  2  0  0  0
 72144  1  0  0  0
 73 78  1  0  0  0
 74 75  2  0  0  0
 74 76  1  0  0  0
 74 77  1  0  0  0
 75 82  1  0  0  0
 76 83  1  0  0  0
 77 79  1  0  0  0
 77145  1  0  0  0
 77146  1  0  0  0
 78 81  1  0  0  0
 78147  1  0  0  0
 78148  1  0  0  0
 79 80  1  0  0  0
 79149  1  0  0  0
 79150  1  0  0  0
 80151  1  0  0  0
 80152  1  0  0  0
 81153  1  0  0  0
M  ISO  4   1 100  68 101  80 101  81 100
M  END
> <chiral flag>
0

> <version>
0

> <s_m_source_file>
/data/baiqing/PycharmProjects/Reinvent-master-3.2/result/LINK_invent/BTK/process_docking_weight1_custom_sum_contain_oxygen_bond_distance_aromatic_linkinvent_7_9_3/rearranged_h_0039.sdf

> <i_m_source_file_index>
67

> <r_mmod_Potential_Energy-OPLS-2005>
-3.19270730018616

> <r_mmod_Stretch_Energy-OPLS-2005>
70.2582397460938

> <r_mmod_Bend_Energy-OPLS-2005>
154.365707397461

> <r_mmod_Torsional_Energy-OPLS-2005>
191.252731323242

> <r_mmod_Improper_Torsional_Energy-OPLS-2005>
3.22938394546509

> <r_mmod_Van_der_Waal_Energy-OPLS-2005>
156.471435546875

> <r_mmod_Electrostatic_Energy-OPLS-2005>
-409.775634765625

> <r_mmod_Solvation_Energy-OPLS-2005>
-208.562835693359

> <b_mmod_Minimization_Converged-OPLS-2005>
0

> <r_mmod_RMS_Derivative-OPLS-2005>
2.05181312561035

$$$$
68
                    3D
 Structure written by MMmdl.
159167  0  0  1  0            999 V2000
  -30.6153  -14.7070   20.4732 C   0  0  0  0  0  0
  -30.4353  -12.4305   19.4676 C   0  0  0  0  0  0
  -29.5172  -12.5133   18.2294 C   0  0  0  0  0  0
  -28.0404  -12.3470   18.6376 C   0  0  0  0  0  0
  -27.6488  -13.2270   19.8565 C   0  0  2  0  0  0
  -28.6921  -13.1349   20.9914 C   0  0  0  0  0  0
  -25.2547  -13.8173   20.5688 C   0  0  0  0  0  0
  -24.1842  -13.0409   20.9215 C   0  0  0  0  0  0
  -24.6428  -11.6887   20.8742 C   0  0  0  0  0  0
  -23.9105  -10.4271   21.0409 C   0  0  0  0  0  0
  -24.3630   -9.4189   21.9196 C   0  0  0  0  0  0
  -23.6304   -8.2240   22.0762 C   0  0  0  0  0  0
  -22.4291   -8.0278   21.3549 C   0  0  0  0  0  0
  -21.9923   -9.0262   20.4658 C   0  0  0  0  0  0
  -22.7270  -10.2135   20.3077 C   0  0  0  0  0  0
  -21.6855   -6.0713   22.5282 C   0  0  0  0  0  0
  -21.4002   -6.5617   23.8211 C   0  0  0  0  0  0
  -21.3678   -5.6785   24.9180 C   0  0  0  0  0  0
  -21.6065   -4.3044   24.7241 C   0  0  0  0  0  0
  -21.8817   -3.8127   23.4360 C   0  0  0  0  0  0
  -21.9186   -4.6939   22.3409 C   0  0  0  0  0  0
  -22.7864  -13.5216   21.1878 C   0  0  0  0  0  0
  -22.1658   -4.2123   21.0991 F   0  0  0  0  0  0
  -21.5654   -3.4540   25.7754 F   0  0  0  0  0  0
  -29.9946  -13.4818   20.4120 N   0  0  0  0  0  0
  -26.2983  -12.9378   20.3286 N   0  0  0  0  0  0
  -25.9358  -11.6510   20.5732 N   0  0  0  0  0  0
  -22.0484  -12.8234   22.0413 N   0  0  0  0  0  0
  -25.4174  -15.1904   20.4113 N   0  0  0  0  0  0
  -31.8015  -14.8179   20.1561 O   0  0  0  0  0  0
  -21.6645   -6.8869   21.4252 O   0  0  0  0  0  0
  -22.3559  -14.5533   20.6724 O   0  0  0  0  0  0
  -24.6301  -31.8571   23.1998 C   0  0  0  0  0  0
  -25.9144  -32.4776   23.8325 C   0  0  1  0  0  0
  -27.2218  -27.2846   20.1309 C   0  0  0  0  0  0
  -25.5952  -33.8576   24.2253 N   0  0  0  0  0  0
  -23.4249  -30.4778   21.5438 C   0  0  2  0  0  0
  -24.8709  -28.9188   20.1222 C   0  0  0  0  0  0
  -22.7483  -29.4611   22.4941 C   0  0  0  0  0  0
  -18.0283  -28.1390   22.8493 C   0  0  0  0  0  0
  -24.1491  -36.7283   23.2634 C   0  0  0  0  0  0
  -25.9690  -30.7763   21.3745 C   0  0  0  0  0  0
  -26.0431  -29.3954   20.7263 C   0  0  0  0  0  0
  -27.2240  -28.5909   20.7195 C   0  0  0  0  0  0
  -26.0342  -26.8667   19.5013 C   0  0  0  0  0  0
  -24.8701  -27.6598   19.4991 C   0  0  0  0  0  0
  -23.6416  -29.8053   20.1627 C   0  0  0  0  0  0
  -25.4119  -36.3080   24.0320 C   0  0  1  0  0  0
  -20.5884  -28.3685   23.1288 C   0  0  2  0  0  0
  -20.6774  -26.9408   22.5414 C   0  0  0  0  0  0
  -19.5755  -26.6378   21.5216 C   0  0  0  0  0  0
  -18.1931  -26.7932   22.1623 C   0  0  0  0  0  0
  -19.1539  -28.8856   23.2878 C   0  0  0  0  0  0
  -18.9461  -30.1457   23.8888 C   0  0  0  0  0  0
  -17.6461  -30.6590   24.0560 C   0  0  0  0  0  0
  -25.9068  -34.9452   23.5088 C   0  0  0  0  0  0
  -16.5349  -29.9087   23.6334 C   0  0  0  0  0  0
  -16.7269  -28.6506   23.0353 C   0  0  0  0  0  0
  -26.4502  -31.6595   25.0716 C   0  0  0  0  0  0
  -25.3722  -31.3754   26.1431 C   0  0  0  0  0  0
  -27.0334  -30.3003   24.6214 C   0  0  0  0  0  0
  -27.6042  -32.4329   25.7514 C   0  0  0  0  0  0
  -27.5573  -37.1799   24.8459 C   0  0  0  0  0  0
  -21.4191  -29.3037   22.3689 N   0  0  0  0  0  0
  -26.4286  -37.3781   23.9409 N   0  0  0  0  0  0
  -24.6938  -31.0542   22.0963 N   0  0  0  0  0  0
  -23.4195  -28.8146   23.3025 O   0  0  0  0  0  0
  -28.3397  -26.4429   20.0382 O   0  0  0  0  0  0
  -26.5615  -34.8934   22.4651 O   0  0  0  0  0  0
  -23.5454  -32.1381   23.7308 O   0  0  0  0  0  0
  -27.2707  -21.0293   20.1585 C   0  0  0  0  0  0
  -26.7788  -23.4369   20.2787 C   0  0  0  0  0  0
  -29.0573  -22.6412   20.5183 C   0  0  0  0  0  0
  -26.3418  -22.1001   20.1311 C   0  0  0  0  0  0
  -28.6507  -21.2543   20.3612 C   0  0  0  0  0  0
  -28.1338  -23.7634   20.4858 C   0  0  0  0  0  0
  -24.4081  -20.4362   19.6400 C   0  0  0  0  0  0
  -24.8385  -21.8665   19.9982 C   0  0  0  0  0  0
  -29.6524  -20.0156   20.3878 C   0  0  0  0  0  0
  -28.4921  -25.2528   20.9163 C   0  0  0  0  0  0
  -29.1520  -18.4824   20.5723 C   0  0  0  0  0  0
  -30.2526  -17.2960   20.5550 C   0  0  0  0  0  0
  -29.8367  -15.8321   20.6809 N   0  0  0  0  0  0
  -31.4799  -12.5461   19.1735 H   0  0  0  0  0  0
  -30.3594  -11.4442   19.9293 H   0  0  0  0  0  0
  -29.7961  -11.7486   17.5021 H   0  0  0  0  0  0
  -29.6572  -13.4761   17.7339 H   0  0  0  0  0  0
  -27.8888  -11.2934   18.8787 H   0  0  0  0  0  0
  -27.3879  -12.5645   17.7921 H   0  0  0  0  0  0
  -27.6521  -14.2558   19.4991 H   0  0  0  0  0  0
  -28.7179  -12.1340   21.4226 H   0  0  0  0  0  0
  -28.4340  -13.8117   21.8082 H   0  0  0  0  0  0
  -25.2765   -9.5660   22.4778 H   0  0  0  0  0  0
  -23.9994   -7.4628   22.7488 H   0  0  0  0  0  0
  -21.0845   -8.8795   19.8977 H   0  0  0  0  0  0
  -22.3725  -10.9674   19.6195 H   0  0  0  0  0  0
  -21.1968   -7.6128   23.9705 H   0  0  0  0  0  0
  -21.1525   -6.0516   25.9087 H   0  0  0  0  0  0
  -22.0575   -2.7593   23.2874 H   0  0  0  0  0  0
  -22.4034  -11.9906   22.4883 H   0  0  0  0  0  0
  -21.1093  -13.1291   22.2570 H   0  0  0  0  0  0
  -24.6345  -15.8259   20.5226 H   0  0  0  0  0  0
  -26.2540  -15.6473   20.0705 H   0  0  0  0  0  0
  -26.7214  -32.5432   23.1061 H   0  0  0  0  0  0
  -25.0144  -33.9703   25.0430 H   0  0  0  0  0  0
  -22.7214  -31.2994   21.3947 H   0  0  0  0  0  0
  -23.3770  -35.9601   23.3302 H   0  0  0  0  0  0
  -24.3574  -36.8902   22.2044 H   0  0  0  0  0  0
  -23.7229  -37.6483   23.6655 H   0  0  0  0  0  0
  -26.0997  -31.5343   20.6009 H   0  0  0  0  0  0
  -26.8506  -30.8304   22.0032 H   0  0  0  0  0  0
  -28.1341  -28.9646   21.1680 H   0  0  0  0  0  0
  -26.0111  -25.9168   18.9905 H   0  0  0  0  0  0
  -23.9771  -27.2919   19.0124 H   0  0  0  0  0  0
  -23.7639  -30.5774   19.4013 H   0  0  0  0  0  0
  -22.7626  -29.2323   19.8603 H   0  0  0  0  0  0
  -25.1304  -36.1920   25.0808 H   0  0  0  0  0  0
  -20.9959  -28.3264   24.1414 H   0  0  0  0  0  0
  -20.5685  -26.2291   23.3614 H   0  0  0  0  0  0
  -21.6643  -26.7444   22.1201 H   0  0  0  0  0  0
  -19.6911  -25.6286   21.1256 H   0  0  0  0  0  0
  -19.6698  -27.3186   20.6752 H   0  0  0  0  0  0
  -17.4193  -26.6682   21.4023 H   0  0  0  0  0  0
  -18.0319  -26.0066   22.9017 H   0  0  0  0  0  0
  -19.7935  -30.7274   24.2255 H   0  0  0  0  0  0
  -17.5017  -31.6275   24.5156 H   0  0  0  0  0  0
  -15.5353  -30.2984   23.7674 H   0  0  0  0  0  0
  -15.8667  -28.0827   22.7070 H   0  0  0  0  0  0
  -24.5907  -30.7089   25.7765 H   0  0  0  0  0  0
  -24.8908  -32.2924   26.4827 H   0  0  0  0  0  0
  -25.8033  -30.8954   27.0222 H   0  0  0  0  0  0
  -26.2911  -29.6774   24.1207 H   0  0  0  0  0  0
  -27.3956  -29.7252   25.4746 H   0  0  0  0  0  0
  -27.8820  -30.4262   23.9491 H   0  0  0  0  0  0
  -27.2631  -33.3620   26.2087 H   0  0  0  0  0  0
  -28.3871  -32.6898   25.0371 H   0  0  0  0  0  0
  -28.0688  -31.8460   26.5445 H   0  0  0  0  0  0
  -28.2594  -38.0098   24.7518 H   0  0  0  0  0  0
  -28.1068  -36.2622   24.6276 H   0  0  0  0  0  0
  -27.2279  -37.1430   25.8862 H   0  0  0  0  0  0
  -20.9384  -29.8756   21.6889 H   0  0  0  0  0  0
  -26.0169  -38.2859   24.1433 H   0  0  0  0  0  0
  -26.9294  -20.0119   20.0448 H   0  0  0  0  0  0
  -26.0379  -24.2195   20.3089 H   0  0  0  0  0  0
  -30.1023  -22.8488   20.7073 H   0  0  0  0  0  0
  -24.8655  -20.1037   18.7063 H   0  0  0  0  0  0
  -23.3251  -20.3906   19.5101 H   0  0  0  0  0  0
  -24.6670  -19.7276   20.4287 H   0  0  0  0  0  0
  -24.3656  -22.1522   20.9404 H   0  0  0  0  0  0
  -24.4457  -22.5537   19.2447 H   0  0  0  0  0  0
  -30.3935  -20.2161   21.1610 H   0  0  0  0  0  0
  -30.2115  -20.0608   19.4524 H   0  0  0  0  0  0
  -27.9356  -25.4515   21.8318 H   0  0  0  0  0  0
  -29.5361  -25.2489   21.2261 H   0  0  0  0  0  0
  -28.4167  -18.2613   19.7991 H   0  0  0  0  0  0
  -28.6122  -18.4277   21.5156 H   0  0  0  0  0  0
  -30.9690  -17.4910   21.3538 H   0  0  0  0  0  0
  -30.8320  -17.3906   19.6362 H   0  0  0  0  0  0
  -28.8639  -15.6567   20.8775 H   0  0  0  0  0  0
  1 25  1  0  0  0
  1 30  2  0  0  0
  1 83  1  0  0  0
  2  3  1  0  0  0
  2 25  1  0  0  0
  2 84  1  0  0  0
  2 85  1  0  0  0
  3  4  1  0  0  0
  3 86  1  0  0  0
  3 87  1  0  0  0
  4  5  1  0  0  0
  4 88  1  0  0  0
  4 89  1  0  0  0
  5  6  1  0  0  0
  5 26  1  0  0  0
  5 90  1  0  0  0
  6 25  1  0  0  0
  6 91  1  0  0  0
  6 92  1  0  0  0
  7  8  2  0  0  0
  7 26  1  0  0  0
  7 29  1  0  0  0
  8  9  1  0  0  0
  8 22  1  0  0  0
  9 10  1  0  0  0
  9 27  2  0  0  0
 10 11  2  0  0  0
 10 15  1  0  0  0
 11 12  1  0  0  0
 11 93  1  0  0  0
 12 13  2  0  0  0
 12 94  1  0  0  0
 13 14  1  0  0  0
 13 31  1  0  0  0
 14 15  2  0  0  0
 14 95  1  0  0  0
 15 96  1  0  0  0
 16 17  2  0  0  0
 16 21  1  0  0  0
 16 31  1  0  0  0
 17 18  1  0  0  0
 17 97  1  0  0  0
 18 19  2  0  0  0
 18 98  1  0  0  0
 19 20  1  0  0  0
 19 24  1  0  0  0
 20 21  2  0  0  0
 20 99  1  0  0  0
 21 23  1  0  0  0
 22 28  1  0  0  0
 22 32  2  0  0  0
 26 27  1  0  0  0
 28100  1  0  0  0
 28101  1  0  0  0
 29102  1  0  0  0
 29103  1  0  0  0
 33 34  1  0  0  0
 33 66  1  0  0  0
 33 70  2  0  0  0
 34 36  1  0  0  0
 34 59  1  0  0  0
 34104  1  0  0  0
 35 44  2  0  0  0
 35 45  1  0  0  0
 35 68  1  0  0  0
 36 56  1  0  0  0
 36105  1  0  0  0
 37 39  1  0  0  0
 37 47  1  0  0  0
 37 66  1  0  0  0
 37106  1  0  0  0
 38 43  2  0  0  0
 38 46  1  0  0  0
 38 47  1  0  0  0
 39 64  1  0  0  0
 39 67  2  0  0  0
 40 52  1  0  0  0
 40 53  2  0  0  0
 40 58  1  0  0  0
 41107  1  0  0  0
 41108  1  0  0  0
 41109  1  0  0  0
 41 48  1  0  0  0
 42 43  1  0  0  0
 42 66  1  0  0  0
 42110  1  0  0  0
 42111  1  0  0  0
 43 44  1  0  0  0
 44112  1  0  0  0
 45 46  2  0  0  0
 45113  1  0  0  0
 46114  1  0  0  0
 47115  1  0  0  0
 47116  1  0  0  0
 48 56  1  0  0  0
 48 65  1  0  0  0
 48117  1  0  0  0
 49 50  1  0  0  0
 49 53  1  0  0  0
 49 64  1  0  0  0
 49118  1  0  0  0
 50 51  1  0  0  0
 50119  1  0  0  0
 50120  1  0  0  0
 51 52  1  0  0  0
 51121  1  0  0  0
 51122  1  0  0  0
 52123  1  0  0  0
 52124  1  0  0  0
 53 54  1  0  0  0
 54 55  2  0  0  0
 54125  1  0  0  0
 55 57  1  0  0  0
 55126  1  0  0  0
 56 69  2  0  0  0
 57 58  2  0  0  0
 57127  1  0  0  0
 58128  1  0  0  0
 59 60  1  0  0  0
 59 61  1  0  0  0
 59 62  1  0  0  0
 60129  1  0  0  0
 60130  1  0  0  0
 60131  1  0  0  0
 61132  1  0  0  0
 61133  1  0  0  0
 61134  1  0  0  0
 62135  1  0  0  0
 62136  1  0  0  0
 62137  1  0  0  0
 63 65  1  0  0  0
 63138  1  0  0  0
 63139  1  0  0  0
 63140  1  0  0  0
 64141  1  0  0  0
 65142  1  0  0  0
 68 80  1  0  0  0
 71 74  2  0  0  0
 71 75  1  0  0  0
 71143  1  0  0  0
 72 74  1  0  0  0
 72 76  2  0  0  0
 72144  1  0  0  0
 73 75  2  0  0  0
 73 76  1  0  0  0
 73145  1  0  0  0
 74 78  1  0  0  0
 75 79  1  0  0  0
 76 80  1  0  0  0
 77 78  1  0  0  0
 77146  1  0  0  0
 77147  1  0  0  0
 77148  1  0  0  0
 78149  1  0  0  0
 78150  1  0  0  0
 79 81  1  0  0  0
 79151  1  0  0  0
 79152  1  0  0  0
 80153  1  0  0  0
 80154  1  0  0  0
 81 82  1  0  0  0
 81155  1  0  0  0
 81156  1  0  0  0
 82 83  1  0  0  0
 82157  1  0  0  0
 82158  1  0  0  0
 83159  1  0  0  0
M  ISO  4   1 100  68 101  80 101  83 100
M  END
> <chiral flag>
0

> <version>
0

> <s_m_source_file>
/data/baiqing/PycharmProjects/Reinvent-master-3.2/result/LINK_invent/BTK/process_docking_weight1_custom_sum_contain_oxygen_bond_distance_aromatic_linkinvent_7_9_3/rearranged_h_0039.sdf

> <i_m_source_file_index>
68

> <r_mmod_Potential_Energy-OPLS-2005>
141.878967285156

> <r_mmod_Stretch_Energy-OPLS-2005>
110.511947631836

> <r_mmod_Bend_Energy-OPLS-2005>
160.29150390625

> <r_mmod_Torsional_Energy-OPLS-2005>
237.718475341797

> <r_mmod_Improper_Torsional_Energy-OPLS-2005>
6.5990309715271

> <r_mmod_Van_der_Waal_Energy-OPLS-2005>
130.088119506836

> <r_mmod_Electrostatic_Energy-OPLS-2005>
-365.191284179688

> <r_mmod_Solvation_Energy-OPLS-2005>
-203.714263916016

> <b_mmod_Minimization_Converged-OPLS-2005>
0

> <r_mmod_RMS_Derivative-OPLS-2005>
3.71396803855896

$$$$
69
                    3D
 Structure written by MMmdl.
164172  0  0  1  0            999 V2000
  -30.7269  -14.4214   20.5875 C   0  0  0  0  0  0
  -30.4112  -12.2875   19.4059 C   0  0  0  0  0  0
  -29.4838  -12.5232   18.1969 C   0  0  0  0  0  0
  -28.0068  -12.3857   18.6140 C   0  0  0  0  0  0
  -27.6622  -13.2115   19.8838 C   0  0  2  0  0  0
  -28.7054  -12.9716   21.0004 C   0  0  0  0  0  0
  -25.2566  -13.8183   20.5704 C   0  0  0  0  0  0
  -24.1813  -13.0441   20.9173 C   0  0  0  0  0  0
  -24.6379  -11.6924   20.8710 C   0  0  0  0  0  0
  -23.9063  -10.4307   21.0402 C   0  0  0  0  0  0
  -24.3628   -9.4230   21.9174 C   0  0  0  0  0  0
  -23.6310   -8.2256   22.0751 C   0  0  0  0  0  0
  -22.4285   -8.0286   21.3554 C   0  0  0  0  0  0
  -21.9921   -9.0252   20.4660 C   0  0  0  0  0  0
  -22.7241  -10.2137   20.3065 C   0  0  0  0  0  0
  -21.6857   -6.0741   22.5269 C   0  0  0  0  0  0
  -21.4027   -6.5652   23.8200 C   0  0  0  0  0  0
  -21.3647   -5.6805   24.9162 C   0  0  0  0  0  0
  -21.6034   -4.3068   24.7213 C   0  0  0  0  0  0
  -21.8819   -3.8160   23.4334 C   0  0  0  0  0  0
  -21.9206   -4.6974   22.3398 C   0  0  0  0  0  0
  -22.7836  -13.5229   21.1860 C   0  0  0  0  0  0
  -22.1674   -4.2162   21.0973 F   0  0  0  0  0  0
  -21.5635   -3.4560   25.7726 F   0  0  0  0  0  0
  -30.0390  -13.2592   20.4442 N   0  0  0  0  0  0
  -26.3020  -12.9371   20.3427 N   0  0  0  0  0  0
  -25.9311  -11.6518   20.5760 N   0  0  0  0  0  0
  -22.0528  -12.8181   22.0434 N   0  0  0  0  0  0
  -25.4234  -15.1899   20.4088 N   0  0  0  0  0  0
  -31.8311  -14.6196   20.0733 O   0  0  0  0  0  0
  -21.6654   -6.8881   21.4232 O   0  0  0  0  0  0
  -22.3483  -14.5524   20.6734 O   0  0  0  0  0  0
  -24.6079  -31.8714   23.2148 C   0  0  0  0  0  0
  -25.8994  -32.4845   23.8413 C   0  0  1  0  0  0
  -27.2455  -27.4658   20.1050 C   0  0  0  0  0  0
  -25.5890  -33.8641   24.2353 N   0  0  0  0  0  0
  -23.3960  -30.4928   21.5534 C   0  0  2  0  0  0
  -24.8471  -28.9632   20.1178 C   0  0  0  0  0  0
  -22.7387  -29.4661   22.5027 C   0  0  0  0  0  0
  -18.0272  -28.1368   22.8497 C   0  0  0  0  0  0
  -24.1496  -36.7313   23.2635 C   0  0  0  0  0  0
  -25.9192  -30.8459   21.3648 C   0  0  0  0  0  0
  -25.9992  -29.4788   20.7219 C   0  0  0  0  0  0
  -27.1984  -28.7358   20.7272 C   0  0  0  0  0  0
  -26.0776  -26.9599   19.5004 C   0  0  0  0  0  0
  -24.8784  -27.6971   19.5058 C   0  0  0  0  0  0
  -23.6039  -29.8219   20.1676 C   0  0  0  0  0  0
  -25.4110  -36.3118   24.0348 C   0  0  1  0  0  0
  -20.5862  -28.3644   23.1346 C   0  0  2  0  0  0
  -20.6778  -26.9391   22.5423 C   0  0  0  0  0  0
  -19.5763  -26.6385   21.5216 C   0  0  0  0  0  0
  -18.1933  -26.7915   22.1619 C   0  0  0  0  0  0
  -19.1519  -28.8821   23.2914 C   0  0  0  0  0  0
  -18.9443  -30.1435   23.8914 C   0  0  0  0  0  0
  -17.6443  -30.6574   24.0557 C   0  0  0  0  0  0
  -25.9030  -34.9484   23.5146 C   0  0  0  0  0  0
  -16.5340  -29.9071   23.6327 C   0  0  0  0  0  0
  -16.7261  -28.6494   23.0340 C   0  0  0  0  0  0
  -26.4442  -31.6606   25.0714 C   0  0  0  0  0  0
  -25.3731  -31.3682   26.1482 C   0  0  0  0  0  0
  -27.0252  -30.3063   24.6020 C   0  0  0  0  0  0
  -27.6023  -32.4322   25.7465 C   0  0  0  0  0  0
  -27.5596  -37.1803   24.8458 C   0  0  0  0  0  0
  -21.4128  -29.3007   22.3751 N   0  0  0  0  0  0
  -26.4297  -37.3801   23.9421 N   0  0  0  0  0  0
  -24.6587  -31.0836   22.1034 N   0  0  0  0  0  0
  -23.4173  -28.8215   23.3070 O   0  0  0  0  0  0
  -28.3700  -26.6745   20.0323 O   0  0  0  0  0  0
  -26.5571  -34.8923   22.4695 O   0  0  0  0  0  0
  -23.5287  -32.1448   23.7567 O   0  0  0  0  0  0
  -29.1577  -24.1197   21.8691 C   0  0  0  0  0  0
  -30.7843  -23.4344   20.2261 C   0  0  0  0  0  0
  -30.1443  -24.4704   20.9260 C   0  0  0  0  0  0
  -28.8513  -22.7570   22.0663 C   0  0  0  0  0  0
  -29.5480  -21.7897   21.3035 C   0  0  0  0  0  0
  -27.7983  -22.3716   23.0950 C   0  0  0  0  0  0
  -30.5673  -25.9166   20.6626 C   0  0  0  0  0  0
  -29.3158  -20.2863   21.4308 C   0  0  0  0  0  0
  -28.5717  -19.6997   20.2115 C   0  0  0  0  0  0
  -28.5966  -18.1588   20.1084 C   0  0  0  0  0  0
  -30.0162  -17.5685   19.9673 C   0  0  0  0  0  0
  -30.5109  -16.8100   21.2183 C   0  0  0  0  0  0
  -29.4822  -26.9905   20.8602 C   0  0  0  0  0  0
  -30.4979  -22.1314   20.4086 N   0  0  0  0  0  0
  -30.0717  -15.4122   21.2115 N   0  0  0  0  0  0
  -31.4592  -12.3659   19.1067 H   0  0  0  0  0  0
  -30.2872  -11.2703   19.7844 H   0  0  0  0  0  0
  -29.7172  -11.8180   17.3982 H   0  0  0  0  0  0
  -29.6553  -13.5171   17.7794 H   0  0  0  0  0  0
  -27.8152  -11.3284   18.7959 H   0  0  0  0  0  0
  -27.3533  -12.6746   17.7892 H   0  0  0  0  0  0
  -27.7099  -14.2643   19.6015 H   0  0  0  0  0  0
  -28.6714  -11.9351   21.3388 H   0  0  0  0  0  0
  -28.4758  -13.5640   21.8883 H   0  0  0  0  0  0
  -25.2786   -9.5730   22.4728 H   0  0  0  0  0  0
  -24.0054   -7.4649   22.7443 H   0  0  0  0  0  0
  -21.0873   -8.8747   19.8942 H   0  0  0  0  0  0
  -22.3692  -10.9665   19.6174 H   0  0  0  0  0  0
  -21.2021   -7.6159   23.9721 H   0  0  0  0  0  0
  -21.1470   -6.0533   25.9059 H   0  0  0  0  0  0
  -22.0610   -2.7620   23.2824 H   0  0  0  0  0  0
  -22.4203  -11.9854   22.4797 H   0  0  0  0  0  0
  -21.1132  -13.1130   22.2664 H   0  0  0  0  0  0
  -24.6536  -15.8406   20.5203 H   0  0  0  0  0  0
  -26.2783  -15.6364   20.1032 H   0  0  0  0  0  0
  -26.7066  -32.5577   23.1183 H   0  0  0  0  0  0
  -25.0100  -33.9812   25.0539 H   0  0  0  0  0  0
  -22.6813  -31.3067   21.4148 H   0  0  0  0  0  0
  -23.3763  -35.9638   23.3289 H   0  0  0  0  0  0
  -24.3607  -36.8922   22.2051 H   0  0  0  0  0  0
  -23.7233  -37.6516   23.6642 H   0  0  0  0  0  0
  -26.0200  -31.6082   20.5910 H   0  0  0  0  0  0
  -26.8103  -30.9080   21.9769 H   0  0  0  0  0  0
  -28.0712  -29.1528   21.2074 H   0  0  0  0  0  0
  -26.0963  -25.9862   19.0299 H   0  0  0  0  0  0
  -23.9931  -27.2904   19.0359 H   0  0  0  0  0  0
  -23.6987  -30.5931   19.4022 H   0  0  0  0  0  0
  -22.7327  -29.2303   19.8825 H   0  0  0  0  0  0
  -25.1282  -36.1993   25.0839 H   0  0  0  0  0  0
  -20.9937  -28.3198   24.1472 H   0  0  0  0  0  0
  -20.5723  -26.2233   23.3585 H   0  0  0  0  0  0
  -21.6646  -26.7476   22.1188 H   0  0  0  0  0  0
  -19.6931  -25.6304   21.1223 H   0  0  0  0  0  0
  -19.6716  -27.3216   20.6760 H   0  0  0  0  0  0
  -17.4214  -26.6674   21.4002 H   0  0  0  0  0  0
  -18.0322  -26.0039   22.8997 H   0  0  0  0  0  0
  -19.7917  -30.7246   24.2295 H   0  0  0  0  0  0
  -17.4997  -31.6263   24.5146 H   0  0  0  0  0  0
  -15.5341  -30.2970   23.7649 H   0  0  0  0  0  0
  -15.8660  -28.0819   22.7042 H   0  0  0  0  0  0
  -24.5920  -30.7000   25.7839 H   0  0  0  0  0  0
  -24.8891  -32.2821   26.4938 H   0  0  0  0  0  0
  -25.8110  -30.8868   27.0235 H   0  0  0  0  0  0
  -26.2762  -29.6861   24.1079 H   0  0  0  0  0  0
  -27.4070  -29.7251   25.4423 H   0  0  0  0  0  0
  -27.8578  -30.4418   23.9110 H   0  0  0  0  0  0
  -27.2647  -33.3623   26.2048 H   0  0  0  0  0  0
  -28.3814  -32.6886   25.0274 H   0  0  0  0  0  0
  -28.0700  -31.8442   26.5372 H   0  0  0  0  0  0
  -28.2583  -38.0132   24.7563 H   0  0  0  0  0  0
  -28.1126  -36.2670   24.6217 H   0  0  0  0  0  0
  -27.2323  -37.1368   25.8860 H   0  0  0  0  0  0
  -20.9292  -29.8664   21.6913 H   0  0  0  0  0  0
  -26.0192  -38.2879   24.1442 H   0  0  0  0  0  0
  -28.6455  -24.8789   22.4423 H   0  0  0  0  0  0
  -31.5587  -23.6524   19.5061 H   0  0  0  0  0  0
  -27.3554  -23.2504   23.5649 H   0  0  0  0  0  0
  -28.2369  -21.7701   23.8919 H   0  0  0  0  0  0
  -26.9937  -21.7992   22.6324 H   0  0  0  0  0  0
  -30.9257  -25.9831   19.6344 H   0  0  0  0  0  0
  -31.4290  -26.1474   21.2897 H   0  0  0  0  0  0
  -28.7793  -20.0413   22.3456 H   0  0  0  0  0  0
  -30.2961  -19.8224   21.5396 H   0  0  0  0  0  0
  -29.0052  -20.1069   19.2971 H   0  0  0  0  0  0
  -27.5392  -20.0522   20.2311 H   0  0  0  0  0  0
  -28.0172  -17.8763   19.2258 H   0  0  0  0  0  0
  -28.0759  -17.7101   20.9553 H   0  0  0  0  0  0
  -30.7202  -18.3689   19.7329 H   0  0  0  0  0  0
  -30.0549  -16.9091   19.0971 H   0  0  0  0  0  0
  -30.1651  -17.3045   22.1268 H   0  0  0  0  0  0
  -31.6012  -16.8560   21.2578 H   0  0  0  0  0  0
  -29.8929  -27.9623   20.5841 H   0  0  0  0  0  0
  -29.1826  -27.0506   21.9085 H   0  0  0  0  0  0
  -29.1623  -15.2007   21.5947 H   0  0  0  0  0  0
  1 25  1  0  0  0
  1 30  2  0  0  0
  1 85  1  0  0  0
  2  3  1  0  0  0
  2 25  1  0  0  0
  2 86  1  0  0  0
  2 87  1  0  0  0
  3  4  1  0  0  0
  3 88  1  0  0  0
  3 89  1  0  0  0
  4  5  1  0  0  0
  4 90  1  0  0  0
  4 91  1  0  0  0
  5  6  1  0  0  0
  5 26  1  0  0  0
  5 92  1  0  0  0
  6 25  1  0  0  0
  6 93  1  0  0  0
  6 94  1  0  0  0
  7  8  2  0  0  0
  7 26  1  0  0  0
  7 29  1  0  0  0
  8  9  1  0  0  0
  8 22  1  0  0  0
  9 10  1  0  0  0
  9 27  2  0  0  0
 10 11  2  0  0  0
 10 15  1  0  0  0
 11 12  1  0  0  0
 11 95  1  0  0  0
 12 13  2  0  0  0
 12 96  1  0  0  0
 13 14  1  0  0  0
 13 31  1  0  0  0
 14 15  2  0  0  0
 14 97  1  0  0  0
 15 98  1  0  0  0
 16 17  2  0  0  0
 16 21  1  0  0  0
 16 31  1  0  0  0
 17 18  1  0  0  0
 17 99  1  0  0  0
 18 19  2  0  0  0
 18100  1  0  0  0
 19 20  1  0  0  0
 19 24  1  0  0  0
 20 21  2  0  0  0
 20101  1  0  0  0
 21 23  1  0  0  0
 22 28  1  0  0  0
 22 32  2  0  0  0
 26 27  1  0  0  0
 28102  1  0  0  0
 28103  1  0  0  0
 29104  1  0  0  0
 29105  1  0  0  0
 33 34  1  0  0  0
 33 66  1  0  0  0
 33 70  2  0  0  0
 34 36  1  0  0  0
 34 59  1  0  0  0
 34106  1  0  0  0
 35 44  2  0  0  0
 35 45  1  0  0  0
 35 68  1  0  0  0
 36 56  1  0  0  0
 36107  1  0  0  0
 37 39  1  0  0  0
 37 47  1  0  0  0
 37 66  1  0  0  0
 37108  1  0  0  0
 38 43  2  0  0  0
 38 46  1  0  0  0
 38 47  1  0  0  0
 39 64  1  0  0  0
 39 67  2  0  0  0
 40 52  1  0  0  0
 40 53  2  0  0  0
 40 58  1  0  0  0
 41109  1  0  0  0
 41110  1  0  0  0
 41111  1  0  0  0
 41 48  1  0  0  0
 42 43  1  0  0  0
 42 66  1  0  0  0
 42112  1  0  0  0
 42113  1  0  0  0
 43 44  1  0  0  0
 44114  1  0  0  0
 45 46  2  0  0  0
 45115  1  0  0  0
 46116  1  0  0  0
 47117  1  0  0  0
 47118  1  0  0  0
 48 56  1  0  0  0
 48 65  1  0  0  0
 48119  1  0  0  0
 49 50  1  0  0  0
 49 53  1  0  0  0
 49 64  1  0  0  0
 49120  1  0  0  0
 50 51  1  0  0  0
 50121  1  0  0  0
 50122  1  0  0  0
 51 52  1  0  0  0
 51123  1  0  0  0
 51124  1  0  0  0
 52125  1  0  0  0
 52126  1  0  0  0
 53 54  1  0  0  0
 54 55  2  0  0  0
 54127  1  0  0  0
 55 57  1  0  0  0
 55128  1  0  0  0
 56 69  2  0  0  0
 57 58  2  0  0  0
 57129  1  0  0  0
 58130  1  0  0  0
 59 60  1  0  0  0
 59 61  1  0  0  0
 59 62  1  0  0  0
 60131  1  0  0  0
 60132  1  0  0  0
 60133  1  0  0  0
 61134  1  0  0  0
 61135  1  0  0  0
 61136  1  0  0  0
 62137  1  0  0  0
 62138  1  0  0  0
 62139  1  0  0  0
 63 65  1  0  0  0
 63140  1  0  0  0
 63141  1  0  0  0
 63142  1  0  0  0
 64143  1  0  0  0
 65144  1  0  0  0
 68 83  1  0  0  0
 71 73  2  0  0  0
 71 74  1  0  0  0
 71145  1  0  0  0
 72 73  1  0  0  0
 72 84  2  0  0  0
 72146  1  0  0  0
 73 77  1  0  0  0
 74 75  2  0  0  0
 74 76  1  0  0  0
 75 78  1  0  0  0
 75 84  1  0  0  0
 76147  1  0  0  0
 76148  1  0  0  0
 76149  1  0  0  0
 77 83  1  0  0  0
 77150  1  0  0  0
 77151  1  0  0  0
 78 79  1  0  0  0
 78152  1  0  0  0
 78153  1  0  0  0
 79 80  1  0  0  0
 79154  1  0  0  0
 79155  1  0  0  0
 80 81  1  0  0  0
 80156  1  0  0  0
 80157  1  0  0  0
 81 82  1  0  0  0
 81158  1  0  0  0
 81159  1  0  0  0
 82 85  1  0  0  0
 82160  1  0  0  0
 82161  1  0  0  0
 83162  1  0  0  0
 83163  1  0  0  0
 85164  1  0  0  0
M  ISO  4   1 100  68 101  83 101  85 100
M  END
> <chiral flag>
0

> <version>
0

> <s_m_source_file>
/data/baiqing/PycharmProjects/Reinvent-master-3.2/result/LINK_invent/BTK/process_docking_weight1_custom_sum_contain_oxygen_bond_distance_aromatic_linkinvent_7_9_3/rearranged_h_0039.sdf

> <i_m_source_file_index>
69

> <r_mmod_Potential_Energy-OPLS-2005>
-256.786407470703

> <r_mmod_Stretch_Energy-OPLS-2005>
32.470645904541

> <r_mmod_Bend_Energy-OPLS-2005>
96.6667633056641

> <r_mmod_Torsional_Energy-OPLS-2005>
199.458694458008

> <r_mmod_Improper_Torsional_Energy-OPLS-2005>
3.20141386985779

> <r_mmod_Van_der_Waal_Energy-OPLS-2005>
157.013641357422

> <r_mmod_Electrostatic_Energy-OPLS-2005>
-528.826782226562

> <r_mmod_Solvation_Energy-OPLS-2005>
-224.867645263672

> <b_mmod_Minimization_Converged-OPLS-2005>
0

> <r_mmod_RMS_Derivative-OPLS-2005>
2.68365025520325

$$$$
70
                    3D
 Structure written by MMmdl.
154162  0  0  1  0            999 V2000
  -30.5738  -14.8071   20.4723 C   0  0  0  0  0  0
  -30.4445  -12.5056   19.4603 C   0  0  0  0  0  0
  -29.5124  -12.5126   18.2284 C   0  0  0  0  0  0
  -28.0412  -12.3203   18.6493 C   0  0  0  0  0  0
  -27.6368  -13.2293   19.8398 C   0  0  2  0  0  0
  -28.6838  -13.1822   20.9704 C   0  0  0  0  0  0
  -25.2504  -13.8181   20.5683 C   0  0  0  0  0  0
  -24.1798  -13.0433   20.9220 C   0  0  0  0  0  0
  -24.6391  -11.6909   20.8747 C   0  0  0  0  0  0
  -23.9066  -10.4291   21.0411 C   0  0  0  0  0  0
  -24.3621   -9.4206   21.9186 C   0  0  0  0  0  0
  -23.6297   -8.2238   22.0752 C   0  0  0  0  0  0
  -22.4278   -8.0280   21.3545 C   0  0  0  0  0  0
  -21.9914   -9.0250   20.4643 C   0  0  0  0  0  0
  -22.7243  -10.2131   20.3056 C   0  0  0  0  0  0
  -21.6852   -6.0735   22.5284 C   0  0  0  0  0  0
  -21.4010   -6.5642   23.8217 C   0  0  0  0  0  0
  -21.3658   -5.6795   24.9181 C   0  0  0  0  0  0
  -21.6044   -4.3055   24.7231 C   0  0  0  0  0  0
  -21.8818   -3.8150   23.4350 C   0  0  0  0  0  0
  -21.9193   -4.6964   22.3409 C   0  0  0  0  0  0
  -22.7825  -13.5214   21.1880 C   0  0  0  0  0  0
  -22.1663   -4.2153   21.0982 F   0  0  0  0  0  0
  -21.5629   -3.4538   25.7738 F   0  0  0  0  0  0
  -29.9703  -13.5683   20.3770 N   0  0  0  0  0  0
  -26.2915  -12.9378   20.3231 N   0  0  0  0  0  0
  -25.9316  -11.6527   20.5728 N   0  0  0  0  0  0
  -22.0463  -12.8201   22.0426 N   0  0  0  0  0  0
  -25.4174  -15.1907   20.4081 N   0  0  0  0  0  0
  -31.7830  -14.9121   20.2478 O   0  0  0  0  0  0
  -21.6639   -6.8880   21.4245 O   0  0  0  0  0  0
  -22.3512  -14.5527   20.6732 O   0  0  0  0  0  0
  -24.6350  -31.8525   23.1935 C   0  0  0  0  0  0
  -25.9157  -32.4739   23.8302 C   0  0  1  0  0  0
  -27.2204  -27.2183   20.1582 C   0  0  0  0  0  0
  -25.5948  -33.8542   24.2233 N   0  0  0  0  0  0
  -23.4338  -30.4724   21.5374 C   0  0  2  0  0  0
  -24.8820  -28.8985   20.1264 C   0  0  0  0  0  0
  -22.7516  -29.4597   22.4902 C   0  0  0  0  0  0
  -18.0295  -28.1396   22.8490 C   0  0  0  0  0  0
  -24.1488  -36.7263   23.2637 C   0  0  0  0  0  0
  -25.9818  -30.7515   21.3779 C   0  0  0  0  0  0
  -26.0552  -29.3621   20.7381 C   0  0  0  0  0  0
  -27.2306  -28.5362   20.7410 C   0  0  0  0  0  0
  -26.0256  -26.8247   19.5260 C   0  0  0  0  0  0
  -24.8725  -27.6368   19.5106 C   0  0  0  0  0  0
  -23.6571  -29.7954   20.1590 C   0  0  0  0  0  0
  -25.4112  -36.3051   24.0328 C   0  0  1  0  0  0
  -20.5904  -28.3698   23.1266 C   0  0  2  0  0  0
  -20.6791  -26.9416   22.5403 C   0  0  0  0  0  0
  -19.5757  -26.6393   21.5213 C   0  0  0  0  0  0
  -18.1936  -26.7946   22.1625 C   0  0  0  0  0  0
  -19.1552  -28.8865   23.2877 C   0  0  0  0  0  0
  -18.9473  -30.1473   23.8883 C   0  0  0  0  0  0
  -17.6470  -30.6595   24.0561 C   0  0  0  0  0  0
  -25.9066  -34.9430   23.5081 C   0  0  0  0  0  0
  -16.5362  -29.9088   23.6339 C   0  0  0  0  0  0
  -16.7282  -28.6511   23.0354 C   0  0  0  0  0  0
  -26.4516  -31.6567   25.0693 C   0  0  0  0  0  0
  -25.3733  -31.3736   26.1408 C   0  0  0  0  0  0
  -27.0364  -30.2985   24.6185 C   0  0  0  0  0  0
  -27.6072  -32.4304   25.7471 C   0  0  0  0  0  0
  -27.5577  -37.1781   24.8464 C   0  0  0  0  0  0
  -21.4219  -29.3048   22.3652 N   0  0  0  0  0  0
  -26.4275  -37.3760   23.9423 N   0  0  0  0  0  0
  -24.7029  -31.0463   22.0918 N   0  0  0  0  0  0
  -23.4199  -28.8147   23.3021 O   0  0  0  0  0  0
  -28.3175  -26.3298   20.0373 O   0  0  0  0  0  0
  -26.5623  -34.8915   22.4640 O   0  0  0  0  0  0
  -23.5495  -32.1356   23.7216 O   0  0  0  0  0  0
  -27.5907  -21.6158   21.5390 C   0  0  0  0  0  0
  -28.5637  -21.2834   20.6252 C   0  0  0  0  0  0
  -28.3621  -23.6259   20.8346 C   0  0  0  0  0  0
  -30.1005  -22.8327   19.2526 C   0  0  0  0  0  0
  -28.8403  -19.7975   20.0813 C   0  0  0  0  0  0
  -28.6051  -25.2102   21.0036 C   0  0  0  0  0  0
  -30.0749  -18.7969   20.4585 C   0  0  0  0  0  0
  -29.9938  -17.3385   21.2233 C   0  0  0  0  0  0
  -29.0308  -22.5747   20.2174 N   0  0  0  0  0  0
  -27.4883  -22.9873   21.6247 N   0  3  0  0  0  0
  -29.7588  -15.9334   20.6248 N   0  0  0  0  0  0
  -31.4775  -12.6686   19.1486 H   0  0  0  0  0  0
  -30.4275  -11.5343   19.9573 H   0  0  0  0  0  0
  -29.8070  -11.7304   17.5276 H   0  0  0  0  0  0
  -29.6194  -13.4579   17.6940 H   0  0  0  0  0  0
  -27.9147  -11.2736   18.9278 H   0  0  0  0  0  0
  -27.3785  -12.4903   17.7999 H   0  0  0  0  0  0
  -27.6223  -14.2458   19.4464 H   0  0  0  0  0  0
  -28.7430  -12.1841   21.4070 H   0  0  0  0  0  0
  -28.4076  -13.8559   21.7833 H   0  0  0  0  0  0
  -25.2768   -9.5679   22.4758 H   0  0  0  0  0  0
  -24.0010   -7.4624   22.7469 H   0  0  0  0  0  0
  -21.0850   -8.8771   19.8943 H   0  0  0  0  0  0
  -22.3711  -10.9667   19.6162 H   0  0  0  0  0  0
  -21.1999   -7.6149   23.9724 H   0  0  0  0  0  0
  -21.1478   -6.0521   25.9082 H   0  0  0  0  0  0
  -22.0597   -2.7612   23.2850 H   0  0  0  0  0  0
  -22.4082  -11.9865   22.4814 H   0  0  0  0  0  0
  -21.1074  -13.1210   22.2613 H   0  0  0  0  0  0
  -24.6434  -15.8381   20.5128 H   0  0  0  0  0  0
  -26.2525  -15.6318   20.0449 H   0  0  0  0  0  0
  -26.7217  -32.5384   23.1041 H   0  0  0  0  0  0
  -25.0142  -33.9670   25.0415 H   0  0  0  0  0  0
  -22.7321  -31.2951   21.3849 H   0  0  0  0  0  0
  -23.3760  -35.9583   23.3281 H   0  0  0  0  0  0
  -24.3593  -36.8890   22.2055 H   0  0  0  0  0  0
  -23.7230  -37.6455   23.6668 H   0  0  0  0  0  0
  -26.1188  -31.5001   20.5962 H   0  0  0  0  0  0
  -26.8612  -30.8137   22.0073 H   0  0  0  0  0  0
  -28.1389  -28.9012   21.1999 H   0  0  0  0  0  0
  -25.9837  -25.8607   19.0389 H   0  0  0  0  0  0
  -23.9763  -27.2754   19.0249 H   0  0  0  0  0  0
  -23.7889  -30.5657   19.3985 H   0  0  0  0  0  0
  -22.7736  -29.2325   19.8521 H   0  0  0  0  0  0
  -25.1300  -36.1874   25.0821 H   0  0  0  0  0  0
  -21.0008  -28.3273   24.1380 H   0  0  0  0  0  0
  -20.5696  -26.2308   23.3608 H   0  0  0  0  0  0
  -21.6658  -26.7450   22.1189 H   0  0  0  0  0  0
  -19.6909  -25.6303   21.1233 H   0  0  0  0  0  0
  -19.6685  -27.3213   20.6745 H   0  0  0  0  0  0
  -17.4213  -26.6694   21.4021 H   0  0  0  0  0  0
  -18.0330  -26.0090   22.9023 H   0  0  0  0  0  0
  -19.7945  -30.7307   24.2228 H   0  0  0  0  0  0
  -17.5017  -31.6265   24.5175 H   0  0  0  0  0  0
  -15.5359  -30.2981   23.7675 H   0  0  0  0  0  0
  -15.8686  -28.0827   22.7061 H   0  0  0  0  0  0
  -24.5912  -30.7077   25.7746 H   0  0  0  0  0  0
  -24.8927  -32.2921   26.4793 H   0  0  0  0  0  0
  -25.8055  -30.8945   27.0205 H   0  0  0  0  0  0
  -26.2954  -29.6724   24.1210 H   0  0  0  0  0  0
  -27.4050  -29.7247   25.4697 H   0  0  0  0  0  0
  -27.8826  -30.4258   23.9432 H   0  0  0  0  0  0
  -27.2691  -33.3632   26.1995 H   0  0  0  0  0  0
  -28.3922  -32.6804   25.0320 H   0  0  0  0  0  0
  -28.0690  -31.8443   26.5426 H   0  0  0  0  0  0
  -28.2574  -38.0101   24.7561 H   0  0  0  0  0  0
  -28.1095  -36.2640   24.6232 H   0  0  0  0  0  0
  -27.2311  -37.1355   25.8868 H   0  0  0  0  0  0
  -20.9403  -29.8757   21.6845 H   0  0  0  0  0  0
  -26.0142  -38.2819   24.1457 H   0  0  0  0  0  0
  -26.9365  -20.9709   22.1102 H   0  0  0  0  0  0
  -30.4966  -21.8892   18.8776 H   0  0  0  0  0  0
  -30.9002  -23.3905   19.7400 H   0  0  0  0  0  0
  -29.7028  -23.4130   18.4193 H   0  0  0  0  0  0
  -28.8413  -19.8829   18.9942 H   0  0  0  0  0  0
  -27.9317  -19.2304   20.2855 H   0  0  0  0  0  0
  -29.6708  -25.2804   21.2168 H   0  0  0  0  0  0
  -28.1199  -25.4708   21.9449 H   0  0  0  0  0  0
  -30.7416  -19.4082   21.0686 H   0  0  0  0  0  0
  -30.6528  -18.6387   19.5468 H   0  0  0  0  0  0
  -29.2585  -17.4459   22.0219 H   0  0  0  0  0  0
  -30.9403  -17.2403   21.7581 H   0  0  0  0  0  0
  -26.8526  -23.4611   22.2546 H   0  0  0  0  0  0
  -28.7821  -15.6833   20.5979 H   0  0  0  0  0  0
  1 25  1  0  0  0
  1 30  2  0  0  0
  1 81  1  0  0  0
  2  3  1  0  0  0
  2 25  1  0  0  0
  2 82  1  0  0  0
  2 83  1  0  0  0
  3  4  1  0  0  0
  3 84  1  0  0  0
  3 85  1  0  0  0
  4  5  1  0  0  0
  4 86  1  0  0  0
  4 87  1  0  0  0
  5  6  1  0  0  0
  5 26  1  0  0  0
  5 88  1  0  0  0
  6 25  1  0  0  0
  6 89  1  0  0  0
  6 90  1  0  0  0
  7  8  2  0  0  0
  7 26  1  0  0  0
  7 29  1  0  0  0
  8  9  1  0  0  0
  8 22  1  0  0  0
  9 10  1  0  0  0
  9 27  2  0  0  0
 10 11  2  0  0  0
 10 15  1  0  0  0
 11 12  1  0  0  0
 11 91  1  0  0  0
 12 13  2  0  0  0
 12 92  1  0  0  0
 13 14  1  0  0  0
 13 31  1  0  0  0
 14 15  2  0  0  0
 14 93  1  0  0  0
 15 94  1  0  0  0
 16 17  2  0  0  0
 16 21  1  0  0  0
 16 31  1  0  0  0
 17 18  1  0  0  0
 17 95  1  0  0  0
 18 19  2  0  0  0
 18 96  1  0  0  0
 19 20  1  0  0  0
 19 24  1  0  0  0
 20 21  2  0  0  0
 20 97  1  0  0  0
 21 23  1  0  0  0
 22 28  1  0  0  0
 22 32  2  0  0  0
 26 27  1  0  0  0
 28 98  1  0  0  0
 28 99  1  0  0  0
 29100  1  0  0  0
 29101  1  0  0  0
 33 34  1  0  0  0
 33 66  1  0  0  0
 33 70  2  0  0  0
 34 36  1  0  0  0
 34 59  1  0  0  0
 34102  1  0  0  0
 35 44  2  0  0  0
 35 45  1  0  0  0
 35 68  1  0  0  0
 36 56  1  0  0  0
 36103  1  0  0  0
 37 39  1  0  0  0
 37 47  1  0  0  0
 37 66  1  0  0  0
 37104  1  0  0  0
 38 43  2  0  0  0
 38 46  1  0  0  0
 38 47  1  0  0  0
 39 64  1  0  0  0
 39 67  2  0  0  0
 40 52  1  0  0  0
 40 53  2  0  0  0
 40 58  1  0  0  0
 41105  1  0  0  0
 41106  1  0  0  0
 41107  1  0  0  0
 41 48  1  0  0  0
 42 43  1  0  0  0
 42 66  1  0  0  0
 42108  1  0  0  0
 42109  1  0  0  0
 43 44  1  0  0  0
 44110  1  0  0  0
 45 46  2  0  0  0
 45111  1  0  0  0
 46112  1  0  0  0
 47113  1  0  0  0
 47114  1  0  0  0
 48 56  1  0  0  0
 48 65  1  0  0  0
 48115  1  0  0  0
 49 50  1  0  0  0
 49 53  1  0  0  0
 49 64  1  0  0  0
 49116  1  0  0  0
 50 51  1  0  0  0
 50117  1  0  0  0
 50118  1  0  0  0
 51 52  1  0  0  0
 51119  1  0  0  0
 51120  1  0  0  0
 52121  1  0  0  0
 52122  1  0  0  0
 53 54  1  0  0  0
 54 55  2  0  0  0
 54123  1  0  0  0
 55 57  1  0  0  0
 55124  1  0  0  0
 56 69  2  0  0  0
 57 58  2  0  0  0
 57125  1  0  0  0
 58126  1  0  0  0
 59 60  1  0  0  0
 59 61  1  0  0  0
 59 62  1  0  0  0
 60127  1  0  0  0
 60128  1  0  0  0
 60129  1  0  0  0
 61130  1  0  0  0
 61131  1  0  0  0
 61132  1  0  0  0
 62133  1  0  0  0
 62134  1  0  0  0
 62135  1  0  0  0
 63 65  1  0  0  0
 63136  1  0  0  0
 63137  1  0  0  0
 63138  1  0  0  0
 64139  1  0  0  0
 65140  1  0  0  0
 68 76  1  0  0  0
 71 72  2  0  0  0
 71 80  1  0  0  0
 71141  1  0  0  0
 72 75  1  0  0  0
 72 79  1  0  0  0
 73 76  1  0  0  0
 73 79  1  0  0  0
 73 80  2  0  0  0
 74 79  1  0  0  0
 74142  1  0  0  0
 74143  1  0  0  0
 74144  1  0  0  0
 75 77  1  0  0  0
 75145  1  0  0  0
 75146  1  0  0  0
 76147  1  0  0  0
 76148  1  0  0  0
 77 78  1  0  0  0
 77149  1  0  0  0
 77150  1  0  0  0
 78 81  1  0  0  0
 78151  1  0  0  0
 78152  1  0  0  0
 80153  1  0  0  0
 81154  1  0  0  0
M  CHG  1  80   1
M  ISO  4   1 100  68 101  76 101  81 100
M  END
> <chiral flag>
0

> <version>
0

> <s_m_source_file>
/data/baiqing/PycharmProjects/Reinvent-master-3.2/result/LINK_invent/BTK/process_docking_weight1_custom_sum_contain_oxygen_bond_distance_aromatic_linkinvent_7_9_3/rearranged_h_0039.sdf

> <i_m_source_file_index>
70

> <r_mmod_Potential_Energy-OPLS-2005>
264.552673339844

> <r_mmod_Stretch_Energy-OPLS-2005>
157.549728393555

> <r_mmod_Bend_Energy-OPLS-2005>
275.251312255859

> <r_mmod_Torsional_Energy-OPLS-2005>
273.840881347656

> <r_mmod_Improper_Torsional_Energy-OPLS-2005>
7.86288166046143

> <r_mmod_Van_der_Waal_Energy-OPLS-2005>
105.090240478516

> <r_mmod_Electrostatic_Energy-OPLS-2005>
-234.631805419922

> <r_mmod_Solvation_Energy-OPLS-2005>
-431.847229003906

> <b_mmod_Minimization_Converged-OPLS-2005>
0

> <r_mmod_RMS_Derivative-OPLS-2005>
1.29043292999268

$$$$
71
                    3D
 Structure written by MMmdl.
163172  0  0  1  0            999 V2000
  -30.7129  -14.4631   20.6369 C   0  0  0  0  0  0
  -30.4264  -12.3300   19.4085 C   0  0  0  0  0  0
  -29.4902  -12.5205   18.1985 C   0  0  0  0  0  0
  -28.0120  -12.3773   18.6130 C   0  0  0  0  0  0
  -27.6610  -13.2083   19.8753 C   0  0  2  0  0  0
  -28.7019  -12.9748   20.9909 C   0  0  0  0  0  0
  -25.2581  -13.8164   20.5678 C   0  0  0  0  0  0
  -24.1839  -13.0443   20.9182 C   0  0  0  0  0  0
  -24.6396  -11.6907   20.8742 C   0  0  0  0  0  0
  -23.9065  -10.4296   21.0411 C   0  0  0  0  0  0
  -24.3618   -9.4215   21.9189 C   0  0  0  0  0  0
  -23.6292   -8.2246   22.0756 C   0  0  0  0  0  0
  -22.4273   -8.0286   21.3547 C   0  0  0  0  0  0
  -21.9915   -9.0262   20.4649 C   0  0  0  0  0  0
  -22.7237  -10.2141   20.3056 C   0  0  0  0  0  0
  -21.6852   -6.0742   22.5282 C   0  0  0  0  0  0
  -21.4008   -6.5642   23.8215 C   0  0  0  0  0  0
  -21.3652   -5.6796   24.9178 C   0  0  0  0  0  0
  -21.6040   -4.3057   24.7233 C   0  0  0  0  0  0
  -21.8821   -3.8152   23.4351 C   0  0  0  0  0  0
  -21.9193   -4.6970   22.3404 C   0  0  0  0  0  0
  -22.7857  -13.5234   21.1852 C   0  0  0  0  0  0
  -22.1663   -4.2154   21.0982 F   0  0  0  0  0  0
  -21.5630   -3.4540   25.7748 F   0  0  0  0  0  0
  -30.0301  -13.3004   20.4415 N   0  0  0  0  0  0
  -26.3018  -12.9339   20.3364 N   0  0  0  0  0  0
  -25.9317  -11.6494   20.5754 N   0  0  0  0  0  0
  -22.0505  -12.8234   22.0411 N   0  0  0  0  0  0
  -25.4297  -15.1888   20.4080 N   0  0  0  0  0  0
  -31.8173  -14.6806   20.1305 O   0  0  0  0  0  0
  -21.6633   -6.8887   21.4243 O   0  0  0  0  0  0
  -22.3543  -14.5544   20.6697 O   0  0  0  0  0  0
  -24.6155  -31.8675   23.2094 C   0  0  0  0  0  0
  -25.9049  -32.4814   23.8409 C   0  0  1  0  0  0
  -27.2348  -27.4202   20.1085 C   0  0  0  0  0  0
  -25.5910  -33.8611   24.2333 N   0  0  0  0  0  0
  -23.4057  -30.4879   21.5501 C   0  0  2  0  0  0
  -24.8545  -28.9448   20.1242 C   0  0  0  0  0  0
  -22.7420  -29.4659   22.5003 C   0  0  0  0  0  0
  -18.0278  -28.1381   22.8493 C   0  0  0  0  0  0
  -24.1471  -36.7305   23.2647 C   0  0  0  0  0  0
  -25.9353  -30.8244   21.3686 C   0  0  0  0  0  0
  -26.0146  -29.4542   20.7236 C   0  0  0  0  0  0
  -27.2098  -28.6970   20.7182 C   0  0  0  0  0  0
  -26.0622  -26.9235   19.5075 C   0  0  0  0  0  0
  -24.8709  -27.6754   19.5184 C   0  0  0  0  0  0
  -23.6180  -29.8159   20.1674 C   0  0  0  0  0  0
  -25.4096  -36.3099   24.0344 C   0  0  1  0  0  0
  -20.5866  -28.3672   23.1313 C   0  0  2  0  0  0
  -20.6766  -26.9405   22.5425 C   0  0  0  0  0  0
  -19.5747  -26.6385   21.5215 C   0  0  0  0  0  0
  -18.1925  -26.7932   22.1620 C   0  0  0  0  0  0
  -19.1524  -28.8843   23.2896 C   0  0  0  0  0  0
  -18.9460  -30.1449   23.8908 C   0  0  0  0  0  0
  -17.6467  -30.6592   24.0562 C   0  0  0  0  0  0
  -25.9033  -34.9465   23.5130 C   0  0  0  0  0  0
  -16.5356  -29.9095   23.6331 C   0  0  0  0  0  0
  -16.7269  -28.6505   23.0362 C   0  0  0  0  0  0
  -26.4472  -31.6610   25.0747 C   0  0  0  0  0  0
  -25.3742  -31.3722   26.1505 C   0  0  0  0  0  0
  -27.0331  -30.3056   24.6148 C   0  0  0  0  0  0
  -27.6043  -32.4345   25.7515 C   0  0  0  0  0  0
  -27.5565  -37.1800   24.8471 C   0  0  0  0  0  0
  -21.4152  -29.3026   22.3718 N   0  0  0  0  0  0
  -26.4280  -37.3782   23.9413 N   0  0  0  0  0  0
  -24.6699  -31.0760   22.1002 N   0  0  0  0  0  0
  -23.4178  -28.8206   23.3058 O   0  0  0  0  0  0
  -28.3836  -26.6666   20.0272 O   0  0  0  0  0  0
  -26.5593  -34.8920   22.4689 O   0  0  0  0  0  0
  -23.5346  -32.1438   23.7475 O   0  0  0  0  0  0
  -29.8373  -19.0997   21.7634 C   0  0  0  0  0  0
  -30.1339  -20.0798   20.8451 C   0  0  0  0  0  0
  -30.4305  -17.8993   21.2628 C   0  0  0  0  0  0
  -29.1949  -22.0932   22.1689 C   0  0  0  0  0  0
  -29.2861  -22.2735   19.6922 C   0  0  0  0  0  0
  -29.1848  -23.6395   22.2859 C   0  0  0  0  0  0
  -29.3425  -23.8196   19.7821 C   0  0  0  0  0  0
  -29.9549  -21.5985   20.9151 C   0  0  2  0  0  0
  -28.6272  -24.3686   21.0352 C   0  0  2  0  0  0
  -31.3896  -19.9440   18.6008 C   0  0  0  0  0  0
  -30.6735  -16.5860   21.9915 C   0  0  0  0  0  0
  -28.7471  -25.9177   21.1953 C   0  0  0  0  0  0
  -30.9435  -18.0931   20.0614 N   0  0  0  0  0  0
  -30.7955  -19.4170   19.8156 N   0  0  0  0  0  0
  -30.0882  -15.3749   21.4018 N   0  0  0  0  0  0
  -31.4662  -12.4503   19.0998 H   0  0  0  0  0  0
  -30.3493  -11.3146   19.7993 H   0  0  0  0  0  0
  -29.7301  -11.7974   17.4179 H   0  0  0  0  0  0
  -29.6530  -13.5066   17.7602 H   0  0  0  0  0  0
  -27.8191  -11.3206   18.7990 H   0  0  0  0  0  0
  -27.3617  -12.6621   17.7848 H   0  0  0  0  0  0
  -27.7090  -14.2594   19.5893 H   0  0  0  0  0  0
  -28.6868  -11.9314   21.3094 H   0  0  0  0  0  0
  -28.4491  -13.5494   21.8826 H   0  0  0  0  0  0
  -25.2762   -9.5689   22.4769 H   0  0  0  0  0  0
  -24.0002   -7.4640   22.7475 H   0  0  0  0  0  0
  -21.0848   -8.8782   19.8957 H   0  0  0  0  0  0
  -22.3697  -10.9684   19.6170 H   0  0  0  0  0  0
  -21.1992   -7.6152   23.9722 H   0  0  0  0  0  0
  -21.1469   -6.0524   25.9082 H   0  0  0  0  0  0
  -22.0605   -2.7614   23.2850 H   0  0  0  0  0  0
  -22.4108  -11.9886   22.4799 H   0  0  0  0  0  0
  -21.1123  -13.1267   22.2622 H   0  0  0  0  0  0
  -24.6648  -15.8460   20.5156 H   0  0  0  0  0  0
  -26.2859  -15.6276   20.0912 H   0  0  0  0  0  0
  -26.7127  -32.5521   23.1190 H   0  0  0  0  0  0
  -25.0050  -33.9767   25.0469 H   0  0  0  0  0  0
  -22.6939  -31.3031   21.4074 H   0  0  0  0  0  0
  -23.3729  -35.9640   23.3318 H   0  0  0  0  0  0
  -24.3553  -36.8918   22.2056 H   0  0  0  0  0  0
  -23.7226  -37.6511   23.6667 H   0  0  0  0  0  0
  -26.0503  -31.5846   20.5944 H   0  0  0  0  0  0
  -26.8213  -30.8819   21.9893 H   0  0  0  0  0  0
  -28.1107  -29.0877   21.1698 H   0  0  0  0  0  0
  -26.0730  -25.9519   19.0332 H   0  0  0  0  0  0
  -23.9769  -27.2734   19.0617 H   0  0  0  0  0  0
  -23.7309  -30.5870   19.4045 H   0  0  0  0  0  0
  -22.7411  -29.2365   19.8727 H   0  0  0  0  0  0
  -25.1266  -36.1971   25.0837 H   0  0  0  0  0  0
  -20.9949  -28.3255   24.1433 H   0  0  0  0  0  0
  -20.5678  -26.2282   23.3614 H   0  0  0  0  0  0
  -21.6638  -26.7455   22.1214 H   0  0  0  0  0  0
  -19.6902  -25.6289   21.1259 H   0  0  0  0  0  0
  -19.6695  -27.3178   20.6730 H   0  0  0  0  0  0
  -17.4200  -26.6691   21.4013 H   0  0  0  0  0  0
  -18.0299  -26.0070   22.9002 H   0  0  0  0  0  0
  -19.7943  -30.7246   24.2292 H   0  0  0  0  0  0
  -17.5040  -31.6272   24.5167 H   0  0  0  0  0  0
  -15.5363  -30.3010   23.7660 H   0  0  0  0  0  0
  -15.8663  -28.0834   22.7091 H   0  0  0  0  0  0
  -24.5895  -30.7092   25.7848 H   0  0  0  0  0  0
  -24.8955  -32.2874   26.4990 H   0  0  0  0  0  0
  -25.8095  -30.8865   27.0249 H   0  0  0  0  0  0
  -26.2888  -29.6789   24.1217 H   0  0  0  0  0  0
  -27.4115  -29.7323   25.4628 H   0  0  0  0  0  0
  -27.8715  -30.4379   23.9305 H   0  0  0  0  0  0
  -27.2666  -33.3651   26.2093 H   0  0  0  0  0  0
  -28.3855  -32.6900   25.0342 H   0  0  0  0  0  0
  -28.0715  -31.8477   26.5434 H   0  0  0  0  0  0
  -28.2605  -38.0076   24.7504 H   0  0  0  0  0  0
  -28.1042  -36.2608   24.6324 H   0  0  0  0  0  0
  -27.2285  -37.1501   25.8877 H   0  0  0  0  0  0
  -20.9337  -29.8740   21.6920 H   0  0  0  0  0  0
  -26.0175  -38.2860   24.1421 H   0  0  0  0  0  0
  -29.3631  -19.2417   22.7237 H   0  0  0  0  0  0
  -28.1701  -21.7189   22.1518 H   0  0  0  0  0  0
  -29.6575  -21.6817   23.0676 H   0  0  0  0  0  0
  -29.7772  -21.9830   18.7685 H   0  0  0  0  0  0
  -28.2524  -21.9398   19.6024 H   0  0  0  0  0  0
  -30.2057  -23.9769   22.4725 H   0  0  0  0  0  0
  -28.6092  -23.9339   23.1648 H   0  0  0  0  0  0
  -28.8921  -24.2488   18.8865 H   0  0  0  0  0  0
  -30.3842  -24.1446   19.7800 H   0  0  0  0  0  0
  -30.9654  -22.0057   20.9875 H   0  0  0  0  0  0
  -27.5686  -24.1243   20.9411 H   0  0  0  0  0  0
  -30.6140  -20.1254   17.8572 H   0  0  0  0  0  0
  -32.1062  -19.2355   18.1831 H   0  0  0  0  0  0
  -31.9156  -20.8753   18.8147 H   0  0  0  0  0  0
  -30.2868  -16.6668   23.0074 H   0  0  0  0  0  0
  -31.7488  -16.4404   22.1171 H   0  0  0  0  0  0
  -29.7813  -26.1748   21.4254 H   0  0  0  0  0  0
  -28.1624  -26.2380   22.0603 H   0  0  0  0  0  0
  -29.1692  -15.1250   21.7311 H   0  0  0  0  0  0
  1 25  1  0  0  0
  1 30  2  0  0  0
  1 85  1  0  0  0
  2  3  1  0  0  0
  2 25  1  0  0  0
  2 86  1  0  0  0
  2 87  1  0  0  0
  3  4  1  0  0  0
  3 88  1  0  0  0
  3 89  1  0  0  0
  4  5  1  0  0  0
  4 90  1  0  0  0
  4 91  1  0  0  0
  5  6  1  0  0  0
  5 26  1  0  0  0
  5 92  1  0  0  0
  6 25  1  0  0  0
  6 93  1  0  0  0
  6 94  1  0  0  0
  7  8  2  0  0  0
  7 26  1  0  0  0
  7 29  1  0  0  0
  8  9  1  0  0  0
  8 22  1  0  0  0
  9 10  1  0  0  0
  9 27  2  0  0  0
 10 11  2  0  0  0
 10 15  1  0  0  0
 11 12  1  0  0  0
 11 95  1  0  0  0
 12 13  2  0  0  0
 12 96  1  0  0  0
 13 14  1  0  0  0
 13 31  1  0  0  0
 14 15  2  0  0  0
 14 97  1  0  0  0
 15 98  1  0  0  0
 16 17  2  0  0  0
 16 21  1  0  0  0
 16 31  1  0  0  0
 17 18  1  0  0  0
 17 99  1  0  0  0
 18 19  2  0  0  0
 18100  1  0  0  0
 19 20  1  0  0  0
 19 24  1  0  0  0
 20 21  2  0  0  0
 20101  1  0  0  0
 21 23  1  0  0  0
 22 28  1  0  0  0
 22 32  2  0  0  0
 26 27  1  0  0  0
 28102  1  0  0  0
 28103  1  0  0  0
 29104  1  0  0  0
 29105  1  0  0  0
 33 34  1  0  0  0
 33 66  1  0  0  0
 33 70  2  0  0  0
 34 36  1  0  0  0
 34 59  1  0  0  0
 34106  1  0  0  0
 35 44  2  0  0  0
 35 45  1  0  0  0
 35 68  1  0  0  0
 36 56  1  0  0  0
 36107  1  0  0  0
 37 39  1  0  0  0
 37 47  1  0  0  0
 37 66  1  0  0  0
 37108  1  0  0  0
 38 43  2  0  0  0
 38 46  1  0  0  0
 38 47  1  0  0  0
 39 64  1  0  0  0
 39 67  2  0  0  0
 40 52  1  0  0  0
 40 53  2  0  0  0
 40 58  1  0  0  0
 41109  1  0  0  0
 41110  1  0  0  0
 41111  1  0  0  0
 41 48  1  0  0  0
 42 43  1  0  0  0
 42 66  1  0  0  0
 42112  1  0  0  0
 42113  1  0  0  0
 43 44  1  0  0  0
 44114  1  0  0  0
 45 46  2  0  0  0
 45115  1  0  0  0
 46116  1  0  0  0
 47117  1  0  0  0
 47118  1  0  0  0
 48 56  1  0  0  0
 48 65  1  0  0  0
 48119  1  0  0  0
 49 50  1  0  0  0
 49 53  1  0  0  0
 49 64  1  0  0  0
 49120  1  0  0  0
 50 51  1  0  0  0
 50121  1  0  0  0
 50122  1  0  0  0
 51 52  1  0  0  0
 51123  1  0  0  0
 51124  1  0  0  0
 52125  1  0  0  0
 52126  1  0  0  0
 53 54  1  0  0  0
 54 55  2  0  0  0
 54127  1  0  0  0
 55 57  1  0  0  0
 55128  1  0  0  0
 56 69  2  0  0  0
 57 58  2  0  0  0
 57129  1  0  0  0
 58130  1  0  0  0
 59 60  1  0  0  0
 59 61  1  0  0  0
 59 62  1  0  0  0
 60131  1  0  0  0
 60132  1  0  0  0
 60133  1  0  0  0
 61134  1  0  0  0
 61135  1  0  0  0
 61136  1  0  0  0
 62137  1  0  0  0
 62138  1  0  0  0
 62139  1  0  0  0
 63 65  1  0  0  0
 63140  1  0  0  0
 63141  1  0  0  0
 63142  1  0  0  0
 64143  1  0  0  0
 65144  1  0  0  0
 68 82  1  0  0  0
 71 72  2  0  0  0
 71 73  1  0  0  0
 71145  1  0  0  0
 72 84  1  0  0  0
 72 78  1  0  0  0
 73 81  1  0  0  0
 73 83  2  0  0  0
 74 76  1  0  0  0
 74 78  1  0  0  0
 74146  1  0  0  0
 74147  1  0  0  0
 75 77  1  0  0  0
 75 78  1  0  0  0
 75148  1  0  0  0
 75149  1  0  0  0
 76 79  1  0  0  0
 76150  1  0  0  0
 76151  1  0  0  0
 77 79  1  0  0  0
 77152  1  0  0  0
 77153  1  0  0  0
 78154  1  0  0  0
 79 82  1  0  0  0
 79155  1  0  0  0
 80 84  1  0  0  0
 80156  1  0  0  0
 80157  1  0  0  0
 80158  1  0  0  0
 81 85  1  0  0  0
 81159  1  0  0  0
 81160  1  0  0  0
 82161  1  0  0  0
 82162  1  0  0  0
 83 84  1  0  0  0
 85163  1  0  0  0
M  ISO  4   1 100  68 101  82 101  85 100
M  END
> <chiral flag>
0

> <version>
0

> <s_m_source_file>
/data/baiqing/PycharmProjects/Reinvent-master-3.2/result/LINK_invent/BTK/process_docking_weight1_custom_sum_contain_oxygen_bond_distance_aromatic_linkinvent_7_9_3/rearranged_h_0039.sdf

> <i_m_source_file_index>
71

> <r_mmod_Potential_Energy-OPLS-2005>
-153.090896606445

> <r_mmod_Stretch_Energy-OPLS-2005>
38.5989723205566

> <r_mmod_Bend_Energy-OPLS-2005>
103.916862487793

> <r_mmod_Torsional_Energy-OPLS-2005>
249.208389282227

> <r_mmod_Improper_Torsional_Energy-OPLS-2005>
3.49441266059875

> <r_mmod_Van_der_Waal_Energy-OPLS-2005>
125.523765563965

> <r_mmod_Electrostatic_Energy-OPLS-2005>
-458.959442138672

> <r_mmod_Solvation_Energy-OPLS-2005>
-226.874801635742

> <b_mmod_Minimization_Converged-OPLS-2005>
0

> <r_mmod_RMS_Derivative-OPLS-2005>
1.81479668617249

$$$$
72
                    3D
 Structure written by MMmdl.
159167  0  0  1  0            999 V2000
  -30.6909  -14.5955   20.4989 C   0  0  0  0  0  0
  -30.4184  -12.3681   19.4498 C   0  0  0  0  0  0
  -29.4940  -12.4913   18.2208 C   0  0  0  0  0  0
  -28.0213  -12.3325   18.6430 C   0  0  0  0  0  0
  -27.6490  -13.2223   19.8595 C   0  0  2  0  0  0
  -28.6966  -13.1084   20.9902 C   0  0  0  0  0  0
  -25.2542  -13.8190   20.5707 C   0  0  0  0  0  0
  -24.1818  -13.0446   20.9202 C   0  0  0  0  0  0
  -24.6398  -11.6920   20.8762 C   0  0  0  0  0  0
  -23.9074  -10.4298   21.0421 C   0  0  0  0  0  0
  -24.3621   -9.4204   21.9193 C   0  0  0  0  0  0
  -23.6295   -8.2243   22.0762 C   0  0  0  0  0  0
  -22.4278   -8.0285   21.3551 C   0  0  0  0  0  0
  -21.9919   -9.0258   20.4653 C   0  0  0  0  0  0
  -22.7252  -10.2135   20.3064 C   0  0  0  0  0  0
  -21.6845   -6.0739   22.5280 C   0  0  0  0  0  0
  -21.4014   -6.5640   23.8212 C   0  0  0  0  0  0
  -21.3659   -5.6792   24.9172 C   0  0  0  0  0  0
  -21.6045   -4.3059   24.7225 C   0  0  0  0  0  0
  -21.8817   -3.8151   23.4347 C   0  0  0  0  0  0
  -21.9189   -4.6969   22.3406 C   0  0  0  0  0  0
  -22.7835  -13.5229   21.1856 C   0  0  0  0  0  0
  -22.1657   -4.2156   21.0983 F   0  0  0  0  0  0
  -21.5626   -3.4544   25.7734 F   0  0  0  0  0  0
  -30.0113  -13.4124   20.4098 N   0  0  0  0  0  0
  -26.2979  -12.9393   20.3347 N   0  0  0  0  0  0
  -25.9332  -11.6538   20.5804 N   0  0  0  0  0  0
  -22.0486  -12.8217   22.0420 N   0  0  0  0  0  0
  -25.4243  -15.1917   20.4107 N   0  0  0  0  0  0
  -31.8662  -14.6847   20.1382 O   0  0  0  0  0  0
  -21.6638   -6.8884   21.4243 O   0  0  0  0  0  0
  -22.3516  -14.5535   20.6704 O   0  0  0  0  0  0
  -24.6247  -31.8636   23.2100 C   0  0  0  0  0  0
  -25.9101  -32.4802   23.8405 C   0  0  1  0  0  0
  -27.2138  -27.3395   20.0972 C   0  0  0  0  0  0
  -25.5923  -33.8610   24.2311 N   0  0  0  0  0  0
  -23.4162  -30.4940   21.5527 C   0  0  2  0  0  0
  -24.8610  -28.9700   20.1065 C   0  0  0  0  0  0
  -22.7473  -29.4639   22.4943 C   0  0  0  0  0  0
  -18.0282  -28.1382   22.8487 C   0  0  0  0  0  0
  -24.1483  -36.7315   23.2636 C   0  0  0  0  0  0
  -25.9602  -30.7990   21.3833 C   0  0  0  0  0  0
  -26.0318  -29.4318   20.7206 C   0  0  0  0  0  0
  -27.2092  -28.6261   20.7176 C   0  0  0  0  0  0
  -26.0201  -26.9567   19.4294 C   0  0  0  0  0  0
  -24.8574  -27.7362   19.4523 C   0  0  0  0  0  0
  -23.6289  -29.8445   20.1631 C   0  0  0  0  0  0
  -25.4106  -36.3100   24.0327 C   0  0  1  0  0  0
  -20.5887  -28.3679   23.1285 C   0  0  2  0  0  0
  -20.6781  -26.9405   22.5399 C   0  0  0  0  0  0
  -19.5748  -26.6373   21.5214 C   0  0  0  0  0  0
  -18.1925  -26.7921   22.1622 C   0  0  0  0  0  0
  -19.1538  -28.8847   23.2876 C   0  0  0  0  0  0
  -18.9463  -30.1454   23.8887 C   0  0  0  0  0  0
  -17.6468  -30.6587   24.0568 C   0  0  0  0  0  0
  -25.9042  -34.9464   23.5109 C   0  0  0  0  0  0
  -16.5352  -29.9080   23.6345 C   0  0  0  0  0  0
  -16.7275  -28.6503   23.0352 C   0  0  0  0  0  0
  -26.4481  -31.6619   25.0774 C   0  0  0  0  0  0
  -25.3717  -31.3755   26.1504 C   0  0  0  0  0  0
  -27.0318  -30.3043   24.6223 C   0  0  0  0  0  0
  -27.6032  -32.4365   25.7545 C   0  0  0  0  0  0
  -27.5575  -37.1808   24.8456 C   0  0  0  0  0  0
  -21.4189  -29.3040   22.3685 N   0  0  0  0  0  0
  -26.4284  -37.3792   23.9407 N   0  0  0  0  0  0
  -24.6859  -31.0667   22.1050 N   0  0  0  0  0  0
  -23.4211  -28.8158   23.2994 O   0  0  0  0  0  0
  -28.3083  -26.4576   20.1711 O   0  0  0  0  0  0
  -26.5598  -34.8922   22.4670 O   0  0  0  0  0  0
  -23.5411  -32.1423   23.7436 O   0  0  0  0  0  0
  -29.6272  -21.5851   19.3533 C   0  0  0  0  0  0
  -29.1573  -22.8975   19.0938 C   0  0  0  0  0  0
  -29.5737  -22.0617   21.7136 C   0  0  0  0  0  0
  -29.8281  -21.1263   20.6736 C   0  0  0  0  0  0
  -28.8598  -23.8227   20.1297 C   0  0  0  0  0  0
  -29.0927  -23.3857   21.4647 C   0  0  0  0  0  0
  -27.3558  -24.1337   23.1725 C   0  0  0  0  0  0
  -30.4584  -19.7284   20.9680 C   0  0  0  0  0  0
  -28.0151  -25.0763   19.7504 C   0  0  0  0  0  0
  -29.6850  -18.3815   20.6657 C   0  0  0  0  0  0
  -30.5894  -17.1014   20.8999 C   0  0  0  0  0  0
  -28.7868  -24.3012   22.6464 C   0  0  1  0  0  0
  -29.9919  -15.7260   20.8137 N   0  0  0  0  0  0
  -29.6330  -24.0608   23.6502 F   0  0  0  0  0  0
  -31.4631  -12.4574   19.1458 H   0  0  0  0  0  0
  -30.3264  -11.3810   19.9056 H   0  0  0  0  0  0
  -29.7510  -11.7354   17.4775 H   0  0  0  0  0  0
  -29.6379  -13.4598   17.7395 H   0  0  0  0  0  0
  -27.8653  -11.2825   18.8937 H   0  0  0  0  0  0
  -27.3588  -12.5449   17.8026 H   0  0  0  0  0  0
  -27.6615  -14.2518   19.5011 H   0  0  0  0  0  0
  -28.6997  -12.1044   21.4171 H   0  0  0  0  0  0
  -28.4575  -13.7852   21.8124 H   0  0  0  0  0  0
  -25.2759   -9.5673   22.4773 H   0  0  0  0  0  0
  -23.9996   -7.4634   22.7480 H   0  0  0  0  0  0
  -21.0850   -8.8786   19.8957 H   0  0  0  0  0  0
  -22.3717  -10.9680   19.6178 H   0  0  0  0  0  0
  -21.2012   -7.6143   23.9719 H   0  0  0  0  0  0
  -21.1480   -6.0521   25.9071 H   0  0  0  0  0  0
  -22.0597   -2.7616   23.2843 H   0  0  0  0  0  0
  -22.4111  -11.9864   22.4778 H   0  0  0  0  0  0
  -21.1119  -13.1252   22.2671 H   0  0  0  0  0  0
  -24.6572  -15.8461   20.5172 H   0  0  0  0  0  0
  -26.2753  -15.6321   20.0863 H   0  0  0  0  0  0
  -26.7178  -32.5475   23.1165 H   0  0  0  0  0  0
  -25.0108  -33.9778   25.0479 H   0  0  0  0  0  0
  -22.7087  -31.3146   21.4167 H   0  0  0  0  0  0
  -23.3743  -35.9649   23.3290 H   0  0  0  0  0  0
  -24.3579  -36.8947   22.2053 H   0  0  0  0  0  0
  -23.7243  -37.6517   23.6671 H   0  0  0  0  0  0
  -26.0897  -31.5642   20.6167 H   0  0  0  0  0  0
  -26.8420  -30.8445   22.0108 H   0  0  0  0  0  0
  -28.1009  -28.9715   21.2222 H   0  0  0  0  0  0
  -25.9262  -26.0352   18.8771 H   0  0  0  0  0  0
  -23.9658  -27.3864   18.9499 H   0  0  0  0  0  0
  -23.7428  -30.6268   19.4115 H   0  0  0  0  0  0
  -22.7512  -29.2715   19.8583 H   0  0  0  0  0  0
  -25.1280  -36.1951   25.0819 H   0  0  0  0  0  0
  -20.9971  -28.3243   24.1410 H   0  0  0  0  0  0
  -20.5706  -26.2281   23.3589 H   0  0  0  0  0  0
  -21.6646  -26.7441   22.1181 H   0  0  0  0  0  0
  -19.6911  -25.6281   21.1245 H   0  0  0  0  0  0
  -19.6697  -27.3187   20.6748 H   0  0  0  0  0  0
  -17.4197  -26.6682   21.4018 H   0  0  0  0  0  0
  -18.0317  -26.0058   22.9011 H   0  0  0  0  0  0
  -19.7941  -30.7273   24.2245 H   0  0  0  0  0  0
  -17.5021  -31.6271   24.5157 H   0  0  0  0  0  0
  -15.5358  -30.2975   23.7687 H   0  0  0  0  0  0
  -15.8673  -28.0831   22.7062 H   0  0  0  0  0  0
  -24.5900  -30.7090   25.7849 H   0  0  0  0  0  0
  -24.8909  -32.2923   26.4930 H   0  0  0  0  0  0
  -25.8051  -30.8949   27.0284 H   0  0  0  0  0  0
  -26.2893  -29.6819   24.1221 H   0  0  0  0  0  0
  -27.3983  -29.7281   25.4728 H   0  0  0  0  0  0
  -27.8773  -30.4337   23.9465 H   0  0  0  0  0  0
  -27.2630  -33.3673   26.2098 H   0  0  0  0  0  0
  -28.3851  -32.6918   25.0381 H   0  0  0  0  0  0
  -28.0683  -31.8514   26.5487 H   0  0  0  0  0  0
  -28.2569  -38.0127   24.7531 H   0  0  0  0  0  0
  -28.1094  -36.2661   24.6242 H   0  0  0  0  0  0
  -27.2298  -37.1408   25.8858 H   0  0  0  0  0  0
  -20.9356  -29.8804   21.6938 H   0  0  0  0  0  0
  -26.0160  -38.2857   24.1443 H   0  0  0  0  0  0
  -29.8336  -20.9284   18.5199 H   0  0  0  0  0  0
  -28.9704  -23.1746   18.0652 H   0  0  0  0  0  0
  -29.7522  -21.7606   22.7363 H   0  0  0  0  0  0
  -26.6197  -24.3694   22.4049 H   0  0  0  0  0  0
  -27.1722  -24.8013   24.0148 H   0  0  0  0  0  0
  -27.1711  -23.1124   23.5081 H   0  0  0  0  0  0
  -30.7448  -19.7141   22.0207 H   0  0  0  0  0  0
  -31.4033  -19.7042   20.4228 H   0  0  0  0  0  0
  -27.0429  -24.7811   20.1445 H   0  0  0  0  0  0
  -27.9256  -25.0933   18.6638 H   0  0  0  0  0  0
  -29.3352  -18.3896   19.6322 H   0  0  0  0  0  0
  -28.7917  -18.3305   21.2895 H   0  0  0  0  0  0
  -31.0468  -17.1808   21.8867 H   0  0  0  0  0  0
  -31.4174  -17.1671   20.1914 H   0  0  0  0  0  0
  -28.9653  -25.3395   22.3657 H   0  0  0  0  0  0
  -29.0163  -15.6143   21.0470 H   0  0  0  0  0  0
  1 25  1  0  0  0
  1 30  2  0  0  0
  1 83  1  0  0  0
  2  3  1  0  0  0
  2 25  1  0  0  0
  2 85  1  0  0  0
  2 86  1  0  0  0
  3  4  1  0  0  0
  3 87  1  0  0  0
  3 88  1  0  0  0
  4  5  1  0  0  0
  4 89  1  0  0  0
  4 90  1  0  0  0
  5  6  1  0  0  0
  5 26  1  0  0  0
  5 91  1  0  0  0
  6 25  1  0  0  0
  6 92  1  0  0  0
  6 93  1  0  0  0
  7  8  2  0  0  0
  7 26  1  0  0  0
  7 29  1  0  0  0
  8  9  1  0  0  0
  8 22  1  0  0  0
  9 10  1  0  0  0
  9 27  2  0  0  0
 10 11  2  0  0  0
 10 15  1  0  0  0
 11 12  1  0  0  0
 11 94  1  0  0  0
 12 13  2  0  0  0
 12 95  1  0  0  0
 13 14  1  0  0  0
 13 31  1  0  0  0
 14 15  2  0  0  0
 14 96  1  0  0  0
 15 97  1  0  0  0
 16 17  2  0  0  0
 16 21  1  0  0  0
 16 31  1  0  0  0
 17 18  1  0  0  0
 17 98  1  0  0  0
 18 19  2  0  0  0
 18 99  1  0  0  0
 19 20  1  0  0  0
 19 24  1  0  0  0
 20 21  2  0  0  0
 20100  1  0  0  0
 21 23  1  0  0  0
 22 28  1  0  0  0
 22 32  2  0  0  0
 26 27  1  0  0  0
 28101  1  0  0  0
 28102  1  0  0  0
 29103  1  0  0  0
 29104  1  0  0  0
 33 34  1  0  0  0
 33 66  1  0  0  0
 33 70  2  0  0  0
 34 36  1  0  0  0
 34 59  1  0  0  0
 34105  1  0  0  0
 35 44  2  0  0  0
 35 45  1  0  0  0
 35 68  1  0  0  0
 36 56  1  0  0  0
 36106  1  0  0  0
 37 39  1  0  0  0
 37 47  1  0  0  0
 37 66  1  0  0  0
 37107  1  0  0  0
 38 43  2  0  0  0
 38 46  1  0  0  0
 38 47  1  0  0  0
 39 64  1  0  0  0
 39 67  2  0  0  0
 40 52  1  0  0  0
 40 53  2  0  0  0
 40 58  1  0  0  0
 41108  1  0  0  0
 41109  1  0  0  0
 41110  1  0  0  0
 41 48  1  0  0  0
 42 43  1  0  0  0
 42 66  1  0  0  0
 42111  1  0  0  0
 42112  1  0  0  0
 43 44  1  0  0  0
 44113  1  0  0  0
 45 46  2  0  0  0
 45114  1  0  0  0
 46115  1  0  0  0
 47116  1  0  0  0
 47117  1  0  0  0
 48 56  1  0  0  0
 48 65  1  0  0  0
 48118  1  0  0  0
 49 50  1  0  0  0
 49 53  1  0  0  0
 49 64  1  0  0  0
 49119  1  0  0  0
 50 51  1  0  0  0
 50120  1  0  0  0
 50121  1  0  0  0
 51 52  1  0  0  0
 51122  1  0  0  0
 51123  1  0  0  0
 52124  1  0  0  0
 52125  1  0  0  0
 53 54  1  0  0  0
 54 55  2  0  0  0
 54126  1  0  0  0
 55 57  1  0  0  0
 55127  1  0  0  0
 56 69  2  0  0  0
 57 58  2  0  0  0
 57128  1  0  0  0
 58129  1  0  0  0
 59 60  1  0  0  0
 59 61  1  0  0  0
 59 62  1  0  0  0
 60130  1  0  0  0
 60131  1  0  0  0
 60132  1  0  0  0
 61133  1  0  0  0
 61134  1  0  0  0
 61135  1  0  0  0
 62136  1  0  0  0
 62137  1  0  0  0
 62138  1  0  0  0
 63 65  1  0  0  0
 63139  1  0  0  0
 63140  1  0  0  0
 63141  1  0  0  0
 64142  1  0  0  0
 65143  1  0  0  0
 68 79  1  0  0  0
 71 72  2  0  0  0
 71 74  1  0  0  0
 71144  1  0  0  0
 72 75  1  0  0  0
 72145  1  0  0  0
 73 74  2  0  0  0
 73 76  1  0  0  0
 73146  1  0  0  0
 74 78  1  0  0  0
 75 76  2  0  0  0
 75 79  1  0  0  0
 76 82  1  0  0  0
 77147  1  0  0  0
 77148  1  0  0  0
 77149  1  0  0  0
 77 82  1  0  0  0
 78 80  1  0  0  0
 78150  1  0  0  0
 78151  1  0  0  0
 79152  1  0  0  0
 79153  1  0  0  0
 80 81  1  0  0  0
 80154  1  0  0  0
 80155  1  0  0  0
 81 83  1  0  0  0
 81156  1  0  0  0
 81157  1  0  0  0
 82 84  1  0  0  0
 82158  1  0  0  0
 83159  1  0  0  0
M  ISO  4   1 100  68 101  79 101  83 100
M  END
> <chiral flag>
0

> <version>
0

> <s_m_source_file>
/data/baiqing/PycharmProjects/Reinvent-master-3.2/result/LINK_invent/BTK/process_docking_weight1_custom_sum_contain_oxygen_bond_distance_aromatic_linkinvent_7_9_3/rearranged_h_0039.sdf

> <i_m_source_file_index>
72

> <r_mmod_Potential_Energy-OPLS-2005>
61.2578392028809

> <r_mmod_Stretch_Energy-OPLS-2005>
67.2357635498047

> <r_mmod_Bend_Energy-OPLS-2005>
138.959197998047

> <r_mmod_Torsional_Energy-OPLS-2005>
212.24739074707

> <r_mmod_Improper_Torsional_Energy-OPLS-2005>
6.82191038131714

> <r_mmod_Van_der_Waal_Energy-OPLS-2005>
156.790985107422

> <r_mmod_Electrostatic_Energy-OPLS-2005>
-366.680145263672

> <r_mmod_Solvation_Energy-OPLS-2005>
-199.869812011719

> <b_mmod_Minimization_Converged-OPLS-2005>
0

> <r_mmod_RMS_Derivative-OPLS-2005>
1.71542584896088

$$$$
73
                    3D
 Structure written by MMmdl.
164172  0  0  1  0            999 V2000
  -30.7520  -14.3762   20.6856 C   0  0  0  0  0  0
  -30.4109  -12.2917   19.3995 C   0  0  0  0  0  0
  -29.4827  -12.5286   18.1949 C   0  0  0  0  0  0
  -28.0075  -12.3653   18.6100 C   0  0  0  0  0  0
  -27.6601  -13.1966   19.8724 C   0  0  2  0  0  0
  -28.6933  -12.9468   20.9901 C   0  0  0  0  0  0
  -25.2575  -13.8135   20.5654 C   0  0  0  0  0  0
  -24.1824  -13.0432   20.9125 C   0  0  0  0  0  0
  -24.6365  -11.6889   20.8707 C   0  0  0  0  0  0
  -23.9047  -10.4293   21.0397 C   0  0  0  0  0  0
  -24.3611   -9.4204   21.9169 C   0  0  0  0  0  0
  -23.6290   -8.2244   22.0762 C   0  0  0  0  0  0
  -22.4271   -8.0281   21.3550 C   0  0  0  0  0  0
  -21.9896   -9.0244   20.4639 C   0  0  0  0  0  0
  -22.7222  -10.2122   20.3042 C   0  0  0  0  0  0
  -21.6853   -6.0738   22.5280 C   0  0  0  0  0  0
  -21.4020   -6.5646   23.8210 C   0  0  0  0  0  0
  -21.3651   -5.6791   24.9178 C   0  0  0  0  0  0
  -21.6053   -4.3056   24.7215 C   0  0  0  0  0  0
  -21.8815   -3.8149   23.4337 C   0  0  0  0  0  0
  -21.9191   -4.6974   22.3399 C   0  0  0  0  0  0
  -22.7854  -13.5223   21.1815 C   0  0  0  0  0  0
  -22.1658   -4.2163   21.0974 F   0  0  0  0  0  0
  -21.5628   -3.4536   25.7727 F   0  0  0  0  0  0
  -30.0343  -13.2455   20.4528 N   0  0  0  0  0  0
  -26.3001  -12.9285   20.3323 N   0  0  0  0  0  0
  -25.9277  -11.6455   20.5710 N   0  0  0  0  0  0
  -22.0520  -12.8217   22.0380 N   0  0  0  0  0  0
  -25.4284  -15.1869   20.4101 N   0  0  0  0  0  0
  -31.8124  -14.6306   20.1077 O   0  0  0  0  0  0
  -21.6636   -6.8887   21.4241 O   0  0  0  0  0  0
  -22.3526  -14.5533   20.6677 O   0  0  0  0  0  0
  -24.6126  -31.8705   23.2087 C   0  0  0  0  0  0
  -25.9018  -32.4825   23.8398 C   0  0  1  0  0  0
  -27.2514  -27.4617   20.0840 C   0  0  0  0  0  0
  -25.5910  -33.8606   24.2361 N   0  0  0  0  0  0
  -23.3986  -30.4906   21.5532 C   0  0  2  0  0  0
  -24.8474  -28.9453   20.1262 C   0  0  0  0  0  0
  -22.7373  -29.4699   22.5055 C   0  0  0  0  0  0
  -18.0242  -28.1351   22.8478 C   0  0  0  0  0  0
  -24.1461  -36.7286   23.2626 C   0  0  0  0  0  0
  -25.9239  -30.8376   21.3562 C   0  0  0  0  0  0
  -26.0040  -29.4713   20.7113 C   0  0  0  0  0  0
  -27.2073  -28.7355   20.6906 C   0  0  0  0  0  0
  -26.0764  -26.9437   19.4928 C   0  0  0  0  0  0
  -24.8735  -27.6751   19.5203 C   0  0  0  0  0  0
  -23.6058  -29.8074   20.1728 C   0  0  0  0  0  0
  -25.4066  -36.3102   24.0359 C   0  0  1  0  0  0
  -20.5827  -28.3671   23.1314 C   0  0  2  0  0  0
  -20.6759  -26.9419   22.5396 C   0  0  0  0  0  0
  -19.5753  -26.6377   21.5184 C   0  0  0  0  0  0
  -18.1911  -26.7913   22.1576 C   0  0  0  0  0  0
  -19.1483  -28.8820   23.2894 C   0  0  0  0  0  0
  -18.9428  -30.1419   23.8932 C   0  0  0  0  0  0
  -17.6432  -30.6574   24.0542 C   0  0  0  0  0  0
  -25.9000  -34.9473   23.5153 C   0  0  0  0  0  0
  -16.5322  -29.9077   23.6309 C   0  0  0  0  0  0
  -16.7231  -28.6465   23.0374 C   0  0  0  0  0  0
  -26.4462  -31.6563   25.0699 C   0  0  0  0  0  0
  -25.3746  -31.3619   26.1469 C   0  0  0  0  0  0
  -27.0269  -30.3025   24.5973 C   0  0  0  0  0  0
  -27.6114  -32.4209   25.7415 C   0  0  0  0  0  0
  -27.5569  -37.1734   24.8455 C   0  0  0  0  0  0
  -21.4101  -29.3052   22.3767 N   0  0  0  0  0  0
  -26.4247  -37.3805   23.9468 N   0  0  0  0  0  0
  -24.6640  -31.0801   22.0991 N   0  0  0  0  0  0
  -23.4147  -28.8241   23.3113 O   0  0  0  0  0  0
  -28.4663  -26.8163   20.0102 O   0  0  0  0  0  0
  -26.5533  -34.8929   22.4690 O   0  0  0  0  0  0
  -23.5335  -32.1472   23.7493 O   0  0  0  0  0  0
  -29.6654  -21.0211   18.7609 C   0  0  0  0  0  0
  -29.3047  -22.3778   18.6516 C   0  0  0  0  0  0
  -30.6189  -20.6458   19.7284 C   0  0  0  0  0  0
  -29.9068  -23.3234   19.5035 C   0  0  0  0  0  0
  -31.1282  -21.6520   20.5802 C   0  0  0  0  0  0
  -32.0766  -21.3317   21.7197 C   0  0  0  0  0  0
  -28.8838  -25.2824   21.7615 C   0  0  0  0  0  0
  -31.1368  -19.2099   19.7750 C   0  0  0  0  0  0
  -29.6285  -24.8213   19.3448 C   0  0  0  0  0  0
  -30.4494  -18.2734   20.7919 C   0  0  0  0  0  0
  -31.4836  -17.4109   21.5487 C   0  0  0  0  0  0
  -30.9138  -16.2404   22.3777 C   0  0  0  0  0  0
  -28.5398  -25.4124   20.2721 C   0  0  2  0  0  0
  -30.7937  -22.9565   20.4561 N   0  0  0  0  0  0
  -30.2356  -15.1838   21.6246 N   0  0  0  0  0  0
  -31.4568  -12.3881   19.1020 H   0  0  0  0  0  0
  -30.3042  -11.2707   19.7712 H   0  0  0  0  0  0
  -29.7271  -11.8416   17.3855 H   0  0  0  0  0  0
  -29.6406  -13.5363   17.8060 H   0  0  0  0  0  0
  -27.8288  -11.3066   18.7982 H   0  0  0  0  0  0
  -27.3485  -12.6410   17.7847 H   0  0  0  0  0  0
  -27.7157  -14.2483   19.5909 H   0  0  0  0  0  0
  -28.6544  -11.9042   21.3088 H   0  0  0  0  0  0
  -28.4306  -13.5236   21.8785 H   0  0  0  0  0  0
  -25.2767   -9.5686   22.4718 H   0  0  0  0  0  0
  -24.0004   -7.4642   22.7489 H   0  0  0  0  0  0
  -21.0828   -8.8746   19.8934 H   0  0  0  0  0  0
  -22.3681  -10.9656   19.6141 H   0  0  0  0  0  0
  -21.2016   -7.6153   23.9724 H   0  0  0  0  0  0
  -21.1484   -6.0525   25.9082 H   0  0  0  0  0  0
  -22.0602   -2.7612   23.2827 H   0  0  0  0  0  0
  -22.4150  -11.9858   22.4722 H   0  0  0  0  0  0
  -21.1153  -13.1236   22.2654 H   0  0  0  0  0  0
  -24.6641  -15.8420   20.5377 H   0  0  0  0  0  0
  -26.2893  -15.6331   20.1172 H   0  0  0  0  0  0
  -26.7101  -32.5563   23.1184 H   0  0  0  0  0  0
  -25.0299  -33.9801   25.0657 H   0  0  0  0  0  0
  -22.6889  -31.3083   21.4081 H   0  0  0  0  0  0
  -23.3782  -35.9553   23.3232 H   0  0  0  0  0  0
  -24.3635  -36.8936   22.2055 H   0  0  0  0  0  0
  -23.7116  -37.6433   23.6664 H   0  0  0  0  0  0
  -26.0221  -31.5923   20.5770 H   0  0  0  0  0  0
  -26.8184  -30.9041   21.9650 H   0  0  0  0  0  0
  -28.1079  -29.1409   21.1297 H   0  0  0  0  0  0
  -26.0945  -25.9960   18.9732 H   0  0  0  0  0  0
  -23.9860  -27.2635   19.0605 H   0  0  0  0  0  0
  -23.7033  -30.5703   19.3982 H   0  0  0  0  0  0
  -22.7347  -29.2132   19.8932 H   0  0  0  0  0  0
  -25.1191  -36.1968   25.0842 H   0  0  0  0  0  0
  -20.9879  -28.3228   24.1458 H   0  0  0  0  0  0
  -20.5668  -26.2282   23.3574 H   0  0  0  0  0  0
  -21.6647  -26.7487   22.1211 H   0  0  0  0  0  0
  -19.6961  -25.6294   21.1218 H   0  0  0  0  0  0
  -19.6722  -27.3205   20.6720 H   0  0  0  0  0  0
  -17.4202  -26.6654   21.3951 H   0  0  0  0  0  0
  -18.0323  -26.0032   22.8943 H   0  0  0  0  0  0
  -19.7920  -30.7176   24.2373 H   0  0  0  0  0  0
  -17.5005  -31.6274   24.5118 H   0  0  0  0  0  0
  -15.5335  -30.2985   23.7629 H   0  0  0  0  0  0
  -15.8614  -28.0756   22.7157 H   0  0  0  0  0  0
  -24.5909  -30.6994   25.7785 H   0  0  0  0  0  0
  -24.8969  -32.2757   26.5004 H   0  0  0  0  0  0
  -25.8106  -30.8707   27.0172 H   0  0  0  0  0  0
  -26.2747  -29.6750   24.1202 H   0  0  0  0  0  0
  -27.4296  -29.7266   25.4308 H   0  0  0  0  0  0
  -27.8462  -30.4410   23.8922 H   0  0  0  0  0  0
  -27.2879  -33.3566   26.1972 H   0  0  0  0  0  0
  -28.3929  -32.6626   25.0199 H   0  0  0  0  0  0
  -28.0755  -31.8292   26.5321 H   0  0  0  0  0  0
  -28.2504  -38.0102   24.7668 H   0  0  0  0  0  0
  -28.1117  -36.2663   24.6051 H   0  0  0  0  0  0
  -27.2346  -37.1110   25.8856 H   0  0  0  0  0  0
  -20.9271  -29.8770   21.6978 H   0  0  0  0  0  0
  -26.0135  -38.2840   24.1627 H   0  0  0  0  0  0
  -29.2421  -20.2857   18.0929 H   0  0  0  0  0  0
  -28.5941  -22.6945   17.9017 H   0  0  0  0  0  0
  -32.9983  -20.8786   21.3547 H   0  0  0  0  0  0
  -31.5956  -20.6337   22.4042 H   0  0  0  0  0  0
  -32.3412  -22.2258   22.2887 H   0  0  0  0  0  0
  -28.8284  -24.2442   22.0895 H   0  0  0  0  0  0
  -28.1988  -25.8647   22.3760 H   0  0  0  0  0  0
  -29.8919  -25.6435   21.9630 H   0  0  0  0  0  0
  -32.2095  -19.2471   19.9669 H   0  0  0  0  0  0
  -31.0608  -18.7665   18.7807 H   0  0  0  0  0  0
  -29.3484  -25.0082   18.3083 H   0  0  0  0  0  0
  -30.5614  -25.3675   19.4971 H   0  0  0  0  0  0
  -29.7358  -17.6427   20.2621 H   0  0  0  0  0  0
  -29.8625  -18.8425   21.5133 H   0  0  0  0  0  0
  -32.0303  -18.0613   22.2341 H   0  0  0  0  0  0
  -32.2392  -17.0377   20.8567 H   0  0  0  0  0  0
  -30.2155  -16.6233   23.1234 H   0  0  0  0  0  0
  -31.7224  -15.7754   22.9452 H   0  0  0  0  0  0
  -27.5964  -24.8991   20.0866 H   0  0  0  0  0  0
  -29.3447  -14.8845   21.9935 H   0  0  0  0  0  0
  1 25  1  0  0  0
  1 30  2  0  0  0
  1 85  1  0  0  0
  2  3  1  0  0  0
  2 25  1  0  0  0
  2 86  1  0  0  0
  2 87  1  0  0  0
  3  4  1  0  0  0
  3 88  1  0  0  0
  3 89  1  0  0  0
  4  5  1  0  0  0
  4 90  1  0  0  0
  4 91  1  0  0  0
  5  6  1  0  0  0
  5 26  1  0  0  0
  5 92  1  0  0  0
  6 25  1  0  0  0
  6 93  1  0  0  0
  6 94  1  0  0  0
  7  8  2  0  0  0
  7 26  1  0  0  0
  7 29  1  0  0  0
  8  9  1  0  0  0
  8 22  1  0  0  0
  9 10  1  0  0  0
  9 27  2  0  0  0
 10 11  2  0  0  0
 10 15  1  0  0  0
 11 12  1  0  0  0
 11 95  1  0  0  0
 12 13  2  0  0  0
 12 96  1  0  0  0
 13 14  1  0  0  0
 13 31  1  0  0  0
 14 15  2  0  0  0
 14 97  1  0  0  0
 15 98  1  0  0  0
 16 17  2  0  0  0
 16 21  1  0  0  0
 16 31  1  0  0  0
 17 18  1  0  0  0
 17 99  1  0  0  0
 18 19  2  0  0  0
 18100  1  0  0  0
 19 20  1  0  0  0
 19 24  1  0  0  0
 20 21  2  0  0  0
 20101  1  0  0  0
 21 23  1  0  0  0
 22 28  1  0  0  0
 22 32  2  0  0  0
 26 27  1  0  0  0
 28102  1  0  0  0
 28103  1  0  0  0
 29104  1  0  0  0
 29105  1  0  0  0
 33 34  1  0  0  0
 33 66  1  0  0  0
 33 70  2  0  0  0
 34 36  1  0  0  0
 34 59  1  0  0  0
 34106  1  0  0  0
 35 44  2  0  0  0
 35 45  1  0  0  0
 35 68  1  0  0  0
 36 56  1  0  0  0
 36107  1  0  0  0
 37 39  1  0  0  0
 37 47  1  0  0  0
 37 66  1  0  0  0
 37108  1  0  0  0
 38 43  2  0  0  0
 38 46  1  0  0  0
 38 47  1  0  0  0
 39 64  1  0  0  0
 39 67  2  0  0  0
 40 52  1  0  0  0
 40 53  2  0  0  0
 40 58  1  0  0  0
 41109  1  0  0  0
 41110  1  0  0  0
 41111  1  0  0  0
 41 48  1  0  0  0
 42 43  1  0  0  0
 42 66  1  0  0  0
 42112  1  0  0  0
 42113  1  0  0  0
 43 44  1  0  0  0
 44114  1  0  0  0
 45 46  2  0  0  0
 45115  1  0  0  0
 46116  1  0  0  0
 47117  1  0  0  0
 47118  1  0  0  0
 48 56  1  0  0  0
 48 65  1  0  0  0
 48119  1  0  0  0
 49 50  1  0  0  0
 49 53  1  0  0  0
 49 64  1  0  0  0
 49120  1  0  0  0
 50 51  1  0  0  0
 50121  1  0  0  0
 50122  1  0  0  0
 51 52  1  0  0  0
 51123  1  0  0  0
 51124  1  0  0  0
 52125  1  0  0  0
 52126  1  0  0  0
 53 54  1  0  0  0
 54 55  2  0  0  0
 54127  1  0  0  0
 55 57  1  0  0  0
 55128  1  0  0  0
 56 69  2  0  0  0
 57 58  2  0  0  0
 57129  1  0  0  0
 58130  1  0  0  0
 59 60  1  0  0  0
 59 61  1  0  0  0
 59 62  1  0  0  0
 60131  1  0  0  0
 60132  1  0  0  0
 60133  1  0  0  0
 61134  1  0  0  0
 61135  1  0  0  0
 61136  1  0  0  0
 62137  1  0  0  0
 62138  1  0  0  0
 62139  1  0  0  0
 63 65  1  0  0  0
 63140  1  0  0  0
 63141  1  0  0  0
 63142  1  0  0  0
 64143  1  0  0  0
 65144  1  0  0  0
 68 83  1  0  0  0
 71 72  2  0  0  0
 71 73  1  0  0  0
 71145  1  0  0  0
 72 74  1  0  0  0
 72146  1  0  0  0
 73 75  2  0  0  0
 73 78  1  0  0  0
 74 79  1  0  0  0
 74 84  2  0  0  0
 75 76  1  0  0  0
 75 84  1  0  0  0
 76147  1  0  0  0
 76148  1  0  0  0
 76149  1  0  0  0
 77150  1  0  0  0
 77151  1  0  0  0
 77152  1  0  0  0
 77 83  1  0  0  0
 78 80  1  0  0  0
 78153  1  0  0  0
 78154  1  0  0  0
 79 83  1  0  0  0
 79155  1  0  0  0
 79156  1  0  0  0
 80 81  1  0  0  0
 80157  1  0  0  0
 80158  1  0  0  0
 81 82  1  0  0  0
 81159  1  0  0  0
 81160  1  0  0  0
 82 85  1  0  0  0
 82161  1  0  0  0
 82162  1  0  0  0
 83163  1  0  0  0
 85164  1  0  0  0
M  ISO  4   1 100  68 101  83 101  85 100
M  END
> <chiral flag>
0

> <version>
0

> <s_m_source_file>
/data/baiqing/PycharmProjects/Reinvent-master-3.2/result/LINK_invent/BTK/process_docking_weight1_custom_sum_contain_oxygen_bond_distance_aromatic_linkinvent_7_9_3/rearranged_h_0039.sdf

> <i_m_source_file_index>
73

> <r_mmod_Potential_Energy-OPLS-2005>
-209.767288208008

> <r_mmod_Stretch_Energy-OPLS-2005>
33.5837326049805

> <r_mmod_Bend_Energy-OPLS-2005>
103.307624816895

> <r_mmod_Torsional_Energy-OPLS-2005>
212.991195678711

> <r_mmod_Improper_Torsional_Energy-OPLS-2005>
2.62631511688232

> <r_mmod_Van_der_Waal_Energy-OPLS-2005>
152.108917236328

> <r_mmod_Electrostatic_Energy-OPLS-2005>
-509.005645751953

> <r_mmod_Solvation_Energy-OPLS-2005>
-213.850646972656

> <b_mmod_Minimization_Converged-OPLS-2005>
0

> <r_mmod_RMS_Derivative-OPLS-2005>
4.11437606811523

$$$$
74
                    3D
 Structure written by MMmdl.
175183  0  0  1  0            999 V2000
  -30.7917  -14.3031   20.6884 C   0  0  0  0  0  0
  -30.4110  -12.2659   19.3590 C   0  0  0  0  0  0
  -29.4671  -12.5440   18.1769 C   0  0  0  0  0  0
  -27.9949  -12.4007   18.6055 C   0  0  0  0  0  0
  -27.6697  -13.2021   19.8894 C   0  0  2  0  0  0
  -28.7141  -12.9105   20.9864 C   0  0  0  0  0  0
  -25.2616  -13.8180   20.5718 C   0  0  0  0  0  0
  -24.1845  -13.0421   20.9183 C   0  0  0  0  0  0
  -24.6413  -11.6908   20.8728 C   0  0  0  0  0  0
  -23.9091  -10.4280   21.0400 C   0  0  0  0  0  0
  -24.3634   -9.4193   21.9190 C   0  0  0  0  0  0
  -23.6300   -8.2234   22.0763 C   0  0  0  0  0  0
  -22.4272   -8.0296   21.3558 C   0  0  0  0  0  0
  -21.9913   -9.0266   20.4650 C   0  0  0  0  0  0
  -22.7251  -10.2142   20.3058 C   0  0  0  0  0  0
  -21.6858   -6.0736   22.5294 C   0  0  0  0  0  0
  -21.3993   -6.5639   23.8224 C   0  0  0  0  0  0
  -21.3662   -5.6803   24.9192 C   0  0  0  0  0  0
  -21.6053   -4.3071   24.7241 C   0  0  0  0  0  0
  -21.8823   -3.8149   23.4363 C   0  0  0  0  0  0
  -21.9179   -4.6961   22.3410 C   0  0  0  0  0  0
  -22.7857  -13.5215   21.1844 C   0  0  0  0  0  0
  -22.1658   -4.2136   21.0994 F   0  0  0  0  0  0
  -21.5640   -3.4558   25.7754 F   0  0  0  0  0  0
  -30.0617  -13.1877   20.4465 N   0  0  0  0  0  0
  -26.3070  -12.9337   20.3491 N   0  0  0  0  0  0
  -25.9341  -11.6489   20.5802 N   0  0  0  0  0  0
  -22.0513  -12.8186   22.0435 N   0  0  0  0  0  0
  -25.4336  -15.1879   20.4094 N   0  0  0  0  0  0
  -31.7757  -14.6503   20.0261 O   0  0  0  0  0  0
  -21.6639   -6.8893   21.4262 O   0  0  0  0  0  0
  -22.3523  -14.5516   20.6729 O   0  0  0  0  0  0
  -24.6139  -31.8726   23.2172 C   0  0  0  0  0  0
  -25.9033  -32.4843   23.8441 C   0  0  1  0  0  0
  -27.2231  -27.4586   20.0855 C   0  0  0  0  0  0
  -25.5881  -33.8635   24.2347 N   0  0  0  0  0  0
  -23.3998  -30.5030   21.5605 C   0  0  2  0  0  0
  -24.8458  -28.9800   20.1188 C   0  0  0  0  0  0
  -22.7392  -29.4724   22.5051 C   0  0  0  0  0  0
  -18.0268  -28.1349   22.8519 C   0  0  0  0  0  0
  -24.1487  -36.7335   23.2638 C   0  0  0  0  0  0
  -25.9310  -30.8442   21.3760 C   0  0  0  0  0  0
  -26.0067  -29.4823   20.7190 C   0  0  0  0  0  0
  -27.1996  -28.7255   20.7099 C   0  0  0  0  0  0
  -26.0547  -26.9882   19.4521 C   0  0  0  0  0  0
  -24.8622  -27.7266   19.4899 C   0  0  0  0  0  0
  -23.6084  -29.8438   20.1744 C   0  0  0  0  0  0
  -25.4104  -36.3130   24.0343 C   0  0  1  0  0  0
  -20.5879  -28.3655   23.1370 C   0  0  2  0  0  0
  -20.6795  -26.9395   22.5411 C   0  0  0  0  0  0
  -19.5726  -26.6391   21.5242 C   0  0  0  0  0  0
  -18.1889  -26.7939   22.1584 C   0  0  0  0  0  0
  -19.1509  -28.8818   23.2948 C   0  0  0  0  0  0
  -18.9377  -30.1449   23.8914 C   0  0  0  0  0  0
  -17.6355  -30.6548   24.0522 C   0  0  0  0  0  0
  -25.9015  -34.9488   23.5135 C   0  0  0  0  0  0
  -16.5277  -29.9031   23.6258 C   0  0  0  0  0  0
  -16.7245  -28.6439   23.0315 C   0  0  0  0  0  0
  -26.4476  -31.6604   25.0757 C   0  0  0  0  0  0
  -25.3738  -31.3685   26.1499 C   0  0  0  0  0  0
  -27.0294  -30.3041   24.6113 C   0  0  0  0  0  0
  -27.6069  -32.4326   25.7512 C   0  0  0  0  0  0
  -27.5590  -37.1833   24.8468 C   0  0  0  0  0  0
  -21.4113  -29.3100   22.3811 N   0  0  0  0  0  0
  -26.4298  -37.3813   23.9415 N   0  0  0  0  0  0
  -24.6661  -31.0882   22.1070 N   0  0  0  0  0  0
  -23.4146  -28.8223   23.3065 O   0  0  0  0  0  0
  -28.3813  -26.7177   20.0687 O   0  0  0  0  0  0
  -26.5591  -34.8928   22.4700 O   0  0  0  0  0  0
  -23.5344  -32.1462   23.7569 O   0  0  0  0  0  0
  -26.4914  -20.9442   21.9826 C   0  0  0  0  0  0
  -26.8626  -21.8685   20.9971 C   0  0  0  0  0  0
  -25.3465  -21.1469   22.7837 C   0  0  0  0  0  0
  -24.9703  -23.2771   21.6104 C   0  0  0  0  0  0
  -26.1227  -23.0534   20.8147 C   0  0  0  0  0  0
  -24.5730  -22.3187   22.5814 C   0  0  0  0  0  0
  -23.1464  -24.3813   20.2522 C   0  0  0  0  0  0
  -24.9508  -20.1116   23.8432 C   0  0  0  0  0  0
  -24.1577  -24.5472   21.3915 C   0  0  0  0  0  0
  -26.1358  -19.4193   24.5503 C   0  0  0  0  0  0
  -26.6653  -18.1414   23.8723 C   0  0  0  0  0  0
  -28.1337  -17.8777   24.2283 C   0  0  0  0  0  0
  -28.7357  -16.7333   23.4116 C   0  0  0  0  0  0
  -30.2734  -16.6884   23.5069 C   0  0  0  0  0  0
  -30.9146  -16.2737   22.1796 C   0  0  0  0  0  0
  -28.2940  -25.3933   20.6212 C   0  0  0  0  0  0
  -27.8205  -24.3093   19.6277 C   0  0  0  0  0  0
  -30.4004  -14.9830   21.7617 N   0  0  0  0  0  0
  -26.4445  -23.9684   19.8345 O   0  0  0  0  0  0
  -23.1342  -22.5765   23.5184 Cl  0  0  0  0  0  0
  -31.4499  -12.3748   19.0401 H   0  0  0  0  0  0
  -30.3128  -11.2333   19.6966 H   0  0  0  0  0  0
  -29.6741  -11.8686   17.3475 H   0  0  0  0  0  0
  -29.6474  -13.5525   17.8017 H   0  0  0  0  0  0
  -27.7922  -11.3420   18.7709 H   0  0  0  0  0  0
  -27.3391  -12.7167   17.7942 H   0  0  0  0  0  0
  -27.7397  -14.2601   19.6408 H   0  0  0  0  0  0
  -28.6689  -11.8616   21.2775 H   0  0  0  0  0  0
  -28.4684  -13.4723   21.8868 H   0  0  0  0  0  0
  -25.2787   -9.5647   22.4758 H   0  0  0  0  0  0
  -24.0001   -7.4619   22.7473 H   0  0  0  0  0  0
  -21.0852   -8.8799   19.8944 H   0  0  0  0  0  0
  -22.3738  -10.9689   19.6165 H   0  0  0  0  0  0
  -21.1981   -7.6150   23.9727 H   0  0  0  0  0  0
  -21.1484   -6.0537   25.9108 H   0  0  0  0  0  0
  -22.0586   -2.7606   23.2880 H   0  0  0  0  0  0
  -22.4114  -11.9812   22.4745 H   0  0  0  0  0  0
  -21.1145  -13.1195   22.2720 H   0  0  0  0  0  0
  -24.6699  -15.8473   20.5141 H   0  0  0  0  0  0
  -26.3018  -15.6259   20.1233 H   0  0  0  0  0  0
  -26.7113  -32.5567   23.1232 H   0  0  0  0  0  0
  -25.0015  -33.9806   25.0481 H   0  0  0  0  0  0
  -22.6876  -31.3197   21.4250 H   0  0  0  0  0  0
  -23.3742  -35.9682   23.3324 H   0  0  0  0  0  0
  -24.3586  -36.8916   22.2052 H   0  0  0  0  0  0
  -23.7241  -37.6549   23.6619 H   0  0  0  0  0  0
  -26.0461  -31.6154   20.6131 H   0  0  0  0  0  0
  -26.8157  -30.8861   21.9982 H   0  0  0  0  0  0
  -28.0925  -29.0995   21.1934 H   0  0  0  0  0  0
  -26.0434  -26.0590   18.9112 H   0  0  0  0  0  0
  -23.9720  -27.3295   19.0244 H   0  0  0  0  0  0
  -23.7122  -30.6185   19.4147 H   0  0  0  0  0  0
  -22.7342  -29.2637   19.8785 H   0  0  0  0  0  0
  -25.1285  -36.2025   25.0843 H   0  0  0  0  0  0
  -20.9986  -28.3139   24.1487 H   0  0  0  0  0  0
  -20.5843  -26.2195   23.3579 H   0  0  0  0  0  0
  -21.6647  -26.7523   22.1108 H   0  0  0  0  0  0
  -19.6875  -25.6329   21.1186 H   0  0  0  0  0  0
  -19.6662  -27.3236   20.6794 H   0  0  0  0  0  0
  -17.4244  -26.6958   21.3872 H   0  0  0  0  0  0
  -18.0014  -26.0013   22.8811 H   0  0  0  0  0  0
  -19.7820  -30.7341   24.2257 H   0  0  0  0  0  0
  -17.4813  -31.6235   24.5065 H   0  0  0  0  0  0
  -15.5249  -30.2892   23.7485 H   0  0  0  0  0  0
  -15.8661  -28.0746   22.6960 H   0  0  0  0  0  0
  -24.5949  -30.7005   25.7821 H   0  0  0  0  0  0
  -24.8884  -32.2810   26.4964 H   0  0  0  0  0  0
  -25.8090  -30.8854   27.0250 H   0  0  0  0  0  0
  -26.2817  -29.6841   24.1141 H   0  0  0  0  0  0
  -27.4017  -29.7264   25.4580 H   0  0  0  0  0  0
  -27.8694  -30.4361   23.9279 H   0  0  0  0  0  0
  -27.2688  -33.3611   26.2141 H   0  0  0  0  0  0
  -28.3836  -32.6910   25.0297 H   0  0  0  0  0  0
  -28.0772  -31.8403   26.5372 H   0  0  0  0  0  0
  -28.2634  -38.0113   24.7525 H   0  0  0  0  0  0
  -28.1063  -36.2648   24.6290 H   0  0  0  0  0  0
  -27.2308  -37.1498   25.8870 H   0  0  0  0  0  0
  -20.9262  -29.8891   21.7119 H   0  0  0  0  0  0
  -26.0203  -38.2903   24.1391 H   0  0  0  0  0  0
  -27.1171  -20.0772   22.1023 H   0  0  0  0  0  0
  -27.7169  -21.6281   20.3797 H   0  0  0  0  0  0
  -23.6468  -24.0503   19.3434 H   0  0  0  0  0  0
  -22.6348  -25.3229   20.0410 H   0  0  0  0  0  0
  -22.4043  -23.6229   20.5058 H   0  0  0  0  0  0
  -24.2557  -19.3887   23.4153 H   0  0  0  0  0  0
  -24.3970  -20.6196   24.6322 H   0  0  0  0  0  0
  -24.8322  -25.3745   21.1802 H   0  0  0  0  0  0
  -23.6400  -24.8511   22.2996 H   0  0  0  0  0  0
  -25.8274  -19.1290   25.5570 H   0  0  0  0  0  0
  -26.9284  -20.1551   24.6923 H   0  0  0  0  0  0
  -26.5625  -18.1973   22.7889 H   0  0  0  0  0  0
  -26.0553  -17.2913   24.1698 H   0  0  0  0  0  0
  -28.2313  -17.6856   25.2973 H   0  0  0  0  0  0
  -28.7184  -18.7776   24.0201 H   0  0  0  0  0  0
  -28.4427  -16.8681   22.3663 H   0  0  0  0  0  0
  -28.3131  -15.7765   23.7265 H   0  0  0  0  0  0
  -30.5787  -16.0100   24.3058 H   0  0  0  0  0  0
  -30.6787  -17.6660   23.7758 H   0  0  0  0  0  0
  -30.6694  -17.0114   21.4122 H   0  0  0  0  0  0
  -32.0023  -16.2493   22.2572 H   0  0  0  0  0  0
  -29.3075  -25.1325   20.9307 H   0  0  0  0  0  0
  -27.6888  -25.3815   21.5291 H   0  0  0  0  0  0
  -28.4738  -23.4395   19.6638 H   0  0  0  0  0  0
  -27.9325  -24.6939   18.6158 H   0  0  0  0  0  0
  -29.6147  -14.6073   22.2713 H   0  0  0  0  0  0
  1 25  1  0  0  0
  1 30  2  0  0  0
  1 88  1  0  0  0
  2  3  1  0  0  0
  2 25  1  0  0  0
  2 91  1  0  0  0
  2 92  1  0  0  0
  3  4  1  0  0  0
  3 93  1  0  0  0
  3 94  1  0  0  0
  4  5  1  0  0  0
  4 95  1  0  0  0
  4 96  1  0  0  0
  5  6  1  0  0  0
  5 26  1  0  0  0
  5 97  1  0  0  0
  6 25  1  0  0  0
  6 98  1  0  0  0
  6 99  1  0  0  0
  7  8  2  0  0  0
  7 26  1  0  0  0
  7 29  1  0  0  0
  8  9  1  0  0  0
  8 22  1  0  0  0
  9 10  1  0  0  0
  9 27  2  0  0  0
 10 11  2  0  0  0
 10 15  1  0  0  0
 11 12  1  0  0  0
 11100  1  0  0  0
 12 13  2  0  0  0
 12101  1  0  0  0
 13 14  1  0  0  0
 13 31  1  0  0  0
 14 15  2  0  0  0
 14102  1  0  0  0
 15103  1  0  0  0
 16 17  2  0  0  0
 16 21  1  0  0  0
 16 31  1  0  0  0
 17 18  1  0  0  0
 17104  1  0  0  0
 18 19  2  0  0  0
 18105  1  0  0  0
 19 20  1  0  0  0
 19 24  1  0  0  0
 20 21  2  0  0  0
 20106  1  0  0  0
 21 23  1  0  0  0
 22 28  1  0  0  0
 22 32  2  0  0  0
 26 27  1  0  0  0
 28107  1  0  0  0
 28108  1  0  0  0
 29109  1  0  0  0
 29110  1  0  0  0
 33 34  1  0  0  0
 33 66  1  0  0  0
 33 70  2  0  0  0
 34 36  1  0  0  0
 34 59  1  0  0  0
 34111  1  0  0  0
 35 44  2  0  0  0
 35 45  1  0  0  0
 35 68  1  0  0  0
 36 56  1  0  0  0
 36112  1  0  0  0
 37 39  1  0  0  0
 37 47  1  0  0  0
 37 66  1  0  0  0
 37113  1  0  0  0
 38 43  2  0  0  0
 38 46  1  0  0  0
 38 47  1  0  0  0
 39 64  1  0  0  0
 39 67  2  0  0  0
 40 52  1  0  0  0
 40 53  2  0  0  0
 40 58  1  0  0  0
 41114  1  0  0  0
 41115  1  0  0  0
 41116  1  0  0  0
 41 48  1  0  0  0
 42 43  1  0  0  0
 42 66  1  0  0  0
 42117  1  0  0  0
 42118  1  0  0  0
 43 44  1  0  0  0
 44119  1  0  0  0
 45 46  2  0  0  0
 45120  1  0  0  0
 46121  1  0  0  0
 47122  1  0  0  0
 47123  1  0  0  0
 48 56  1  0  0  0
 48 65  1  0  0  0
 48124  1  0  0  0
 49 50  1  0  0  0
 49 53  1  0  0  0
 49 64  1  0  0  0
 49125  1  0  0  0
 50 51  1  0  0  0
 50126  1  0  0  0
 50127  1  0  0  0
 51 52  1  0  0  0
 51128  1  0  0  0
 51129  1  0  0  0
 52130  1  0  0  0
 52131  1  0  0  0
 53 54  1  0  0  0
 54 55  2  0  0  0
 54132  1  0  0  0
 55 57  1  0  0  0
 55133  1  0  0  0
 56 69  2  0  0  0
 57 58  2  0  0  0
 57134  1  0  0  0
 58135  1  0  0  0
 59 60  1  0  0  0
 59 61  1  0  0  0
 59 62  1  0  0  0
 60136  1  0  0  0
 60137  1  0  0  0
 60138  1  0  0  0
 61139  1  0  0  0
 61140  1  0  0  0
 61141  1  0  0  0
 62142  1  0  0  0
 62143  1  0  0  0
 62144  1  0  0  0
 63 65  1  0  0  0
 63145  1  0  0  0
 63146  1  0  0  0
 63147  1  0  0  0
 64148  1  0  0  0
 65149  1  0  0  0
 68 86  1  0  0  0
 71 72  2  0  0  0
 71 73  1  0  0  0
 71150  1  0  0  0
 72 75  1  0  0  0
 72151  1  0  0  0
 73 76  2  0  0  0
 73 78  1  0  0  0
 74 75  2  0  0  0
 74 76  1  0  0  0
 74 79  1  0  0  0
 75 89  1  0  0  0
 76 90  1  0  0  0
 77 79  1  0  0  0
 77152  1  0  0  0
 77153  1  0  0  0
 77154  1  0  0  0
 78 80  1  0  0  0
 78155  1  0  0  0
 78156  1  0  0  0
 79157  1  0  0  0
 79158  1  0  0  0
 80 81  1  0  0  0
 80159  1  0  0  0
 80160  1  0  0  0
 81 82  1  0  0  0
 81161  1  0  0  0
 81162  1  0  0  0
 82 83  1  0  0  0
 82163  1  0  0  0
 82164  1  0  0  0
 83 84  1  0  0  0
 83165  1  0  0  0
 83166  1  0  0  0
 84 85  1  0  0  0
 84167  1  0  0  0
 84168  1  0  0  0
 85 88  1  0  0  0
 85169  1  0  0  0
 85170  1  0  0  0
 86 87  1  0  0  0
 86171  1  0  0  0
 86172  1  0  0  0
 87 89  1  0  0  0
 87173  1  0  0  0
 87174  1  0  0  0
 88175  1  0  0  0
M  ISO  4   1 100  68 101  86 101  88 100
M  END
> <chiral flag>
0

> <version>
0

> <s_m_source_file>
/data/baiqing/PycharmProjects/Reinvent-master-3.2/result/LINK_invent/BTK/process_docking_weight1_custom_sum_contain_oxygen_bond_distance_aromatic_linkinvent_7_9_3/rearranged_h_0039.sdf

> <i_m_source_file_index>
74

> <r_mmod_Potential_Energy-OPLS-2005>
-18.959285736084

> <r_mmod_Stretch_Energy-OPLS-2005>
34.8311882019043

> <r_mmod_Bend_Energy-OPLS-2005>
99.50244140625

> <r_mmod_Torsional_Energy-OPLS-2005>
244.4951171875

> <r_mmod_Improper_Torsional_Energy-OPLS-2005>
2.24668192863464

> <r_mmod_Van_der_Waal_Energy-OPLS-2005>
157.823852539062

> <r_mmod_Electrostatic_Energy-OPLS-2005>
-371.024475097656

> <r_mmod_Solvation_Energy-OPLS-2005>
-195.365921020508

> <b_mmod_Minimization_Converged-OPLS-2005>
0

> <r_mmod_RMS_Derivative-OPLS-2005>
5.47701978683472

$$$$
75
                    3D
 Structure written by MMmdl.
160168  0  0  1  0            999 V2000
  -30.6972  -14.6071   20.4886 C   0  0  0  0  0  0
  -30.4204  -12.3735   19.4577 C   0  0  0  0  0  0
  -29.4977  -12.4847   18.2267 C   0  0  0  0  0  0
  -28.0264  -12.3224   18.6488 C   0  0  0  0  0  0
  -27.6488  -13.2219   19.8562 C   0  0  2  0  0  0
  -28.6955  -13.1305   20.9900 C   0  0  0  0  0  0
  -25.2546  -13.8193   20.5698 C   0  0  0  0  0  0
  -24.1823  -13.0447   20.9196 C   0  0  0  0  0  0
  -24.6396  -11.6916   20.8754 C   0  0  0  0  0  0
  -23.9067  -10.4300   21.0418 C   0  0  0  0  0  0
  -24.3619   -9.4216   21.9190 C   0  0  0  0  0  0
  -23.6298   -8.2248   22.0755 C   0  0  0  0  0  0
  -22.4283   -8.0286   21.3543 C   0  0  0  0  0  0
  -21.9922   -9.0258   20.4640 C   0  0  0  0  0  0
  -22.7247  -10.2137   20.3053 C   0  0  0  0  0  0
  -21.6854   -6.0738   22.5277 C   0  0  0  0  0  0
  -21.4021   -6.5638   23.8212 C   0  0  0  0  0  0
  -21.3659   -5.6796   24.9176 C   0  0  0  0  0  0
  -21.6042   -4.3060   24.7228 C   0  0  0  0  0  0
  -21.8816   -3.8152   23.4351 C   0  0  0  0  0  0
  -21.9192   -4.6965   22.3402 C   0  0  0  0  0  0
  -22.7846  -13.5226   21.1868 C   0  0  0  0  0  0
  -22.1661   -4.2151   21.0981 F   0  0  0  0  0  0
  -21.5623   -3.4545   25.7740 F   0  0  0  0  0  0
  -30.0116  -13.4265   20.4081 N   0  0  0  0  0  0
  -26.2978  -12.9382   20.3327 N   0  0  0  0  0  0
  -25.9331  -11.6532   20.5791 N   0  0  0  0  0  0
  -22.0505  -12.8194   22.0412 N   0  0  0  0  0  0
  -25.4250  -15.1917   20.4119 N   0  0  0  0  0  0
  -31.8760  -14.6850   20.1371 O   0  0  0  0  0  0
  -21.6644   -6.8885   21.4239 O   0  0  0  0  0  0
  -22.3531  -14.5546   20.6731 O   0  0  0  0  0  0
  -24.6293  -31.8639   23.2095 C   0  0  0  0  0  0
  -25.9152  -32.4804   23.8393 C   0  0  1  0  0  0
  -27.2031  -27.3218   20.0968 C   0  0  0  0  0  0
  -25.5994  -33.8600   24.2326 N   0  0  0  0  0  0
  -23.4182  -30.4968   21.5543 C   0  0  2  0  0  0
  -24.8587  -28.9699   20.1097 C   0  0  0  0  0  0
  -22.7488  -29.4650   22.4949 C   0  0  0  0  0  0
  -18.0295  -28.1392   22.8487 C   0  0  0  0  0  0
  -24.1493  -36.7293   23.2625 C   0  0  0  0  0  0
  -25.9645  -30.7947   21.3824 C   0  0  0  0  0  0
  -26.0343  -29.4264   20.7182 C   0  0  0  0  0  0
  -27.2108  -28.6143   20.7077 C   0  0  0  0  0  0
  -25.9986  -26.9422   19.4462 C   0  0  0  0  0  0
  -24.8436  -27.7321   19.4652 C   0  0  0  0  0  0
  -23.6300  -29.8510   20.1646 C   0  0  0  0  0  0
  -25.4117  -36.3100   24.0332 C   0  0  1  0  0  0
  -20.5893  -28.3696   23.1283 C   0  0  2  0  0  0
  -20.6793  -26.9424   22.5389 C   0  0  0  0  0  0
  -19.5748  -26.6386   21.5214 C   0  0  0  0  0  0
  -18.1927  -26.7935   22.1622 C   0  0  0  0  0  0
  -19.1548  -28.8861   23.2873 C   0  0  0  0  0  0
  -18.9471  -30.1467   23.8886 C   0  0  0  0  0  0
  -17.6473  -30.6593   24.0566 C   0  0  0  0  0  0
  -25.9061  -34.9467   23.5119 C   0  0  0  0  0  0
  -16.5364  -29.9092   23.6339 C   0  0  0  0  0  0
  -16.7284  -28.6513   23.0356 C   0  0  0  0  0  0
  -26.4538  -31.6603   25.0749 C   0  0  0  0  0  0
  -25.3775  -31.3698   26.1475 C   0  0  0  0  0  0
  -27.0407  -30.3056   24.6152 C   0  0  0  0  0  0
  -27.6076  -32.4352   25.7530 C   0  0  0  0  0  0
  -27.5585  -37.1802   24.8464 C   0  0  0  0  0  0
  -21.4198  -29.3068   22.3697 N   0  0  0  0  0  0
  -26.4297  -37.3794   23.9412 N   0  0  0  0  0  0
  -24.6900  -31.0666   22.1052 N   0  0  0  0  0  0
  -23.4227  -28.8143   23.2978 O   0  0  0  0  0  0
  -28.2884  -26.4212   20.1576 O   0  0  0  0  0  0
  -26.5575  -34.8919   22.4653 O   0  0  0  0  0  0
  -23.5461  -32.1449   23.7429 O   0  0  0  0  0  0
  -29.8183  -22.1949   21.4614 C   0  0  0  0  0  0
  -29.7661  -21.1662   20.4861 C   0  0  0  0  0  0
  -29.1978  -21.5861   19.2642 C   0  0  0  0  0  0
  -28.8250  -23.7532   20.0659 C   0  0  0  0  0  0
  -27.3727  -19.1975   16.7636 C   0  0  0  0  0  0
  -30.4635  -19.7765   20.7037 C   0  0  0  0  0  0
  -29.0161  -20.6591   18.0726 C   0  0  0  0  0  0
  -27.9208  -25.0160   19.8556 C   0  0  0  0  0  0
  -27.5719  -20.1402   17.9586 C   0  0  0  0  0  0
  -29.6627  -18.4055   20.7161 C   0  0  0  0  0  0
  -30.6034  -17.1283   20.7146 C   0  0  0  0  0  0
  -29.3394  -23.4559   21.2621 N   0  0  0  0  0  0
  -28.7496  -22.8504   19.0813 N   0  0  0  0  0  0
  -30.0021  -15.7516   20.7624 N   0  0  0  0  0  0
  -31.4648  -12.4621   19.1529 H   0  0  0  0  0  0
  -30.3301  -11.3910   19.9241 H   0  0  0  0  0  0
  -29.7614  -11.7251   17.4895 H   0  0  0  0  0  0
  -29.6378  -13.4515   17.7395 H   0  0  0  0  0  0
  -27.8783  -11.2734   18.9111 H   0  0  0  0  0  0
  -27.3637  -12.5191   17.8054 H   0  0  0  0  0  0
  -27.6560  -14.2461   19.4838 H   0  0  0  0  0  0
  -28.6992  -12.1378   21.4412 H   0  0  0  0  0  0
  -28.4533  -13.8281   21.7934 H   0  0  0  0  0  0
  -25.2763   -9.5693   22.4765 H   0  0  0  0  0  0
  -24.0009   -7.4642   22.7480 H   0  0  0  0  0  0
  -21.0856   -8.8776   19.8946 H   0  0  0  0  0  0
  -22.3716  -10.9675   19.6163 H   0  0  0  0  0  0
  -21.2021   -7.6145   23.9717 H   0  0  0  0  0  0
  -21.1480   -6.0528   25.9078 H   0  0  0  0  0  0
  -22.0592   -2.7616   23.2852 H   0  0  0  0  0  0
  -22.4130  -11.9823   22.4736 H   0  0  0  0  0  0
  -21.1137  -13.1209   22.2679 H   0  0  0  0  0  0
  -24.6563  -15.8449   20.5194 H   0  0  0  0  0  0
  -26.2743  -15.6335   20.0836 H   0  0  0  0  0  0
  -26.7204  -32.5479   23.1126 H   0  0  0  0  0  0
  -25.0286  -33.9747   25.0575 H   0  0  0  0  0  0
  -22.7116  -31.3184   21.4212 H   0  0  0  0  0  0
  -23.3770  -35.9609   23.3282 H   0  0  0  0  0  0
  -24.3588  -36.8926   22.2041 H   0  0  0  0  0  0
  -23.7237  -37.6489   23.6655 H   0  0  0  0  0  0
  -26.0974  -31.5594   20.6157 H   0  0  0  0  0  0
  -26.8453  -30.8395   22.0106 H   0  0  0  0  0  0
  -28.1083  -28.9576   21.2031 H   0  0  0  0  0  0
  -25.8763  -26.0145   18.9127 H   0  0  0  0  0  0
  -23.9474  -27.3797   18.9737 H   0  0  0  0  0  0
  -23.7536  -30.6373   19.4191 H   0  0  0  0  0  0
  -22.7471  -29.2895   19.8540 H   0  0  0  0  0  0
  -25.1284  -36.1951   25.0819 H   0  0  0  0  0  0
  -20.9984  -28.3275   24.1404 H   0  0  0  0  0  0
  -20.5755  -26.2290   23.3578 H   0  0  0  0  0  0
  -21.6652  -26.7485   22.1136 H   0  0  0  0  0  0
  -19.6906  -25.6295   21.1247 H   0  0  0  0  0  0
  -19.6691  -27.3189   20.6735 H   0  0  0  0  0  0
  -17.4198  -26.6718   21.4010 H   0  0  0  0  0  0
  -18.0300  -26.0065   22.8995 H   0  0  0  0  0  0
  -19.7951  -30.7290   24.2233 H   0  0  0  0  0  0
  -17.5030  -31.6278   24.5160 H   0  0  0  0  0  0
  -15.5364  -30.2995   23.7669 H   0  0  0  0  0  0
  -15.8681  -28.0840   22.7062 H   0  0  0  0  0  0
  -24.5963  -30.7037   25.7803 H   0  0  0  0  0  0
  -24.8944  -32.2841   26.4931 H   0  0  0  0  0  0
  -25.8115  -30.8868   27.0241 H   0  0  0  0  0  0
  -26.2988  -29.6789   24.1191 H   0  0  0  0  0  0
  -27.4199  -29.7309   25.4612 H   0  0  0  0  0  0
  -27.8806  -30.4410   23.9331 H   0  0  0  0  0  0
  -27.2690  -33.3680   26.2055 H   0  0  0  0  0  0
  -28.3926  -32.6883   25.0389 H   0  0  0  0  0  0
  -28.0704  -31.8514   26.5502 H   0  0  0  0  0  0
  -28.2573  -38.0123   24.7566 H   0  0  0  0  0  0
  -28.1122  -36.2664   24.6255 H   0  0  0  0  0  0
  -27.2290  -37.1399   25.8857 H   0  0  0  0  0  0
  -20.9366  -29.8881   21.6993 H   0  0  0  0  0  0
  -26.0183  -38.2867   24.1437 H   0  0  0  0  0  0
  -30.2703  -22.0112   22.4248 H   0  0  0  0  0  0
  -26.3449  -18.8359   16.7182 H   0  0  0  0  0  0
  -28.0291  -18.3294   16.8324 H   0  0  0  0  0  0
  -27.5873  -19.7054   15.8226 H   0  0  0  0  0  0
  -31.0205  -19.8378   21.6405 H   0  0  0  0  0  0
  -31.2389  -19.7055   19.9387 H   0  0  0  0  0  0
  -29.7109  -19.8236   18.1305 H   0  0  0  0  0  0
  -29.2866  -21.2003   17.1643 H   0  0  0  0  0  0
  -27.0100  -24.7686   20.4044 H   0  0  0  0  0  0
  -27.6749  -24.9944   18.7923 H   0  0  0  0  0  0
  -27.2987  -19.6240   18.8792 H   0  0  0  0  0  0
  -26.8860  -20.9843   17.8761 H   0  0  0  0  0  0
  -29.0090  -18.3473   19.8478 H   0  0  0  0  0  0
  -29.0095  -18.3801   21.5886 H   0  0  0  0  0  0
  -31.2986  -17.2067   21.5515 H   0  0  0  0  0  0
  -31.2224  -17.1872   19.8171 H   0  0  0  0  0  0
  -29.0186  -15.6632   20.9680 H   0  0  0  0  0  0
  1 25  1  0  0  0
  1 30  2  0  0  0
  1 84  1  0  0  0
  2  3  1  0  0  0
  2 25  1  0  0  0
  2 85  1  0  0  0
  2 86  1  0  0  0
  3  4  1  0  0  0
  3 87  1  0  0  0
  3 88  1  0  0  0
  4  5  1  0  0  0
  4 89  1  0  0  0
  4 90  1  0  0  0
  5  6  1  0  0  0
  5 26  1  0  0  0
  5 91  1  0  0  0
  6 25  1  0  0  0
  6 92  1  0  0  0
  6 93  1  0  0  0
  7  8  2  0  0  0
  7 26  1  0  0  0
  7 29  1  0  0  0
  8  9  1  0  0  0
  8 22  1  0  0  0
  9 10  1  0  0  0
  9 27  2  0  0  0
 10 11  2  0  0  0
 10 15  1  0  0  0
 11 12  1  0  0  0
 11 94  1  0  0  0
 12 13  2  0  0  0
 12 95  1  0  0  0
 13 14  1  0  0  0
 13 31  1  0  0  0
 14 15  2  0  0  0
 14 96  1  0  0  0
 15 97  1  0  0  0
 16 17  2  0  0  0
 16 21  1  0  0  0
 16 31  1  0  0  0
 17 18  1  0  0  0
 17 98  1  0  0  0
 18 19  2  0  0  0
 18 99  1  0  0  0
 19 20  1  0  0  0
 19 24  1  0  0  0
 20 21  2  0  0  0
 20100  1  0  0  0
 21 23  1  0  0  0
 22 28  1  0  0  0
 22 32  2  0  0  0
 26 27  1  0  0  0
 28101  1  0  0  0
 28102  1  0  0  0
 29103  1  0  0  0
 29104  1  0  0  0
 33 34  1  0  0  0
 33 66  1  0  0  0
 33 70  2  0  0  0
 34 36  1  0  0  0
 34 59  1  0  0  0
 34105  1  0  0  0
 35 44  2  0  0  0
 35 45  1  0  0  0
 35 68  1  0  0  0
 36 56  1  0  0  0
 36106  1  0  0  0
 37 39  1  0  0  0
 37 47  1  0  0  0
 37 66  1  0  0  0
 37107  1  0  0  0
 38 43  2  0  0  0
 38 46  1  0  0  0
 38 47  1  0  0  0
 39 64  1  0  0  0
 39 67  2  0  0  0
 40 52  1  0  0  0
 40 53  2  0  0  0
 40 58  1  0  0  0
 41108  1  0  0  0
 41109  1  0  0  0
 41110  1  0  0  0
 41 48  1  0  0  0
 42 43  1  0  0  0
 42 66  1  0  0  0
 42111  1  0  0  0
 42112  1  0  0  0
 43 44  1  0  0  0
 44113  1  0  0  0
 45 46  2  0  0  0
 45114  1  0  0  0
 46115  1  0  0  0
 47116  1  0  0  0
 47117  1  0  0  0
 48 56  1  0  0  0
 48 65  1  0  0  0
 48118  1  0  0  0
 49 50  1  0  0  0
 49 53  1  0  0  0
 49 64  1  0  0  0
 49119  1  0  0  0
 50 51  1  0  0  0
 50120  1  0  0  0
 50121  1  0  0  0
 51 52  1  0  0  0
 51122  1  0  0  0
 51123  1  0  0  0
 52124  1  0  0  0
 52125  1  0  0  0
 53 54  1  0  0  0
 54 55  2  0  0  0
 54126  1  0  0  0
 55 57  1  0  0  0
 55127  1  0  0  0
 56 69  2  0  0  0
 57 58  2  0  0  0
 57128  1  0  0  0
 58129  1  0  0  0
 59 60  1  0  0  0
 59 61  1  0  0  0
 59 62  1  0  0  0
 60130  1  0  0  0
 60131  1  0  0  0
 60132  1  0  0  0
 61133  1  0  0  0
 61134  1  0  0  0
 61135  1  0  0  0
 62136  1  0  0  0
 62137  1  0  0  0
 62138  1  0  0  0
 63 65  1  0  0  0
 63139  1  0  0  0
 63140  1  0  0  0
 63141  1  0  0  0
 64142  1  0  0  0
 65143  1  0  0  0
 68 78  1  0  0  0
 71 72  2  0  0  0
 71 82  1  0  0  0
 71144  1  0  0  0
 72 73  1  0  0  0
 72 76  1  0  0  0
 73 77  1  0  0  0
 73 83  2  0  0  0
 74 78  1  0  0  0
 74 82  2  0  0  0
 74 83  1  0  0  0
 75 79  1  0  0  0
 75145  1  0  0  0
 75146  1  0  0  0
 75147  1  0  0  0
 76 80  1  0  0  0
 76148  1  0  0  0
 76149  1  0  0  0
 77 79  1  0  0  0
 77150  1  0  0  0
 77151  1  0  0  0
 78152  1  0  0  0
 78153  1  0  0  0
 79154  1  0  0  0
 79155  1  0  0  0
 80 81  1  0  0  0
 80156  1  0  0  0
 80157  1  0  0  0
 81 84  1  0  0  0
 81158  1  0  0  0
 81159  1  0  0  0
 84160  1  0  0  0
M  ISO  4   1 100  68 101  78 101  84 100
M  END
> <chiral flag>
0

> <version>
0

> <s_m_source_file>
/data/baiqing/PycharmProjects/Reinvent-master-3.2/result/LINK_invent/BTK/process_docking_weight1_custom_sum_contain_oxygen_bond_distance_aromatic_linkinvent_7_9_3/rearranged_h_0039.sdf

> <i_m_source_file_index>
75

> <r_mmod_Potential_Energy-OPLS-2005>
-267.663482666016

> <r_mmod_Stretch_Energy-OPLS-2005>
71.8356246948242

> <r_mmod_Bend_Energy-OPLS-2005>
153.004043579102

> <r_mmod_Torsional_Energy-OPLS-2005>
196.107055664062

> <r_mmod_Improper_Torsional_Energy-OPLS-2005>
7.97789764404297

> <r_mmod_Van_der_Waal_Energy-OPLS-2005>
163.610122680664

> <r_mmod_Electrostatic_Energy-OPLS-2005>
-682.020690917969

> <r_mmod_Solvation_Energy-OPLS-2005>
-230.446502685547

> <b_mmod_Minimization_Converged-OPLS-2005>
0

> <r_mmod_RMS_Derivative-OPLS-2005>
1.67298650741577

$$$$
76
                    3D
 Structure written by MMmdl.
160168  0  0  1  0            999 V2000
  -30.7133  -14.4443   20.5868 C   0  0  0  0  0  0
  -30.4286  -12.2902   19.4240 C   0  0  0  0  0  0
  -29.5036  -12.5097   18.2092 C   0  0  0  0  0  0
  -28.0220  -12.3779   18.6148 C   0  0  0  0  0  0
  -27.6706  -13.2049   19.8812 C   0  0  2  0  0  0
  -28.7113  -12.9610   21.0004 C   0  0  0  0  0  0
  -25.2636  -13.8160   20.5693 C   0  0  0  0  0  0
  -24.1868  -13.0446   20.9162 C   0  0  0  0  0  0
  -24.6418  -11.6911   20.8712 C   0  0  0  0  0  0
  -23.9076  -10.4301   21.0395 C   0  0  0  0  0  0
  -24.3626   -9.4224   21.9176 C   0  0  0  0  0  0
  -23.6299   -8.2261   22.0753 C   0  0  0  0  0  0
  -22.4274   -8.0303   21.3551 C   0  0  0  0  0  0
  -21.9915   -9.0265   20.4648 C   0  0  0  0  0  0
  -22.7246  -10.2143   20.3051 C   0  0  0  0  0  0
  -21.6858   -6.0741   22.5269 C   0  0  0  0  0  0
  -21.4019   -6.5641   23.8207 C   0  0  0  0  0  0
  -21.3667   -5.6790   24.9166 C   0  0  0  0  0  0
  -21.6045   -4.3055   24.7223 C   0  0  0  0  0  0
  -21.8826   -3.8150   23.4342 C   0  0  0  0  0  0
  -21.9197   -4.6968   22.3392 C   0  0  0  0  0  0
  -22.7885  -13.5251   21.1808 C   0  0  0  0  0  0
  -22.1660   -4.2157   21.0966 F   0  0  0  0  0  0
  -21.5641   -3.4539   25.7736 F   0  0  0  0  0  0
  -30.0503  -13.2619   20.4619 N   0  0  0  0  0  0
  -26.3083  -12.9327   20.3389 N   0  0  0  0  0  0
  -25.9348  -11.6493   20.5749 N   0  0  0  0  0  0
  -22.0508  -12.8278   22.0372 N   0  0  0  0  0  0
  -25.4385  -15.1880   20.4104 N   0  0  0  0  0  0
  -31.8057  -14.6669   20.0595 O   0  0  0  0  0  0
  -21.6651   -6.8887   21.4234 O   0  0  0  0  0  0
  -22.3572  -14.5554   20.6653 O   0  0  0  0  0  0
  -24.6154  -31.8680   23.2128 C   0  0  0  0  0  0
  -25.9052  -32.4821   23.8405 C   0  0  1  0  0  0
  -27.2292  -27.4232   20.0804 C   0  0  0  0  0  0
  -25.5917  -33.8624   24.2330 N   0  0  0  0  0  0
  -23.4032  -30.4952   21.5534 C   0  0  2  0  0  0
  -24.8467  -28.9677   20.1115 C   0  0  0  0  0  0
  -22.7411  -29.4668   22.4983 C   0  0  0  0  0  0
  -18.0270  -28.1385   22.8484 C   0  0  0  0  0  0
  -24.1489  -36.7316   23.2634 C   0  0  0  0  0  0
  -25.9356  -30.8282   21.3701 C   0  0  0  0  0  0
  -26.0103  -29.4645   20.7124 C   0  0  0  0  0  0
  -27.2012  -28.6988   20.6974 C   0  0  0  0  0  0
  -26.0414  -26.9587   19.4601 C   0  0  0  0  0  0
  -24.8587  -27.7147   19.4840 C   0  0  0  0  0  0
  -23.6106  -29.8346   20.1659 C   0  0  0  0  0  0
  -25.4110  -36.3107   24.0329 C   0  0  1  0  0  0
  -20.5860  -28.3668   23.1317 C   0  0  2  0  0  0
  -20.6765  -26.9405   22.5418 C   0  0  0  0  0  0
  -19.5748  -26.6389   21.5217 C   0  0  0  0  0  0
  -18.1923  -26.7934   22.1617 C   0  0  0  0  0  0
  -19.1516  -28.8846   23.2900 C   0  0  0  0  0  0
  -18.9450  -30.1451   23.8903 C   0  0  0  0  0  0
  -17.6452  -30.6588   24.0569 C   0  0  0  0  0  0
  -25.9039  -34.9477   23.5115 C   0  0  0  0  0  0
  -16.5343  -29.9092   23.6329 C   0  0  0  0  0  0
  -16.7259  -28.6515   23.0337 C   0  0  0  0  0  0
  -26.4480  -31.6602   25.0731 C   0  0  0  0  0  0
  -25.3746  -31.3725   26.1477 C   0  0  0  0  0  0
  -27.0308  -30.3040   24.6124 C   0  0  0  0  0  0
  -27.6051  -32.4324   25.7489 C   0  0  0  0  0  0
  -27.5583  -37.1809   24.8461 C   0  0  0  0  0  0
  -21.4138  -29.3041   22.3727 N   0  0  0  0  0  0
  -26.4298  -37.3796   23.9400 N   0  0  0  0  0  0
  -24.6698  -31.0774   22.1034 N   0  0  0  0  0  0
  -23.4187  -28.8194   23.3016 O   0  0  0  0  0  0
  -28.3935  -26.6691   20.1110 O   0  0  0  0  0  0
  -26.5593  -34.8926   22.4675 O   0  0  0  0  0  0
  -23.5344  -32.1446   23.7519 O   0  0  0  0  0  0
  -30.6822  -22.5068   19.5420 C   0  0  0  0  0  0
  -31.2317  -22.4730   20.8326 C   0  0  0  0  0  0
  -30.7964  -23.4865   21.7096 C   0  0  0  0  0  0
  -29.4315  -24.3541   20.0763 C   0  0  0  0  0  0
  -31.3152  -23.6141   23.1274 C   0  0  0  0  0  0
  -32.3223  -21.4568   21.1906 C   0  0  0  0  0  0
  -28.2847  -25.2923   19.6862 C   0  0  0  0  0  0
  -31.8737  -20.1703   21.9286 C   0  0  0  0  0  0
  -31.0247  -19.1942   21.0884 C   0  0  0  0  0  0
  -31.0053  -17.7383   21.6216 C   0  0  0  0  0  0
  -30.0749  -16.8438   20.7740 C   0  0  0  0  0  0
  -29.7884  -23.4428   19.1733 N   0  0  0  0  0  0
  -29.8968  -24.4141   21.3232 N   0  0  0  0  0  0
  -30.0122  -15.4297   21.1709 N   0  0  0  0  0  0
  -31.4753  -12.3815   19.1271 H   0  0  0  0  0  0
  -30.3163  -11.2764   19.8081 H   0  0  0  0  0  0
  -29.7401  -11.7929   17.4219 H   0  0  0  0  0  0
  -29.6822  -13.4997   17.7868 H   0  0  0  0  0  0
  -27.8196  -11.3207   18.7934 H   0  0  0  0  0  0
  -27.3802  -12.6735   17.7839 H   0  0  0  0  0  0
  -27.7228  -14.2553   19.5979 H   0  0  0  0  0  0
  -28.6792  -11.9177   21.3151 H   0  0  0  0  0  0
  -28.4743  -13.5418   21.8929 H   0  0  0  0  0  0
  -25.2773   -9.5704   22.4743 H   0  0  0  0  0  0
  -24.0006   -7.4666   22.7484 H   0  0  0  0  0  0
  -21.0849   -8.8790   19.8959 H   0  0  0  0  0  0
  -22.3703  -10.9680   19.6167 H   0  0  0  0  0  0
  -21.1973   -7.6138   23.9720 H   0  0  0  0  0  0
  -21.1496   -6.0509   25.9078 H   0  0  0  0  0  0
  -22.0584   -2.7615   23.2841 H   0  0  0  0  0  0
  -22.4095  -11.9949   22.4793 H   0  0  0  0  0  0
  -21.1122  -13.1325   22.2527 H   0  0  0  0  0  0
  -24.6797  -15.8499   20.5268 H   0  0  0  0  0  0
  -26.2991  -15.6251   20.1041 H   0  0  0  0  0  0
  -26.7115  -32.5529   23.1157 H   0  0  0  0  0  0
  -25.0087  -33.9793   25.0486 H   0  0  0  0  0  0
  -22.6909  -31.3118   21.4184 H   0  0  0  0  0  0
  -23.3747  -35.9656   23.3305 H   0  0  0  0  0  0
  -24.3584  -36.8926   22.2046 H   0  0  0  0  0  0
  -23.7252  -37.6526   23.6649 H   0  0  0  0  0  0
  -26.0509  -31.5971   20.6044 H   0  0  0  0  0  0
  -26.8223  -30.8777   21.9907 H   0  0  0  0  0  0
  -28.0966  -29.0776   21.1706 H   0  0  0  0  0  0
  -25.9907  -26.0140   18.9402 H   0  0  0  0  0  0
  -23.9664  -27.3326   19.0062 H   0  0  0  0  0  0
  -23.7174  -30.6130   19.4096 H   0  0  0  0  0  0
  -22.7339  -29.2553   19.8693 H   0  0  0  0  0  0
  -25.1289  -36.1965   25.0825 H   0  0  0  0  0  0
  -20.9945  -28.3237   24.1442 H   0  0  0  0  0  0
  -20.5675  -26.2273   23.3606 H   0  0  0  0  0  0
  -21.6636  -26.7460   22.1203 H   0  0  0  0  0  0
  -19.6906  -25.6302   21.1242 H   0  0  0  0  0  0
  -19.6691  -27.3198   20.6752 H   0  0  0  0  0  0
  -17.4195  -26.6680   21.4022 H   0  0  0  0  0  0
  -18.0319  -26.0077   22.9012 H   0  0  0  0  0  0
  -19.7928  -30.7276   24.2259 H   0  0  0  0  0  0
  -17.5011  -31.6267   24.5174 H   0  0  0  0  0  0
  -15.5348  -30.2997   23.7663 H   0  0  0  0  0  0
  -15.8661  -28.0859   22.7025 H   0  0  0  0  0  0
  -24.5915  -30.7069   25.7828 H   0  0  0  0  0  0
  -24.8941  -32.2889   26.4920 H   0  0  0  0  0  0
  -25.8096  -30.8904   27.0238 H   0  0  0  0  0  0
  -26.2859  -29.6800   24.1171 H   0  0  0  0  0  0
  -27.4057  -29.7280   25.4592 H   0  0  0  0  0  0
  -27.8705  -30.4346   23.9293 H   0  0  0  0  0  0
  -27.2664  -33.3608   26.2108 H   0  0  0  0  0  0
  -28.3845  -32.6915   25.0308 H   0  0  0  0  0  0
  -28.0742  -31.8428   26.5376 H   0  0  0  0  0  0
  -28.2600  -38.0106   24.7505 H   0  0  0  0  0  0
  -28.1075  -36.2635   24.6284 H   0  0  0  0  0  0
  -27.2299  -37.1459   25.8865 H   0  0  0  0  0  0
  -20.9286  -29.8777   21.6965 H   0  0  0  0  0  0
  -26.0177  -38.2871   24.1415 H   0  0  0  0  0  0
  -30.9726  -21.7873   18.7903 H   0  0  0  0  0  0
  -32.3482  -23.9627   23.1239 H   0  0  0  0  0  0
  -31.2749  -22.6555   23.6416 H   0  0  0  0  0  0
  -30.7228  -24.3221   23.7066 H   0  0  0  0  0  0
  -33.0748  -21.9634   21.7955 H   0  0  0  0  0  0
  -32.8495  -21.1755   20.2770 H   0  0  0  0  0  0
  -27.3956  -24.8274   20.1164 H   0  0  0  0  0  0
  -28.1688  -25.2734   18.6007 H   0  0  0  0  0  0
  -31.3574  -20.4131   22.8565 H   0  0  0  0  0  0
  -32.7819  -19.6466   22.2349 H   0  0  0  0  0  0
  -31.4041  -19.1774   20.0659 H   0  0  0  0  0  0
  -30.0057  -19.5785   21.0255 H   0  0  0  0  0  0
  -30.6872  -17.7234   22.6659 H   0  0  0  0  0  0
  -32.0174  -17.3305   21.6016 H   0  0  0  0  0  0
  -30.3605  -16.9134   19.7226 H   0  0  0  0  0  0
  -29.0597  -17.2371   20.8287 H   0  0  0  0  0  0
  -29.1672  -15.1341   21.6368 H   0  0  0  0  0  0
  1 25  1  0  0  0
  1 30  2  0  0  0
  1 84  1  0  0  0
  2  3  1  0  0  0
  2 25  1  0  0  0
  2 85  1  0  0  0
  2 86  1  0  0  0
  3  4  1  0  0  0
  3 87  1  0  0  0
  3 88  1  0  0  0
  4  5  1  0  0  0
  4 89  1  0  0  0
  4 90  1  0  0  0
  5  6  1  0  0  0
  5 26  1  0  0  0
  5 91  1  0  0  0
  6 25  1  0  0  0
  6 92  1  0  0  0
  6 93  1  0  0  0
  7  8  2  0  0  0
  7 26  1  0  0  0
  7 29  1  0  0  0
  8  9  1  0  0  0
  8 22  1  0  0  0
  9 10  1  0  0  0
  9 27  2  0  0  0
 10 11  2  0  0  0
 10 15  1  0  0  0
 11 12  1  0  0  0
 11 94  1  0  0  0
 12 13  2  0  0  0
 12 95  1  0  0  0
 13 14  1  0  0  0
 13 31  1  0  0  0
 14 15  2  0  0  0
 14 96  1  0  0  0
 15 97  1  0  0  0
 16 17  2  0  0  0
 16 21  1  0  0  0
 16 31  1  0  0  0
 17 18  1  0  0  0
 17 98  1  0  0  0
 18 19  2  0  0  0
 18 99  1  0  0  0
 19 20  1  0  0  0
 19 24  1  0  0  0
 20 21  2  0  0  0
 20100  1  0  0  0
 21 23  1  0  0  0
 22 28  1  0  0  0
 22 32  2  0  0  0
 26 27  1  0  0  0
 28101  1  0  0  0
 28102  1  0  0  0
 29103  1  0  0  0
 29104  1  0  0  0
 33 34  1  0  0  0
 33 66  1  0  0  0
 33 70  2  0  0  0
 34 36  1  0  0  0
 34 59  1  0  0  0
 34105  1  0  0  0
 35 44  2  0  0  0
 35 45  1  0  0  0
 35 68  1  0  0  0
 36 56  1  0  0  0
 36106  1  0  0  0
 37 39  1  0  0  0
 37 47  1  0  0  0
 37 66  1  0  0  0
 37107  1  0  0  0
 38 43  2  0  0  0
 38 46  1  0  0  0
 38 47  1  0  0  0
 39 64  1  0  0  0
 39 67  2  0  0  0
 40 52  1  0  0  0
 40 53  2  0  0  0
 40 58  1  0  0  0
 41108  1  0  0  0
 41109  1  0  0  0
 41110  1  0  0  0
 41 48  1  0  0  0
 42 43  1  0  0  0
 42 66  1  0  0  0
 42111  1  0  0  0
 42112  1  0  0  0
 43 44  1  0  0  0
 44113  1  0  0  0
 45 46  2  0  0  0
 45114  1  0  0  0
 46115  1  0  0  0
 47116  1  0  0  0
 47117  1  0  0  0
 48 56  1  0  0  0
 48 65  1  0  0  0
 48118  1  0  0  0
 49 50  1  0  0  0
 49 53  1  0  0  0
 49 64  1  0  0  0
 49119  1  0  0  0
 50 51  1  0  0  0
 50120  1  0  0  0
 50121  1  0  0  0
 51 52  1  0  0  0
 51122  1  0  0  0
 51123  1  0  0  0
 52124  1  0  0  0
 52125  1  0  0  0
 53 54  1  0  0  0
 54 55  2  0  0  0
 54126  1  0  0  0
 55 57  1  0  0  0
 55127  1  0  0  0
 56 69  2  0  0  0
 57 58  2  0  0  0
 57128  1  0  0  0
 58129  1  0  0  0
 59 60  1  0  0  0
 59 61  1  0  0  0
 59 62  1  0  0  0
 60130  1  0  0  0
 60131  1  0  0  0
 60132  1  0  0  0
 61133  1  0  0  0
 61134  1  0  0  0
 61135  1  0  0  0
 62136  1  0  0  0
 62137  1  0  0  0
 62138  1  0  0  0
 63 65  1  0  0  0
 63139  1  0  0  0
 63140  1  0  0  0
 63141  1  0  0  0
 64142  1  0  0  0
 65143  1  0  0  0
 68 77  1  0  0  0
 71 72  2  0  0  0
 71 82  1  0  0  0
 71144  1  0  0  0
 72 73  1  0  0  0
 72 76  1  0  0  0
 73 75  1  0  0  0
 73 83  2  0  0  0
 74 77  1  0  0  0
 74 82  2  0  0  0
 74 83  1  0  0  0
 75145  1  0  0  0
 75146  1  0  0  0
 75147  1  0  0  0
 76 78  1  0  0  0
 76148  1  0  0  0
 76149  1  0  0  0
 77150  1  0  0  0
 77151  1  0  0  0
 78 79  1  0  0  0
 78152  1  0  0  0
 78153  1  0  0  0
 79 80  1  0  0  0
 79154  1  0  0  0
 79155  1  0  0  0
 80 81  1  0  0  0
 80156  1  0  0  0
 80157  1  0  0  0
 81 84  1  0  0  0
 81158  1  0  0  0
 81159  1  0  0  0
 84160  1  0  0  0
M  ISO  4   1 100  68 101  77 101  84 100
M  END
> <chiral flag>
0

> <version>
0

> <s_m_source_file>
/data/baiqing/PycharmProjects/Reinvent-master-3.2/result/LINK_invent/BTK/process_docking_weight1_custom_sum_contain_oxygen_bond_distance_aromatic_linkinvent_7_9_3/rearranged_h_0039.sdf

> <i_m_source_file_index>
76

> <r_mmod_Potential_Energy-OPLS-2005>
-422.855773925781

> <r_mmod_Stretch_Energy-OPLS-2005>
36.9894218444824

> <r_mmod_Bend_Energy-OPLS-2005>
101.918243408203

> <r_mmod_Torsional_Energy-OPLS-2005>
204.187286376953

> <r_mmod_Improper_Torsional_Energy-OPLS-2005>
6.36573076248169

> <r_mmod_Van_der_Waal_Energy-OPLS-2005>
163.303970336914

> <r_mmod_Electrostatic_Energy-OPLS-2005>
-712.951721191406

> <r_mmod_Solvation_Energy-OPLS-2005>
-234.838668823242

> <b_mmod_Minimization_Converged-OPLS-2005>
0

> <r_mmod_RMS_Derivative-OPLS-2005>
2.12113857269287

$$$$
77
                    3D
 Structure written by MMmdl.
172180  0  0  1  0            999 V2000
  -30.8529  -14.2838   20.7453 C   0  0  0  0  0  0
  -30.4037  -12.2856   19.3811 C   0  0  0  0  0  0
  -29.4738  -12.5479   18.1869 C   0  0  0  0  0  0
  -28.0061  -12.3827   18.6126 C   0  0  0  0  0  0
  -27.6686  -13.2098   19.8783 C   0  0  2  0  0  0
  -28.7091  -12.9806   20.9996 C   0  0  0  0  0  0
  -25.2611  -13.8181   20.5699 C   0  0  0  0  0  0
  -24.1857  -13.0461   20.9161 C   0  0  0  0  0  0
  -24.6427  -11.6920   20.8736 C   0  0  0  0  0  0
  -23.9083  -10.4302   21.0402 C   0  0  0  0  0  0
  -24.3634   -9.4214   21.9169 C   0  0  0  0  0  0
  -23.6301   -8.2263   22.0754 C   0  0  0  0  0  0
  -22.4272   -8.0310   21.3548 C   0  0  0  0  0  0
  -21.9924   -9.0280   20.4636 C   0  0  0  0  0  0
  -22.7271  -10.2150   20.3036 C   0  0  0  0  0  0
  -21.6847   -6.0750   22.5280 C   0  0  0  0  0  0
  -21.4013   -6.5657   23.8221 C   0  0  0  0  0  0
  -21.3660   -5.6801   24.9185 C   0  0  0  0  0  0
  -21.6045   -4.3060   24.7230 C   0  0  0  0  0  0
  -21.8814   -3.8158   23.4346 C   0  0  0  0  0  0
  -21.9191   -4.6975   22.3401 C   0  0  0  0  0  0
  -22.7878  -13.5244   21.1837 C   0  0  0  0  0  0
  -22.1654   -4.2170   21.0967 F   0  0  0  0  0  0
  -21.5638   -3.4542   25.7739 F   0  0  0  0  0  0
  -30.0652  -13.2176   20.4641 N   0  0  0  0  0  0
  -26.3083  -12.9381   20.3401 N   0  0  0  0  0  0
  -25.9351  -11.6528   20.5776 N   0  0  0  0  0  0
  -22.0508  -12.8222   22.0396 N   0  0  0  0  0  0
  -25.4340  -15.1922   20.4118 N   0  0  0  0  0  0
  -31.7574  -14.6838   20.0055 O   0  0  0  0  0  0
  -21.6637   -6.8907   21.4244 O   0  0  0  0  0  0
  -22.3553  -14.5552   20.6694 O   0  0  0  0  0  0
  -24.6084  -31.8706   23.2134 C   0  0  0  0  0  0
  -25.9031  -32.4824   23.8395 C   0  0  1  0  0  0
  -27.2185  -27.4755   20.0759 C   0  0  0  0  0  0
  -25.5909  -33.8619   24.2345 N   0  0  0  0  0  0
  -23.3914  -30.4944   21.5547 C   0  0  2  0  0  0
  -24.8351  -28.9696   20.1129 C   0  0  0  0  0  0
  -22.7387  -29.4612   22.5003 C   0  0  0  0  0  0
  -18.0251  -28.1389   22.8449 C   0  0  0  0  0  0
  -24.1498  -36.7317   23.2614 C   0  0  0  0  0  0
  -25.9134  -30.8510   21.3541 C   0  0  0  0  0  0
  -25.9944  -29.4876   20.7041 C   0  0  0  0  0  0
  -27.1915  -28.7416   20.6922 C   0  0  0  0  0  0
  -26.0501  -26.9626   19.4754 C   0  0  0  0  0  0
  -24.8526  -27.7022   19.5023 C   0  0  0  0  0  0
  -23.5965  -29.8308   20.1699 C   0  0  0  0  0  0
  -25.4117  -36.3111   24.0328 C   0  0  1  0  0  0
  -20.5841  -28.3649   23.1338 C   0  0  2  0  0  0
  -20.6774  -26.9408   22.5431 C   0  0  0  0  0  0
  -19.5774  -26.6409   21.5204 C   0  0  0  0  0  0
  -18.1912  -26.7928   22.1586 C   0  0  0  0  0  0
  -19.1499  -28.8831   23.2862 C   0  0  0  0  0  0
  -18.9459  -30.1432   23.8881 C   0  0  0  0  0  0
  -17.6462  -30.6593   24.0537 C   0  0  0  0  0  0
  -25.9054  -34.9481   23.5131 C   0  0  0  0  0  0
  -16.5328  -29.9111   23.6310 C   0  0  0  0  0  0
  -16.7245  -28.6529   23.0321 C   0  0  0  0  0  0
  -26.4505  -31.6556   25.0681 C   0  0  0  0  0  0
  -25.3773  -31.3640   26.1414 C   0  0  0  0  0  0
  -27.0338  -30.3000   24.6018 C   0  0  0  0  0  0
  -27.6101  -32.4234   25.7467 C   0  0  0  0  0  0
  -27.5578  -37.1777   24.8451 C   0  0  0  0  0  0
  -21.4117  -29.2998   22.3737 N   0  0  0  0  0  0
  -26.4288  -37.3806   23.9414 N   0  0  0  0  0  0
  -24.6564  -31.0852   22.1005 N   0  0  0  0  0  0
  -23.4163  -28.8144   23.2996 O   0  0  0  0  0  0
  -28.3568  -26.7160   20.1122 O   0  0  0  0  0  0
  -26.5625  -34.8934   22.4694 O   0  0  0  0  0  0
  -23.5308  -32.1453   23.7543 O   0  0  0  0  0  0
  -28.7620  -22.2453   23.5212 C   0  0  0  0  0  0
  -27.6600  -21.3547   23.5360 C   0  0  0  0  0  0
  -26.8163  -22.3707   21.6303 C   0  0  0  0  0  0
  -27.9408  -23.2479   21.6054 C   0  0  0  0  0  0
  -29.8540  -22.2217   24.5740 C   0  0  0  0  0  0
  -24.6004  -23.3972   20.8252 C   0  0  0  0  0  0
  -25.7093  -22.3595   20.5820 C   0  0  0  0  0  0
  -27.5292  -20.2073   24.5273 C   0  0  0  0  0  0
  -28.1948  -24.2969   20.5291 C   0  0  0  0  0  0
  -27.9356  -18.8457   23.9249 C   0  0  0  0  0  0
  -29.4264  -18.7203   23.5552 C   0  0  0  0  0  0
  -29.8058  -17.2716   23.2153 C   0  0  0  0  0  0
  -31.2422  -17.0916   22.6993 C   0  0  0  0  0  0
  -31.6840  -15.6154   22.6842 C   0  0  0  0  0  0
  -28.2963  -25.7120   21.1276 C   0  0  0  0  0  0
  -28.9036  -23.1780   22.5538 N   0  0  0  0  0  0
  -26.6786  -21.4386   22.6053 N   0  0  0  0  0  0
  -30.7370  -14.7327   21.9996 N   0  0  0  0  0  0
  -31.4488  -12.3650   19.0765 H   0  0  0  0  0  0
  -30.2803  -11.2613   19.7377 H   0  0  0  0  0  0
  -29.7053  -11.8650   17.3685 H   0  0  0  0  0  0
  -29.6394  -13.5567   17.8058 H   0  0  0  0  0  0
  -27.8274  -11.3237   18.8020 H   0  0  0  0  0  0
  -27.3432  -12.6650   17.7939 H   0  0  0  0  0  0
  -27.7196  -14.2611   19.5948 H   0  0  0  0  0  0
  -28.6527  -11.9571   21.3703 H   0  0  0  0  0  0
  -28.4703  -13.6218   21.8481 H   0  0  0  0  0  0
  -25.2785   -9.5687   22.4752 H   0  0  0  0  0  0
  -24.0009   -7.4642   22.7475 H   0  0  0  0  0  0
  -21.0868   -8.8797   19.8935 H   0  0  0  0  0  0
  -22.3736  -10.9686   19.6150 H   0  0  0  0  0  0
  -21.1991   -7.6163   23.9734 H   0  0  0  0  0  0
  -21.1495   -6.0525   25.9087 H   0  0  0  0  0  0
  -22.0591   -2.7621   23.2832 H   0  0  0  0  0  0
  -22.4109  -11.9854   22.4742 H   0  0  0  0  0  0
  -21.1118  -13.1245   22.2592 H   0  0  0  0  0  0
  -24.6740  -15.8539   20.5258 H   0  0  0  0  0  0
  -26.3002  -15.6293   20.1235 H   0  0  0  0  0  0
  -26.7086  -32.5638   23.1162 H   0  0  0  0  0  0
  -24.9994  -33.9774   25.0428 H   0  0  0  0  0  0
  -22.6725  -31.3032   21.4184 H   0  0  0  0  0  0
  -23.3754  -35.9648   23.3289 H   0  0  0  0  0  0
  -24.3543  -36.8978   22.2023 H   0  0  0  0  0  0
  -23.7306  -37.6523   23.6662 H   0  0  0  0  0  0
  -26.0107  -31.6161   20.5816 H   0  0  0  0  0  0
  -26.8083  -30.9131   21.9608 H   0  0  0  0  0  0
  -28.0837  -29.1187   21.1703 H   0  0  0  0  0  0
  -26.0683  -25.9946   18.9952 H   0  0  0  0  0  0
  -23.9544  -27.2978   19.0542 H   0  0  0  0  0  0
  -23.6987  -30.6029   19.4074 H   0  0  0  0  0  0
  -22.7219  -29.2450   19.8814 H   0  0  0  0  0  0
  -25.1276  -36.1932   25.0823 H   0  0  0  0  0  0
  -20.9859  -28.3255   24.1497 H   0  0  0  0  0  0
  -20.5733  -26.2235   23.3575 H   0  0  0  0  0  0
  -21.6625  -26.7495   22.1155 H   0  0  0  0  0  0
  -19.6971  -25.6349   21.1182 H   0  0  0  0  0  0
  -19.6779  -27.3248   20.6746 H   0  0  0  0  0  0
  -17.4197  -26.6617   21.3986 H   0  0  0  0  0  0
  -18.0296  -26.0126   22.9038 H   0  0  0  0  0  0
  -19.7949  -30.7188   24.2268 H   0  0  0  0  0  0
  -17.5067  -31.6250   24.5169 H   0  0  0  0  0  0
  -15.5351  -30.3014   23.7730 H   0  0  0  0  0  0
  -15.8603  -28.0873   22.7071 H   0  0  0  0  0  0
  -24.5981  -30.6976   25.7722 H   0  0  0  0  0  0
  -24.8888  -32.2753   26.4849 H   0  0  0  0  0  0
  -25.8104  -30.8792   27.0171 H   0  0  0  0  0  0
  -26.2864  -29.6702   24.1171 H   0  0  0  0  0  0
  -27.4228  -29.7301   25.4471 H   0  0  0  0  0  0
  -27.8647  -30.4301   23.9091 H   0  0  0  0  0  0
  -27.2783  -33.3558   26.2059 H   0  0  0  0  0  0
  -28.3929  -32.6774   25.0309 H   0  0  0  0  0  0
  -28.0743  -31.8306   26.5369 H   0  0  0  0  0  0
  -28.2560  -38.0099   24.7499 H   0  0  0  0  0  0
  -28.1136  -36.2623   24.6288 H   0  0  0  0  0  0
  -27.2246  -37.1401   25.8839 H   0  0  0  0  0  0
  -20.9312  -29.8742   21.6962 H   0  0  0  0  0  0
  -26.0178  -38.2878   24.1464 H   0  0  0  0  0  0
  -30.2859  -21.2282   24.6585 H   0  0  0  0  0  0
  -29.4434  -22.5014   25.5447 H   0  0  0  0  0  0
  -30.6638  -22.9115   24.3355 H   0  0  0  0  0  0
  -23.8324  -23.3222   20.0538 H   0  0  0  0  0  0
  -24.9862  -24.4166   20.8006 H   0  0  0  0  0  0
  -24.1066  -23.2427   21.7837 H   0  0  0  0  0  0
  -25.2547  -21.3672   20.5843 H   0  0  0  0  0  0
  -26.1318  -22.4731   19.5838 H   0  0  0  0  0  0
  -26.4895  -20.1461   24.8552 H   0  0  0  0  0  0
  -28.1054  -20.4079   25.4306 H   0  0  0  0  0  0
  -27.4243  -24.2620   19.7614 H   0  0  0  0  0  0
  -29.1327  -24.0504   20.0331 H   0  0  0  0  0  0
  -27.3268  -18.6448   23.0407 H   0  0  0  0  0  0
  -27.6859  -18.0667   24.6421 H   0  0  0  0  0  0
  -30.0421  -19.0426   24.3929 H   0  0  0  0  0  0
  -29.6679  -19.3863   22.7242 H   0  0  0  0  0  0
  -29.1107  -16.8778   22.4750 H   0  0  0  0  0  0
  -29.6791  -16.6635   24.1117 H   0  0  0  0  0  0
  -31.9388  -17.6472   23.3302 H   0  0  0  0  0  0
  -31.3407  -17.5231   21.7023 H   0  0  0  0  0  0
  -31.7767  -15.2554   23.7086 H   0  0  0  0  0  0
  -32.6836  -15.5292   22.2553 H   0  0  0  0  0  0
  -29.1941  -25.7984   21.7421 H   0  0  0  0  0  0
  -27.4542  -25.8758   21.8053 H   0  0  0  0  0  0
  -30.0253  -14.2905   22.5638 H   0  0  0  0  0  0
  1 25  1  0  0  0
  1 30  2  0  0  0
  1 88  1  0  0  0
  2  3  1  0  0  0
  2 25  1  0  0  0
  2 89  1  0  0  0
  2 90  1  0  0  0
  3  4  1  0  0  0
  3 91  1  0  0  0
  3 92  1  0  0  0
  4  5  1  0  0  0
  4 93  1  0  0  0
  4 94  1  0  0  0
  5  6  1  0  0  0
  5 26  1  0  0  0
  5 95  1  0  0  0
  6 25  1  0  0  0
  6 96  1  0  0  0
  6 97  1  0  0  0
  7  8  2  0  0  0
  7 26  1  0  0  0
  7 29  1  0  0  0
  8  9  1  0  0  0
  8 22  1  0  0  0
  9 10  1  0  0  0
  9 27  2  0  0  0
 10 11  2  0  0  0
 10 15  1  0  0  0
 11 12  1  0  0  0
 11 98  1  0  0  0
 12 13  2  0  0  0
 12 99  1  0  0  0
 13 14  1  0  0  0
 13 31  1  0  0  0
 14 15  2  0  0  0
 14100  1  0  0  0
 15101  1  0  0  0
 16 17  2  0  0  0
 16 21  1  0  0  0
 16 31  1  0  0  0
 17 18  1  0  0  0
 17102  1  0  0  0
 18 19  2  0  0  0
 18103  1  0  0  0
 19 20  1  0  0  0
 19 24  1  0  0  0
 20 21  2  0  0  0
 20104  1  0  0  0
 21 23  1  0  0  0
 22 28  1  0  0  0
 22 32  2  0  0  0
 26 27  1  0  0  0
 28105  1  0  0  0
 28106  1  0  0  0
 29107  1  0  0  0
 29108  1  0  0  0
 33 34  1  0  0  0
 33 66  1  0  0  0
 33 70  2  0  0  0
 34 36  1  0  0  0
 34 59  1  0  0  0
 34109  1  0  0  0
 35 44  2  0  0  0
 35 45  1  0  0  0
 35 68  1  0  0  0
 36 56  1  0  0  0
 36110  1  0  0  0
 37 39  1  0  0  0
 37 47  1  0  0  0
 37 66  1  0  0  0
 37111  1  0  0  0
 38 43  2  0  0  0
 38 46  1  0  0  0
 38 47  1  0  0  0
 39 64  1  0  0  0
 39 67  2  0  0  0
 40 52  1  0  0  0
 40 53  2  0  0  0
 40 58  1  0  0  0
 41112  1  0  0  0
 41113  1  0  0  0
 41114  1  0  0  0
 41 48  1  0  0  0
 42 43  1  0  0  0
 42 66  1  0  0  0
 42115  1  0  0  0
 42116  1  0  0  0
 43 44  1  0  0  0
 44117  1  0  0  0
 45 46  2  0  0  0
 45118  1  0  0  0
 46119  1  0  0  0
 47120  1  0  0  0
 47121  1  0  0  0
 48 56  1  0  0  0
 48 65  1  0  0  0
 48122  1  0  0  0
 49 50  1  0  0  0
 49 53  1  0  0  0
 49 64  1  0  0  0
 49123  1  0  0  0
 50 51  1  0  0  0
 50124  1  0  0  0
 50125  1  0  0  0
 51 52  1  0  0  0
 51126  1  0  0  0
 51127  1  0  0  0
 52128  1  0  0  0
 52129  1  0  0  0
 53 54  1  0  0  0
 54 55  2  0  0  0
 54130  1  0  0  0
 55 57  1  0  0  0
 55131  1  0  0  0
 56 69  2  0  0  0
 57 58  2  0  0  0
 57132  1  0  0  0
 58133  1  0  0  0
 59 60  1  0  0  0
 59 61  1  0  0  0
 59 62  1  0  0  0
 60134  1  0  0  0
 60135  1  0  0  0
 60136  1  0  0  0
 61137  1  0  0  0
 61138  1  0  0  0
 61139  1  0  0  0
 62140  1  0  0  0
 62141  1  0  0  0
 62142  1  0  0  0
 63 65  1  0  0  0
 63143  1  0  0  0
 63144  1  0  0  0
 63145  1  0  0  0
 64146  1  0  0  0
 65147  1  0  0  0
 68 85  1  0  0  0
 71 72  2  0  0  0
 71 75  1  0  0  0
 71 86  1  0  0  0
 72 78  1  0  0  0
 72 87  1  0  0  0
 73 74  1  0  0  0
 73 77  1  0  0  0
 73 87  2  0  0  0
 74 79  1  0  0  0
 74 86  2  0  0  0
 75148  1  0  0  0
 75149  1  0  0  0
 75150  1  0  0  0
 76 77  1  0  0  0
 76151  1  0  0  0
 76152  1  0  0  0
 76153  1  0  0  0
 77154  1  0  0  0
 77155  1  0  0  0
 78 80  1  0  0  0
 78156  1  0  0  0
 78157  1  0  0  0
 79 85  1  0  0  0
 79158  1  0  0  0
 79159  1  0  0  0
 80 81  1  0  0  0
 80160  1  0  0  0
 80161  1  0  0  0
 81 82  1  0  0  0
 81162  1  0  0  0
 81163  1  0  0  0
 82 83  1  0  0  0
 82164  1  0  0  0
 82165  1  0  0  0
 83 84  1  0  0  0
 83166  1  0  0  0
 83167  1  0  0  0
 84 88  1  0  0  0
 84168  1  0  0  0
 84169  1  0  0  0
 85170  1  0  0  0
 85171  1  0  0  0
 88172  1  0  0  0
M  ISO  4   1 100  68 101  85 101  88 100
M  END
> <chiral flag>
0

> <version>
0

> <s_m_source_file>
/data/baiqing/PycharmProjects/Reinvent-master-3.2/result/LINK_invent/BTK/process_docking_weight1_custom_sum_contain_oxygen_bond_distance_aromatic_linkinvent_7_9_3/rearranged_h_0039.sdf

> <i_m_source_file_index>
77

> <r_mmod_Potential_Energy-OPLS-2005>
-67.6732406616211

> <r_mmod_Stretch_Energy-OPLS-2005>
34.2615661621094

> <r_mmod_Bend_Energy-OPLS-2005>
91.8833694458008

> <r_mmod_Torsional_Energy-OPLS-2005>
215.001190185547

> <r_mmod_Improper_Torsional_Energy-OPLS-2005>
5.22160720825195

> <r_mmod_Van_der_Waal_Energy-OPLS-2005>
147.743392944336

> <r_mmod_Electrostatic_Energy-OPLS-2005>
-358.868072509766

> <r_mmod_Solvation_Energy-OPLS-2005>
-213.200103759766

> <b_mmod_Minimization_Converged-OPLS-2005>
0

> <r_mmod_RMS_Derivative-OPLS-2005>
5.01811838150024

$$$$
78
                    3D
 Structure written by MMmdl.
153161  0  0  1  0            999 V2000
  -30.5433  -14.8187   20.4978 C   0  0  0  0  0  0
  -30.4557  -12.5082   19.4743 C   0  0  0  0  0  0
  -29.5216  -12.5326   18.2408 C   0  0  0  0  0  0
  -28.0479  -12.3383   18.6518 C   0  0  0  0  0  0
  -27.6477  -13.2289   19.8570 C   0  0  2  0  0  0
  -28.6945  -13.1406   20.9889 C   0  0  0  0  0  0
  -25.2538  -13.8178   20.5686 C   0  0  0  0  0  0
  -24.1824  -13.0433   20.9198 C   0  0  0  0  0  0
  -24.6412  -11.6909   20.8741 C   0  0  0  0  0  0
  -23.9083  -10.4294   21.0410 C   0  0  0  0  0  0
  -24.3631   -9.4207   21.9183 C   0  0  0  0  0  0
  -23.6301   -8.2245   22.0751 C   0  0  0  0  0  0
  -22.4283   -8.0288   21.3541 C   0  0  0  0  0  0
  -21.9922   -9.0264   20.4643 C   0  0  0  0  0  0
  -22.7257  -10.2140   20.3055 C   0  0  0  0  0  0
  -21.6854   -6.0742   22.5276 C   0  0  0  0  0  0
  -21.4014   -6.5644   23.8211 C   0  0  0  0  0  0
  -21.3657   -5.6792   24.9172 C   0  0  0  0  0  0
  -21.6048   -4.3057   24.7217 C   0  0  0  0  0  0
  -21.8818   -3.8151   23.4339 C   0  0  0  0  0  0
  -21.9192   -4.6969   22.3399 C   0  0  0  0  0  0
  -22.7846  -13.5220   21.1868 C   0  0  0  0  0  0
  -22.1662   -4.2156   21.0974 F   0  0  0  0  0  0
  -21.5627   -3.4539   25.7730 F   0  0  0  0  0  0
  -29.9888  -13.5495   20.4233 N   0  0  0  0  0  0
  -26.2972  -12.9379   20.3292 N   0  0  0  0  0  0
  -25.9345  -11.6526   20.5748 N   0  0  0  0  0  0
  -22.0493  -12.8206   22.0422 N   0  0  0  0  0  0
  -25.4244  -15.1900   20.4100 N   0  0  0  0  0  0
  -31.6954  -14.9800   20.0789 O   0  0  0  0  0  0
  -21.6641   -6.8889   21.4241 O   0  0  0  0  0  0
  -22.3530  -14.5537   20.6736 O   0  0  0  0  0  0
  -24.6367  -31.8513   23.1947 C   0  0  0  0  0  0
  -25.9169  -32.4732   23.8311 C   0  0  1  0  0  0
  -27.2197  -27.2111   20.1407 C   0  0  0  0  0  0
  -25.5939  -33.8537   24.2239 N   0  0  0  0  0  0
  -23.4363  -30.4717   21.5399 C   0  0  2  0  0  0
  -24.8853  -28.9109   20.1137 C   0  0  0  0  0  0
  -22.7535  -29.4576   22.4904 C   0  0  0  0  0  0
  -18.0309  -28.1373   22.8482 C   0  0  0  0  0  0
  -24.1489  -36.7272   23.2639 C   0  0  0  0  0  0
  -25.9870  -30.7479   21.3831 C   0  0  0  0  0  0
  -26.0603  -29.3648   20.7278 C   0  0  0  0  0  0
  -27.2311  -28.5293   20.7276 C   0  0  0  0  0  0
  -26.0252  -26.8483   19.4795 C   0  0  0  0  0  0
  -24.8764  -27.6629   19.4751 C   0  0  0  0  0  0
  -23.6583  -29.8035   20.1582 C   0  0  0  0  0  0
  -25.4114  -36.3057   24.0331 C   0  0  1  0  0  0
  -20.5917  -28.3703   23.1261 C   0  0  2  0  0  0
  -20.6816  -26.9411   22.5420 C   0  0  0  0  0  0
  -19.5785  -26.6348   21.5241 C   0  0  0  0  0  0
  -18.1957  -26.7906   22.1637 C   0  0  0  0  0  0
  -19.1561  -28.8856   23.2856 C   0  0  0  0  0  0
  -18.9469  -30.1462   23.8871 C   0  0  0  0  0  0
  -17.6462  -30.6581   24.0535 C   0  0  0  0  0  0
  -25.9062  -34.9432   23.5089 C   0  0  0  0  0  0
  -16.5359  -29.9066   23.6310 C   0  0  0  0  0  0
  -16.7293  -28.6480   23.0348 C   0  0  0  0  0  0
  -26.4520  -31.6566   25.0717 C   0  0  0  0  0  0
  -25.3717  -31.3734   26.1420 C   0  0  0  0  0  0
  -27.0375  -30.2973   24.6234 C   0  0  0  0  0  0
  -27.6066  -32.4315   25.7497 C   0  0  0  0  0  0
  -27.5578  -37.1793   24.8468 C   0  0  0  0  0  0
  -21.4236  -29.3041   22.3644 N   0  0  0  0  0  0
  -26.4287  -37.3759   23.9413 N   0  0  0  0  0  0
  -24.7063  -31.0425   22.0951 N   0  0  0  0  0  0
  -23.4212  -28.8119   23.3024 O   0  0  0  0  0  0
  -28.2947  -26.2744   20.1707 O   0  0  0  0  0  0
  -26.5637  -34.8918   22.4660 O   0  0  0  0  0  0
  -23.5503  -32.1367   23.7200 O   0  0  0  0  0  0
  -28.7639  -18.1693   19.7010 C   0  0  0  0  0  0
  -28.4626  -19.5718   19.6029 C   0  0  0  0  0  0
  -29.7104  -17.6571   20.6355 C   0  0  0  0  0  0
  -29.0892  -20.5489   20.4264 C   0  0  0  0  0  0
  -30.3675  -18.7140   21.3502 C   0  0  0  0  0  0
  -31.4262  -18.3846   22.3835 C   0  0  0  0  0  0
  -29.7148  -16.0910   21.0897 C   0  0  0  0  0  0
  -28.4412  -22.0187   20.6686 C   0  0  0  0  0  0
  -28.9422  -23.4954   20.1496 C   0  0  0  0  0  0
  -28.0089  -24.8094   20.5013 C   0  0  0  0  0  0
  -30.0676  -20.0671   21.2547 N   0  0  0  0  0  0
  -31.4894  -12.6718   19.1658 H   0  0  0  0  0  0
  -30.4411  -11.5258   19.9492 H   0  0  0  0  0  0
  -29.8162  -11.7602   17.5293 H   0  0  0  0  0  0
  -29.6327  -13.4850   17.7201 H   0  0  0  0  0  0
  -27.9123  -11.2877   18.9113 H   0  0  0  0  0  0
  -27.3895  -12.5286   17.8032 H   0  0  0  0  0  0
  -27.6455  -14.2538   19.4856 H   0  0  0  0  0  0
  -28.7507  -12.1231   21.3797 H   0  0  0  0  0  0
  -28.4110  -13.7636   21.8372 H   0  0  0  0  0  0
  -25.2779   -9.5675   22.4748 H   0  0  0  0  0  0
  -24.0005   -7.4637   22.7470 H   0  0  0  0  0  0
  -21.0849   -8.8795   19.8948 H   0  0  0  0  0  0
  -22.3727  -10.9681   19.6159 H   0  0  0  0  0  0
  -21.2012   -7.6153   23.9716 H   0  0  0  0  0  0
  -21.1478   -6.0522   25.9074 H   0  0  0  0  0  0
  -22.0601   -2.7613   23.2834 H   0  0  0  0  0  0
  -22.4113  -11.9863   22.4799 H   0  0  0  0  0  0
  -21.1112  -13.1226   22.2642 H   0  0  0  0  0  0
  -24.6585  -15.8462   20.5184 H   0  0  0  0  0  0
  -26.2754  -15.6274   20.0819 H   0  0  0  0  0  0
  -26.7231  -32.5377   23.1045 H   0  0  0  0  0  0
  -25.0083  -33.9659   25.0385 H   0  0  0  0  0  0
  -22.7352  -31.2955   21.3896 H   0  0  0  0  0  0
  -23.3758  -35.9595   23.3295 H   0  0  0  0  0  0
  -24.3576  -36.8902   22.2054 H   0  0  0  0  0  0
  -23.7240  -37.6470   23.6669 H   0  0  0  0  0  0
  -26.1310  -31.5041   20.6098 H   0  0  0  0  0  0
  -26.8620  -30.7998   22.0191 H   0  0  0  0  0  0
  -28.1291  -28.8705   21.2240 H   0  0  0  0  0  0
  -25.9564  -25.9079   18.9537 H   0  0  0  0  0  0
  -23.9830  -27.3162   18.9735 H   0  0  0  0  0  0
  -23.7893  -30.5790   19.4024 H   0  0  0  0  0  0
  -22.7754  -29.2412   19.8489 H   0  0  0  0  0  0
  -25.1297  -36.1897   25.0823 H   0  0  0  0  0  0
  -20.9992  -28.3295   24.1389 H   0  0  0  0  0  0
  -20.5736  -26.2319   23.3637 H   0  0  0  0  0  0
  -21.6676  -26.7435   22.1206 H   0  0  0  0  0  0
  -19.6954  -25.6242   21.1318 H   0  0  0  0  0  0
  -19.6736  -27.3121   20.6742 H   0  0  0  0  0  0
  -17.4236  -26.6641   21.4031 H   0  0  0  0  0  0
  -18.0342  -26.0058   22.9040 H   0  0  0  0  0  0
  -19.7939  -30.7294   24.2228 H   0  0  0  0  0  0
  -17.5001  -31.6265   24.5120 H   0  0  0  0  0  0
  -15.5355  -30.2951   23.7636 H   0  0  0  0  0  0
  -15.8697  -28.0784   22.7074 H   0  0  0  0  0  0
  -24.5907  -30.7067   25.7747 H   0  0  0  0  0  0
  -24.8887  -32.2908   26.4800 H   0  0  0  0  0  0
  -25.8011  -30.8945   27.0229 H   0  0  0  0  0  0
  -26.2974  -29.6705   24.1243 H   0  0  0  0  0  0
  -27.4030  -29.7256   25.4776 H   0  0  0  0  0  0
  -27.8867  -30.4241   23.9512 H   0  0  0  0  0  0
  -27.2674  -33.3634   26.2035 H   0  0  0  0  0  0
  -28.3898  -32.6840   25.0334 H   0  0  0  0  0  0
  -28.0707  -31.8457   26.5444 H   0  0  0  0  0  0
  -28.2595  -38.0090   24.7514 H   0  0  0  0  0  0
  -28.1077  -36.2626   24.6295 H   0  0  0  0  0  0
  -27.2300  -37.1443   25.8871 H   0  0  0  0  0  0
  -20.9440  -29.8745   21.6824 H   0  0  0  0  0  0
  -26.0168  -38.2835   24.1402 H   0  0  0  0  0  0
  -28.1695  -17.4761   19.1228 H   0  0  0  0  0  0
  -27.6500  -19.8772   18.9577 H   0  0  0  0  0  0
  -32.0414  -17.5484   22.0509 H   0  0  0  0  0  0
  -30.9609  -18.1164   23.3321 H   0  0  0  0  0  0
  -32.0907  -19.2317   22.5562 H   0  0  0  0  0  0
  -28.6635  -15.8191   21.0305 H   0  0  0  0  0  0
  -29.9220  -16.0797   22.1592 H   0  0  0  0  0  0
  -28.3409  -22.1010   21.7512 H   0  0  0  0  0  0
  -27.4112  -21.9256   20.3233 H   0  0  0  0  0  0
  -29.0537  -23.4471   19.0665 H   0  0  0  0  0  0
  -29.9450  -23.6694   20.5390 H   0  0  0  0  0  0
  -27.8903  -24.8054   21.5857 H   0  0  0  0  0  0
  -27.0201  -24.5441   20.1365 H   0  0  0  0  0  0
  1 25  1  0  0  0
  1 30  2  0  0  0
  1 77  1  0  0  0
  2  3  1  0  0  0
  2 25  1  0  0  0
  2 82  1  0  0  0
  2 83  1  0  0  0
  3  4  1  0  0  0
  3 84  1  0  0  0
  3 85  1  0  0  0
  4  5  1  0  0  0
  4 86  1  0  0  0
  4 87  1  0  0  0
  5  6  1  0  0  0
  5 26  1  0  0  0
  5 88  1  0  0  0
  6 25  1  0  0  0
  6 89  1  0  0  0
  6 90  1  0  0  0
  7  8  2  0  0  0
  7 26  1  0  0  0
  7 29  1  0  0  0
  8  9  1  0  0  0
  8 22  1  0  0  0
  9 10  1  0  0  0
  9 27  2  0  0  0
 10 11  2  0  0  0
 10 15  1  0  0  0
 11 12  1  0  0  0
 11 91  1  0  0  0
 12 13  2  0  0  0
 12 92  1  0  0  0
 13 14  1  0  0  0
 13 31  1  0  0  0
 14 15  2  0  0  0
 14 93  1  0  0  0
 15 94  1  0  0  0
 16 17  2  0  0  0
 16 21  1  0  0  0
 16 31  1  0  0  0
 17 18  1  0  0  0
 17 95  1  0  0  0
 18 19  2  0  0  0
 18 96  1  0  0  0
 19 20  1  0  0  0
 19 24  1  0  0  0
 20 21  2  0  0  0
 20 97  1  0  0  0
 21 23  1  0  0  0
 22 28  1  0  0  0
 22 32  2  0  0  0
 26 27  1  0  0  0
 28 98  1  0  0  0
 28 99  1  0  0  0
 29100  1  0  0  0
 29101  1  0  0  0
 33 34  1  0  0  0
 33 66  1  0  0  0
 33 70  2  0  0  0
 34 36  1  0  0  0
 34 59  1  0  0  0
 34102  1  0  0  0
 35 44  2  0  0  0
 35 45  1  0  0  0
 35 68  1  0  0  0
 36 56  1  0  0  0
 36103  1  0  0  0
 37 39  1  0  0  0
 37 47  1  0  0  0
 37 66  1  0  0  0
 37104  1  0  0  0
 38 43  2  0  0  0
 38 46  1  0  0  0
 38 47  1  0  0  0
 39 64  1  0  0  0
 39 67  2  0  0  0
 40 52  1  0  0  0
 40 53  2  0  0  0
 40 58  1  0  0  0
 41105  1  0  0  0
 41106  1  0  0  0
 41107  1  0  0  0
 41 48  1  0  0  0
 42 43  1  0  0  0
 42 66  1  0  0  0
 42108  1  0  0  0
 42109  1  0  0  0
 43 44  1  0  0  0
 44110  1  0  0  0
 45 46  2  0  0  0
 45111  1  0  0  0
 46112  1  0  0  0
 47113  1  0  0  0
 47114  1  0  0  0
 48 56  1  0  0  0
 48 65  1  0  0  0
 48115  1  0  0  0
 49 50  1  0  0  0
 49 53  1  0  0  0
 49 64  1  0  0  0
 49116  1  0  0  0
 50 51  1  0  0  0
 50117  1  0  0  0
 50118  1  0  0  0
 51 52  1  0  0  0
 51119  1  0  0  0
 51120  1  0  0  0
 52121  1  0  0  0
 52122  1  0  0  0
 53 54  1  0  0  0
 54 55  2  0  0  0
 54123  1  0  0  0
 55 57  1  0  0  0
 55124  1  0  0  0
 56 69  2  0  0  0
 57 58  2  0  0  0
 57125  1  0  0  0
 58126  1  0  0  0
 59 60  1  0  0  0
 59 61  1  0  0  0
 59 62  1  0  0  0
 60127  1  0  0  0
 60128  1  0  0  0
 60129  1  0  0  0
 61130  1  0  0  0
 61131  1  0  0  0
 61132  1  0  0  0
 62133  1  0  0  0
 62134  1  0  0  0
 62135  1  0  0  0
 63 65  1  0  0  0
 63136  1  0  0  0
 63137  1  0  0  0
 63138  1  0  0  0
 64139  1  0  0  0
 65140  1  0  0  0
 68 80  1  0  0  0
 71 72  2  0  0  0
 71 73  1  0  0  0
 71141  1  0  0  0
 72 74  1  0  0  0
 72142  1  0  0  0
 73 75  2  0  0  0
 73 77  1  0  0  0
 74 78  1  0  0  0
 74 81  2  0  0  0
 75 76  1  0  0  0
 75 81  1  0  0  0
 76143  1  0  0  0
 76144  1  0  0  0
 76145  1  0  0  0
 77146  1  0  0  0
 77147  1  0  0  0
 78 79  1  0  0  0
 78148  1  0  0  0
 78149  1  0  0  0
 79 80  1  0  0  0
 79150  1  0  0  0
 79151  1  0  0  0
 80152  1  0  0  0
 80153  1  0  0  0
M  ISO  4   1 100  68 101  77 100  80 101
M  END
> <chiral flag>
0

> <version>
0

> <s_m_source_file>
/data/baiqing/PycharmProjects/Reinvent-master-3.2/result/LINK_invent/BTK/process_docking_weight1_custom_sum_contain_oxygen_bond_distance_aromatic_linkinvent_7_9_3/rearranged_h_0039.sdf

> <i_m_source_file_index>
78

> <r_mmod_Potential_Energy-OPLS-2005>
129.209213256836

> <r_mmod_Stretch_Energy-OPLS-2005>
166.817749023438

> <r_mmod_Bend_Energy-OPLS-2005>
227.463653564453

> <r_mmod_Torsional_Energy-OPLS-2005>
196.848663330078

> <r_mmod_Improper_Torsional_Energy-OPLS-2005>
7.79081296920776

> <r_mmod_Van_der_Waal_Energy-OPLS-2005>
135.661285400391

> <r_mmod_Electrostatic_Energy-OPLS-2005>
-506.545745849609

> <r_mmod_Solvation_Energy-OPLS-2005>
-216.859893798828

> <b_mmod_Minimization_Converged-OPLS-2005>
0

> <r_mmod_RMS_Derivative-OPLS-2005>
1.03593671321869

$$$$
79
                    3D
 Structure written by MMmdl.
174182  0  0  1  0            999 V2000
  -30.0931  -15.6283   20.4757 C   0  0  0  0  0  0
  -30.3954  -13.1145   19.5708 C   0  0  0  0  0  0
  -29.5388  -12.6666   18.3460 C   0  0  0  0  0  0
  -28.1235  -12.2658   18.7877 C   0  0  0  0  0  0
  -27.5715  -13.2713   19.8211 C   0  0  2  0  0  0
  -28.5522  -13.5470   20.9730 C   0  0  0  0  0  0
  -25.2196  -13.8180   20.5724 C   0  0  0  0  0  0
  -24.1584  -13.0387   20.9307 C   0  0  0  0  0  0
  -24.6231  -11.6874   20.8793 C   0  0  0  0  0  0
  -23.8953  -10.4254   21.0455 C   0  0  0  0  0  0
  -24.3538   -9.4184   21.9218 C   0  0  0  0  0  0
  -23.6239   -8.2208   22.0765 C   0  0  0  0  0  0
  -22.4237   -8.0231   21.3532 C   0  0  0  0  0  0
  -21.9851   -9.0196   20.4638 C   0  0  0  0  0  0
  -22.7156  -10.2088   20.3067 C   0  0  0  0  0  0
  -21.6841   -6.0694   22.5277 C   0  0  0  0  0  0
  -21.4012   -6.5615   23.8201 C   0  0  0  0  0  0
  -21.3660   -5.6782   24.9170 C   0  0  0  0  0  0
  -21.6042   -4.3042   24.7236 C   0  0  0  0  0  0
  -21.8820   -3.8118   23.4362 C   0  0  0  0  0  0
  -21.9188   -4.6923   22.3409 C   0  0  0  0  0  0
  -22.7628  -13.5176   21.1950 C   0  0  0  0  0  0
  -22.1659   -4.2101   21.0988 F   0  0  0  0  0  0
  -21.5627   -3.4534   25.7756 F   0  0  0  0  0  0
  -29.6936  -14.2331   20.3556 N   0  0  0  0  0  0
  -26.2522  -12.9395   20.3110 N   0  0  0  0  0  0
  -25.9133  -11.6518   20.5655 N   0  0  0  0  0  0
  -22.0264  -12.8179   22.0501 N   0  0  0  0  0  0
  -25.3870  -15.1912   20.4111 N   0  0  0  0  0  0
  -31.3323  -15.6681   20.3035 O   0  0  0  0  0  0
  -21.6619   -6.8821   21.4230 O   0  0  0  0  0  0
  -22.3348  -14.5487   20.6776 O   0  0  0  0  0  0
  -24.6608  -31.8623   23.3971 C   0  0  0  0  0  0
  -25.9473  -32.4978   23.9736 C   0  0  1  0  0  0
  -27.8875  -26.7358   19.7216 C   0  0  0  0  0  0
  -25.6124  -33.8892   24.2985 N   0  0  0  0  0  0
  -23.1895  -30.2511   21.8111 C   0  0  2  0  0  0
  -24.6362  -28.4386   19.3262 C   0  0  0  0  0  0
  -22.4051  -29.5470   22.8203 C   0  0  0  0  0  0
  -17.9370  -28.1133   22.8484 C   0  0  0  0  0  0
  -24.1546  -36.7457   23.2475 C   0  0  0  0  0  0
  -26.4864  -30.6072   21.8334 C   0  0  0  0  0  0
  -26.7961  -29.4240   20.3927 C   0  0  0  0  0  0
  -28.0636  -28.3210   20.4282 C   0  0  0  0  0  0
  -26.4070  -26.0346   18.9362 C   0  0  0  0  0  0
  -24.8577  -26.8426   18.7753 C   0  0  0  0  0  0
  -23.0473  -29.0361   20.1901 C   0  0  0  0  0  0
  -25.4093  -36.3235   24.0285 C   0  0  1  0  0  0
  -20.4379  -28.2762   23.1917 C   0  0  2  0  0  0
  -20.5763  -26.8818   22.5547 C   0  0  0  0  0  0
  -19.4962  -26.6198   21.5104 C   0  0  0  0  0  0
  -18.1113  -26.7722   22.1522 C   0  0  0  0  0  0
  -19.0489  -28.8345   23.3247 C   0  0  0  0  0  0
  -18.8773  -30.1046   23.9169 C   0  0  0  0  0  0
  -17.5909  -30.6493   24.0577 C   0  0  0  0  0  0
  -25.9011  -34.9512   23.5329 C   0  0  0  0  0  0
  -16.4753  -29.9149   23.6173 C   0  0  0  0  0  0
  -16.6490  -28.6528   23.0175 C   0  0  0  0  0  0
  -26.4882  -31.7150   25.2333 C   0  0  0  0  0  0
  -25.3735  -31.3703   26.2464 C   0  0  0  0  0  0
  -27.2502  -30.3976   24.9469 C   0  0  0  0  0  0
  -27.5774  -32.5731   25.9094 C   0  0  0  0  0  0
  -27.5608  -37.1900   24.8419 C   0  0  0  0  0  0
  -21.2021  -29.2125   22.4319 N   0  0  0  0  0  0
  -26.4331  -37.3866   23.9329 N   0  0  0  0  0  0
  -24.7896  -30.8982   22.4972 N   0  0  0  0  0  0
  -22.8687  -29.2152   23.8950 O   0  0  0  0  0  0
  -29.0159  -26.3087   19.2683 O   0  0  0  0  0  0
  -26.5496  -34.8714   22.4842 O   0  0  0  0  0  0
  -23.5533  -32.2438   23.7889 O   0  0  0  0  0  0
  -24.8414  -30.5065   20.1846 C   0  0  0  0  0  0
  -25.4097  -30.7383   18.7624 C   0  0  0  0  0  0
  -25.0422  -28.6592   21.5087 C   0  0  0  0  0  0
  -26.2251  -29.7309   17.9444 C   0  0  0  0  0  0
  -25.9413  -27.3885   20.7754 C   0  0  0  0  0  0
  -26.6958  -28.3034   18.4854 C   0  0  0  0  0  0
  -25.0382  -28.1605   22.9685 C   0  0  0  0  0  0
  -24.5154  -29.2283   14.9240 C   0  0  0  0  0  0
  -26.3513  -30.2017   16.4845 C   0  0  0  0  0  0
  -26.3434  -25.6101   21.4944 C   0  0  0  0  0  0
  -27.8178  -27.7348   17.4567 C   0  0  0  0  0  0
  -24.9709  -30.4054   15.7999 C   0  0  0  0  0  0
  -26.8604  -23.8063   20.8308 C   0  0  0  0  0  0
  -27.6830  -22.0902   21.2932 C   0  0  0  0  0  0
  -28.0137  -20.2715   20.6174 C   0  0  0  0  0  0
  -29.0682  -18.6566   20.9861 C   0  0  0  0  0  0
  -29.1425  -27.0800   18.0617 C   0  0  0  0  0  0
  -29.1729  -16.8984   20.6204 N   0  0  0  0  0  0
  -31.3606  -13.4652   19.2052 H   0  0  0  0  0  0
  -30.6203  -12.2643   20.2179 H   0  0  0  0  0  0
  -30.0212  -11.8445   17.8171 H   0  0  0  0  0  0
  -29.4695  -13.4918   17.6360 H   0  0  0  0  0  0
  -28.1859  -11.2803   19.2518 H   0  0  0  0  0  0
  -27.4564  -12.1580   17.9318 H   0  0  0  0  0  0
  -27.4534  -14.1980   19.2598 H   0  0  0  0  0  0
  -28.8343  -12.6284   21.4911 H   0  0  0  0  0  0
  -28.0880  -14.1913   21.7215 H   0  0  0  0  0  0
  -25.2650   -9.5692   22.4831 H   0  0  0  0  0  0
  -23.9935   -7.4600   22.7499 H   0  0  0  0  0  0
  -21.0778   -8.8689   19.8945 H   0  0  0  0  0  0
  -22.3581  -10.9625   19.6186 H   0  0  0  0  0  0
  -21.2018   -7.6124   23.9688 H   0  0  0  0  0  0
  -21.1485   -6.0518   25.9066 H   0  0  0  0  0  0
  -22.0605   -2.7576   23.2883 H   0  0  0  0  0  0
  -22.3835  -11.9830   22.4920 H   0  0  0  0  0  0
  -21.0880  -13.1218   22.2702 H   0  0  0  0  0  0
  -24.6032  -15.8304   20.4919 H   0  0  0  0  0  0
  -26.1827  -15.6023   19.9453 H   0  0  0  0  0  0
  -26.7629  -32.5547   23.2624 H   0  0  0  0  0  0
  -25.0300  -34.0382   25.1105 H   0  0  0  0  0  0
  -22.5982  -31.1426   21.5730 H   0  0  0  0  0  0
  -23.3754  -35.9854   23.3124 H   0  0  0  0  0  0
  -24.3726  -36.9046   22.1898 H   0  0  0  0  0  0
  -23.7368  -37.6707   23.6444 H   0  0  0  0  0  0
  -26.8793  -31.5567   21.4655 H   0  0  0  0  0  0
  -27.1953  -30.2783   22.5617 H   0  0  0  0  0  0
  -29.0063  -28.6103   20.8706 H   0  0  0  0  0  0
  -26.4892  -25.0766   18.4505 H   0  0  0  0  0  0
  -24.0105  -26.2745   18.4176 H   0  0  0  0  0  0
  -22.4381  -29.5341   19.4347 H   0  0  0  0  0  0
  -22.4939  -28.1345   20.4492 H   0  0  0  0  0  0
  -25.1198  -36.2268   25.0786 H   0  0  0  0  0  0
  -20.7869  -28.1862   24.2229 H   0  0  0  0  0  0
  -20.4591  -26.1347   23.3416 H   0  0  0  0  0  0
  -21.5751  -26.7133   22.1479 H   0  0  0  0  0  0
  -19.6066  -25.6209   21.0859 H   0  0  0  0  0  0
  -19.6030  -27.3249   20.6852 H   0  0  0  0  0  0
  -17.3354  -26.6457   21.3964 H   0  0  0  0  0  0
  -17.9546  -25.9832   22.8897 H   0  0  0  0  0  0
  -19.7352  -30.6639   24.2685 H   0  0  0  0  0  0
  -17.4554  -31.6219   24.5127 H   0  0  0  0  0  0
  -15.4807  -30.3220   23.7319 H   0  0  0  0  0  0
  -15.7825  -28.1064   22.6713 H   0  0  0  0  0  0
  -24.6812  -30.6193   25.8584 H   0  0  0  0  0  0
  -24.7842  -32.2453   26.5216 H   0  0  0  0  0  0
  -25.7812  -30.9573   27.1698 H   0  0  0  0  0  0
  -26.6880  -29.5909   24.5184 H   0  0  0  0  0  0
  -27.6079  -29.9768   25.8905 H   0  0  0  0  0  0
  -28.1603  -30.5664   24.3703 H   0  0  0  0  0  0
  -27.1703  -33.4772   26.3623 H   0  0  0  0  0  0
  -28.3409  -32.8842   25.1946 H   0  0  0  0  0  0
  -28.0851  -32.0374   26.7131 H   0  0  0  0  0  0
  -28.2567  -38.0251   24.7525 H   0  0  0  0  0  0
  -28.1172  -36.2789   24.6202 H   0  0  0  0  0  0
  -27.2294  -37.1465   25.8802 H   0  0  0  0  0  0
  -20.8461  -29.5147   21.5359 H   0  0  0  0  0  0
  -26.0264  -38.2980   24.1240 H   0  0  0  0  0  0
  -24.4112  -31.4905   20.3747 H   0  0  0  0  0  0
  -25.1807  -31.6875   18.3048 H   0  0  0  0  0  0
  -25.0359  -28.8787   23.7656 H   0  0  0  0  0  0
  -25.9657  -27.6331   23.1801 H   0  0  0  0  0  0
  -24.2476  -27.4224   23.1065 H   0  0  0  0  0  0
  -23.4797  -29.3735   14.6117 H   0  0  0  0  0  0
  -24.5741  -28.2740   15.4516 H   0  0  0  0  0  0
  -25.1221  -29.1538   14.0176 H   0  0  0  0  0  0
  -26.9480  -29.5891   15.8172 H   0  0  0  0  0  0
  -26.8633  -31.1620   16.5272 H   0  0  0  0  0  0
  -25.5212  -25.4227   22.1852 H   0  0  0  0  0  0
  -27.1706  -25.8477   22.1658 H   0  0  0  0  0  0
  -28.2489  -28.5245   16.8547 H   0  0  0  0  0  0
  -27.3476  -27.0470   16.7515 H   0  0  0  0  0  0
  -24.1863  -30.6303   16.5260 H   0  0  0  0  0  0
  -25.0229  -31.2885   15.1602 H   0  0  0  0  0  0
  -27.5225  -24.0346   20.0004 H   0  0  0  0  0  0
  -25.9271  -23.4855   20.3626 H   0  0  0  0  0  0
  -27.2190  -21.8838   22.2591 H   0  0  0  0  0  0
  -28.6864  -22.4095   21.5712 H   0  0  0  0  0  0
  -28.2883  -20.4617   19.5774 H   0  0  0  0  0  0
  -26.9996  -19.8795   20.5366 H   0  0  0  0  0  0
  -28.9518  -18.5984   22.0693 H   0  0  0  0  0  0
  -30.0968  -18.9953   20.8631 H   0  0  0  0  0  0
  -29.6583  -26.4857   17.3061 H   0  0  0  0  0  0
  -29.8225  -27.8938   18.3034 H   0  0  0  0  0  0
  -28.2256  -16.5426   20.6244 H   0  0  0  0  0  0
  1 25  1  0  0  0
  1 30  2  0  0  0
  1 88  1  0  0  0
  2  3  1  0  0  0
  2 25  1  0  0  0
  2 89  1  0  0  0
  2 90  1  0  0  0
  3  4  1  0  0  0
  3 91  1  0  0  0
  3 92  1  0  0  0
  4  5  1  0  0  0
  4 93  1  0  0  0
  4 94  1  0  0  0
  5  6  1  0  0  0
  5 26  1  0  0  0
  5 95  1  0  0  0
  6 25  1  0  0  0
  6 96  1  0  0  0
  6 97  1  0  0  0
  7  8  2  0  0  0
  7 26  1  0  0  0
  7 29  1  0  0  0
  8  9  1  0  0  0
  8 22  1  0  0  0
  9 10  1  0  0  0
  9 27  2  0  0  0
 10 11  2  0  0  0
 10 15  1  0  0  0
 11 12  1  0  0  0
 11 98  1  0  0  0
 12 13  2  0  0  0
 12 99  1  0  0  0
 13 14  1  0  0  0
 13 31  1  0  0  0
 14 15  2  0  0  0
 14100  1  0  0  0
 15101  1  0  0  0
 16 17  2  0  0  0
 16 21  1  0  0  0
 16 31  1  0  0  0
 17 18  1  0  0  0
 17102  1  0  0  0
 18 19  2  0  0  0
 18103  1  0  0  0
 19 20  1  0  0  0
 19 24  1  0  0  0
 20 21  2  0  0  0
 20104  1  0  0  0
 21 23  1  0  0  0
 22 28  1  0  0  0
 22 32  2  0  0  0
 26 27  1  0  0  0
 28105  1  0  0  0
 28106  1  0  0  0
 29107  1  0  0  0
 29108  1  0  0  0
 33 34  1  0  0  0
 33 66  1  0  0  0
 33 70  2  0  0  0
 34 36  1  0  0  0
 34 59  1  0  0  0
 34109  1  0  0  0
 35 44  2  0  0  0
 35 45  1  0  0  0
 35 68  1  0  0  0
 36 56  1  0  0  0
 36110  1  0  0  0
 37 39  1  0  0  0
 37 47  1  0  0  0
 37 66  1  0  0  0
 37111  1  0  0  0
 38 43  2  0  0  0
 38 46  1  0  0  0
 38 47  1  0  0  0
 39 64  1  0  0  0
 39 67  2  0  0  0
 40 52  1  0  0  0
 40 53  2  0  0  0
 40 58  1  0  0  0
 41112  1  0  0  0
 41113  1  0  0  0
 41114  1  0  0  0
 41 48  1  0  0  0
 42 43  1  0  0  0
 42 66  1  0  0  0
 42115  1  0  0  0
 42116  1  0  0  0
 43 44  1  0  0  0
 44117  1  0  0  0
 45 46  2  0  0  0
 45118  1  0  0  0
 46119  1  0  0  0
 47120  1  0  0  0
 47121  1  0  0  0
 48 56  1  0  0  0
 48 65  1  0  0  0
 48122  1  0  0  0
 49 50  1  0  0  0
 49 53  1  0  0  0
 49 64  1  0  0  0
 49123  1  0  0  0
 50 51  1  0  0  0
 50124  1  0  0  0
 50125  1  0  0  0
 51 52  1  0  0  0
 51126  1  0  0  0
 51127  1  0  0  0
 52128  1  0  0  0
 52129  1  0  0  0
 53 54  1  0  0  0
 54 55  2  0  0  0
 54130  1  0  0  0
 55 57  1  0  0  0
 55131  1  0  0  0
 56 69  2  0  0  0
 57 58  2  0  0  0
 57132  1  0  0  0
 58133  1  0  0  0
 59 60  1  0  0  0
 59 61  1  0  0  0
 59 62  1  0  0  0
 60134  1  0  0  0
 60135  1  0  0  0
 60136  1  0  0  0
 61137  1  0  0  0
 61138  1  0  0  0
 61139  1  0  0  0
 62140  1  0  0  0
 62141  1  0  0  0
 62142  1  0  0  0
 63 65  1  0  0  0
 63143  1  0  0  0
 63144  1  0  0  0
 63145  1  0  0  0
 64146  1  0  0  0
 65147  1  0  0  0
 68 87  1  0  0  0
 71 72  2  0  0  0
 71 73  1  0  0  0
 71148  1  0  0  0
 72 74  1  0  0  0
 72149  1  0  0  0
 73 75  2  0  0  0
 73 77  1  0  0  0
 74 76  2  0  0  0
 74 79  1  0  0  0
 75 76  1  0  0  0
 75 80  1  0  0  0
 76 81  1  0  0  0
 77150  1  0  0  0
 77151  1  0  0  0
 77152  1  0  0  0
 78 82  1  0  0  0
 78153  1  0  0  0
 78154  1  0  0  0
 78155  1  0  0  0
 79 82  1  0  0  0
 79156  1  0  0  0
 79157  1  0  0  0
 80 83  1  0  0  0
 80158  1  0  0  0
 80159  1  0  0  0
 81 87  1  0  0  0
 81160  1  0  0  0
 81161  1  0  0  0
 82162  1  0  0  0
 82163  1  0  0  0
 83 84  1  0  0  0
 83164  1  0  0  0
 83165  1  0  0  0
 84 85  1  0  0  0
 84166  1  0  0  0
 84167  1  0  0  0
 85 86  1  0  0  0
 85168  1  0  0  0
 85169  1  0  0  0
 86 88  1  0  0  0
 86170  1  0  0  0
 86171  1  0  0  0
 87172  1  0  0  0
 87173  1  0  0  0
 88174  1  0  0  0
M  ISO  4   1 100  68 101  87 101  88 100
M  END
> <chiral flag>
0

> <version>
0

> <s_m_source_file>
/data/baiqing/PycharmProjects/Reinvent-master-3.2/result/LINK_invent/BTK/process_docking_weight1_custom_sum_contain_oxygen_bond_distance_aromatic_linkinvent_7_9_3/rearranged_h_0039.sdf

> <i_m_source_file_index>
79

> <r_mmod_Potential_Energy-OPLS-2005>
19057.873046875

> <r_mmod_Stretch_Energy-OPLS-2005>
11273.9248046875

> <r_mmod_Bend_Energy-OPLS-2005>
979.894104003906

> <r_mmod_Torsional_Energy-OPLS-2005>
392.616027832031

> <r_mmod_Improper_Torsional_Energy-OPLS-2005>
45.0827903747559

> <r_mmod_Van_der_Waal_Energy-OPLS-2005>
5198.9013671875

> <r_mmod_Electrostatic_Energy-OPLS-2005>
-336.384063720703

> <r_mmod_Solvation_Energy-OPLS-2005>
-194.308349609375

> <b_mmod_Minimization_Converged-OPLS-2005>
0

> <r_mmod_RMS_Derivative-OPLS-2005>
12.2060508728027

$$$$
80
                    3D
 Structure written by MMmdl.
168176  0  0  1  0            999 V2000
  -30.6828  -14.5425   20.5917 C   0  0  0  0  0  0
  -30.4469  -12.3654   19.4153 C   0  0  0  0  0  0
  -29.5043  -12.5041   18.2004 C   0  0  0  0  0  0
  -28.0255  -12.3630   18.6169 C   0  0  0  0  0  0
  -27.6653  -13.2083   19.8688 C   0  0  2  0  0  0
  -28.7153  -13.0162   20.9850 C   0  0  0  0  0  0
  -25.2642  -13.8176   20.5683 C   0  0  0  0  0  0
  -24.1873  -13.0460   20.9196 C   0  0  0  0  0  0
  -24.6427  -11.6933   20.8747 C   0  0  0  0  0  0
  -23.9074  -10.4310   21.0401 C   0  0  0  0  0  0
  -24.3615   -9.4236   21.9193 C   0  0  0  0  0  0
  -23.6300   -8.2268   22.0763 C   0  0  0  0  0  0
  -22.4275   -8.0290   21.3557 C   0  0  0  0  0  0
  -21.9908   -9.0266   20.4661 C   0  0  0  0  0  0
  -22.7239  -10.2159   20.3067 C   0  0  0  0  0  0
  -21.6859   -6.0733   22.5267 C   0  0  0  0  0  0
  -21.4007   -6.5636   23.8202 C   0  0  0  0  0  0
  -21.3658   -5.6798   24.9169 C   0  0  0  0  0  0
  -21.6055   -4.3056   24.7217 C   0  0  0  0  0  0
  -21.8831   -3.8145   23.4332 C   0  0  0  0  0  0
  -21.9203   -4.6962   22.3387 C   0  0  0  0  0  0
  -22.7895  -13.5280   21.1820 C   0  0  0  0  0  0
  -22.1670   -4.2151   21.0961 F   0  0  0  0  0  0
  -21.5632   -3.4537   25.7724 F   0  0  0  0  0  0
  -30.0296  -13.3572   20.4199 N   0  0  0  0  0  0
  -26.3077  -12.9342   20.3364 N   0  0  0  0  0  0
  -25.9364  -11.6514   20.5786 N   0  0  0  0  0  0
  -22.0506  -12.8301   22.0375 N   0  0  0  0  0  0
  -25.4402  -15.1886   20.4055 N   0  0  0  0  0  0
  -31.8349  -14.7316   20.1936 O   0  0  0  0  0  0
  -21.6649   -6.8875   21.4236 O   0  0  0  0  0  0
  -22.3608  -14.5580   20.6647 O   0  0  0  0  0  0
  -24.6185  -31.8653   23.2069 C   0  0  0  0  0  0
  -25.9054  -32.4819   23.8396 C   0  0  1  0  0  0
  -27.2570  -27.3917   20.1071 C   0  0  0  0  0  0
  -25.5895  -33.8618   24.2337 N   0  0  0  0  0  0
  -23.4128  -30.4860   21.5473 C   0  0  2  0  0  0
  -24.8636  -28.9477   20.1125 C   0  0  0  0  0  0
  -22.7446  -29.4658   22.4969 C   0  0  0  0  0  0
  -18.0290  -28.1406   22.8489 C   0  0  0  0  0  0
  -24.1482  -36.7306   23.2647 C   0  0  0  0  0  0
  -25.9431  -30.8221   21.3628 C   0  0  0  0  0  0
  -26.0238  -29.4528   20.7081 C   0  0  0  0  0  0
  -27.2188  -28.6877   20.6921 C   0  0  0  0  0  0
  -26.0683  -26.9138   19.5044 C   0  0  0  0  0  0
  -24.8849  -27.6807   19.5045 C   0  0  0  0  0  0
  -23.6225  -29.8146   20.1627 C   0  0  0  0  0  0
  -25.4103  -36.3121   24.0351 C   0  0  1  0  0  0
  -20.5880  -28.3703   23.1305 C   0  0  2  0  0  0
  -20.6794  -26.9436   22.5419 C   0  0  0  0  0  0
  -19.5763  -26.6403   21.5238 C   0  0  0  0  0  0
  -18.1938  -26.7945   22.1634 C   0  0  0  0  0  0
  -19.1538  -28.8865   23.2894 C   0  0  0  0  0  0
  -18.9458  -30.1467   23.8914 C   0  0  0  0  0  0
  -17.6454  -30.6601   24.0575 C   0  0  0  0  0  0
  -25.9025  -34.9480   23.5141 C   0  0  0  0  0  0
  -16.5351  -29.9099   23.6327 C   0  0  0  0  0  0
  -16.7272  -28.6522   23.0341 C   0  0  0  0  0  0
  -26.4457  -31.6596   25.0722 C   0  0  0  0  0  0
  -25.3721  -31.3677   26.1463 C   0  0  0  0  0  0
  -27.0291  -30.3036   24.6109 C   0  0  0  0  0  0
  -27.6062  -32.4309   25.7469 C   0  0  0  0  0  0
  -27.5584  -37.1806   24.8467 C   0  0  0  0  0  0
  -21.4172  -29.3051   22.3682 N   0  0  0  0  0  0
  -26.4293  -37.3804   23.9412 N   0  0  0  0  0  0
  -24.6775  -31.0716   22.0984 N   0  0  0  0  0  0
  -23.4180  -28.8236   23.3071 O   0  0  0  0  0  0
  -28.4492  -26.6705   20.1634 O   0  0  0  0  0  0
  -26.5599  -34.8937   22.4711 O   0  0  0  0  0  0
  -23.5361  -32.1416   23.7422 O   0  0  0  0  0  0
  -31.1511  -23.2246   19.5959 C   0  0  0  0  0  0
  -29.4930  -21.7224   20.5041 C   0  0  0  0  0  0
  -29.9215  -23.0544   20.2540 C   0  0  0  0  0  0
  -31.8843  -22.1282   19.0920 C   0  0  0  0  0  0
  -30.2038  -20.5823   20.0139 C   0  0  0  0  0  0
  -31.3451  -20.8055   19.1772 C   0  0  0  0  0  0
  -34.4060  -21.8492   19.3771 C   0  0  0  0  0  0
  -32.4775  -19.8603   16.9722 C   0  0  0  0  0  0
  -29.1750  -24.3115   20.7799 C   0  0  0  0  0  0
  -33.2700  -22.4557   18.5338 C   0  0  0  0  0  0
  -29.6866  -19.1559   20.4137 C   0  0  0  0  0  0
  -31.9268  -19.6188   18.3865 C   0  0  0  0  0  0
  -30.7379  -18.0137   20.7069 C   0  0  0  0  0  0
  -30.3653  -16.8493   21.6879 C   0  0  0  0  0  0
  -28.6026  -25.2959   19.6991 C   0  0  0  0  0  0
  -29.9386  -15.5443   21.1209 N   0  0  0  0  0  0
  -31.4852  -12.5043   19.1044 H   0  0  0  0  0  0
  -30.3902  -11.3599   19.8350 H   0  0  0  0  0  0
  -29.7488  -11.7538   17.4459 H   0  0  0  0  0  0
  -29.6581  -13.4739   17.7265 H   0  0  0  0  0  0
  -27.8390  -11.3078   18.8168 H   0  0  0  0  0  0
  -27.3748  -12.6385   17.7862 H   0  0  0  0  0  0
  -27.6988  -14.2511   19.5597 H   0  0  0  0  0  0
  -28.7291  -11.9818   21.3283 H   0  0  0  0  0  0
  -28.4778  -13.6112   21.8669 H   0  0  0  0  0  0
  -25.2751   -9.5735   22.4784 H   0  0  0  0  0  0
  -24.0018   -7.4662   22.7475 H   0  0  0  0  0  0
  -21.0847   -8.8794   19.8957 H   0  0  0  0  0  0
  -22.3681  -10.9708   19.6190 H   0  0  0  0  0  0
  -21.1983   -7.6145   23.9712 H   0  0  0  0  0  0
  -21.1473   -6.0510   25.9074 H   0  0  0  0  0  0
  -22.0610   -2.7612   23.2832 H   0  0  0  0  0  0
  -22.4063  -11.9949   22.4778 H   0  0  0  0  0  0
  -21.1124  -13.1384   22.2505 H   0  0  0  0  0  0
  -24.6823  -15.8518   20.5156 H   0  0  0  0  0  0
  -26.2933  -15.6205   20.0725 H   0  0  0  0  0  0
  -26.7132  -32.5513   23.1174 H   0  0  0  0  0  0
  -25.0026  -33.9778   25.0468 H   0  0  0  0  0  0
  -22.7046  -31.3049   21.4047 H   0  0  0  0  0  0
  -23.3762  -35.9623   23.3309 H   0  0  0  0  0  0
  -24.3584  -36.8906   22.2064 H   0  0  0  0  0  0
  -23.7201  -37.6504   23.6642 H   0  0  0  0  0  0
  -26.0577  -31.5915   20.5969 H   0  0  0  0  0  0
  -26.8293  -30.8750   21.9831 H   0  0  0  0  0  0
  -28.1183  -29.0878   21.1407 H   0  0  0  0  0  0
  -26.0142  -25.9507   19.0278 H   0  0  0  0  0  0
  -23.9948  -27.2866   19.0356 H   0  0  0  0  0  0
  -23.7235  -30.5906   19.4022 H   0  0  0  0  0  0
  -22.7483  -29.2288   19.8723 H   0  0  0  0  0  0
  -25.1269  -36.2025   25.0844 H   0  0  0  0  0  0
  -20.9973  -28.3302   24.1428 H   0  0  0  0  0  0
  -20.5767  -26.2304   23.3609 H   0  0  0  0  0  0
  -21.6655  -26.7511   22.1178 H   0  0  0  0  0  0
  -19.6935  -25.6322   21.1263 H   0  0  0  0  0  0
  -19.6728  -27.3222   20.6783 H   0  0  0  0  0  0
  -17.4225  -26.6719   21.4028 H   0  0  0  0  0  0
  -18.0324  -26.0091   22.9028 H   0  0  0  0  0  0
  -19.7929  -30.7291   24.2304 H   0  0  0  0  0  0
  -17.5000  -31.6284   24.5177 H   0  0  0  0  0  0
  -15.5350  -30.3006   23.7629 H   0  0  0  0  0  0
  -15.8678  -28.0848   22.7025 H   0  0  0  0  0  0
  -24.5925  -30.6990   25.7773 H   0  0  0  0  0  0
  -24.8857  -32.2800   26.4928 H   0  0  0  0  0  0
  -25.8060  -30.8837   27.0221 H   0  0  0  0  0  0
  -26.2822  -29.6810   24.1153 H   0  0  0  0  0  0
  -27.4033  -29.7269   25.4582 H   0  0  0  0  0  0
  -27.8681  -30.4343   23.9268 H   0  0  0  0  0  0
  -27.2720  -33.3623   26.2058 H   0  0  0  0  0  0
  -28.3847  -32.6843   25.0256 H   0  0  0  0  0  0
  -28.0755  -31.8417   26.5361 H   0  0  0  0  0  0
  -28.2607  -38.0100   24.7524 H   0  0  0  0  0  0
  -28.1074  -36.2633   24.6280 H   0  0  0  0  0  0
  -27.2298  -37.1434   25.8869 H   0  0  0  0  0  0
  -20.9358  -29.8666   21.6795 H   0  0  0  0  0  0
  -26.0203  -38.2892   24.1418 H   0  0  0  0  0  0
  -31.5436  -24.2260   19.4860 H   0  0  0  0  0  0
  -28.5955  -21.5675   21.0880 H   0  0  0  0  0  0
  -35.3807  -22.1006   18.9577 H   0  0  0  0  0  0
  -34.3440  -20.7634   19.4300 H   0  0  0  0  0  0
  -34.3893  -22.2285   20.3997 H   0  0  0  0  0  0
  -33.5162  -20.1825   16.9843 H   0  0  0  0  0  0
  -31.8753  -20.5771   16.4152 H   0  0  0  0  0  0
  -32.4764  -18.9256   16.4092 H   0  0  0  0  0  0
  -29.8842  -24.8567   21.4055 H   0  0  0  0  0  0
  -28.3732  -24.0105   21.4544 H   0  0  0  0  0  0
  -33.4099  -23.5371   18.5284 H   0  0  0  0  0  0
  -33.3592  -22.2008   17.4833 H   0  0  0  0  0  0
  -29.0862  -19.2834   21.3167 H   0  0  0  0  0  0
  -28.9862  -18.8160   19.6521 H   0  0  0  0  0  0
  -31.0972  -18.9362   18.2108 H   0  0  0  0  0  0
  -32.6692  -19.0916   18.9847 H   0  0  0  0  0  0
  -31.5972  -18.5145   21.1554 H   0  0  0  0  0  0
  -31.1122  -17.5568   19.7944 H   0  0  0  0  0  0
  -29.5936  -17.1818   22.3842 H   0  0  0  0  0  0
  -31.2338  -16.6395   22.3168 H   0  0  0  0  0  0
  -27.7165  -24.8506   19.2575 H   0  0  0  0  0  0
  -29.3236  -25.3572   18.8854 H   0  0  0  0  0  0
  -28.9834  -15.2854   21.3181 H   0  0  0  0  0  0
  1 25  1  0  0  0
  1 30  2  0  0  0
  1 86  1  0  0  0
  2  3  1  0  0  0
  2 25  1  0  0  0
  2 87  1  0  0  0
  2 88  1  0  0  0
  3  4  1  0  0  0
  3 89  1  0  0  0
  3 90  1  0  0  0
  4  5  1  0  0  0
  4 91  1  0  0  0
  4 92  1  0  0  0
  5  6  1  0  0  0
  5 26  1  0  0  0
  5 93  1  0  0  0
  6 25  1  0  0  0
  6 94  1  0  0  0
  6 95  1  0  0  0
  7  8  2  0  0  0
  7 26  1  0  0  0
  7 29  1  0  0  0
  8  9  1  0  0  0
  8 22  1  0  0  0
  9 10  1  0  0  0
  9 27  2  0  0  0
 10 11  2  0  0  0
 10 15  1  0  0  0
 11 12  1  0  0  0
 11 96  1  0  0  0
 12 13  2  0  0  0
 12 97  1  0  0  0
 13 14  1  0  0  0
 13 31  1  0  0  0
 14 15  2  0  0  0
 14 98  1  0  0  0
 15 99  1  0  0  0
 16 17  2  0  0  0
 16 21  1  0  0  0
 16 31  1  0  0  0
 17 18  1  0  0  0
 17100  1  0  0  0
 18 19  2  0  0  0
 18101  1  0  0  0
 19 20  1  0  0  0
 19 24  1  0  0  0
 20 21  2  0  0  0
 20102  1  0  0  0
 21 23  1  0  0  0
 22 28  1  0  0  0
 22 32  2  0  0  0
 26 27  1  0  0  0
 28103  1  0  0  0
 28104  1  0  0  0
 29105  1  0  0  0
 29106  1  0  0  0
 33 34  1  0  0  0
 33 66  1  0  0  0
 33 70  2  0  0  0
 34 36  1  0  0  0
 34 59  1  0  0  0
 34107  1  0  0  0
 35 44  2  0  0  0
 35 45  1  0  0  0
 35 68  1  0  0  0
 36 56  1  0  0  0
 36108  1  0  0  0
 37 39  1  0  0  0
 37 47  1  0  0  0
 37 66  1  0  0  0
 37109  1  0  0  0
 38 43  2  0  0  0
 38 46  1  0  0  0
 38 47  1  0  0  0
 39 64  1  0  0  0
 39 67  2  0  0  0
 40 52  1  0  0  0
 40 53  2  0  0  0
 40 58  1  0  0  0
 41110  1  0  0  0
 41111  1  0  0  0
 41112  1  0  0  0
 41 48  1  0  0  0
 42 43  1  0  0  0
 42 66  1  0  0  0
 42113  1  0  0  0
 42114  1  0  0  0
 43 44  1  0  0  0
 44115  1  0  0  0
 45 46  2  0  0  0
 45116  1  0  0  0
 46117  1  0  0  0
 47118  1  0  0  0
 47119  1  0  0  0
 48 56  1  0  0  0
 48 65  1  0  0  0
 48120  1  0  0  0
 49 50  1  0  0  0
 49 53  1  0  0  0
 49 64  1  0  0  0
 49121  1  0  0  0
 50 51  1  0  0  0
 50122  1  0  0  0
 50123  1  0  0  0
 51 52  1  0  0  0
 51124  1  0  0  0
 51125  1  0  0  0
 52126  1  0  0  0
 52127  1  0  0  0
 53 54  1  0  0  0
 54 55  2  0  0  0
 54128  1  0  0  0
 55 57  1  0  0  0
 55129  1  0  0  0
 56 69  2  0  0  0
 57 58  2  0  0  0
 57130  1  0  0  0
 58131  1  0  0  0
 59 60  1  0  0  0
 59 61  1  0  0  0
 59 62  1  0  0  0
 60132  1  0  0  0
 60133  1  0  0  0
 60134  1  0  0  0
 61135  1  0  0  0
 61136  1  0  0  0
 61137  1  0  0  0
 62138  1  0  0  0
 62139  1  0  0  0
 62140  1  0  0  0
 63 65  1  0  0  0
 63141  1  0  0  0
 63142  1  0  0  0
 63143  1  0  0  0
 64144  1  0  0  0
 65145  1  0  0  0
 68 85  1  0  0  0
 71 73  2  0  0  0
 71 74  1  0  0  0
 71146  1  0  0  0
 72 73  1  0  0  0
 72 75  2  0  0  0
 72147  1  0  0  0
 73 79  1  0  0  0
 74 76  2  0  0  0
 74 80  1  0  0  0
 75 76  1  0  0  0
 75 81  1  0  0  0
 76 82  1  0  0  0
 77 80  1  0  0  0
 77148  1  0  0  0
 77149  1  0  0  0
 77150  1  0  0  0
 78 82  1  0  0  0
 78151  1  0  0  0
 78152  1  0  0  0
 78153  1  0  0  0
 79 85  1  0  0  0
 79154  1  0  0  0
 79155  1  0  0  0
 80156  1  0  0  0
 80157  1  0  0  0
 81 83  1  0  0  0
 81158  1  0  0  0
 81159  1  0  0  0
 82160  1  0  0  0
 82161  1  0  0  0
 83 84  1  0  0  0
 83162  1  0  0  0
 83163  1  0  0  0
 84 86  1  0  0  0
 84164  1  0  0  0
 84165  1  0  0  0
 85166  1  0  0  0
 85167  1  0  0  0
 86168  1  0  0  0
M  ISO  4   1 100  68 101  85 101  86 100
M  END
> <chiral flag>
0

> <version>
0

> <s_m_source_file>
/data/baiqing/PycharmProjects/Reinvent-master-3.2/result/LINK_invent/BTK/process_docking_weight1_custom_sum_contain_oxygen_bond_distance_aromatic_linkinvent_7_9_3/rearranged_h_0039.sdf

> <i_m_source_file_index>
80

> <r_mmod_Potential_Energy-OPLS-2005>
38.5131454467773

> <r_mmod_Stretch_Energy-OPLS-2005>
61.8039474487305

> <r_mmod_Bend_Energy-OPLS-2005>
148.974182128906

> <r_mmod_Torsional_Energy-OPLS-2005>
233.105270385742

> <r_mmod_Improper_Torsional_Energy-OPLS-2005>
3.42653346061707

> <r_mmod_Van_der_Waal_Energy-OPLS-2005>
158.709838867188

> <r_mmod_Electrostatic_Energy-OPLS-2005>
-388.443511962891

> <r_mmod_Solvation_Energy-OPLS-2005>
-202.809509277344

> <b_mmod_Minimization_Converged-OPLS-2005>
0

> <r_mmod_RMS_Derivative-OPLS-2005>
3.48304319381714

$$$$
81
                    3D
 Structure written by MMmdl.
161169  0  0  1  0            999 V2000
  -30.6533  -14.4776   20.6452 C   0  0  0  0  0  0
  -30.4378  -12.3469   19.3978 C   0  0  0  0  0  0
  -29.4961  -12.5691   18.1949 C   0  0  0  0  0  0
  -28.0137  -12.4218   18.5966 C   0  0  0  0  0  0
  -27.6671  -13.2075   19.8890 C   0  0  2  0  0  0
  -28.7075  -12.9126   20.9911 C   0  0  0  0  0  0
  -25.2610  -13.8170   20.5701 C   0  0  0  0  0  0
  -24.1848  -13.0427   20.9179 C   0  0  0  0  0  0
  -24.6393  -11.6903   20.8717 C   0  0  0  0  0  0
  -23.9053  -10.4302   21.0412 C   0  0  0  0  0  0
  -24.3617   -9.4224   21.9180 C   0  0  0  0  0  0
  -23.6306   -8.2247   22.0749 C   0  0  0  0  0  0
  -22.4295   -8.0286   21.3533 C   0  0  0  0  0  0
  -21.9927   -9.0254   20.4631 C   0  0  0  0  0  0
  -22.7236  -10.2144   20.3052 C   0  0  0  0  0  0
  -21.6860   -6.0747   22.5279 C   0  0  0  0  0  0
  -21.4006   -6.5654   23.8216 C   0  0  0  0  0  0
  -21.3657   -5.6808   24.9174 C   0  0  0  0  0  0
  -21.6056   -4.3071   24.7229 C   0  0  0  0  0  0
  -21.8827   -3.8157   23.4348 C   0  0  0  0  0  0
  -21.9206   -4.6968   22.3404 C   0  0  0  0  0  0
  -22.7878  -13.5238   21.1852 C   0  0  0  0  0  0
  -22.1683   -4.2156   21.0982 F   0  0  0  0  0  0
  -21.5623   -3.4563   25.7738 F   0  0  0  0  0  0
  -30.0291  -13.2805   20.4596 N   0  0  0  0  0  0
  -26.3049  -12.9319   20.3400 N   0  0  0  0  0  0
  -25.9320  -11.6478   20.5723 N   0  0  0  0  0  0
  -22.0498  -12.8212   22.0388 N   0  0  0  0  0  0
  -25.4399  -15.1876   20.4150 N   0  0  0  0  0  0
  -31.7427  -14.7312   20.1168 O   0  0  0  0  0  0
  -21.6639   -6.8890   21.4252 O   0  0  0  0  0  0
  -22.3577  -14.5557   20.6732 O   0  0  0  0  0  0
  -24.6142  -31.8668   23.2095 C   0  0  0  0  0  0
  -25.9048  -32.4799   23.8386 C   0  0  1  0  0  0
  -27.2284  -27.4371   20.1081 C   0  0  0  0  0  0
  -25.5921  -33.8607   24.2342 N   0  0  0  0  0  0
  -23.4010  -30.4889   21.5505 C   0  0  2  0  0  0
  -24.8461  -28.9499   20.1133 C   0  0  0  0  0  0
  -22.7400  -29.4648   22.5021 C   0  0  0  0  0  0
  -18.0270  -28.1348   22.8518 C   0  0  0  0  0  0
  -24.1491  -36.7312   23.2639 C   0  0  0  0  0  0
  -25.9276  -30.8283   21.3655 C   0  0  0  0  0  0
  -26.0033  -29.4610   20.7190 C   0  0  0  0  0  0
  -27.1966  -28.7067   20.7235 C   0  0  0  0  0  0
  -26.0654  -26.9392   19.4897 C   0  0  0  0  0  0
  -24.8717  -27.6864   19.4935 C   0  0  0  0  0  0
  -23.6052  -29.8128   20.1674 C   0  0  0  0  0  0
  -25.4108  -36.3109   24.0348 C   0  0  1  0  0  0
  -20.5864  -28.3644   23.1343 C   0  0  2  0  0  0
  -20.6779  -26.9394   22.5430 C   0  0  0  0  0  0
  -19.5758  -26.6377   21.5227 C   0  0  0  0  0  0
  -18.1923  -26.7912   22.1630 C   0  0  0  0  0  0
  -19.1512  -28.8820   23.2920 C   0  0  0  0  0  0
  -18.9431  -30.1436   23.8915 C   0  0  0  0  0  0
  -17.6431  -30.6565   24.0567 C   0  0  0  0  0  0
  -25.9031  -34.9468   23.5134 C   0  0  0  0  0  0
  -16.5334  -29.9062   23.6316 C   0  0  0  0  0  0
  -16.7264  -28.6471   23.0368 C   0  0  0  0  0  0
  -26.4473  -31.6571   25.0707 C   0  0  0  0  0  0
  -25.3744  -31.3667   26.1453 C   0  0  0  0  0  0
  -27.0305  -30.3008   24.6097 C   0  0  0  0  0  0
  -27.6052  -32.4268   25.7497 C   0  0  0  0  0  0
  -27.5601  -37.1812   24.8468 C   0  0  0  0  0  0
  -21.4127  -29.3006   22.3752 N   0  0  0  0  0  0
  -26.4314  -37.3787   23.9398 N   0  0  0  0  0  0
  -24.6653  -31.0778   22.0996 N   0  0  0  0  0  0
  -23.4160  -28.8248   23.3122 O   0  0  0  0  0  0
  -28.3700  -26.6715   20.1068 O   0  0  0  0  0  0
  -26.5604  -34.8935   22.4698 O   0  0  0  0  0  0
  -23.5337  -32.1469   23.7461 O   0  0  0  0  0  0
  -29.6394  -20.2547   21.9211 C   0  0  0  0  0  0
  -29.0199  -19.4184   20.9776 C   0  0  0  0  0  0
  -28.5091  -20.0652   19.8323 C   0  0  0  0  0  0
  -29.2769  -22.0903   20.6032 C   0  0  0  0  0  0
  -26.2440  -19.1639   19.1158 C   0  0  0  0  0  0
  -28.8575  -17.9219   21.2657 C   0  0  0  0  0  0
  -27.7253  -19.3400   18.7503 C   0  0  0  0  0  0
  -29.3982  -23.6012   20.4143 C   0  0  0  0  0  0
  -29.9569  -15.5962   21.4732 C   0  0  0  0  0  0
  -30.0812  -17.0409   20.9083 C   0  0  0  0  0  0
  -28.2532  -24.3877   21.0880 C   0  0  0  0  0  0
  -28.5400  -25.8921   21.2977 C   0  0  0  0  0  0
  -29.7646  -21.5827   21.7296 N   0  0  0  0  0  0
  -28.6390  -21.3986   19.6645 N   0  0  0  0  0  0
  -31.4760  -12.4952   19.0947 H   0  0  0  0  0  0
  -30.3755  -11.3181   19.7539 H   0  0  0  0  0  0
  -29.7391  -11.8804   17.3835 H   0  0  0  0  0  0
  -29.6570  -13.5737   17.7979 H   0  0  0  0  0  0
  -27.8032  -11.3625   18.7391 H   0  0  0  0  0  0
  -27.3758  -12.7562   17.7791 H   0  0  0  0  0  0
  -27.7301  -14.2685   19.6446 H   0  0  0  0  0  0
  -28.6947  -11.8488   21.2293 H   0  0  0  0  0  0
  -28.4665  -13.4044   21.9328 H   0  0  0  0  0  0
  -25.2761   -9.5715   22.4744 H   0  0  0  0  0  0
  -24.0030   -7.4652   22.7471 H   0  0  0  0  0  0
  -21.0865   -8.8775   19.8924 H   0  0  0  0  0  0
  -22.3704  -10.9685   19.6165 H   0  0  0  0  0  0
  -21.1981   -7.6161   23.9715 H   0  0  0  0  0  0
  -21.1471   -6.0537   25.9085 H   0  0  0  0  0  0
  -22.0607   -2.7615   23.2845 H   0  0  0  0  0  0
  -22.4129  -11.9859   22.4740 H   0  0  0  0  0  0
  -21.1109  -13.1224   22.2569 H   0  0  0  0  0  0
  -24.6827  -15.8548   20.5180 H   0  0  0  0  0  0
  -26.3042  -15.6096   20.1009 H   0  0  0  0  0  0
  -26.7134  -32.5518   23.1168 H   0  0  0  0  0  0
  -25.0119  -33.9762   25.0521 H   0  0  0  0  0  0
  -22.6889  -31.3038   21.4090 H   0  0  0  0  0  0
  -23.3758  -35.9639   23.3279 H   0  0  0  0  0  0
  -24.3607  -36.8936   22.2057 H   0  0  0  0  0  0
  -23.7222  -37.6506   23.6660 H   0  0  0  0  0  0
  -26.0465  -31.5905   20.5944 H   0  0  0  0  0  0
  -26.8135  -30.8798   21.9850 H   0  0  0  0  0  0
  -28.0863  -29.0892   21.2050 H   0  0  0  0  0  0
  -26.0856  -25.9692   19.0122 H   0  0  0  0  0  0
  -23.9887  -27.2842   19.0147 H   0  0  0  0  0  0
  -23.6976  -30.5793   19.3982 H   0  0  0  0  0  0
  -22.7305  -29.2216   19.8876 H   0  0  0  0  0  0
  -25.1275  -36.1999   25.0847 H   0  0  0  0  0  0
  -20.9953  -28.3210   24.1464 H   0  0  0  0  0  0
  -20.5710  -26.2248   23.3603 H   0  0  0  0  0  0
  -21.6648  -26.7469   22.1203 H   0  0  0  0  0  0
  -19.6929  -25.6290   21.1242 H   0  0  0  0  0  0
  -19.6684  -27.3199   20.6769 H   0  0  0  0  0  0
  -17.4213  -26.6697   21.4005 H   0  0  0  0  0  0
  -18.0289  -26.0007   22.8980 H   0  0  0  0  0  0
  -19.7905  -30.7254   24.2275 H   0  0  0  0  0  0
  -17.4981  -31.6245   24.5172 H   0  0  0  0  0  0
  -15.5330  -30.2973   23.7589 H   0  0  0  0  0  0
  -15.8672  -28.0768   22.7086 H   0  0  0  0  0  0
  -24.5887  -30.7061   25.7777 H   0  0  0  0  0  0
  -24.8975  -32.2819   26.4979 H   0  0  0  0  0  0
  -25.8084  -30.8761   27.0178 H   0  0  0  0  0  0
  -26.2858  -29.6761   24.1155 H   0  0  0  0  0  0
  -27.4069  -29.7247   25.4567 H   0  0  0  0  0  0
  -27.8705  -30.4311   23.9264 H   0  0  0  0  0  0
  -27.2679  -33.3549   26.2143 H   0  0  0  0  0  0
  -28.3859  -32.6855   25.0323 H   0  0  0  0  0  0
  -28.0749  -31.8341   26.5370 H   0  0  0  0  0  0
  -28.2601  -38.0132   24.7538 H   0  0  0  0  0  0
  -28.1108  -36.2657   24.6248 H   0  0  0  0  0  0
  -27.2330  -37.1417   25.8878 H   0  0  0  0  0  0
  -20.9291  -29.8655   21.6902 H   0  0  0  0  0  0
  -26.0201  -38.2878   24.1353 H   0  0  0  0  0  0
  -30.0139  -19.8588   22.8524 H   0  0  0  0  0  0
  -25.6567  -18.8600   18.2492 H   0  0  0  0  0  0
  -25.8212  -20.0926   19.4960 H   0  0  0  0  0  0
  -26.1116  -18.4050   19.8868 H   0  0  0  0  0  0
  -27.9856  -17.5318   20.7469 H   0  0  0  0  0  0
  -28.6225  -17.8176   22.3261 H   0  0  0  0  0  0
  -28.1890  -18.3762   18.5424 H   0  0  0  0  0  0
  -27.7902  -19.9139   17.8253 H   0  0  0  0  0  0
  -29.4461  -23.8464   19.3526 H   0  0  0  0  0  0
  -30.3548  -23.9173   20.8345 H   0  0  0  0  0  0
  -28.8926  -15.4033   21.5585 H   0  0  0  0  0  0
  -30.3428  -15.5667   22.4926 H   0  0  0  0  0  0
  -30.9861  -17.4947   21.3180 H   0  0  0  0  0  0
  -30.2056  -17.0266   19.8243 H   0  0  0  0  0  0
  -28.1025  -23.9504   22.0761 H   0  0  0  0  0  0
  -27.3135  -24.2344   20.5569 H   0  0  0  0  0  0
  -29.5543  -26.0311   21.6717 H   0  0  0  0  0  0
  -27.8931  -26.2598   22.0973 H   0  0  0  0  0  0
  1 25  1  0  0  0
  1 30  2  0  0  0
  1 79  1  0  0  0
  2  3  1  0  0  0
  2 25  1  0  0  0
  2 85  1  0  0  0
  2 86  1  0  0  0
  3  4  1  0  0  0
  3 87  1  0  0  0
  3 88  1  0  0  0
  4  5  1  0  0  0
  4 89  1  0  0  0
  4 90  1  0  0  0
  5  6  1  0  0  0
  5 26  1  0  0  0
  5 91  1  0  0  0
  6 25  1  0  0  0
  6 92  1  0  0  0
  6 93  1  0  0  0
  7  8  2  0  0  0
  7 26  1  0  0  0
  7 29  1  0  0  0
  8  9  1  0  0  0
  8 22  1  0  0  0
  9 10  1  0  0  0
  9 27  2  0  0  0
 10 11  2  0  0  0
 10 15  1  0  0  0
 11 12  1  0  0  0
 11 94  1  0  0  0
 12 13  2  0  0  0
 12 95  1  0  0  0
 13 14  1  0  0  0
 13 31  1  0  0  0
 14 15  2  0  0  0
 14 96  1  0  0  0
 15 97  1  0  0  0
 16 17  2  0  0  0
 16 21  1  0  0  0
 16 31  1  0  0  0
 17 18  1  0  0  0
 17 98  1  0  0  0
 18 19  2  0  0  0
 18 99  1  0  0  0
 19 20  1  0  0  0
 19 24  1  0  0  0
 20 21  2  0  0  0
 20100  1  0  0  0
 21 23  1  0  0  0
 22 28  1  0  0  0
 22 32  2  0  0  0
 26 27  1  0  0  0
 28101  1  0  0  0
 28102  1  0  0  0
 29103  1  0  0  0
 29104  1  0  0  0
 33 34  1  0  0  0
 33 66  1  0  0  0
 33 70  2  0  0  0
 34 36  1  0  0  0
 34 59  1  0  0  0
 34105  1  0  0  0
 35 44  2  0  0  0
 35 45  1  0  0  0
 35 68  1  0  0  0
 36 56  1  0  0  0
 36106  1  0  0  0
 37 39  1  0  0  0
 37 47  1  0  0  0
 37 66  1  0  0  0
 37107  1  0  0  0
 38 43  2  0  0  0
 38 46  1  0  0  0
 38 47  1  0  0  0
 39 64  1  0  0  0
 39 67  2  0  0  0
 40 52  1  0  0  0
 40 53  2  0  0  0
 40 58  1  0  0  0
 41108  1  0  0  0
 41109  1  0  0  0
 41110  1  0  0  0
 41 48  1  0  0  0
 42 43  1  0  0  0
 42 66  1  0  0  0
 42111  1  0  0  0
 42112  1  0  0  0
 43 44  1  0  0  0
 44113  1  0  0  0
 45 46  2  0  0  0
 45114  1  0  0  0
 46115  1  0  0  0
 47116  1  0  0  0
 47117  1  0  0  0
 48 56  1  0  0  0
 48 65  1  0  0  0
 48118  1  0  0  0
 49 50  1  0  0  0
 49 53  1  0  0  0
 49 64  1  0  0  0
 49119  1  0  0  0
 50 51  1  0  0  0
 50120  1  0  0  0
 50121  1  0  0  0
 51 52  1  0  0  0
 51122  1  0  0  0
 51123  1  0  0  0
 52124  1  0  0  0
 52125  1  0  0  0
 53 54  1  0  0  0
 54 55  2  0  0  0
 54126  1  0  0  0
 55 57  1  0  0  0
 55127  1  0  0  0
 56 69  2  0  0  0
 57 58  2  0  0  0
 57128  1  0  0  0
 58129  1  0  0  0
 59 60  1  0  0  0
 59 61  1  0  0  0
 59 62  1  0  0  0
 60130  1  0  0  0
 60131  1  0  0  0
 60132  1  0  0  0
 61133  1  0  0  0
 61134  1  0  0  0
 61135  1  0  0  0
 62136  1  0  0  0
 62137  1  0  0  0
 62138  1  0  0  0
 63 65  1  0  0  0
 63139  1  0  0  0
 63140  1  0  0  0
 63141  1  0  0  0
 64142  1  0  0  0
 65143  1  0  0  0
 68 82  1  0  0  0
 71 72  2  0  0  0
 71 83  1  0  0  0
 71144  1  0  0  0
 72 73  1  0  0  0
 72 76  1  0  0  0
 73 77  1  0  0  0
 73 84  2  0  0  0
 74 78  1  0  0  0
 74 83  2  0  0  0
 74 84  1  0  0  0
 75 77  1  0  0  0
 75145  1  0  0  0
 75146  1  0  0  0
 75147  1  0  0  0
 76 80  1  0  0  0
 76148  1  0  0  0
 76149  1  0  0  0
 77150  1  0  0  0
 77151  1  0  0  0
 78 81  1  0  0  0
 78152  1  0  0  0
 78153  1  0  0  0
 79 80  1  0  0  0
 79154  1  0  0  0
 79155  1  0  0  0
 80156  1  0  0  0
 80157  1  0  0  0
 81 82  1  0  0  0
 81158  1  0  0  0
 81159  1  0  0  0
 82160  1  0  0  0
 82161  1  0  0  0
M  ISO  4   1 100  68 101  79 100  82 101
M  END
> <chiral flag>
0

> <version>
0

> <s_m_source_file>
/data/baiqing/PycharmProjects/Reinvent-master-3.2/result/LINK_invent/BTK/process_docking_weight1_custom_sum_contain_oxygen_bond_distance_aromatic_linkinvent_7_9_3/rearranged_h_0039.sdf

> <i_m_source_file_index>
81

> <r_mmod_Potential_Energy-OPLS-2005>
-503.140075683594

> <r_mmod_Stretch_Energy-OPLS-2005>
35.5390129089355

> <r_mmod_Bend_Energy-OPLS-2005>
94.901741027832

> <r_mmod_Torsional_Energy-OPLS-2005>
183.638214111328

> <r_mmod_Improper_Torsional_Energy-OPLS-2005>
2.58322548866272

> <r_mmod_Van_der_Waal_Energy-OPLS-2005>
150.923065185547

> <r_mmod_Electrostatic_Energy-OPLS-2005>
-770.685974121094

> <r_mmod_Solvation_Energy-OPLS-2005>
-213.847290039062

> <b_mmod_Minimization_Converged-OPLS-2005>
0

> <r_mmod_RMS_Derivative-OPLS-2005>
4.19077825546265

$$$$
82
                    3D
 Structure written by MMmdl.
163171  0  0  1  0            999 V2000
  -30.7368  -14.4155   20.6033 C   0  0  0  0  0  0
  -30.4075  -12.2745   19.4257 C   0  0  0  0  0  0
  -29.4913  -12.5001   18.2087 C   0  0  0  0  0  0
  -28.0098  -12.3761   18.6157 C   0  0  0  0  0  0
  -27.6608  -13.2122   19.8771 C   0  0  2  0  0  0
  -28.7013  -12.9936   20.9982 C   0  0  0  0  0  0
  -25.2580  -13.8180   20.5712 C   0  0  0  0  0  0
  -24.1837  -13.0447   20.9207 C   0  0  0  0  0  0
  -24.6395  -11.6918   20.8734 C   0  0  0  0  0  0
  -23.9060  -10.4301   21.0396 C   0  0  0  0  0  0
  -24.3617   -9.4220   21.9177 C   0  0  0  0  0  0
  -23.6307   -8.2247   22.0733 C   0  0  0  0  0  0
  -22.4283   -8.0285   21.3544 C   0  0  0  0  0  0
  -21.9916   -9.0244   20.4638 C   0  0  0  0  0  0
  -22.7227  -10.2134   20.3053 C   0  0  0  0  0  0
  -21.6858   -6.0743   22.5282 C   0  0  0  0  0  0
  -21.4005   -6.5634   23.8216 C   0  0  0  0  0  0
  -21.3674   -5.6786   24.9177 C   0  0  0  0  0  0
  -21.6058   -4.3049   24.7229 C   0  0  0  0  0  0
  -21.8822   -3.8155   23.4343 C   0  0  0  0  0  0
  -21.9191   -4.6975   22.3403 C   0  0  0  0  0  0
  -22.7859  -13.5224   21.1900 C   0  0  0  0  0  0
  -22.1663   -4.2160   21.0981 F   0  0  0  0  0  0
  -21.5639   -3.4531   25.7740 F   0  0  0  0  0  0
  -30.0368  -13.2626   20.4486 N   0  0  0  0  0  0
  -26.3025  -12.9362   20.3394 N   0  0  0  0  0  0
  -25.9329  -11.6510   20.5771 N   0  0  0  0  0  0
  -22.0509  -12.8192   22.0449 N   0  0  0  0  0  0
  -25.4323  -15.1897   20.4119 N   0  0  0  0  0  0
  -31.8496  -14.5643   20.0906 O   0  0  0  0  0  0
  -21.6649   -6.8885   21.4244 O   0  0  0  0  0  0
  -22.3532  -14.5536   20.6767 O   0  0  0  0  0  0
  -24.6096  -31.8710   23.2137 C   0  0  0  0  0  0
  -25.9011  -32.4839   23.8411 C   0  0  1  0  0  0
  -27.2377  -27.4773   20.0878 C   0  0  0  0  0  0
  -25.5892  -33.8633   24.2354 N   0  0  0  0  0  0
  -23.3958  -30.4935   21.5533 C   0  0  2  0  0  0
  -24.8446  -28.9637   20.1152 C   0  0  0  0  0  0
  -22.7374  -29.4674   22.5013 C   0  0  0  0  0  0
  -18.0267  -28.1382   22.8498 C   0  0  0  0  0  0
  -24.1488  -36.7319   23.2637 C   0  0  0  0  0  0
  -25.9189  -30.8485   21.3609 C   0  0  0  0  0  0
  -25.9998  -29.4836   20.7146 C   0  0  0  0  0  0
  -27.1993  -28.7442   20.7076 C   0  0  0  0  0  0
  -26.0760  -26.9641   19.4806 C   0  0  0  0  0  0
  -24.8752  -27.6993   19.4985 C   0  0  0  0  0  0
  -23.6021  -29.8223   20.1681 C   0  0  0  0  0  0
  -25.4107  -36.3121   24.0339 C   0  0  1  0  0  0
  -20.5850  -28.3655   23.1343 C   0  0  2  0  0  0
  -20.6756  -26.9402   22.5433 C   0  0  0  0  0  0
  -19.5738  -26.6392   21.5226 C   0  0  0  0  0  0
  -18.1909  -26.7936   22.1622 C   0  0  0  0  0  0
  -19.1516  -28.8832   23.2916 C   0  0  0  0  0  0
  -18.9448  -30.1440   23.8930 C   0  0  0  0  0  0
  -17.6454  -30.6589   24.0575 C   0  0  0  0  0  0
  -25.9029  -34.9485   23.5138 C   0  0  0  0  0  0
  -16.5342  -29.9098   23.6334 C   0  0  0  0  0  0
  -16.7255  -28.6514   23.0354 C   0  0  0  0  0  0
  -26.4470  -31.6596   25.0712 C   0  0  0  0  0  0
  -25.3748  -31.3687   26.1466 C   0  0  0  0  0  0
  -27.0293  -30.3047   24.6035 C   0  0  0  0  0  0
  -27.6066  -32.4300   25.7459 C   0  0  0  0  0  0
  -27.5585  -37.1808   24.8461 C   0  0  0  0  0  0
  -21.4111  -29.3029   22.3748 N   0  0  0  0  0  0
  -26.4301  -37.3799   23.9404 N   0  0  0  0  0  0
  -24.6597  -31.0843   22.1021 N   0  0  0  0  0  0
  -23.4172  -28.8219   23.3039 O   0  0  0  0  0  0
  -28.3863  -26.7326   20.0483 O   0  0  0  0  0  0
  -26.5588  -34.8926   22.4700 O   0  0  0  0  0  0
  -23.5310  -32.1457   23.7568 O   0  0  0  0  0  0
  -30.7011  -20.7061   20.7212 C   0  0  0  0  0  0
  -30.7786  -21.9610   21.2814 C   0  0  0  0  0  0
  -29.8376  -22.0924   19.3052 C   0  0  0  0  0  0
  -31.3584  -22.3653   22.6034 C   0  0  0  0  0  0
  -29.1667  -22.6559   18.0930 C   0  0  0  0  0  0
  -31.2691  -19.4097   21.2274 C   0  0  0  0  0  0
  -30.1021  -15.6240   21.3288 C   0  0  0  0  0  0
  -30.2578  -18.2495   21.3455 C   0  0  0  0  0  0
  -30.9925  -16.8965   21.2853 C   0  0  0  0  0  0
  -28.9855  -24.7728   21.2965 C   0  0  0  0  0  0
  -30.1770  -24.3025   20.4487 C   0  0  0  0  0  0
  -28.8516  -26.3021   21.3241 C   0  0  0  0  0  0
  -30.1096  -20.8009   19.4639 N   0  0  0  0  0  0
  -30.2478  -22.8497   20.3433 N   0  0  0  0  0  0
  -31.4555  -12.3385   19.1290 H   0  0  0  0  0  0
  -30.2736  -11.2668   19.8217 H   0  0  0  0  0  0
  -29.7222  -11.7769   17.4260 H   0  0  0  0  0  0
  -29.6802  -13.4862   17.7823 H   0  0  0  0  0  0
  -27.8055  -11.3204   18.8004 H   0  0  0  0  0  0
  -27.3673  -12.6661   17.7845 H   0  0  0  0  0  0
  -27.7038  -14.2608   19.5856 H   0  0  0  0  0  0
  -28.6614  -11.9636   21.3536 H   0  0  0  0  0  0
  -28.4719  -13.6135   21.8639 H   0  0  0  0  0  0
  -25.2765   -9.5693   22.4755 H   0  0  0  0  0  0
  -24.0041   -7.4618   22.7418 H   0  0  0  0  0  0
  -21.0866   -8.8744   19.8915 H   0  0  0  0  0  0
  -22.3687  -10.9671   19.6167 H   0  0  0  0  0  0
  -21.1974   -7.6136   23.9726 H   0  0  0  0  0  0
  -21.1504   -6.0508   25.9079 H   0  0  0  0  0  0
  -22.0590   -2.7618   23.2837 H   0  0  0  0  0  0
  -22.4121  -11.9838   22.4826 H   0  0  0  0  0  0
  -21.1122  -13.1202   22.2655 H   0  0  0  0  0  0
  -24.6739  -15.8532   20.5236 H   0  0  0  0  0  0
  -26.2958  -15.6257   20.1136 H   0  0  0  0  0  0
  -26.7085  -32.5584   23.1189 H   0  0  0  0  0  0
  -25.0031  -33.9799   25.0489 H   0  0  0  0  0  0
  -22.6834  -31.3100   21.4164 H   0  0  0  0  0  0
  -23.3749  -35.9655   23.3315 H   0  0  0  0  0  0
  -24.3582  -36.8916   22.2050 H   0  0  0  0  0  0
  -23.7238  -37.6524   23.6642 H   0  0  0  0  0  0
  -26.0224  -31.6124   20.5896 H   0  0  0  0  0  0
  -26.8108  -30.9087   21.9727 H   0  0  0  0  0  0
  -28.0928  -29.1442   21.1659 H   0  0  0  0  0  0
  -26.1036  -25.9939   19.0046 H   0  0  0  0  0  0
  -23.9873  -27.2937   19.0334 H   0  0  0  0  0  0
  -23.6994  -30.5964   19.4061 H   0  0  0  0  0  0
  -22.7287  -29.2349   19.8791 H   0  0  0  0  0  0
  -25.1289  -36.1992   25.0833 H   0  0  0  0  0  0
  -20.9949  -28.3221   24.1458 H   0  0  0  0  0  0
  -20.5670  -26.2259   23.3603 H   0  0  0  0  0  0
  -21.6619  -26.7448   22.1216 H   0  0  0  0  0  0
  -19.6895  -25.6311   21.1230 H   0  0  0  0  0  0
  -19.6692  -27.3218   20.6770 H   0  0  0  0  0  0
  -17.4189  -26.6709   21.4014 H   0  0  0  0  0  0
  -18.0297  -26.0065   22.9003 H   0  0  0  0  0  0
  -19.7920  -30.7248   24.2313 H   0  0  0  0  0  0
  -17.5009  -31.6271   24.5165 H   0  0  0  0  0  0
  -15.5350  -30.3014   23.7635 H   0  0  0  0  0  0
  -15.8651  -28.0841   22.7069 H   0  0  0  0  0  0
  -24.5926  -30.7031   25.7789 H   0  0  0  0  0  0
  -24.8935  -32.2844   26.4918 H   0  0  0  0  0  0
  -25.8111  -30.8846   27.0212 H   0  0  0  0  0  0
  -26.2815  -29.6802   24.1130 H   0  0  0  0  0  0
  -27.4136  -29.7277   25.4455 H   0  0  0  0  0  0
  -27.8619  -30.4386   23.9121 H   0  0  0  0  0  0
  -27.2700  -33.3574   26.2102 H   0  0  0  0  0  0
  -28.3833  -32.6899   25.0252 H   0  0  0  0  0  0
  -28.0783  -31.8381   26.5314 H   0  0  0  0  0  0
  -28.2612  -38.0098   24.7506 H   0  0  0  0  0  0
  -28.1080  -36.2633   24.6299 H   0  0  0  0  0  0
  -27.2301  -37.1450   25.8863 H   0  0  0  0  0  0
  -20.9265  -29.8741   21.6972 H   0  0  0  0  0  0
  -26.0202  -38.2881   24.1410 H   0  0  0  0  0  0
  -32.4456  -22.2832   22.5926 H   0  0  0  0  0  0
  -30.9875  -21.7171   23.3976 H   0  0  0  0  0  0
  -31.1055  -23.3869   22.8813 H   0  0  0  0  0  0
  -28.7595  -21.8541   17.4770 H   0  0  0  0  0  0
  -29.8784  -23.2215   17.4932 H   0  0  0  0  0  0
  -28.3457  -23.3135   18.3823 H   0  0  0  0  0  0
  -31.7375  -19.5563   22.2016 H   0  0  0  0  0  0
  -32.0873  -19.1213   20.5660 H   0  0  0  0  0  0
  -29.1456  -15.8338   20.8507 H   0  0  0  0  0  0
  -29.8868  -15.3621   22.3652 H   0  0  0  0  0  0
  -29.5585  -18.2921   20.5096 H   0  0  0  0  0  0
  -29.6639  -18.3511   22.2551 H   0  0  0  0  0  0
  -31.5683  -16.9185   20.3585 H   0  0  0  0  0  0
  -31.7278  -16.8421   22.0901 H   0  0  0  0  0  0
  -29.1009  -24.4094   22.3169 H   0  0  0  0  0  0
  -28.0618  -24.3315   20.9195 H   0  0  0  0  0  0
  -31.1137  -24.6699   20.8690 H   0  0  0  0  0  0
  -30.1166  -24.7297   19.4480 H   0  0  0  0  0  0
  -29.8075  -26.7779   21.5463 H   0  0  0  0  0  0
  -28.1700  -26.5818   22.1303 H   0  0  0  0  0  0
  1 25  1  0  0  0
  1 30  2  0  0  0
  1 77  1  0  0  0
  2  3  1  0  0  0
  2 25  1  0  0  0
  2 85  1  0  0  0
  2 86  1  0  0  0
  3  4  1  0  0  0
  3 87  1  0  0  0
  3 88  1  0  0  0
  4  5  1  0  0  0
  4 89  1  0  0  0
  4 90  1  0  0  0
  5  6  1  0  0  0
  5 26  1  0  0  0
  5 91  1  0  0  0
  6 25  1  0  0  0
  6 92  1  0  0  0
  6 93  1  0  0  0
  7  8  2  0  0  0
  7 26  1  0  0  0
  7 29  1  0  0  0
  8  9  1  0  0  0
  8 22  1  0  0  0
  9 10  1  0  0  0
  9 27  2  0  0  0
 10 11  2  0  0  0
 10 15  1  0  0  0
 11 12  1  0  0  0
 11 94  1  0  0  0
 12 13  2  0  0  0
 12 95  1  0  0  0
 13 14  1  0  0  0
 13 31  1  0  0  0
 14 15  2  0  0  0
 14 96  1  0  0  0
 15 97  1  0  0  0
 16 17  2  0  0  0
 16 21  1  0  0  0
 16 31  1  0  0  0
 17 18  1  0  0  0
 17 98  1  0  0  0
 18 19  2  0  0  0
 18 99  1  0  0  0
 19 20  1  0  0  0
 19 24  1  0  0  0
 20 21  2  0  0  0
 20100  1  0  0  0
 21 23  1  0  0  0
 22 28  1  0  0  0
 22 32  2  0  0  0
 26 27  1  0  0  0
 28101  1  0  0  0
 28102  1  0  0  0
 29103  1  0  0  0
 29104  1  0  0  0
 33 34  1  0  0  0
 33 66  1  0  0  0
 33 70  2  0  0  0
 34 36  1  0  0  0
 34 59  1  0  0  0
 34105  1  0  0  0
 35 44  2  0  0  0
 35 45  1  0  0  0
 35 68  1  0  0  0
 36 56  1  0  0  0
 36106  1  0  0  0
 37 39  1  0  0  0
 37 47  1  0  0  0
 37 66  1  0  0  0
 37107  1  0  0  0
 38 43  2  0  0  0
 38 46  1  0  0  0
 38 47  1  0  0  0
 39 64  1  0  0  0
 39 67  2  0  0  0
 40 52  1  0  0  0
 40 53  2  0  0  0
 40 58  1  0  0  0
 41108  1  0  0  0
 41109  1  0  0  0
 41110  1  0  0  0
 41 48  1  0  0  0
 42 43  1  0  0  0
 42 66  1  0  0  0
 42111  1  0  0  0
 42112  1  0  0  0
 43 44  1  0  0  0
 44113  1  0  0  0
 45 46  2  0  0  0
 45114  1  0  0  0
 46115  1  0  0  0
 47116  1  0  0  0
 47117  1  0  0  0
 48 56  1  0  0  0
 48 65  1  0  0  0
 48118  1  0  0  0
 49 50  1  0  0  0
 49 53  1  0  0  0
 49 64  1  0  0  0
 49119  1  0  0  0
 50 51  1  0  0  0
 50120  1  0  0  0
 50121  1  0  0  0
 51 52  1  0  0  0
 51122  1  0  0  0
 51123  1  0  0  0
 52124  1  0  0  0
 52125  1  0  0  0
 53 54  1  0  0  0
 54 55  2  0  0  0
 54126  1  0  0  0
 55 57  1  0  0  0
 55127  1  0  0  0
 56 69  2  0  0  0
 57 58  2  0  0  0
 57128  1  0  0  0
 58129  1  0  0  0
 59 60  1  0  0  0
 59 61  1  0  0  0
 59 62  1  0  0  0
 60130  1  0  0  0
 60131  1  0  0  0
 60132  1  0  0  0
 61133  1  0  0  0
 61134  1  0  0  0
 61135  1  0  0  0
 62136  1  0  0  0
 62137  1  0  0  0
 62138  1  0  0  0
 63 65  1  0  0  0
 63139  1  0  0  0
 63140  1  0  0  0
 63141  1  0  0  0
 64142  1  0  0  0
 65143  1  0  0  0
 68 82  1  0  0  0
 71 72  2  0  0  0
 71 76  1  0  0  0
 71 83  1  0  0  0
 72 74  1  0  0  0
 72 84  1  0  0  0
 73 75  1  0  0  0
 73 83  2  0  0  0
 73 84  1  0  0  0
 74144  1  0  0  0
 74145  1  0  0  0
 74146  1  0  0  0
 75147  1  0  0  0
 75148  1  0  0  0
 75149  1  0  0  0
 76 78  1  0  0  0
 76150  1  0  0  0
 76151  1  0  0  0
 77 79  1  0  0  0
 77152  1  0  0  0
 77153  1  0  0  0
 78 79  1  0  0  0
 78154  1  0  0  0
 78155  1  0  0  0
 79156  1  0  0  0
 79157  1  0  0  0
 80 81  1  0  0  0
 80 82  1  0  0  0
 80158  1  0  0  0
 80159  1  0  0  0
 81 84  1  0  0  0
 81160  1  0  0  0
 81161  1  0  0  0
 82162  1  0  0  0
 82163  1  0  0  0
M  ISO  4   1 100  68 101  77 100  82 101
M  END
> <chiral flag>
0

> <version>
0

> <s_m_source_file>
/data/baiqing/PycharmProjects/Reinvent-master-3.2/result/LINK_invent/BTK/process_docking_weight1_custom_sum_contain_oxygen_bond_distance_aromatic_linkinvent_7_9_3/rearranged_h_0039.sdf

> <i_m_source_file_index>
82

> <r_mmod_Potential_Energy-OPLS-2005>
-97.9374694824219

> <r_mmod_Stretch_Energy-OPLS-2005>
31.0034828186035

> <r_mmod_Bend_Energy-OPLS-2005>
94.6896667480469

> <r_mmod_Torsional_Energy-OPLS-2005>
203.449630737305

> <r_mmod_Improper_Torsional_Energy-OPLS-2005>
2.91154789924622

> <r_mmod_Van_der_Waal_Energy-OPLS-2005>
130.107955932617

> <r_mmod_Electrostatic_Energy-OPLS-2005>
-364.921264648438

> <r_mmod_Solvation_Energy-OPLS-2005>
-204.312316894531

> <b_mmod_Minimization_Converged-OPLS-2005>
0

> <r_mmod_RMS_Derivative-OPLS-2005>
2.0445613861084

$$$$
83
                    3D
 Structure written by MMmdl.
168176  0  0  1  0            999 V2000
  -30.7349  -14.3285   20.7038 C   0  0  0  0  0  0
  -30.4300  -12.2811   19.3611 C   0  0  0  0  0  0
  -29.4874  -12.5340   18.1686 C   0  0  0  0  0  0
  -28.0087  -12.4030   18.5851 C   0  0  0  0  0  0
  -27.6731  -13.1973   19.8739 C   0  0  2  0  0  0
  -28.7072  -12.8647   20.9690 C   0  0  0  0  0  0
  -25.2675  -13.8157   20.5669 C   0  0  0  0  0  0
  -24.1904  -13.0470   20.9152 C   0  0  0  0  0  0
  -24.6410  -11.6926   20.8631 C   0  0  0  0  0  0
  -23.9053  -10.4324   21.0333 C   0  0  0  0  0  0
  -24.3600   -9.4262   21.9132 C   0  0  0  0  0  0
  -23.6304   -8.2263   22.0711 C   0  0  0  0  0  0
  -22.4292   -8.0266   21.3492 C   0  0  0  0  0  0
  -21.9907   -9.0252   20.4613 C   0  0  0  0  0  0
  -22.7201  -10.2164   20.3017 C   0  0  0  0  0  0
  -21.6891   -6.0724   22.5274 C   0  0  0  0  0  0
  -21.4010   -6.5633   23.8201 C   0  0  0  0  0  0
  -21.3662   -5.6784   24.9156 C   0  0  0  0  0  0
  -21.6047   -4.3039   24.7221 C   0  0  0  0  0  0
  -21.8824   -3.8121   23.4344 C   0  0  0  0  0  0
  -21.9220   -4.6944   22.3411 C   0  0  0  0  0  0
  -22.7908  -13.5298   21.1774 C   0  0  0  0  0  0
  -22.1669   -4.2125   21.0977 F   0  0  0  0  0  0
  -21.5641   -3.4528   25.7725 F   0  0  0  0  0  0
  -30.0523  -13.1865   20.4519 N   0  0  0  0  0  0
  -26.3070  -12.9315   20.3311 N   0  0  0  0  0  0
  -25.9328  -11.6490   20.5622 N   0  0  0  0  0  0
  -22.0508  -12.8317   22.0342 N   0  0  0  0  0  0
  -25.4509  -15.1859   20.4052 N   0  0  0  0  0  0
  -31.7519  -14.6751   20.0920 O   0  0  0  0  0  0
  -21.6660   -6.8862   21.4226 O   0  0  0  0  0  0
  -22.3643  -14.5557   20.6551 O   0  0  0  0  0  0
  -24.6075  -31.8737   23.2143 C   0  0  0  0  0  0
  -25.8999  -32.4850   23.8420 C   0  0  1  0  0  0
  -27.2579  -27.5084   20.0904 C   0  0  0  0  0  0
  -25.5881  -33.8649   24.2349 N   0  0  0  0  0  0
  -23.3913  -30.4940   21.5519 C   0  0  2  0  0  0
  -24.8424  -28.9642   20.1211 C   0  0  0  0  0  0
  -22.7367  -29.4683   22.5033 C   0  0  0  0  0  0
  -18.0262  -28.1377   22.8503 C   0  0  0  0  0  0
  -24.1481  -36.7338   23.2638 C   0  0  0  0  0  0
  -25.9079  -30.8668   21.3516 C   0  0  0  0  0  0
  -25.9951  -29.5038   20.7058 C   0  0  0  0  0  0
  -27.2061  -28.7875   20.6910 C   0  0  0  0  0  0
  -26.0873  -26.9682   19.5195 C   0  0  0  0  0  0
  -24.8792  -27.6903   19.5268 C   0  0  0  0  0  0
  -23.5966  -29.8175   20.1689 C   0  0  0  0  0  0
  -25.4096  -36.3127   24.0344 C   0  0  1  0  0  0
  -20.5848  -28.3649   23.1350 C   0  0  2  0  0  0
  -20.6750  -26.9392   22.5432 C   0  0  0  0  0  0
  -19.5735  -26.6389   21.5222 C   0  0  0  0  0  0
  -18.1912  -26.7923   22.1618 C   0  0  0  0  0  0
  -19.1511  -28.8825   23.2916 C   0  0  0  0  0  0
  -18.9437  -30.1440   23.8921 C   0  0  0  0  0  0
  -17.6448  -30.6583   24.0569 C   0  0  0  0  0  0
  -25.9025  -34.9490   23.5136 C   0  0  0  0  0  0
  -16.5337  -29.9099   23.6322 C   0  0  0  0  0  0
  -16.7260  -28.6507   23.0349 C   0  0  0  0  0  0
  -26.4459  -31.6613   25.0724 C   0  0  0  0  0  0
  -25.3756  -31.3732   26.1506 C   0  0  0  0  0  0
  -27.0273  -30.3055   24.6064 C   0  0  0  0  0  0
  -27.6062  -32.4314   25.7465 C   0  0  0  0  0  0
  -27.5586  -37.1801   24.8453 C   0  0  0  0  0  0
  -21.4106  -29.3033   22.3771 N   0  0  0  0  0  0
  -26.4283  -37.3809   23.9428 N   0  0  0  0  0  0
  -24.6526  -31.0915   22.0985 N   0  0  0  0  0  0
  -23.4179  -28.8257   23.3051 O   0  0  0  0  0  0
  -28.3865  -26.7318   20.0140 O   0  0  0  0  0  0
  -26.5566  -34.8940   22.4682 O   0  0  0  0  0  0
  -23.5285  -32.1434   23.7575 O   0  0  0  0  0  0
  -31.1845  -21.8051   19.8164 C   0  0  0  0  0  0
  -31.2728  -23.0756   22.3185 C   0  0  0  0  0  0
  -31.9421  -22.9823   19.9666 C   0  0  0  0  0  0
  -30.4822  -21.2551   20.9044 C   0  0  0  0  0  0
  -31.9825  -23.6271   21.2284 C   0  0  0  0  0  0
  -30.5147  -21.9031   22.1621 C   0  0  0  0  0  0
  -32.6871  -23.5178   18.7583 C   0  0  0  0  0  0
  -29.7722  -19.9315   20.7126 C   0  0  0  0  0  0
  -32.7060  -24.9552   21.4416 C   0  0  0  0  0  0
  -30.5629  -18.8252   21.4203 C   0  0  0  0  0  0
  -31.9902  -26.1828   20.8287 C   0  0  0  0  0  0
  -30.0503  -17.4283   21.1068 C   0  0  0  0  0  0
  -30.4759  -25.9798   20.6427 C   0  0  0  0  0  0
  -30.6303  -16.3943   22.0806 C   0  0  0  0  0  0
  -29.6382  -27.2401   20.4568 C   0  0  0  0  0  0
  -30.2100  -15.0606   21.6943 N   0  0  0  0  0  0
  -29.6487  -21.2831   23.5251 Cl  0  0  0  0  0  0
  -31.4701  -12.4099   19.0522 H   0  0  0  0  0  0
  -30.3520  -11.2433   19.6885 H   0  0  0  0  0  0
  -29.7143  -11.8370   17.3644 H   0  0  0  0  0  0
  -29.6680  -13.5322   17.7645 H   0  0  0  0  0  0
  -27.7941  -11.3462   18.7342 H   0  0  0  0  0  0
  -27.3629  -12.7176   17.7624 H   0  0  0  0  0  0
  -27.7537  -14.2604   19.6428 H   0  0  0  0  0  0
  -28.6754  -11.7971   21.1870 H   0  0  0  0  0  0
  -28.4416  -13.3474   21.9094 H   0  0  0  0  0  0
  -25.2729   -9.5778   22.4717 H   0  0  0  0  0  0
  -24.0008   -7.4689   22.7470 H   0  0  0  0  0  0
  -21.0809   -8.8786   19.8973 H   0  0  0  0  0  0
  -22.3603  -10.9690   19.6136 H   0  0  0  0  0  0
  -21.1979   -7.6129   23.9701 H   0  0  0  0  0  0
  -21.1472   -6.0493   25.9070 H   0  0  0  0  0  0
  -22.0602   -2.7591   23.2869 H   0  0  0  0  0  0
  -22.4107  -12.0039   22.4848 H   0  0  0  0  0  0
  -21.1109  -13.1352   22.2429 H   0  0  0  0  0  0
  -24.6990  -15.8577   20.5040 H   0  0  0  0  0  0
  -26.3188  -15.6023   20.0944 H   0  0  0  0  0  0
  -26.7086  -32.5608   23.1219 H   0  0  0  0  0  0
  -25.0037  -33.9814   25.0498 H   0  0  0  0  0  0
  -22.6760  -31.3058   21.4121 H   0  0  0  0  0  0
  -23.3732  -35.9679   23.3296 H   0  0  0  0  0  0
  -24.3591  -36.8947   22.2051 H   0  0  0  0  0  0
  -23.7232  -37.6550   23.6642 H   0  0  0  0  0  0
  -26.0024  -31.6318   20.5800 H   0  0  0  0  0  0
  -26.8009  -30.9303   21.9596 H   0  0  0  0  0  0
  -28.0804  -29.2414   21.1327 H   0  0  0  0  0  0
  -26.1207  -25.9870   19.0655 H   0  0  0  0  0  0
  -23.9924  -27.2626   19.0785 H   0  0  0  0  0  0
  -23.6898  -30.5844   19.3989 H   0  0  0  0  0  0
  -22.7266  -29.2225   19.8847 H   0  0  0  0  0  0
  -25.1257  -36.1991   25.0832 H   0  0  0  0  0  0
  -20.9937  -28.3208   24.1470 H   0  0  0  0  0  0
  -20.5660  -26.2255   23.3614 H   0  0  0  0  0  0
  -21.6621  -26.7454   22.1227 H   0  0  0  0  0  0
  -19.6902  -25.6312   21.1231 H   0  0  0  0  0  0
  -19.6681  -27.3214   20.6765 H   0  0  0  0  0  0
  -17.4191  -26.6690   21.4005 H   0  0  0  0  0  0
  -18.0298  -26.0062   22.9003 H   0  0  0  0  0  0
  -19.7924  -30.7235   24.2301 H   0  0  0  0  0  0
  -17.5014  -31.6269   24.5172 H   0  0  0  0  0  0
  -15.5341  -30.3002   23.7644 H   0  0  0  0  0  0
  -15.8657  -28.0843   22.7045 H   0  0  0  0  0  0
  -24.5925  -30.7063   25.7885 H   0  0  0  0  0  0
  -24.8951  -32.2894   26.4947 H   0  0  0  0  0  0
  -25.8139  -30.8934   27.0265 H   0  0  0  0  0  0
  -26.2786  -29.6824   24.1158 H   0  0  0  0  0  0
  -27.4089  -29.7292   25.4504 H   0  0  0  0  0  0
  -27.8607  -30.4380   23.9160 H   0  0  0  0  0  0
  -27.2706  -33.3597   26.2103 H   0  0  0  0  0  0
  -28.3840  -32.6898   25.0267 H   0  0  0  0  0  0
  -28.0779  -31.8405   26.5328 H   0  0  0  0  0  0
  -28.2587  -38.0114   24.7531 H   0  0  0  0  0  0
  -28.1085  -36.2648   24.6210 H   0  0  0  0  0  0
  -27.2328  -37.1391   25.8861 H   0  0  0  0  0  0
  -20.9268  -29.8731   21.6978 H   0  0  0  0  0  0
  -26.0175  -38.2882   24.1453 H   0  0  0  0  0  0
  -31.1450  -21.3146   18.8540 H   0  0  0  0  0  0
  -31.2946  -23.5597   23.2854 H   0  0  0  0  0  0
  -32.4594  -22.9272   17.8703 H   0  0  0  0  0  0
  -33.7639  -23.4662   18.9239 H   0  0  0  0  0  0
  -32.4042  -24.5478   18.5418 H   0  0  0  0  0  0
  -29.6945  -19.7063   19.6474 H   0  0  0  0  0  0
  -28.7485  -19.9882   21.0824 H   0  0  0  0  0  0
  -33.7331  -24.8903   21.0859 H   0  0  0  0  0  0
  -32.7878  -25.1198   22.5179 H   0  0  0  0  0  0
  -30.5404  -18.9872   22.4961 H   0  0  0  0  0  0
  -31.6123  -18.8834   21.1324 H   0  0  0  0  0  0
  -32.4256  -26.3982   19.8512 H   0  0  0  0  0  0
  -32.1979  -27.0654   21.4344 H   0  0  0  0  0  0
  -30.3424  -17.1876   20.0816 H   0  0  0  0  0  0
  -28.9617  -17.4086   21.1375 H   0  0  0  0  0  0
  -30.0601  -25.4598   21.5051 H   0  0  0  0  0  0
  -30.3147  -25.3258   19.7841 H   0  0  0  0  0  0
  -30.2851  -16.5929   23.0983 H   0  0  0  0  0  0
  -31.7180  -16.4574   22.1060 H   0  0  0  0  0  0
  -30.0638  -27.9194   19.7161 H   0  0  0  0  0  0
  -29.5759  -27.7566   21.4140 H   0  0  0  0  0  0
  -29.3969  -14.6803   22.1528 H   0  0  0  0  0  0
  1 25  1  0  0  0
  1 30  2  0  0  0
  1 86  1  0  0  0
  2  3  1  0  0  0
  2 25  1  0  0  0
  2 88  1  0  0  0
  2 89  1  0  0  0
  3  4  1  0  0  0
  3 90  1  0  0  0
  3 91  1  0  0  0
  4  5  1  0  0  0
  4 92  1  0  0  0
  4 93  1  0  0  0
  5  6  1  0  0  0
  5 26  1  0  0  0
  5 94  1  0  0  0
  6 25  1  0  0  0
  6 95  1  0  0  0
  6 96  1  0  0  0
  7  8  2  0  0  0
  7 26  1  0  0  0
  7 29  1  0  0  0
  8  9  1  0  0  0
  8 22  1  0  0  0
  9 10  1  0  0  0
  9 27  2  0  0  0
 10 11  2  0  0  0
 10 15  1  0  0  0
 11 12  1  0  0  0
 11 97  1  0  0  0
 12 13  2  0  0  0
 12 98  1  0  0  0
 13 14  1  0  0  0
 13 31  1  0  0  0
 14 15  2  0  0  0
 14 99  1  0  0  0
 15100  1  0  0  0
 16 17  2  0  0  0
 16 21  1  0  0  0
 16 31  1  0  0  0
 17 18  1  0  0  0
 17101  1  0  0  0
 18 19  2  0  0  0
 18102  1  0  0  0
 19 20  1  0  0  0
 19 24  1  0  0  0
 20 21  2  0  0  0
 20103  1  0  0  0
 21 23  1  0  0  0
 22 28  1  0  0  0
 22 32  2  0  0  0
 26 27  1  0  0  0
 28104  1  0  0  0
 28105  1  0  0  0
 29106  1  0  0  0
 29107  1  0  0  0
 33 34  1  0  0  0
 33 66  1  0  0  0
 33 70  2  0  0  0
 34 36  1  0  0  0
 34 59  1  0  0  0
 34108  1  0  0  0
 35 44  2  0  0  0
 35 45  1  0  0  0
 35 68  1  0  0  0
 36 56  1  0  0  0
 36109  1  0  0  0
 37 39  1  0  0  0
 37 47  1  0  0  0
 37 66  1  0  0  0
 37110  1  0  0  0
 38 43  2  0  0  0
 38 46  1  0  0  0
 38 47  1  0  0  0
 39 64  1  0  0  0
 39 67  2  0  0  0
 40 52  1  0  0  0
 40 53  2  0  0  0
 40 58  1  0  0  0
 41111  1  0  0  0
 41112  1  0  0  0
 41113  1  0  0  0
 41 48  1  0  0  0
 42 43  1  0  0  0
 42 66  1  0  0  0
 42114  1  0  0  0
 42115  1  0  0  0
 43 44  1  0  0  0
 44116  1  0  0  0
 45 46  2  0  0  0
 45117  1  0  0  0
 46118  1  0  0  0
 47119  1  0  0  0
 47120  1  0  0  0
 48 56  1  0  0  0
 48 65  1  0  0  0
 48121  1  0  0  0
 49 50  1  0  0  0
 49 53  1  0  0  0
 49 64  1  0  0  0
 49122  1  0  0  0
 50 51  1  0  0  0
 50123  1  0  0  0
 50124  1  0  0  0
 51 52  1  0  0  0
 51125  1  0  0  0
 51126  1  0  0  0
 52127  1  0  0  0
 52128  1  0  0  0
 53 54  1  0  0  0
 54 55  2  0  0  0
 54129  1  0  0  0
 55 57  1  0  0  0
 55130  1  0  0  0
 56 69  2  0  0  0
 57 58  2  0  0  0
 57131  1  0  0  0
 58132  1  0  0  0
 59 60  1  0  0  0
 59 61  1  0  0  0
 59 62  1  0  0  0
 60133  1  0  0  0
 60134  1  0  0  0
 60135  1  0  0  0
 61136  1  0  0  0
 61137  1  0  0  0
 61138  1  0  0  0
 62139  1  0  0  0
 62140  1  0  0  0
 62141  1  0  0  0
 63 65  1  0  0  0
 63142  1  0  0  0
 63143  1  0  0  0
 63144  1  0  0  0
 64145  1  0  0  0
 65146  1  0  0  0
 68 85  1  0  0  0
 71 73  2  0  0  0
 71 74  1  0  0  0
 71147  1  0  0  0
 72 75  2  0  0  0
 72 76  1  0  0  0
 72148  1  0  0  0
 73 75  1  0  0  0
 73 77  1  0  0  0
 74 76  2  0  0  0
 74 78  1  0  0  0
 75 79  1  0  0  0
 76 87  1  0  0  0
 77149  1  0  0  0
 77150  1  0  0  0
 77151  1  0  0  0
 78 80  1  0  0  0
 78152  1  0  0  0
 78153  1  0  0  0
 79 81  1  0  0  0
 79154  1  0  0  0
 79155  1  0  0  0
 80 82  1  0  0  0
 80156  1  0  0  0
 80157  1  0  0  0
 81 83  1  0  0  0
 81158  1  0  0  0
 81159  1  0  0  0
 82 84  1  0  0  0
 82160  1  0  0  0
 82161  1  0  0  0
 83 85  1  0  0  0
 83162  1  0  0  0
 83163  1  0  0  0
 84 86  1  0  0  0
 84164  1  0  0  0
 84165  1  0  0  0
 85166  1  0  0  0
 85167  1  0  0  0
 86168  1  0  0  0
M  ISO  4   1 100  68 101  85 101  86 100
M  END
> <chiral flag>
0

> <version>
0

> <s_m_source_file>
/data/baiqing/PycharmProjects/Reinvent-master-3.2/result/LINK_invent/BTK/process_docking_weight1_custom_sum_contain_oxygen_bond_distance_aromatic_linkinvent_7_9_3/rearranged_h_0039.sdf

> <i_m_source_file_index>
83

> <r_mmod_Potential_Energy-OPLS-2005>
-74.2661437988281

> <r_mmod_Stretch_Energy-OPLS-2005>
30.9705448150635

> <r_mmod_Bend_Energy-OPLS-2005>
102.67253112793

> <r_mmod_Torsional_Energy-OPLS-2005>
195.253875732422

> <r_mmod_Improper_Torsional_Energy-OPLS-2005>
2.21000003814697

> <r_mmod_Van_der_Waal_Energy-OPLS-2005>
164.469909667969

> <r_mmod_Electrostatic_Energy-OPLS-2005>
-375.098358154297

> <r_mmod_Solvation_Energy-OPLS-2005>
-202.092468261719

> <b_mmod_Minimization_Converged-OPLS-2005>
0

> <r_mmod_RMS_Derivative-OPLS-2005>
5.41021490097046

$$$$
84
                    3D
 Structure written by MMmdl.
156164  0  0  1  0            999 V2000
  -30.6771  -14.5632   20.5129 C   0  0  0  0  0  0
  -30.4230  -12.3413   19.4532 C   0  0  0  0  0  0
  -29.5027  -12.4951   18.2234 C   0  0  0  0  0  0
  -28.0237  -12.3474   18.6303 C   0  0  0  0  0  0
  -27.6527  -13.2181   19.8601 C   0  0  2  0  0  0
  -28.6955  -13.0775   20.9908 C   0  0  0  0  0  0
  -25.2560  -13.8176   20.5688 C   0  0  0  0  0  0
  -24.1826  -13.0437   20.9186 C   0  0  0  0  0  0
  -24.6399  -11.6910   20.8735 C   0  0  0  0  0  0
  -23.9069  -10.4293   21.0403 C   0  0  0  0  0  0
  -24.3620   -9.4208   21.9182 C   0  0  0  0  0  0
  -23.6295   -8.2243   22.0751 C   0  0  0  0  0  0
  -22.4276   -8.0282   21.3541 C   0  0  0  0  0  0
  -21.9915   -9.0257   20.4644 C   0  0  0  0  0  0
  -22.7242  -10.2137   20.3055 C   0  0  0  0  0  0
  -21.6855   -6.0739   22.5279 C   0  0  0  0  0  0
  -21.4016   -6.5642   23.8213 C   0  0  0  0  0  0
  -21.3660   -5.6794   24.9176 C   0  0  0  0  0  0
  -21.6041   -4.3056   24.7226 C   0  0  0  0  0  0
  -21.8819   -3.8149   23.4347 C   0  0  0  0  0  0
  -21.9193   -4.6967   22.3403 C   0  0  0  0  0  0
  -22.7849  -13.5227   21.1860 C   0  0  0  0  0  0
  -22.1661   -4.2154   21.0981 F   0  0  0  0  0  0
  -21.5632   -3.4537   25.7738 F   0  0  0  0  0  0
  -30.0224  -13.3668   20.4338 N   0  0  0  0  0  0
  -26.2990  -12.9362   20.3314 N   0  0  0  0  0  0
  -25.9327  -11.6513   20.5752 N   0  0  0  0  0  0
  -22.0498  -12.8210   22.0414 N   0  0  0  0  0  0
  -25.4283  -15.1897   20.4127 N   0  0  0  0  0  0
  -31.8462  -14.6618   20.1309 O   0  0  0  0  0  0
  -21.6639   -6.8879   21.4239 O   0  0  0  0  0  0
  -22.3528  -14.5534   20.6716 O   0  0  0  0  0  0
  -24.6225  -31.8649   23.2091 C   0  0  0  0  0  0
  -25.9091  -32.4805   23.8396 C   0  0  1  0  0  0
  -27.2154  -27.3613   20.0998 C   0  0  0  0  0  0
  -25.5925  -33.8606   24.2317 N   0  0  0  0  0  0
  -23.4127  -30.4936   21.5517 C   0  0  2  0  0  0
  -24.8557  -28.9648   20.1087 C   0  0  0  0  0  0
  -22.7455  -29.4651   22.4957 C   0  0  0  0  0  0
  -18.0280  -28.1377   22.8490 C   0  0  0  0  0  0
  -24.1489  -36.7311   23.2636 C   0  0  0  0  0  0
  -25.9525  -30.8086   21.3754 C   0  0  0  0  0  0
  -26.0257  -29.4424   20.7132 C   0  0  0  0  0  0
  -27.2097  -28.6515   20.7033 C   0  0  0  0  0  0
  -26.0208  -26.9405   19.4614 C   0  0  0  0  0  0
  -24.8532  -27.7168   19.4757 C   0  0  0  0  0  0
  -23.6230  -29.8389   20.1636 C   0  0  0  0  0  0
  -25.4111  -36.3101   24.0332 C   0  0  1  0  0  0
  -20.5879  -28.3677   23.1290 C   0  0  2  0  0  0
  -20.6772  -26.9405   22.5406 C   0  0  0  0  0  0
  -19.5746  -26.6381   21.5207 C   0  0  0  0  0  0
  -18.1926  -26.7923   22.1623 C   0  0  0  0  0  0
  -19.1533  -28.8843   23.2887 C   0  0  0  0  0  0
  -18.9457  -30.1448   23.8898 C   0  0  0  0  0  0
  -17.6457  -30.6581   24.0562 C   0  0  0  0  0  0
  -25.9043  -34.9467   23.5120 C   0  0  0  0  0  0
  -16.5349  -29.9078   23.6330 C   0  0  0  0  0  0
  -16.7269  -28.6496   23.0351 C   0  0  0  0  0  0
  -26.4489  -31.6597   25.0746 C   0  0  0  0  0  0
  -25.3737  -31.3716   26.1483 C   0  0  0  0  0  0
  -27.0324  -30.3028   24.6169 C   0  0  0  0  0  0
  -27.6056  -32.4326   25.7510 C   0  0  0  0  0  0
  -27.5580  -37.1812   24.8463 C   0  0  0  0  0  0
  -21.4172  -29.3044   22.3697 N   0  0  0  0  0  0
  -26.4294  -37.3789   23.9404 N   0  0  0  0  0  0
  -24.6814  -31.0707   22.1024 N   0  0  0  0  0  0
  -23.4201  -28.8174   23.3004 O   0  0  0  0  0  0
  -28.3272  -26.5116   20.1609 O   0  0  0  0  0  0
  -26.5602  -34.8921   22.4680 O   0  0  0  0  0  0
  -23.5398  -32.1426   23.7446 O   0  0  0  0  0  0
  -30.0894  -19.2610   19.3884 C   0  0  0  0  0  0
  -29.1301  -20.4328   21.6623 C   0  0  0  0  0  0
  -29.5780  -20.5790   19.3023 C   0  0  0  0  0  0
  -29.0727  -21.2004   20.4713 C   0  0  0  0  0  0
  -30.1009  -18.5723   20.6202 C   0  0  0  0  0  0
  -29.5494  -21.2825   17.9571 C   0  0  0  0  0  0
  -28.2964  -22.5488   20.4260 C   0  0  0  0  0  0
  -30.7938  -17.1919   20.7436 C   0  0  0  0  0  0
  -29.9213  -15.8879   20.8750 C   0  0  0  0  0  0
  -29.0292  -23.9453   20.4243 C   0  0  0  0  0  0
  -28.0255  -25.0831   20.0166 C   0  0  0  0  0  0
  -29.6284  -19.1668   21.7415 N   0  0  0  0  0  0
  -31.4689  -12.4294   19.1551 H   0  0  0  0  0  0
  -30.3209  -11.3452   19.8879 H   0  0  0  0  0  0
  -29.7569  -11.7520   17.4668 H   0  0  0  0  0  0
  -29.6624  -13.4703   17.7606 H   0  0  0  0  0  0
  -27.8468  -11.2947   18.8553 H   0  0  0  0  0  0
  -27.3744  -12.5905   17.7882 H   0  0  0  0  0  0
  -27.6705  -14.2517   19.5169 H   0  0  0  0  0  0
  -28.6805  -12.0669   21.4017 H   0  0  0  0  0  0
  -28.4563  -13.7428   21.8208 H   0  0  0  0  0  0
  -25.2768   -9.5686   22.4754 H   0  0  0  0  0  0
  -24.0009   -7.4633   22.7467 H   0  0  0  0  0  0
  -21.0849   -8.8774   19.8947 H   0  0  0  0  0  0
  -22.3700  -10.9676   19.6163 H   0  0  0  0  0  0
  -21.2004   -7.6151   23.9717 H   0  0  0  0  0  0
  -21.1485   -6.0526   25.9079 H   0  0  0  0  0  0
  -22.0597   -2.7612   23.2846 H   0  0  0  0  0  0
  -22.4120  -11.9871   22.4797 H   0  0  0  0  0  0
  -21.1118  -13.1230   22.2628 H   0  0  0  0  0  0
  -24.6676  -15.8497   20.5321 H   0  0  0  0  0  0
  -26.2894  -15.6300   20.1135 H   0  0  0  0  0  0
  -26.7161  -32.5492   23.1150 H   0  0  0  0  0  0
  -25.0086  -33.9761   25.0471 H   0  0  0  0  0  0
  -22.7043  -31.3134   21.4161 H   0  0  0  0  0  0
  -23.3746  -35.9649   23.3306 H   0  0  0  0  0  0
  -24.3581  -36.8926   22.2050 H   0  0  0  0  0  0
  -23.7249  -37.6522   23.6649 H   0  0  0  0  0  0
  -26.0795  -31.5752   20.6097 H   0  0  0  0  0  0
  -26.8354  -30.8536   22.0014 H   0  0  0  0  0  0
  -28.1054  -29.0113   21.1903 H   0  0  0  0  0  0
  -25.9442  -25.9939   18.9498 H   0  0  0  0  0  0
  -23.9583  -27.3471   18.9933 H   0  0  0  0  0  0
  -23.7375  -30.6195   19.4106 H   0  0  0  0  0  0
  -22.7435  -29.2668   19.8623 H   0  0  0  0  0  0
  -25.1287  -36.1966   25.0825 H   0  0  0  0  0  0
  -20.9969  -28.3244   24.1411 H   0  0  0  0  0  0
  -20.5672  -26.2285   23.3601 H   0  0  0  0  0  0
  -21.6642  -26.7439   22.1197 H   0  0  0  0  0  0
  -19.6909  -25.6290   21.1238 H   0  0  0  0  0  0
  -19.6684  -27.3192   20.6737 H   0  0  0  0  0  0
  -17.4195  -26.6667   21.4027 H   0  0  0  0  0  0
  -18.0331  -26.0060   22.9015 H   0  0  0  0  0  0
  -19.7931  -30.7268   24.2265 H   0  0  0  0  0  0
  -17.5009  -31.6260   24.5164 H   0  0  0  0  0  0
  -15.5349  -30.2980   23.7652 H   0  0  0  0  0  0
  -15.8669  -28.0818   22.7064 H   0  0  0  0  0  0
  -24.5912  -30.7060   25.7822 H   0  0  0  0  0  0
  -24.8922  -32.2870   26.4929 H   0  0  0  0  0  0
  -25.8079  -30.8888   27.0246 H   0  0  0  0  0  0
  -26.2886  -29.6788   24.1198 H   0  0  0  0  0  0
  -27.4041  -29.7273   25.4658 H   0  0  0  0  0  0
  -27.8750  -30.4329   23.9372 H   0  0  0  0  0  0
  -27.2674  -33.3624   26.2096 H   0  0  0  0  0  0
  -28.3859  -32.6893   25.0331 H   0  0  0  0  0  0
  -28.0729  -31.8445   26.5419 H   0  0  0  0  0  0
  -28.2601  -38.0106   24.7508 H   0  0  0  0  0  0
  -28.1074  -36.2638   24.6293 H   0  0  0  0  0  0
  -27.2298  -37.1472   25.8866 H   0  0  0  0  0  0
  -20.9332  -29.8796   21.6947 H   0  0  0  0  0  0
  -26.0183  -38.2869   24.1399 H   0  0  0  0  0  0
  -30.4872  -18.7774   18.5059 H   0  0  0  0  0  0
  -28.7244  -20.8307   22.5810 H   0  0  0  0  0  0
  -30.1181  -20.7310   17.2082 H   0  0  0  0  0  0
  -29.9848  -22.2785   18.0300 H   0  0  0  0  0  0
  -28.5259  -21.3785   17.5940 H   0  0  0  0  0  0
  -27.5925  -22.5444   21.2600 H   0  0  0  0  0  0
  -27.6571  -22.5028   19.5436 H   0  0  0  0  0  0
  -31.4754  -17.2362   21.5936 H   0  0  0  0  0  0
  -31.4418  -17.1043   19.8713 H   0  0  0  0  0  0
  -29.0829  -15.9741   20.1856 H   0  0  0  0  0  0
  -29.4985  -15.8244   21.8769 H   0  0  0  0  0  0
  -29.8638  -23.9416   19.7239 H   0  0  0  0  0  0
  -29.4477  -24.1420   21.4114 H   0  0  0  0  0  0
  -27.1205  -24.8822   20.5937 H   0  0  0  0  0  0
  -27.7811  -24.9034   18.9684 H   0  0  0  0  0  0
  1 25  1  0  0  0
  1 30  2  0  0  0
  1 79  1  0  0  0
  2  3  1  0  0  0
  2 25  1  0  0  0
  2 83  1  0  0  0
  2 84  1  0  0  0
  3  4  1  0  0  0
  3 85  1  0  0  0
  3 86  1  0  0  0
  4  5  1  0  0  0
  4 87  1  0  0  0
  4 88  1  0  0  0
  5  6  1  0  0  0
  5 26  1  0  0  0
  5 89  1  0  0  0
  6 25  1  0  0  0
  6 90  1  0  0  0
  6 91  1  0  0  0
  7  8  2  0  0  0
  7 26  1  0  0  0
  7 29  1  0  0  0
  8  9  1  0  0  0
  8 22  1  0  0  0
  9 10  1  0  0  0
  9 27  2  0  0  0
 10 11  2  0  0  0
 10 15  1  0  0  0
 11 12  1  0  0  0
 11 92  1  0  0  0
 12 13  2  0  0  0
 12 93  1  0  0  0
 13 14  1  0  0  0
 13 31  1  0  0  0
 14 15  2  0  0  0
 14 94  1  0  0  0
 15 95  1  0  0  0
 16 17  2  0  0  0
 16 21  1  0  0  0
 16 31  1  0  0  0
 17 18  1  0  0  0
 17 96  1  0  0  0
 18 19  2  0  0  0
 18 97  1  0  0  0
 19 20  1  0  0  0
 19 24  1  0  0  0
 20 21  2  0  0  0
 20 98  1  0  0  0
 21 23  1  0  0  0
 22 28  1  0  0  0
 22 32  2  0  0  0
 26 27  1  0  0  0
 28 99  1  0  0  0
 28100  1  0  0  0
 29101  1  0  0  0
 29102  1  0  0  0
 33 34  1  0  0  0
 33 66  1  0  0  0
 33 70  2  0  0  0
 34 36  1  0  0  0
 34 59  1  0  0  0
 34103  1  0  0  0
 35 44  2  0  0  0
 35 45  1  0  0  0
 35 68  1  0  0  0
 36 56  1  0  0  0
 36104  1  0  0  0
 37 39  1  0  0  0
 37 47  1  0  0  0
 37 66  1  0  0  0
 37105  1  0  0  0
 38 43  2  0  0  0
 38 46  1  0  0  0
 38 47  1  0  0  0
 39 64  1  0  0  0
 39 67  2  0  0  0
 40 52  1  0  0  0
 40 53  2  0  0  0
 40 58  1  0  0  0
 41106  1  0  0  0
 41107  1  0  0  0
 41108  1  0  0  0
 41 48  1  0  0  0
 42 43  1  0  0  0
 42 66  1  0  0  0
 42109  1  0  0  0
 42110  1  0  0  0
 43 44  1  0  0  0
 44111  1  0  0  0
 45 46  2  0  0  0
 45112  1  0  0  0
 46113  1  0  0  0
 47114  1  0  0  0
 47115  1  0  0  0
 48 56  1  0  0  0
 48 65  1  0  0  0
 48116  1  0  0  0
 49 50  1  0  0  0
 49 53  1  0  0  0
 49 64  1  0  0  0
 49117  1  0  0  0
 50 51  1  0  0  0
 50118  1  0  0  0
 50119  1  0  0  0
 51 52  1  0  0  0
 51120  1  0  0  0
 51121  1  0  0  0
 52122  1  0  0  0
 52123  1  0  0  0
 53 54  1  0  0  0
 54 55  2  0  0  0
 54124  1  0  0  0
 55 57  1  0  0  0
 55125  1  0  0  0
 56 69  2  0  0  0
 57 58  2  0  0  0
 57126  1  0  0  0
 58127  1  0  0  0
 59 60  1  0  0  0
 59 61  1  0  0  0
 59 62  1  0  0  0
 60128  1  0  0  0
 60129  1  0  0  0
 60130  1  0  0  0
 61131  1  0  0  0
 61132  1  0  0  0
 61133  1  0  0  0
 62134  1  0  0  0
 62135  1  0  0  0
 62136  1  0  0  0
 63 65  1  0  0  0
 63137  1  0  0  0
 63138  1  0  0  0
 63139  1  0  0  0
 64140  1  0  0  0
 65141  1  0  0  0
 68 81  1  0  0  0
 71 73  2  0  0  0
 71 75  1  0  0  0
 71142  1  0  0  0
 72 74  2  0  0  0
 72 82  1  0  0  0
 72143  1  0  0  0
 73 74  1  0  0  0
 73 76  1  0  0  0
 74 77  1  0  0  0
 75 78  1  0  0  0
 75 82  2  0  0  0
 76144  1  0  0  0
 76145  1  0  0  0
 76146  1  0  0  0
 77 80  1  0  0  0
 77147  1  0  0  0
 77148  1  0  0  0
 78 79  1  0  0  0
 78149  1  0  0  0
 78150  1  0  0  0
 79151  1  0  0  0
 79152  1  0  0  0
 80 81  1  0  0  0
 80153  1  0  0  0
 80154  1  0  0  0
 81155  1  0  0  0
 81156  1  0  0  0
M  ISO  4   1 100  68 101  79 100  81 101
M  END
> <chiral flag>
0

> <version>
0

> <s_m_source_file>
/data/baiqing/PycharmProjects/Reinvent-master-3.2/result/LINK_invent/BTK/process_docking_weight1_custom_sum_contain_oxygen_bond_distance_aromatic_linkinvent_7_9_3/rearranged_h_0039.sdf

> <i_m_source_file_index>
84

> <r_mmod_Potential_Energy-OPLS-2005>
-176.058731079102

> <r_mmod_Stretch_Energy-OPLS-2005>
57.0262680053711

> <r_mmod_Bend_Energy-OPLS-2005>
121.948677062988

> <r_mmod_Torsional_Energy-OPLS-2005>
174.430923461914

> <r_mmod_Improper_Torsional_Energy-OPLS-2005>
5.64384603500366

> <r_mmod_Van_der_Waal_Energy-OPLS-2005>
157.978057861328

> <r_mmod_Electrostatic_Energy-OPLS-2005>
-518.379577636719

> <r_mmod_Solvation_Energy-OPLS-2005>
-208.772308349609

> <b_mmod_Minimization_Converged-OPLS-2005>
0

> <r_mmod_RMS_Derivative-OPLS-2005>
0.614773333072662

$$$$
85
                    3D
 Structure written by MMmdl.
160168  0  0  1  0            999 V2000
  -30.6280  -14.7435   20.5115 C   0  0  0  0  0  0
  -30.4391  -12.4688   19.4621 C   0  0  0  0  0  0
  -29.5060  -12.5186   18.2303 C   0  0  0  0  0  0
  -28.0321  -12.3268   18.6439 C   0  0  0  0  0  0
  -27.6462  -13.2080   19.8602 C   0  0  2  0  0  0
  -28.7027  -13.0941   20.9850 C   0  0  0  0  0  0
  -25.2504  -13.8125   20.5661 C   0  0  0  0  0  0
  -24.1782  -13.0397   20.9185 C   0  0  0  0  0  0
  -24.6366  -11.6878   20.8766 C   0  0  0  0  0  0
  -23.9040  -10.4264   21.0422 C   0  0  0  0  0  0
  -24.3599   -9.4180   21.9191 C   0  0  0  0  0  0
  -23.6277   -8.2220   22.0757 C   0  0  0  0  0  0
  -22.4258   -8.0265   21.3549 C   0  0  0  0  0  0
  -21.9893   -9.0233   20.4647 C   0  0  0  0  0  0
  -22.7221  -10.2108   20.3062 C   0  0  0  0  0  0
  -21.6848   -6.0720   22.5278 C   0  0  0  0  0  0
  -21.4008   -6.5628   23.8208 C   0  0  0  0  0  0
  -21.3660   -5.6782   24.9173 C   0  0  0  0  0  0
  -21.6053   -4.3047   24.7227 C   0  0  0  0  0  0
  -21.8824   -3.8135   23.4350 C   0  0  0  0  0  0
  -21.9190   -4.6949   22.3401 C   0  0  0  0  0  0
  -22.7805  -13.5192   21.1844 C   0  0  0  0  0  0
  -22.1658   -4.2136   21.0978 F   0  0  0  0  0  0
  -21.5635   -3.4529   25.7740 F   0  0  0  0  0  0
  -29.9920  -13.5147   20.4213 N   0  0  0  0  0  0
  -26.2949  -12.9302   20.3341 N   0  0  0  0  0  0
  -25.9303  -11.6469   20.5813 N   0  0  0  0  0  0
  -22.0451  -12.8197   22.0416 N   0  0  0  0  0  0
  -25.4126  -15.1840   20.4029 N   0  0  0  0  0  0
  -31.7857  -14.8011   20.0839 O   0  0  0  0  0  0
  -21.6631   -6.8862   21.4237 O   0  0  0  0  0  0
  -22.3483  -14.5487   20.6679 O   0  0  0  0  0  0
  -24.6295  -31.8573   23.2005 C   0  0  0  0  0  0
  -25.9122  -32.4767   23.8347 C   0  0  1  0  0  0
  -27.2223  -27.2845   20.1200 C   0  0  0  0  0  0
  -25.5926  -33.8569   24.2265 N   0  0  0  0  0  0
  -23.4253  -30.4814   21.5441 C   0  0  2  0  0  0
  -24.8723  -28.9350   20.1096 C   0  0  0  0  0  0
  -22.7490  -29.4612   22.4917 C   0  0  0  0  0  0
  -18.0290  -28.1381   22.8486 C   0  0  0  0  0  0
  -24.1488  -36.7296   23.2642 C   0  0  0  0  0  0
  -25.9709  -30.7766   21.3794 C   0  0  0  0  0  0
  -26.0435  -29.4029   20.7186 C   0  0  0  0  0  0
  -27.2208  -28.5897   20.7133 C   0  0  0  0  0  0
  -26.0278  -26.8874   19.4737 C   0  0  0  0  0  0
  -24.8681  -27.6840   19.4782 C   0  0  0  0  0  0
  -23.6413  -29.8181   20.1594 C   0  0  0  0  0  0
  -25.4114  -36.3081   24.0325 C   0  0  1  0  0  0
  -20.5891  -28.3690   23.1271 C   0  0  2  0  0  0
  -20.6773  -26.9407   22.5408 C   0  0  0  0  0  0
  -19.5747  -26.6375   21.5212 C   0  0  0  0  0  0
  -18.1926  -26.7924   22.1623 C   0  0  0  0  0  0
  -19.1541  -28.8851   23.2877 C   0  0  0  0  0  0
  -18.9463  -30.1453   23.8894 C   0  0  0  0  0  0
  -17.6463  -30.6586   24.0557 C   0  0  0  0  0  0
  -25.9049  -34.9447   23.5096 C   0  0  0  0  0  0
  -16.5354  -29.9080   23.6335 C   0  0  0  0  0  0
  -16.7277  -28.6497   23.0359 C   0  0  0  0  0  0
  -26.4490  -31.6596   25.0740 C   0  0  0  0  0  0
  -25.3711  -31.3752   26.1461 C   0  0  0  0  0  0
  -27.0344  -30.3009   24.6236 C   0  0  0  0  0  0
  -27.6033  -32.4352   25.7515 C   0  0  0  0  0  0
  -27.5582  -37.1802   24.8458 C   0  0  0  0  0  0
  -21.4195  -29.3045   22.3660 N   0  0  0  0  0  0
  -26.4292  -37.3777   23.9405 N   0  0  0  0  0  0
  -24.6942  -31.0556   22.0977 N   0  0  0  0  0  0
  -23.4199  -28.8151   23.3003 O   0  0  0  0  0  0
  -28.3200  -26.3958   20.1918 O   0  0  0  0  0  0
  -26.5622  -34.8913   22.4666 O   0  0  0  0  0  0
  -23.5450  -32.1382   23.7313 O   0  0  0  0  0  0
  -30.6583  -20.9798   21.4000 C   0  0  0  0  0  0
  -29.5438  -21.0183   20.5183 C   0  0  0  0  0  0
  -31.1030  -19.6763   21.4154 C   0  0  0  0  0  0
  -32.3083  -19.1390   22.1166 C   0  0  0  0  0  0
  -30.5681  -16.3243   22.4868 C   0  0  0  0  0  0
  -28.4935  -16.2883   21.1236 C   0  0  0  0  0  0
  -28.6595  -22.2522   20.0911 C   0  0  0  0  0  0
  -29.0846  -23.7720   20.4300 C   0  0  0  0  0  0
  -30.4652  -17.4482   20.1542 C   0  0  0  0  0  0
  -28.0697  -24.9350   19.9744 C   0  0  0  0  0  0
  -30.0304  -16.1644   21.0505 C   0  0  0  0  0  0
  -29.3235  -19.7525   20.0655 N   0  0  0  0  0  0
  -30.2733  -18.8964   20.6109 N   0  0  0  0  0  0
  -31.4740  -12.5986   19.1420 H   0  0  0  0  0  0
  -30.4082  -11.4818   19.9259 H   0  0  0  0  0  0
  -29.7937  -11.7553   17.5054 H   0  0  0  0  0  0
  -29.6234  -13.4792   17.7257 H   0  0  0  0  0  0
  -27.8859  -11.2739   18.8874 H   0  0  0  0  0  0
  -27.3699  -12.5369   17.8027 H   0  0  0  0  0  0
  -27.6466  -14.2224   19.4767 H   0  0  0  0  0  0
  -28.7602  -12.0588   21.3255 H   0  0  0  0  0  0
  -28.4445  -13.6444   21.8832 H   0  0  0  0  0  0
  -25.2748   -9.5653   22.4749 H   0  0  0  0  0  0
  -23.9992   -7.4606   22.7473 H   0  0  0  0  0  0
  -21.0827   -8.8754   19.8940 H   0  0  0  0  0  0
  -22.3695  -10.9649   19.6164 H   0  0  0  0  0  0
  -21.1999   -7.6137   23.9705 H   0  0  0  0  0  0
  -21.1480   -6.0512   25.9072 H   0  0  0  0  0  0
  -22.0606   -2.7601   23.2854 H   0  0  0  0  0  0
  -22.4075  -11.9881   22.4839 H   0  0  0  0  0  0
  -21.1065  -13.1219   22.2615 H   0  0  0  0  0  0
  -24.6446  -15.8343   20.5238 H   0  0  0  0  0  0
  -26.2727  -15.6331   20.1182 H   0  0  0  0  0  0
  -26.7192  -32.5417   23.1097 H   0  0  0  0  0  0
  -25.0063  -33.9699   25.0402 H   0  0  0  0  0  0
  -22.7215  -31.3035   21.4011 H   0  0  0  0  0  0
  -23.3749  -35.9631   23.3299 H   0  0  0  0  0  0
  -24.3579  -36.8928   22.2059 H   0  0  0  0  0  0
  -23.7235  -37.6490   23.6672 H   0  0  0  0  0  0
  -26.1104  -31.5398   20.6123 H   0  0  0  0  0  0
  -26.8476  -30.8214   22.0144 H   0  0  0  0  0  0
  -28.1173  -28.9417   21.2047 H   0  0  0  0  0  0
  -25.9523  -25.9369   18.9671 H   0  0  0  0  0  0
  -23.9720  -27.3223   18.9923 H   0  0  0  0  0  0
  -23.7615  -30.5954   19.4038 H   0  0  0  0  0  0
  -22.7597  -29.2495   19.8573 H   0  0  0  0  0  0
  -25.1296  -36.1940   25.0818 H   0  0  0  0  0  0
  -20.9982  -28.3270   24.1391 H   0  0  0  0  0  0
  -20.5665  -26.2299   23.3611 H   0  0  0  0  0  0
  -21.6641  -26.7419   22.1206 H   0  0  0  0  0  0
  -19.6901  -25.6281   21.1248 H   0  0  0  0  0  0
  -19.6685  -27.3177   20.6734 H   0  0  0  0  0  0
  -17.4192  -26.6673   21.4028 H   0  0  0  0  0  0
  -18.0326  -26.0068   22.9020 H   0  0  0  0  0  0
  -19.7938  -30.7268   24.2259 H   0  0  0  0  0  0
  -17.5017  -31.6265   24.5158 H   0  0  0  0  0  0
  -15.5352  -30.2980   23.7658 H   0  0  0  0  0  0
  -15.8678  -28.0810   22.7083 H   0  0  0  0  0  0
  -24.5864  -30.7130   25.7788 H   0  0  0  0  0  0
  -24.8928  -32.2929   26.4897 H   0  0  0  0  0  0
  -25.8019  -30.8912   27.0236 H   0  0  0  0  0  0
  -26.2942  -29.6756   24.1231 H   0  0  0  0  0  0
  -27.3987  -29.7278   25.4773 H   0  0  0  0  0  0
  -27.8836  -30.4282   23.9517 H   0  0  0  0  0  0
  -27.2621  -33.3647   26.2091 H   0  0  0  0  0  0
  -28.3843  -32.6932   25.0348 H   0  0  0  0  0  0
  -28.0711  -31.8491   26.5437 H   0  0  0  0  0  0
  -28.2588  -38.0111   24.7517 H   0  0  0  0  0  0
  -28.1089  -36.2638   24.6275 H   0  0  0  0  0  0
  -27.2297  -37.1442   25.8859 H   0  0  0  0  0  0
  -20.9373  -29.8795   21.6894 H   0  0  0  0  0  0
  -26.0175  -38.2853   24.1408 H   0  0  0  0  0  0
  -31.1031  -21.8129   21.9271 H   0  0  0  0  0  0
  -33.0756  -19.9079   22.2022 H   0  0  0  0  0  0
  -32.7546  -18.3012   21.5830 H   0  0  0  0  0  0
  -32.0556  -18.8107   23.1244 H   0  0  0  0  0  0
  -30.1894  -17.2301   22.9605 H   0  0  0  0  0  0
  -31.6571  -16.3669   22.5034 H   0  0  0  0  0  0
  -30.2714  -15.4861   23.1194 H   0  0  0  0  0  0
  -28.2119  -17.2856   21.4625 H   0  0  0  0  0  0
  -28.0144  -15.6253   21.8366 H   0  0  0  0  0  0
  -28.0410  -16.1802   20.1421 H   0  0  0  0  0  0
  -27.6631  -22.1013   20.5073 H   0  0  0  0  0  0
  -28.5096  -22.1982   19.0129 H   0  0  0  0  0  0
  -30.0577  -23.9673   19.9800 H   0  0  0  0  0  0
  -29.2310  -23.8530   21.5073 H   0  0  0  0  0  0
  -29.9720  -17.3579   19.1854 H   0  0  0  0  0  0
  -31.5224  -17.3520   19.9084 H   0  0  0  0  0  0
  -27.1217  -24.6896   20.4556 H   0  0  0  0  0  0
  -27.9063  -24.8038   18.9042 H   0  0  0  0  0  0
  1 25  1  0  0  0
  1 30  2  0  0  0
  1 81  1  0  0  0
  2  3  1  0  0  0
  2 25  1  0  0  0
  2 84  1  0  0  0
  2 85  1  0  0  0
  3  4  1  0  0  0
  3 86  1  0  0  0
  3 87  1  0  0  0
  4  5  1  0  0  0
  4 88  1  0  0  0
  4 89  1  0  0  0
  5  6  1  0  0  0
  5 26  1  0  0  0
  5 90  1  0  0  0
  6 25  1  0  0  0
  6 91  1  0  0  0
  6 92  1  0  0  0
  7  8  2  0  0  0
  7 26  1  0  0  0
  7 29  1  0  0  0
  8  9  1  0  0  0
  8 22  1  0  0  0
  9 10  1  0  0  0
  9 27  2  0  0  0
 10 11  2  0  0  0
 10 15  1  0  0  0
 11 12  1  0  0  0
 11 93  1  0  0  0
 12 13  2  0  0  0
 12 94  1  0  0  0
 13 14  1  0  0  0
 13 31  1  0  0  0
 14 15  2  0  0  0
 14 95  1  0  0  0
 15 96  1  0  0  0
 16 17  2  0  0  0
 16 21  1  0  0  0
 16 31  1  0  0  0
 17 18  1  0  0  0
 17 97  1  0  0  0
 18 19  2  0  0  0
 18 98  1  0  0  0
 19 20  1  0  0  0
 19 24  1  0  0  0
 20 21  2  0  0  0
 20 99  1  0  0  0
 21 23  1  0  0  0
 22 28  1  0  0  0
 22 32  2  0  0  0
 26 27  1  0  0  0
 28100  1  0  0  0
 28101  1  0  0  0
 29102  1  0  0  0
 29103  1  0  0  0
 33 34  1  0  0  0
 33 66  1  0  0  0
 33 70  2  0  0  0
 34 36  1  0  0  0
 34 59  1  0  0  0
 34104  1  0  0  0
 35 44  2  0  0  0
 35 45  1  0  0  0
 35 68  1  0  0  0
 36 56  1  0  0  0
 36105  1  0  0  0
 37 39  1  0  0  0
 37 47  1  0  0  0
 37 66  1  0  0  0
 37106  1  0  0  0
 38 43  2  0  0  0
 38 46  1  0  0  0
 38 47  1  0  0  0
 39 64  1  0  0  0
 39 67  2  0  0  0
 40 52  1  0  0  0
 40 53  2  0  0  0
 40 58  1  0  0  0
 41107  1  0  0  0
 41108  1  0  0  0
 41109  1  0  0  0
 41 48  1  0  0  0
 42 43  1  0  0  0
 42 66  1  0  0  0
 42110  1  0  0  0
 42111  1  0  0  0
 43 44  1  0  0  0
 44112  1  0  0  0
 45 46  2  0  0  0
 45113  1  0  0  0
 46114  1  0  0  0
 47115  1  0  0  0
 47116  1  0  0  0
 48 56  1  0  0  0
 48 65  1  0  0  0
 48117  1  0  0  0
 49 50  1  0  0  0
 49 53  1  0  0  0
 49 64  1  0  0  0
 49118  1  0  0  0
 50 51  1  0  0  0
 50119  1  0  0  0
 50120  1  0  0  0
 51 52  1  0  0  0
 51121  1  0  0  0
 51122  1  0  0  0
 52123  1  0  0  0
 52124  1  0  0  0
 53 54  1  0  0  0
 54 55  2  0  0  0
 54125  1  0  0  0
 55 57  1  0  0  0
 55126  1  0  0  0
 56 69  2  0  0  0
 57 58  2  0  0  0
 57127  1  0  0  0
 58128  1  0  0  0
 59 60  1  0  0  0
 59 61  1  0  0  0
 59 62  1  0  0  0
 60129  1  0  0  0
 60130  1  0  0  0
 60131  1  0  0  0
 61132  1  0  0  0
 61133  1  0  0  0
 61134  1  0  0  0
 62135  1  0  0  0
 62136  1  0  0  0
 62137  1  0  0  0
 63 65  1  0  0  0
 63138  1  0  0  0
 63139  1  0  0  0
 63140  1  0  0  0
 64141  1  0  0  0
 65142  1  0  0  0
 68 80  1  0  0  0
 71 72  1  0  0  0
 71 73  2  0  0  0
 71143  1  0  0  0
 72 77  1  0  0  0
 72 82  2  0  0  0
 73 74  1  0  0  0
 73 83  1  0  0  0
 74144  1  0  0  0
 74145  1  0  0  0
 74146  1  0  0  0
 75147  1  0  0  0
 75148  1  0  0  0
 75149  1  0  0  0
 75 81  1  0  0  0
 76 81  1  0  0  0
 76150  1  0  0  0
 76151  1  0  0  0
 76152  1  0  0  0
 77 78  1  0  0  0
 77153  1  0  0  0
 77154  1  0  0  0
 78 80  1  0  0  0
 78155  1  0  0  0
 78156  1  0  0  0
 79 81  1  0  0  0
 79 83  1  0  0  0
 79157  1  0  0  0
 79158  1  0  0  0
 80159  1  0  0  0
 80160  1  0  0  0
 82 83  1  0  0  0
M  ISO  4   1 100  68 101  80 101  81 100
M  END
> <chiral flag>
0

> <version>
0

> <s_m_source_file>
/data/baiqing/PycharmProjects/Reinvent-master-3.2/result/LINK_invent/BTK/process_docking_weight1_custom_sum_contain_oxygen_bond_distance_aromatic_linkinvent_7_9_3/rearranged_h_0039.sdf

> <i_m_source_file_index>
85

> <r_mmod_Potential_Energy-OPLS-2005>
144.100372314453

> <r_mmod_Stretch_Energy-OPLS-2005>
121.522598266602

> <r_mmod_Bend_Energy-OPLS-2005>
188.487640380859

> <r_mmod_Torsional_Energy-OPLS-2005>
196.573226928711

> <r_mmod_Improper_Torsional_Energy-OPLS-2005>
2.96801972389221

> <r_mmod_Van_der_Waal_Energy-OPLS-2005>
125.281059265137

> <r_mmod_Electrostatic_Energy-OPLS-2005>
-369.67529296875

> <r_mmod_Solvation_Energy-OPLS-2005>
-194.781616210938

> <b_mmod_Minimization_Converged-OPLS-2005>
0

> <r_mmod_RMS_Derivative-OPLS-2005>
1.36913049221039

$$$$
86
                    3D
 Structure written by MMmdl.
181189  0  0  1  0            999 V2000
  -30.7222  -14.4283   20.6378 C   0  0  0  0  0  0
  -30.4304  -12.3102   19.4056 C   0  0  0  0  0  0
  -29.4971  -12.5279   18.1980 C   0  0  0  0  0  0
  -28.0192  -12.3793   18.6124 C   0  0  0  0  0  0
  -27.6720  -13.2032   19.8821 C   0  0  2  0  0  0
  -28.7081  -12.9457   20.9956 C   0  0  0  0  0  0
  -25.2676  -13.8155   20.5641 C   0  0  0  0  0  0
  -24.1877  -13.0448   20.9136 C   0  0  0  0  0  0
  -24.6410  -11.6914   20.8703 C   0  0  0  0  0  0
  -23.9078  -10.4300   21.0417 C   0  0  0  0  0  0
  -24.3622   -9.4241   21.9217 C   0  0  0  0  0  0
  -23.6312   -8.2270   22.0780 C   0  0  0  0  0  0
  -22.4299   -8.0289   21.3569 C   0  0  0  0  0  0
  -21.9921   -9.0277   20.4682 C   0  0  0  0  0  0
  -22.7254  -10.2152   20.3092 C   0  0  0  0  0  0
  -21.6874   -6.0724   22.5293 C   0  0  0  0  0  0
  -21.4027   -6.5637   23.8227 C   0  0  0  0  0  0
  -21.3671   -5.6788   24.9185 C   0  0  0  0  0  0
  -21.6047   -4.3051   24.7237 C   0  0  0  0  0  0
  -21.8841   -3.8138   23.4362 C   0  0  0  0  0  0
  -21.9207   -4.6946   22.3413 C   0  0  0  0  0  0
  -22.7931  -13.5335   21.1823 C   0  0  0  0  0  0
  -22.1681   -4.2128   21.0992 F   0  0  0  0  0  0
  -21.5628   -3.4549   25.7764 F   0  0  0  0  0  0
  -30.0399  -13.2635   20.4571 N   0  0  0  0  0  0
  -26.3103  -12.9306   20.3378 N   0  0  0  0  0  0
  -25.9341  -11.6468   20.5725 N   0  0  0  0  0  0
  -22.0486  -12.8330   22.0317 N   0  0  0  0  0  0
  -25.4395  -15.1842   20.4020 N   0  0  0  0  0  0
  -31.7926  -14.6432   20.0611 O   0  0  0  0  0  0
  -21.6684   -6.8864   21.4252 O   0  0  0  0  0  0
  -22.3647  -14.5660   20.6692 O   0  0  0  0  0  0
  -24.6132  -31.8722   23.2115 C   0  0  0  0  0  0
  -25.9033  -32.4853   23.8404 C   0  0  1  0  0  0
  -27.2528  -27.4650   20.1031 C   0  0  0  0  0  0
  -25.5892  -33.8638   24.2339 N   0  0  0  0  0  0
  -23.4037  -30.4926   21.5475 C   0  0  2  0  0  0
  -24.8541  -28.9553   20.1211 C   0  0  0  0  0  0
  -22.7423  -29.4706   22.5000 C   0  0  0  0  0  0
  -18.0275  -28.1437   22.8503 C   0  0  0  0  0  0
  -24.1472  -36.7301   23.2640 C   0  0  0  0  0  0
  -25.9280  -30.8454   21.3616 C   0  0  0  0  0  0
  -26.0098  -29.4768   20.7199 C   0  0  0  0  0  0
  -27.2125  -28.7376   20.7110 C   0  0  0  0  0  0
  -26.0892  -26.9529   19.4991 C   0  0  0  0  0  0
  -24.8881  -27.6903   19.5062 C   0  0  0  0  0  0
  -23.6128  -29.8182   20.1637 C   0  0  0  0  0  0
  -25.4101  -36.3122   24.0345 C   0  0  1  0  0  0
  -20.5865  -28.3731   23.1340 C   0  0  2  0  0  0
  -20.6760  -26.9467   22.5430 C   0  0  0  0  0  0
  -19.5719  -26.6433   21.5253 C   0  0  0  0  0  0
  -18.1905  -26.7982   22.1656 C   0  0  0  0  0  0
  -19.1519  -28.8909   23.2923 C   0  0  0  0  0  0
  -18.9434  -30.1497   23.8944 C   0  0  0  0  0  0
  -17.6436  -30.6627   24.0597 C   0  0  0  0  0  0
  -25.9015  -34.9491   23.5145 C   0  0  0  0  0  0
  -16.5330  -29.9138   23.6328 C   0  0  0  0  0  0
  -16.7258  -28.6560   23.0339 C   0  0  0  0  0  0
  -26.4457  -31.6623   25.0721 C   0  0  0  0  0  0
  -25.3735  -31.3720   26.1479 C   0  0  0  0  0  0
  -27.0250  -30.3053   24.6084 C   0  0  0  0  0  0
  -27.6016  -32.4387   25.7468 C   0  0  0  0  0  0
  -27.5590  -37.1810   24.8478 C   0  0  0  0  0  0
  -21.4152  -29.3066   22.3716 N   0  0  0  0  0  0
  -26.4301  -37.3812   23.9428 N   0  0  0  0  0  0
  -24.6658  -31.0850   22.0988 N   0  0  0  0  0  0
  -23.4201  -28.8282   23.3062 O   0  0  0  0  0  0
  -28.4203  -26.7437   20.0047 O   0  0  0  0  0  0
  -26.5570  -34.8954   22.4699 O   0  0  0  0  0  0
  -23.5332  -32.1451   23.7547 O   0  0  0  0  0  0
  -30.2832  -23.3816   22.8468 C   0  0  0  0  0  0
  -30.8595  -23.4912   20.4973 C   0  0  0  0  0  0
  -30.0072  -23.8584   21.5506 C   0  0  0  0  0  0
  -31.3835  -22.5301   23.0875 C   0  0  0  0  0  0
  -31.9566  -22.6245   20.7066 C   0  0  0  0  0  0
  -32.2226  -22.1265   22.0135 C   0  0  0  0  0  0
  -31.6360  -22.0728   24.5166 C   0  0  0  0  0  0
  -33.4008  -21.1806   22.2623 C   0  0  0  0  0  0
  -28.4102  -18.4402   21.1869 C   0  0  0  0  0  0
  -28.9099  -18.8608   18.1260 C   0  0  0  0  0  0
  -28.7632  -24.6995   21.2636 C   0  0  0  0  0  0
  -32.8334  -22.3084   19.4964 C   0  0  0  0  0  0
  -30.1723  -15.5492   21.5530 C   0  0  0  0  0  0
  -32.0929  -21.6151   18.3318 C   0  0  0  0  0  0
  -30.5200  -17.0016   21.0999 C   0  0  0  0  0  0
  -31.8070  -20.1071   18.4948 C   0  0  0  0  0  0
  -30.7126  -19.7583   19.5382 C   0  0  0  0  0  0
  -28.9797  -26.2302   21.2164 C   0  0  0  0  0  0
  -29.4040  -17.6928   20.2683 C   0  0  2  0  0  0
  -29.9377  -18.5420   19.1522 N   0  3  1  0  0  0
  -31.4721  -12.4208   19.0984 H   0  0  0  0  0  0
  -30.3477  -11.2877   19.7765 H   0  0  0  0  0  0
  -29.7408  -11.8170   17.4083 H   0  0  0  0  0  0
  -29.6637  -13.5178   17.7678 H   0  0  0  0  0  0
  -27.8390  -11.3196   18.7999 H   0  0  0  0  0  0
  -27.3672  -12.6620   17.7841 H   0  0  0  0  0  0
  -27.7355  -14.2595   19.6189 H   0  0  0  0  0  0
  -28.6792  -11.8997   21.3011 H   0  0  0  0  0  0
  -28.4594  -13.4977   21.8976 H   0  0  0  0  0  0
  -25.2742   -9.5753   22.4808 H   0  0  0  0  0  0
  -24.0046   -7.4693   22.7507 H   0  0  0  0  0  0
  -21.0854   -8.8849   19.8987 H   0  0  0  0  0  0
  -22.3753  -10.9726   19.6222 H   0  0  0  0  0  0
  -21.2028   -7.6149   23.9747 H   0  0  0  0  0  0
  -21.1468   -6.0492   25.9089 H   0  0  0  0  0  0
  -22.0594   -2.7595   23.2888 H   0  0  0  0  0  0
  -22.3994  -11.9986   22.4791 H   0  0  0  0  0  0
  -21.1132  -13.1481   22.2457 H   0  0  0  0  0  0
  -24.6778  -15.8427   20.5155 H   0  0  0  0  0  0
  -26.3003  -15.6234   20.1068 H   0  0  0  0  0  0
  -26.7136  -32.5587   23.1202 H   0  0  0  0  0  0
  -25.0106  -33.9768   25.0534 H   0  0  0  0  0  0
  -22.6921  -31.3086   21.4063 H   0  0  0  0  0  0
  -23.3749  -35.9623   23.3334 H   0  0  0  0  0  0
  -24.3568  -36.8869   22.2049 H   0  0  0  0  0  0
  -23.7202  -37.6513   23.6617 H   0  0  0  0  0  0
  -26.0363  -31.6098   20.5902 H   0  0  0  0  0  0
  -26.8207  -30.9066   21.9737 H   0  0  0  0  0  0
  -28.1145  -29.1518   21.1391 H   0  0  0  0  0  0
  -26.1275  -25.9879   19.0130 H   0  0  0  0  0  0
  -24.0059  -27.2896   19.0252 H   0  0  0  0  0  0
  -23.7175  -30.5896   19.3975 H   0  0  0  0  0  0
  -22.7382  -29.2303   19.8767 H   0  0  0  0  0  0
  -25.1281  -36.1990   25.0842 H   0  0  0  0  0  0
  -20.9977  -28.3325   24.1463 H   0  0  0  0  0  0
  -20.5723  -26.2353   23.3631 H   0  0  0  0  0  0
  -21.6626  -26.7527   22.1184 H   0  0  0  0  0  0
  -19.6850  -25.6358   21.1273 H   0  0  0  0  0  0
  -19.6634  -27.3260   20.6805 H   0  0  0  0  0  0
  -17.4164  -26.6782   21.4048 H   0  0  0  0  0  0
  -18.0248  -26.0136   22.9061 H   0  0  0  0  0  0
  -19.7895  -30.7320   24.2343 H   0  0  0  0  0  0
  -17.4967  -31.6293   24.5227 H   0  0  0  0  0  0
  -15.5332  -30.3049   23.7618 H   0  0  0  0  0  0
  -15.8660  -28.0903   22.7015 H   0  0  0  0  0  0
  -24.5906  -30.7054   25.7847 H   0  0  0  0  0  0
  -24.8916  -32.2854   26.4972 H   0  0  0  0  0  0
  -25.8118  -30.8884   27.0209 H   0  0  0  0  0  0
  -26.2753  -29.6862   24.1139 H   0  0  0  0  0  0
  -27.3977  -29.7265   25.4545 H   0  0  0  0  0  0
  -27.8628  -30.4343   23.9227 H   0  0  0  0  0  0
  -27.2590  -33.3687   26.2033 H   0  0  0  0  0  0
  -28.3801  -32.6989   25.0276 H   0  0  0  0  0  0
  -28.0704  -31.8533   26.5381 H   0  0  0  0  0  0
  -28.2637  -38.0079   24.7529 H   0  0  0  0  0  0
  -28.1047  -36.2618   24.6304 H   0  0  0  0  0  0
  -27.2297  -37.1477   25.8874 H   0  0  0  0  0  0
  -20.9352  -29.8740   21.6867 H   0  0  0  0  0  0
  -26.0185  -38.2897   24.1429 H   0  0  0  0  0  0
  -29.6279  -23.6530   23.6624 H   0  0  0  0  0  0
  -30.6559  -23.8633   19.5027 H   0  0  0  0  0  0
  -30.9118  -22.5086   25.2062 H   0  0  0  0  0  0
  -32.6254  -22.3847   24.8522 H   0  0  0  0  0  0
  -31.5674  -20.9879   24.6113 H   0  0  0  0  0  0
  -33.3569  -20.6699   23.2231 H   0  0  0  0  0  0
  -34.3423  -21.7298   22.2331 H   0  0  0  0  0  0
  -33.4429  -20.3884   21.5131 H   0  0  0  0  0  0
  -27.5347  -18.7830   20.6354 H   0  0  0  0  0  0
  -28.8655  -19.2966   21.6867 H   0  0  0  0  0  0
  -28.0483  -17.7828   21.9772 H   0  0  0  0  0  0
  -29.3548  -19.3551   17.2629 H   0  0  0  0  0  0
  -28.1369  -19.5251   18.5201 H   0  0  0  0  0  0
  -28.4261  -17.9599   17.7469 H   0  0  0  0  0  0
  -27.9864  -24.4630   21.9917 H   0  0  0  0  0  0
  -28.3743  -24.3678   20.3008 H   0  0  0  0  0  0
  -33.7409  -21.7642   19.7497 H   0  0  0  0  0  0
  -33.1921  -23.2736   19.1335 H   0  0  0  0  0  0
  -29.0973  -15.4811   21.7074 H   0  0  0  0  0  0
  -30.6176  -15.3706   22.5306 H   0  0  0  0  0  0
  -32.7105  -21.7358   17.4392 H   0  0  0  0  0  0
  -31.1729  -22.1470   18.0916 H   0  0  0  0  0  0
  -31.4666  -17.0317   20.5611 H   0  0  0  0  0  0
  -30.7140  -17.5924   21.9959 H   0  0  0  0  0  0
  -32.7222  -19.5651   18.7332 H   0  0  0  0  0  0
  -31.5301  -19.7407   17.5053 H   0  0  0  0  0  0
  -30.0248  -20.5985   19.6599 H   0  0  0  0  0  0
  -31.2005  -19.6205   20.5033 H   0  0  0  0  0  0
  -30.0449  -26.4619   21.2159 H   0  0  0  0  0  0
  -28.5527  -26.7008   22.1055 H   0  0  0  0  0  0
  -28.8439  -16.8928   19.7761 H   0  0  0  0  0  0
  -30.5913  -17.9395   18.6736 H   0  0  0  0  0  0
  1 25  1  0  0  0
  1 30  2  0  0  0
  1 83  1  0  0  0
  2  3  1  0  0  0
  2 25  1  0  0  0
  2 91  1  0  0  0
  2 92  1  0  0  0
  3  4  1  0  0  0
  3 93  1  0  0  0
  3 94  1  0  0  0
  4  5  1  0  0  0
  4 95  1  0  0  0
  4 96  1  0  0  0
  5  6  1  0  0  0
  5 26  1  0  0  0
  5 97  1  0  0  0
  6 25  1  0  0  0
  6 98  1  0  0  0
  6 99  1  0  0  0
  7  8  2  0  0  0
  7 26  1  0  0  0
  7 29  1  0  0  0
  8  9  1  0  0  0
  8 22  1  0  0  0
  9 10  1  0  0  0
  9 27  2  0  0  0
 10 11  2  0  0  0
 10 15  1  0  0  0
 11 12  1  0  0  0
 11100  1  0  0  0
 12 13  2  0  0  0
 12101  1  0  0  0
 13 14  1  0  0  0
 13 31  1  0  0  0
 14 15  2  0  0  0
 14102  1  0  0  0
 15103  1  0  0  0
 16 17  2  0  0  0
 16 21  1  0  0  0
 16 31  1  0  0  0
 17 18  1  0  0  0
 17104  1  0  0  0
 18 19  2  0  0  0
 18105  1  0  0  0
 19 20  1  0  0  0
 19 24  1  0  0  0
 20 21  2  0  0  0
 20106  1  0  0  0
 21 23  1  0  0  0
 22 28  1  0  0  0
 22 32  2  0  0  0
 26 27  1  0  0  0
 28107  1  0  0  0
 28108  1  0  0  0
 29109  1  0  0  0
 29110  1  0  0  0
 33 34  1  0  0  0
 33 66  1  0  0  0
 33 70  2  0  0  0
 34 36  1  0  0  0
 34 59  1  0  0  0
 34111  1  0  0  0
 35 44  2  0  0  0
 35 45  1  0  0  0
 35 68  1  0  0  0
 36 56  1  0  0  0
 36112  1  0  0  0
 37 39  1  0  0  0
 37 47  1  0  0  0
 37 66  1  0  0  0
 37113  1  0  0  0
 38 43  2  0  0  0
 38 46  1  0  0  0
 38 47  1  0  0  0
 39 64  1  0  0  0
 39 67  2  0  0  0
 40 52  1  0  0  0
 40 53  2  0  0  0
 40 58  1  0  0  0
 41114  1  0  0  0
 41115  1  0  0  0
 41116  1  0  0  0
 41 48  1  0  0  0
 42 43  1  0  0  0
 42 66  1  0  0  0
 42117  1  0  0  0
 42118  1  0  0  0
 43 44  1  0  0  0
 44119  1  0  0  0
 45 46  2  0  0  0
 45120  1  0  0  0
 46121  1  0  0  0
 47122  1  0  0  0
 47123  1  0  0  0
 48 56  1  0  0  0
 48 65  1  0  0  0
 48124  1  0  0  0
 49 50  1  0  0  0
 49 53  1  0  0  0
 49 64  1  0  0  0
 49125  1  0  0  0
 50 51  1  0  0  0
 50126  1  0  0  0
 50127  1  0  0  0
 51 52  1  0  0  0
 51128  1  0  0  0
 51129  1  0  0  0
 52130  1  0  0  0
 52131  1  0  0  0
 53 54  1  0  0  0
 54 55  2  0  0  0
 54132  1  0  0  0
 55 57  1  0  0  0
 55133  1  0  0  0
 56 69  2  0  0  0
 57 58  2  0  0  0
 57134  1  0  0  0
 58135  1  0  0  0
 59 60  1  0  0  0
 59 61  1  0  0  0
 59 62  1  0  0  0
 60136  1  0  0  0
 60137  1  0  0  0
 60138  1  0  0  0
 61139  1  0  0  0
 61140  1  0  0  0
 61141  1  0  0  0
 62142  1  0  0  0
 62143  1  0  0  0
 62144  1  0  0  0
 63 65  1  0  0  0
 63145  1  0  0  0
 63146  1  0  0  0
 63147  1  0  0  0
 64148  1  0  0  0
 65149  1  0  0  0
 68 88  1  0  0  0
 71 73  2  0  0  0
 71 74  1  0  0  0
 71150  1  0  0  0
 72 73  1  0  0  0
 72 75  2  0  0  0
 72151  1  0  0  0
 73 81  1  0  0  0
 74 76  2  0  0  0
 74 77  1  0  0  0
 75 76  1  0  0  0
 75 82  1  0  0  0
 76 78  1  0  0  0
 77152  1  0  0  0
 77153  1  0  0  0
 77154  1  0  0  0
 78155  1  0  0  0
 78156  1  0  0  0
 78157  1  0  0  0
 79158  1  0  0  0
 79159  1  0  0  0
 79160  1  0  0  0
 79 89  1  0  0  0
 80161  1  0  0  0
 80162  1  0  0  0
 80163  1  0  0  0
 80 90  1  0  0  0
 81 88  1  0  0  0
 81164  1  0  0  0
 81165  1  0  0  0
 82 84  1  0  0  0
 82166  1  0  0  0
 82167  1  0  0  0
 83 85  1  0  0  0
 83168  1  0  0  0
 83169  1  0  0  0
 84 86  1  0  0  0
 84170  1  0  0  0
 84171  1  0  0  0
 85 89  1  0  0  0
 85172  1  0  0  0
 85173  1  0  0  0
 86 87  1  0  0  0
 86174  1  0  0  0
 86175  1  0  0  0
 87 90  1  0  0  0
 87176  1  0  0  0
 87177  1  0  0  0
 88178  1  0  0  0
 88179  1  0  0  0
 89 90  1  0  0  0
 89180  1  0  0  0
 90181  1  0  0  0
M  CHG  1  90   1
M  ISO  4   1 100  68 101  83 100  88 101
M  END
> <chiral flag>
0

> <version>
0

> <s_m_source_file>
/data/baiqing/PycharmProjects/Reinvent-master-3.2/result/LINK_invent/BTK/process_docking_weight1_custom_sum_contain_oxygen_bond_distance_aromatic_linkinvent_7_9_3/rearranged_h_0039.sdf

> <i_m_source_file_index>
86

> <r_mmod_Potential_Energy-OPLS-2005>
-112.816741943359

> <r_mmod_Stretch_Energy-OPLS-2005>
41.0915145874023

> <r_mmod_Bend_Energy-OPLS-2005>
112.48673248291

> <r_mmod_Torsional_Energy-OPLS-2005>
240.59587097168

> <r_mmod_Improper_Torsional_Energy-OPLS-2005>
2.04488253593445

> <r_mmod_Van_der_Waal_Energy-OPLS-2005>
145.884460449219

> <r_mmod_Electrostatic_Energy-OPLS-2005>
-265.778900146484

> <r_mmod_Solvation_Energy-OPLS-2005>
-396.735809326172

> <b_mmod_Minimization_Converged-OPLS-2005>
0

> <r_mmod_RMS_Derivative-OPLS-2005>
5.31391620635986

$$$$
87
                    3D
 Structure written by MMmdl.
163171  0  0  1  0            999 V2000
  -30.7315  -14.4089   20.6415 C   0  0  0  0  0  0
  -30.4235  -12.2951   19.4037 C   0  0  0  0  0  0
  -29.4893  -12.5085   18.1970 C   0  0  0  0  0  0
  -28.0116  -12.3695   18.6136 C   0  0  0  0  0  0
  -27.6652  -13.2002   19.8774 C   0  0  2  0  0  0
  -28.7038  -12.9499   20.9924 C   0  0  0  0  0  0
  -25.2589  -13.8152   20.5652 C   0  0  0  0  0  0
  -24.1827  -13.0445   20.9157 C   0  0  0  0  0  0
  -24.6364  -11.6908   20.8720 C   0  0  0  0  0  0
  -23.9021  -10.4299   21.0407 C   0  0  0  0  0  0
  -24.3578   -9.4222   21.9194 C   0  0  0  0  0  0
  -23.6271   -8.2248   22.0768 C   0  0  0  0  0  0
  -22.4257   -8.0276   21.3551 C   0  0  0  0  0  0
  -21.9879   -9.0240   20.4654 C   0  0  0  0  0  0
  -22.7191  -10.2130   20.3063 C   0  0  0  0  0  0
  -21.6845   -6.0731   22.5276 C   0  0  0  0  0  0
  -21.4014   -6.5638   23.8207 C   0  0  0  0  0  0
  -21.3666   -5.6788   24.9168 C   0  0  0  0  0  0
  -21.6045   -4.3050   24.7211 C   0  0  0  0  0  0
  -21.8826   -3.8143   23.4332 C   0  0  0  0  0  0
  -21.9189   -4.6961   22.3390 C   0  0  0  0  0  0
  -22.7858  -13.5263   21.1820 C   0  0  0  0  0  0
  -22.1661   -4.2155   21.0966 F   0  0  0  0  0  0
  -21.5611   -3.4533   25.7720 F   0  0  0  0  0  0
  -30.0427  -13.2538   20.4511 N   0  0  0  0  0  0
  -26.3025  -12.9311   20.3360 N   0  0  0  0  0  0
  -25.9291  -11.6476   20.5750 N   0  0  0  0  0  0
  -22.0462  -12.8283   22.0368 N   0  0  0  0  0  0
  -25.4333  -15.1869   20.4059 N   0  0  0  0  0  0
  -31.8041  -14.6595   20.0831 O   0  0  0  0  0  0
  -21.6623   -6.8877   21.4245 O   0  0  0  0  0  0
  -22.3572  -14.5577   20.6668 O   0  0  0  0  0  0
  -24.6130  -31.8692   23.2118 C   0  0  0  0  0  0
  -25.9033  -32.4827   23.8406 C   0  0  1  0  0  0
  -27.2356  -27.4463   20.0834 C   0  0  0  0  0  0
  -25.5903  -33.8627   24.2340 N   0  0  0  0  0  0
  -23.3994  -30.4933   21.5530 C   0  0  2  0  0  0
  -24.8420  -28.9590   20.1182 C   0  0  0  0  0  0
  -22.7401  -29.4664   22.5013 C   0  0  0  0  0  0
  -18.0268  -28.1374   22.8494 C   0  0  0  0  0  0
  -24.1487  -36.7315   23.2635 C   0  0  0  0  0  0
  -25.9277  -30.8361   21.3640 C   0  0  0  0  0  0
  -26.0022  -29.4720   20.7099 C   0  0  0  0  0  0
  -27.1981  -28.7227   20.6885 C   0  0  0  0  0  0
  -26.0490  -26.9388   19.5006 C   0  0  0  0  0  0
  -24.8596  -27.6906   19.5145 C   0  0  0  0  0  0
  -23.6054  -29.8260   20.1672 C   0  0  0  0  0  0
  -25.4106  -36.3115   24.0340 C   0  0  1  0  0  0
  -20.5855  -28.3655   23.1331 C   0  0  2  0  0  0
  -20.6761  -26.9398   22.5415 C   0  0  0  0  0  0
  -19.5741  -26.6393   21.5209 C   0  0  0  0  0  0
  -18.1918  -26.7923   22.1620 C   0  0  0  0  0  0
  -19.1514  -28.8832   23.2907 C   0  0  0  0  0  0
  -18.9445  -30.1440   23.8912 C   0  0  0  0  0  0
  -17.6448  -30.6580   24.0571 C   0  0  0  0  0  0
  -25.9032  -34.9479   23.5134 C   0  0  0  0  0  0
  -16.5339  -29.9086   23.6328 C   0  0  0  0  0  0
  -16.7256  -28.6503   23.0346 C   0  0  0  0  0  0
  -26.4461  -31.6602   25.0732 C   0  0  0  0  0  0
  -25.3734  -31.3724   26.1490 C   0  0  0  0  0  0
  -27.0282  -30.3041   24.6107 C   0  0  0  0  0  0
  -27.6040  -32.4318   25.7487 C   0  0  0  0  0  0
  -27.5588  -37.1806   24.8456 C   0  0  0  0  0  0
  -21.4130  -29.3032   22.3750 N   0  0  0  0  0  0
  -26.4291  -37.3802   23.9417 N   0  0  0  0  0  0
  -24.6649  -31.0805   22.1011 N   0  0  0  0  0  0
  -23.4180  -28.8201   23.3043 O   0  0  0  0  0  0
  -28.4390  -26.7685   20.0760 O   0  0  0  0  0  0
  -26.5590  -34.8927   22.4693 O   0  0  0  0  0  0
  -23.5329  -32.1436   23.7525 O   0  0  0  0  0  0
  -26.8208  -21.1702   19.8775 C   0  0  0  0  0  0
  -29.1232  -22.1693   20.8880 C   0  0  0  0  0  0
  -27.9274  -20.3245   20.1567 C   0  0  0  0  0  0
  -28.0085  -23.0085   20.6220 C   0  0  0  0  0  0
  -25.5116  -20.6343   19.3284 C   0  0  0  0  0  0
  -30.4223  -22.7051   21.4569 C   0  0  0  0  0  0
  -27.8329  -18.8119   19.9329 C   0  0  0  0  0  0
  -28.0008  -24.5043   20.9211 C   0  0  0  0  0  0
  -29.1117  -17.9629   20.1304 C   0  0  0  0  0  0
  -29.4846  -17.6947   21.6038 C   0  0  0  0  0  0
  -30.5986  -16.6428   21.7849 C   0  0  0  0  0  0
  -28.4781  -25.3759   19.7427 C   0  0  0  0  0  0
  -29.0823  -20.8342   20.6545 N   0  0  0  0  0  0
  -26.8632  -22.5051   20.1017 N   0  0  0  0  0  0
  -30.1337  -15.2954   21.4501 N   0  0  0  0  0  0
  -31.4657  -12.4005   19.0964 H   0  0  0  0  0  0
  -30.3295  -11.2760   19.7821 H   0  0  0  0  0  0
  -29.7241  -11.7870   17.4133 H   0  0  0  0  0  0
  -29.6622  -13.4966   17.7667 H   0  0  0  0  0  0
  -27.8200  -11.3129   18.8032 H   0  0  0  0  0  0
  -27.3556  -12.6507   17.7890 H   0  0  0  0  0  0
  -27.7199  -14.2525   19.5960 H   0  0  0  0  0  0
  -28.6746  -11.9065   21.3078 H   0  0  0  0  0  0
  -28.4525  -13.5216   21.8861 H   0  0  0  0  0  0
  -25.2722   -9.5707   22.4766 H   0  0  0  0  0  0
  -23.9994   -7.4647   22.7492 H   0  0  0  0  0  0
  -21.0810   -8.8730   19.8958 H   0  0  0  0  0  0
  -22.3635  -10.9656   19.6164 H   0  0  0  0  0  0
  -21.2014   -7.6148   23.9712 H   0  0  0  0  0  0
  -21.1489   -6.0518   25.9072 H   0  0  0  0  0  0
  -22.0604   -2.7606   23.2819 H   0  0  0  0  0  0
  -22.4009  -11.9931   22.4777 H   0  0  0  0  0  0
  -21.1085  -13.1364   22.2513 H   0  0  0  0  0  0
  -24.6708  -15.8462   20.5175 H   0  0  0  0  0  0
  -26.2900  -15.6197   20.0867 H   0  0  0  0  0  0
  -26.7107  -32.5531   23.1172 H   0  0  0  0  0  0
  -25.0088  -33.9796   25.0507 H   0  0  0  0  0  0
  -22.6873  -31.3098   21.4162 H   0  0  0  0  0  0
  -23.3752  -35.9643   23.3288 H   0  0  0  0  0  0
  -24.3594  -36.8933   22.2052 H   0  0  0  0  0  0
  -23.7225  -37.6514   23.6649 H   0  0  0  0  0  0
  -26.0445  -31.6045   20.5984 H   0  0  0  0  0  0
  -26.8145  -30.8839   21.9844 H   0  0  0  0  0  0
  -28.0968  -29.1217   21.1386 H   0  0  0  0  0  0
  -26.0124  -25.9717   19.0236 H   0  0  0  0  0  0
  -23.9654  -27.2880   19.0581 H   0  0  0  0  0  0
  -23.7151  -30.6006   19.4079 H   0  0  0  0  0  0
  -22.7290  -29.2464   19.8711 H   0  0  0  0  0  0
  -25.1278  -36.1984   25.0832 H   0  0  0  0  0  0
  -20.9943  -28.3210   24.1453 H   0  0  0  0  0  0
  -20.5675  -26.2259   23.3591 H   0  0  0  0  0  0
  -21.6633  -26.7458   22.1199 H   0  0  0  0  0  0
  -19.6908  -25.6316   21.1211 H   0  0  0  0  0  0
  -19.6679  -27.3229   20.6759 H   0  0  0  0  0  0
  -17.4193  -26.6674   21.4018 H   0  0  0  0  0  0
  -18.0318  -26.0058   22.9009 H   0  0  0  0  0  0
  -19.7922  -30.7254   24.2282 H   0  0  0  0  0  0
  -17.5004  -31.6257   24.5178 H   0  0  0  0  0  0
  -15.5340  -30.2995   23.7643 H   0  0  0  0  0  0
  -15.8654  -28.0832   22.7050 H   0  0  0  0  0  0
  -24.5891  -30.7084   25.7842 H   0  0  0  0  0  0
  -24.8949  -32.2892   26.4947 H   0  0  0  0  0  0
  -25.8091  -30.8890   27.0243 H   0  0  0  0  0  0
  -26.2832  -29.6825   24.1130 H   0  0  0  0  0  0
  -27.4015  -29.7256   25.4568 H   0  0  0  0  0  0
  -27.8685  -30.4357   23.9285 H   0  0  0  0  0  0
  -27.2661  -33.3609   26.2090 H   0  0  0  0  0  0
  -28.3832  -32.6891   25.0300 H   0  0  0  0  0  0
  -28.0727  -31.8428   26.5381 H   0  0  0  0  0  0
  -28.2581  -38.0129   24.7545 H   0  0  0  0  0  0
  -28.1105  -36.2663   24.6221 H   0  0  0  0  0  0
  -27.2318  -37.1383   25.8860 H   0  0  0  0  0  0
  -20.9286  -29.8772   21.6992 H   0  0  0  0  0  0
  -26.0177  -38.2876   24.1438 H   0  0  0  0  0  0
  -25.0774  -19.9080   20.0156 H   0  0  0  0  0  0
  -25.6702  -20.1469   18.3667 H   0  0  0  0  0  0
  -24.7827  -21.4314   19.1806 H   0  0  0  0  0  0
  -30.8118  -23.5055   20.8284 H   0  0  0  0  0  0
  -31.1844  -21.9276   21.5169 H   0  0  0  0  0  0
  -30.2653  -23.0984   22.4612 H   0  0  0  0  0  0
  -27.5035  -18.6689   18.9034 H   0  0  0  0  0  0
  -27.0315  -18.4188   20.5595 H   0  0  0  0  0  0
  -28.6109  -24.7056   21.8011 H   0  0  0  0  0  0
  -26.9878  -24.7907   21.2034 H   0  0  0  0  0  0
  -29.9504  -18.4064   19.5915 H   0  0  0  0  0  0
  -28.9319  -16.9990   19.6526 H   0  0  0  0  0  0
  -28.5986  -17.3841   22.1606 H   0  0  0  0  0  0
  -29.8078  -18.6299   22.0629 H   0  0  0  0  0  0
  -30.9181  -16.6334   22.8279 H   0  0  0  0  0  0
  -31.4761  -16.9263   21.2006 H   0  0  0  0  0  0
  -27.9384  -25.1521   18.8232 H   0  0  0  0  0  0
  -29.5169  -25.1306   19.5219 H   0  0  0  0  0  0
  -29.2620  -14.9968   21.8606 H   0  0  0  0  0  0
  1 25  1  0  0  0
  1 30  2  0  0  0
  1 85  1  0  0  0
  2  3  1  0  0  0
  2 25  1  0  0  0
  2 86  1  0  0  0
  2 87  1  0  0  0
  3  4  1  0  0  0
  3 88  1  0  0  0
  3 89  1  0  0  0
  4  5  1  0  0  0
  4 90  1  0  0  0
  4 91  1  0  0  0
  5  6  1  0  0  0
  5 26  1  0  0  0
  5 92  1  0  0  0
  6 25  1  0  0  0
  6 93  1  0  0  0
  6 94  1  0  0  0
  7  8  2  0  0  0
  7 26  1  0  0  0
  7 29  1  0  0  0
  8  9  1  0  0  0
  8 22  1  0  0  0
  9 10  1  0  0  0
  9 27  2  0  0  0
 10 11  2  0  0  0
 10 15  1  0  0  0
 11 12  1  0  0  0
 11 95  1  0  0  0
 12 13  2  0  0  0
 12 96  1  0  0  0
 13 14  1  0  0  0
 13 31  1  0  0  0
 14 15  2  0  0  0
 14 97  1  0  0  0
 15 98  1  0  0  0
 16 17  2  0  0  0
 16 21  1  0  0  0
 16 31  1  0  0  0
 17 18  1  0  0  0
 17 99  1  0  0  0
 18 19  2  0  0  0
 18100  1  0  0  0
 19 20  1  0  0  0
 19 24  1  0  0  0
 20 21  2  0  0  0
 20101  1  0  0  0
 21 23  1  0  0  0
 22 28  1  0  0  0
 22 32  2  0  0  0
 26 27  1  0  0  0
 28102  1  0  0  0
 28103  1  0  0  0
 29104  1  0  0  0
 29105  1  0  0  0
 33 34  1  0  0  0
 33 66  1  0  0  0
 33 70  2  0  0  0
 34 36  1  0  0  0
 34 59  1  0  0  0
 34106  1  0  0  0
 35 44  2  0  0  0
 35 45  1  0  0  0
 35 68  1  0  0  0
 36 56  1  0  0  0
 36107  1  0  0  0
 37 39  1  0  0  0
 37 47  1  0  0  0
 37 66  1  0  0  0
 37108  1  0  0  0
 38 43  2  0  0  0
 38 46  1  0  0  0
 38 47  1  0  0  0
 39 64  1  0  0  0
 39 67  2  0  0  0
 40 52  1  0  0  0
 40 53  2  0  0  0
 40 58  1  0  0  0
 41109  1  0  0  0
 41110  1  0  0  0
 41111  1  0  0  0
 41 48  1  0  0  0
 42 43  1  0  0  0
 42 66  1  0  0  0
 42112  1  0  0  0
 42113  1  0  0  0
 43 44  1  0  0  0
 44114  1  0  0  0
 45 46  2  0  0  0
 45115  1  0  0  0
 46116  1  0  0  0
 47117  1  0  0  0
 47118  1  0  0  0
 48 56  1  0  0  0
 48 65  1  0  0  0
 48119  1  0  0  0
 49 50  1  0  0  0
 49 53  1  0  0  0
 49 64  1  0  0  0
 49120  1  0  0  0
 50 51  1  0  0  0
 50121  1  0  0  0
 50122  1  0  0  0
 51 52  1  0  0  0
 51123  1  0  0  0
 51124  1  0  0  0
 52125  1  0  0  0
 52126  1  0  0  0
 53 54  1  0  0  0
 54 55  2  0  0  0
 54127  1  0  0  0
 55 57  1  0  0  0
 55128  1  0  0  0
 56 69  2  0  0  0
 57 58  2  0  0  0
 57129  1  0  0  0
 58130  1  0  0  0
 59 60  1  0  0  0
 59 61  1  0  0  0
 59 62  1  0  0  0
 60131  1  0  0  0
 60132  1  0  0  0
 60133  1  0  0  0
 61134  1  0  0  0
 61135  1  0  0  0
 61136  1  0  0  0
 62137  1  0  0  0
 62138  1  0  0  0
 62139  1  0  0  0
 63 65  1  0  0  0
 63140  1  0  0  0
 63141  1  0  0  0
 63142  1  0  0  0
 64143  1  0  0  0
 65144  1  0  0  0
 68 82  1  0  0  0
 71 73  2  0  0  0
 71 75  1  0  0  0
 71 84  1  0  0  0
 72 74  1  0  0  0
 72 76  1  0  0  0
 72 83  2  0  0  0
 73 77  1  0  0  0
 73 83  1  0  0  0
 74 78  1  0  0  0
 74 84  2  0  0  0
 75145  1  0  0  0
 75146  1  0  0  0
 75147  1  0  0  0
 76148  1  0  0  0
 76149  1  0  0  0
 76150  1  0  0  0
 77 79  1  0  0  0
 77151  1  0  0  0
 77152  1  0  0  0
 78 82  1  0  0  0
 78153  1  0  0  0
 78154  1  0  0  0
 79 80  1  0  0  0
 79155  1  0  0  0
 79156  1  0  0  0
 80 81  1  0  0  0
 80157  1  0  0  0
 80158  1  0  0  0
 81 85  1  0  0  0
 81159  1  0  0  0
 81160  1  0  0  0
 82161  1  0  0  0
 82162  1  0  0  0
 85163  1  0  0  0
M  ISO  4   1 100  68 101  82 101  85 100
M  END
> <chiral flag>
0

> <version>
0

> <s_m_source_file>
/data/baiqing/PycharmProjects/Reinvent-master-3.2/result/LINK_invent/BTK/process_docking_weight1_custom_sum_contain_oxygen_bond_distance_aromatic_linkinvent_7_9_3/rearranged_h_0039.sdf

> <i_m_source_file_index>
87

> <r_mmod_Potential_Energy-OPLS-2005>
-90.7133941650391

> <r_mmod_Stretch_Energy-OPLS-2005>
36.4146690368652

> <r_mmod_Bend_Energy-OPLS-2005>
103.298141479492

> <r_mmod_Torsional_Energy-OPLS-2005>
191.658050537109

> <r_mmod_Improper_Torsional_Energy-OPLS-2005>
1.94414019584656

> <r_mmod_Van_der_Waal_Energy-OPLS-2005>
156.644180297852

> <r_mmod_Electrostatic_Energy-OPLS-2005>
-371.564331054688

> <r_mmod_Solvation_Energy-OPLS-2005>
-217.848770141602

> <b_mmod_Minimization_Converged-OPLS-2005>
0

> <r_mmod_RMS_Derivative-OPLS-2005>
1.20466375350952

$$$$
88
                    3D
 Structure written by MMmdl.
167175  0  0  1  0            999 V2000
  -30.6135  -14.7033   20.4908 C   0  0  0  0  0  0
  -30.4337  -12.4329   19.4666 C   0  0  0  0  0  0
  -29.5089  -12.5050   18.2315 C   0  0  0  0  0  0
  -28.0339  -12.3342   18.6437 C   0  0  0  0  0  0
  -27.6450  -13.2244   19.8544 C   0  0  2  0  0  0
  -28.6878  -13.1279   20.9888 C   0  0  0  0  0  0
  -25.2528  -13.8178   20.5684 C   0  0  0  0  0  0
  -24.1808  -13.0437   20.9191 C   0  0  0  0  0  0
  -24.6389  -11.6912   20.8736 C   0  0  0  0  0  0
  -23.9063  -10.4288   21.0399 C   0  0  0  0  0  0
  -24.3617   -9.4208   21.9177 C   0  0  0  0  0  0
  -23.6294   -8.2242   22.0755 C   0  0  0  0  0  0
  -22.4277   -8.0272   21.3544 C   0  0  0  0  0  0
  -21.9910   -9.0245   20.4647 C   0  0  0  0  0  0
  -22.7237  -10.2125   20.3050 C   0  0  0  0  0  0
  -21.6858   -6.0729   22.5274 C   0  0  0  0  0  0
  -21.4020   -6.5638   23.8207 C   0  0  0  0  0  0
  -21.3661   -5.6789   24.9169 C   0  0  0  0  0  0
  -21.6046   -4.3051   24.7221 C   0  0  0  0  0  0
  -21.8825   -3.8142   23.4343 C   0  0  0  0  0  0
  -21.9195   -4.6955   22.3398 C   0  0  0  0  0  0
  -22.7835  -13.5223   21.1862 C   0  0  0  0  0  0
  -22.1664   -4.2144   21.0974 F   0  0  0  0  0  0
  -21.5627   -3.4536   25.7736 F   0  0  0  0  0  0
  -29.9922  -13.4796   20.4138 N   0  0  0  0  0  0
  -26.2949  -12.9373   20.3275 N   0  0  0  0  0  0
  -25.9315  -11.6521   20.5738 N   0  0  0  0  0  0
  -22.0489  -12.8197   22.0415 N   0  0  0  0  0  0
  -25.4225  -15.1900   20.4100 N   0  0  0  0  0  0
  -31.7957  -14.8248   20.1598 O   0  0  0  0  0  0
  -21.6643   -6.8871   21.4238 O   0  0  0  0  0  0
  -22.3515  -14.5532   20.6719 O   0  0  0  0  0  0
  -24.6276  -31.8577   23.1981 C   0  0  0  0  0  0
  -25.9105  -32.4769   23.8325 C   0  0  1  0  0  0
  -27.2295  -27.3007   20.1377 C   0  0  0  0  0  0
  -25.5912  -33.8572   24.2257 N   0  0  0  0  0  0
  -23.4221  -30.4788   21.5405 C   0  0  2  0  0  0
  -24.8719  -28.9237   20.1146 C   0  0  0  0  0  0
  -22.7476  -29.4610   22.4914 C   0  0  0  0  0  0
  -18.0290  -28.1386   22.8484 C   0  0  0  0  0  0
  -24.1487  -36.7295   23.2645 C   0  0  0  0  0  0
  -25.9637  -30.7853   21.3681 C   0  0  0  0  0  0
  -26.0401  -29.4078   20.7177 C   0  0  0  0  0  0
  -27.2247  -28.6099   20.7142 C   0  0  0  0  0  0
  -26.0415  -26.8648   19.5165 C   0  0  0  0  0  0
  -24.8754  -27.6581   19.5044 C   0  0  0  0  0  0
  -23.6388  -29.8069   20.1586 C   0  0  0  0  0  0
  -25.4108  -36.3082   24.0328 C   0  0  1  0  0  0
  -20.5889  -28.3693   23.1285 C   0  0  2  0  0  0
  -20.6785  -26.9408   22.5418 C   0  0  0  0  0  0
  -19.5767  -26.6372   21.5226 C   0  0  0  0  0  0
  -18.1937  -26.7935   22.1613 C   0  0  0  0  0  0
  -19.1542  -28.8857   23.2880 C   0  0  0  0  0  0
  -18.9463  -30.1460   23.8895 C   0  0  0  0  0  0
  -17.6468  -30.6593   24.0567 C   0  0  0  0  0  0
  -25.9049  -34.9454   23.5097 C   0  0  0  0  0  0
  -16.5359  -29.9087   23.6330 C   0  0  0  0  0  0
  -16.7277  -28.6501   23.0355 C   0  0  0  0  0  0
  -26.4474  -31.6593   25.0711 C   0  0  0  0  0  0
  -25.3695  -31.3742   26.1434 C   0  0  0  0  0  0
  -27.0313  -30.3015   24.6163 C   0  0  0  0  0  0
  -27.6037  -32.4325   25.7485 C   0  0  0  0  0  0
  -27.5570  -37.1801   24.8465 C   0  0  0  0  0  0
  -21.4191  -29.3045   22.3672 N   0  0  0  0  0  0
  -26.4284  -37.3777   23.9406 N   0  0  0  0  0  0
  -24.6901  -31.0575   22.0926 N   0  0  0  0  0  0
  -23.4203  -28.8153   23.3002 O   0  0  0  0  0  0
  -28.3470  -26.4511   20.1290 O   0  0  0  0  0  0
  -26.5639  -34.8929   22.4679 O   0  0  0  0  0  0
  -23.5429  -32.1371   23.7284 O   0  0  0  0  0  0
  -29.0071  -21.0817   20.3158 C   0  0  0  0  0  0
  -29.1922  -22.4881   22.2567 C   0  0  0  0  0  0
  -28.9801  -22.4206   20.8714 C   0  0  0  0  0  0
  -29.1844  -19.8976   21.1362 C   0  0  0  0  0  0
  -29.2978  -20.1580   22.5299 C   0  0  0  0  0  0
  -30.8818  -17.7529   25.1989 C   0  0  0  0  0  0
  -27.3929  -17.8826   24.9058 C   0  0  0  0  0  0
  -28.8003  -23.7747   20.0510 C   0  0  0  0  0  0
  -29.0649  -18.3994   20.5908 C   0  0  0  0  0  0
  -30.6645  -18.9992   24.3282 C   0  0  0  0  0  0
  -28.0855  -19.2098   24.5551 C   0  0  0  0  0  0
  -30.2201  -17.2861   20.8079 C   0  0  0  0  0  0
  -28.2389  -25.1095   20.7681 C   0  0  0  0  0  0
  -29.2986  -19.0594   23.6020 C   0  0  0  0  0  0
  -29.3425  -21.4080   23.0455 N   0  0  0  0  0  0
  -29.8323  -15.8120   20.7548 N   0  0  0  0  0  0
  -31.4748  -12.5608   19.1649 H   0  0  0  0  0  0
  -30.3766  -11.4484   19.9347 H   0  0  0  0  0  0
  -29.7859  -11.7375   17.5073 H   0  0  0  0  0  0
  -29.6403  -13.4633   17.7276 H   0  0  0  0  0  0
  -27.8845  -11.2841   18.8955 H   0  0  0  0  0  0
  -27.3771  -12.5388   17.7973 H   0  0  0  0  0  0
  -27.6497  -14.2515   19.4892 H   0  0  0  0  0  0
  -28.7151  -12.1202   21.4066 H   0  0  0  0  0  0
  -28.4262  -13.7903   21.8158 H   0  0  0  0  0  0
  -25.2768   -9.5682   22.4743 H   0  0  0  0  0  0
  -24.0003   -7.4639   22.7483 H   0  0  0  0  0  0
  -21.0837   -8.8760   19.8957 H   0  0  0  0  0  0
  -22.3694  -10.9656   19.6151 H   0  0  0  0  0  0
  -21.2019   -7.6147   23.9708 H   0  0  0  0  0  0
  -21.1477   -6.0520   25.9071 H   0  0  0  0  0  0
  -22.0603   -2.7603   23.2842 H   0  0  0  0  0  0
  -22.4121  -11.9843   22.4760 H   0  0  0  0  0  0
  -21.1110  -13.1207   22.2652 H   0  0  0  0  0  0
  -24.6527  -15.8403   20.5251 H   0  0  0  0  0  0
  -26.2621  -15.6302   20.0581 H   0  0  0  0  0  0
  -26.7176  -32.5445   23.1078 H   0  0  0  0  0  0
  -25.0064  -33.9716   25.0404 H   0  0  0  0  0  0
  -22.7175  -31.3001   21.3927 H   0  0  0  0  0  0
  -23.3746  -35.9629   23.3313 H   0  0  0  0  0  0
  -24.3586  -36.8911   22.2058 H   0  0  0  0  0  0
  -23.7228  -37.6494   23.6669 H   0  0  0  0  0  0
  -26.0940  -31.5415   20.5927 H   0  0  0  0  0  0
  -26.8455  -30.8402   21.9935 H   0  0  0  0  0  0
  -28.1242  -28.9823   21.1822 H   0  0  0  0  0  0
  -26.0135  -25.8933   19.0434 H   0  0  0  0  0  0
  -23.9808  -27.2788   19.0316 H   0  0  0  0  0  0
  -23.7604  -30.5832   19.4031 H   0  0  0  0  0  0
  -22.7575  -29.2390   19.8540 H   0  0  0  0  0  0
  -25.1281  -36.1940   25.0814 H   0  0  0  0  0  0
  -20.9990  -28.3270   24.1400 H   0  0  0  0  0  0
  -20.5709  -26.2287   23.3612 H   0  0  0  0  0  0
  -21.6650  -26.7451   22.1190 H   0  0  0  0  0  0
  -19.6941  -25.6285   21.1240 H   0  0  0  0  0  0
  -19.6722  -27.3205   20.6782 H   0  0  0  0  0  0
  -17.4210  -26.6702   21.4001 H   0  0  0  0  0  0
  -18.0311  -26.0078   22.9003 H   0  0  0  0  0  0
  -19.7945  -30.7278   24.2247 H   0  0  0  0  0  0
  -17.5024  -31.6272   24.5170 H   0  0  0  0  0  0
  -15.5359  -30.2993   23.7666 H   0  0  0  0  0  0
  -15.8670  -28.0829   22.7072 H   0  0  0  0  0  0
  -24.5907  -30.7039   25.7787 H   0  0  0  0  0  0
  -24.8837  -32.2914   26.4786 H   0  0  0  0  0  0
  -25.8009  -30.8997   27.0261 H   0  0  0  0  0  0
  -26.2891  -29.6779   24.1169 H   0  0  0  0  0  0
  -27.4017  -29.7253   25.4659 H   0  0  0  0  0  0
  -27.8754  -30.4309   23.9380 H   0  0  0  0  0  0
  -27.2658  -33.3650   26.2015 H   0  0  0  0  0  0
  -28.3872  -32.6841   25.0327 H   0  0  0  0  0  0
  -28.0679  -31.8472   26.5438 H   0  0  0  0  0  0
  -28.2593  -38.0097   24.7513 H   0  0  0  0  0  0
  -28.1053  -36.2627   24.6278 H   0  0  0  0  0  0
  -27.2297  -37.1444   25.8874 H   0  0  0  0  0  0
  -20.9359  -29.8745   21.6869 H   0  0  0  0  0  0
  -26.0164  -38.2852   24.1419 H   0  0  0  0  0  0
  -28.8588  -20.9590   19.2524 H   0  0  0  0  0  0
  -29.2336  -23.4346   22.7730 H   0  0  0  0  0  0
  -31.8973  -17.7323   25.5948 H   0  0  0  0  0  0
  -30.7325  -16.8358   24.6272 H   0  0  0  0  0  0
  -30.2033  -17.7378   26.0513 H   0  0  0  0  0  0
  -28.0633  -17.1881   25.4094 H   0  0  0  0  0  0
  -27.0147  -17.3877   24.0099 H   0  0  0  0  0  0
  -26.5411  -18.0571   25.5633 H   0  0  0  0  0  0
  -28.1684  -23.5629   19.1887 H   0  0  0  0  0  0
  -29.7829  -24.0118   19.6407 H   0  0  0  0  0  0
  -28.8537  -18.4537   19.5225 H   0  0  0  0  0  0
  -28.1414  -18.0108   21.0234 H   0  0  0  0  0  0
  -31.4522  -19.0142   23.5746 H   0  0  0  0  0  0
  -30.8127  -19.9006   24.9244 H   0  0  0  0  0  0
  -28.3762  -19.7489   25.4573 H   0  0  0  0  0  0
  -27.3270  -19.8351   24.0807 H   0  0  0  0  0  0
  -30.6993  -17.4248   21.7754 H   0  0  0  0  0  0
  -31.0182  -17.4717   20.0880 H   0  0  0  0  0  0
  -28.8024  -25.2500   21.6892 H   0  0  0  0  0  0
  -27.2148  -24.9262   21.0958 H   0  0  0  0  0  0
  -29.1576  -18.1024   23.1123 H   0  0  0  0  0  0
  -28.8676  -15.6039   20.9606 H   0  0  0  0  0  0
  1 25  1  0  0  0
  1 30  2  0  0  0
  1 86  1  0  0  0
  2  3  1  0  0  0
  2 25  1  0  0  0
  2 87  1  0  0  0
  2 88  1  0  0  0
  3  4  1  0  0  0
  3 89  1  0  0  0
  3 90  1  0  0  0
  4  5  1  0  0  0
  4 91  1  0  0  0
  4 92  1  0  0  0
  5  6  1  0  0  0
  5 26  1  0  0  0
  5 93  1  0  0  0
  6 25  1  0  0  0
  6 94  1  0  0  0
  6 95  1  0  0  0
  7  8  2  0  0  0
  7 26  1  0  0  0
  7 29  1  0  0  0
  8  9  1  0  0  0
  8 22  1  0  0  0
  9 10  1  0  0  0
  9 27  2  0  0  0
 10 11  2  0  0  0
 10 15  1  0  0  0
 11 12  1  0  0  0
 11 96  1  0  0  0
 12 13  2  0  0  0
 12 97  1  0  0  0
 13 14  1  0  0  0
 13 31  1  0  0  0
 14 15  2  0  0  0
 14 98  1  0  0  0
 15 99  1  0  0  0
 16 17  2  0  0  0
 16 21  1  0  0  0
 16 31  1  0  0  0
 17 18  1  0  0  0
 17100  1  0  0  0
 18 19  2  0  0  0
 18101  1  0  0  0
 19 20  1  0  0  0
 19 24  1  0  0  0
 20 21  2  0  0  0
 20102  1  0  0  0
 21 23  1  0  0  0
 22 28  1  0  0  0
 22 32  2  0  0  0
 26 27  1  0  0  0
 28103  1  0  0  0
 28104  1  0  0  0
 29105  1  0  0  0
 29106  1  0  0  0
 33 34  1  0  0  0
 33 66  1  0  0  0
 33 70  2  0  0  0
 34 36  1  0  0  0
 34 59  1  0  0  0
 34107  1  0  0  0
 35 44  2  0  0  0
 35 45  1  0  0  0
 35 68  1  0  0  0
 36 56  1  0  0  0
 36108  1  0  0  0
 37 39  1  0  0  0
 37 47  1  0  0  0
 37 66  1  0  0  0
 37109  1  0  0  0
 38 43  2  0  0  0
 38 46  1  0  0  0
 38 47  1  0  0  0
 39 64  1  0  0  0
 39 67  2  0  0  0
 40 52  1  0  0  0
 40 53  2  0  0  0
 40 58  1  0  0  0
 41110  1  0  0  0
 41111  1  0  0  0
 41112  1  0  0  0
 41 48  1  0  0  0
 42 43  1  0  0  0
 42 66  1  0  0  0
 42113  1  0  0  0
 42114  1  0  0  0
 43 44  1  0  0  0
 44115  1  0  0  0
 45 46  2  0  0  0
 45116  1  0  0  0
 46117  1  0  0  0
 47118  1  0  0  0
 47119  1  0  0  0
 48 56  1  0  0  0
 48 65  1  0  0  0
 48120  1  0  0  0
 49 50  1  0  0  0
 49 53  1  0  0  0
 49 64  1  0  0  0
 49121  1  0  0  0
 50 51  1  0  0  0
 50122  1  0  0  0
 50123  1  0  0  0
 51 52  1  0  0  0
 51124  1  0  0  0
 51125  1  0  0  0
 52126  1  0  0  0
 52127  1  0  0  0
 53 54  1  0  0  0
 54 55  2  0  0  0
 54128  1  0  0  0
 55 57  1  0  0  0
 55129  1  0  0  0
 56 69  2  0  0  0
 57 58  2  0  0  0
 57130  1  0  0  0
 58131  1  0  0  0
 59 60  1  0  0  0
 59 61  1  0  0  0
 59 62  1  0  0  0
 60132  1  0  0  0
 60133  1  0  0  0
 60134  1  0  0  0
 61135  1  0  0  0
 61136  1  0  0  0
 61137  1  0  0  0
 62138  1  0  0  0
 62139  1  0  0  0
 62140  1  0  0  0
 63 65  1  0  0  0
 63141  1  0  0  0
 63142  1  0  0  0
 63143  1  0  0  0
 64144  1  0  0  0
 65145  1  0  0  0
 68 83  1  0  0  0
 71 73  2  0  0  0
 71 74  1  0  0  0
 71146  1  0  0  0
 72 73  1  0  0  0
 72 85  2  0  0  0
 72147  1  0  0  0
 73 78  1  0  0  0
 74 75  2  0  0  0
 74 79  1  0  0  0
 75 84  1  0  0  0
 75 85  1  0  0  0
 76 80  1  0  0  0
 76148  1  0  0  0
 76149  1  0  0  0
 76150  1  0  0  0
 77 81  1  0  0  0
 77151  1  0  0  0
 77152  1  0  0  0
 77153  1  0  0  0
 78 83  1  0  0  0
 78154  1  0  0  0
 78155  1  0  0  0
 79 82  1  0  0  0
 79156  1  0  0  0
 79157  1  0  0  0
 80158  1  0  0  0
 80159  1  0  0  0
 80 84  1  0  0  0
 81 84  1  0  0  0
 81160  1  0  0  0
 81161  1  0  0  0
 82 86  1  0  0  0
 82162  1  0  0  0
 82163  1  0  0  0
 83164  1  0  0  0
 83165  1  0  0  0
 84166  1  0  0  0
 86167  1  0  0  0
M  ISO  4   1 100  68 101  83 101  86 100
M  END
> <chiral flag>
0

> <version>
0

> <s_m_source_file>
/data/baiqing/PycharmProjects/Reinvent-master-3.2/result/LINK_invent/BTK/process_docking_weight1_custom_sum_contain_oxygen_bond_distance_aromatic_linkinvent_7_9_3/rearranged_h_0039.sdf

> <i_m_source_file_index>
88

> <r_mmod_Potential_Energy-OPLS-2005>
-50.1121520996094

> <r_mmod_Stretch_Energy-OPLS-2005>
110.467346191406

> <r_mmod_Bend_Energy-OPLS-2005>
156.269348144531

> <r_mmod_Torsional_Energy-OPLS-2005>
227.321624755859

> <r_mmod_Improper_Torsional_Energy-OPLS-2005>
5.13725519180298

> <r_mmod_Van_der_Waal_Energy-OPLS-2005>
137.080276489258

> <r_mmod_Electrostatic_Energy-OPLS-2005>
-534.098510742188

> <r_mmod_Solvation_Energy-OPLS-2005>
-215.830429077148

> <b_mmod_Minimization_Converged-OPLS-2005>
0

> <r_mmod_RMS_Derivative-OPLS-2005>
2.12396192550659

$$$$
89
                    3D
 Structure written by MMmdl.
161169  0  0  1  0            999 V2000
  -30.5815  -14.8825   20.4355 C   0  0  0  0  0  0
  -30.4329  -12.5465   19.4950 C   0  0  0  0  0  0
  -29.5167  -12.5170   18.2510 C   0  0  0  0  0  0
  -28.0481  -12.3164   18.6694 C   0  0  0  0  0  0
  -27.6310  -13.2458   19.8398 C   0  0  2  0  0  0
  -28.6733  -13.2602   20.9783 C   0  0  0  0  0  0
  -25.2465  -13.8217   20.5718 C   0  0  0  0  0  0
  -24.1778  -13.0441   20.9234 C   0  0  0  0  0  0
  -24.6391  -11.6925   20.8760 C   0  0  0  0  0  0
  -23.9076  -10.4295   21.0409 C   0  0  0  0  0  0
  -24.3625   -9.4208   21.9186 C   0  0  0  0  0  0
  -23.6295   -8.2248   22.0757 C   0  0  0  0  0  0
  -22.4276   -8.0290   21.3550 C   0  0  0  0  0  0
  -21.9918   -9.0265   20.4652 C   0  0  0  0  0  0
  -22.7249  -10.2141   20.3056 C   0  0  0  0  0  0
  -21.6855   -6.0739   22.5280 C   0  0  0  0  0  0
  -21.4021   -6.5642   23.8215 C   0  0  0  0  0  0
  -21.3658   -5.6794   24.9176 C   0  0  0  0  0  0
  -21.6041   -4.3055   24.7227 C   0  0  0  0  0  0
  -21.8815   -3.8149   23.4346 C   0  0  0  0  0  0
  -21.9193   -4.6967   22.3403 C   0  0  0  0  0  0
  -22.7797  -13.5216   21.1881 C   0  0  0  0  0  0
  -22.1657   -4.2150   21.0982 F   0  0  0  0  0  0
  -21.5625   -3.4542   25.7741 F   0  0  0  0  0  0
  -29.9559  -13.6448   20.3801 N   0  0  0  0  0  0
  -26.2888  -12.9449   20.3251 N   0  0  0  0  0  0
  -25.9321  -11.6576   20.5739 N   0  0  0  0  0  0
  -22.0435  -12.8214   22.0436 N   0  0  0  0  0  0
  -25.4126  -15.1945   20.4138 N   0  0  0  0  0  0
  -31.7860  -14.9251   20.1664 O   0  0  0  0  0  0
  -21.6640   -6.8885   21.4244 O   0  0  0  0  0  0
  -22.3489  -14.5521   20.6719 O   0  0  0  0  0  0
  -24.6390  -31.8469   23.1902 C   0  0  0  0  0  0
  -25.9175  -32.4708   23.8281 C   0  0  1  0  0  0
  -27.2123  -27.1594   20.1663 C   0  0  0  0  0  0
  -25.5936  -33.8514   24.2198 N   0  0  0  0  0  0
  -23.4408  -30.4645   21.5362 C   0  0  2  0  0  0
  -24.8882  -28.8857   20.1224 C   0  0  0  0  0  0
  -22.7540  -29.4558   22.4894 C   0  0  0  0  0  0
  -18.0291  -28.1396   22.8479 C   0  0  0  0  0  0
  -24.1486  -36.7265   23.2646 C   0  0  0  0  0  0
  -25.9929  -30.7270   21.3858 C   0  0  0  0  0  0
  -26.0622  -29.3360   20.7389 C   0  0  0  0  0  0
  -27.2277  -28.4882   20.7416 C   0  0  0  0  0  0
  -26.0228  -26.8065   19.5012 C   0  0  0  0  0  0
  -24.8782  -27.6324   19.4896 C   0  0  0  0  0  0
  -23.6648  -29.7868   20.1582 C   0  0  0  0  0  0
  -25.4122  -36.3046   24.0313 C   0  0  1  0  0  0
  -20.5899  -28.3715   23.1253 C   0  0  2  0  0  0
  -20.6778  -26.9423   22.5410 C   0  0  0  0  0  0
  -19.5754  -26.6385   21.5216 C   0  0  0  0  0  0
  -18.1934  -26.7937   22.1627 C   0  0  0  0  0  0
  -19.1549  -28.8879   23.2856 C   0  0  0  0  0  0
  -18.9468  -30.1475   23.8877 C   0  0  0  0  0  0
  -17.6466  -30.6597   24.0562 C   0  0  0  0  0  0
  -25.9068  -34.9418   23.5068 C   0  0  0  0  0  0
  -16.5355  -29.9087   23.6343 C   0  0  0  0  0  0
  -16.7277  -28.6507   23.0362 C   0  0  0  0  0  0
  -26.4515  -31.6574   25.0715 C   0  0  0  0  0  0
  -25.3706  -31.3762   26.1418 C   0  0  0  0  0  0
  -27.0379  -30.2970   24.6295 C   0  0  0  0  0  0
  -27.6044  -32.4348   25.7495 C   0  0  0  0  0  0
  -27.5573  -37.1794   24.8467 C   0  0  0  0  0  0
  -21.4241  -29.3045   22.3636 N   0  0  0  0  0  0
  -26.4292  -37.3754   23.9402 N   0  0  0  0  0  0
  -24.7104  -31.0348   22.0926 N   0  0  0  0  0  0
  -23.4196  -28.8113   23.3039 O   0  0  0  0  0  0
  -28.3163  -26.2522   20.1150 O   0  0  0  0  0  0
  -26.5659  -34.8909   22.4650 O   0  0  0  0  0  0
  -23.5515  -32.1344   23.7138 O   0  0  0  0  0  0
  -29.7448  -21.5333   21.1004 C   0  0  0  0  0  0
  -28.5941  -19.4612   19.7426 C   0  0  0  0  0  0
  -30.2744  -20.1870   21.2191 C   0  0  0  0  0  0
  -29.6977  -19.0386   20.5480 C   0  0  0  0  0  0
  -28.6463  -21.8567   20.2605 C   0  0  0  0  0  0
  -32.5663  -19.4193   24.2995 C   0  0  0  0  0  0
  -26.4683  -23.1655   20.1700 C   0  0  0  0  0  0
  -31.5438  -20.0412   22.0490 C   0  0  0  0  0  0
  -30.4146  -17.5442   20.5418 C   0  0  0  0  0  0
  -31.2746  -19.5637   23.4837 C   0  0  0  0  0  0
  -28.3845  -24.8040   20.6691 C   0  0  0  0  0  0
  -27.9855  -23.3437   19.9609 C   0  0  1  0  0  0
  -28.1252  -20.7636   19.5992 N   0  0  0  0  0  0
  -29.8505  -16.0864   20.5819 N   0  0  0  0  0  0
  -31.4704  -12.6842   19.1875 H   0  0  0  0  0  0
  -30.4051  -11.5915   20.0222 H   0  0  0  0  0  0
  -29.8255  -11.7208   17.5721 H   0  0  0  0  0  0
  -29.6165  -13.4508   17.6954 H   0  0  0  0  0  0
  -27.9357  -11.2744   18.9714 H   0  0  0  0  0  0
  -27.3855  -12.4577   17.8145 H   0  0  0  0  0  0
  -27.6005  -14.2508   19.4179 H   0  0  0  0  0  0
  -28.7446  -12.2854   21.4625 H   0  0  0  0  0  0
  -28.3856  -13.9727   21.7533 H   0  0  0  0  0  0
  -25.2762   -9.5683   22.4769 H   0  0  0  0  0  0
  -24.0000   -7.4635   22.7476 H   0  0  0  0  0  0
  -21.0847   -8.8784   19.8958 H   0  0  0  0  0  0
  -22.3701  -10.9684   19.6171 H   0  0  0  0  0  0
  -21.2018   -7.6151   23.9721 H   0  0  0  0  0  0
  -21.1480   -6.0522   25.9079 H   0  0  0  0  0  0
  -22.0595   -2.7612   23.2843 H   0  0  0  0  0  0
  -22.4053  -11.9890   22.4842 H   0  0  0  0  0  0
  -21.1048  -13.1240   22.2637 H   0  0  0  0  0  0
  -24.6406  -15.8435   20.5252 H   0  0  0  0  0  0
  -26.2519  -15.6358   20.0619 H   0  0  0  0  0  0
  -26.7234  -32.5317   23.1005 H   0  0  0  0  0  0
  -25.0036  -33.9635   25.0310 H   0  0  0  0  0  0
  -22.7412  -31.2881   21.3793 H   0  0  0  0  0  0
  -23.3743  -35.9604   23.3323 H   0  0  0  0  0  0
  -24.3559  -36.8891   22.2058 H   0  0  0  0  0  0
  -23.7252  -37.6468   23.6678 H   0  0  0  0  0  0
  -26.1433  -31.4764   20.6076 H   0  0  0  0  0  0
  -26.8653  -30.7823   22.0253 H   0  0  0  0  0  0
  -28.1336  -28.8363   21.2178 H   0  0  0  0  0  0
  -25.9763  -25.8750   18.9602 H   0  0  0  0  0  0
  -23.9868  -27.2915   18.9823 H   0  0  0  0  0  0
  -23.7988  -30.5549   19.3959 H   0  0  0  0  0  0
  -22.7806  -29.2245   19.8528 H   0  0  0  0  0  0
  -25.1312  -36.1887   25.0806 H   0  0  0  0  0  0
  -20.9985  -28.3301   24.1377 H   0  0  0  0  0  0
  -20.5682  -26.2324   23.3622 H   0  0  0  0  0  0
  -21.6642  -26.7439   22.1203 H   0  0  0  0  0  0
  -19.6912  -25.6292   21.1256 H   0  0  0  0  0  0
  -19.6692  -27.3185   20.6738 H   0  0  0  0  0  0
  -17.4202  -26.6682   21.4030 H   0  0  0  0  0  0
  -18.0328  -26.0082   22.9027 H   0  0  0  0  0  0
  -19.7945  -30.7296   24.2235 H   0  0  0  0  0  0
  -17.5020  -31.6273   24.5171 H   0  0  0  0  0  0
  -15.5357  -30.2983   23.7685 H   0  0  0  0  0  0
  -15.8674  -28.0818   22.7095 H   0  0  0  0  0  0
  -24.5860  -30.7139   25.7743 H   0  0  0  0  0  0
  -24.8918  -32.2945   26.4824 H   0  0  0  0  0  0
  -25.7992  -30.8941   27.0212 H   0  0  0  0  0  0
  -26.2993  -29.6702   24.1285 H   0  0  0  0  0  0
  -27.3966  -29.7272   25.4879 H   0  0  0  0  0  0
  -27.8914  -30.4206   23.9625 H   0  0  0  0  0  0
  -27.2621  -33.3658   26.2030 H   0  0  0  0  0  0
  -28.3877  -32.6909   25.0346 H   0  0  0  0  0  0
  -28.0687  -31.8510   26.5455 H   0  0  0  0  0  0
  -28.2603  -38.0077   24.7487 H   0  0  0  0  0  0
  -28.1058  -36.2607   24.6333 H   0  0  0  0  0  0
  -27.2281  -37.1486   25.8869 H   0  0  0  0  0  0
  -20.9453  -29.8738   21.6797 H   0  0  0  0  0  0
  -26.0163  -38.2829   24.1390 H   0  0  0  0  0  0
  -30.2239  -22.3401   21.6384 H   0  0  0  0  0  0
  -28.0918  -18.7283   19.1284 H   0  0  0  0  0  0
  -33.2395  -18.6901   23.8475 H   0  0  0  0  0  0
  -32.3556  -19.0886   25.3173 H   0  0  0  0  0  0
  -33.0997  -20.3689   24.3641 H   0  0  0  0  0  0
  -26.0559  -22.4218   19.4879 H   0  0  0  0  0  0
  -25.9064  -24.0799   20.0196 H   0  0  0  0  0  0
  -26.2609  -22.8277   21.1856 H   0  0  0  0  0  0
  -32.0538  -21.0046   22.0868 H   0  0  0  0  0  0
  -32.2475  -19.3817   21.5420 H   0  0  0  0  0  0
  -31.1139  -17.5316   21.3747 H   0  0  0  0  0  0
  -31.0562  -17.5689   19.6600 H   0  0  0  0  0  0
  -30.6109  -20.2728   23.9801 H   0  0  0  0  0  0
  -30.7477  -18.6092   23.4684 H   0  0  0  0  0  0
  -29.4512  -24.7037   20.8678 H   0  0  0  0  0  0
  -27.9427  -24.8245   21.6661 H   0  0  0  0  0  0
  -28.1639  -23.4967   18.8965 H   0  0  0  0  0  0
  -28.8615  -15.9842   20.7517 H   0  0  0  0  0  0
  1 25  1  0  0  0
  1 30  2  0  0  0
  1 84  1  0  0  0
  2  3  1  0  0  0
  2 25  1  0  0  0
  2 85  1  0  0  0
  2 86  1  0  0  0
  3  4  1  0  0  0
  3 87  1  0  0  0
  3 88  1  0  0  0
  4  5  1  0  0  0
  4 89  1  0  0  0
  4 90  1  0  0  0
  5  6  1  0  0  0
  5 26  1  0  0  0
  5 91  1  0  0  0
  6 25  1  0  0  0
  6 92  1  0  0  0
  6 93  1  0  0  0
  7  8  2  0  0  0
  7 26  1  0  0  0
  7 29  1  0  0  0
  8  9  1  0  0  0
  8 22  1  0  0  0
  9 10  1  0  0  0
  9 27  2  0  0  0
 10 11  2  0  0  0
 10 15  1  0  0  0
 11 12  1  0  0  0
 11 94  1  0  0  0
 12 13  2  0  0  0
 12 95  1  0  0  0
 13 14  1  0  0  0
 13 31  1  0  0  0
 14 15  2  0  0  0
 14 96  1  0  0  0
 15 97  1  0  0  0
 16 17  2  0  0  0
 16 21  1  0  0  0
 16 31  1  0  0  0
 17 18  1  0  0  0
 17 98  1  0  0  0
 18 19  2  0  0  0
 18 99  1  0  0  0
 19 20  1  0  0  0
 19 24  1  0  0  0
 20 21  2  0  0  0
 20100  1  0  0  0
 21 23  1  0  0  0
 22 28  1  0  0  0
 22 32  2  0  0  0
 26 27  1  0  0  0
 28101  1  0  0  0
 28102  1  0  0  0
 29103  1  0  0  0
 29104  1  0  0  0
 33 34  1  0  0  0
 33 66  1  0  0  0
 33 70  2  0  0  0
 34 36  1  0  0  0
 34 59  1  0  0  0
 34105  1  0  0  0
 35 44  2  0  0  0
 35 45  1  0  0  0
 35 68  1  0  0  0
 36 56  1  0  0  0
 36106  1  0  0  0
 37 39  1  0  0  0
 37 47  1  0  0  0
 37 66  1  0  0  0
 37107  1  0  0  0
 38 43  2  0  0  0
 38 46  1  0  0  0
 38 47  1  0  0  0
 39 64  1  0  0  0
 39 67  2  0  0  0
 40 52  1  0  0  0
 40 53  2  0  0  0
 40 58  1  0  0  0
 41108  1  0  0  0
 41109  1  0  0  0
 41110  1  0  0  0
 41 48  1  0  0  0
 42 43  1  0  0  0
 42 66  1  0  0  0
 42111  1  0  0  0
 42112  1  0  0  0
 43 44  1  0  0  0
 44113  1  0  0  0
 45 46  2  0  0  0
 45114  1  0  0  0
 46115  1  0  0  0
 47116  1  0  0  0
 47117  1  0  0  0
 48 56  1  0  0  0
 48 65  1  0  0  0
 48118  1  0  0  0
 49 50  1  0  0  0
 49 53  1  0  0  0
 49 64  1  0  0  0
 49119  1  0  0  0
 50 51  1  0  0  0
 50120  1  0  0  0
 50121  1  0  0  0
 51 52  1  0  0  0
 51122  1  0  0  0
 51123  1  0  0  0
 52124  1  0  0  0
 52125  1  0  0  0
 53 54  1  0  0  0
 54 55  2  0  0  0
 54126  1  0  0  0
 55 57  1  0  0  0
 55127  1  0  0  0
 56 69  2  0  0  0
 57 58  2  0  0  0
 57128  1  0  0  0
 58129  1  0  0  0
 59 60  1  0  0  0
 59 61  1  0  0  0
 59 62  1  0  0  0
 60130  1  0  0  0
 60131  1  0  0  0
 60132  1  0  0  0
 61133  1  0  0  0
 61134  1  0  0  0
 61135  1  0  0  0
 62136  1  0  0  0
 62137  1  0  0  0
 62138  1  0  0  0
 63 65  1  0  0  0
 63139  1  0  0  0
 63140  1  0  0  0
 63141  1  0  0  0
 64142  1  0  0  0
 65143  1  0  0  0
 68 81  1  0  0  0
 71 73  2  0  0  0
 71 75  1  0  0  0
 71144  1  0  0  0
 72 74  2  0  0  0
 72 83  1  0  0  0
 72145  1  0  0  0
 73 74  1  0  0  0
 73 78  1  0  0  0
 74 79  1  0  0  0
 75 82  1  0  0  0
 75 83  2  0  0  0
 76 80  1  0  0  0
 76146  1  0  0  0
 76147  1  0  0  0
 76148  1  0  0  0
 77149  1  0  0  0
 77150  1  0  0  0
 77151  1  0  0  0
 77 82  1  0  0  0
 78 80  1  0  0  0
 78152  1  0  0  0
 78153  1  0  0  0
 79 84  1  0  0  0
 79154  1  0  0  0
 79155  1  0  0  0
 80156  1  0  0  0
 80157  1  0  0  0
 81 82  1  0  0  0
 81158  1  0  0  0
 81159  1  0  0  0
 82160  1  0  0  0
 84161  1  0  0  0
M  ISO  4   1 100  68 101  81 101  84 100
M  END
> <chiral flag>
0

> <version>
0

> <s_m_source_file>
/data/baiqing/PycharmProjects/Reinvent-master-3.2/result/LINK_invent/BTK/process_docking_weight1_custom_sum_contain_oxygen_bond_distance_aromatic_linkinvent_7_9_3/rearranged_h_0039.sdf

> <i_m_source_file_index>
89

> <r_mmod_Potential_Energy-OPLS-2005>
326.815612792969

> <r_mmod_Stretch_Energy-OPLS-2005>
213.922119140625

> <r_mmod_Bend_Energy-OPLS-2005>
290.724273681641

> <r_mmod_Torsional_Energy-OPLS-2005>
224.152679443359

> <r_mmod_Improper_Torsional_Energy-OPLS-2005>
6.17572832107544

> <r_mmod_Van_der_Waal_Energy-OPLS-2005>
133.063003540039

> <r_mmod_Electrostatic_Energy-OPLS-2005>
-474.9404296875

> <r_mmod_Solvation_Energy-OPLS-2005>
-216.299606323242

> <b_mmod_Minimization_Converged-OPLS-2005>
0

> <r_mmod_RMS_Derivative-OPLS-2005>
1.13779902458191

$$$$
90
                    3D
 Structure written by MMmdl.
159167  0  0  1  0            999 V2000
  -30.7492  -14.3916   20.6483 C   0  0  0  0  0  0
  -30.4152  -12.2868   19.4034 C   0  0  0  0  0  0
  -29.4852  -12.5167   18.1961 C   0  0  0  0  0  0
  -28.0095  -12.3740   18.6104 C   0  0  0  0  0  0
  -27.6654  -13.2008   19.8775 C   0  0  2  0  0  0
  -28.7034  -12.9524   20.9950 C   0  0  0  0  0  0
  -25.2601  -13.8152   20.5685 C   0  0  0  0  0  0
  -24.1841  -13.0443   20.9172 C   0  0  0  0  0  0
  -24.6372  -11.6901   20.8720 C   0  0  0  0  0  0
  -23.9037  -10.4286   21.0401 C   0  0  0  0  0  0
  -24.3592   -9.4209   21.9182 C   0  0  0  0  0  0
  -23.6284   -8.2234   22.0747 C   0  0  0  0  0  0
  -22.4269   -8.0270   21.3539 C   0  0  0  0  0  0
  -21.9893   -9.0242   20.4652 C   0  0  0  0  0  0
  -22.7208  -10.2130   20.3059 C   0  0  0  0  0  0
  -21.6850   -6.0741   22.5284 C   0  0  0  0  0  0
  -21.4017   -6.5640   23.8225 C   0  0  0  0  0  0
  -21.3652   -5.6790   24.9184 C   0  0  0  0  0  0
  -21.6038   -4.3050   24.7235 C   0  0  0  0  0  0
  -21.8811   -3.8151   23.4351 C   0  0  0  0  0  0
  -21.9193   -4.6967   22.3413 C   0  0  0  0  0  0
  -22.7867  -13.5264   21.1839 C   0  0  0  0  0  0
  -22.1667   -4.2156   21.0989 F   0  0  0  0  0  0
  -21.5625   -3.4527   25.7740 F   0  0  0  0  0  0
  -30.0446  -13.2458   20.4549 N   0  0  0  0  0  0
  -26.3033  -12.9314   20.3362 N   0  0  0  0  0  0
  -25.9299  -11.6477   20.5746 N   0  0  0  0  0  0
  -22.0495  -12.8264   22.0394 N   0  0  0  0  0  0
  -25.4351  -15.1870   20.4123 N   0  0  0  0  0  0
  -31.8017  -14.6486   20.0557 O   0  0  0  0  0  0
  -21.6635   -6.8866   21.4243 O   0  0  0  0  0  0
  -22.3567  -14.5575   20.6689 O   0  0  0  0  0  0
  -24.6103  -31.8705   23.2134 C   0  0  0  0  0  0
  -25.9011  -32.4834   23.8417 C   0  0  1  0  0  0
  -27.2302  -27.4642   20.0870 C   0  0  0  0  0  0
  -25.5885  -33.8635   24.2341 N   0  0  0  0  0  0
  -23.3974  -30.4953   21.5526 C   0  0  2  0  0  0
  -24.8460  -28.9674   20.1108 C   0  0  0  0  0  0
  -22.7392  -29.4674   22.4995 C   0  0  0  0  0  0
  -18.0274  -28.1375   22.8500 C   0  0  0  0  0  0
  -24.1489  -36.7318   23.2637 C   0  0  0  0  0  0
  -25.9235  -30.8435   21.3655 C   0  0  0  0  0  0
  -26.0027  -29.4801   20.7146 C   0  0  0  0  0  0
  -27.1981  -28.7304   20.7106 C   0  0  0  0  0  0
  -26.0694  -26.9728   19.4560 C   0  0  0  0  0  0
  -24.8722  -27.7105   19.4813 C   0  0  0  0  0  0
  -23.6061  -29.8290   20.1660 C   0  0  0  0  0  0
  -25.4108  -36.3113   24.0340 C   0  0  1  0  0  0
  -20.5855  -28.3663   23.1319 C   0  0  2  0  0  0
  -20.6759  -26.9399   22.5418 C   0  0  0  0  0  0
  -19.5739  -26.6390   21.5207 C   0  0  0  0  0  0
  -18.1920  -26.7925   22.1623 C   0  0  0  0  0  0
  -19.1518  -28.8839   23.2913 C   0  0  0  0  0  0
  -18.9444  -30.1441   23.8927 C   0  0  0  0  0  0
  -17.6444  -30.6582   24.0569 C   0  0  0  0  0  0
  -25.9034  -34.9477   23.5134 C   0  0  0  0  0  0
  -16.5338  -29.9083   23.6326 C   0  0  0  0  0  0
  -16.7262  -28.6499   23.0356 C   0  0  0  0  0  0
  -26.4461  -31.6601   25.0724 C   0  0  0  0  0  0
  -25.3740  -31.3697   26.1479 C   0  0  0  0  0  0
  -27.0280  -30.3046   24.6071 C   0  0  0  0  0  0
  -27.6047  -32.4311   25.7483 C   0  0  0  0  0  0
  -27.5583  -37.1813   24.8464 C   0  0  0  0  0  0
  -21.4124  -29.3033   22.3727 N   0  0  0  0  0  0
  -26.4290  -37.3797   23.9417 N   0  0  0  0  0  0
  -24.6616  -31.0828   22.1026 N   0  0  0  0  0  0
  -23.4174  -28.8207   23.3021 O   0  0  0  0  0  0
  -28.3725  -26.7031   20.0837 O   0  0  0  0  0  0
  -26.5583  -34.8910   22.4684 O   0  0  0  0  0  0
  -23.5304  -32.1457   23.7546 O   0  0  0  0  0  0
  -28.2870  -20.8136   22.5727 C   0  0  0  0  0  0
  -26.9242  -19.1316   22.3657 C   0  0  0  0  0  0
  -27.0052  -21.2831   22.3732 C   0  0  0  0  0  0
  -26.4480  -22.6829   22.3585 C   0  0  0  0  0  0
  -27.4728  -23.8375   22.4487 C   0  0  0  0  0  0
  -27.7235  -24.5477   21.1052 C   0  0  0  0  0  0
  -29.6898  -17.6906   21.5749 C   0  0  0  0  0  0
  -29.2852  -18.4770   22.8344 C   0  0  0  0  0  0
  -30.7249  -16.5814   21.8676 C   0  0  0  0  0  0
  -28.5042  -25.8751   21.2418 C   0  0  0  0  0  0
  -26.1421  -20.1967   22.2304 N   0  0  0  0  0  0
  -28.2120  -19.4240   22.5846 N   0  0  0  0  0  0
  -30.2104  -15.2544   21.5203 N   0  0  0  0  0  0
  -31.4604  -12.3808   19.1015 H   0  0  0  0  0  0
  -30.3071  -11.2690   19.7810 H   0  0  0  0  0  0
  -29.7186  -11.8090   17.3985 H   0  0  0  0  0  0
  -29.6562  -13.5122   17.7824 H   0  0  0  0  0  0
  -27.8181  -11.3159   18.7952 H   0  0  0  0  0  0
  -27.3556  -12.6616   17.7867 H   0  0  0  0  0  0
  -27.7220  -14.2532   19.5978 H   0  0  0  0  0  0
  -28.6662  -11.9105   21.3198 H   0  0  0  0  0  0
  -28.4523  -13.5347   21.8812 H   0  0  0  0  0  0
  -25.2735   -9.5688   22.4762 H   0  0  0  0  0  0
  -23.9997   -7.4624   22.7460 H   0  0  0  0  0  0
  -21.0828   -8.8764   19.8965 H   0  0  0  0  0  0
  -22.3672  -10.9667   19.6166 H   0  0  0  0  0  0
  -21.2013   -7.6150   23.9733 H   0  0  0  0  0  0
  -21.1486   -6.0518   25.9086 H   0  0  0  0  0  0
  -22.0598   -2.7616   23.2856 H   0  0  0  0  0  0
  -22.4103  -11.9898   22.4732 H   0  0  0  0  0  0
  -21.1119  -13.1310   22.2617 H   0  0  0  0  0  0
  -24.6651  -15.8399   20.5100 H   0  0  0  0  0  0
  -26.2862  -15.6220   20.0784 H   0  0  0  0  0  0
  -26.7083  -32.5592   23.1197 H   0  0  0  0  0  0
  -25.0040  -33.9807   25.0488 H   0  0  0  0  0  0
  -22.6842  -31.3115   21.4162 H   0  0  0  0  0  0
  -23.3734  -35.9669   23.3308 H   0  0  0  0  0  0
  -24.3569  -36.8923   22.2045 H   0  0  0  0  0  0
  -23.7259  -37.6539   23.6635 H   0  0  0  0  0  0
  -26.0303  -31.6122   20.5988 H   0  0  0  0  0  0
  -26.8129  -30.8978   21.9826 H   0  0  0  0  0  0
  -28.0891  -29.1167   21.1842 H   0  0  0  0  0  0
  -26.0882  -26.0191   18.9483 H   0  0  0  0  0  0
  -23.9860  -27.3155   19.0050 H   0  0  0  0  0  0
  -23.7082  -30.6047   19.4054 H   0  0  0  0  0  0
  -22.7329  -29.2448   19.8718 H   0  0  0  0  0  0
  -25.1286  -36.1984   25.0836 H   0  0  0  0  0  0
  -20.9964  -28.3222   24.1430 H   0  0  0  0  0  0
  -20.5654  -26.2265   23.3602 H   0  0  0  0  0  0
  -21.6631  -26.7447   22.1207 H   0  0  0  0  0  0
  -19.6891  -25.6309   21.1226 H   0  0  0  0  0  0
  -19.6666  -27.3209   20.6737 H   0  0  0  0  0  0
  -17.4187  -26.6685   21.4025 H   0  0  0  0  0  0
  -18.0319  -26.0057   22.9011 H   0  0  0  0  0  0
  -19.7922  -30.7253   24.2303 H   0  0  0  0  0  0
  -17.5003  -31.6268   24.5161 H   0  0  0  0  0  0
  -15.5343  -30.2995   23.7627 H   0  0  0  0  0  0
  -15.8663  -28.0822   22.7055 H   0  0  0  0  0  0
  -24.5908  -30.7048   25.7814 H   0  0  0  0  0  0
  -24.8934  -32.2852   26.4945 H   0  0  0  0  0  0
  -25.8104  -30.8859   27.0228 H   0  0  0  0  0  0
  -26.2808  -29.6827   24.1118 H   0  0  0  0  0  0
  -27.4055  -29.7260   25.4514 H   0  0  0  0  0  0
  -27.8650  -30.4365   23.9199 H   0  0  0  0  0  0
  -27.2661  -33.3594   26.2100 H   0  0  0  0  0  0
  -28.3830  -32.6904   25.0288 H   0  0  0  0  0  0
  -28.0736  -31.8410   26.5371 H   0  0  0  0  0  0
  -28.2607  -38.0103   24.7498 H   0  0  0  0  0  0
  -28.1067  -36.2631   24.6304 H   0  0  0  0  0  0
  -27.2288  -37.1489   25.8863 H   0  0  0  0  0  0
  -20.9266  -29.8756   21.6966 H   0  0  0  0  0  0
  -26.0180  -38.2882   24.1407 H   0  0  0  0  0  0
  -29.2186  -21.3379   22.7383 H   0  0  0  0  0  0
  -26.5547  -18.1158   22.3248 H   0  0  0  0  0  0
  -25.7652  -22.7788   23.2037 H   0  0  0  0  0  0
  -25.8113  -22.8147   21.4832 H   0  0  0  0  0  0
  -28.4030  -23.5309   22.9256 H   0  0  0  0  0  0
  -27.0420  -24.5820   23.1216 H   0  0  0  0  0  0
  -26.7489  -24.7442   20.6650 H   0  0  0  0  0  0
  -28.2381  -23.8810   20.4129 H   0  0  0  0  0  0
  -30.1069  -18.3887   20.8457 H   0  0  0  0  0  0
  -28.8008  -17.2677   21.1032 H   0  0  0  0  0  0
  -30.1430  -19.0112   23.2460 H   0  0  0  0  0  0
  -28.9427  -17.7877   23.6077 H   0  0  0  0  0  0
  -30.9977  -16.5705   22.9235 H   0  0  0  0  0  0
  -31.6490  -16.8040   21.3298 H   0  0  0  0  0  0
  -29.5632  -25.6612   21.3973 H   0  0  0  0  0  0
  -28.1743  -26.4219   22.1280 H   0  0  0  0  0  0
  -29.3586  -14.9543   21.9716 H   0  0  0  0  0  0
  1 25  1  0  0  0
  1 30  2  0  0  0
  1 83  1  0  0  0
  2  3  1  0  0  0
  2 25  1  0  0  0
  2 84  1  0  0  0
  2 85  1  0  0  0
  3  4  1  0  0  0
  3 86  1  0  0  0
  3 87  1  0  0  0
  4  5  1  0  0  0
  4 88  1  0  0  0
  4 89  1  0  0  0
  5  6  1  0  0  0
  5 26  1  0  0  0
  5 90  1  0  0  0
  6 25  1  0  0  0
  6 91  1  0  0  0
  6 92  1  0  0  0
  7  8  2  0  0  0
  7 26  1  0  0  0
  7 29  1  0  0  0
  8  9  1  0  0  0
  8 22  1  0  0  0
  9 10  1  0  0  0
  9 27  2  0  0  0
 10 11  2  0  0  0
 10 15  1  0  0  0
 11 12  1  0  0  0
 11 93  1  0  0  0
 12 13  2  0  0  0
 12 94  1  0  0  0
 13 14  1  0  0  0
 13 31  1  0  0  0
 14 15  2  0  0  0
 14 95  1  0  0  0
 15 96  1  0  0  0
 16 17  2  0  0  0
 16 21  1  0  0  0
 16 31  1  0  0  0
 17 18  1  0  0  0
 17 97  1  0  0  0
 18 19  2  0  0  0
 18 98  1  0  0  0
 19 20  1  0  0  0
 19 24  1  0  0  0
 20 21  2  0  0  0
 20 99  1  0  0  0
 21 23  1  0  0  0
 22 28  1  0  0  0
 22 32  2  0  0  0
 26 27  1  0  0  0
 28100  1  0  0  0
 28101  1  0  0  0
 29102  1  0  0  0
 29103  1  0  0  0
 33 34  1  0  0  0
 33 66  1  0  0  0
 33 70  2  0  0  0
 34 36  1  0  0  0
 34 59  1  0  0  0
 34104  1  0  0  0
 35 44  2  0  0  0
 35 45  1  0  0  0
 35 68  1  0  0  0
 36 56  1  0  0  0
 36105  1  0  0  0
 37 39  1  0  0  0
 37 47  1  0  0  0
 37 66  1  0  0  0
 37106  1  0  0  0
 38 43  2  0  0  0
 38 46  1  0  0  0
 38 47  1  0  0  0
 39 64  1  0  0  0
 39 67  2  0  0  0
 40 52  1  0  0  0
 40 53  2  0  0  0
 40 58  1  0  0  0
 41107  1  0  0  0
 41108  1  0  0  0
 41109  1  0  0  0
 41 48  1  0  0  0
 42 43  1  0  0  0
 42 66  1  0  0  0
 42110  1  0  0  0
 42111  1  0  0  0
 43 44  1  0  0  0
 44112  1  0  0  0
 45 46  2  0  0  0
 45113  1  0  0  0
 46114  1  0  0  0
 47115  1  0  0  0
 47116  1  0  0  0
 48 56  1  0  0  0
 48 65  1  0  0  0
 48117  1  0  0  0
 49 50  1  0  0  0
 49 53  1  0  0  0
 49 64  1  0  0  0
 49118  1  0  0  0
 50 51  1  0  0  0
 50119  1  0  0  0
 50120  1  0  0  0
 51 52  1  0  0  0
 51121  1  0  0  0
 51122  1  0  0  0
 52123  1  0  0  0
 52124  1  0  0  0
 53 54  1  0  0  0
 54 55  2  0  0  0
 54125  1  0  0  0
 55 57  1  0  0  0
 55126  1  0  0  0
 56 69  2  0  0  0
 57 58  2  0  0  0
 57127  1  0  0  0
 58128  1  0  0  0
 59 60  1  0  0  0
 59 61  1  0  0  0
 59 62  1  0  0  0
 60129  1  0  0  0
 60130  1  0  0  0
 60131  1  0  0  0
 61132  1  0  0  0
 61133  1  0  0  0
 61134  1  0  0  0
 62135  1  0  0  0
 62136  1  0  0  0
 62137  1  0  0  0
 63 65  1  0  0  0
 63138  1  0  0  0
 63139  1  0  0  0
 63140  1  0  0  0
 64141  1  0  0  0
 65142  1  0  0  0
 68 80  1  0  0  0
 71 73  2  0  0  0
 71 82  1  0  0  0
 71143  1  0  0  0
 72 81  2  0  0  0
 72 82  1  0  0  0
 72144  1  0  0  0
 73 74  1  0  0  0
 73 81  1  0  0  0
 74 75  1  0  0  0
 74145  1  0  0  0
 74146  1  0  0  0
 75 76  1  0  0  0
 75147  1  0  0  0
 75148  1  0  0  0
 76 80  1  0  0  0
 76149  1  0  0  0
 76150  1  0  0  0
 77 78  1  0  0  0
 77 79  1  0  0  0
 77151  1  0  0  0
 77152  1  0  0  0
 78 82  1  0  0  0
 78153  1  0  0  0
 78154  1  0  0  0
 79 83  1  0  0  0
 79155  1  0  0  0
 79156  1  0  0  0
 80157  1  0  0  0
 80158  1  0  0  0
 83159  1  0  0  0
M  ISO  4   1 100  68 101  80 101  83 100
M  END
> <chiral flag>
0

> <version>
0

> <s_m_source_file>
/data/baiqing/PycharmProjects/Reinvent-master-3.2/result/LINK_invent/BTK/process_docking_weight1_custom_sum_contain_oxygen_bond_distance_aromatic_linkinvent_7_9_3/rearranged_h_0039.sdf

> <i_m_source_file_index>
90

> <r_mmod_Potential_Energy-OPLS-2005>
-77.6607360839844

> <r_mmod_Stretch_Energy-OPLS-2005>
31.3680839538574

> <r_mmod_Bend_Energy-OPLS-2005>
96.6291656494141

> <r_mmod_Torsional_Energy-OPLS-2005>
252.985885620117

> <r_mmod_Improper_Torsional_Energy-OPLS-2005>
2.02829504013062

> <r_mmod_Van_der_Waal_Energy-OPLS-2005>
130.394790649414

> <r_mmod_Electrostatic_Energy-OPLS-2005>
-371.529998779297

> <r_mmod_Solvation_Energy-OPLS-2005>
-227.302993774414

> <b_mmod_Minimization_Converged-OPLS-2005>
0

> <r_mmod_RMS_Derivative-OPLS-2005>
2.10941624641418

$$$$
