0
                    3D
 Structure written by MMmdl.
161169  0  0  1  0            999 V2000
  -30.9453  -15.5774   19.1002 C   0  0  0  0  0  0
  -30.7586  -12.4135   21.0754 C   0  0  0  0  0  0
  -29.4838  -11.1493   20.3916 C   0  0  0  0  0  0
  -28.0791  -11.5879   19.3558 C   0  0  0  0  0  0
  -27.4039  -13.2101   19.2491 C   0  0  2  0  0  0
  -28.3727  -14.8360   19.2655 C   0  0  0  0  0  0
  -25.1630  -13.9098   20.4841 C   0  0  0  0  0  0
  -24.1186  -13.1263   20.9263 C   0  0  0  0  0  0
  -24.5456  -11.7744   20.8698 C   0  0  0  0  0  0
  -23.8604  -10.4812   21.0525 C   0  0  0  0  0  0
  -24.3463   -9.4706   21.9156 C   0  0  0  0  0  0
  -23.6368   -8.2562   22.0712 C   0  0  0  0  0  0
  -22.4336   -8.0410   21.3556 C   0  0  0  0  0  0
  -21.9821   -9.0318   20.4658 C   0  0  0  0  0  0
  -22.6897  -10.2351   20.3121 C   0  0  0  0  0  0
  -21.6962   -6.0784   22.5294 C   0  0  0  0  0  0
  -21.4086   -6.5684   23.8217 C   0  0  0  0  0  0
  -21.3681   -5.6823   24.9166 C   0  0  0  0  0  0
  -21.6037   -4.3078   24.7212 C   0  0  0  0  0  0
  -21.8809   -3.8179   23.4328 C   0  0  0  0  0  0
  -21.9223   -4.7003   22.3400 C   0  0  0  0  0  0
  -22.7319  -13.5843   21.2256 C   0  0  0  0  0  0
  -22.1682   -4.2186   21.0971 F   0  0  0  0  0  0
  -21.5605   -3.4557   25.7712 F   0  0  0  0  0  0
  -30.0518  -15.0255   19.8813 N   0  0  0  0  0  0
  -26.1511  -13.0434   20.0718 N   0  0  0  0  0  0
  -25.7580  -11.7710   20.4176 N   0  0  0  0  0  0
  -22.0180  -12.8577   22.0785 N   0  0  0  0  0  0
  -25.3326  -15.2765   20.3443 N   0  0  0  0  0  0
  -31.7328  -16.3793   19.5439 O   0  0  0  0  0  0
  -21.6829   -6.8914   21.4238 O   0  0  0  0  0  0
  -22.2845  -14.6072   20.7143 O   0  0  0  0  0  0
  -24.6865  -31.7927   23.1489 C   0  0  0  0  0  0
  -25.9406  -32.4444   23.8071 C   0  0  1  0  0  0
  -27.1823  -26.5887   20.3895 C   0  0  0  0  0  0
  -25.5980  -33.8282   24.1933 N   0  0  0  0  0  0
  -23.5192  -30.3891   21.4958 C   0  0  2  0  0  0
  -24.9850  -28.7111   20.1268 C   0  0  0  0  0  0
  -22.7784  -29.4253   22.4622 C   0  0  0  0  0  0
  -18.0330  -28.1440   22.8435 C   0  0  0  0  0  0
  -24.1480  -36.7152   23.2658 C   0  0  0  0  0  0
  -26.0968  -30.5005   21.4311 C   0  0  0  0  0  0
  -26.1571  -29.0500   20.8105 C   0  0  0  0  0  0
  -27.2345  -28.0184   20.9064 C   0  0  0  0  0  0
  -26.0158  -26.4912   19.5788 C   0  0  0  0  0  0
  -24.9668  -27.4643   19.4707 C   0  0  0  0  0  0
  -23.7858  -29.6769   20.1333 C   0  0  0  0  0  0
  -25.4135  -36.2890   24.0284 C   0  0  1  0  0  0
  -20.5978  -28.3799   23.1106 C   0  0  2  0  0  0
  -20.6803  -26.9440   22.5409 C   0  0  0  0  0  0
  -19.5783  -26.6365   21.5216 C   0  0  0  0  0  0
  -18.1955  -26.7964   22.1605 C   0  0  0  0  0  0
  -19.1604  -28.8938   23.2759 C   0  0  0  0  0  0
  -18.9514  -30.1519   23.8812 C   0  0  0  0  0  0
  -17.6508  -30.6621   24.0545 C   0  0  0  0  0  0
  -25.9111  -34.9275   23.4944 C   0  0  0  0  0  0
  -16.5391  -29.9104   23.6357 C   0  0  0  0  0  0
  -16.7311  -28.6532   23.0357 C   0  0  0  0  0  0
  -26.4591  -31.6527   25.0722 C   0  0  0  0  0  0
  -25.3654  -31.3883   26.1340 C   0  0  0  0  0  0
  -27.0541  -30.2859   24.6679 C   0  0  0  0  0  0
  -27.6026  -32.4420   25.7550 C   0  0  0  0  0  0
  -27.5557  -37.1737   24.8471 C   0  0  0  0  0  0
  -21.4423  -29.3020   22.3389 N   0  0  0  0  0  0
  -26.4260  -37.3657   23.9415 N   0  0  0  0  0  0
  -24.7908  -30.9314   22.0779 N   0  0  0  0  0  0
  -23.4193  -28.7837   23.2972 O   0  0  0  0  0  0
  -28.0869  -25.3309   20.6904 O   0  0  0  0  0  0
  -26.5762  -34.8858   22.4566 O   0  0  0  0  0  0
  -23.5863  -32.1037   23.6371 O   0  0  0  0  0  0
  -29.9760  -13.0241   19.1380 C   0  0  0  0  0  0
  -31.4376  -14.6736   21.8452 C   0  0  0  0  0  0
  -28.9480  -13.6024   21.1469 C   0  0  0  0  0  0
  -29.8230  -14.7757   22.1228 C   0  0  0  0  0  0
  -31.5912  -13.5724   19.2198 C   0  0  0  0  0  0
  -27.9748  -12.9252   22.1389 C   0  0  0  0  0  0
  -29.3227  -20.3298   23.0024 C   0  0  0  0  0  0
  -29.4307  -16.6615   22.2856 C   0  0  0  0  0  0
  -28.8850  -18.3425   21.3496 C   0  0  0  0  0  0
  -28.0516  -21.6309   21.1218 C   0  0  0  0  0  0
  -28.1981  -23.5285   20.4735 C   0  0  0  0  0  0
  -32.2618  -14.1261   20.5975 N   0  0  0  0  0  0
  -31.5038  -14.6301   18.3522 N   0  0  0  0  0  0
  -28.9832  -20.1419   21.5779 N   0  3  1  0  0  0
  -31.7135  -11.8973   20.8934 H   0  0  0  0  0  0
  -30.7269  -12.3407   22.1723 H   0  0  0  0  0  0
  -29.1311  -10.5442   21.2264 H   0  0  0  0  0  0
  -30.0547  -10.4138   19.8238 H   0  0  0  0  0  0
  -27.4212  -10.7217   19.3831 H   0  0  0  0  0  0
  -28.3410  -11.3293   18.3289 H   0  0  0  0  0  0
  -26.9910  -13.2359   18.2398 H   0  0  0  0  0  0
  -27.7909  -15.6054   19.7675 H   0  0  0  0  0  0
  -28.4039  -15.1781   18.2292 H   0  0  0  0  0  0
  -25.2622   -9.6345   22.4651 H   0  0  0  0  0  0
  -24.0266   -7.4979   22.7350 H   0  0  0  0  0  0
  -21.0802   -8.8663   19.8926 H   0  0  0  0  0  0
  -22.3206  -10.9825   19.6244 H   0  0  0  0  0  0
  -21.2124   -7.6203   23.9735 H   0  0  0  0  0  0
  -21.1500   -6.0548   25.9067 H   0  0  0  0  0  0
  -22.0555   -2.7641   23.2804 H   0  0  0  0  0  0
  -22.3972  -12.0251   22.5032 H   0  0  0  0  0  0
  -21.0777  -13.1376   22.3172 H   0  0  0  0  0  0
  -24.5922  -15.9383   20.5470 H   0  0  0  0  0  0
  -26.1253  -15.6959   19.8789 H   0  0  0  0  0  0
  -26.7505  -32.4905   23.0806 H   0  0  0  0  0  0
  -25.0068  -33.9359   25.0036 H   0  0  0  0  0  0
  -22.8458  -31.2271   21.2958 H   0  0  0  0  0  0
  -23.3764  -35.9460   23.3272 H   0  0  0  0  0  0
  -24.3532  -36.8860   22.2082 H   0  0  0  0  0  0
  -23.7211  -37.6303   23.6766 H   0  0  0  0  0  0
  -26.2995  -31.2050   20.6241 H   0  0  0  0  0  0
  -26.9497  -30.5862   22.0919 H   0  0  0  0  0  0
  -28.0949  -28.2810   21.5061 H   0  0  0  0  0  0
  -25.8452  -25.5472   19.0784 H   0  0  0  0  0  0
  -24.0922  -27.2004   18.8920 H   0  0  0  0  0  0
  -23.9740  -30.4330   19.3708 H   0  0  0  0  0  0
  -22.8914  -29.1502   19.7978 H   0  0  0  0  0  0
  -25.1338  -36.1668   25.0778 H   0  0  0  0  0  0
  -21.0081  -28.3465   24.1224 H   0  0  0  0  0  0
  -20.5649  -26.2423   23.3681 H   0  0  0  0  0  0
  -21.6658  -26.7360   22.1222 H   0  0  0  0  0  0
  -19.6938  -25.6245   21.1310 H   0  0  0  0  0  0
  -19.6757  -27.3113   20.6697 H   0  0  0  0  0  0
  -17.4228  -26.6681   21.4013 H   0  0  0  0  0  0
  -18.0351  -26.0143   22.9041 H   0  0  0  0  0  0
  -19.7983  -30.7357   24.2149 H   0  0  0  0  0  0
  -17.5050  -31.6288   24.5168 H   0  0  0  0  0  0
  -15.5385  -30.2980   23.7744 H   0  0  0  0  0  0
  -15.8704  -28.0835   22.7124 H   0  0  0  0  0  0
  -24.5835  -30.7241   25.7657 H   0  0  0  0  0  0
  -24.8872  -32.3129   26.4581 H   0  0  0  0  0  0
  -25.7828  -30.9172   27.0245 H   0  0  0  0  0  0
  -26.3264  -29.6443   24.1712 H   0  0  0  0  0  0
  -27.3967  -29.7383   25.5467 H   0  0  0  0  0  0
  -27.9245  -30.3965   24.0219 H   0  0  0  0  0  0
  -27.2528  -33.3772   26.1937 H   0  0  0  0  0  0
  -28.3940  -32.6910   25.0473 H   0  0  0  0  0  0
  -28.0581  -31.8700   26.5645 H   0  0  0  0  0  0
  -28.2549  -38.0055   24.7502 H   0  0  0  0  0  0
  -28.1079  -36.2578   24.6308 H   0  0  0  0  0  0
  -27.2282  -37.1383   25.8876 H   0  0  0  0  0  0
  -20.9732  -29.8715   21.6480 H   0  0  0  0  0  0
  -26.0091  -38.2711   24.1416 H   0  0  0  0  0  0
  -29.6064  -12.7934   18.1480 H   0  0  0  0  0  0
  -32.0575  -15.3387   22.4280 H   0  0  0  0  0  0
  -27.6448  -11.9185   21.9237 H   0  0  0  0  0  0
  -27.1226  -13.5653   22.3568 H   0  0  0  0  0  0
  -28.4940  -12.8236   23.0916 H   0  0  0  0  0  0
  -30.1274  -19.6607   23.3097 H   0  0  0  0  0  0
  -28.4502  -20.1204   23.6229 H   0  0  0  0  0  0
  -29.6433  -21.3532   23.2004 H   0  0  0  0  0  0
  -30.3591  -16.9963   22.7484 H   0  0  0  0  0  0
  -28.7435  -16.6460   23.1303 H   0  0  0  0  0  0
  -27.8300  -18.1830   21.1367 H   0  0  0  0  0  0
  -29.3560  -18.2363   20.3723 H   0  0  0  0  0  0
  -27.5296  -21.2003   20.2673 H   0  0  0  0  0  0
  -27.2659  -21.6779   21.8753 H   0  0  0  0  0  0
  -29.1000  -23.4753   19.8637 H   0  0  0  0  0  0
  -27.4051  -23.4810   19.7280 H   0  0  0  0  0  0
  -32.3430  -14.8870   17.8575 H   0  0  0  0  0  0
  -29.8584  -20.3228   21.1059 H   0  0  0  0  0  0
  1 25  1  0  0  0
  1 30  2  0  0  0
  1 83  1  0  0  0
  2  3  1  0  0  0
  2 25  1  0  0  0
  2 85  1  0  0  0
  2 86  1  0  0  0
  3  4  1  0  0  0
  3 87  1  0  0  0
  3 88  1  0  0  0
  4  5  1  0  0  0
  4 89  1  0  0  0
  4 90  1  0  0  0
  5  6  1  0  0  0
  5 26  1  0  0  0
  5 91  1  0  0  0
  6 25  1  0  0  0
  6 92  1  0  0  0
  6 93  1  0  0  0
  7  8  2  0  0  0
  7 26  1  0  0  0
  7 29  1  0  0  0
  8  9  1  0  0  0
  8 22  1  0  0  0
  9 10  1  0  0  0
  9 27  2  0  0  0
 10 11  2  0  0  0
 10 15  1  0  0  0
 11 12  1  0  0  0
 11 94  1  0  0  0
 12 13  2  0  0  0
 12 95  1  0  0  0
 13 14  1  0  0  0
 13 31  1  0  0  0
 14 15  2  0  0  0
 14 96  1  0  0  0
 15 97  1  0  0  0
 16 17  2  0  0  0
 16 21  1  0  0  0
 16 31  1  0  0  0
 17 18  1  0  0  0
 17 98  1  0  0  0
 18 19  2  0  0  0
 18 99  1  0  0  0
 19 20  1  0  0  0
 19 24  1  0  0  0
 20 21  2  0  0  0
 20100  1  0  0  0
 21 23  1  0  0  0
 22 28  1  0  0  0
 22 32  2  0  0  0
 26 27  1  0  0  0
 28101  1  0  0  0
 28102  1  0  0  0
 29103  1  0  0  0
 29104  1  0  0  0
 33 34  1  0  0  0
 33 66  1  0  0  0
 33 70  2  0  0  0
 34 36  1  0  0  0
 34 59  1  0  0  0
 34105  1  0  0  0
 35 44  2  0  0  0
 35 45  1  0  0  0
 35 68  1  0  0  0
 36 56  1  0  0  0
 36106  1  0  0  0
 37 39  1  0  0  0
 37 47  1  0  0  0
 37 66  1  0  0  0
 37107  1  0  0  0
 38 43  2  0  0  0
 38 46  1  0  0  0
 38 47  1  0  0  0
 39 64  1  0  0  0
 39 67  2  0  0  0
 40 52  1  0  0  0
 40 53  2  0  0  0
 40 58  1  0  0  0
 41108  1  0  0  0
 41109  1  0  0  0
 41110  1  0  0  0
 41 48  1  0  0  0
 42 43  1  0  0  0
 42 66  1  0  0  0
 42111  1  0  0  0
 42112  1  0  0  0
 43 44  1  0  0  0
 44113  1  0  0  0
 45 46  2  0  0  0
 45114  1  0  0  0
 46115  1  0  0  0
 47116  1  0  0  0
 47117  1  0  0  0
 48 56  1  0  0  0
 48 65  1  0  0  0
 48118  1  0  0  0
 49 50  1  0  0  0
 49 53  1  0  0  0
 49 64  1  0  0  0
 49119  1  0  0  0
 50 51  1  0  0  0
 50120  1  0  0  0
 50121  1  0  0  0
 51 52  1  0  0  0
 51122  1  0  0  0
 51123  1  0  0  0
 52124  1  0  0  0
 52125  1  0  0  0
 53 54  1  0  0  0
 54 55  2  0  0  0
 54126  1  0  0  0
 55 57  1  0  0  0
 55127  1  0  0  0
 56 69  2  0  0  0
 57 58  2  0  0  0
 57128  1  0  0  0
 58129  1  0  0  0
 59 60  1  0  0  0
 59 61  1  0  0  0
 59 62  1  0  0  0
 60130  1  0  0  0
 60131  1  0  0  0
 60132  1  0  0  0
 61133  1  0  0  0
 61134  1  0  0  0
 61135  1  0  0  0
 62136  1  0  0  0
 62137  1  0  0  0
 62138  1  0  0  0
 63 65  1  0  0  0
 63139  1  0  0  0
 63140  1  0  0  0
 63141  1  0  0  0
 64142  1  0  0  0
 65143  1  0  0  0
 68 81  1  0  0  0
 71 73  2  0  0  0
 71 75  1  0  0  0
 71144  1  0  0  0
 72 74  2  0  0  0
 72 82  1  0  0  0
 72145  1  0  0  0
 73 74  1  0  0  0
 73 76  1  0  0  0
 74 78  1  0  0  0
 75 82  2  0  0  0
 75 83  1  0  0  0
 76146  1  0  0  0
 76147  1  0  0  0
 76148  1  0  0  0
 77149  1  0  0  0
 77150  1  0  0  0
 77151  1  0  0  0
 77 84  1  0  0  0
 78 79  1  0  0  0
 78152  1  0  0  0
 78153  1  0  0  0
 79 84  1  0  0  0
 79154  1  0  0  0
 79155  1  0  0  0
 80 81  1  0  0  0
 80 84  1  0  0  0
 80156  1  0  0  0
 80157  1  0  0  0
 81158  1  0  0  0
 81159  1  0  0  0
 83160  1  0  0  0
 84161  1  0  0  0
M  CHG  1  84   1
M  ISO  4   1 100  68 101  81 101  83 100
M  END
> <chiral flag>
0

> <version>
0

> <s_m_source_file>
/data/baiqing/PycharmProjects/Reinvent-master-3.2/result/LINK_invent/BTK/process_docking_weight1_custom_sum_contain_oxygen_bond_distance_aromatic_linkinvent_7_9_3/rearranged_h_0131.sdf

> <i_m_source_file_index>
1

> <r_mmod_Potential_Energy-OPLS-2005>
15866.998046875

> <r_mmod_Stretch_Energy-OPLS-2005>
7920.58203125

> <r_mmod_Bend_Energy-OPLS-2005>
1181.45373535156

> <r_mmod_Torsional_Energy-OPLS-2005>
636.54248046875

> <r_mmod_Improper_Torsional_Energy-OPLS-2005>
101.321113586426

> <r_mmod_Van_der_Waal_Energy-OPLS-2005>
3354.21142578125

> <r_mmod_Electrostatic_Energy-OPLS-2005>
-339.481048583984

> <r_mmod_Solvation_Energy-OPLS-2005>
-425.710327148438

> <b_mmod_Minimization_Converged-OPLS-2005>
0

> <r_mmod_RMS_Derivative-OPLS-2005>
6.06220388412476

$$$$
1
                    3D
 Structure written by MMmdl.
156164  0  0  1  0            999 V2000
  -30.5901  -14.8248   20.4381 C   0  0  0  0  0  0
  -30.4367  -12.5037   19.4899 C   0  0  0  0  0  0
  -29.5180  -12.5042   18.2472 C   0  0  0  0  0  0
  -28.0479  -12.3103   18.6638 C   0  0  0  0  0  0
  -27.6374  -13.2358   19.8407 C   0  0  2  0  0  0
  -28.6793  -13.2147   20.9803 C   0  0  0  0  0  0
  -25.2509  -13.8207   20.5684 C   0  0  0  0  0  0
  -24.1796  -13.0455   20.9212 C   0  0  0  0  0  0
  -24.6385  -11.6941   20.8742 C   0  0  0  0  0  0
  -23.9058  -10.4313   21.0402 C   0  0  0  0  0  0
  -24.3614   -9.4233   21.9174 C   0  0  0  0  0  0
  -23.6296   -8.2264   22.0749 C   0  0  0  0  0  0
  -22.4272   -8.0294   21.3549 C   0  0  0  0  0  0
  -21.9915   -9.0258   20.4642 C   0  0  0  0  0  0
  -22.7233  -10.2144   20.3048 C   0  0  0  0  0  0
  -21.6856   -6.0750   22.5286 C   0  0  0  0  0  0
  -21.4021   -6.5651   23.8220 C   0  0  0  0  0  0
  -21.3660   -5.6792   24.9175 C   0  0  0  0  0  0
  -21.6039   -4.3055   24.7222 C   0  0  0  0  0  0
  -21.8815   -3.8156   23.4345 C   0  0  0  0  0  0
  -21.9193   -4.6978   22.3404 C   0  0  0  0  0  0
  -22.7816  -13.5255   21.1841 C   0  0  0  0  0  0
  -22.1658   -4.2168   21.0979 F   0  0  0  0  0  0
  -21.5617   -3.4536   25.7733 F   0  0  0  0  0  0
  -29.9729  -13.5878   20.3935 N   0  0  0  0  0  0
  -26.2920  -12.9416   20.3238 N   0  0  0  0  0  0
  -25.9315  -11.6565   20.5737 N   0  0  0  0  0  0
  -22.0425  -12.8269   22.0387 N   0  0  0  0  0  0
  -25.4213  -15.1920   20.4065 N   0  0  0  0  0  0
  -31.7843  -14.9056   20.1369 O   0  0  0  0  0  0
  -21.6639   -6.8891   21.4245 O   0  0  0  0  0  0
  -22.3537  -14.5564   20.6664 O   0  0  0  0  0  0
  -24.6362  -31.8522   23.1957 C   0  0  0  0  0  0
  -25.9160  -32.4752   23.8324 C   0  0  1  0  0  0
  -27.2051  -27.2024   20.1449 C   0  0  0  0  0  0
  -25.5939  -33.8552   24.2243 N   0  0  0  0  0  0
  -23.4353  -30.4735   21.5405 C   0  0  2  0  0  0
  -24.8812  -28.9138   20.1086 C   0  0  0  0  0  0
  -22.7526  -29.4564   22.4884 C   0  0  0  0  0  0
  -18.0288  -28.1380   22.8494 C   0  0  0  0  0  0
  -24.1474  -36.7272   23.2638 C   0  0  0  0  0  0
  -25.9847  -30.7469   21.3835 C   0  0  0  0  0  0
  -26.0536  -29.3631   20.7285 C   0  0  0  0  0  0
  -27.2176  -28.5206   20.7335 C   0  0  0  0  0  0
  -26.0165  -26.8459   19.4724 C   0  0  0  0  0  0
  -24.8721  -27.6673   19.4651 C   0  0  0  0  0  0
  -23.6583  -29.8124   20.1545 C   0  0  0  0  0  0
  -25.4105  -36.3065   24.0323 C   0  0  1  0  0  0
  -20.5898  -28.3695   23.1258 C   0  0  2  0  0  0
  -20.6762  -26.9408   22.5404 C   0  0  0  0  0  0
  -19.5732  -26.6379   21.5206 C   0  0  0  0  0  0
  -18.1921  -26.7924   22.1628 C   0  0  0  0  0  0
  -19.1548  -28.8854   23.2872 C   0  0  0  0  0  0
  -18.9467  -30.1447   23.8900 C   0  0  0  0  0  0
  -17.6469  -30.6587   24.0556 C   0  0  0  0  0  0
  -25.9062  -34.9439   23.5086 C   0  0  0  0  0  0
  -16.5357  -29.9087   23.6323 C   0  0  0  0  0  0
  -16.7277  -28.6494   23.0370 C   0  0  0  0  0  0
  -26.4505  -31.6597   25.0734 C   0  0  0  0  0  0
  -25.3720  -31.3779   26.1455 C   0  0  0  0  0  0
  -27.0345  -30.3007   24.6242 C   0  0  0  0  0  0
  -27.6044  -32.4352   25.7526 C   0  0  0  0  0  0
  -27.5567  -37.1795   24.8469 C   0  0  0  0  0  0
  -21.4230  -29.3040   22.3647 N   0  0  0  0  0  0
  -26.4274  -37.3773   23.9423 N   0  0  0  0  0  0
  -24.7050  -31.0438   22.0962 N   0  0  0  0  0  0
  -23.4206  -28.8099   23.3004 O   0  0  0  0  0  0
  -28.2825  -26.2708   20.2088 O   0  0  0  0  0  0
  -26.5630  -34.8924   22.4657 O   0  0  0  0  0  0
  -23.5493  -32.1360   23.7217 O   0  0  0  0  0  0
  -29.3425  -22.6034   21.3868 C   0  0  0  0  0  0
  -28.6053  -22.3260   19.0457 C   0  0  0  0  0  0
  -28.5230  -23.9766   21.5191 C   0  0  0  0  0  0
  -28.7308  -23.9302   19.0453 C   0  0  0  0  0  0
  -28.8172  -21.5014   20.3870 C   0  0  1  0  0  0
  -28.0742  -24.7488   20.2148 C   0  0  2  0  0  0
  -30.2346  -17.4750   20.3761 C   0  0  0  0  0  0
  -29.1874  -18.7517   20.5262 C   0  0  0  0  0  0
  -29.8284  -15.9899   20.5974 N   0  0  0  0  0  0
  -29.6953  -20.2073   20.2735 N   0  3  0  0  0  0
  -31.4754  -12.6388   19.1856 H   0  0  0  0  0  0
  -30.4011  -11.5405   20.0021 H   0  0  0  0  0  0
  -29.8204  -11.7156   17.5561 H   0  0  0  0  0  0
  -29.6283  -13.4441   17.7035 H   0  0  0  0  0  0
  -27.9292  -11.2670   18.9598 H   0  0  0  0  0  0
  -27.3878  -12.4579   17.8089 H   0  0  0  0  0  0
  -27.6189  -14.2464   19.4318 H   0  0  0  0  0  0
  -28.7336  -12.2282   21.4415 H   0  0  0  0  0  0
  -28.3989  -13.9078   21.7745 H   0  0  0  0  0  0
  -25.2746   -9.5731   22.4759 H   0  0  0  0  0  0
  -24.0002   -7.4674   22.7483 H   0  0  0  0  0  0
  -21.0842   -8.8773   19.8959 H   0  0  0  0  0  0
  -22.3669  -10.9677   19.6166 H   0  0  0  0  0  0
  -21.2018   -7.6158   23.9734 H   0  0  0  0  0  0
  -21.1475   -6.0515   25.9076 H   0  0  0  0  0  0
  -22.0588   -2.7623   23.2825 H   0  0  0  0  0  0
  -22.4022  -11.9984   22.4877 H   0  0  0  0  0  0
  -21.1031  -13.1324   22.2495 H   0  0  0  0  0  0
  -24.6496  -15.8424   20.5032 H   0  0  0  0  0  0
  -26.2513  -15.6194   20.0170 H   0  0  0  0  0  0
  -26.7228  -32.5383   23.1065 H   0  0  0  0  0  0
  -25.0107  -33.9688   25.0396 H   0  0  0  0  0  0
  -22.7341  -31.2971   21.3948 H   0  0  0  0  0  0
  -23.3747  -35.9593   23.3303 H   0  0  0  0  0  0
  -24.3554  -36.8895   22.2051 H   0  0  0  0  0  0
  -23.7212  -37.6465   23.6665 H   0  0  0  0  0  0
  -26.1252  -31.5030   20.6091 H   0  0  0  0  0  0
  -26.8606  -30.8004   22.0188 H   0  0  0  0  0  0
  -28.1134  -28.8551   21.2389 H   0  0  0  0  0  0
  -25.9466  -25.9062   18.9467 H   0  0  0  0  0  0
  -23.9823  -27.3260   18.9537 H   0  0  0  0  0  0
  -23.7982  -30.5937   19.4066 H   0  0  0  0  0  0
  -22.7723  -29.2601   19.8376 H   0  0  0  0  0  0
  -25.1282  -36.1907   25.0813 H   0  0  0  0  0  0
  -20.9990  -28.3268   24.1377 H   0  0  0  0  0  0
  -20.5628  -26.2312   23.3615 H   0  0  0  0  0  0
  -21.6633  -26.7406   22.1211 H   0  0  0  0  0  0
  -19.6889  -25.6287   21.1241 H   0  0  0  0  0  0
  -19.6662  -27.3178   20.6728 H   0  0  0  0  0  0
  -17.4181  -26.6670   21.4040 H   0  0  0  0  0  0
  -18.0330  -26.0063   22.9027 H   0  0  0  0  0  0
  -19.7944  -30.7255   24.2292 H   0  0  0  0  0  0
  -17.5023  -31.6273   24.5148 H   0  0  0  0  0  0
  -15.5356  -30.2993   23.7641 H   0  0  0  0  0  0
  -15.8672  -28.0798   22.7118 H   0  0  0  0  0  0
  -24.5891  -30.7121   25.7810 H   0  0  0  0  0  0
  -24.8915  -32.2964   26.4846 H   0  0  0  0  0  0
  -25.8028  -30.9001   27.0265 H   0  0  0  0  0  0
  -26.2937  -29.6778   24.1219 H   0  0  0  0  0  0
  -27.3962  -29.7253   25.4775 H   0  0  0  0  0  0
  -27.8849  -30.4275   23.9533 H   0  0  0  0  0  0
  -27.2633  -33.3664   26.2070 H   0  0  0  0  0  0
  -28.3885  -32.6900   25.0383 H   0  0  0  0  0  0
  -28.0679  -31.8505   26.5486 H   0  0  0  0  0  0
  -28.2586  -38.0090   24.7517 H   0  0  0  0  0  0
  -28.1058  -36.2623   24.6291 H   0  0  0  0  0  0
  -27.2294  -37.1446   25.8874 H   0  0  0  0  0  0
  -20.9411  -29.8826   21.6903 H   0  0  0  0  0  0
  -26.0148  -38.2840   24.1447 H   0  0  0  0  0  0
  -29.4347  -22.1648   22.3812 H   0  0  0  0  0  0
  -30.3622  -22.8606   21.0958 H   0  0  0  0  0  0
  -29.3165  -21.9653   18.3031 H   0  0  0  0  0  0
  -27.6283  -22.0600   18.6396 H   0  0  0  0  0  0
  -29.1138  -24.6588   22.1301 H   0  0  0  0  0  0
  -27.6297  -23.7807   22.1156 H   0  0  0  0  0  0
  -28.3482  -24.3062   18.0958 H   0  0  0  0  0  0
  -29.7922  -24.1790   19.0374 H   0  0  0  0  0  0
  -27.8349  -21.1823   20.7444 H   0  0  0  0  0  0
  -27.0057  -24.5463   20.1502 H   0  0  0  0  0  0
  -31.0859  -17.6641   21.0321 H   0  0  0  0  0  0
  -30.6503  -17.5175   19.3683 H   0  0  0  0  0  0
  -28.3452  -18.5803   19.8554 H   0  0  0  0  0  0
  -28.7687  -18.7325   21.5326 H   0  0  0  0  0  0
  -28.8579  -15.8348   20.8262 H   0  0  0  0  0  0
  -30.4616  -20.3459   20.9117 H   0  0  0  0  0  0
  -30.1061  -20.2136   19.3543 H   0  0  0  0  0  0
  1 25  1  0  0  0
  1 30  2  0  0  0
  1 79  1  0  0  0
  2  3  1  0  0  0
  2 25  1  0  0  0
  2 81  1  0  0  0
  2 82  1  0  0  0
  3  4  1  0  0  0
  3 83  1  0  0  0
  3 84  1  0  0  0
  4  5  1  0  0  0
  4 85  1  0  0  0
  4 86  1  0  0  0
  5  6  1  0  0  0
  5 26  1  0  0  0
  5 87  1  0  0  0
  6 25  1  0  0  0
  6 88  1  0  0  0
  6 89  1  0  0  0
  7  8  2  0  0  0
  7 26  1  0  0  0
  7 29  1  0  0  0
  8  9  1  0  0  0
  8 22  1  0  0  0
  9 10  1  0  0  0
  9 27  2  0  0  0
 10 11  2  0  0  0
 10 15  1  0  0  0
 11 12  1  0  0  0
 11 90  1  0  0  0
 12 13  2  0  0  0
 12 91  1  0  0  0
 13 14  1  0  0  0
 13 31  1  0  0  0
 14 15  2  0  0  0
 14 92  1  0  0  0
 15 93  1  0  0  0
 16 17  2  0  0  0
 16 21  1  0  0  0
 16 31  1  0  0  0
 17 18  1  0  0  0
 17 94  1  0  0  0
 18 19  2  0  0  0
 18 95  1  0  0  0
 19 20  1  0  0  0
 19 24  1  0  0  0
 20 21  2  0  0  0
 20 96  1  0  0  0
 21 23  1  0  0  0
 22 28  1  0  0  0
 22 32  2  0  0  0
 26 27  1  0  0  0
 28 97  1  0  0  0
 28 98  1  0  0  0
 29 99  1  0  0  0
 29100  1  0  0  0
 33 34  1  0  0  0
 33 66  1  0  0  0
 33 70  2  0  0  0
 34 36  1  0  0  0
 34 59  1  0  0  0
 34101  1  0  0  0
 35 44  2  0  0  0
 35 45  1  0  0  0
 35 68  1  0  0  0
 36 56  1  0  0  0
 36102  1  0  0  0
 37 39  1  0  0  0
 37 47  1  0  0  0
 37 66  1  0  0  0
 37103  1  0  0  0
 38 43  2  0  0  0
 38 46  1  0  0  0
 38 47  1  0  0  0
 39 64  1  0  0  0
 39 67  2  0  0  0
 40 52  1  0  0  0
 40 53  2  0  0  0
 40 58  1  0  0  0
 41104  1  0  0  0
 41105  1  0  0  0
 41106  1  0  0  0
 41 48  1  0  0  0
 42 43  1  0  0  0
 42 66  1  0  0  0
 42107  1  0  0  0
 42108  1  0  0  0
 43 44  1  0  0  0
 44109  1  0  0  0
 45 46  2  0  0  0
 45110  1  0  0  0
 46111  1  0  0  0
 47112  1  0  0  0
 47113  1  0  0  0
 48 56  1  0  0  0
 48 65  1  0  0  0
 48114  1  0  0  0
 49 50  1  0  0  0
 49 53  1  0  0  0
 49 64  1  0  0  0
 49115  1  0  0  0
 50 51  1  0  0  0
 50116  1  0  0  0
 50117  1  0  0  0
 51 52  1  0  0  0
 51118  1  0  0  0
 51119  1  0  0  0
 52120  1  0  0  0
 52121  1  0  0  0
 53 54  1  0  0  0
 54 55  2  0  0  0
 54122  1  0  0  0
 55 57  1  0  0  0
 55123  1  0  0  0
 56 69  2  0  0  0
 57 58  2  0  0  0
 57124  1  0  0  0
 58125  1  0  0  0
 59 60  1  0  0  0
 59 61  1  0  0  0
 59 62  1  0  0  0
 60126  1  0  0  0
 60127  1  0  0  0
 60128  1  0  0  0
 61129  1  0  0  0
 61130  1  0  0  0
 61131  1  0  0  0
 62132  1  0  0  0
 62133  1  0  0  0
 62134  1  0  0  0
 63 65  1  0  0  0
 63135  1  0  0  0
 63136  1  0  0  0
 63137  1  0  0  0
 64138  1  0  0  0
 65139  1  0  0  0
 68 76  1  0  0  0
 71 73  1  0  0  0
 71 75  1  0  0  0
 71140  1  0  0  0
 71141  1  0  0  0
 72 74  1  0  0  0
 72 75  1  0  0  0
 72142  1  0  0  0
 72143  1  0  0  0
 73 76  1  0  0  0
 73144  1  0  0  0
 73145  1  0  0  0
 74 76  1  0  0  0
 74146  1  0  0  0
 74147  1  0  0  0
 75 80  1  0  0  0
 75148  1  0  0  0
 76149  1  0  0  0
 77 78  1  0  0  0
 77 79  1  0  0  0
 77150  1  0  0  0
 77151  1  0  0  0
 78 80  1  0  0  0
 78152  1  0  0  0
 78153  1  0  0  0
 79154  1  0  0  0
 80155  1  0  0  0
 80156  1  0  0  0
M  CHG  1  80   1
M  ISO  4   1 100  68 101  76 101  79 100
M  END
> <chiral flag>
0

> <version>
0

> <s_m_source_file>
/data/baiqing/PycharmProjects/Reinvent-master-3.2/result/LINK_invent/BTK/process_docking_weight1_custom_sum_contain_oxygen_bond_distance_aromatic_linkinvent_7_9_3/rearranged_h_0131.sdf

> <i_m_source_file_index>
2

> <r_mmod_Potential_Energy-OPLS-2005>
109.970108032227

> <r_mmod_Stretch_Energy-OPLS-2005>
166.52067565918

> <r_mmod_Bend_Energy-OPLS-2005>
208.302093505859

> <r_mmod_Torsional_Energy-OPLS-2005>
266.060607910156

> <r_mmod_Improper_Torsional_Energy-OPLS-2005>
5.09527206420898

> <r_mmod_Van_der_Waal_Energy-OPLS-2005>
123.2685546875

> <r_mmod_Electrostatic_Energy-OPLS-2005>
-295.378479003906

> <r_mmod_Solvation_Energy-OPLS-2005>
-489.438110351562

> <b_mmod_Minimization_Converged-OPLS-2005>
0

> <r_mmod_RMS_Derivative-OPLS-2005>
2.23052549362183

$$$$
2
                    3D
 Structure written by MMmdl.
170179  0  0  1  0            999 V2000
  -30.4386  -15.0169   20.4212 C   0  0  0  0  0  0
  -30.4658  -12.6286   19.5031 C   0  0  0  0  0  0
  -29.5446  -12.5426   18.2619 C   0  0  0  0  0  0
  -28.0757  -12.3092   18.6734 C   0  0  0  0  0  0
  -27.6357  -13.2335   19.8379 C   0  0  2  0  0  0
  -28.6749  -13.2498   20.9774 C   0  0  0  0  0  0
  -25.2525  -13.8177   20.5635 C   0  0  0  0  0  0
  -24.1815  -13.0456   20.9189 C   0  0  0  0  0  0
  -24.6396  -11.6913   20.8755 C   0  0  0  0  0  0
  -23.9062  -10.4298   21.0413 C   0  0  0  0  0  0
  -24.3636   -9.4210   21.9188 C   0  0  0  0  0  0
  -23.6292   -8.2250   22.0782 C   0  0  0  0  0  0
  -22.4272   -8.0282   21.3556 C   0  0  0  0  0  0
  -21.9876   -9.0257   20.4656 C   0  0  0  0  0  0
  -22.7228  -10.2138   20.3061 C   0  0  0  0  0  0
  -21.6860   -6.0706   22.5254 C   0  0  0  0  0  0
  -21.4014   -6.5615   23.8191 C   0  0  0  0  0  0
  -21.3660   -5.6771   24.9151 C   0  0  0  0  0  0
  -21.6048   -4.3039   24.7199 C   0  0  0  0  0  0
  -21.8826   -3.8115   23.4333 C   0  0  0  0  0  0
  -21.9203   -4.6938   22.3382 C   0  0  0  0  0  0
  -22.7816  -13.5279   21.1759 C   0  0  0  0  0  0
  -22.1653   -4.2115   21.0960 F   0  0  0  0  0  0
  -21.5654   -3.4520   25.7716 F   0  0  0  0  0  0
  -29.9368  -13.7121   20.3822 N   0  0  0  0  0  0
  -26.2924  -12.9347   20.3186 N   0  0  0  0  0  0
  -25.9322  -11.6519   20.5738 N   0  0  0  0  0  0
  -22.0390  -12.8369   22.0338 N   0  0  0  0  0  0
  -25.4222  -15.1881   20.3937 N   0  0  0  0  0  0
  -31.6453  -15.1595   20.1881 O   0  0  0  0  0  0
  -21.6657   -6.8862   21.4223 O   0  0  0  0  0  0
  -22.3553  -14.5533   20.6498 O   0  0  0  0  0  0
  -24.6516  -31.8381   23.1830 C   0  0  0  0  0  0
  -25.9264  -32.4642   23.8242 C   0  0  1  0  0  0
  -27.2032  -27.0695   20.1504 C   0  0  0  0  0  0
  -25.5980  -33.8450   24.2159 N   0  0  0  0  0  0
  -23.4558  -30.4570   21.5342 C   0  0  2  0  0  0
  -24.8982  -28.8685   20.1170 C   0  0  0  0  0  0
  -22.7598  -29.4516   22.4886 C   0  0  0  0  0  0
  -18.0312  -28.1363   22.8472 C   0  0  0  0  0  0
  -24.1490  -36.7227   23.2647 C   0  0  0  0  0  0
  -26.0187  -30.6846   21.3942 C   0  0  0  0  0  0
  -26.0840  -29.2913   20.7334 C   0  0  0  0  0  0
  -27.2409  -28.4131   20.7256 C   0  0  0  0  0  0
  -25.9959  -26.7722   19.4834 C   0  0  0  0  0  0
  -24.8708  -27.6251   19.4743 C   0  0  0  0  0  0
  -23.6788  -29.7804   20.1584 C   0  0  0  0  0  0
  -25.4132  -36.3018   24.0324 C   0  0  1  0  0  0
  -20.5930  -28.3699   23.1217 C   0  0  2  0  0  0
  -20.6790  -26.9393   22.5406 C   0  0  0  0  0  0
  -19.5759  -26.6346   21.5216 C   0  0  0  0  0  0
  -18.1938  -26.7899   22.1614 C   0  0  0  0  0  0
  -19.1571  -28.8853   23.2822 C   0  0  0  0  0  0
  -18.9481  -30.1465   23.8818 C   0  0  0  0  0  0
  -17.6473  -30.6563   24.0539 C   0  0  0  0  0  0
  -25.9099  -34.9386   23.5065 C   0  0  0  0  0  0
  -16.5362  -29.9045   23.6351 C   0  0  0  0  0  0
  -16.7295  -28.6469   23.0362 C   0  0  0  0  0  0
  -26.4560  -31.6522   25.0715 C   0  0  0  0  0  0
  -25.3737  -31.3718   26.1410 C   0  0  0  0  0  0
  -27.0457  -30.2895   24.6390 C   0  0  0  0  0  0
  -27.6066  -32.4314   25.7507 C   0  0  0  0  0  0
  -27.5586  -37.1774   24.8474 C   0  0  0  0  0  0
  -21.4288  -29.3024   22.3597 N   0  0  0  0  0  0
  -26.4289  -37.3739   23.9422 N   0  0  0  0  0  0
  -24.7287  -31.0187   22.0884 N   0  0  0  0  0  0
  -23.4206  -28.8076   23.3062 O   0  0  0  0  0  0
  -28.2217  -26.0260   20.1757 O   0  0  0  0  0  0
  -26.5687  -34.8896   22.4647 O   0  0  0  0  0  0
  -23.5629  -32.1267   23.7049 O   0  0  0  0  0  0
  -28.6179  -21.6845   20.6537 C   0  0  0  0  0  0
  -28.6838  -23.0800   20.1033 C   0  0  0  0  0  0
  -29.4713  -20.7004   20.0597 C   0  0  0  0  0  0
  -29.5587  -22.8591   19.0704 C   0  0  0  0  0  0
  -31.1042  -19.1763   21.3542 C   0  0  0  0  0  0
  -30.4889  -19.4994   22.7407 C   0  0  0  0  0  0
  -28.7764  -17.7890   22.2504 C   0  0  0  0  0  0
  -30.0052  -19.0955   20.2811 C   0  0  1  0  0  0
  -29.2071  -17.6752   20.7586 C   0  0  1  0  0  0
  -29.8988  -23.8986   18.0454 C   0  0  0  0  0  0
  -32.2594  -22.0114   17.8001 C   0  0  0  0  0  0
  -30.5156  -20.3799   16.8889 C   0  0  0  0  0  0
  -27.8487  -24.5096   20.4549 C   0  0  0  0  0  0
  -31.1297  -21.0210   18.1454 C   0  0  0  0  0  0
  -30.0896  -21.5267   19.0769 N   0  0  0  0  0  0
  -29.5038  -16.0982   20.5295 N   0  0  0  0  0  0
  -29.0597  -19.1170   22.8297 N   0  3  0  0  0  0
  -31.4945  -12.8273   19.1926 H   0  0  0  0  0  0
  -30.4893  -11.6741   20.0343 H   0  0  0  0  0  0
  -29.8890  -11.7453   17.6013 H   0  0  0  0  0  0
  -29.6175  -13.4687   17.6901 H   0  0  0  0  0  0
  -27.9864  -11.2673   18.9834 H   0  0  0  0  0  0
  -27.4168  -12.4307   17.8133 H   0  0  0  0  0  0
  -27.6047  -14.2357   19.4121 H   0  0  0  0  0  0
  -28.7799  -12.2555   21.4180 H   0  0  0  0  0  0
  -28.3583  -13.9070   21.7903 H   0  0  0  0  0  0
  -25.2805   -9.5684   22.4750 H   0  0  0  0  0  0
  -23.9976   -7.4678   22.7543 H   0  0  0  0  0  0
  -21.0788   -8.8779   19.9013 H   0  0  0  0  0  0
  -22.3678  -10.9664   19.6164 H   0  0  0  0  0  0
  -21.1985   -7.6124   23.9661 H   0  0  0  0  0  0
  -21.1484   -6.0515   25.9057 H   0  0  0  0  0  0
  -22.0611   -2.7573   23.2838 H   0  0  0  0  0  0
  -22.3945  -12.0128   22.4926 H   0  0  0  0  0  0
  -21.0978  -13.1458   22.2343 H   0  0  0  0  0  0
  -24.6382  -15.8258   20.4614 H   0  0  0  0  0  0
  -26.2010  -15.5822   19.8834 H   0  0  0  0  0  0
  -26.7318  -32.5208   23.0951 H   0  0  0  0  0  0
  -25.0103  -33.9539   25.0292 H   0  0  0  0  0  0
  -22.7627  -31.2867   21.3786 H   0  0  0  0  0  0
  -23.3785  -35.9528   23.3283 H   0  0  0  0  0  0
  -24.3573  -36.8880   22.2068 H   0  0  0  0  0  0
  -23.7197  -37.6394   23.6688 H   0  0  0  0  0  0
  -26.2038  -31.4341   20.6253 H   0  0  0  0  0  0
  -26.8784  -30.7201   22.0503 H   0  0  0  0  0  0
  -28.1469  -28.7402   21.2140 H   0  0  0  0  0  0
  -25.8912  -25.8353   18.9600 H   0  0  0  0  0  0
  -23.9714  -27.2972   18.9687 H   0  0  0  0  0  0
  -23.8145  -30.5472   19.3951 H   0  0  0  0  0  0
  -22.7906  -29.2236   19.8547 H   0  0  0  0  0  0
  -25.1324  -36.1851   25.0814 H   0  0  0  0  0  0
  -21.0028  -28.3284   24.1336 H   0  0  0  0  0  0
  -20.5677  -26.2314   23.3638 H   0  0  0  0  0  0
  -21.6650  -26.7379   22.1209 H   0  0  0  0  0  0
  -19.6926  -25.6258   21.1241 H   0  0  0  0  0  0
  -19.6690  -27.3158   20.6749 H   0  0  0  0  0  0
  -17.4232  -26.6682   21.3987 H   0  0  0  0  0  0
  -18.0293  -26.0015   22.8972 H   0  0  0  0  0  0
  -19.7963  -30.7310   24.2105 H   0  0  0  0  0  0
  -17.5030  -31.6239   24.5144 H   0  0  0  0  0  0
  -15.5353  -30.2917   23.7719 H   0  0  0  0  0  0
  -15.8701  -28.0776   22.7097 H   0  0  0  0  0  0
  -24.5914  -30.7069   25.7731 H   0  0  0  0  0  0
  -24.8941  -32.2896   26.4808 H   0  0  0  0  0  0
  -25.8032  -30.8899   27.0201 H   0  0  0  0  0  0
  -26.3111  -29.6565   24.1394 H   0  0  0  0  0  0
  -27.4005  -29.7259   25.5033 H   0  0  0  0  0  0
  -27.9046  -30.4093   23.9785 H   0  0  0  0  0  0
  -27.2619  -33.3615   26.2039 H   0  0  0  0  0  0
  -28.3889  -32.6869   25.0345 H   0  0  0  0  0  0
  -28.0714  -31.8468   26.5457 H   0  0  0  0  0  0
  -28.2613  -38.0066   24.7545 H   0  0  0  0  0  0
  -28.1073  -36.2606   24.6280 H   0  0  0  0  0  0
  -27.2308  -37.1396   25.8873 H   0  0  0  0  0  0
  -20.9528  -29.8690   21.6724 H   0  0  0  0  0  0
  -26.0170  -38.2818   24.1384 H   0  0  0  0  0  0
  -27.9672  -21.4432   21.4824 H   0  0  0  0  0  0
  -31.6267  -18.2190   21.4107 H   0  0  0  0  0  0
  -31.8697  -19.9102   21.1038 H   0  0  0  0  0  0
  -30.5747  -20.5673   22.9524 H   0  0  0  0  0  0
  -31.0530  -18.9871   23.5210 H   0  0  0  0  0  0
  -29.2693  -17.0389   22.8711 H   0  0  0  0  0  0
  -27.7045  -17.5972   22.3319 H   0  0  0  0  0  0
  -30.4481  -18.7606   19.3449 H   0  0  0  0  0  0
  -28.2918  -17.7791   20.1734 H   0  0  0  0  0  0
  -29.0805  -24.6131   17.9503 H   0  0  0  0  0  0
  -30.0389  -23.4829   17.0493 H   0  0  0  0  0  0
  -30.7836  -24.4647   18.3346 H   0  0  0  0  0  0
  -33.1989  -21.4766   17.6462 H   0  0  0  0  0  0
  -32.4317  -22.7382   18.5925 H   0  0  0  0  0  0
  -32.0568  -22.5463   16.8711 H   0  0  0  0  0  0
  -31.2885  -19.9108   16.2773 H   0  0  0  0  0  0
  -30.0051  -21.1151   16.2652 H   0  0  0  0  0  0
  -29.7924  -19.6068   17.1472 H   0  0  0  0  0  0
  -27.6914  -24.4682   21.5325 H   0  0  0  0  0  0
  -26.8539  -24.3187   20.0573 H   0  0  0  0  0  0
  -31.6790  -20.2495   18.6739 H   0  0  0  0  0  0
  -28.6118  -15.6330   20.5997 H   0  0  0  0  0  0
  -28.5165  -19.8043   22.3308 H   0  0  0  0  0  0
  -28.7616  -19.1418   23.7926 H   0  0  0  0  0  0
  1 25  1  0  0  0
  1 30  2  0  0  0
  1 86  1  0  0  0
  2  3  1  0  0  0
  2 25  1  0  0  0
  2 88  1  0  0  0
  2 89  1  0  0  0
  3  4  1  0  0  0
  3 90  1  0  0  0
  3 91  1  0  0  0
  4  5  1  0  0  0
  4 92  1  0  0  0
  4 93  1  0  0  0
  5  6  1  0  0  0
  5 26  1  0  0  0
  5 94  1  0  0  0
  6 25  1  0  0  0
  6 95  1  0  0  0
  6 96  1  0  0  0
  7  8  2  0  0  0
  7 26  1  0  0  0
  7 29  1  0  0  0
  8  9  1  0  0  0
  8 22  1  0  0  0
  9 10  1  0  0  0
  9 27  2  0  0  0
 10 11  2  0  0  0
 10 15  1  0  0  0
 11 12  1  0  0  0
 11 97  1  0  0  0
 12 13  2  0  0  0
 12 98  1  0  0  0
 13 14  1  0  0  0
 13 31  1  0  0  0
 14 15  2  0  0  0
 14 99  1  0  0  0
 15100  1  0  0  0
 16 17  2  0  0  0
 16 21  1  0  0  0
 16 31  1  0  0  0
 17 18  1  0  0  0
 17101  1  0  0  0
 18 19  2  0  0  0
 18102  1  0  0  0
 19 20  1  0  0  0
 19 24  1  0  0  0
 20 21  2  0  0  0
 20103  1  0  0  0
 21 23  1  0  0  0
 22 28  1  0  0  0
 22 32  2  0  0  0
 26 27  1  0  0  0
 28104  1  0  0  0
 28105  1  0  0  0
 29106  1  0  0  0
 29107  1  0  0  0
 33 34  1  0  0  0
 33 66  1  0  0  0
 33 70  2  0  0  0
 34 36  1  0  0  0
 34 59  1  0  0  0
 34108  1  0  0  0
 35 44  2  0  0  0
 35 45  1  0  0  0
 35 68  1  0  0  0
 36 56  1  0  0  0
 36109  1  0  0  0
 37 39  1  0  0  0
 37 47  1  0  0  0
 37 66  1  0  0  0
 37110  1  0  0  0
 38 43  2  0  0  0
 38 46  1  0  0  0
 38 47  1  0  0  0
 39 64  1  0  0  0
 39 67  2  0  0  0
 40 52  1  0  0  0
 40 53  2  0  0  0
 40 58  1  0  0  0
 41111  1  0  0  0
 41112  1  0  0  0
 41113  1  0  0  0
 41 48  1  0  0  0
 42 43  1  0  0  0
 42 66  1  0  0  0
 42114  1  0  0  0
 42115  1  0  0  0
 43 44  1  0  0  0
 44116  1  0  0  0
 45 46  2  0  0  0
 45117  1  0  0  0
 46118  1  0  0  0
 47119  1  0  0  0
 47120  1  0  0  0
 48 56  1  0  0  0
 48 65  1  0  0  0
 48121  1  0  0  0
 49 50  1  0  0  0
 49 53  1  0  0  0
 49 64  1  0  0  0
 49122  1  0  0  0
 50 51  1  0  0  0
 50123  1  0  0  0
 50124  1  0  0  0
 51 52  1  0  0  0
 51125  1  0  0  0
 51126  1  0  0  0
 52127  1  0  0  0
 52128  1  0  0  0
 53 54  1  0  0  0
 54 55  2  0  0  0
 54129  1  0  0  0
 55 57  1  0  0  0
 55130  1  0  0  0
 56 69  2  0  0  0
 57 58  2  0  0  0
 57131  1  0  0  0
 58132  1  0  0  0
 59 60  1  0  0  0
 59 61  1  0  0  0
 59 62  1  0  0  0
 60133  1  0  0  0
 60134  1  0  0  0
 60135  1  0  0  0
 61136  1  0  0  0
 61137  1  0  0  0
 61138  1  0  0  0
 62139  1  0  0  0
 62140  1  0  0  0
 62141  1  0  0  0
 63 65  1  0  0  0
 63142  1  0  0  0
 63143  1  0  0  0
 63144  1  0  0  0
 64145  1  0  0  0
 65146  1  0  0  0
 68 83  1  0  0  0
 71 72  1  0  0  0
 71 73  2  0  0  0
 71147  1  0  0  0
 72 74  2  0  0  0
 72 83  1  0  0  0
 73 85  1  0  0  0
 73 78  1  0  0  0
 74 80  1  0  0  0
 74 85  1  0  0  0
 75 76  1  0  0  0
 75 78  1  0  0  0
 75148  1  0  0  0
 75149  1  0  0  0
 76 87  1  0  0  0
 76150  1  0  0  0
 76151  1  0  0  0
 77 79  1  0  0  0
 77 87  1  0  0  0
 77152  1  0  0  0
 77153  1  0  0  0
 78 79  1  0  0  0
 78154  1  0  0  0
 79 86  1  0  0  0
 79155  1  0  0  0
 80156  1  0  0  0
 80157  1  0  0  0
 80158  1  0  0  0
 81159  1  0  0  0
 81160  1  0  0  0
 81161  1  0  0  0
 81 84  1  0  0  0
 82 84  1  0  0  0
 82162  1  0  0  0
 82163  1  0  0  0
 82164  1  0  0  0
 83165  1  0  0  0
 83166  1  0  0  0
 84 85  1  0  0  0
 84167  1  0  0  0
 86168  1  0  0  0
 87169  1  0  0  0
 87170  1  0  0  0
M  CHG  1  87   1
M  ISO  4   1 100  68 101  83 101  86 100
M  END
> <chiral flag>
0

> <version>
0

> <s_m_source_file>
/data/baiqing/PycharmProjects/Reinvent-master-3.2/result/LINK_invent/BTK/process_docking_weight1_custom_sum_contain_oxygen_bond_distance_aromatic_linkinvent_7_9_3/rearranged_h_0131.sdf

> <i_m_source_file_index>
3

> <r_mmod_Potential_Energy-OPLS-2005>
611.968078613281

> <r_mmod_Stretch_Energy-OPLS-2005>
343.922424316406

> <r_mmod_Bend_Energy-OPLS-2005>
398.823516845703

> <r_mmod_Torsional_Energy-OPLS-2005>
325.425384521484

> <r_mmod_Improper_Torsional_Energy-OPLS-2005>
7.32733249664307

> <r_mmod_Van_der_Waal_Energy-OPLS-2005>
124.548149108887

> <r_mmod_Electrostatic_Energy-OPLS-2005>
-375.600524902344

> <r_mmod_Solvation_Energy-OPLS-2005>
-470.159942626953

> <b_mmod_Minimization_Converged-OPLS-2005>
0

> <r_mmod_RMS_Derivative-OPLS-2005>
4.82542562484741

$$$$
3
                    3D
 Structure written by MMmdl.
157166  0  0  1  0            999 V2000
  -30.5870  -14.8514   20.4236 C   0  0  0  0  0  0
  -30.4324  -12.5240   19.4840 C   0  0  0  0  0  0
  -29.5120  -12.5118   18.2432 C   0  0  0  0  0  0
  -28.0418  -12.3220   18.6617 C   0  0  0  0  0  0
  -27.6334  -13.2432   19.8427 C   0  0  2  0  0  0
  -28.6793  -13.2364   20.9780 C   0  0  0  0  0  0
  -25.2479  -13.8209   20.5710 C   0  0  0  0  0  0
  -24.1790  -13.0438   20.9232 C   0  0  0  0  0  0
  -24.6403  -11.6922   20.8767 C   0  0  0  0  0  0
  -23.9085  -10.4293   21.0415 C   0  0  0  0  0  0
  -24.3632   -9.4204   21.9191 C   0  0  0  0  0  0
  -23.6299   -8.2244   22.0758 C   0  0  0  0  0  0
  -22.4282   -8.0287   21.3546 C   0  0  0  0  0  0
  -21.9923   -9.0262   20.4650 C   0  0  0  0  0  0
  -22.7257  -10.2139   20.3062 C   0  0  0  0  0  0
  -21.6850   -6.0740   22.5276 C   0  0  0  0  0  0
  -21.4017   -6.5644   23.8209 C   0  0  0  0  0  0
  -21.3660   -5.6797   24.9171 C   0  0  0  0  0  0
  -21.6041   -4.3059   24.7221 C   0  0  0  0  0  0
  -21.8820   -3.8152   23.4341 C   0  0  0  0  0  0
  -21.9194   -4.6970   22.3398 C   0  0  0  0  0  0
  -22.7810  -13.5213   21.1880 C   0  0  0  0  0  0
  -22.1659   -4.2156   21.0974 F   0  0  0  0  0  0
  -21.5627   -3.4544   25.7733 F   0  0  0  0  0  0
  -29.9639  -13.6145   20.3794 N   0  0  0  0  0  0
  -26.2907  -12.9436   20.3276 N   0  0  0  0  0  0
  -25.9337  -11.6573   20.5762 N   0  0  0  0  0  0
  -22.0454  -12.8198   22.0429 N   0  0  0  0  0  0
  -25.4149  -15.1939   20.4109 N   0  0  0  0  0  0
  -31.7901  -14.9059   20.1545 O   0  0  0  0  0  0
  -21.6643   -6.8885   21.4236 O   0  0  0  0  0  0
  -22.3492  -14.5513   20.6717 O   0  0  0  0  0  0
  -24.6378  -31.8485   23.1916 C   0  0  0  0  0  0
  -25.9177  -32.4717   23.8287 C   0  0  1  0  0  0
  -27.2143  -27.1926   20.1559 C   0  0  0  0  0  0
  -25.5947  -33.8516   24.2213 N   0  0  0  0  0  0
  -23.4390  -30.4684   21.5366 C   0  0  2  0  0  0
  -24.8884  -28.9032   20.1125 C   0  0  0  0  0  0
  -22.7549  -29.4555   22.4875 C   0  0  0  0  0  0
  -18.0295  -28.1370   22.8465 C   0  0  0  0  0  0
  -24.1504  -36.7264   23.2642 C   0  0  0  0  0  0
  -25.9901  -30.7415   21.3819 C   0  0  0  0  0  0
  -26.0638  -29.3567   20.7266 C   0  0  0  0  0  0
  -27.2334  -28.5168   20.7309 C   0  0  0  0  0  0
  -26.0185  -26.8230   19.5066 C   0  0  0  0  0  0
  -24.8749  -27.6463   19.4885 C   0  0  0  0  0  0
  -23.6627  -29.7993   20.1549 C   0  0  0  0  0  0
  -25.4122  -36.3037   24.0327 C   0  0  1  0  0  0
  -20.5911  -28.3684   23.1246 C   0  0  2  0  0  0
  -20.6780  -26.9392   22.5406 C   0  0  0  0  0  0
  -19.5761  -26.6363   21.5206 C   0  0  0  0  0  0
  -18.1932  -26.7907   22.1613 C   0  0  0  0  0  0
  -19.1555  -28.8847   23.2835 C   0  0  0  0  0  0
  -18.9477  -30.1443   23.8860 C   0  0  0  0  0  0
  -17.6474  -30.6568   24.0549 C   0  0  0  0  0  0
  -25.9072  -34.9415   23.5077 C   0  0  0  0  0  0
  -16.5359  -29.9068   23.6335 C   0  0  0  0  0  0
  -16.7283  -28.6489   23.0349 C   0  0  0  0  0  0
  -26.4515  -31.6562   25.0709 C   0  0  0  0  0  0
  -25.3718  -31.3734   26.1423 C   0  0  0  0  0  0
  -27.0381  -30.2973   24.6241 C   0  0  0  0  0  0
  -27.6049  -32.4328   25.7485 C   0  0  0  0  0  0
  -27.5578  -37.1783   24.8463 C   0  0  0  0  0  0
  -21.4244  -29.3027   22.3631 N   0  0  0  0  0  0
  -26.4287  -37.3745   23.9416 N   0  0  0  0  0  0
  -24.7080  -31.0405   22.0914 N   0  0  0  0  0  0
  -23.4214  -28.8099   23.3004 O   0  0  0  0  0  0
  -28.2600  -26.2221   20.1801 O   0  0  0  0  0  0
  -26.5646  -34.8904   22.4650 O   0  0  0  0  0  0
  -23.5517  -32.1329   23.7180 O   0  0  0  0  0  0
  -29.9039  -21.3101   20.7810 C   0  0  0  0  0  0
  -29.6351  -22.7304   20.9307 C   0  0  0  0  0  0
  -27.5711  -22.4577   19.8219 C   0  0  0  0  0  0
  -29.0170  -20.3780   20.1403 C   0  0  0  0  0  0
  -28.4541  -23.3859   20.4494 C   0  0  0  0  0  0
  -27.8216  -21.0389   19.6730 C   0  0  0  0  0  0
  -30.8708  -17.5967   18.8760 C   0  0  0  0  0  0
  -29.3619  -18.8061   19.7763 C   0  0  2  0  0  0
  -30.2891  -17.5231   20.2904 C   0  0  1  0  0  0
  -26.7300  -20.2312   18.9886 C   0  0  0  0  0  0
  -27.9727  -24.8891   20.8676 C   0  0  0  0  0  0
  -29.8362  -16.0409   20.5245 N   0  0  0  0  0  0
  -30.4370  -18.9766   18.7911 N   0  3  0  0  0  0
  -31.4699  -12.6603   19.1748 H   0  0  0  0  0  0
  -30.3995  -11.5633   20.0002 H   0  0  0  0  0  0
  -29.8099  -11.7158   17.5591 H   0  0  0  0  0  0
  -29.6228  -13.4473   17.6919 H   0  0  0  0  0  0
  -27.9173  -11.2779   18.9500 H   0  0  0  0  0  0
  -27.3796  -12.4822   17.8097 H   0  0  0  0  0  0
  -27.6077  -14.2531   19.4328 H   0  0  0  0  0  0
  -28.7444  -12.2548   21.4492 H   0  0  0  0  0  0
  -28.4007  -13.9393   21.7643 H   0  0  0  0  0  0
  -25.2771   -9.5677   22.4773 H   0  0  0  0  0  0
  -24.0001   -7.4634   22.7483 H   0  0  0  0  0  0
  -21.0855   -8.8795   19.8956 H   0  0  0  0  0  0
  -22.3721  -10.9687   19.6181 H   0  0  0  0  0  0
  -21.2010   -7.6154   23.9713 H   0  0  0  0  0  0
  -21.1477   -6.0528   25.9073 H   0  0  0  0  0  0
  -22.0598   -2.7616   23.2840 H   0  0  0  0  0  0
  -22.4070  -11.9860   22.4817 H   0  0  0  0  0  0
  -21.1069  -13.1226   22.2628 H   0  0  0  0  0  0
  -24.6438  -15.8436   20.5172 H   0  0  0  0  0  0
  -26.2512  -15.6308   20.0469 H   0  0  0  0  0  0
  -26.7237  -32.5347   23.1017 H   0  0  0  0  0  0
  -25.0095  -33.9622   25.0362 H   0  0  0  0  0  0
  -22.7375  -31.2914   21.3851 H   0  0  0  0  0  0
  -23.3765  -35.9598   23.3296 H   0  0  0  0  0  0
  -24.3593  -36.8904   22.2059 H   0  0  0  0  0  0
  -23.7270  -37.6463   23.6681 H   0  0  0  0  0  0
  -26.1387  -31.4981   20.6097 H   0  0  0  0  0  0
  -26.8629  -30.7906   22.0218 H   0  0  0  0  0  0
  -28.1330  -28.8572   21.2244 H   0  0  0  0  0  0
  -25.9557  -25.8543   19.0294 H   0  0  0  0  0  0
  -23.9774  -27.2925   18.9999 H   0  0  0  0  0  0
  -23.7921  -30.5740   19.3984 H   0  0  0  0  0  0
  -22.7791  -29.2377   19.8486 H   0  0  0  0  0  0
  -25.1309  -36.1867   25.0822 H   0  0  0  0  0  0
  -20.9978  -28.3265   24.1379 H   0  0  0  0  0  0
  -20.5687  -26.2282   23.3606 H   0  0  0  0  0  0
  -21.6642  -26.7404   22.1200 H   0  0  0  0  0  0
  -19.6927  -25.6277   21.1230 H   0  0  0  0  0  0
  -19.6718  -27.3176   20.6737 H   0  0  0  0  0  0
  -17.4210  -26.6645   21.4007 H   0  0  0  0  0  0
  -18.0325  -26.0051   22.9014 H   0  0  0  0  0  0
  -19.7960  -30.7249   24.2220 H   0  0  0  0  0  0
  -17.5040  -31.6259   24.5138 H   0  0  0  0  0  0
  -15.5360  -30.2958   23.7684 H   0  0  0  0  0  0
  -15.8674  -28.0800   22.7084 H   0  0  0  0  0  0
  -24.5901  -30.7075   25.7752 H   0  0  0  0  0  0
  -24.8900  -32.2911   26.4805 H   0  0  0  0  0  0
  -25.8018  -30.8942   27.0228 H   0  0  0  0  0  0
  -26.2981  -29.6699   24.1256 H   0  0  0  0  0  0
  -27.4038  -29.7260   25.4778 H   0  0  0  0  0  0
  -27.8870  -30.4238   23.9516 H   0  0  0  0  0  0
  -27.2636  -33.3645   26.2004 H   0  0  0  0  0  0
  -28.3872  -32.6863   25.0322 H   0  0  0  0  0  0
  -28.0696  -31.8498   26.5445 H   0  0  0  0  0  0
  -28.2567  -38.0099   24.7503 H   0  0  0  0  0  0
  -28.1095  -36.2625   24.6290 H   0  0  0  0  0  0
  -27.2291  -37.1422   25.8862 H   0  0  0  0  0  0
  -20.9437  -29.8769   21.6846 H   0  0  0  0  0  0
  -26.0163  -38.2821   24.1417 H   0  0  0  0  0  0
  -30.8397  -20.9405   21.1782 H   0  0  0  0  0  0
  -30.3522  -23.3269   21.4778 H   0  0  0  0  0  0
  -26.6244  -22.8503   19.4772 H   0  0  0  0  0  0
  -30.3562  -16.9737   18.1416 H   0  0  0  0  0  0
  -31.9533  -17.4756   18.8149 H   0  0  0  0  0  0
  -28.4995  -18.3709   19.2723 H   0  0  0  0  0  0
  -31.0235  -17.8531   21.0283 H   0  0  0  0  0  0
  -25.8266  -20.8227   18.8308 H   0  0  0  0  0  0
  -26.4422  -19.3744   19.5976 H   0  0  0  0  0  0
  -27.0627  -19.8727   18.0140 H   0  0  0  0  0  0
  -28.3671  -25.0246   21.8753 H   0  0  0  0  0  0
  -26.8978  -24.8103   21.0303 H   0  0  0  0  0  0
  -28.8547  -15.9115   20.7215 H   0  0  0  0  0  0
  -30.1136  -19.2459   17.8766 H   0  0  0  0  0  0
  -31.1427  -19.6104   19.1233 H   0  0  0  0  0  0
  1 25  1  0  0  0
  1 30  2  0  0  0
  1 82  1  0  0  0
  2  3  1  0  0  0
  2 25  1  0  0  0
  2 84  1  0  0  0
  2 85  1  0  0  0
  3  4  1  0  0  0
  3 86  1  0  0  0
  3 87  1  0  0  0
  4  5  1  0  0  0
  4 88  1  0  0  0
  4 89  1  0  0  0
  5  6  1  0  0  0
  5 26  1  0  0  0
  5 90  1  0  0  0
  6 25  1  0  0  0
  6 91  1  0  0  0
  6 92  1  0  0  0
  7  8  2  0  0  0
  7 26  1  0  0  0
  7 29  1  0  0  0
  8  9  1  0  0  0
  8 22  1  0  0  0
  9 10  1  0  0  0
  9 27  2  0  0  0
 10 11  2  0  0  0
 10 15  1  0  0  0
 11 12  1  0  0  0
 11 93  1  0  0  0
 12 13  2  0  0  0
 12 94  1  0  0  0
 13 14  1  0  0  0
 13 31  1  0  0  0
 14 15  2  0  0  0
 14 95  1  0  0  0
 15 96  1  0  0  0
 16 17  2  0  0  0
 16 21  1  0  0  0
 16 31  1  0  0  0
 17 18  1  0  0  0
 17 97  1  0  0  0
 18 19  2  0  0  0
 18 98  1  0  0  0
 19 20  1  0  0  0
 19 24  1  0  0  0
 20 21  2  0  0  0
 20 99  1  0  0  0
 21 23  1  0  0  0
 22 28  1  0  0  0
 22 32  2  0  0  0
 26 27  1  0  0  0
 28100  1  0  0  0
 28101  1  0  0  0
 29102  1  0  0  0
 29103  1  0  0  0
 33 34  1  0  0  0
 33 66  1  0  0  0
 33 70  2  0  0  0
 34 36  1  0  0  0
 34 59  1  0  0  0
 34104  1  0  0  0
 35 44  2  0  0  0
 35 45  1  0  0  0
 35 68  1  0  0  0
 36 56  1  0  0  0
 36105  1  0  0  0
 37 39  1  0  0  0
 37 47  1  0  0  0
 37 66  1  0  0  0
 37106  1  0  0  0
 38 43  2  0  0  0
 38 46  1  0  0  0
 38 47  1  0  0  0
 39 64  1  0  0  0
 39 67  2  0  0  0
 40 52  1  0  0  0
 40 53  2  0  0  0
 40 58  1  0  0  0
 41107  1  0  0  0
 41108  1  0  0  0
 41109  1  0  0  0
 41 48  1  0  0  0
 42 43  1  0  0  0
 42 66  1  0  0  0
 42110  1  0  0  0
 42111  1  0  0  0
 43 44  1  0  0  0
 44112  1  0  0  0
 45 46  2  0  0  0
 45113  1  0  0  0
 46114  1  0  0  0
 47115  1  0  0  0
 47116  1  0  0  0
 48 56  1  0  0  0
 48 65  1  0  0  0
 48117  1  0  0  0
 49 50  1  0  0  0
 49 53  1  0  0  0
 49 64  1  0  0  0
 49118  1  0  0  0
 50 51  1  0  0  0
 50119  1  0  0  0
 50120  1  0  0  0
 51 52  1  0  0  0
 51121  1  0  0  0
 51122  1  0  0  0
 52123  1  0  0  0
 52124  1  0  0  0
 53 54  1  0  0  0
 54 55  2  0  0  0
 54125  1  0  0  0
 55 57  1  0  0  0
 55126  1  0  0  0
 56 69  2  0  0  0
 57 58  2  0  0  0
 57127  1  0  0  0
 58128  1  0  0  0
 59 60  1  0  0  0
 59 61  1  0  0  0
 59 62  1  0  0  0
 60129  1  0  0  0
 60130  1  0  0  0
 60131  1  0  0  0
 61132  1  0  0  0
 61133  1  0  0  0
 61134  1  0  0  0
 62135  1  0  0  0
 62136  1  0  0  0
 62137  1  0  0  0
 63 65  1  0  0  0
 63138  1  0  0  0
 63139  1  0  0  0
 63140  1  0  0  0
 64141  1  0  0  0
 65142  1  0  0  0
 68 81  1  0  0  0
 71 72  2  0  0  0
 71 74  1  0  0  0
 71143  1  0  0  0
 72 75  1  0  0  0
 72144  1  0  0  0
 73 75  2  0  0  0
 73 76  1  0  0  0
 73145  1  0  0  0
 74 76  2  0  0  0
 74 78  1  0  0  0
 75 81  1  0  0  0
 76 80  1  0  0  0
 77 79  1  0  0  0
 77 83  1  0  0  0
 77146  1  0  0  0
 77147  1  0  0  0
 78 79  1  0  0  0
 78 83  1  0  0  0
 78148  1  0  0  0
 79 82  1  0  0  0
 79149  1  0  0  0
 80150  1  0  0  0
 80151  1  0  0  0
 80152  1  0  0  0
 81153  1  0  0  0
 81154  1  0  0  0
 82155  1  0  0  0
 83156  1  0  0  0
 83157  1  0  0  0
M  CHG  1  83   1
M  ISO  4   1 100  68 101  81 101  82 100
M  END
> <chiral flag>
0

> <version>
0

> <s_m_source_file>
/data/baiqing/PycharmProjects/Reinvent-master-3.2/result/LINK_invent/BTK/process_docking_weight1_custom_sum_contain_oxygen_bond_distance_aromatic_linkinvent_7_9_3/rearranged_h_0131.sdf

> <i_m_source_file_index>
4

> <r_mmod_Potential_Energy-OPLS-2005>
189.48796081543

> <r_mmod_Stretch_Energy-OPLS-2005>
187.917633056641

> <r_mmod_Bend_Energy-OPLS-2005>
268.372161865234

> <r_mmod_Torsional_Energy-OPLS-2005>
283.185821533203

> <r_mmod_Improper_Torsional_Energy-OPLS-2005>
8.82319355010986

> <r_mmod_Van_der_Waal_Energy-OPLS-2005>
135.633560180664

> <r_mmod_Electrostatic_Energy-OPLS-2005>
-340.529266357422

> <r_mmod_Solvation_Energy-OPLS-2005>
-493.875549316406

> <b_mmod_Minimization_Converged-OPLS-2005>
0

> <r_mmod_RMS_Derivative-OPLS-2005>
1.5325231552124

$$$$
4
                    3D
 Structure written by MMmdl.
162170  0  0  1  0            999 V2000
  -30.7836  -14.3689   20.6994 C   0  0  0  0  0  0
  -30.4149  -12.3030   19.3956 C   0  0  0  0  0  0
  -29.4833  -12.5352   18.1927 C   0  0  0  0  0  0
  -28.0091  -12.3845   18.6108 C   0  0  0  0  0  0
  -27.6659  -13.2072   19.8801 C   0  0  2  0  0  0
  -28.7049  -12.9636   20.9970 C   0  0  0  0  0  0
  -25.2598  -13.8169   20.5681 C   0  0  0  0  0  0
  -24.1850  -13.0448   20.9159 C   0  0  0  0  0  0
  -24.6391  -11.6911   20.8719 C   0  0  0  0  0  0
  -23.9058  -10.4303   21.0390 C   0  0  0  0  0  0
  -24.3600   -9.4229   21.9190 C   0  0  0  0  0  0
  -23.6274   -8.2269   22.0772 C   0  0  0  0  0  0
  -22.4266   -8.0291   21.3549 C   0  0  0  0  0  0
  -21.9904   -9.0257   20.4649 C   0  0  0  0  0  0
  -22.7225  -10.2136   20.3045 C   0  0  0  0  0  0
  -21.6845   -6.0732   22.5275 C   0  0  0  0  0  0
  -21.4011   -6.5634   23.8213 C   0  0  0  0  0  0
  -21.3659   -5.6780   24.9173 C   0  0  0  0  0  0
  -21.6038   -4.3045   24.7228 C   0  0  0  0  0  0
  -21.8822   -3.8142   23.4349 C   0  0  0  0  0  0
  -21.9195   -4.6959   22.3403 C   0  0  0  0  0  0
  -22.7869  -13.5241   21.1824 C   0  0  0  0  0  0
  -22.1667   -4.2151   21.0974 F   0  0  0  0  0  0
  -21.5631   -3.4535   25.7747 F   0  0  0  0  0  0
  -30.0478  -13.2521   20.4587 N   0  0  0  0  0  0
  -26.3041  -12.9339   20.3377 N   0  0  0  0  0  0
  -25.9317  -11.6496   20.5741 N   0  0  0  0  0  0
  -22.0509  -12.8237   22.0363 N   0  0  0  0  0  0
  -25.4327  -15.1893   20.4107 N   0  0  0  0  0  0
  -31.7968  -14.6620   20.0578 O   0  0  0  0  0  0
  -21.6629   -6.8885   21.4240 O   0  0  0  0  0  0
  -22.3556  -14.5551   20.6671 O   0  0  0  0  0  0
  -24.6169  -31.8681   23.2133 C   0  0  0  0  0  0
  -25.9071  -32.4819   23.8423 C   0  0  1  0  0  0
  -27.2210  -27.4275   20.0820 C   0  0  0  0  0  0
  -25.5936  -33.8616   24.2350 N   0  0  0  0  0  0
  -23.4014  -30.4968   21.5559 C   0  0  2  0  0  0
  -24.8412  -28.9726   20.1148 C   0  0  0  0  0  0
  -22.7398  -29.4673   22.5010 C   0  0  0  0  0  0
  -18.0272  -28.1357   22.8511 C   0  0  0  0  0  0
  -24.1469  -36.7292   23.2647 C   0  0  0  0  0  0
  -25.9354  -30.8316   21.3678 C   0  0  0  0  0  0
  -26.0074  -29.4695   20.7095 C   0  0  0  0  0  0
  -27.2001  -28.7058   20.6892 C   0  0  0  0  0  0
  -26.0246  -26.9553   19.4828 C   0  0  0  0  0  0
  -24.8452  -27.7137   19.4998 C   0  0  0  0  0  0
  -23.6053  -29.8389   20.1680 C   0  0  0  0  0  0
  -25.4105  -36.3112   24.0345 C   0  0  1  0  0  0
  -20.5859  -28.3642   23.1309 C   0  0  2  0  0  0
  -20.6756  -26.9378   22.5401 C   0  0  0  0  0  0
  -19.5725  -26.6370   21.5202 C   0  0  0  0  0  0
  -18.1901  -26.7916   22.1611 C   0  0  0  0  0  0
  -19.1519  -28.8825   23.2904 C   0  0  0  0  0  0
  -18.9451  -30.1437   23.8899 C   0  0  0  0  0  0
  -17.6454  -30.6567   24.0566 C   0  0  0  0  0  0
  -25.9050  -34.9475   23.5140 C   0  0  0  0  0  0
  -16.5348  -29.9066   23.6342 C   0  0  0  0  0  0
  -16.7263  -28.6477   23.0371 C   0  0  0  0  0  0
  -26.4491  -31.6594   25.0752 C   0  0  0  0  0  0
  -25.3768  -31.3611   26.1484 C   0  0  0  0  0  0
  -27.0359  -30.3068   24.6113 C   0  0  0  0  0  0
  -27.6034  -32.4334   25.7539 C   0  0  0  0  0  0
  -27.5580  -37.1810   24.8471 C   0  0  0  0  0  0
  -21.4124  -29.3036   22.3739 N   0  0  0  0  0  0
  -26.4282  -37.3811   23.9430 N   0  0  0  0  0  0
  -24.6703  -31.0796   22.1033 N   0  0  0  0  0  0
  -23.4179  -28.8209   23.3044 O   0  0  0  0  0  0
  -28.3841  -26.6718   20.0938 O   0  0  0  0  0  0
  -26.5575  -34.8925   22.4677 O   0  0  0  0  0  0
  -23.5360  -32.1429   23.7536 O   0  0  0  0  0  0
  -30.7562  -20.4455   21.3362 C   0  0  0  0  0  0
  -30.5151  -21.6707   20.6864 C   0  0  0  0  0  0
  -28.4185  -19.7966   21.0198 C   0  0  0  0  0  0
  -28.1859  -21.0246   20.3405 C   0  0  0  0  0  0
  -29.7196  -19.4991   21.5031 C   0  0  0  0  0  0
  -29.2350  -21.9623   20.1741 C   0  0  0  0  0  0
  -27.2649  -18.8072   21.2035 C   0  0  0  0  0  0
  -26.8093  -21.3469   19.7679 C   0  0  0  0  0  0
  -31.1080  -17.5004   21.6790 C   0  0  0  0  0  0
  -31.1877  -16.1434   22.4006 C   0  0  0  0  0  0
  -28.2206  -25.2838   19.7603 C   0  0  0  0  0  0
  -29.4336  -24.3630   19.9588 C   0  0  0  0  0  0
  -29.9681  -18.2778   22.1481 N   0  0  0  0  0  0
  -30.3940  -15.0993   21.7532 N   0  0  0  0  0  0
  -28.9971  -23.1022   19.4417 O   0  0  0  0  0  0
  -31.4582  -12.4019   19.0891 H   0  0  0  0  0  0
  -30.3145  -11.2815   19.7651 H   0  0  0  0  0  0
  -29.7194  -11.8337   17.3906 H   0  0  0  0  0  0
  -29.6490  -13.5343   17.7864 H   0  0  0  0  0  0
  -27.8180  -11.3255   18.7891 H   0  0  0  0  0  0
  -27.3541  -12.6769   17.7893 H   0  0  0  0  0  0
  -27.7214  -14.2608   19.6047 H   0  0  0  0  0  0
  -28.6696  -11.9245   21.3266 H   0  0  0  0  0  0
  -28.4505  -13.5543   21.8777 H   0  0  0  0  0  0
  -25.2737   -9.5721   22.4774 H   0  0  0  0  0  0
  -23.9980   -7.4674   22.7512 H   0  0  0  0  0  0
  -21.0838   -8.8754   19.8961 H   0  0  0  0  0  0
  -22.3674  -10.9666   19.6154 H   0  0  0  0  0  0
  -21.2000   -7.6138   23.9717 H   0  0  0  0  0  0
  -21.1471   -6.0513   25.9072 H   0  0  0  0  0  0
  -22.0604   -2.7609   23.2844 H   0  0  0  0  0  0
  -22.4106  -11.9881   22.4733 H   0  0  0  0  0  0
  -21.1126  -13.1253   22.2563 H   0  0  0  0  0  0
  -24.6672  -15.8462   20.5151 H   0  0  0  0  0  0
  -26.2931  -15.6260   20.1033 H   0  0  0  0  0  0
  -26.7157  -32.5523   23.1198 H   0  0  0  0  0  0
  -25.0182  -33.9779   25.0562 H   0  0  0  0  0  0
  -22.6915  -31.3154   21.4214 H   0  0  0  0  0  0
  -23.3770  -35.9578   23.3258 H   0  0  0  0  0  0
  -24.3591  -36.8964   22.2078 H   0  0  0  0  0  0
  -23.7145  -37.6448   23.6698 H   0  0  0  0  0  0
  -26.0569  -31.6020   20.6053 H   0  0  0  0  0  0
  -26.8203  -30.8757   21.9897 H   0  0  0  0  0  0
  -28.0995  -29.0877   21.1513 H   0  0  0  0  0  0
  -25.9578  -25.9972   18.9908 H   0  0  0  0  0  0
  -23.9490  -27.3207   19.0388 H   0  0  0  0  0  0
  -23.7141  -30.6158   19.4107 H   0  0  0  0  0  0
  -22.7282  -29.2599   19.8733 H   0  0  0  0  0  0
  -25.1272  -36.1994   25.0837 H   0  0  0  0  0  0
  -20.9944  -28.3208   24.1428 H   0  0  0  0  0  0
  -20.5659  -26.2245   23.3577 H   0  0  0  0  0  0
  -21.6634  -26.7413   22.1210 H   0  0  0  0  0  0
  -19.6875  -25.6284   21.1222 H   0  0  0  0  0  0
  -19.6657  -27.3193   20.6741 H   0  0  0  0  0  0
  -17.4174  -26.6700   21.4003 H   0  0  0  0  0  0
  -18.0272  -26.0038   22.8978 H   0  0  0  0  0  0
  -19.7925  -30.7268   24.2260 H   0  0  0  0  0  0
  -17.4995  -31.6244   24.5161 H   0  0  0  0  0  0
  -15.5354  -30.2964   23.7652 H   0  0  0  0  0  0
  -15.8665  -28.0783   22.7098 H   0  0  0  0  0  0
  -24.5989  -30.6918   25.7787 H   0  0  0  0  0  0
  -24.8908  -32.2713   26.4999 H   0  0  0  0  0  0
  -25.8160  -30.8739   27.0198 H   0  0  0  0  0  0
  -26.2899  -29.6796   24.1214 H   0  0  0  0  0  0
  -27.4211  -29.7342   25.4562 H   0  0  0  0  0  0
  -27.8689  -30.4442   23.9216 H   0  0  0  0  0  0
  -27.2636  -33.3656   26.2053 H   0  0  0  0  0  0
  -28.3880  -32.6843   25.0396 H   0  0  0  0  0  0
  -28.0638  -31.8487   26.5508 H   0  0  0  0  0  0
  -28.2569  -38.0141   24.7625 H   0  0  0  0  0  0
  -28.1121  -36.2687   24.6210 H   0  0  0  0  0  0
  -27.2293  -37.1360   25.8865 H   0  0  0  0  0  0
  -20.9268  -29.8798   21.7004 H   0  0  0  0  0  0
  -26.0166  -38.2875   24.1486 H   0  0  0  0  0  0
  -31.7519  -20.2481   21.7062 H   0  0  0  0  0  0
  -31.3281  -22.3708   20.5548 H   0  0  0  0  0  0
  -26.8081  -18.5700   20.2431 H   0  0  0  0  0  0
  -26.4972  -19.2386   21.8466 H   0  0  0  0  0  0
  -27.5518  -17.8586   21.6549 H   0  0  0  0  0  0
  -26.0029  -20.9679   20.3948 H   0  0  0  0  0  0
  -26.7065  -20.9043   18.7767 H   0  0  0  0  0  0
  -26.6468  -22.4211   19.6769 H   0  0  0  0  0  0
  -31.0747  -17.3718   20.5961 H   0  0  0  0  0  0
  -32.0236  -18.0512   21.8994 H   0  0  0  0  0  0
  -30.8918  -16.2331   23.4470 H   0  0  0  0  0  0
  -32.2289  -15.8148   22.4239 H   0  0  0  0  0  0
  -27.4056  -24.8649   20.3552 H   0  0  0  0  0  0
  -27.9360  -25.2106   18.7096 H   0  0  0  0  0  0
  -29.7225  -24.3228   21.0102 H   0  0  0  0  0  0
  -30.2890  -24.7185   19.3831 H   0  0  0  0  0  0
  -29.1395  -17.7132   22.3035 H   0  0  0  0  0  0
  -29.5546  -14.7994   22.2250 H   0  0  0  0  0  0
  1 25  1  0  0  0
  1 30  2  0  0  0
  1 84  1  0  0  0
  2  3  1  0  0  0
  2 25  1  0  0  0
  2 86  1  0  0  0
  2 87  1  0  0  0
  3  4  1  0  0  0
  3 88  1  0  0  0
  3 89  1  0  0  0
  4  5  1  0  0  0
  4 90  1  0  0  0
  4 91  1  0  0  0
  5  6  1  0  0  0
  5 26  1  0  0  0
  5 92  1  0  0  0
  6 25  1  0  0  0
  6 93  1  0  0  0
  6 94  1  0  0  0
  7  8  2  0  0  0
  7 26  1  0  0  0
  7 29  1  0  0  0
  8  9  1  0  0  0
  8 22  1  0  0  0
  9 10  1  0  0  0
  9 27  2  0  0  0
 10 11  2  0  0  0
 10 15  1  0  0  0
 11 12  1  0  0  0
 11 95  1  0  0  0
 12 13  2  0  0  0
 12 96  1  0  0  0
 13 14  1  0  0  0
 13 31  1  0  0  0
 14 15  2  0  0  0
 14 97  1  0  0  0
 15 98  1  0  0  0
 16 17  2  0  0  0
 16 21  1  0  0  0
 16 31  1  0  0  0
 17 18  1  0  0  0
 17 99  1  0  0  0
 18 19  2  0  0  0
 18100  1  0  0  0
 19 20  1  0  0  0
 19 24  1  0  0  0
 20 21  2  0  0  0
 20101  1  0  0  0
 21 23  1  0  0  0
 22 28  1  0  0  0
 22 32  2  0  0  0
 26 27  1  0  0  0
 28102  1  0  0  0
 28103  1  0  0  0
 29104  1  0  0  0
 29105  1  0  0  0
 33 34  1  0  0  0
 33 66  1  0  0  0
 33 70  2  0  0  0
 34 36  1  0  0  0
 34 59  1  0  0  0
 34106  1  0  0  0
 35 44  2  0  0  0
 35 45  1  0  0  0
 35 68  1  0  0  0
 36 56  1  0  0  0
 36107  1  0  0  0
 37 39  1  0  0  0
 37 47  1  0  0  0
 37 66  1  0  0  0
 37108  1  0  0  0
 38 43  2  0  0  0
 38 46  1  0  0  0
 38 47  1  0  0  0
 39 64  1  0  0  0
 39 67  2  0  0  0
 40 52  1  0  0  0
 40 53  2  0  0  0
 40 58  1  0  0  0
 41109  1  0  0  0
 41110  1  0  0  0
 41111  1  0  0  0
 41 48  1  0  0  0
 42 43  1  0  0  0
 42 66  1  0  0  0
 42112  1  0  0  0
 42113  1  0  0  0
 43 44  1  0  0  0
 44114  1  0  0  0
 45 46  2  0  0  0
 45115  1  0  0  0
 46116  1  0  0  0
 47117  1  0  0  0
 47118  1  0  0  0
 48 56  1  0  0  0
 48 65  1  0  0  0
 48119  1  0  0  0
 49 50  1  0  0  0
 49 53  1  0  0  0
 49 64  1  0  0  0
 49120  1  0  0  0
 50 51  1  0  0  0
 50121  1  0  0  0
 50122  1  0  0  0
 51 52  1  0  0  0
 51123  1  0  0  0
 51124  1  0  0  0
 52125  1  0  0  0
 52126  1  0  0  0
 53 54  1  0  0  0
 54 55  2  0  0  0
 54127  1  0  0  0
 55 57  1  0  0  0
 55128  1  0  0  0
 56 69  2  0  0  0
 57 58  2  0  0  0
 57129  1  0  0  0
 58130  1  0  0  0
 59 60  1  0  0  0
 59 61  1  0  0  0
 59 62  1  0  0  0
 60131  1  0  0  0
 60132  1  0  0  0
 60133  1  0  0  0
 61134  1  0  0  0
 61135  1  0  0  0
 61136  1  0  0  0
 62137  1  0  0  0
 62138  1  0  0  0
 62139  1  0  0  0
 63 65  1  0  0  0
 63140  1  0  0  0
 63141  1  0  0  0
 63142  1  0  0  0
 64143  1  0  0  0
 65144  1  0  0  0
 68 81  1  0  0  0
 71 72  2  0  0  0
 71 75  1  0  0  0
 71145  1  0  0  0
 72 76  1  0  0  0
 72146  1  0  0  0
 73 74  1  0  0  0
 73 75  2  0  0  0
 73 77  1  0  0  0
 74 76  2  0  0  0
 74 78  1  0  0  0
 75 83  1  0  0  0
 76 85  1  0  0  0
 77147  1  0  0  0
 77148  1  0  0  0
 77149  1  0  0  0
 78150  1  0  0  0
 78151  1  0  0  0
 78152  1  0  0  0
 79 80  1  0  0  0
 79 83  1  0  0  0
 79153  1  0  0  0
 79154  1  0  0  0
 80 84  1  0  0  0
 80155  1  0  0  0
 80156  1  0  0  0
 81 82  1  0  0  0
 81157  1  0  0  0
 81158  1  0  0  0
 82 85  1  0  0  0
 82159  1  0  0  0
 82160  1  0  0  0
 83161  1  0  0  0
 84162  1  0  0  0
M  ISO  4   1 100  68 101  81 101  84 100
M  END
> <chiral flag>
0

> <version>
0

> <s_m_source_file>
/data/baiqing/PycharmProjects/Reinvent-master-3.2/result/LINK_invent/BTK/process_docking_weight1_custom_sum_contain_oxygen_bond_distance_aromatic_linkinvent_7_9_3/rearranged_h_0131.sdf

> <i_m_source_file_index>
5

> <r_mmod_Potential_Energy-OPLS-2005>
-163.98405456543

> <r_mmod_Stretch_Energy-OPLS-2005>
37.1506881713867

> <r_mmod_Bend_Energy-OPLS-2005>
102.255981445312

> <r_mmod_Torsional_Energy-OPLS-2005>
223.027862548828

> <r_mmod_Improper_Torsional_Energy-OPLS-2005>
6.64527416229248

> <r_mmod_Van_der_Waal_Energy-OPLS-2005>
170.989013671875

> <r_mmod_Electrostatic_Energy-OPLS-2005>
-492.325500488281

> <r_mmod_Solvation_Energy-OPLS-2005>
-221.474624633789

> <b_mmod_Minimization_Converged-OPLS-2005>
0

> <r_mmod_RMS_Derivative-OPLS-2005>
2.02253794670105

$$$$
5
                    3D
 Structure written by MMmdl.
152160  0  0  1  0            999 V2000
  -30.5040  -15.0439   20.4019 C   0  0  0  0  0  0
  -30.4411  -12.6531   19.5041 C   0  0  0  0  0  0
  -29.5264  -12.5411   18.2617 C   0  0  0  0  0  0
  -28.0633  -12.3081   18.6828 C   0  0  0  0  0  0
  -27.6233  -13.2544   19.8299 C   0  0  2  0  0  0
  -28.6637  -13.3266   20.9667 C   0  0  0  0  0  0
  -25.2441  -13.8216   20.5707 C   0  0  0  0  0  0
  -24.1770  -13.0435   20.9237 C   0  0  0  0  0  0
  -24.6396  -11.6924   20.8758 C   0  0  0  0  0  0
  -23.9084  -10.4295   21.0408 C   0  0  0  0  0  0
  -24.3629   -9.4207   21.9185 C   0  0  0  0  0  0
  -23.6302   -8.2243   22.0754 C   0  0  0  0  0  0
  -22.4285   -8.0281   21.3543 C   0  0  0  0  0  0
  -21.9923   -9.0257   20.4646 C   0  0  0  0  0  0
  -22.7255  -10.2135   20.3056 C   0  0  0  0  0  0
  -21.6856   -6.0738   22.5279 C   0  0  0  0  0  0
  -21.4016   -6.5640   23.8212 C   0  0  0  0  0  0
  -21.3661   -5.6792   24.9173 C   0  0  0  0  0  0
  -21.6045   -4.3056   24.7224 C   0  0  0  0  0  0
  -21.8820   -3.8147   23.4345 C   0  0  0  0  0  0
  -21.9194   -4.6964   22.3401 C   0  0  0  0  0  0
  -22.7791  -13.5206   21.1886 C   0  0  0  0  0  0
  -22.1662   -4.2149   21.0980 F   0  0  0  0  0  0
  -21.5627   -3.4538   25.7735 F   0  0  0  0  0  0
  -29.9243  -13.7681   20.3565 N   0  0  0  0  0  0
  -26.2859  -12.9456   20.3212 N   0  0  0  0  0  0
  -25.9325  -11.6582   20.5724 N   0  0  0  0  0  0
  -22.0438  -12.8197   22.0440 N   0  0  0  0  0  0
  -25.4092  -15.1947   20.4117 N   0  0  0  0  0  0
  -31.7184  -15.0926   20.1729 O   0  0  0  0  0  0
  -21.6643   -6.8882   21.4241 O   0  0  0  0  0  0
  -22.3477  -14.5509   20.6725 O   0  0  0  0  0  0
  -24.6492  -31.8377   23.1817 C   0  0  0  0  0  0
  -25.9234  -32.4660   23.8235 C   0  0  1  0  0  0
  -27.2169  -27.0699   20.1705 C   0  0  0  0  0  0
  -25.5957  -33.8470   24.2148 N   0  0  0  0  0  0
  -23.4562  -30.4528   21.5292 C   0  0  2  0  0  0
  -24.9061  -28.8615   20.1162 C   0  0  0  0  0  0
  -22.7595  -29.4511   22.4847 C   0  0  0  0  0  0
  -18.0307  -28.1400   22.8476 C   0  0  0  0  0  0
  -24.1493  -36.7242   23.2644 C   0  0  0  0  0  0
  -26.0156  -30.6909   21.3884 C   0  0  0  0  0  0
  -26.0861  -29.2936   20.7350 C   0  0  0  0  0  0
  -27.2431  -28.4173   20.7361 C   0  0  0  0  0  0
  -26.0101  -26.7495   19.5149 C   0  0  0  0  0  0
  -24.8845  -27.6059   19.4882 C   0  0  0  0  0  0
  -23.6868  -29.7734   20.1525 C   0  0  0  0  0  0
  -25.4129  -36.3013   24.0308 C   0  0  1  0  0  0
  -20.5924  -28.3730   23.1228 C   0  0  2  0  0  0
  -20.6791  -26.9427   22.5407 C   0  0  0  0  0  0
  -19.5765  -26.6380   21.5216 C   0  0  0  0  0  0
  -18.1946  -26.7937   22.1625 C   0  0  0  0  0  0
  -19.1564  -28.8884   23.2841 C   0  0  0  0  0  0
  -18.9480  -30.1479   23.8867 C   0  0  0  0  0  0
  -17.6474  -30.6595   24.0557 C   0  0  0  0  0  0
  -25.9083  -34.9389   23.5043 C   0  0  0  0  0  0
  -16.5365  -29.9086   23.6338 C   0  0  0  0  0  0
  -16.7289  -28.6505   23.0358 C   0  0  0  0  0  0
  -26.4534  -31.6555   25.0706 C   0  0  0  0  0  0
  -25.3698  -31.3763   26.1386 C   0  0  0  0  0  0
  -27.0411  -30.2944   24.6331 C   0  0  0  0  0  0
  -27.6049  -32.4338   25.7499 C   0  0  0  0  0  0
  -27.5574  -37.1778   24.8464 C   0  0  0  0  0  0
  -21.4281  -29.3043   22.3593 N   0  0  0  0  0  0
  -26.4287  -37.3734   23.9405 N   0  0  0  0  0  0
  -24.7274  -31.0172   22.0878 N   0  0  0  0  0  0
  -23.4208  -28.8072   23.3032 O   0  0  0  0  0  0
  -28.2776  -26.0742   20.1877 O   0  0  0  0  0  0
  -26.5680  -34.8900   22.4629 O   0  0  0  0  0  0
  -23.5596  -32.1281   23.6998 O   0  0  0  0  0  0
  -30.1331  -23.4712   17.3417 C   0  0  0  0  0  0
  -30.4530  -22.1194   17.3994 C   0  0  0  0  0  0
  -29.3972  -24.0504   18.3797 C   0  0  0  0  0  0
  -30.0254  -21.3480   18.4854 C   0  0  0  0  0  0
  -28.9291  -23.3552   19.5261 C   0  0  0  0  0  0
  -29.2566  -21.8370   19.5777 C   0  0  0  0  0  0
  -28.0981  -24.5022   20.3991 C   0  0  0  0  0  0
  -28.9476  -19.1066   20.1502 C   0  0  0  0  0  0
  -30.0339  -17.8292   20.5324 C   0  0  0  0  0  0
  -29.0449  -20.6693   20.4897 N   0  0  0  0  0  0
  -29.7186  -16.2492   20.5010 N   0  0  0  0  0  0
  -31.4705  -12.8289   19.1884 H   0  0  0  0  0  0
  -30.4564  -11.7147   20.0610 H   0  0  0  0  0  0
  -29.8650  -11.7334   17.6114 H   0  0  0  0  0  0
  -29.5961  -13.4574   17.6733 H   0  0  0  0  0  0
  -27.9793  -11.2714   19.0104 H   0  0  0  0  0  0
  -27.3986  -12.4112   17.8244 H   0  0  0  0  0  0
  -27.5717  -14.2465   19.3803 H   0  0  0  0  0  0
  -28.7766  -12.3624   21.4644 H   0  0  0  0  0  0
  -28.3460  -14.0370   21.7318 H   0  0  0  0  0  0
  -25.2774   -9.5683   22.4762 H   0  0  0  0  0  0
  -24.0007   -7.4639   22.7477 H   0  0  0  0  0  0
  -21.0852   -8.8782   19.8960 H   0  0  0  0  0  0
  -22.3712  -10.9673   19.6168 H   0  0  0  0  0  0
  -21.2010   -7.6148   23.9717 H   0  0  0  0  0  0
  -21.1481   -6.0521   25.9077 H   0  0  0  0  0  0
  -22.0598   -2.7609   23.2844 H   0  0  0  0  0  0
  -22.4060  -11.9869   22.4842 H   0  0  0  0  0  0
  -21.1051  -13.1217   22.2635 H   0  0  0  0  0  0
  -24.6352  -15.8420   20.5161 H   0  0  0  0  0  0
  -26.2433  -15.6339   20.0447 H   0  0  0  0  0  0
  -26.7300  -32.5247   23.0959 H   0  0  0  0  0  0
  -25.0062  -33.9574   25.0268 H   0  0  0  0  0  0
  -22.7621  -31.2802   21.3678 H   0  0  0  0  0  0
  -23.3762  -35.9566   23.3289 H   0  0  0  0  0  0
  -24.3572  -36.8899   22.2062 H   0  0  0  0  0  0
  -23.7243  -37.6427   23.6701 H   0  0  0  0  0  0
  -26.1770  -31.4399   20.6118 H   0  0  0  0  0  0
  -26.8835  -30.7458   22.0341 H   0  0  0  0  0  0
  -28.1469  -28.7488   21.2279 H   0  0  0  0  0  0
  -25.9196  -25.7906   19.0247 H   0  0  0  0  0  0
  -23.9854  -27.2721   18.9885 H   0  0  0  0  0  0
  -23.8304  -30.5434   19.3937 H   0  0  0  0  0  0
  -22.7996  -29.2191   19.8407 H   0  0  0  0  0  0
  -25.1323  -36.1830   25.0801 H   0  0  0  0  0  0
  -21.0010  -28.3323   24.1352 H   0  0  0  0  0  0
  -20.5687  -26.2341   23.3631 H   0  0  0  0  0  0
  -21.6656  -26.7430   22.1203 H   0  0  0  0  0  0
  -19.6928  -25.6283   21.1265 H   0  0  0  0  0  0
  -19.6704  -27.3173   20.6734 H   0  0  0  0  0  0
  -17.4217  -26.6680   21.4027 H   0  0  0  0  0  0
  -18.0343  -26.0085   22.9028 H   0  0  0  0  0  0
  -19.7954  -30.7304   24.2224 H   0  0  0  0  0  0
  -17.5025  -31.6271   24.5166 H   0  0  0  0  0  0
  -15.5364  -30.2976   23.7680 H   0  0  0  0  0  0
  -15.8690  -28.0812   22.7091 H   0  0  0  0  0  0
  -24.5880  -30.7114   25.7695 H   0  0  0  0  0  0
  -24.8886  -32.2951   26.4745 H   0  0  0  0  0  0
  -25.7959  -30.8969   27.0209 H   0  0  0  0  0  0
  -26.3042  -29.6650   24.1327 H   0  0  0  0  0  0
  -27.3990  -29.7266   25.4930 H   0  0  0  0  0  0
  -27.8963  -30.4167   23.9681 H   0  0  0  0  0  0
  -27.2629  -33.3661   26.2008 H   0  0  0  0  0  0
  -28.3896  -32.6867   25.0355 H   0  0  0  0  0  0
  -28.0680  -31.8512   26.5474 H   0  0  0  0  0  0
  -28.2580  -38.0084   24.7510 H   0  0  0  0  0  0
  -28.1081  -36.2612   24.6293 H   0  0  0  0  0  0
  -27.2287  -37.1426   25.8865 H   0  0  0  0  0  0
  -20.9509  -29.8738   21.6745 H   0  0  0  0  0  0
  -26.0146  -38.2798   24.1409 H   0  0  0  0  0  0
  -30.4549  -24.0720   16.5017 H   0  0  0  0  0  0
  -31.0335  -21.6656   16.6082 H   0  0  0  0  0  0
  -29.1824  -25.1018   18.2609 H   0  0  0  0  0  0
  -30.3499  -20.3191   18.4504 H   0  0  0  0  0  0
  -28.3283  -24.3089   21.4470 H   0  0  0  0  0  0
  -27.0408  -24.2588   20.2991 H   0  0  0  0  0  0
  -28.0113  -18.8165   20.6293 H   0  0  0  0  0  0
  -28.7145  -19.0185   19.0880 H   0  0  0  0  0  0
  -30.3742  -18.0135   21.5519 H   0  0  0  0  0  0
  -30.9247  -17.9715   19.9192 H   0  0  0  0  0  0
  -28.6055  -20.9131   21.3757 H   0  0  0  0  0  0
  -28.7369  -16.0462   20.6167 H   0  0  0  0  0  0
  1 25  1  0  0  0
  1 30  2  0  0  0
  1 81  1  0  0  0
  2  3  1  0  0  0
  2 25  1  0  0  0
  2 82  1  0  0  0
  2 83  1  0  0  0
  3  4  1  0  0  0
  3 84  1  0  0  0
  3 85  1  0  0  0
  4  5  1  0  0  0
  4 86  1  0  0  0
  4 87  1  0  0  0
  5  6  1  0  0  0
  5 26  1  0  0  0
  5 88  1  0  0  0
  6 25  1  0  0  0
  6 89  1  0  0  0
  6 90  1  0  0  0
  7  8  2  0  0  0
  7 26  1  0  0  0
  7 29  1  0  0  0
  8  9  1  0  0  0
  8 22  1  0  0  0
  9 10  1  0  0  0
  9 27  2  0  0  0
 10 11  2  0  0  0
 10 15  1  0  0  0
 11 12  1  0  0  0
 11 91  1  0  0  0
 12 13  2  0  0  0
 12 92  1  0  0  0
 13 14  1  0  0  0
 13 31  1  0  0  0
 14 15  2  0  0  0
 14 93  1  0  0  0
 15 94  1  0  0  0
 16 17  2  0  0  0
 16 21  1  0  0  0
 16 31  1  0  0  0
 17 18  1  0  0  0
 17 95  1  0  0  0
 18 19  2  0  0  0
 18 96  1  0  0  0
 19 20  1  0  0  0
 19 24  1  0  0  0
 20 21  2  0  0  0
 20 97  1  0  0  0
 21 23  1  0  0  0
 22 28  1  0  0  0
 22 32  2  0  0  0
 26 27  1  0  0  0
 28 98  1  0  0  0
 28 99  1  0  0  0
 29100  1  0  0  0
 29101  1  0  0  0
 33 34  1  0  0  0
 33 66  1  0  0  0
 33 70  2  0  0  0
 34 36  1  0  0  0
 34 59  1  0  0  0
 34102  1  0  0  0
 35 44  2  0  0  0
 35 45  1  0  0  0
 35 68  1  0  0  0
 36 56  1  0  0  0
 36103  1  0  0  0
 37 39  1  0  0  0
 37 47  1  0  0  0
 37 66  1  0  0  0
 37104  1  0  0  0
 38 43  2  0  0  0
 38 46  1  0  0  0
 38 47  1  0  0  0
 39 64  1  0  0  0
 39 67  2  0  0  0
 40 52  1  0  0  0
 40 53  2  0  0  0
 40 58  1  0  0  0
 41105  1  0  0  0
 41106  1  0  0  0
 41107  1  0  0  0
 41 48  1  0  0  0
 42 43  1  0  0  0
 42 66  1  0  0  0
 42108  1  0  0  0
 42109  1  0  0  0
 43 44  1  0  0  0
 44110  1  0  0  0
 45 46  2  0  0  0
 45111  1  0  0  0
 46112  1  0  0  0
 47113  1  0  0  0
 47114  1  0  0  0
 48 56  1  0  0  0
 48 65  1  0  0  0
 48115  1  0  0  0
 49 50  1  0  0  0
 49 53  1  0  0  0
 49 64  1  0  0  0
 49116  1  0  0  0
 50 51  1  0  0  0
 50117  1  0  0  0
 50118  1  0  0  0
 51 52  1  0  0  0
 51119  1  0  0  0
 51120  1  0  0  0
 52121  1  0  0  0
 52122  1  0  0  0
 53 54  1  0  0  0
 54 55  2  0  0  0
 54123  1  0  0  0
 55 57  1  0  0  0
 55124  1  0  0  0
 56 69  2  0  0  0
 57 58  2  0  0  0
 57125  1  0  0  0
 58126  1  0  0  0
 59 60  1  0  0  0
 59 61  1  0  0  0
 59 62  1  0  0  0
 60127  1  0  0  0
 60128  1  0  0  0
 60129  1  0  0  0
 61130  1  0  0  0
 61131  1  0  0  0
 61132  1  0  0  0
 62133  1  0  0  0
 62134  1  0  0  0
 62135  1  0  0  0
 63 65  1  0  0  0
 63136  1  0  0  0
 63137  1  0  0  0
 63138  1  0  0  0
 64139  1  0  0  0
 65140  1  0  0  0
 68 77  1  0  0  0
 71 72  2  0  0  0
 71 73  1  0  0  0
 71141  1  0  0  0
 72 74  1  0  0  0
 72142  1  0  0  0
 73 75  2  0  0  0
 73143  1  0  0  0
 74 76  2  0  0  0
 74144  1  0  0  0
 75 76  1  0  0  0
 75 77  1  0  0  0
 76 80  1  0  0  0
 77145  1  0  0  0
 77146  1  0  0  0
 78 79  1  0  0  0
 78 80  1  0  0  0
 78147  1  0  0  0
 78148  1  0  0  0
 79 81  1  0  0  0
 79149  1  0  0  0
 79150  1  0  0  0
 80151  1  0  0  0
 81152  1  0  0  0
M  ISO  4   1 100  68 101  77 101  81 100
M  END
> <chiral flag>
0

> <version>
0

> <s_m_source_file>
/data/baiqing/PycharmProjects/Reinvent-master-3.2/result/LINK_invent/BTK/process_docking_weight1_custom_sum_contain_oxygen_bond_distance_aromatic_linkinvent_7_9_3/rearranged_h_0131.sdf

> <i_m_source_file_index>
6

> <r_mmod_Potential_Energy-OPLS-2005>
732.74853515625

> <r_mmod_Stretch_Energy-OPLS-2005>
360.010192871094

> <r_mmod_Bend_Energy-OPLS-2005>
374.433563232422

> <r_mmod_Torsional_Energy-OPLS-2005>
217.633102416992

> <r_mmod_Improper_Torsional_Energy-OPLS-2005>
5.55056858062744

> <r_mmod_Van_der_Waal_Energy-OPLS-2005>
135.489044189453

> <r_mmod_Electrostatic_Energy-OPLS-2005>
-387.115570068359

> <r_mmod_Solvation_Energy-OPLS-2005>
-230.194732666016

> <b_mmod_Minimization_Converged-OPLS-2005>
0

> <r_mmod_RMS_Derivative-OPLS-2005>
0.545259058475494

$$$$
6
                    3D
 Structure written by MMmdl.
154162  0  0  1  0            999 V2000
  -30.6220  -14.7608   20.4455 C   0  0  0  0  0  0
  -30.4311  -12.4633   19.4843 C   0  0  0  0  0  0
  -29.5199  -12.5249   18.2382 C   0  0  0  0  0  0
  -28.0434  -12.3473   18.6386 C   0  0  0  0  0  0
  -27.6406  -13.2419   19.8420 C   0  0  2  0  0  0
  -28.6812  -13.1940   20.9824 C   0  0  0  0  0  0
  -25.2519  -13.8212   20.5653 C   0  0  0  0  0  0
  -24.1810  -13.0448   20.9172 C   0  0  0  0  0  0
  -24.6423  -11.6940   20.8715 C   0  0  0  0  0  0
  -23.9090  -10.4314   21.0369 C   0  0  0  0  0  0
  -24.3640   -9.4221   21.9157 C   0  0  0  0  0  0
  -23.6323   -8.2251   22.0725 C   0  0  0  0  0  0
  -22.4296   -8.0288   21.3537 C   0  0  0  0  0  0
  -21.9947   -9.0253   20.4616 C   0  0  0  0  0  0
  -22.7263  -10.2134   20.3024 C   0  0  0  0  0  0
  -21.6865   -6.0748   22.5271 C   0  0  0  0  0  0
  -21.4023   -6.5646   23.8207 C   0  0  0  0  0  0
  -21.3662   -5.6787   24.9166 C   0  0  0  0  0  0
  -21.6027   -4.3047   24.7208 C   0  0  0  0  0  0
  -21.8820   -3.8147   23.4328 C   0  0  0  0  0  0
  -21.9198   -4.6977   22.3393 C   0  0  0  0  0  0
  -22.7820  -13.5217   21.1851 C   0  0  0  0  0  0
  -22.1649   -4.2161   21.0970 F   0  0  0  0  0  0
  -21.5650   -3.4526   25.7720 F   0  0  0  0  0  0
  -29.9881  -13.5346   20.4094 N   0  0  0  0  0  0
  -26.2949  -12.9444   20.3212 N   0  0  0  0  0  0
  -25.9343  -11.6573   20.5679 N   0  0  0  0  0  0
  -22.0444  -12.8211   22.0399 N   0  0  0  0  0  0
  -25.4227  -15.1933   20.4091 N   0  0  0  0  0  0
  -31.8211  -14.8152   20.1545 O   0  0  0  0  0  0
  -21.6640   -6.8890   21.4240 O   0  0  0  0  0  0
  -22.3479  -14.5486   20.6674 O   0  0  0  0  0  0
  -24.6314  -31.8535   23.1942 C   0  0  0  0  0  0
  -25.9123  -32.4737   23.8300 C   0  0  1  0  0  0
  -27.2091  -27.2362   20.1517 C   0  0  0  0  0  0
  -25.5928  -33.8538   24.2240 N   0  0  0  0  0  0
  -23.4275  -30.4720   21.5421 C   0  0  2  0  0  0
  -24.8705  -28.9022   20.1219 C   0  0  0  0  0  0
  -22.7488  -29.4571   22.4939 C   0  0  0  0  0  0
  -18.0294  -28.1373   22.8493 C   0  0  0  0  0  0
  -24.1502  -36.7290   23.2638 C   0  0  0  0  0  0
  -25.9719  -30.7559   21.3723 C   0  0  0  0  0  0
  -26.0426  -29.3705   20.7302 C   0  0  0  0  0  0
  -27.2163  -28.5492   20.7344 C   0  0  0  0  0  0
  -26.0164  -26.8257   19.5250 C   0  0  0  0  0  0
  -24.8612  -27.6361   19.5119 C   0  0  0  0  0  0
  -23.6442  -29.7959   20.1625 C   0  0  0  0  0  0
  -25.4132  -36.3070   24.0323 C   0  0  1  0  0  0
  -20.5886  -28.3672   23.1299 C   0  0  2  0  0  0
  -20.6779  -26.9393   22.5422 C   0  0  0  0  0  0
  -19.5762  -26.6372   21.5222 C   0  0  0  0  0  0
  -18.1933  -26.7922   22.1625 C   0  0  0  0  0  0
  -19.1542  -28.8844   23.2883 C   0  0  0  0  0  0
  -18.9452  -30.1451   23.8891 C   0  0  0  0  0  0
  -17.6444  -30.6565   24.0559 C   0  0  0  0  0  0
  -25.9051  -34.9431   23.5086 C   0  0  0  0  0  0
  -16.5342  -29.9058   23.6327 C   0  0  0  0  0  0
  -16.7272  -28.6482   23.0340 C   0  0  0  0  0  0
  -26.4488  -31.6544   25.0678 C   0  0  0  0  0  0
  -25.3723  -31.3667   26.1406 C   0  0  0  0  0  0
  -27.0312  -30.2978   24.6093 C   0  0  0  0  0  0
  -27.6061  -32.4271   25.7455 C   0  0  0  0  0  0
  -27.5600  -37.1799   24.8463 C   0  0  0  0  0  0
  -21.4194  -29.3029   22.3702 N   0  0  0  0  0  0
  -26.4318  -37.3770   23.9394 N   0  0  0  0  0  0
  -24.6976  -31.0464   22.0929 N   0  0  0  0  0  0
  -23.4188  -28.8126   23.3049 O   0  0  0  0  0  0
  -28.3174  -26.3636   20.1180 O   0  0  0  0  0  0
  -26.5631  -34.8922   22.4650 O   0  0  0  0  0  0
  -23.5460  -32.1363   23.7228 O   0  0  0  0  0  0
  -30.8765  -17.5147   19.0490 C   0  0  0  0  0  0
  -30.4002  -19.8993   19.0308 C   0  0  0  0  0  0
  -31.0545  -18.7866   18.4714 C   0  0  0  0  0  0
  -30.0453  -17.3201   20.1746 C   0  0  0  0  0  0
  -29.5465  -19.7347   20.1293 C   0  0  0  0  0  0
  -31.9001  -18.9526   17.2228 C   0  0  0  0  0  0
  -28.2410  -23.5468   20.1149 C   0  0  0  0  0  0
  -29.2130  -22.3368   20.6288 C   0  0  0  0  0  0
  -28.2880  -25.0265   20.8120 C   0  0  0  0  0  0
  -29.3808  -18.4557   20.6709 N   0  0  0  0  0  0
  -29.8604  -15.9153   20.6500 N   0  0  0  0  0  0
  -28.7775  -20.8724   20.5930 N   0  0  0  0  0  0
  -31.4738  -12.5754   19.1854 H   0  0  0  0  0  0
  -30.3643  -11.4881   19.9703 H   0  0  0  0  0  0
  -29.8149  -11.7611   17.5171 H   0  0  0  0  0  0
  -29.6505  -13.4865   17.7380 H   0  0  0  0  0  0
  -27.8916  -11.2984   18.8924 H   0  0  0  0  0  0
  -27.3945  -12.5482   17.7838 H   0  0  0  0  0  0
  -27.6286  -14.2638   19.4615 H   0  0  0  0  0  0
  -28.7072  -12.2039   21.4413 H   0  0  0  0  0  0
  -28.4081  -13.8969   21.7723 H   0  0  0  0  0  0
  -25.2790   -9.5690   22.4741 H   0  0  0  0  0  0
  -24.0023   -7.4631   22.7468 H   0  0  0  0  0  0
  -21.0872   -8.8760   19.8942 H   0  0  0  0  0  0
  -22.3707  -10.9666   19.6124 H   0  0  0  0  0  0
  -21.2003   -7.6149   23.9718 H   0  0  0  0  0  0
  -21.1489   -6.0510   25.9072 H   0  0  0  0  0  0
  -22.0605   -2.7620   23.2810 H   0  0  0  0  0  0
  -22.4049  -11.9902   22.4842 H   0  0  0  0  0  0
  -21.1040  -13.1213   22.2557 H   0  0  0  0  0  0
  -24.6622  -15.8558   20.5147 H   0  0  0  0  0  0
  -26.2737  -15.6244   20.0704 H   0  0  0  0  0  0
  -26.7173  -32.5393   23.1026 H   0  0  0  0  0  0
  -25.0095  -33.9659   25.0407 H   0  0  0  0  0  0
  -22.7257  -31.2954   21.3931 H   0  0  0  0  0  0
  -23.3772  -35.9611   23.3273 H   0  0  0  0  0  0
  -24.3607  -36.8936   22.2060 H   0  0  0  0  0  0
  -23.7235  -37.6480   23.6666 H   0  0  0  0  0  0
  -26.0963  -31.5014   20.5869 H   0  0  0  0  0  0
  -26.8567  -30.8245   21.9934 H   0  0  0  0  0  0
  -28.1194  -28.8947   21.2163 H   0  0  0  0  0  0
  -25.9762  -25.8572   19.0439 H   0  0  0  0  0  0
  -23.9604  -27.2708   19.0397 H   0  0  0  0  0  0
  -23.7700  -30.5656   19.4011 H   0  0  0  0  0  0
  -22.7605  -29.2298   19.8628 H   0  0  0  0  0  0
  -25.1310  -36.1929   25.0820 H   0  0  0  0  0  0
  -20.9982  -28.3230   24.1420 H   0  0  0  0  0  0
  -20.5681  -26.2270   23.3609 H   0  0  0  0  0  0
  -21.6638  -26.7424   22.1208 H   0  0  0  0  0  0
  -19.6910  -25.6285   21.1243 H   0  0  0  0  0  0
  -19.6698  -27.3193   20.6762 H   0  0  0  0  0  0
  -17.4207  -26.6685   21.4007 H   0  0  0  0  0  0
  -18.0311  -26.0050   22.9011 H   0  0  0  0  0  0
  -19.7919  -30.7285   24.2229 H   0  0  0  0  0  0
  -17.4982  -31.6248   24.5163 H   0  0  0  0  0  0
  -15.5328  -30.2942   23.7646 H   0  0  0  0  0  0
  -15.8687  -28.0794   22.7039 H   0  0  0  0  0  0
  -24.5929  -30.6973   25.7735 H   0  0  0  0  0  0
  -24.8867  -32.2812   26.4822 H   0  0  0  0  0  0
  -25.8063  -30.8865   27.0184 H   0  0  0  0  0  0
  -26.2839  -29.6746   24.1165 H   0  0  0  0  0  0
  -27.4087  -29.7209   25.4540 H   0  0  0  0  0  0
  -27.8681  -30.4282   23.9234 H   0  0  0  0  0  0
  -27.2686  -33.3595   26.1996 H   0  0  0  0  0  0
  -28.3891  -32.6778   25.0285 H   0  0  0  0  0  0
  -28.0687  -31.8399   26.5398 H   0  0  0  0  0  0
  -28.2599  -38.0123   24.7543 H   0  0  0  0  0  0
  -28.1117  -36.2646   24.6248 H   0  0  0  0  0  0
  -27.2308  -37.1403   25.8867 H   0  0  0  0  0  0
  -20.9363  -29.8774   21.6942 H   0  0  0  0  0  0
  -26.0197  -38.2845   24.1399 H   0  0  0  0  0  0
  -31.3626  -16.6714   18.5758 H   0  0  0  0  0  0
  -30.5124  -20.8620   18.5515 H   0  0  0  0  0  0
  -32.2313  -17.9949   16.8194 H   0  0  0  0  0  0
  -32.7814  -19.5585   17.4330 H   0  0  0  0  0  0
  -31.3253  -19.4528   16.4423 H   0  0  0  0  0  0
  -27.2125  -23.2011   20.2246 H   0  0  0  0  0  0
  -28.3737  -23.6612   19.0398 H   0  0  0  0  0  0
  -29.4088  -22.5365   21.6833 H   0  0  0  0  0  0
  -30.1834  -22.4400   20.1425 H   0  0  0  0  0  0
  -29.1889  -25.0326   21.4262 H   0  0  0  0  0  0
  -27.4818  -25.0602   21.5468 H   0  0  0  0  0  0
  -28.9595  -15.7367   21.0583 H   0  0  0  0  0  0
  -28.1127  -20.6374   21.3232 H   0  0  0  0  0  0
  1 25  1  0  0  0
  1 30  2  0  0  0
  1 81  1  0  0  0
  2  3  1  0  0  0
  2 25  1  0  0  0
  2 83  1  0  0  0
  2 84  1  0  0  0
  3  4  1  0  0  0
  3 85  1  0  0  0
  3 86  1  0  0  0
  4  5  1  0  0  0
  4 87  1  0  0  0
  4 88  1  0  0  0
  5  6  1  0  0  0
  5 26  1  0  0  0
  5 89  1  0  0  0
  6 25  1  0  0  0
  6 90  1  0  0  0
  6 91  1  0  0  0
  7  8  2  0  0  0
  7 26  1  0  0  0
  7 29  1  0  0  0
  8  9  1  0  0  0
  8 22  1  0  0  0
  9 10  1  0  0  0
  9 27  2  0  0  0
 10 11  2  0  0  0
 10 15  1  0  0  0
 11 12  1  0  0  0
 11 92  1  0  0  0
 12 13  2  0  0  0
 12 93  1  0  0  0
 13 14  1  0  0  0
 13 31  1  0  0  0
 14 15  2  0  0  0
 14 94  1  0  0  0
 15 95  1  0  0  0
 16 17  2  0  0  0
 16 21  1  0  0  0
 16 31  1  0  0  0
 17 18  1  0  0  0
 17 96  1  0  0  0
 18 19  2  0  0  0
 18 97  1  0  0  0
 19 20  1  0  0  0
 19 24  1  0  0  0
 20 21  2  0  0  0
 20 98  1  0  0  0
 21 23  1  0  0  0
 22 28  1  0  0  0
 22 32  2  0  0  0
 26 27  1  0  0  0
 28 99  1  0  0  0
 28100  1  0  0  0
 29101  1  0  0  0
 29102  1  0  0  0
 33 34  1  0  0  0
 33 66  1  0  0  0
 33 70  2  0  0  0
 34 36  1  0  0  0
 34 59  1  0  0  0
 34103  1  0  0  0
 35 44  2  0  0  0
 35 45  1  0  0  0
 35 68  1  0  0  0
 36 56  1  0  0  0
 36104  1  0  0  0
 37 39  1  0  0  0
 37 47  1  0  0  0
 37 66  1  0  0  0
 37105  1  0  0  0
 38 43  2  0  0  0
 38 46  1  0  0  0
 38 47  1  0  0  0
 39 64  1  0  0  0
 39 67  2  0  0  0
 40 52  1  0  0  0
 40 53  2  0  0  0
 40 58  1  0  0  0
 41106  1  0  0  0
 41107  1  0  0  0
 41108  1  0  0  0
 41 48  1  0  0  0
 42 43  1  0  0  0
 42 66  1  0  0  0
 42109  1  0  0  0
 42110  1  0  0  0
 43 44  1  0  0  0
 44111  1  0  0  0
 45 46  2  0  0  0
 45112  1  0  0  0
 46113  1  0  0  0
 47114  1  0  0  0
 47115  1  0  0  0
 48 56  1  0  0  0
 48 65  1  0  0  0
 48116  1  0  0  0
 49 50  1  0  0  0
 49 53  1  0  0  0
 49 64  1  0  0  0
 49117  1  0  0  0
 50 51  1  0  0  0
 50118  1  0  0  0
 50119  1  0  0  0
 51 52  1  0  0  0
 51120  1  0  0  0
 51121  1  0  0  0
 52122  1  0  0  0
 52123  1  0  0  0
 53 54  1  0  0  0
 54 55  2  0  0  0
 54124  1  0  0  0
 55 57  1  0  0  0
 55125  1  0  0  0
 56 69  2  0  0  0
 57 58  2  0  0  0
 57126  1  0  0  0
 58127  1  0  0  0
 59 60  1  0  0  0
 59 61  1  0  0  0
 59 62  1  0  0  0
 60128  1  0  0  0
 60129  1  0  0  0
 60130  1  0  0  0
 61131  1  0  0  0
 61132  1  0  0  0
 61133  1  0  0  0
 62134  1  0  0  0
 62135  1  0  0  0
 62136  1  0  0  0
 63 65  1  0  0  0
 63137  1  0  0  0
 63138  1  0  0  0
 63139  1  0  0  0
 64140  1  0  0  0
 65141  1  0  0  0
 68 79  1  0  0  0
 71 73  2  0  0  0
 71 74  1  0  0  0
 71142  1  0  0  0
 72 73  1  0  0  0
 72 75  2  0  0  0
 72143  1  0  0  0
 73 76  1  0  0  0
 74 80  2  0  0  0
 74 81  1  0  0  0
 75 80  1  0  0  0
 75 82  1  0  0  0
 76144  1  0  0  0
 76145  1  0  0  0
 76146  1  0  0  0
 77 78  1  0  0  0
 77 79  1  0  0  0
 77147  1  0  0  0
 77148  1  0  0  0
 78 82  1  0  0  0
 78149  1  0  0  0
 78150  1  0  0  0
 79151  1  0  0  0
 79152  1  0  0  0
 81153  1  0  0  0
 82154  1  0  0  0
M  ISO  4   1 100  68 101  79 101  81 100
M  END
> <chiral flag>
0

> <version>
0

> <s_m_source_file>
/data/baiqing/PycharmProjects/Reinvent-master-3.2/result/LINK_invent/BTK/process_docking_weight1_custom_sum_contain_oxygen_bond_distance_aromatic_linkinvent_7_9_3/rearranged_h_0131.sdf

> <i_m_source_file_index>
7

> <r_mmod_Potential_Energy-OPLS-2005>
42.6185722351074

> <r_mmod_Stretch_Energy-OPLS-2005>
135.532241821289

> <r_mmod_Bend_Energy-OPLS-2005>
191.541427612305

> <r_mmod_Torsional_Energy-OPLS-2005>
258.603271484375

> <r_mmod_Improper_Torsional_Energy-OPLS-2005>
6.66586065292358

> <r_mmod_Van_der_Waal_Energy-OPLS-2005>
136.716384887695

> <r_mmod_Electrostatic_Energy-OPLS-2005>
-549.292236328125

> <r_mmod_Solvation_Energy-OPLS-2005>
-229.190612792969

> <b_mmod_Minimization_Converged-OPLS-2005>
0

> <r_mmod_RMS_Derivative-OPLS-2005>
4.27916574478149

$$$$
7
                    3D
 Structure written by MMmdl.
172180  0  0  1  0            999 V2000
  -30.7188  -14.4786   20.5776 C   0  0  0  0  0  0
  -30.4183  -12.3165   19.4202 C   0  0  0  0  0  0
  -29.4900  -12.5047   18.2042 C   0  0  0  0  0  0
  -28.0132  -12.3621   18.6210 C   0  0  0  0  0  0
  -27.6590  -13.2112   19.8709 C   0  0  2  0  0  0
  -28.7028  -13.0137   20.9927 C   0  0  0  0  0  0
  -25.2582  -13.8170   20.5686 C   0  0  0  0  0  0
  -24.1839  -13.0448   20.9189 C   0  0  0  0  0  0
  -24.6404  -11.6917   20.8753 C   0  0  0  0  0  0
  -23.9068  -10.4300   21.0420 C   0  0  0  0  0  0
  -24.3617   -9.4213   21.9201 C   0  0  0  0  0  0
  -23.6294   -8.2247   22.0761 C   0  0  0  0  0  0
  -22.4280   -8.0287   21.3547 C   0  0  0  0  0  0
  -21.9918   -9.0260   20.4646 C   0  0  0  0  0  0
  -22.7243  -10.2142   20.3063 C   0  0  0  0  0  0
  -21.6850   -6.0744   22.5284 C   0  0  0  0  0  0
  -21.4014   -6.5647   23.8219 C   0  0  0  0  0  0
  -21.3658   -5.6799   24.9180 C   0  0  0  0  0  0
  -21.6042   -4.3062   24.7230 C   0  0  0  0  0  0
  -21.8816   -3.8155   23.4351 C   0  0  0  0  0  0
  -21.9193   -4.6972   22.3409 C   0  0  0  0  0  0
  -22.7862  -13.5245   21.1850 C   0  0  0  0  0  0
  -22.1661   -4.2159   21.0986 F   0  0  0  0  0  0
  -21.5627   -3.4544   25.7740 F   0  0  0  0  0  0
  -30.0305  -13.3128   20.4326 N   0  0  0  0  0  0
  -26.3023  -12.9352   20.3364 N   0  0  0  0  0  0
  -25.9335  -11.6511   20.5780 N   0  0  0  0  0  0
  -22.0490  -12.8240   22.0390 N   0  0  0  0  0  0
  -25.4292  -15.1881   20.4064 N   0  0  0  0  0  0
  -31.8390  -14.6488   20.0912 O   0  0  0  0  0  0
  -21.6641   -6.8889   21.4247 O   0  0  0  0  0  0
  -22.3570  -14.5565   20.6699 O   0  0  0  0  0  0
  -24.6158  -31.8689   23.2089 C   0  0  0  0  0  0
  -25.9047  -32.4820   23.8400 C   0  0  1  0  0  0
  -27.2225  -27.4172   20.0905 C   0  0  0  0  0  0
  -25.5895  -33.8619   24.2333 N   0  0  0  0  0  0
  -23.4020  -30.4944   21.5500 C   0  0  2  0  0  0
  -24.8443  -28.9557   20.1159 C   0  0  0  0  0  0
  -22.7415  -29.4668   22.4980 C   0  0  0  0  0  0
  -18.0270  -28.1363   22.8475 C   0  0  0  0  0  0
  -24.1479  -36.7322   23.2630 C   0  0  0  0  0  0
  -25.9322  -30.8306   21.3609 C   0  0  0  0  0  0
  -26.0061  -29.4618   20.7091 C   0  0  0  0  0  0
  -27.1980  -28.7010   20.6900 C   0  0  0  0  0  0
  -26.0411  -26.9308   19.4876 C   0  0  0  0  0  0
  -24.8569  -27.6910   19.5031 C   0  0  0  0  0  0
  -23.6106  -29.8283   20.1633 C   0  0  0  0  0  0
  -25.4094  -36.3120   24.0336 C   0  0  1  0  0  0
  -20.5862  -28.3655   23.1306 C   0  0  2  0  0  0
  -20.6758  -26.9400   22.5399 C   0  0  0  0  0  0
  -19.5733  -26.6379   21.5193 C   0  0  0  0  0  0
  -18.1915  -26.7909   22.1608 C   0  0  0  0  0  0
  -19.1525  -28.8822   23.2884 C   0  0  0  0  0  0
  -18.9456  -30.1430   23.8891 C   0  0  0  0  0  0
  -17.6459  -30.6565   24.0553 C   0  0  0  0  0  0
  -25.9033  -34.9477   23.5140 C   0  0  0  0  0  0
  -16.5348  -29.9072   23.6310 C   0  0  0  0  0  0
  -16.7264  -28.6489   23.0328 C   0  0  0  0  0  0
  -26.4473  -31.6581   25.0726 C   0  0  0  0  0  0
  -25.3729  -31.3633   26.1456 C   0  0  0  0  0  0
  -27.0307  -30.3035   24.6070 C   0  0  0  0  0  0
  -27.6065  -32.4271   25.7475 C   0  0  0  0  0  0
  -27.5585  -37.1805   24.8451 C   0  0  0  0  0  0
  -21.4144  -29.3032   22.3729 N   0  0  0  0  0  0
  -26.4271  -37.3819   23.9431 N   0  0  0  0  0  0
  -24.6687  -31.0784   22.0990 N   0  0  0  0  0  0
  -23.4205  -28.8210   23.3009 O   0  0  0  0  0  0
  -28.3959  -26.6861   20.1367 O   0  0  0  0  0  0
  -26.5606  -34.8925   22.4712 O   0  0  0  0  0  0
  -23.5356  -32.1454   23.7489 O   0  0  0  0  0  0
  -30.8322  -19.0387   20.4369 C   0  0  0  0  0  0
  -28.6663  -18.3336   21.2472 C   0  0  0  0  0  0
  -30.0309  -18.0507   21.0428 C   0  0  0  0  0  0
  -30.2987  -20.2918   20.0545 C   0  0  0  0  0  0
  -28.9238  -20.5941   20.2746 C   0  0  0  0  0  0
  -28.1100  -19.5965   20.8917 C   0  0  0  0  0  0
  -31.2525  -21.3021   19.4306 C   0  0  0  0  0  0
  -27.0451  -21.9044   19.0510 C   0  0  0  0  0  0
  -26.5784  -24.6703   23.1475 C   0  0  0  0  0  0
  -25.9001  -18.8800   21.5355 C   0  0  0  0  0  0
  -30.6791  -16.7694   21.5919 C   0  0  0  0  0  0
  -28.2462  -22.9360   21.0990 C   0  0  0  0  0  0
  -28.4112  -25.2648   19.8521 C   0  0  0  0  0  0
  -28.3482  -21.9860   19.8733 C   0  0  1  0  0  0
  -27.6674  -24.3811   20.9023 C   0  0  2  0  0  0
  -30.0770  -15.4791   21.2122 N   0  0  0  0  0  0
  -27.6358  -25.0966   22.2059 N   0  3  0  0  0  0
  -26.7990  -19.9179   21.1697 O   0  0  0  0  0  0
  -31.4621  -12.4095   19.1158 H   0  0  0  0  0  0
  -30.3169  -11.3103   19.8297 H   0  0  0  0  0  0
  -29.7300  -11.7761   17.4282 H   0  0  0  0  0  0
  -29.6539  -13.4891   17.7620 H   0  0  0  0  0  0
  -27.8286  -11.3068   18.8262 H   0  0  0  0  0  0
  -27.3596  -12.6279   17.7889 H   0  0  0  0  0  0
  -27.6975  -14.2556   19.5617 H   0  0  0  0  0  0
  -28.6843  -11.9857   21.3565 H   0  0  0  0  0  0
  -28.4623  -13.6330   21.8578 H   0  0  0  0  0  0
  -25.2761   -9.5693   22.4779 H   0  0  0  0  0  0
  -24.0002   -7.4645   22.7486 H   0  0  0  0  0  0
  -21.0852   -8.8788   19.8952 H   0  0  0  0  0  0
  -22.3713  -10.9688   19.6171 H   0  0  0  0  0  0
  -21.2005   -7.6154   23.9726 H   0  0  0  0  0  0
  -21.1479   -6.0528   25.9083 H   0  0  0  0  0  0
  -22.0594   -2.7618   23.2851 H   0  0  0  0  0  0
  -22.4079  -11.9871   22.4748 H   0  0  0  0  0  0
  -21.1118  -13.1289   22.2600 H   0  0  0  0  0  0
  -24.6515  -15.8334   20.4827 H   0  0  0  0  0  0
  -26.2718  -15.6184   20.0479 H   0  0  0  0  0  0
  -26.7128  -32.5518   23.1171 H   0  0  0  0  0  0
  -25.0012  -33.9782   25.0459 H   0  0  0  0  0  0
  -22.6899  -31.3104   21.4137 H   0  0  0  0  0  0
  -23.3748  -35.9649   23.3263 H   0  0  0  0  0  0
  -24.3575  -36.8984   22.2055 H   0  0  0  0  0  0
  -23.7224  -37.6507   23.6674 H   0  0  0  0  0  0
  -26.0410  -31.5948   20.5902 H   0  0  0  0  0  0
  -26.8214  -30.8886   21.9755 H   0  0  0  0  0  0
  -28.0973  -29.0927   21.1460 H   0  0  0  0  0  0
  -26.0061  -25.9721   18.9937 H   0  0  0  0  0  0
  -23.9613  -27.2997   19.0393 H   0  0  0  0  0  0
  -23.7283  -30.6040   19.4055 H   0  0  0  0  0  0
  -22.7316  -29.2555   19.8627 H   0  0  0  0  0  0
  -25.1267  -36.1979   25.0829 H   0  0  0  0  0  0
  -20.9941  -28.3231   24.1427 H   0  0  0  0  0  0
  -20.5661  -26.2280   23.3588 H   0  0  0  0  0  0
  -21.6632  -26.7439   22.1209 H   0  0  0  0  0  0
  -19.6893  -25.6302   21.1196 H   0  0  0  0  0  0
  -19.6651  -27.3200   20.6733 H   0  0  0  0  0  0
  -17.4192  -26.6656   21.4005 H   0  0  0  0  0  0
  -18.0318  -26.0037   22.8994 H   0  0  0  0  0  0
  -19.7943  -30.7229   24.2267 H   0  0  0  0  0  0
  -17.5024  -31.6243   24.5158 H   0  0  0  0  0  0
  -15.5354  -30.2975   23.7616 H   0  0  0  0  0  0
  -15.8668  -28.0809   22.7030 H   0  0  0  0  0  0
  -24.5941  -30.6944   25.7769 H   0  0  0  0  0  0
  -24.8853  -32.2748   26.4917 H   0  0  0  0  0  0
  -25.8094  -30.8794   27.0207 H   0  0  0  0  0  0
  -26.2850  -29.6771   24.1161 H   0  0  0  0  0  0
  -27.4148  -29.7285   25.4509 H   0  0  0  0  0  0
  -27.8658  -30.4377   23.9188 H   0  0  0  0  0  0
  -27.2742  -33.3595   26.2043 H   0  0  0  0  0  0
  -28.3882  -32.6773   25.0290 H   0  0  0  0  0  0
  -28.0715  -31.8368   26.5382 H   0  0  0  0  0  0
  -28.2556  -38.0153   24.7599 H   0  0  0  0  0  0
  -28.1139  -36.2695   24.6164 H   0  0  0  0  0  0
  -27.2308  -37.1313   25.8849 H   0  0  0  0  0  0
  -20.9321  -29.8822   21.7001 H   0  0  0  0  0  0
  -26.0155  -38.2886   24.1484 H   0  0  0  0  0  0
  -31.8877  -18.8455   20.2903 H   0  0  0  0  0  0
  -28.0711  -17.5776   21.7361 H   0  0  0  0  0  0
  -32.2923  -20.9884   19.5262 H   0  0  0  0  0  0
  -31.1696  -22.2761   19.9144 H   0  0  0  0  0  0
  -31.0412  -21.4218   18.3674 H   0  0  0  0  0  0
  -27.1425  -21.1820   18.2403 H   0  0  0  0  0  0
  -26.8124  -22.8641   18.5896 H   0  0  0  0  0  0
  -26.1763  -21.6285   19.6465 H   0  0  0  0  0  0
  -26.5754  -25.3193   24.0243 H   0  0  0  0  0  0
  -26.7371  -23.6514   23.4985 H   0  0  0  0  0  0
  -25.5914  -24.7262   22.6874 H   0  0  0  0  0  0
  -24.8976  -19.2978   21.6260 H   0  0  0  0  0  0
  -26.1588  -18.4410   22.4993 H   0  0  0  0  0  0
  -25.8636  -18.1008   20.7732 H   0  0  0  0  0  0
  -30.6276  -16.8330   22.6794 H   0  0  0  0  0  0
  -31.7467  -16.7848   21.3643 H   0  0  0  0  0  0
  -29.2419  -23.0161   21.5369 H   0  0  0  0  0  0
  -27.6461  -22.4204   21.8477 H   0  0  0  0  0  0
  -28.0541  -25.0619   18.8410 H   0  0  0  0  0  0
  -29.4625  -24.9763   19.8425 H   0  0  0  0  0  0
  -29.0443  -22.4517   19.1809 H   0  0  0  0  0  0
  -26.6328  -24.2970   20.5690 H   0  0  0  0  0  0
  -29.1502  -15.2800   21.5536 H   0  0  0  0  0  0
  -28.5343  -25.0383   22.6592 H   0  0  0  0  0  0
  -27.4786  -26.0731   21.9978 H   0  0  0  0  0  0
  1 25  1  0  0  0
  1 30  2  0  0  0
  1 86  1  0  0  0
  2  3  1  0  0  0
  2 25  1  0  0  0
  2 89  1  0  0  0
  2 90  1  0  0  0
  3  4  1  0  0  0
  3 91  1  0  0  0
  3 92  1  0  0  0
  4  5  1  0  0  0
  4 93  1  0  0  0
  4 94  1  0  0  0
  5  6  1  0  0  0
  5 26  1  0  0  0
  5 95  1  0  0  0
  6 25  1  0  0  0
  6 96  1  0  0  0
  6 97  1  0  0  0
  7  8  2  0  0  0
  7 26  1  0  0  0
  7 29  1  0  0  0
  8  9  1  0  0  0
  8 22  1  0  0  0
  9 10  1  0  0  0
  9 27  2  0  0  0
 10 11  2  0  0  0
 10 15  1  0  0  0
 11 12  1  0  0  0
 11 98  1  0  0  0
 12 13  2  0  0  0
 12 99  1  0  0  0
 13 14  1  0  0  0
 13 31  1  0  0  0
 14 15  2  0  0  0
 14100  1  0  0  0
 15101  1  0  0  0
 16 17  2  0  0  0
 16 21  1  0  0  0
 16 31  1  0  0  0
 17 18  1  0  0  0
 17102  1  0  0  0
 18 19  2  0  0  0
 18103  1  0  0  0
 19 20  1  0  0  0
 19 24  1  0  0  0
 20 21  2  0  0  0
 20104  1  0  0  0
 21 23  1  0  0  0
 22 28  1  0  0  0
 22 32  2  0  0  0
 26 27  1  0  0  0
 28105  1  0  0  0
 28106  1  0  0  0
 29107  1  0  0  0
 29108  1  0  0  0
 33 34  1  0  0  0
 33 66  1  0  0  0
 33 70  2  0  0  0
 34 36  1  0  0  0
 34 59  1  0  0  0
 34109  1  0  0  0
 35 44  2  0  0  0
 35 45  1  0  0  0
 35 68  1  0  0  0
 36 56  1  0  0  0
 36110  1  0  0  0
 37 39  1  0  0  0
 37 47  1  0  0  0
 37 66  1  0  0  0
 37111  1  0  0  0
 38 43  2  0  0  0
 38 46  1  0  0  0
 38 47  1  0  0  0
 39 64  1  0  0  0
 39 67  2  0  0  0
 40 52  1  0  0  0
 40 53  2  0  0  0
 40 58  1  0  0  0
 41112  1  0  0  0
 41113  1  0  0  0
 41114  1  0  0  0
 41 48  1  0  0  0
 42 43  1  0  0  0
 42 66  1  0  0  0
 42115  1  0  0  0
 42116  1  0  0  0
 43 44  1  0  0  0
 44117  1  0  0  0
 45 46  2  0  0  0
 45118  1  0  0  0
 46119  1  0  0  0
 47120  1  0  0  0
 47121  1  0  0  0
 48 56  1  0  0  0
 48 65  1  0  0  0
 48122  1  0  0  0
 49 50  1  0  0  0
 49 53  1  0  0  0
 49 64  1  0  0  0
 49123  1  0  0  0
 50 51  1  0  0  0
 50124  1  0  0  0
 50125  1  0  0  0
 51 52  1  0  0  0
 51126  1  0  0  0
 51127  1  0  0  0
 52128  1  0  0  0
 52129  1  0  0  0
 53 54  1  0  0  0
 54 55  2  0  0  0
 54130  1  0  0  0
 55 57  1  0  0  0
 55131  1  0  0  0
 56 69  2  0  0  0
 57 58  2  0  0  0
 57132  1  0  0  0
 58133  1  0  0  0
 59 60  1  0  0  0
 59 61  1  0  0  0
 59 62  1  0  0  0
 60134  1  0  0  0
 60135  1  0  0  0
 60136  1  0  0  0
 61137  1  0  0  0
 61138  1  0  0  0
 61139  1  0  0  0
 62140  1  0  0  0
 62141  1  0  0  0
 62142  1  0  0  0
 63 65  1  0  0  0
 63143  1  0  0  0
 63144  1  0  0  0
 63145  1  0  0  0
 64146  1  0  0  0
 65147  1  0  0  0
 68 83  1  0  0  0
 71 73  2  0  0  0
 71 74  1  0  0  0
 71148  1  0  0  0
 72 73  1  0  0  0
 72 76  2  0  0  0
 72149  1  0  0  0
 73 81  1  0  0  0
 74 75  2  0  0  0
 74 77  1  0  0  0
 75 76  1  0  0  0
 75 84  1  0  0  0
 76 88  1  0  0  0
 77150  1  0  0  0
 77151  1  0  0  0
 77152  1  0  0  0
 78153  1  0  0  0
 78154  1  0  0  0
 78155  1  0  0  0
 78 84  1  0  0  0
 79 87  1  0  0  0
 79156  1  0  0  0
 79157  1  0  0  0
 79158  1  0  0  0
 80 88  1  0  0  0
 80159  1  0  0  0
 80160  1  0  0  0
 80161  1  0  0  0
 81 86  1  0  0  0
 81162  1  0  0  0
 81163  1  0  0  0
 82 84  1  0  0  0
 82164  1  0  0  0
 82165  1  0  0  0
 82 85  1  0  0  0
 83 85  1  0  0  0
 83166  1  0  0  0
 83167  1  0  0  0
 84168  1  0  0  0
 85 87  1  0  0  0
 85169  1  0  0  0
 86170  1  0  0  0
 87171  1  0  0  0
 87172  1  0  0  0
M  CHG  1  87   1
M  ISO  4   1 100  68 101  83 101  86 100
M  END
> <chiral flag>
0

> <version>
0

> <s_m_source_file>
/data/baiqing/PycharmProjects/Reinvent-master-3.2/result/LINK_invent/BTK/process_docking_weight1_custom_sum_contain_oxygen_bond_distance_aromatic_linkinvent_7_9_3/rearranged_h_0131.sdf

> <i_m_source_file_index>
8

> <r_mmod_Potential_Energy-OPLS-2005>
-208.758148193359

> <r_mmod_Stretch_Energy-OPLS-2005>
47.5950393676758

> <r_mmod_Bend_Energy-OPLS-2005>
122.029663085938

> <r_mmod_Torsional_Energy-OPLS-2005>
219.790115356445

> <r_mmod_Improper_Torsional_Energy-OPLS-2005>
3.1207103729248

> <r_mmod_Van_der_Waal_Energy-OPLS-2005>
155.990112304688

> <r_mmod_Electrostatic_Energy-OPLS-2005>
-359.102478027344

> <r_mmod_Solvation_Energy-OPLS-2005>
-413.168884277344

> <b_mmod_Minimization_Converged-OPLS-2005>
0

> <r_mmod_RMS_Derivative-OPLS-2005>
1.97049808502197

$$$$
8
                    3D
 Structure written by MMmdl.
157166  0  0  1  0            999 V2000
  -30.3230  -15.5432   20.3264 C   0  0  0  0  0  0
  -30.4233  -13.0011   19.5626 C   0  0  0  0  0  0
  -29.5487  -12.6392   18.3297 C   0  0  0  0  0  0
  -28.1234  -12.2801   18.7724 C   0  0  0  0  0  0
  -27.5981  -13.2916   19.8158 C   0  0  2  0  0  0
  -28.6083  -13.5926   20.9491 C   0  0  0  0  0  0
  -25.2349  -13.8275   20.5751 C   0  0  0  0  0  0
  -24.1704  -13.0444   20.9276 C   0  0  0  0  0  0
  -24.6375  -11.6950   20.8759 C   0  0  0  0  0  0
  -23.9071  -10.4307   21.0415 C   0  0  0  0  0  0
  -24.3622   -9.4219   21.9184 C   0  0  0  0  0  0
  -23.6298   -8.2247   22.0753 C   0  0  0  0  0  0
  -22.4274   -8.0288   21.3553 C   0  0  0  0  0  0
  -21.9910   -9.0263   20.4653 C   0  0  0  0  0  0
  -22.7246  -10.2143   20.3064 C   0  0  0  0  0  0
  -21.6854   -6.0740   22.5296 C   0  0  0  0  0  0
  -21.4012   -6.5637   23.8232 C   0  0  0  0  0  0
  -21.3654   -5.6789   24.9193 C   0  0  0  0  0  0
  -21.6036   -4.3054   24.7244 C   0  0  0  0  0  0
  -21.8815   -3.8148   23.4365 C   0  0  0  0  0  0
  -21.9191   -4.6965   22.3419 C   0  0  0  0  0  0
  -22.7730  -13.5203   21.1925 C   0  0  0  0  0  0
  -22.1662   -4.2142   21.1002 F   0  0  0  0  0  0
  -21.5619   -3.4543   25.7759 F   0  0  0  0  0  0
  -29.8095  -14.1808   20.3186 N   0  0  0  0  0  0
  -26.2752  -12.9544   20.3197 N   0  0  0  0  0  0
  -25.9316  -11.6642   20.5695 N   0  0  0  0  0  0
  -22.0374  -12.8204   22.0482 N   0  0  0  0  0  0
  -25.4062  -15.1994   20.4174 N   0  0  0  0  0  0
  -31.5401  -15.5107   20.0673 O   0  0  0  0  0  0
  -21.6636   -6.8885   21.4257 O   0  0  0  0  0  0
  -22.3421  -14.5506   20.6776 O   0  0  0  0  0  0
  -24.6819  -31.8078   23.1482 C   0  0  0  0  0  0
  -25.9421  -32.4507   23.8024 C   0  0  1  0  0  0
  -27.2290  -26.7432   20.2076 C   0  0  0  0  0  0
  -25.6019  -33.8324   24.1942 N   0  0  0  0  0  0
  -23.5053  -30.4097   21.5033 C   0  0  2  0  0  0
  -24.9617  -28.7558   20.1117 C   0  0  0  0  0  0
  -22.7765  -29.4372   22.4704 C   0  0  0  0  0  0
  -18.0350  -28.1439   22.8479 C   0  0  0  0  0  0
  -24.1501  -36.7161   23.2641 C   0  0  0  0  0  0
  -26.0844  -30.5486   21.4092 C   0  0  0  0  0  0
  -26.1487  -29.1189   20.7585 C   0  0  0  0  0  0
  -27.2675  -28.1400   20.7742 C   0  0  0  0  0  0
  -26.0133  -26.5776   19.4997 C   0  0  0  0  0  0
  -24.9313  -27.5093   19.4590 C   0  0  0  0  0  0
  -23.7553  -29.7068   20.1380 C   0  0  0  0  0  0
  -25.4151  -36.2910   24.0276 C   0  0  1  0  0  0
  -20.5987  -28.3799   23.1153 C   0  0  2  0  0  0
  -20.6820  -26.9464   22.5407 C   0  0  0  0  0  0
  -19.5781  -26.6398   21.5235 C   0  0  0  0  0  0
  -18.1970  -26.7976   22.1642 C   0  0  0  0  0  0
  -19.1617  -28.8946   23.2798 C   0  0  0  0  0  0
  -18.9517  -30.1532   23.8841 C   0  0  0  0  0  0
  -17.6504  -30.6617   24.0568 C   0  0  0  0  0  0
  -25.9143  -34.9310   23.4947 C   0  0  0  0  0  0
  -16.5400  -29.9108   23.6341 C   0  0  0  0  0  0
  -16.7331  -28.6531   23.0366 C   0  0  0  0  0  0
  -26.4586  -31.6509   25.0624 C   0  0  0  0  0  0
  -25.3604  -31.3882   26.1204 C   0  0  0  0  0  0
  -27.0501  -30.2847   24.6509 C   0  0  0  0  0  0
  -27.6078  -32.4333   25.7406 C   0  0  0  0  0  0
  -27.5575  -37.1726   24.8469 C   0  0  0  0  0  0
  -21.4420  -29.3055   22.3465 N   0  0  0  0  0  0
  -26.4281  -37.3671   23.9421 N   0  0  0  0  0  0
  -24.7802  -30.9548   22.0723 N   0  0  0  0  0  0
  -23.4226  -28.7973   23.3033 O   0  0  0  0  0  0
  -28.2041  -25.5504   20.3212 O   0  0  0  0  0  0
  -26.5769  -34.8893   22.4556 O   0  0  0  0  0  0
  -23.5845  -32.1155   23.6442 O   0  0  0  0  0  0
  -33.2535  -21.5829   21.4844 C   0  0  0  0  0  0
  -33.0574  -20.9432   22.8382 C   0  0  0  0  0  0
  -29.6392  -20.3008   22.0353 C   0  0  0  0  0  0
  -30.4066  -22.3390   20.9059 C   0  0  0  0  0  0
  -28.8799  -20.2547   20.6922 C   0  0  2  0  0  0
  -28.9267  -22.1782   20.5771 C   0  0  2  0  0  0
  -32.0793  -20.6543   21.7223 C   0  0  0  0  0  0
  -29.5981  -18.5992   20.0400 C   0  0  0  0  0  0
  -28.1140  -23.8308   20.0177 C   0  0  0  0  0  0
  -29.5521  -16.8782   20.4376 N   0  0  0  0  0  0
  -30.7489  -21.2944   21.9156 N   0  3  2  0  0  0
  -31.4329  -13.2307   19.2219 H   0  0  0  0  0  0
  -30.5392  -12.1358   20.2187 H   0  0  0  0  0  0
  -29.9952  -11.8160   17.7692 H   0  0  0  0  0  0
  -29.5140  -13.4934   17.6535 H   0  0  0  0  0  0
  -28.1568  -11.2862   19.2214 H   0  0  0  0  0  0
  -27.4542  -12.2087   17.9143 H   0  0  0  0  0  0
  -27.4764  -14.2174   19.2508 H   0  0  0  0  0  0
  -28.8353  -12.6990   21.5319 H   0  0  0  0  0  0
  -28.1799  -14.3146   21.6477 H   0  0  0  0  0  0
  -25.2766   -9.5685   22.4770 H   0  0  0  0  0  0
  -24.0009   -7.4625   22.7470 H   0  0  0  0  0  0
  -21.0838   -8.8792   19.8960 H   0  0  0  0  0  0
  -22.3707  -10.9683   19.6176 H   0  0  0  0  0  0
  -21.2008   -7.6144   23.9737 H   0  0  0  0  0  0
  -21.1471   -6.0519   25.9090 H   0  0  0  0  0  0
  -22.0594   -2.7611   23.2882 H   0  0  0  0  0  0
  -22.3974  -11.9861   22.4871 H   0  0  0  0  0  0
  -21.0993  -13.1255   22.2683 H   0  0  0  0  0  0
  -24.6458  -15.8654   20.5067 H   0  0  0  0  0  0
  -26.2610  -15.6208   20.0776 H   0  0  0  0  0  0
  -26.7504  -32.4989   23.0729 H   0  0  0  0  0  0
  -25.0119  -33.9387   25.0060 H   0  0  0  0  0  0
  -22.8282  -31.2463   21.3178 H   0  0  0  0  0  0
  -23.3792  -35.9462   23.3268 H   0  0  0  0  0  0
  -24.3568  -36.8854   22.2061 H   0  0  0  0  0  0
  -23.7232  -37.6327   23.6733 H   0  0  0  0  0  0
  -26.2964  -31.2773   20.6254 H   0  0  0  0  0  0
  -26.9327  -30.6063   22.0768 H   0  0  0  0  0  0
  -28.1594  -28.4273   21.3129 H   0  0  0  0  0  0
  -25.8581  -25.6323   19.0005 H   0  0  0  0  0  0
  -24.0367  -27.2236   18.9230 H   0  0  0  0  0  0
  -23.9245  -30.4703   19.3781 H   0  0  0  0  0  0
  -22.8595  -29.1741   19.8166 H   0  0  0  0  0  0
  -25.1347  -36.1677   25.0762 H   0  0  0  0  0  0
  -21.0100  -28.3445   24.1265 H   0  0  0  0  0  0
  -20.5728  -26.2436   23.3678 H   0  0  0  0  0  0
  -21.6674  -26.7433   22.1195 H   0  0  0  0  0  0
  -19.6941  -25.6294   21.1314 H   0  0  0  0  0  0
  -19.6713  -27.3171   20.6734 H   0  0  0  0  0  0
  -17.4245  -26.6744   21.4044 H   0  0  0  0  0  0
  -18.0332  -26.0126   22.9040 H   0  0  0  0  0  0
  -19.7985  -30.7373   24.2191 H   0  0  0  0  0  0
  -17.5045  -31.6291   24.5186 H   0  0  0  0  0  0
  -15.5394  -30.2986   23.7699 H   0  0  0  0  0  0
  -15.8736  -28.0832   22.7095 H   0  0  0  0  0  0
  -24.5767  -30.7289   25.7458 H   0  0  0  0  0  0
  -24.8803  -32.3136   26.4393 H   0  0  0  0  0  0
  -25.7676  -30.9142   27.0134 H   0  0  0  0  0  0
  -26.3198  -29.6460   24.1529 H   0  0  0  0  0  0
  -27.3996  -29.7302   25.5231 H   0  0  0  0  0  0
  -27.9158  -30.4010   23.9984 H   0  0  0  0  0  0
  -27.2673  -33.3693   26.1847 H   0  0  0  0  0  0
  -28.3915  -32.6811   25.0229 H   0  0  0  0  0  0
  -28.0712  -31.8541   26.5403 H   0  0  0  0  0  0
  -28.2582  -38.0033   24.7504 H   0  0  0  0  0  0
  -28.1085  -36.2563   24.6298 H   0  0  0  0  0  0
  -27.2300  -37.1350   25.8874 H   0  0  0  0  0  0
  -20.9727  -29.8705   21.6526 H   0  0  0  0  0  0
  -26.0125  -38.2738   24.1413 H   0  0  0  0  0  0
  -34.0561  -21.2034   20.8533 H   0  0  0  0  0  0
  -33.0926  -22.6572   21.4243 H   0  0  0  0  0  0
  -32.7653  -21.6094   23.6481 H   0  0  0  0  0  0
  -33.7427  -20.1452   23.1198 H   0  0  0  0  0  0
  -29.9960  -19.3257   22.3673 H   0  0  0  0  0  0
  -28.9674  -20.6314   22.8279 H   0  0  0  0  0  0
  -30.6327  -23.3275   21.3102 H   0  0  0  0  0  0
  -30.9891  -22.2116   19.9912 H   0  0  0  0  0  0
  -27.8323  -20.0189   20.8879 H   0  0  0  0  0  0
  -28.4437  -22.3340   21.5424 H   0  0  0  0  0  0
  -32.0789  -19.6588   21.2816 H   0  0  0  0  0  0
  -29.1886  -18.5758   19.0315 H   0  0  0  0  0  0
  -30.6546  -18.7823   19.8482 H   0  0  0  0  0  0
  -28.2803  -23.8200   18.9413 H   0  0  0  0  0  0
  -27.0458  -23.6313   20.1028 H   0  0  0  0  0  0
  -28.6179  -16.6444   20.7421 H   0  0  0  0  0  0
  -30.7811  -21.7623   22.8082 H   0  0  0  0  0  0
  1 25  1  0  0  0
  1 30  2  0  0  0
  1 80  1  0  0  0
  2  3  1  0  0  0
  2 25  1  0  0  0
  2 82  1  0  0  0
  2 83  1  0  0  0
  3  4  1  0  0  0
  3 84  1  0  0  0
  3 85  1  0  0  0
  4  5  1  0  0  0
  4 86  1  0  0  0
  4 87  1  0  0  0
  5  6  1  0  0  0
  5 26  1  0  0  0
  5 88  1  0  0  0
  6 25  1  0  0  0
  6 89  1  0  0  0
  6 90  1  0  0  0
  7  8  2  0  0  0
  7 26  1  0  0  0
  7 29  1  0  0  0
  8  9  1  0  0  0
  8 22  1  0  0  0
  9 10  1  0  0  0
  9 27  2  0  0  0
 10 11  2  0  0  0
 10 15  1  0  0  0
 11 12  1  0  0  0
 11 91  1  0  0  0
 12 13  2  0  0  0
 12 92  1  0  0  0
 13 14  1  0  0  0
 13 31  1  0  0  0
 14 15  2  0  0  0
 14 93  1  0  0  0
 15 94  1  0  0  0
 16 17  2  0  0  0
 16 21  1  0  0  0
 16 31  1  0  0  0
 17 18  1  0  0  0
 17 95  1  0  0  0
 18 19  2  0  0  0
 18 96  1  0  0  0
 19 20  1  0  0  0
 19 24  1  0  0  0
 20 21  2  0  0  0
 20 97  1  0  0  0
 21 23  1  0  0  0
 22 28  1  0  0  0
 22 32  2  0  0  0
 26 27  1  0  0  0
 28 98  1  0  0  0
 28 99  1  0  0  0
 29100  1  0  0  0
 29101  1  0  0  0
 33 34  1  0  0  0
 33 66  1  0  0  0
 33 70  2  0  0  0
 34 36  1  0  0  0
 34 59  1  0  0  0
 34102  1  0  0  0
 35 44  2  0  0  0
 35 45  1  0  0  0
 35 68  1  0  0  0
 36 56  1  0  0  0
 36103  1  0  0  0
 37 39  1  0  0  0
 37 47  1  0  0  0
 37 66  1  0  0  0
 37104  1  0  0  0
 38 43  2  0  0  0
 38 46  1  0  0  0
 38 47  1  0  0  0
 39 64  1  0  0  0
 39 67  2  0  0  0
 40 52  1  0  0  0
 40 53  2  0  0  0
 40 58  1  0  0  0
 41105  1  0  0  0
 41106  1  0  0  0
 41107  1  0  0  0
 41 48  1  0  0  0
 42 43  1  0  0  0
 42 66  1  0  0  0
 42108  1  0  0  0
 42109  1  0  0  0
 43 44  1  0  0  0
 44110  1  0  0  0
 45 46  2  0  0  0
 45111  1  0  0  0
 46112  1  0  0  0
 47113  1  0  0  0
 47114  1  0  0  0
 48 56  1  0  0  0
 48 65  1  0  0  0
 48115  1  0  0  0
 49 50  1  0  0  0
 49 53  1  0  0  0
 49 64  1  0  0  0
 49116  1  0  0  0
 50 51  1  0  0  0
 50117  1  0  0  0
 50118  1  0  0  0
 51 52  1  0  0  0
 51119  1  0  0  0
 51120  1  0  0  0
 52121  1  0  0  0
 52122  1  0  0  0
 53 54  1  0  0  0
 54 55  2  0  0  0
 54123  1  0  0  0
 55 57  1  0  0  0
 55124  1  0  0  0
 56 69  2  0  0  0
 57 58  2  0  0  0
 57125  1  0  0  0
 58126  1  0  0  0
 59 60  1  0  0  0
 59 61  1  0  0  0
 59 62  1  0  0  0
 60127  1  0  0  0
 60128  1  0  0  0
 60129  1  0  0  0
 61130  1  0  0  0
 61131  1  0  0  0
 61132  1  0  0  0
 62133  1  0  0  0
 62134  1  0  0  0
 62135  1  0  0  0
 63 65  1  0  0  0
 63136  1  0  0  0
 63137  1  0  0  0
 63138  1  0  0  0
 64139  1  0  0  0
 65140  1  0  0  0
 68 79  1  0  0  0
 71 72  1  0  0  0
 71141  1  0  0  0
 71142  1  0  0  0
 71 77  1  0  0  0
 72 77  1  0  0  0
 72143  1  0  0  0
 72144  1  0  0  0
 73 75  1  0  0  0
 73145  1  0  0  0
 73146  1  0  0  0
 73 81  1  0  0  0
 74 76  1  0  0  0
 74 81  1  0  0  0
 74147  1  0  0  0
 74148  1  0  0  0
 75 76  1  0  0  0
 75 78  1  0  0  0
 75149  1  0  0  0
 76 79  1  0  0  0
 76150  1  0  0  0
 77 81  1  0  0  0
 77151  1  0  0  0
 78 80  1  0  0  0
 78152  1  0  0  0
 78153  1  0  0  0
 79154  1  0  0  0
 79155  1  0  0  0
 80156  1  0  0  0
 81157  1  0  0  0
M  CHG  1  81   1
M  ISO  4   1 100  68 101  79 101  80 100
M  END
> <chiral flag>
0

> <version>
0

> <s_m_source_file>
/data/baiqing/PycharmProjects/Reinvent-master-3.2/result/LINK_invent/BTK/process_docking_weight1_custom_sum_contain_oxygen_bond_distance_aromatic_linkinvent_7_9_3/rearranged_h_0131.sdf

> <i_m_source_file_index>
9

> <r_mmod_Potential_Energy-OPLS-2005>
2393.521484375

> <r_mmod_Stretch_Energy-OPLS-2005>
1095.96630859375

> <r_mmod_Bend_Energy-OPLS-2005>
771.02294921875

> <r_mmod_Torsional_Energy-OPLS-2005>
329.420013427734

> <r_mmod_Improper_Torsional_Energy-OPLS-2005>
3.88143444061279

> <r_mmod_Van_der_Waal_Energy-OPLS-2005>
115.074653625488

> <r_mmod_Electrostatic_Energy-OPLS-2005>
-246.957214355469

> <r_mmod_Solvation_Energy-OPLS-2005>
-468.062530517578

> <b_mmod_Minimization_Converged-OPLS-2005>
0

> <r_mmod_RMS_Derivative-OPLS-2005>
3.45673823356628

$$$$
9
                    3D
 Structure written by MMmdl.
159167  0  0  1  0            999 V2000
  -30.6556  -14.5572   20.5520 C   0  0  0  0  0  0
  -30.4311  -12.3490   19.4389 C   0  0  0  0  0  0
  -29.5001  -12.4959   18.2160 C   0  0  0  0  0  0
  -28.0214  -12.3455   18.6293 C   0  0  0  0  0  0
  -27.6558  -13.2070   19.8685 C   0  0  2  0  0  0
  -28.6982  -13.0254   20.9926 C   0  0  0  0  0  0
  -25.2570  -13.8135   20.5693 C   0  0  0  0  0  0
  -24.1835  -13.0421   20.9196 C   0  0  0  0  0  0
  -24.6383  -11.6883   20.8746 C   0  0  0  0  0  0
  -23.9044  -10.4271   21.0408 C   0  0  0  0  0  0
  -24.3600   -9.4189   21.9186 C   0  0  0  0  0  0
  -23.6275   -8.2232   22.0760 C   0  0  0  0  0  0
  -22.4266   -8.0271   21.3542 C   0  0  0  0  0  0
  -21.9897   -9.0245   20.4652 C   0  0  0  0  0  0
  -22.7215  -10.2123   20.3050 C   0  0  0  0  0  0
  -21.6851   -6.0728   22.5273 C   0  0  0  0  0  0
  -21.4021   -6.5637   23.8202 C   0  0  0  0  0  0
  -21.3658   -5.6790   24.9167 C   0  0  0  0  0  0
  -21.6042   -4.3051   24.7222 C   0  0  0  0  0  0
  -21.8811   -3.8139   23.4341 C   0  0  0  0  0  0
  -21.9189   -4.6957   22.3396 C   0  0  0  0  0  0
  -22.7856  -13.5237   21.1843 C   0  0  0  0  0  0
  -22.1656   -4.2148   21.0972 F   0  0  0  0  0  0
  -21.5629   -3.4535   25.7730 F   0  0  0  0  0  0
  -30.0178  -13.3564   20.4309 N   0  0  0  0  0  0
  -26.2994  -12.9308   20.3335 N   0  0  0  0  0  0
  -25.9310  -11.6470   20.5761 N   0  0  0  0  0  0
  -22.0478  -12.8256   22.0393 N   0  0  0  0  0  0
  -25.4306  -15.1853   20.4098 N   0  0  0  0  0  0
  -31.8066  -14.7406   20.1495 O   0  0  0  0  0  0
  -21.6623   -6.8877   21.4239 O   0  0  0  0  0  0
  -22.3559  -14.5539   20.6663 O   0  0  0  0  0  0
  -24.6185  -31.8664   23.2064 C   0  0  0  0  0  0
  -25.9063  -32.4813   23.8371 C   0  0  1  0  0  0
  -27.2419  -27.3912   20.1270 C   0  0  0  0  0  0
  -25.5907  -33.8612   24.2322 N   0  0  0  0  0  0
  -23.4093  -30.4868   21.5481 C   0  0  2  0  0  0
  -24.8604  -28.9363   20.1258 C   0  0  0  0  0  0
  -22.7423  -29.4669   22.4996 C   0  0  0  0  0  0
  -18.0272  -28.1390   22.8494 C   0  0  0  0  0  0
  -24.1484  -36.7303   23.2644 C   0  0  0  0  0  0
  -25.9401  -30.8143   21.3696 C   0  0  0  0  0  0
  -26.0194  -29.4386   20.7329 C   0  0  0  0  0  0
  -27.2137  -28.6724   20.7358 C   0  0  0  0  0  0
  -26.0706  -26.9127   19.5089 C   0  0  0  0  0  0
  -24.8817  -27.6704   19.5122 C   0  0  0  0  0  0
  -23.6247  -29.8114   20.1661 C   0  0  0  0  0  0
  -25.4101  -36.3110   24.0351 C   0  0  1  0  0  0
  -20.5862  -28.3687   23.1307 C   0  0  2  0  0  0
  -20.6771  -26.9424   22.5420 C   0  0  0  0  0  0
  -19.5752  -26.6399   21.5214 C   0  0  0  0  0  0
  -18.1926  -26.7939   22.1627 C   0  0  0  0  0  0
  -19.1520  -28.8854   23.2897 C   0  0  0  0  0  0
  -18.9456  -30.1457   23.8913 C   0  0  0  0  0  0
  -17.6459  -30.6597   24.0571 C   0  0  0  0  0  0
  -25.9028  -34.9477   23.5132 C   0  0  0  0  0  0
  -16.5347  -29.9102   23.6335 C   0  0  0  0  0  0
  -16.7265  -28.6518   23.0358 C   0  0  0  0  0  0
  -26.4476  -31.6592   25.0709 C   0  0  0  0  0  0
  -25.3744  -31.3689   26.1458 C   0  0  0  0  0  0
  -27.0312  -30.3039   24.6093 C   0  0  0  0  0  0
  -27.6057  -32.4299   25.7468 C   0  0  0  0  0  0
  -27.5580  -37.1805   24.8472 C   0  0  0  0  0  0
  -21.4151  -29.3045   22.3710 N   0  0  0  0  0  0
  -26.4290  -37.3794   23.9420 N   0  0  0  0  0  0
  -24.6736  -31.0716   22.0997 N   0  0  0  0  0  0
  -23.4163  -28.8237   23.3093 O   0  0  0  0  0  0
  -28.3925  -26.6280   20.0319 O   0  0  0  0  0  0
  -26.5595  -34.8926   22.4697 O   0  0  0  0  0  0
  -23.5366  -32.1444   23.7422 O   0  0  0  0  0  0
  -26.6432  -22.7148   21.9676 C   0  0  0  0  0  0
  -27.3717  -21.6457   21.4174 C   0  0  0  0  0  0
  -27.1046  -24.0354   21.8337 C   0  0  0  0  0  0
  -28.5739  -21.8652   20.7094 C   0  0  0  0  0  0
  -28.2985  -24.3206   21.1419 C   0  0  0  0  0  0
  -29.0358  -23.2247   20.5633 C   0  0  0  0  0  0
  -30.3069  -23.5070   19.7709 C   0  0  0  0  0  0
  -29.2358  -20.6109   20.0544 C   0  0  0  0  0  0
  -28.7627  -25.8040   21.1584 C   0  0  0  0  0  0
  -30.2606  -16.9979   21.3058 C   0  0  0  0  0  0
  -29.5502  -18.1031   20.4390 C   0  0  0  0  0  0
  -29.8902  -15.5844   21.0044 N   0  0  0  0  0  0
  -29.6552  -19.5056   20.9791 N   0  3  0  0  0  0
  -31.4754  -12.4610   19.1421 H   0  0  0  0  0  0
  -30.3508  -11.3469   19.8643 H   0  0  0  0  0  0
  -29.7516  -11.7513   17.4593 H   0  0  0  0  0  0
  -29.6544  -13.4703   17.7499 H   0  0  0  0  0  0
  -27.8484  -11.2926   18.8542 H   0  0  0  0  0  0
  -27.3645  -12.5890   17.7931 H   0  0  0  0  0  0
  -27.6882  -14.2467   19.5434 H   0  0  0  0  0  0
  -28.6957  -11.9930   21.3442 H   0  0  0  0  0  0
  -28.4518  -13.6299   21.8680 H   0  0  0  0  0  0
  -25.2736   -9.5667   22.4781 H   0  0  0  0  0  0
  -23.9974   -7.4615   22.7485 H   0  0  0  0  0  0
  -21.0821   -8.8750   19.8973 H   0  0  0  0  0  0
  -22.3649  -10.9668   19.6169 H   0  0  0  0  0  0
  -21.2022   -7.6143   23.9711 H   0  0  0  0  0  0
  -21.1497   -6.0519   25.9072 H   0  0  0  0  0  0
  -22.0596   -2.7608   23.2824 H   0  0  0  0  0  0
  -22.4070  -11.9926   22.4812 H   0  0  0  0  0  0
  -21.1108  -13.1326   22.2590 H   0  0  0  0  0  0
  -24.6614  -15.8383   20.5109 H   0  0  0  0  0  0
  -26.2676  -15.6146   20.0378 H   0  0  0  0  0  0
  -26.7140  -32.5534   23.1138 H   0  0  0  0  0  0
  -25.0071  -33.9760   25.0482 H   0  0  0  0  0  0
  -22.7014  -31.3052   21.4007 H   0  0  0  0  0  0
  -23.3749  -35.9634   23.3322 H   0  0  0  0  0  0
  -24.3577  -36.8895   22.2050 H   0  0  0  0  0  0
  -23.7221  -37.6514   23.6635 H   0  0  0  0  0  0
  -26.0515  -31.5682   20.5888 H   0  0  0  0  0  0
  -26.8287  -30.8805   21.9851 H   0  0  0  0  0  0
  -28.1115  -29.0627   21.1953 H   0  0  0  0  0  0
  -26.0853  -25.9462   19.0231 H   0  0  0  0  0  0
  -23.9949  -27.2767   19.0336 H   0  0  0  0  0  0
  -23.7401  -30.5811   19.4022 H   0  0  0  0  0  0
  -22.7480  -29.2333   19.8697 H   0  0  0  0  0  0
  -25.1273  -36.1984   25.0843 H   0  0  0  0  0  0
  -20.9945  -28.3271   24.1430 H   0  0  0  0  0  0
  -20.5679  -26.2309   23.3612 H   0  0  0  0  0  0
  -21.6646  -26.7480   22.1210 H   0  0  0  0  0  0
  -19.6920  -25.6310   21.1242 H   0  0  0  0  0  0
  -19.6686  -27.3218   20.6742 H   0  0  0  0  0  0
  -17.4198  -26.6682   21.4028 H   0  0  0  0  0  0
  -18.0333  -26.0069   22.9010 H   0  0  0  0  0  0
  -19.7933  -30.7264   24.2296 H   0  0  0  0  0  0
  -17.5023  -31.6282   24.5175 H   0  0  0  0  0  0
  -15.5356  -30.3023   23.7646 H   0  0  0  0  0  0
  -15.8656  -28.0844   22.7077 H   0  0  0  0  0  0
  -24.5932  -30.7014   25.7799 H   0  0  0  0  0  0
  -24.8907  -32.2830   26.4908 H   0  0  0  0  0  0
  -25.8105  -30.8867   27.0215 H   0  0  0  0  0  0
  -26.2856  -29.6792   24.1158 H   0  0  0  0  0  0
  -27.4101  -29.7281   25.4546 H   0  0  0  0  0  0
  -27.8682  -30.4363   23.9237 H   0  0  0  0  0  0
  -27.2699  -33.3599   26.2066 H   0  0  0  0  0  0
  -28.3855  -32.6853   25.0285 H   0  0  0  0  0  0
  -28.0739  -31.8405   26.5362 H   0  0  0  0  0  0
  -28.2610  -38.0089   24.7518 H   0  0  0  0  0  0
  -28.1060  -36.2624   24.6302 H   0  0  0  0  0  0
  -27.2303  -37.1468   25.8877 H   0  0  0  0  0  0
  -20.9338  -29.8744   21.6896 H   0  0  0  0  0  0
  -26.0190  -38.2884   24.1408 H   0  0  0  0  0  0
  -25.7229  -22.5199   22.5011 H   0  0  0  0  0  0
  -26.9758  -20.6442   21.5250 H   0  0  0  0  0  0
  -26.5393  -24.8422   22.2810 H   0  0  0  0  0  0
  -30.2542  -23.0450   18.7849 H   0  0  0  0  0  0
  -31.1837  -23.1196   20.2908 H   0  0  0  0  0  0
  -30.4732  -24.5670   19.5892 H   0  0  0  0  0  0
  -30.0956  -20.8800   19.4419 H   0  0  0  0  0  0
  -28.5040  -20.2085   19.3541 H   0  0  0  0  0  0
  -29.8476  -25.8334   21.2552 H   0  0  0  0  0  0
  -28.4061  -26.2731   22.0783 H   0  0  0  0  0  0
  -30.0164  -17.1645   22.3556 H   0  0  0  0  0  0
  -31.3414  -17.1218   21.2311 H   0  0  0  0  0  0
  -28.4915  -17.8646   20.3398 H   0  0  0  0  0  0
  -29.9713  -18.0776   19.4316 H   0  0  0  0  0  0
  -28.9499  -15.3189   21.2538 H   0  0  0  0  0  0
  -29.0894  -19.5607   21.8092 H   0  0  0  0  0  0
  -30.6067  -19.6851   21.2539 H   0  0  0  0  0  0
  1 25  1  0  0  0
  1 30  2  0  0  0
  1 82  1  0  0  0
  2  3  1  0  0  0
  2 25  1  0  0  0
  2 84  1  0  0  0
  2 85  1  0  0  0
  3  4  1  0  0  0
  3 86  1  0  0  0
  3 87  1  0  0  0
  4  5  1  0  0  0
  4 88  1  0  0  0
  4 89  1  0  0  0
  5  6  1  0  0  0
  5 26  1  0  0  0
  5 90  1  0  0  0
  6 25  1  0  0  0
  6 91  1  0  0  0
  6 92  1  0  0  0
  7  8  2  0  0  0
  7 26  1  0  0  0
  7 29  1  0  0  0
  8  9  1  0  0  0
  8 22  1  0  0  0
  9 10  1  0  0  0
  9 27  2  0  0  0
 10 11  2  0  0  0
 10 15  1  0  0  0
 11 12  1  0  0  0
 11 93  1  0  0  0
 12 13  2  0  0  0
 12 94  1  0  0  0
 13 14  1  0  0  0
 13 31  1  0  0  0
 14 15  2  0  0  0
 14 95  1  0  0  0
 15 96  1  0  0  0
 16 17  2  0  0  0
 16 21  1  0  0  0
 16 31  1  0  0  0
 17 18  1  0  0  0
 17 97  1  0  0  0
 18 19  2  0  0  0
 18 98  1  0  0  0
 19 20  1  0  0  0
 19 24  1  0  0  0
 20 21  2  0  0  0
 20 99  1  0  0  0
 21 23  1  0  0  0
 22 28  1  0  0  0
 22 32  2  0  0  0
 26 27  1  0  0  0
 28100  1  0  0  0
 28101  1  0  0  0
 29102  1  0  0  0
 29103  1  0  0  0
 33 34  1  0  0  0
 33 66  1  0  0  0
 33 70  2  0  0  0
 34 36  1  0  0  0
 34 59  1  0  0  0
 34104  1  0  0  0
 35 44  2  0  0  0
 35 45  1  0  0  0
 35 68  1  0  0  0
 36 56  1  0  0  0
 36105  1  0  0  0
 37 39  1  0  0  0
 37 47  1  0  0  0
 37 66  1  0  0  0
 37106  1  0  0  0
 38 43  2  0  0  0
 38 46  1  0  0  0
 38 47  1  0  0  0
 39 64  1  0  0  0
 39 67  2  0  0  0
 40 52  1  0  0  0
 40 53  2  0  0  0
 40 58  1  0  0  0
 41107  1  0  0  0
 41108  1  0  0  0
 41109  1  0  0  0
 41 48  1  0  0  0
 42 43  1  0  0  0
 42 66  1  0  0  0
 42110  1  0  0  0
 42111  1  0  0  0
 43 44  1  0  0  0
 44112  1  0  0  0
 45 46  2  0  0  0
 45113  1  0  0  0
 46114  1  0  0  0
 47115  1  0  0  0
 47116  1  0  0  0
 48 56  1  0  0  0
 48 65  1  0  0  0
 48117  1  0  0  0
 49 50  1  0  0  0
 49 53  1  0  0  0
 49 64  1  0  0  0
 49118  1  0  0  0
 50 51  1  0  0  0
 50119  1  0  0  0
 50120  1  0  0  0
 51 52  1  0  0  0
 51121  1  0  0  0
 51122  1  0  0  0
 52123  1  0  0  0
 52124  1  0  0  0
 53 54  1  0  0  0
 54 55  2  0  0  0
 54125  1  0  0  0
 55 57  1  0  0  0
 55126  1  0  0  0
 56 69  2  0  0  0
 57 58  2  0  0  0
 57127  1  0  0  0
 58128  1  0  0  0
 59 60  1  0  0  0
 59 61  1  0  0  0
 59 62  1  0  0  0
 60129  1  0  0  0
 60130  1  0  0  0
 60131  1  0  0  0
 61132  1  0  0  0
 61133  1  0  0  0
 61134  1  0  0  0
 62135  1  0  0  0
 62136  1  0  0  0
 62137  1  0  0  0
 63 65  1  0  0  0
 63138  1  0  0  0
 63139  1  0  0  0
 63140  1  0  0  0
 64141  1  0  0  0
 65142  1  0  0  0
 68 79  1  0  0  0
 71 72  2  0  0  0
 71 73  1  0  0  0
 71143  1  0  0  0
 72 74  1  0  0  0
 72144  1  0  0  0
 73 75  2  0  0  0
 73145  1  0  0  0
 74 76  2  0  0  0
 74 78  1  0  0  0
 75 76  1  0  0  0
 75 79  1  0  0  0
 76 77  1  0  0  0
 77146  1  0  0  0
 77147  1  0  0  0
 77148  1  0  0  0
 78 83  1  0  0  0
 78149  1  0  0  0
 78150  1  0  0  0
 79151  1  0  0  0
 79152  1  0  0  0
 80 81  1  0  0  0
 80 82  1  0  0  0
 80153  1  0  0  0
 80154  1  0  0  0
 81 83  1  0  0  0
 81155  1  0  0  0
 81156  1  0  0  0
 82157  1  0  0  0
 83158  1  0  0  0
 83159  1  0  0  0
M  CHG  1  83   1
M  ISO  4   1 100  68 101  79 101  82 100
M  END
> <chiral flag>
0

> <version>
0

> <s_m_source_file>
/data/baiqing/PycharmProjects/Reinvent-master-3.2/result/LINK_invent/BTK/process_docking_weight1_custom_sum_contain_oxygen_bond_distance_aromatic_linkinvent_7_9_3/rearranged_h_0131.sdf

> <i_m_source_file_index>
10

> <r_mmod_Potential_Energy-OPLS-2005>
-235.676010131836

> <r_mmod_Stretch_Energy-OPLS-2005>
56.3476867675781

> <r_mmod_Bend_Energy-OPLS-2005>
114.173789978027

> <r_mmod_Torsional_Energy-OPLS-2005>
234.169982910156

> <r_mmod_Improper_Torsional_Energy-OPLS-2005>
4.14269113540649

> <r_mmod_Van_der_Waal_Energy-OPLS-2005>
139.405624389648

> <r_mmod_Electrostatic_Energy-OPLS-2005>
-321.304534912109

> <r_mmod_Solvation_Energy-OPLS-2005>
-485.520080566406

> <b_mmod_Minimization_Converged-OPLS-2005>
0

> <r_mmod_RMS_Derivative-OPLS-2005>
2.50196862220764

$$$$
10
                    3D
 Structure written by MMmdl.
173182  0  0  1  0            999 V2000
  -30.6860  -14.5504   20.5919 C   0  0  0  0  0  0
  -30.4337  -12.3641   19.4369 C   0  0  0  0  0  0
  -29.5050  -12.5096   18.2120 C   0  0  0  0  0  0
  -28.0251  -12.3626   18.6236 C   0  0  0  0  0  0
  -27.6601  -13.2140   19.8703 C   0  0  2  0  0  0
  -28.7024  -13.0304   20.9957 C   0  0  0  0  0  0
  -25.2590  -13.8172   20.5676 C   0  0  0  0  0  0
  -24.1852  -13.0444   20.9171 C   0  0  0  0  0  0
  -24.6398  -11.6906   20.8703 C   0  0  0  0  0  0
  -23.9048  -10.4285   21.0386 C   0  0  0  0  0  0
  -24.3610   -9.4213   21.9177 C   0  0  0  0  0  0
  -23.6288   -8.2249   22.0774 C   0  0  0  0  0  0
  -22.4272   -8.0266   21.3551 C   0  0  0  0  0  0
  -21.9879   -9.0233   20.4650 C   0  0  0  0  0  0
  -22.7207  -10.2117   20.3041 C   0  0  0  0  0  0
  -21.6852   -6.0708   22.5263 C   0  0  0  0  0  0
  -21.4002   -6.5612   23.8191 C   0  0  0  0  0  0
  -21.3675   -5.6780   24.9170 C   0  0  0  0  0  0
  -21.6055   -4.3038   24.7219 C   0  0  0  0  0  0
  -21.8818   -3.8115   23.4340 C   0  0  0  0  0  0
  -21.9188   -4.6931   22.3393 C   0  0  0  0  0  0
  -22.7872  -13.5238   21.1810 C   0  0  0  0  0  0
  -22.1670   -4.2107   21.0976 F   0  0  0  0  0  0
  -21.5648   -3.4533   25.7742 F   0  0  0  0  0  0
  -30.0235  -13.3647   20.4424 N   0  0  0  0  0  0
  -26.3025  -12.9340   20.3343 N   0  0  0  0  0  0
  -25.9326  -11.6496   20.5740 N   0  0  0  0  0  0
  -22.0504  -12.8260   22.0385 N   0  0  0  0  0  0
  -25.4293  -15.1893   20.4071 N   0  0  0  0  0  0
  -31.8138  -14.7288   20.1234 O   0  0  0  0  0  0
  -21.6646   -6.8851   21.4231 O   0  0  0  0  0  0
  -22.3528  -14.5503   20.6601 O   0  0  0  0  0  0
  -24.6169  -31.8666   23.2072 C   0  0  0  0  0  0
  -25.9038  -32.4821   23.8384 C   0  0  1  0  0  0
  -27.2232  -27.3856   20.1304 C   0  0  0  0  0  0
  -25.5880  -33.8617   24.2329 N   0  0  0  0  0  0
  -23.4073  -30.4903   21.5482 C   0  0  2  0  0  0
  -24.8540  -28.9454   20.1186 C   0  0  0  0  0  0
  -22.7416  -29.4674   22.4976 C   0  0  0  0  0  0
  -18.0278  -28.1369   22.8498 C   0  0  0  0  0  0
  -24.1477  -36.7314   23.2642 C   0  0  0  0  0  0
  -25.9394  -30.8178   21.3663 C   0  0  0  0  0  0
  -26.0164  -29.4462   20.7219 C   0  0  0  0  0  0
  -27.2054  -28.6754   20.7217 C   0  0  0  0  0  0
  -26.0519  -26.9161   19.5022 C   0  0  0  0  0  0
  -24.8698  -27.6825   19.5016 C   0  0  0  0  0  0
  -23.6189  -29.8208   20.1643 C   0  0  0  0  0  0
  -25.4098  -36.3119   24.0352 C   0  0  1  0  0  0
  -20.5874  -28.3667   23.1305 C   0  0  2  0  0  0
  -20.6776  -26.9404   22.5409 C   0  0  0  0  0  0
  -19.5752  -26.6379   21.5209 C   0  0  0  0  0  0
  -18.1931  -26.7921   22.1622 C   0  0  0  0  0  0
  -19.1529  -28.8830   23.2904 C   0  0  0  0  0  0
  -18.9460  -30.1433   23.8921 C   0  0  0  0  0  0
  -17.6467  -30.6580   24.0559 C   0  0  0  0  0  0
  -25.9026  -34.9478   23.5141 C   0  0  0  0  0  0
  -16.5357  -29.9089   23.6307 C   0  0  0  0  0  0
  -16.7270  -28.6495   23.0349 C   0  0  0  0  0  0
  -26.4445  -31.6603   25.0715 C   0  0  0  0  0  0
  -25.3714  -31.3728   26.1466 C   0  0  0  0  0  0
  -27.0254  -30.3039   24.6096 C   0  0  0  0  0  0
  -27.6018  -32.4321   25.7490 C   0  0  0  0  0  0
  -27.5589  -37.1811   24.8472 C   0  0  0  0  0  0
  -21.4143  -29.3042   22.3705 N   0  0  0  0  0  0
  -26.4301  -37.3794   23.9422 N   0  0  0  0  0  0
  -24.6726  -31.0744   22.0986 N   0  0  0  0  0  0
  -23.4175  -28.8218   23.3028 O   0  0  0  0  0  0
  -28.3594  -26.5944   20.1170 O   0  0  0  0  0  0
  -26.5599  -34.8930   22.4708 O   0  0  0  0  0  0
  -23.5356  -32.1435   23.7447 O   0  0  0  0  0  0
  -27.5644  -18.9856   20.0644 C   0  0  0  0  0  0
  -28.4067  -17.9352   20.4490 C   0  0  0  0  0  0
  -27.9426  -20.3182   20.2837 C   0  0  0  0  0  0
  -29.9971  -19.5560   21.3973 C   0  0  0  0  0  0
  -29.6301  -18.1807   21.1086 C   0  0  0  0  0  0
  -29.1620  -20.6454   20.9207 C   0  0  0  0  0  0
  -30.8044  -20.2673   23.7385 C   0  0  0  0  0  0
  -32.3862  -20.6616   21.7705 C   0  0  0  0  0  0
  -32.0051  -20.3052   24.7015 C   0  0  0  0  0  0
  -33.5854  -20.6150   22.7310 C   0  0  0  0  0  0
  -31.2196  -19.8070   22.3224 C   0  0  2  0  0  0
  -33.1670  -21.1319   24.1215 C   0  0  2  0  0  0
  -30.5008  -16.9390   21.4975 C   0  0  0  0  0  0
  -29.4968  -22.1662   21.0767 C   0  0  0  0  0  0
  -27.8516  -24.1361   20.7776 C   0  0  0  0  0  0
  -28.4379  -25.5506   21.1284 C   0  0  0  0  0  0
  -30.0041  -15.5635   21.1885 N   0  0  0  0  0  0
  -28.7930  -23.1341   20.1743 N   0  3  0  0  0  0
  -34.2704  -21.0784   25.0020 O   0  0  0  0  0  0
  -31.4780  -12.4801   19.1371 H   0  0  0  0  0  0
  -30.3537  -11.3587   19.8522 H   0  0  0  0  0  0
  -29.7545  -11.7623   17.4566 H   0  0  0  0  0  0
  -29.6667  -13.4809   17.7419 H   0  0  0  0  0  0
  -27.8481  -11.3065   18.8330 H   0  0  0  0  0  0
  -27.3722  -12.6235   17.7884 H   0  0  0  0  0  0
  -27.6917  -14.2569   19.5570 H   0  0  0  0  0  0
  -28.7016  -11.9940   21.3363 H   0  0  0  0  0  0
  -28.4497  -13.6291   21.8731 H   0  0  0  0  0  0
  -25.2775   -9.5691   22.4748 H   0  0  0  0  0  0
  -23.9986   -7.4632   22.7498 H   0  0  0  0  0  0
  -21.0806   -8.8715   19.8957 H   0  0  0  0  0  0
  -22.3645  -10.9642   19.6133 H   0  0  0  0  0  0
  -21.1984   -7.6116   23.9675 H   0  0  0  0  0  0
  -21.1526   -6.0527   25.9076 H   0  0  0  0  0  0
  -22.0587   -2.7568   23.2861 H   0  0  0  0  0  0
  -22.4115  -11.9953   22.4826 H   0  0  0  0  0  0
  -21.1100  -13.1273   22.2525 H   0  0  0  0  0  0
  -24.6619  -15.8435   20.5105 H   0  0  0  0  0  0
  -26.2757  -15.6211   20.0597 H   0  0  0  0  0  0
  -26.7106  -32.5520   23.1144 H   0  0  0  0  0  0
  -25.0007  -33.9776   25.0456 H   0  0  0  0  0  0
  -22.6975  -31.3076   21.4077 H   0  0  0  0  0  0
  -23.3737  -35.9647   23.3312 H   0  0  0  0  0  0
  -24.3578  -36.8912   22.2056 H   0  0  0  0  0  0
  -23.7219  -37.6523   23.6637 H   0  0  0  0  0  0
  -26.0576  -31.5790   20.5941 H   0  0  0  0  0  0
  -26.8253  -30.8754   21.9869 H   0  0  0  0  0  0
  -28.1028  -29.0603   21.1845 H   0  0  0  0  0  0
  -26.0469  -25.9580   19.0038 H   0  0  0  0  0  0
  -23.9802  -27.2961   19.0223 H   0  0  0  0  0  0
  -23.7327  -30.5965   19.4056 H   0  0  0  0  0  0
  -22.7401  -29.2481   19.8652 H   0  0  0  0  0  0
  -25.1268  -36.1993   25.0851 H   0  0  0  0  0  0
  -20.9977  -28.3240   24.1421 H   0  0  0  0  0  0
  -20.5667  -26.2289   23.3602 H   0  0  0  0  0  0
  -21.6645  -26.7438   22.1208 H   0  0  0  0  0  0
  -19.6910  -25.6289   21.1243 H   0  0  0  0  0  0
  -19.6690  -27.3183   20.6736 H   0  0  0  0  0  0
  -17.4203  -26.6672   21.4025 H   0  0  0  0  0  0
  -18.0328  -26.0056   22.9009 H   0  0  0  0  0  0
  -19.7939  -30.7232   24.2323 H   0  0  0  0  0  0
  -17.5023  -31.6267   24.5149 H   0  0  0  0  0  0
  -15.5360  -30.3004   23.7603 H   0  0  0  0  0  0
  -15.8671  -28.0809   22.7068 H   0  0  0  0  0  0
  -24.5859  -30.7103   25.7807 H   0  0  0  0  0  0
  -24.8930  -32.2898   26.4927 H   0  0  0  0  0  0
  -25.8057  -30.8882   27.0218 H   0  0  0  0  0  0
  -26.2784  -29.6838   24.1121 H   0  0  0  0  0  0
  -27.3984  -29.7243   25.4548 H   0  0  0  0  0  0
  -27.8649  -30.4350   23.9261 H   0  0  0  0  0  0
  -27.2613  -33.3595   26.2109 H   0  0  0  0  0  0
  -28.3807  -32.6926   25.0312 H   0  0  0  0  0  0
  -28.0697  -31.8417   26.5381 H   0  0  0  0  0  0
  -28.2604  -38.0106   24.7505 H   0  0  0  0  0  0
  -28.1090  -36.2640   24.6305 H   0  0  0  0  0  0
  -27.2325  -37.1473   25.8879 H   0  0  0  0  0  0
  -20.9289  -29.8774   21.6942 H   0  0  0  0  0  0
  -26.0197  -38.2886   24.1389 H   0  0  0  0  0  0
  -26.6191  -18.7639   19.5900 H   0  0  0  0  0  0
  -28.0839  -16.9249   20.2514 H   0  0  0  0  0  0
  -27.2501  -21.0827   19.9610 H   0  0  0  0  0  0
  -30.3291  -21.2457   23.7166 H   0  0  0  0  0  0
  -30.0634  -19.5765   24.1441 H   0  0  0  0  0  0
  -32.6776  -20.3235   20.7747 H   0  0  0  0  0  0
  -32.1382  -21.7111   21.6911 H   0  0  0  0  0  0
  -32.3308  -19.2830   24.9027 H   0  0  0  0  0  0
  -31.6919  -20.7216   25.6608 H   0  0  0  0  0  0
  -34.4004  -21.2217   22.3328 H   0  0  0  0  0  0
  -33.9616  -19.5935   22.7939 H   0  0  0  0  0  0
  -31.6983  -18.8480   22.4858 H   0  0  0  0  0  0
  -32.8516  -22.1745   24.0371 H   0  0  0  0  0  0
  -30.6554  -16.9554   22.5781 H   0  0  0  0  0  0
  -31.4854  -17.0813   21.0486 H   0  0  0  0  0  0
  -30.5134  -22.3107   20.7337 H   0  0  0  0  0  0
  -29.4553  -22.4844   22.1167 H   0  0  0  0  0  0
  -27.0093  -24.2529   20.1006 H   0  0  0  0  0  0
  -27.4260  -23.6929   21.6791 H   0  0  0  0  0  0
  -29.4773  -25.4493   21.4415 H   0  0  0  0  0  0
  -27.9246  -25.9098   22.0234 H   0  0  0  0  0  0
  -29.0883  -15.3265   21.5381 H   0  0  0  0  0  0
  -28.2858  -22.5717   19.5124 H   0  0  0  0  0  0
  -29.4906  -23.6312   19.6413 H   0  0  0  0  0  0
  -34.5526  -20.1711   25.0704 H   0  0  0  0  0  0
  1 25  1  0  0  0
  1 30  2  0  0  0
  1 87  1  0  0  0
  2  3  1  0  0  0
  2 25  1  0  0  0
  2 90  1  0  0  0
  2 91  1  0  0  0
  3  4  1  0  0  0
  3 92  1  0  0  0
  3 93  1  0  0  0
  4  5  1  0  0  0
  4 94  1  0  0  0
  4 95  1  0  0  0
  5  6  1  0  0  0
  5 26  1  0  0  0
  5 96  1  0  0  0
  6 25  1  0  0  0
  6 97  1  0  0  0
  6 98  1  0  0  0
  7  8  2  0  0  0
  7 26  1  0  0  0
  7 29  1  0  0  0
  8  9  1  0  0  0
  8 22  1  0  0  0
  9 10  1  0  0  0
  9 27  2  0  0  0
 10 11  2  0  0  0
 10 15  1  0  0  0
 11 12  1  0  0  0
 11 99  1  0  0  0
 12 13  2  0  0  0
 12100  1  0  0  0
 13 14  1  0  0  0
 13 31  1  0  0  0
 14 15  2  0  0  0
 14101  1  0  0  0
 15102  1  0  0  0
 16 17  2  0  0  0
 16 21  1  0  0  0
 16 31  1  0  0  0
 17 18  1  0  0  0
 17103  1  0  0  0
 18 19  2  0  0  0
 18104  1  0  0  0
 19 20  1  0  0  0
 19 24  1  0  0  0
 20 21  2  0  0  0
 20105  1  0  0  0
 21 23  1  0  0  0
 22 28  1  0  0  0
 22 32  2  0  0  0
 26 27  1  0  0  0
 28106  1  0  0  0
 28107  1  0  0  0
 29108  1  0  0  0
 29109  1  0  0  0
 33 34  1  0  0  0
 33 66  1  0  0  0
 33 70  2  0  0  0
 34 36  1  0  0  0
 34 59  1  0  0  0
 34110  1  0  0  0
 35 44  2  0  0  0
 35 45  1  0  0  0
 35 68  1  0  0  0
 36 56  1  0  0  0
 36111  1  0  0  0
 37 39  1  0  0  0
 37 47  1  0  0  0
 37 66  1  0  0  0
 37112  1  0  0  0
 38 43  2  0  0  0
 38 46  1  0  0  0
 38 47  1  0  0  0
 39 64  1  0  0  0
 39 67  2  0  0  0
 40 52  1  0  0  0
 40 53  2  0  0  0
 40 58  1  0  0  0
 41113  1  0  0  0
 41114  1  0  0  0
 41115  1  0  0  0
 41 48  1  0  0  0
 42 43  1  0  0  0
 42 66  1  0  0  0
 42116  1  0  0  0
 42117  1  0  0  0
 43 44  1  0  0  0
 44118  1  0  0  0
 45 46  2  0  0  0
 45119  1  0  0  0
 46120  1  0  0  0
 47121  1  0  0  0
 47122  1  0  0  0
 48 56  1  0  0  0
 48 65  1  0  0  0
 48123  1  0  0  0
 49 50  1  0  0  0
 49 53  1  0  0  0
 49 64  1  0  0  0
 49124  1  0  0  0
 50 51  1  0  0  0
 50125  1  0  0  0
 50126  1  0  0  0
 51 52  1  0  0  0
 51127  1  0  0  0
 51128  1  0  0  0
 52129  1  0  0  0
 52130  1  0  0  0
 53 54  1  0  0  0
 54 55  2  0  0  0
 54131  1  0  0  0
 55 57  1  0  0  0
 55132  1  0  0  0
 56 69  2  0  0  0
 57 58  2  0  0  0
 57133  1  0  0  0
 58134  1  0  0  0
 59 60  1  0  0  0
 59 61  1  0  0  0
 59 62  1  0  0  0
 60135  1  0  0  0
 60136  1  0  0  0
 60137  1  0  0  0
 61138  1  0  0  0
 61139  1  0  0  0
 61140  1  0  0  0
 62141  1  0  0  0
 62142  1  0  0  0
 62143  1  0  0  0
 63 65  1  0  0  0
 63144  1  0  0  0
 63145  1  0  0  0
 63146  1  0  0  0
 64147  1  0  0  0
 65148  1  0  0  0
 68 86  1  0  0  0
 71 72  2  0  0  0
 71 73  1  0  0  0
 71149  1  0  0  0
 72 75  1  0  0  0
 72150  1  0  0  0
 73 76  2  0  0  0
 73151  1  0  0  0
 74 75  2  0  0  0
 74 76  1  0  0  0
 74 81  1  0  0  0
 75 83  1  0  0  0
 76 84  1  0  0  0
 77 79  1  0  0  0
 77 81  1  0  0  0
 77152  1  0  0  0
 77153  1  0  0  0
 78 80  1  0  0  0
 78 81  1  0  0  0
 78154  1  0  0  0
 78155  1  0  0  0
 79 82  1  0  0  0
 79156  1  0  0  0
 79157  1  0  0  0
 80 82  1  0  0  0
 80158  1  0  0  0
 80159  1  0  0  0
 81160  1  0  0  0
 82 89  1  0  0  0
 82161  1  0  0  0
 83 87  1  0  0  0
 83162  1  0  0  0
 83163  1  0  0  0
 84 88  1  0  0  0
 84164  1  0  0  0
 84165  1  0  0  0
 85 86  1  0  0  0
 85 88  1  0  0  0
 85166  1  0  0  0
 85167  1  0  0  0
 86168  1  0  0  0
 86169  1  0  0  0
 87170  1  0  0  0
 88171  1  0  0  0
 88172  1  0  0  0
 89173  1  0  0  0
M  CHG  1  88   1
M  ISO  4   1 100  68 101  86 101  87 100
M  END
> <chiral flag>
0

> <version>
0

> <s_m_source_file>
/data/baiqing/PycharmProjects/Reinvent-master-3.2/result/LINK_invent/BTK/process_docking_weight1_custom_sum_contain_oxygen_bond_distance_aromatic_linkinvent_7_9_3/rearranged_h_0131.sdf

> <i_m_source_file_index>
11

> <r_mmod_Potential_Energy-OPLS-2005>
-183.779937744141

> <r_mmod_Stretch_Energy-OPLS-2005>
67.2488555908203

> <r_mmod_Bend_Energy-OPLS-2005>
137.18701171875

> <r_mmod_Torsional_Energy-OPLS-2005>
261.240844726562

> <r_mmod_Improper_Torsional_Energy-OPLS-2005>
2.9218168258667

> <r_mmod_Van_der_Waal_Energy-OPLS-2005>
154.873672485352

> <r_mmod_Electrostatic_Energy-OPLS-2005>
-359.380126953125

> <r_mmod_Solvation_Energy-OPLS-2005>
-471.172973632812

> <b_mmod_Minimization_Converged-OPLS-2005>
0

> <r_mmod_RMS_Derivative-OPLS-2005>
3.16962647438049

$$$$
11
                    3D
 Structure written by MMmdl.
167176  0  0  1  0            999 V2000
  -30.7045  -14.4527   20.5694 C   0  0  0  0  0  0
  -30.4186  -12.2913   19.4250 C   0  0  0  0  0  0
  -29.4943  -12.5045   18.2082 C   0  0  0  0  0  0
  -28.0140  -12.3701   18.6175 C   0  0  0  0  0  0
  -27.6625  -13.2061   19.8780 C   0  0  2  0  0  0
  -28.7018  -12.9773   20.9990 C   0  0  0  0  0  0
  -25.2587  -13.8163   20.5682 C   0  0  0  0  0  0
  -24.1834  -13.0440   20.9170 C   0  0  0  0  0  0
  -24.6388  -11.6905   20.8731 C   0  0  0  0  0  0
  -23.9057  -10.4289   21.0401 C   0  0  0  0  0  0
  -24.3610   -9.4207   21.9182 C   0  0  0  0  0  0
  -23.6288   -8.2243   22.0756 C   0  0  0  0  0  0
  -22.4271   -8.0278   21.3546 C   0  0  0  0  0  0
  -21.9904   -9.0245   20.4645 C   0  0  0  0  0  0
  -22.7233  -10.2126   20.3048 C   0  0  0  0  0  0
  -21.6852   -6.0733   22.5282 C   0  0  0  0  0  0
  -21.4011   -6.5636   23.8213 C   0  0  0  0  0  0
  -21.3660   -5.6788   24.9175 C   0  0  0  0  0  0
  -21.6046   -4.3052   24.7224 C   0  0  0  0  0  0
  -21.8819   -3.8143   23.4344 C   0  0  0  0  0  0
  -21.9191   -4.6961   22.3403 C   0  0  0  0  0  0
  -22.7857  -13.5239   21.1835 C   0  0  0  0  0  0
  -22.1658   -4.2147   21.0981 F   0  0  0  0  0  0
  -21.5631   -3.4537   25.7736 F   0  0  0  0  0  0
  -30.0368  -13.2735   20.4514 N   0  0  0  0  0  0
  -26.3026  -12.9332   20.3379 N   0  0  0  0  0  0
  -25.9317  -11.6492   20.5774 N   0  0  0  0  0  0
  -22.0495  -12.8219   22.0381 N   0  0  0  0  0  0
  -25.4323  -15.1880   20.4098 N   0  0  0  0  0  0
  -31.8360  -14.6162   20.1057 O   0  0  0  0  0  0
  -21.6639   -6.8874   21.4243 O   0  0  0  0  0  0
  -22.3545  -14.5558   20.6706 O   0  0  0  0  0  0
  -24.6110  -31.8696   23.2119 C   0  0  0  0  0  0
  -25.9012  -32.4835   23.8410 C   0  0  1  0  0  0
  -27.2477  -27.4527   20.1073 C   0  0  0  0  0  0
  -25.5879  -33.8632   24.2345 N   0  0  0  0  0  0
  -23.3998  -30.4908   21.5499 C   0  0  2  0  0  0
  -24.8519  -28.9563   20.1179 C   0  0  0  0  0  0
  -22.7397  -29.4662   22.4996 C   0  0  0  0  0  0
  -18.0267  -28.1381   22.8491 C   0  0  0  0  0  0
  -24.1480  -36.7318   23.2633 C   0  0  0  0  0  0
  -25.9239  -30.8419   21.3622 C   0  0  0  0  0  0
  -26.0053  -29.4727   20.7212 C   0  0  0  0  0  0
  -27.2041  -28.7277   20.7231 C   0  0  0  0  0  0
  -26.0833  -26.9556   19.4884 C   0  0  0  0  0  0
  -24.8838  -27.6935   19.5001 C   0  0  0  0  0  0
  -23.6104  -29.8183   20.1654 C   0  0  0  0  0  0
  -25.4098  -36.3122   24.0344 C   0  0  1  0  0  0
  -20.5856  -28.3663   23.1328 C   0  0  2  0  0  0
  -20.6763  -26.9401   22.5427 C   0  0  0  0  0  0
  -19.5747  -26.6391   21.5216 C   0  0  0  0  0  0
  -18.1917  -26.7930   22.1615 C   0  0  0  0  0  0
  -19.1517  -28.8837   23.2910 C   0  0  0  0  0  0
  -18.9448  -30.1442   23.8925 C   0  0  0  0  0  0
  -17.6452  -30.6589   24.0572 C   0  0  0  0  0  0
  -25.9026  -34.9483   23.5145 C   0  0  0  0  0  0
  -16.5340  -29.9099   23.6327 C   0  0  0  0  0  0
  -16.7257  -28.6514   23.0345 C   0  0  0  0  0  0
  -26.4461  -31.6599   25.0720 C   0  0  0  0  0  0
  -25.3740  -31.3686   26.1474 C   0  0  0  0  0  0
  -27.0294  -30.3053   24.6056 C   0  0  0  0  0  0
  -27.6040  -32.4312   25.7484 C   0  0  0  0  0  0
  -27.5586  -37.1805   24.8450 C   0  0  0  0  0  0
  -21.4127  -29.3033   22.3738 N   0  0  0  0  0  0
  -26.4283  -37.3808   23.9420 N   0  0  0  0  0  0
  -24.6626  -31.0818   22.1005 N   0  0  0  0  0  0
  -23.4182  -28.8205   23.3030 O   0  0  0  0  0  0
  -28.3768  -26.6644   20.0546 O   0  0  0  0  0  0
  -26.5595  -34.8928   22.4710 O   0  0  0  0  0  0
  -23.5311  -32.1430   23.7530 O   0  0  0  0  0  0
  -29.4282  -19.1143   21.6898 C   0  0  0  0  0  0
  -29.3391  -17.7098   21.7902 C   0  0  0  0  0  0
  -31.0673  -17.4895   20.1046 C   0  0  0  0  0  0
  -30.3428  -19.7250   20.8022 C   0  0  0  0  0  0
  -30.1637  -16.8745   21.0069 C   0  0  0  0  0  0
  -31.1706  -18.9017   19.9946 C   0  0  0  0  0  0
  -29.1734  -21.9731   20.2554 C   0  0  0  0  0  0
  -30.8658  -21.8957   22.0656 C   0  0  0  0  0  0
  -29.4253  -23.4926   20.0792 C   0  0  0  0  0  0
  -31.1305  -23.4034   21.8798 C   0  0  0  0  0  0
  -30.4502  -21.2586   20.7332 C   0  0  1  0  0  0
  -32.8660  -18.7187   18.2830 C   0  0  0  0  0  0
  -30.3201  -25.5871   21.0912 C   0  0  0  0  0  0
  -29.1556  -26.5888   21.2477 C   0  0  0  0  0  0
  -30.0015  -15.4543   21.1371 N   0  0  0  0  0  0
  -29.9688  -24.1475   21.3075 N   0  3  1  0  0  0
  -32.0496  -19.5215   19.1280 O   0  0  0  0  0  0
  -31.4651  -12.3783   19.1276 H   0  0  0  0  0  0
  -30.3082  -11.2790   19.8173 H   0  0  0  0  0  0
  -29.7316  -11.7836   17.4248 H   0  0  0  0  0  0
  -29.6692  -13.4923   17.7788 H   0  0  0  0  0  0
  -27.8187  -11.3142   18.8082 H   0  0  0  0  0  0
  -27.3656  -12.6521   17.7869 H   0  0  0  0  0  0
  -27.7102  -14.2561   19.5877 H   0  0  0  0  0  0
  -28.6705  -11.9405   21.3372 H   0  0  0  0  0  0
  -28.4644  -13.5737   21.8811 H   0  0  0  0  0  0
  -25.2755   -9.5688   22.4756 H   0  0  0  0  0  0
  -23.9998   -7.4636   22.7476 H   0  0  0  0  0  0
  -21.0838   -8.8760   19.8946 H   0  0  0  0  0  0
  -22.3695  -10.9659   19.6149 H   0  0  0  0  0  0
  -21.2000   -7.6141   23.9720 H   0  0  0  0  0  0
  -21.1482   -6.0515   25.9080 H   0  0  0  0  0  0
  -22.0596   -2.7606   23.2846 H   0  0  0  0  0  0
  -22.4095  -11.9855   22.4735 H   0  0  0  0  0  0
  -21.1111  -13.1238   22.2588 H   0  0  0  0  0  0
  -24.6694  -15.8470   20.5212 H   0  0  0  0  0  0
  -26.2910  -15.6263   20.0999 H   0  0  0  0  0  0
  -26.7088  -32.5572   23.1190 H   0  0  0  0  0  0
  -25.0027  -33.9800   25.0488 H   0  0  0  0  0  0
  -22.6872  -31.3060   21.4081 H   0  0  0  0  0  0
  -23.3751  -35.9639   23.3282 H   0  0  0  0  0  0
  -24.3584  -36.8948   22.2052 H   0  0  0  0  0  0
  -23.7213  -37.6512   23.6651 H   0  0  0  0  0  0
  -26.0264  -31.6027   20.5871 H   0  0  0  0  0  0
  -26.8151  -30.9065   21.9743 H   0  0  0  0  0  0
  -28.0850  -29.1502   21.1837 H   0  0  0  0  0  0
  -26.1052  -25.9876   19.0070 H   0  0  0  0  0  0
  -23.9990  -27.2896   19.0278 H   0  0  0  0  0  0
  -23.7154  -30.5899   19.4018 H   0  0  0  0  0  0
  -22.7374  -29.2328   19.8716 H   0  0  0  0  0  0
  -25.1273  -36.1987   25.0835 H   0  0  0  0  0  0
  -20.9944  -28.3226   24.1448 H   0  0  0  0  0  0
  -20.5661  -26.2273   23.3612 H   0  0  0  0  0  0
  -21.6634  -26.7450   22.1218 H   0  0  0  0  0  0
  -19.6914  -25.6309   21.1225 H   0  0  0  0  0  0
  -19.6696  -27.3221   20.6763 H   0  0  0  0  0  0
  -17.4196  -26.6696   21.4002 H   0  0  0  0  0  0
  -18.0306  -26.0061   22.8995 H   0  0  0  0  0  0
  -19.7926  -30.7249   24.2310 H   0  0  0  0  0  0
  -17.5010  -31.6271   24.5172 H   0  0  0  0  0  0
  -15.5344  -30.3015   23.7641 H   0  0  0  0  0  0
  -15.8648  -28.0847   22.7049 H   0  0  0  0  0  0
  -24.5913  -30.7035   25.7813 H   0  0  0  0  0  0
  -24.8929  -32.2832   26.4947 H   0  0  0  0  0  0
  -25.8102  -30.8840   27.0216 H   0  0  0  0  0  0
  -26.2831  -29.6824   24.1110 H   0  0  0  0  0  0
  -27.4094  -29.7272   25.4491 H   0  0  0  0  0  0
  -27.8648  -30.4406   23.9182 H   0  0  0  0  0  0
  -27.2661  -33.3603   26.2085 H   0  0  0  0  0  0
  -28.3840  -32.6883   25.0306 H   0  0  0  0  0  0
  -28.0711  -31.8416   26.5384 H   0  0  0  0  0  0
  -28.2563  -38.0143   24.7559 H   0  0  0  0  0  0
  -28.1127  -36.2681   24.6190 H   0  0  0  0  0  0
  -27.2321  -37.1344   25.8854 H   0  0  0  0  0  0
  -20.9285  -29.8750   21.6956 H   0  0  0  0  0  0
  -26.0175  -38.2879   24.1461 H   0  0  0  0  0  0
  -28.7865  -19.7251   22.3090 H   0  0  0  0  0  0
  -28.6261  -17.2793   22.4801 H   0  0  0  0  0  0
  -31.6858  -16.8714   19.4775 H   0  0  0  0  0  0
  -28.8518  -21.5520   19.3022 H   0  0  0  0  0  0
  -28.3546  -21.8063   20.9560 H   0  0  0  0  0  0
  -30.1030  -21.7363   22.8289 H   0  0  0  0  0  0
  -31.7743  -21.4181   22.4345 H   0  0  0  0  0  0
  -28.4975  -23.9833   19.7833 H   0  0  0  0  0  0
  -30.1253  -23.6401   19.2551 H   0  0  0  0  0  0
  -31.9967  -23.5381   21.2295 H   0  0  0  0  0  0
  -31.4004  -23.8344   22.8450 H   0  0  0  0  0  0
  -31.2307  -21.5094   20.0153 H   0  0  0  0  0  0
  -33.4832  -19.3642   17.6581 H   0  0  0  0  0  0
  -32.2635  -18.0992   17.6174 H   0  0  0  0  0  0
  -33.5385  -18.0831   18.8607 H   0  0  0  0  0  0
  -31.0522  -25.8727   21.8479 H   0  0  0  0  0  0
  -30.8267  -25.7297   20.1355 H   0  0  0  0  0  0
  -29.5909  -27.5685   21.4464 H   0  0  0  0  0  0
  -28.5340  -26.3359   22.1083 H   0  0  0  0  0  0
  -29.1549  -15.1536   21.5956 H   0  0  0  0  0  0
  -29.2418  -24.1172   22.0087 H   0  0  0  0  0  0
  1 25  1  0  0  0
  1 30  2  0  0  0
  1 85  1  0  0  0
  2  3  1  0  0  0
  2 25  1  0  0  0
  2 88  1  0  0  0
  2 89  1  0  0  0
  3  4  1  0  0  0
  3 90  1  0  0  0
  3 91  1  0  0  0
  4  5  1  0  0  0
  4 92  1  0  0  0
  4 93  1  0  0  0
  5  6  1  0  0  0
  5 26  1  0  0  0
  5 94  1  0  0  0
  6 25  1  0  0  0
  6 95  1  0  0  0
  6 96  1  0  0  0
  7  8  2  0  0  0
  7 26  1  0  0  0
  7 29  1  0  0  0
  8  9  1  0  0  0
  8 22  1  0  0  0
  9 10  1  0  0  0
  9 27  2  0  0  0
 10 11  2  0  0  0
 10 15  1  0  0  0
 11 12  1  0  0  0
 11 97  1  0  0  0
 12 13  2  0  0  0
 12 98  1  0  0  0
 13 14  1  0  0  0
 13 31  1  0  0  0
 14 15  2  0  0  0
 14 99  1  0  0  0
 15100  1  0  0  0
 16 17  2  0  0  0
 16 21  1  0  0  0
 16 31  1  0  0  0
 17 18  1  0  0  0
 17101  1  0  0  0
 18 19  2  0  0  0
 18102  1  0  0  0
 19 20  1  0  0  0
 19 24  1  0  0  0
 20 21  2  0  0  0
 20103  1  0  0  0
 21 23  1  0  0  0
 22 28  1  0  0  0
 22 32  2  0  0  0
 26 27  1  0  0  0
 28104  1  0  0  0
 28105  1  0  0  0
 29106  1  0  0  0
 29107  1  0  0  0
 33 34  1  0  0  0
 33 66  1  0  0  0
 33 70  2  0  0  0
 34 36  1  0  0  0
 34 59  1  0  0  0
 34108  1  0  0  0
 35 44  2  0  0  0
 35 45  1  0  0  0
 35 68  1  0  0  0
 36 56  1  0  0  0
 36109  1  0  0  0
 37 39  1  0  0  0
 37 47  1  0  0  0
 37 66  1  0  0  0
 37110  1  0  0  0
 38 43  2  0  0  0
 38 46  1  0  0  0
 38 47  1  0  0  0
 39 64  1  0  0  0
 39 67  2  0  0  0
 40 52  1  0  0  0
 40 53  2  0  0  0
 40 58  1  0  0  0
 41111  1  0  0  0
 41112  1  0  0  0
 41113  1  0  0  0
 41 48  1  0  0  0
 42 43  1  0  0  0
 42 66  1  0  0  0
 42114  1  0  0  0
 42115  1  0  0  0
 43 44  1  0  0  0
 44116  1  0  0  0
 45 46  2  0  0  0
 45117  1  0  0  0
 46118  1  0  0  0
 47119  1  0  0  0
 47120  1  0  0  0
 48 56  1  0  0  0
 48 65  1  0  0  0
 48121  1  0  0  0
 49 50  1  0  0  0
 49 53  1  0  0  0
 49 64  1  0  0  0
 49122  1  0  0  0
 50 51  1  0  0  0
 50123  1  0  0  0
 50124  1  0  0  0
 51 52  1  0  0  0
 51125  1  0  0  0
 51126  1  0  0  0
 52127  1  0  0  0
 52128  1  0  0  0
 53 54  1  0  0  0
 54 55  2  0  0  0
 54129  1  0  0  0
 55 57  1  0  0  0
 55130  1  0  0  0
 56 69  2  0  0  0
 57 58  2  0  0  0
 57131  1  0  0  0
 58132  1  0  0  0
 59 60  1  0  0  0
 59 61  1  0  0  0
 59 62  1  0  0  0
 60133  1  0  0  0
 60134  1  0  0  0
 60135  1  0  0  0
 61136  1  0  0  0
 61137  1  0  0  0
 61138  1  0  0  0
 62139  1  0  0  0
 62140  1  0  0  0
 62141  1  0  0  0
 63 65  1  0  0  0
 63142  1  0  0  0
 63143  1  0  0  0
 63144  1  0  0  0
 64145  1  0  0  0
 65146  1  0  0  0
 68 84  1  0  0  0
 71 72  2  0  0  0
 71 74  1  0  0  0
 71147  1  0  0  0
 72 75  1  0  0  0
 72148  1  0  0  0
 73 75  2  0  0  0
 73 76  1  0  0  0
 73149  1  0  0  0
 74 76  2  0  0  0
 74 81  1  0  0  0
 75 85  1  0  0  0
 76 87  1  0  0  0
 77 79  1  0  0  0
 77 81  1  0  0  0
 77150  1  0  0  0
 77151  1  0  0  0
 78 80  1  0  0  0
 78 81  1  0  0  0
 78152  1  0  0  0
 78153  1  0  0  0
 79 86  1  0  0  0
 79154  1  0  0  0
 79155  1  0  0  0
 80 86  1  0  0  0
 80156  1  0  0  0
 80157  1  0  0  0
 81158  1  0  0  0
 82 87  1  0  0  0
 82159  1  0  0  0
 82160  1  0  0  0
 82161  1  0  0  0
 83 84  1  0  0  0
 83162  1  0  0  0
 83163  1  0  0  0
 83 86  1  0  0  0
 84164  1  0  0  0
 84165  1  0  0  0
 85166  1  0  0  0
 86167  1  0  0  0
M  CHG  1  86   1
M  ISO  4   1 100  68 101  84 101  85 100
M  END
> <chiral flag>
0

> <version>
0

> <s_m_source_file>
/data/baiqing/PycharmProjects/Reinvent-master-3.2/result/LINK_invent/BTK/process_docking_weight1_custom_sum_contain_oxygen_bond_distance_aromatic_linkinvent_7_9_3/rearranged_h_0131.sdf

> <i_m_source_file_index>
12

> <r_mmod_Potential_Energy-OPLS-2005>
-94.515022277832

> <r_mmod_Stretch_Energy-OPLS-2005>
40.2151145935059

> <r_mmod_Bend_Energy-OPLS-2005>
112.07527923584

> <r_mmod_Torsional_Energy-OPLS-2005>
257.749694824219

> <r_mmod_Improper_Torsional_Energy-OPLS-2005>
2.97994112968445

> <r_mmod_Van_der_Waal_Energy-OPLS-2005>
170.465393066406

> <r_mmod_Electrostatic_Energy-OPLS-2005>
-271.947998046875

> <r_mmod_Solvation_Energy-OPLS-2005>
-416.544311523438

> <b_mmod_Minimization_Converged-OPLS-2005>
0

> <r_mmod_RMS_Derivative-OPLS-2005>
0.654011607170105

$$$$
12
                    3D
 Structure written by MMmdl.
172181  0  0  1  0            999 V2000
  -30.7602  -14.3685   20.6787 C   0  0  0  0  0  0
  -30.4163  -12.2926   19.3877 C   0  0  0  0  0  0
  -29.4811  -12.5284   18.1871 C   0  0  0  0  0  0
  -28.0064  -12.3800   18.6075 C   0  0  0  0  0  0
  -27.6647  -13.2017   19.8781 C   0  0  2  0  0  0
  -28.7033  -12.9398   20.9897 C   0  0  0  0  0  0
  -25.2601  -13.8153   20.5676 C   0  0  0  0  0  0
  -24.1843  -13.0437   20.9175 C   0  0  0  0  0  0
  -24.6389  -11.6902   20.8726 C   0  0  0  0  0  0
  -23.9056  -10.4292   21.0400 C   0  0  0  0  0  0
  -24.3609   -9.4209   21.9181 C   0  0  0  0  0  0
  -23.6286   -8.2243   22.0754 C   0  0  0  0  0  0
  -22.4267   -8.0278   21.3542 C   0  0  0  0  0  0
  -21.9901   -9.0250   20.4646 C   0  0  0  0  0  0
  -22.7227  -10.2134   20.3052 C   0  0  0  0  0  0
  -21.6854   -6.0733   22.5281 C   0  0  0  0  0  0
  -21.4015   -6.5635   23.8211 C   0  0  0  0  0  0
  -21.3661   -5.6789   24.9172 C   0  0  0  0  0  0
  -21.6043   -4.3054   24.7227 C   0  0  0  0  0  0
  -21.8818   -3.8144   23.4347 C   0  0  0  0  0  0
  -21.9192   -4.6960   22.3401 C   0  0  0  0  0  0
  -22.7870  -13.5242   21.1846 C   0  0  0  0  0  0
  -22.1660   -4.2145   21.0981 F   0  0  0  0  0  0
  -21.5630   -3.4538   25.7741 F   0  0  0  0  0  0
  -30.0451  -13.2369   20.4506 N   0  0  0  0  0  0
  -26.3034  -12.9315   20.3372 N   0  0  0  0  0  0
  -25.9312  -11.6481   20.5750 N   0  0  0  0  0  0
  -22.0509  -12.8229   22.0399 N   0  0  0  0  0  0
  -25.4341  -15.1867   20.4077 N   0  0  0  0  0  0
  -31.7940  -14.6597   20.0699 O   0  0  0  0  0  0
  -21.6635   -6.8872   21.4240 O   0  0  0  0  0  0
  -22.3563  -14.5556   20.6707 O   0  0  0  0  0  0
  -24.6105  -31.8697   23.2124 C   0  0  0  0  0  0
  -25.9018  -32.4830   23.8413 C   0  0  1  0  0  0
  -27.2400  -27.4692   20.0775 C   0  0  0  0  0  0
  -25.5895  -33.8632   24.2343 N   0  0  0  0  0  0
  -23.3979  -30.4919   21.5518 C   0  0  2  0  0  0
  -24.8465  -28.9594   20.1170 C   0  0  0  0  0  0
  -22.7395  -29.4650   22.5006 C   0  0  0  0  0  0
  -18.0266  -28.1354   22.8501 C   0  0  0  0  0  0
  -24.1493  -36.7320   23.2637 C   0  0  0  0  0  0
  -25.9231  -30.8408   21.3637 C   0  0  0  0  0  0
  -26.0019  -29.4749   20.7178 C   0  0  0  0  0  0
  -27.2003  -28.7294   20.7098 C   0  0  0  0  0  0
  -26.0680  -26.9531   19.4871 C   0  0  0  0  0  0
  -24.8709  -27.6933   19.5052 C   0  0  0  0  0  0
  -23.6052  -29.8205   20.1675 C   0  0  0  0  0  0
  -25.4109  -36.3120   24.0338 C   0  0  1  0  0  0
  -20.5856  -28.3644   23.1323 C   0  0  2  0  0  0
  -20.6759  -26.9383   22.5409 C   0  0  0  0  0  0
  -19.5736  -26.6373   21.5207 C   0  0  0  0  0  0
  -18.1909  -26.7905   22.1614 C   0  0  0  0  0  0
  -19.1513  -28.8818   23.2909 C   0  0  0  0  0  0
  -18.9444  -30.1429   23.8910 C   0  0  0  0  0  0
  -17.6449  -30.6572   24.0558 C   0  0  0  0  0  0
  -25.9034  -34.9482   23.5135 C   0  0  0  0  0  0
  -16.5342  -29.9066   23.6328 C   0  0  0  0  0  0
  -16.7256  -28.6482   23.0356 C   0  0  0  0  0  0
  -26.4465  -31.6605   25.0731 C   0  0  0  0  0  0
  -25.3735  -31.3698   26.1489 C   0  0  0  0  0  0
  -27.0297  -30.3056   24.6075 C   0  0  0  0  0  0
  -27.6060  -32.4321   25.7472 C   0  0  0  0  0  0
  -27.5584  -37.1807   24.8463 C   0  0  0  0  0  0
  -21.4128  -29.3023   22.3755 N   0  0  0  0  0  0
  -26.4294  -37.3802   23.9409 N   0  0  0  0  0  0
  -24.6614  -31.0820   22.1014 N   0  0  0  0  0  0
  -23.4187  -28.8184   23.3029 O   0  0  0  0  0  0
  -28.4067  -26.7479   20.0509 O   0  0  0  0  0  0
  -26.5580  -34.8936   22.4687 O   0  0  0  0  0  0
  -23.5307  -32.1438   23.7536 O   0  0  0  0  0  0
  -28.5495  -23.5780   18.9886 C   0  0  0  0  0  0
  -28.3441  -22.1956   19.1618 C   0  0  0  0  0  0
  -30.9353  -23.2499   19.2939 C   0  0  0  0  0  0
  -29.8526  -24.1181   19.0460 C   0  0  0  0  0  0
  -29.4282  -21.3221   19.4002 C   0  0  0  0  0  0
  -30.7401  -21.8616   19.4660 C   0  0  0  0  0  0
  -27.0227  -18.6178   22.2112 C   0  0  0  0  0  0
  -28.2320  -17.7410   22.5027 C   0  0  0  0  0  0
  -27.6248  -19.8531   21.5332 C   0  0  0  0  0  0
  -29.1469  -18.0079   21.3007 C   0  0  2  0  0  0
  -31.9599  -20.9793   19.6858 C   0  0  0  0  0  0
  -30.1503  -25.5959   18.7862 C   0  0  0  0  0  0
  -29.1577  -19.8225   19.5592 C   0  0  0  0  0  0
  -30.6362  -17.6615   21.5465 C   0  0  0  0  0  0
  -30.9333  -16.3135   22.2457 C   0  0  0  0  0  0
  -28.9522  -26.5637   18.7482 C   0  0  0  0  0  0
  -30.2762  -15.1502   21.6512 N   0  0  0  0  0  0
  -28.9425  -19.4469   20.9794 N   0  3  1  0  0  0
  -31.4592  -12.3958   19.0817 H   0  0  0  0  0  0
  -30.3158  -11.2684   19.7512 H   0  0  0  0  0  0
  -29.7121  -11.8266   17.3846 H   0  0  0  0  0  0
  -29.6484  -13.5267   17.7795 H   0  0  0  0  0  0
  -27.8177  -11.3214   18.7898 H   0  0  0  0  0  0
  -27.3496  -12.6685   17.7856 H   0  0  0  0  0  0
  -27.7235  -14.2561   19.6081 H   0  0  0  0  0  0
  -28.6668  -11.8937   21.2982 H   0  0  0  0  0  0
  -28.4473  -13.5068   21.8850 H   0  0  0  0  0  0
  -25.2757   -9.5684   22.4752 H   0  0  0  0  0  0
  -23.9997   -7.4635   22.7471 H   0  0  0  0  0  0
  -21.0834   -8.8766   19.8952 H   0  0  0  0  0  0
  -22.3685  -10.9668   19.6161 H   0  0  0  0  0  0
  -21.2007   -7.6146   23.9715 H   0  0  0  0  0  0
  -21.1485   -6.0521   25.9076 H   0  0  0  0  0  0
  -22.0597   -2.7608   23.2850 H   0  0  0  0  0  0
  -22.4118  -11.9876   22.4768 H   0  0  0  0  0  0
  -21.1131  -13.1262   22.2614 H   0  0  0  0  0  0
  -24.6649  -15.8404   20.5020 H   0  0  0  0  0  0
  -26.2817  -15.6159   20.0616 H   0  0  0  0  0  0
  -26.7082  -32.5569   23.1178 H   0  0  0  0  0  0
  -25.0106  -33.9813   25.0527 H   0  0  0  0  0  0
  -22.6840  -31.3065   21.4122 H   0  0  0  0  0  0
  -23.3758  -35.9649   23.3297 H   0  0  0  0  0  0
  -24.3589  -36.8936   22.2051 H   0  0  0  0  0  0
  -23.7248  -37.6527   23.6646 H   0  0  0  0  0  0
  -26.0292  -31.6027   20.5909 H   0  0  0  0  0  0
  -26.8131  -30.8999   21.9783 H   0  0  0  0  0  0
  -28.0955  -29.1242   21.1697 H   0  0  0  0  0  0
  -26.0786  -25.9814   19.0143 H   0  0  0  0  0  0
  -23.9805  -27.2890   19.0443 H   0  0  0  0  0  0
  -23.7031  -30.5916   19.4031 H   0  0  0  0  0  0
  -22.7322  -29.2308   19.8810 H   0  0  0  0  0  0
  -25.1277  -36.1983   25.0829 H   0  0  0  0  0  0
  -20.9941  -28.3192   24.1445 H   0  0  0  0  0  0
  -20.5655  -26.2247   23.3587 H   0  0  0  0  0  0
  -21.6628  -26.7413   22.1198 H   0  0  0  0  0  0
  -19.6900  -25.6285   21.1229 H   0  0  0  0  0  0
  -19.6677  -27.3197   20.6746 H   0  0  0  0  0  0
  -17.4183  -26.6671   21.4011 H   0  0  0  0  0  0
  -18.0301  -26.0014   22.8979 H   0  0  0  0  0  0
  -19.7921  -30.7245   24.2276 H   0  0  0  0  0  0
  -17.5003  -31.6261   24.5142 H   0  0  0  0  0  0
  -15.5343  -30.2975   23.7642 H   0  0  0  0  0  0
  -15.8654  -28.0809   22.7060 H   0  0  0  0  0  0
  -24.5901  -30.7049   25.7829 H   0  0  0  0  0  0
  -24.8930  -32.2851   26.4959 H   0  0  0  0  0  0
  -25.8097  -30.8852   27.0234 H   0  0  0  0  0  0
  -26.2829  -29.6811   24.1154 H   0  0  0  0  0  0
  -27.4129  -29.7297   25.4509 H   0  0  0  0  0  0
  -27.8635  -30.4406   23.9176 H   0  0  0  0  0  0
  -27.2701  -33.3626   26.2060 H   0  0  0  0  0  0
  -28.3849  -32.6870   25.0271 H   0  0  0  0  0  0
  -28.0740  -31.8431   26.5368 H   0  0  0  0  0  0
  -28.2592  -38.0113   24.7529 H   0  0  0  0  0  0
  -28.1094  -36.2650   24.6263 H   0  0  0  0  0  0
  -27.2309  -37.1428   25.8868 H   0  0  0  0  0  0
  -20.9294  -29.8763   21.6989 H   0  0  0  0  0  0
  -26.0189  -38.2882   24.1414 H   0  0  0  0  0  0
  -27.6915  -24.2044   18.7960 H   0  0  0  0  0  0
  -27.3369  -21.8086   19.0928 H   0  0  0  0  0  0
  -31.9363  -23.6601   19.3291 H   0  0  0  0  0  0
  -26.4463  -18.8630   23.1037 H   0  0  0  0  0  0
  -26.3559  -18.1037   21.5168 H   0  0  0  0  0  0
  -27.9665  -16.6887   22.6097 H   0  0  0  0  0  0
  -28.7081  -18.0639   23.4297 H   0  0  0  0  0  0
  -27.7862  -20.6507   22.2590 H   0  0  0  0  0  0
  -26.9419  -20.2394   20.7766 H   0  0  0  0  0  0
  -28.7738  -17.4105   20.4660 H   0  0  0  0  0  0
  -32.8607  -21.5768   19.8292 H   0  0  0  0  0  0
  -32.1305  -20.3378   18.8205 H   0  0  0  0  0  0
  -31.8444  -20.3493   20.5669 H   0  0  0  0  0  0
  -30.6671  -25.6527   17.8275 H   0  0  0  0  0  0
  -30.8650  -25.9467   19.5316 H   0  0  0  0  0  0
  -29.9961  -19.2609   19.1480 H   0  0  0  0  0  0
  -28.2952  -19.5278   18.9600 H   0  0  0  0  0  0
  -31.0889  -18.4441   22.1569 H   0  0  0  0  0  0
  -31.1692  -17.6897   20.5954 H   0  0  0  0  0  0
  -30.6204  -16.3676   23.2891 H   0  0  0  0  0  0
  -32.0127  -16.1517   22.2764 H   0  0  0  0  0  0
  -28.2134  -26.2295   18.0191 H   0  0  0  0  0  0
  -29.3006  -27.5364   18.3976 H   0  0  0  0  0  0
  -29.4432  -14.8085   22.1075 H   0  0  0  0  0  0
  -29.6276  -19.9638   21.5088 H   0  0  0  0  0  0
  1 25  1  0  0  0
  1 30  2  0  0  0
  1 87  1  0  0  0
  2  3  1  0  0  0
  2 25  1  0  0  0
  2 89  1  0  0  0
  2 90  1  0  0  0
  3  4  1  0  0  0
  3 91  1  0  0  0
  3 92  1  0  0  0
  4  5  1  0  0  0
  4 93  1  0  0  0
  4 94  1  0  0  0
  5  6  1  0  0  0
  5 26  1  0  0  0
  5 95  1  0  0  0
  6 25  1  0  0  0
  6 96  1  0  0  0
  6 97  1  0  0  0
  7  8  2  0  0  0
  7 26  1  0  0  0
  7 29  1  0  0  0
  8  9  1  0  0  0
  8 22  1  0  0  0
  9 10  1  0  0  0
  9 27  2  0  0  0
 10 11  2  0  0  0
 10 15  1  0  0  0
 11 12  1  0  0  0
 11 98  1  0  0  0
 12 13  2  0  0  0
 12 99  1  0  0  0
 13 14  1  0  0  0
 13 31  1  0  0  0
 14 15  2  0  0  0
 14100  1  0  0  0
 15101  1  0  0  0
 16 17  2  0  0  0
 16 21  1  0  0  0
 16 31  1  0  0  0
 17 18  1  0  0  0
 17102  1  0  0  0
 18 19  2  0  0  0
 18103  1  0  0  0
 19 20  1  0  0  0
 19 24  1  0  0  0
 20 21  2  0  0  0
 20104  1  0  0  0
 21 23  1  0  0  0
 22 28  1  0  0  0
 22 32  2  0  0  0
 26 27  1  0  0  0
 28105  1  0  0  0
 28106  1  0  0  0
 29107  1  0  0  0
 29108  1  0  0  0
 33 34  1  0  0  0
 33 66  1  0  0  0
 33 70  2  0  0  0
 34 36  1  0  0  0
 34 59  1  0  0  0
 34109  1  0  0  0
 35 44  2  0  0  0
 35 45  1  0  0  0
 35 68  1  0  0  0
 36 56  1  0  0  0
 36110  1  0  0  0
 37 39  1  0  0  0
 37 47  1  0  0  0
 37 66  1  0  0  0
 37111  1  0  0  0
 38 43  2  0  0  0
 38 46  1  0  0  0
 38 47  1  0  0  0
 39 64  1  0  0  0
 39 67  2  0  0  0
 40 52  1  0  0  0
 40 53  2  0  0  0
 40 58  1  0  0  0
 41112  1  0  0  0
 41113  1  0  0  0
 41114  1  0  0  0
 41 48  1  0  0  0
 42 43  1  0  0  0
 42 66  1  0  0  0
 42115  1  0  0  0
 42116  1  0  0  0
 43 44  1  0  0  0
 44117  1  0  0  0
 45 46  2  0  0  0
 45118  1  0  0  0
 46119  1  0  0  0
 47120  1  0  0  0
 47121  1  0  0  0
 48 56  1  0  0  0
 48 65  1  0  0  0
 48122  1  0  0  0
 49 50  1  0  0  0
 49 53  1  0  0  0
 49 64  1  0  0  0
 49123  1  0  0  0
 50 51  1  0  0  0
 50124  1  0  0  0
 50125  1  0  0  0
 51 52  1  0  0  0
 51126  1  0  0  0
 51127  1  0  0  0
 52128  1  0  0  0
 52129  1  0  0  0
 53 54  1  0  0  0
 54 55  2  0  0  0
 54130  1  0  0  0
 55 57  1  0  0  0
 55131  1  0  0  0
 56 69  2  0  0  0
 57 58  2  0  0  0
 57132  1  0  0  0
 58133  1  0  0  0
 59 60  1  0  0  0
 59 61  1  0  0  0
 59 62  1  0  0  0
 60134  1  0  0  0
 60135  1  0  0  0
 60136  1  0  0  0
 61137  1  0  0  0
 61138  1  0  0  0
 61139  1  0  0  0
 62140  1  0  0  0
 62141  1  0  0  0
 62142  1  0  0  0
 63 65  1  0  0  0
 63143  1  0  0  0
 63144  1  0  0  0
 63145  1  0  0  0
 64146  1  0  0  0
 65147  1  0  0  0
 68 86  1  0  0  0
 71 72  2  0  0  0
 71 74  1  0  0  0
 71148  1  0  0  0
 72 75  1  0  0  0
 72149  1  0  0  0
 73 74  2  0  0  0
 73 76  1  0  0  0
 73150  1  0  0  0
 74 82  1  0  0  0
 75 76  2  0  0  0
 75 83  1  0  0  0
 76 81  1  0  0  0
 77 78  1  0  0  0
 77 79  1  0  0  0
 77151  1  0  0  0
 77152  1  0  0  0
 78 80  1  0  0  0
 78153  1  0  0  0
 78154  1  0  0  0
 79 88  1  0  0  0
 79155  1  0  0  0
 79156  1  0  0  0
 80 84  1  0  0  0
 80 88  1  0  0  0
 80157  1  0  0  0
 81158  1  0  0  0
 81159  1  0  0  0
 81160  1  0  0  0
 82 86  1  0  0  0
 82161  1  0  0  0
 82162  1  0  0  0
 83163  1  0  0  0
 83164  1  0  0  0
 83 88  1  0  0  0
 84 85  1  0  0  0
 84165  1  0  0  0
 84166  1  0  0  0
 85 87  1  0  0  0
 85167  1  0  0  0
 85168  1  0  0  0
 86169  1  0  0  0
 86170  1  0  0  0
 87171  1  0  0  0
 88172  1  0  0  0
M  CHG  1  88   1
M  ISO  4   1 100  68 101  86 101  87 100
M  END
> <chiral flag>
0

> <version>
0

> <s_m_source_file>
/data/baiqing/PycharmProjects/Reinvent-master-3.2/result/LINK_invent/BTK/process_docking_weight1_custom_sum_contain_oxygen_bond_distance_aromatic_linkinvent_7_9_3/rearranged_h_0131.sdf

> <i_m_source_file_index>
13

> <r_mmod_Potential_Energy-OPLS-2005>
-99.272087097168

> <r_mmod_Stretch_Energy-OPLS-2005>
34.4295349121094

> <r_mmod_Bend_Energy-OPLS-2005>
118.030075073242

> <r_mmod_Torsional_Energy-OPLS-2005>
273.273345947266

> <r_mmod_Improper_Torsional_Energy-OPLS-2005>
2.20460653305054

> <r_mmod_Van_der_Waal_Energy-OPLS-2005>
139.005172729492

> <r_mmod_Electrostatic_Energy-OPLS-2005>
-243.57096862793

> <r_mmod_Solvation_Energy-OPLS-2005>
-429.192535400391

> <b_mmod_Minimization_Converged-OPLS-2005>
0

> <r_mmod_RMS_Derivative-OPLS-2005>
1.25852608680725

$$$$
13
                    3D
 Structure written by MMmdl.
169178  0  0  1  0            999 V2000
  -30.7191  -14.4067   20.6109 C   0  0  0  0  0  0
  -30.4234  -12.2801   19.4020 C   0  0  0  0  0  0
  -29.4879  -12.5022   18.1960 C   0  0  0  0  0  0
  -28.0090  -12.3695   18.6105 C   0  0  0  0  0  0
  -27.6676  -13.1950   19.8803 C   0  0  2  0  0  0
  -28.7089  -12.9363   20.9923 C   0  0  0  0  0  0
  -25.2631  -13.8139   20.5659 C   0  0  0  0  0  0
  -24.1853  -13.0432   20.9151 C   0  0  0  0  0  0
  -24.6386  -11.6894   20.8702 C   0  0  0  0  0  0
  -23.9036  -10.4277   21.0371 C   0  0  0  0  0  0
  -24.3600   -9.4203   21.9158 C   0  0  0  0  0  0
  -23.6286   -8.2231   22.0737 C   0  0  0  0  0  0
  -22.4261   -8.0267   21.3526 C   0  0  0  0  0  0
  -21.9889   -9.0239   20.4621 C   0  0  0  0  0  0
  -22.7209  -10.2116   20.3027 C   0  0  0  0  0  0
  -21.6856   -6.0714   22.5257 C   0  0  0  0  0  0
  -21.4017   -6.5621   23.8190 C   0  0  0  0  0  0
  -21.3663   -5.6785   24.9159 C   0  0  0  0  0  0
  -21.6063   -4.3053   24.7212 C   0  0  0  0  0  0
  -21.8833   -3.8128   23.4335 C   0  0  0  0  0  0
  -21.9199   -4.6939   22.3386 C   0  0  0  0  0  0
  -22.7876  -13.5219   21.1848 C   0  0  0  0  0  0
  -22.1661   -4.2106   21.0972 F   0  0  0  0  0  0
  -21.5635   -3.4549   25.7729 F   0  0  0  0  0  0
  -30.0457  -13.2386   20.4496 N   0  0  0  0  0  0
  -26.3058  -12.9281   20.3382 N   0  0  0  0  0  0
  -25.9302  -11.6452   20.5748 N   0  0  0  0  0  0
  -22.0545  -12.8170   22.0403 N   0  0  0  0  0  0
  -25.4441  -15.1848   20.4061 N   0  0  0  0  0  0
  -31.8055  -14.6505   20.0809 O   0  0  0  0  0  0
  -21.6639   -6.8852   21.4219 O   0  0  0  0  0  0
  -22.3549  -14.5518   20.6694 O   0  0  0  0  0  0
  -24.6139  -31.8678   23.2114 C   0  0  0  0  0  0
  -25.9056  -32.4810   23.8390 C   0  0  1  0  0  0
  -27.2381  -27.4695   20.0800 C   0  0  0  0  0  0
  -25.5928  -33.8611   24.2323 N   0  0  0  0  0  0
  -23.3982  -30.4924   21.5489 C   0  0  2  0  0  0
  -24.8427  -28.9502   20.1208 C   0  0  0  0  0  0
  -22.7386  -29.4682   22.4996 C   0  0  0  0  0  0
  -18.0270  -28.1373   22.8496 C   0  0  0  0  0  0
  -24.1473  -36.7296   23.2636 C   0  0  0  0  0  0
  -25.9237  -30.8416   21.3568 C   0  0  0  0  0  0
  -26.0016  -29.4764   20.7079 C   0  0  0  0  0  0
  -27.2053  -28.7427   20.6849 C   0  0  0  0  0  0
  -26.0650  -26.9398   19.5037 C   0  0  0  0  0  0
  -24.8677  -27.6780   19.5201 C   0  0  0  0  0  0
  -23.6038  -29.8143   20.1667 C   0  0  0  0  0  0
  -25.4098  -36.3099   24.0342 C   0  0  1  0  0  0
  -20.5856  -28.3647   23.1319 C   0  0  2  0  0  0
  -20.6750  -26.9389   22.5402 C   0  0  0  0  0  0
  -19.5726  -26.6384   21.5196 C   0  0  0  0  0  0
  -18.1911  -26.7930   22.1612 C   0  0  0  0  0  0
  -19.1522  -28.8834   23.2905 C   0  0  0  0  0  0
  -18.9456  -30.1450   23.8898 C   0  0  0  0  0  0
  -17.6457  -30.6585   24.0568 C   0  0  0  0  0  0
  -25.9031  -34.9472   23.5127 C   0  0  0  0  0  0
  -16.5346  -29.9082   23.6339 C   0  0  0  0  0  0
  -16.7263  -28.6499   23.0364 C   0  0  0  0  0  0
  -26.4505  -31.6594   25.0712 C   0  0  0  0  0  0
  -25.3815  -31.3702   26.1493 C   0  0  0  0  0  0
  -27.0315  -30.3036   24.6060 C   0  0  0  0  0  0
  -27.6047  -32.4341   25.7504 C   0  0  0  0  0  0
  -27.5566  -37.1803   24.8475 C   0  0  0  0  0  0
  -21.4117  -29.3036   22.3745 N   0  0  0  0  0  0
  -26.4262  -37.3801   23.9437 N   0  0  0  0  0  0
  -24.6628  -31.0830   22.0962 N   0  0  0  0  0  0
  -23.4189  -28.8227   23.3015 O   0  0  0  0  0  0
  -28.4132  -26.7681   20.0092 O   0  0  0  0  0  0
  -26.5552  -34.8938   22.4658 O   0  0  0  0  0  0
  -23.5348  -32.1384   23.7547 O   0  0  0  0  0  0
  -27.9709  -23.1951   20.0823 C   0  0  0  0  0  0
  -28.6626  -19.4649   19.3277 C   0  0  0  0  0  0
  -30.2890  -24.5835   22.1153 C   0  0  0  0  0  0
  -30.3220  -23.9910   20.7071 C   0  0  0  0  0  0
  -29.5562  -25.9088   21.9297 C   0  0  0  0  0  0
  -27.3916  -22.1394   17.8587 C   0  0  0  0  0  0
  -26.1022  -21.3685   18.1732 C   0  0  0  0  0  0
  -28.9687  -24.3731   20.0727 C   0  0  2  0  0  0
  -28.2401  -22.0172   19.1323 C   0  0  2  0  0  0
  -27.7909  -20.6631   19.7444 C   0  0  1  0  0  0
  -28.4940  -25.6282   20.8587 C   0  0  2  0  0  0
  -29.9779  -17.4920   20.0390 C   0  0  0  0  0  0
  -30.3857  -16.7659   21.3448 C   0  0  0  0  0  0
  -29.2259  -18.7202   20.2935 N   0  0  0  0  0  0
  -30.0523  -15.3437   21.2949 N   0  0  0  0  0  0
  -26.4054  -20.4381   19.2857 N   0  3  0  0  0  0
  -26.9655  -23.1860   20.7997 O   0  0  0  0  0  0
  -28.7952  -19.1868   18.1342 O   0  0  0  0  0  0
  -31.4649  -12.3821   19.0938 H   0  0  0  0  0  0
  -30.3254  -11.2604   19.7758 H   0  0  0  0  0  0
  -29.7193  -11.7882   17.4040 H   0  0  0  0  0  0
  -29.6641  -13.4931   17.7774 H   0  0  0  0  0  0
  -27.8082  -11.3115   18.7871 H   0  0  0  0  0  0
  -27.3602  -12.6654   17.7856 H   0  0  0  0  0  0
  -27.7252  -14.2482   19.6057 H   0  0  0  0  0  0
  -28.6784  -11.8889   21.2950 H   0  0  0  0  0  0
  -28.4701  -13.5005   21.8941 H   0  0  0  0  0  0
  -25.2746   -9.5682   22.4734 H   0  0  0  0  0  0
  -24.0010   -7.4614   22.7437 H   0  0  0  0  0  0
  -21.0828   -8.8729   19.8911 H   0  0  0  0  0  0
  -22.3661  -10.9650   19.6129 H   0  0  0  0  0  0
  -21.2005   -7.6127   23.9679 H   0  0  0  0  0  0
  -21.1485   -6.0510   25.9060 H   0  0  0  0  0  0
  -22.0614   -2.7586   23.2843 H   0  0  0  0  0  0
  -22.4188  -11.9814   22.4738 H   0  0  0  0  0  0
  -21.1157  -13.1145   22.2634 H   0  0  0  0  0  0
  -24.6913  -15.8525   20.5218 H   0  0  0  0  0  0
  -26.3115  -15.6105   20.1064 H   0  0  0  0  0  0
  -26.7135  -32.5506   23.1161 H   0  0  0  0  0  0
  -25.0225  -33.9768   25.0578 H   0  0  0  0  0  0
  -22.6851  -31.3073   21.4078 H   0  0  0  0  0  0
  -23.3736  -35.9624   23.3313 H   0  0  0  0  0  0
  -24.3557  -36.8875   22.2040 H   0  0  0  0  0  0
  -23.7232  -37.6516   23.6631 H   0  0  0  0  0  0
  -26.0361  -31.6049   20.5851 H   0  0  0  0  0  0
  -26.8136  -30.8921   21.9727 H   0  0  0  0  0  0
  -28.1046  -29.1500   21.1268 H   0  0  0  0  0  0
  -26.0840  -25.9655   19.0341 H   0  0  0  0  0  0
  -23.9748  -27.2639   19.0687 H   0  0  0  0  0  0
  -23.7082  -30.5818   19.3988 H   0  0  0  0  0  0
  -22.7286  -29.2282   19.8785 H   0  0  0  0  0  0
  -25.1280  -36.1933   25.0830 H   0  0  0  0  0  0
  -20.9953  -28.3194   24.1431 H   0  0  0  0  0  0
  -20.5636  -26.2257   23.3585 H   0  0  0  0  0  0
  -21.6624  -26.7420   22.1204 H   0  0  0  0  0  0
  -19.6874  -25.6297   21.1212 H   0  0  0  0  0  0
  -19.6671  -27.3202   20.6730 H   0  0  0  0  0  0
  -17.4187  -26.6704   21.4008 H   0  0  0  0  0  0
  -18.0302  -26.0057   22.8984 H   0  0  0  0  0  0
  -19.7941  -30.7278   24.2240 H   0  0  0  0  0  0
  -17.5022  -31.6259   24.5174 H   0  0  0  0  0  0
  -15.5356  -30.2990   23.7678 H   0  0  0  0  0  0
  -15.8655  -28.0830   22.7072 H   0  0  0  0  0  0
  -24.5988  -30.7015   25.7914 H   0  0  0  0  0  0
  -24.9020  -32.2851   26.4965 H   0  0  0  0  0  0
  -25.8232  -30.8914   27.0235 H   0  0  0  0  0  0
  -26.2811  -29.6810   24.1159 H   0  0  0  0  0  0
  -27.4143  -29.7265   25.4490 H   0  0  0  0  0  0
  -27.8644  -30.4380   23.9149 H   0  0  0  0  0  0
  -27.2606  -33.3623   26.2087 H   0  0  0  0  0  0
  -28.3876  -32.6919   25.0364 H   0  0  0  0  0  0
  -28.0693  -31.8469   26.5435 H   0  0  0  0  0  0
  -28.2603  -38.0083   24.7510 H   0  0  0  0  0  0
  -28.1032  -36.2614   24.6307 H   0  0  0  0  0  0
  -27.2279  -37.1454   25.8874 H   0  0  0  0  0  0
  -20.9264  -29.8777   21.6990 H   0  0  0  0  0  0
  -26.0137  -38.2867   24.1458 H   0  0  0  0  0  0
  -31.2842  -24.7091   22.5456 H   0  0  0  0  0  0
  -29.7179  -23.9337   22.7800 H   0  0  0  0  0  0
  -30.5216  -22.9192   20.7231 H   0  0  0  0  0  0
  -31.1301  -24.4510   20.1352 H   0  0  0  0  0  0
  -30.2601  -26.6601   21.5680 H   0  0  0  0  0  0
  -29.1221  -26.2885   22.8554 H   0  0  0  0  0  0
  -27.1876  -23.1693   17.5619 H   0  0  0  0  0  0
  -27.9154  -21.6679   17.0249 H   0  0  0  0  0  0
  -25.7203  -20.8357   17.3016 H   0  0  0  0  0  0
  -25.3191  -22.0541   18.5015 H   0  0  0  0  0  0
  -29.1305  -24.6334   19.0266 H   0  0  0  0  0  0
  -29.3025  -22.0101   18.8834 H   0  0  0  0  0  0
  -27.7913  -20.7047   20.8346 H   0  0  0  0  0  0
  -27.5483  -25.4562   21.3766 H   0  0  0  0  0  0
  -29.3647  -16.8423   19.4099 H   0  0  0  0  0  0
  -30.8701  -17.7282   19.4545 H   0  0  0  0  0  0
  -29.8767  -17.1907   22.2107 H   0  0  0  0  0  0
  -31.4546  -16.8949   21.5298 H   0  0  0  0  0  0
  -29.0717  -18.9829   21.2580 H   0  0  0  0  0  0
  -29.1774  -15.0580   21.7087 H   0  0  0  0  0  0
  -26.3332  -19.4803   18.9800 H   0  0  0  0  0  0
  -25.7700  -20.5845   20.0542 H   0  0  0  0  0  0
  1 25  1  0  0  0
  1 30  2  0  0  0
  1 85  1  0  0  0
  2  3  1  0  0  0
  2 25  1  0  0  0
  2 89  1  0  0  0
  2 90  1  0  0  0
  3  4  1  0  0  0
  3 91  1  0  0  0
  3 92  1  0  0  0
  4  5  1  0  0  0
  4 93  1  0  0  0
  4 94  1  0  0  0
  5  6  1  0  0  0
  5 26  1  0  0  0
  5 95  1  0  0  0
  6 25  1  0  0  0
  6 96  1  0  0  0
  6 97  1  0  0  0
  7  8  2  0  0  0
  7 26  1  0  0  0
  7 29  1  0  0  0
  8  9  1  0  0  0
  8 22  1  0  0  0
  9 10  1  0  0  0
  9 27  2  0  0  0
 10 11  2  0  0  0
 10 15  1  0  0  0
 11 12  1  0  0  0
 11 98  1  0  0  0
 12 13  2  0  0  0
 12 99  1  0  0  0
 13 14  1  0  0  0
 13 31  1  0  0  0
 14 15  2  0  0  0
 14100  1  0  0  0
 15101  1  0  0  0
 16 17  2  0  0  0
 16 21  1  0  0  0
 16 31  1  0  0  0
 17 18  1  0  0  0
 17102  1  0  0  0
 18 19  2  0  0  0
 18103  1  0  0  0
 19 20  1  0  0  0
 19 24  1  0  0  0
 20 21  2  0  0  0
 20104  1  0  0  0
 21 23  1  0  0  0
 22 28  1  0  0  0
 22 32  2  0  0  0
 26 27  1  0  0  0
 28105  1  0  0  0
 28106  1  0  0  0
 29107  1  0  0  0
 29108  1  0  0  0
 33 34  1  0  0  0
 33 66  1  0  0  0
 33 70  2  0  0  0
 34 36  1  0  0  0
 34 59  1  0  0  0
 34109  1  0  0  0
 35 44  2  0  0  0
 35 45  1  0  0  0
 35 68  1  0  0  0
 36 56  1  0  0  0
 36110  1  0  0  0
 37 39  1  0  0  0
 37 47  1  0  0  0
 37 66  1  0  0  0
 37111  1  0  0  0
 38 43  2  0  0  0
 38 46  1  0  0  0
 38 47  1  0  0  0
 39 64  1  0  0  0
 39 67  2  0  0  0
 40 52  1  0  0  0
 40 53  2  0  0  0
 40 58  1  0  0  0
 41112  1  0  0  0
 41113  1  0  0  0
 41114  1  0  0  0
 41 48  1  0  0  0
 42 43  1  0  0  0
 42 66  1  0  0  0
 42115  1  0  0  0
 42116  1  0  0  0
 43 44  1  0  0  0
 44117  1  0  0  0
 45 46  2  0  0  0
 45118  1  0  0  0
 46119  1  0  0  0
 47120  1  0  0  0
 47121  1  0  0  0
 48 56  1  0  0  0
 48 65  1  0  0  0
 48122  1  0  0  0
 49 50  1  0  0  0
 49 53  1  0  0  0
 49 64  1  0  0  0
 49123  1  0  0  0
 50 51  1  0  0  0
 50124  1  0  0  0
 50125  1  0  0  0
 51 52  1  0  0  0
 51126  1  0  0  0
 51127  1  0  0  0
 52128  1  0  0  0
 52129  1  0  0  0
 53 54  1  0  0  0
 54 55  2  0  0  0
 54130  1  0  0  0
 55 57  1  0  0  0
 55131  1  0  0  0
 56 69  2  0  0  0
 57 58  2  0  0  0
 57132  1  0  0  0
 58133  1  0  0  0
 59 60  1  0  0  0
 59 61  1  0  0  0
 59 62  1  0  0  0
 60134  1  0  0  0
 60135  1  0  0  0
 60136  1  0  0  0
 61137  1  0  0  0
 61138  1  0  0  0
 61139  1  0  0  0
 62140  1  0  0  0
 62141  1  0  0  0
 62142  1  0  0  0
 63 65  1  0  0  0
 63143  1  0  0  0
 63144  1  0  0  0
 63145  1  0  0  0
 64146  1  0  0  0
 65147  1  0  0  0
 68 81  1  0  0  0
 71 87  2  0  0  0
 71 78  1  0  0  0
 71 79  1  0  0  0
 72 84  1  0  0  0
 72 88  2  0  0  0
 72 80  1  0  0  0
 73 74  1  0  0  0
 73 75  1  0  0  0
 73148  1  0  0  0
 73149  1  0  0  0
 74 78  1  0  0  0
 74150  1  0  0  0
 74151  1  0  0  0
 75 81  1  0  0  0
 75152  1  0  0  0
 75153  1  0  0  0
 76 77  1  0  0  0
 76 79  1  0  0  0
 76154  1  0  0  0
 76155  1  0  0  0
 77 86  1  0  0  0
 77156  1  0  0  0
 77157  1  0  0  0
 78 81  1  0  0  0
 78158  1  0  0  0
 79 80  1  0  0  0
 79159  1  0  0  0
 80 86  1  0  0  0
 80160  1  0  0  0
 81161  1  0  0  0
 82 83  1  0  0  0
 82 84  1  0  0  0
 82162  1  0  0  0
 82163  1  0  0  0
 83 85  1  0  0  0
 83164  1  0  0  0
 83165  1  0  0  0
 84166  1  0  0  0
 85167  1  0  0  0
 86168  1  0  0  0
 86169  1  0  0  0
M  CHG  1  86   1
M  ISO  4   1 100  68 101  81 101  85 100
M  END
> <chiral flag>
0

> <version>
0

> <s_m_source_file>
/data/baiqing/PycharmProjects/Reinvent-master-3.2/result/LINK_invent/BTK/process_docking_weight1_custom_sum_contain_oxygen_bond_distance_aromatic_linkinvent_7_9_3/rearranged_h_0131.sdf

> <i_m_source_file_index>
14

> <r_mmod_Potential_Energy-OPLS-2005>
-381.613586425781

> <r_mmod_Stretch_Energy-OPLS-2005>
33.3037452697754

> <r_mmod_Bend_Energy-OPLS-2005>
125.715148925781

> <r_mmod_Torsional_Energy-OPLS-2005>
291.370147705078

> <r_mmod_Improper_Torsional_Energy-OPLS-2005>
3.22643876075745

> <r_mmod_Van_der_Waal_Energy-OPLS-2005>
130.43310546875

> <r_mmod_Electrostatic_Energy-OPLS-2005>
-468.467224121094

> <r_mmod_Solvation_Energy-OPLS-2005>
-504.903259277344

> <b_mmod_Minimization_Converged-OPLS-2005>
0

> <r_mmod_RMS_Derivative-OPLS-2005>
3.06165170669556

$$$$
14
                    3D
 Structure written by MMmdl.
162171  0  0  1  0            999 V2000
  -30.6272  -14.6912   20.5111 C   0  0  0  0  0  0
  -30.4316  -12.4276   19.4663 C   0  0  0  0  0  0
  -29.5066  -12.5081   18.2326 C   0  0  0  0  0  0
  -28.0326  -12.3351   18.6488 C   0  0  0  0  0  0
  -27.6471  -13.2262   19.8597 C   0  0  2  0  0  0
  -28.6906  -13.1217   20.9935 C   0  0  0  0  0  0
  -25.2526  -13.8182   20.5688 C   0  0  0  0  0  0
  -24.1808  -13.0445   20.9189 C   0  0  0  0  0  0
  -24.6385  -11.6906   20.8741 C   0  0  0  0  0  0
  -23.9060  -10.4283   21.0405 C   0  0  0  0  0  0
  -24.3609   -9.4187   21.9180 C   0  0  0  0  0  0
  -23.6276   -8.2225   22.0748 C   0  0  0  0  0  0
  -22.4262   -8.0264   21.3546 C   0  0  0  0  0  0
  -21.9901   -9.0235   20.4643 C   0  0  0  0  0  0
  -22.7225  -10.2110   20.3045 C   0  0  0  0  0  0
  -21.6849   -6.0715   22.5270 C   0  0  0  0  0  0
  -21.4007   -6.5627   23.8199 C   0  0  0  0  0  0
  -21.3663   -5.6786   24.9165 C   0  0  0  0  0  0
  -21.6052   -4.3050   24.7226 C   0  0  0  0  0  0
  -21.8810   -3.8130   23.4351 C   0  0  0  0  0  0
  -21.9182   -4.6939   22.3401 C   0  0  0  0  0  0
  -22.7828  -13.5208   21.1881 C   0  0  0  0  0  0
  -22.1652   -4.2121   21.0985 F   0  0  0  0  0  0
  -21.5637   -3.4537   25.7747 F   0  0  0  0  0  0
  -29.9966  -13.4733   20.4200 N   0  0  0  0  0  0
  -26.2966  -12.9388   20.3323 N   0  0  0  0  0  0
  -25.9320  -11.6540   20.5774 N   0  0  0  0  0  0
  -22.0512  -12.8175   22.0454 N   0  0  0  0  0  0
  -25.4273  -15.1903   20.4052 N   0  0  0  0  0  0
  -31.8019  -14.8158   20.1542 O   0  0  0  0  0  0
  -21.6634   -6.8854   21.4231 O   0  0  0  0  0  0
  -22.3492  -14.5529   20.6760 O   0  0  0  0  0  0
  -24.6230  -31.8628   23.1960 C   0  0  0  0  0  0
  -25.9065  -32.4828   23.8331 C   0  0  1  0  0  0
  -27.2562  -27.3335   20.1174 C   0  0  0  0  0  0
  -25.5895  -33.8618   24.2252 N   0  0  0  0  0  0
  -23.4203  -30.4750   21.5391 C   0  0  2  0  0  0
  -24.8795  -28.9332   20.1055 C   0  0  0  0  0  0
  -22.7488  -29.4607   22.4959 C   0  0  0  0  0  0
  -18.0284  -28.1405   22.8494 C   0  0  0  0  0  0
  -24.1476  -36.7294   23.2645 C   0  0  0  0  0  0
  -25.9561  -30.7997   21.3645 C   0  0  0  0  0  0
  -26.0395  -29.4233   20.7169 C   0  0  0  0  0  0
  -27.2232  -28.6279   20.7243 C   0  0  0  0  0  0
  -26.0664  -26.8883   19.4985 C   0  0  0  0  0  0
  -24.8961  -27.6738   19.4870 C   0  0  0  0  0  0
  -23.6348  -29.7943   20.1590 C   0  0  0  0  0  0
  -25.4099  -36.3097   24.0334 C   0  0  1  0  0  0
  -20.5887  -28.3683   23.1315 C   0  0  2  0  0  0
  -20.6788  -26.9407   22.5425 C   0  0  0  0  0  0
  -19.5739  -26.6351   21.5260 C   0  0  0  0  0  0
  -18.1910  -26.7945   22.1639 C   0  0  0  0  0  0
  -19.1543  -28.8865   23.2892 C   0  0  0  0  0  0
  -18.9472  -30.1484   23.8879 C   0  0  0  0  0  0
  -17.6479  -30.6606   24.0568 C   0  0  0  0  0  0
  -25.9031  -34.9483   23.5086 C   0  0  0  0  0  0
  -16.5362  -29.9101   23.6366 C   0  0  0  0  0  0
  -16.7275  -28.6528   23.0361 C   0  0  0  0  0  0
  -26.4443  -31.6658   25.0718 C   0  0  0  0  0  0
  -25.3645  -31.3857   26.1440 C   0  0  0  0  0  0
  -27.0328  -30.3101   24.6173 C   0  0  0  0  0  0
  -27.5970  -32.4431   25.7504 C   0  0  0  0  0  0
  -27.5564  -37.1799   24.8453 C   0  0  0  0  0  0
  -21.4199  -29.3045   22.3735 N   0  0  0  0  0  0
  -26.4268  -37.3788   23.9414 N   0  0  0  0  0  0
  -24.6853  -31.0620   22.0928 N   0  0  0  0  0  0
  -23.4215  -28.8158   23.3043 O   0  0  0  0  0  0
  -28.3948  -26.5154   20.2111 O   0  0  0  0  0  0
  -26.5576  -34.8961   22.4638 O   0  0  0  0  0  0
  -23.5391  -32.1408   23.7281 O   0  0  0  0  0  0
  -29.5035  -22.9426   19.0195 C   0  0  0  0  0  0
  -29.6638  -21.5760   19.4049 C   0  0  0  0  0  0
  -28.3471  -23.4163   21.0575 C   0  0  0  0  0  0
  -28.5001  -22.0461   21.4611 C   0  0  0  0  0  0
  -28.8489  -23.9086   19.8333 C   0  0  0  0  0  0
  -29.1972  -21.0834   20.6522 C   0  0  0  0  0  0
  -26.1038  -21.2463   23.9544 C   0  0  0  0  0  0
  -26.7617  -22.5166   23.4220 C   0  0  0  0  0  0
  -26.8606  -20.4788   22.8653 C   0  0  0  0  0  0
  -27.8663  -21.6431   22.7900 C   0  0  0  0  0  0
  -28.6445  -25.3818   19.3050 C   0  0  0  0  0  0
  -29.4728  -18.4452   20.3790 C   0  0  0  0  0  0
  -30.2882  -17.2371   21.0657 C   0  0  0  0  0  0
  -29.4601  -19.7458   21.1318 N   0  0  0  0  0  0
  -29.8675  -15.7934   20.8447 N   0  0  0  0  0  0
  -31.4752  -12.5449   19.1708 H   0  0  0  0  0  0
  -30.3637  -11.4424   19.9291 H   0  0  0  0  0  0
  -29.7794  -11.7423   17.5055 H   0  0  0  0  0  0
  -29.6391  -13.4694   17.7342 H   0  0  0  0  0  0
  -27.8862  -11.2856   18.9069 H   0  0  0  0  0  0
  -27.3706  -12.5368   17.8053 H   0  0  0  0  0  0
  -27.6544  -14.2540   19.4969 H   0  0  0  0  0  0
  -28.7158  -12.1102   21.4014 H   0  0  0  0  0  0
  -28.4300  -13.7736   21.8295 H   0  0  0  0  0  0
  -25.2750   -9.5652   22.4755 H   0  0  0  0  0  0
  -23.9978   -7.4609   22.7466 H   0  0  0  0  0  0
  -21.0828   -8.8739   19.8946 H   0  0  0  0  0  0
  -22.3686  -10.9643   19.6145 H   0  0  0  0  0  0
  -21.1995   -7.6134   23.9691 H   0  0  0  0  0  0
  -21.1508   -6.0530   25.9072 H   0  0  0  0  0  0
  -22.0591   -2.7588   23.2866 H   0  0  0  0  0  0
  -22.4158  -11.9787   22.4742 H   0  0  0  0  0  0
  -21.1150  -13.1184   22.2774 H   0  0  0  0  0  0
  -24.6635  -15.8510   20.4923 H   0  0  0  0  0  0
  -26.2760  -15.6166   20.0577 H   0  0  0  0  0  0
  -26.7166  -32.5520   23.1120 H   0  0  0  0  0  0
  -25.0181  -33.9801   25.0497 H   0  0  0  0  0  0
  -22.7126  -31.2924   21.3807 H   0  0  0  0  0  0
  -23.3772  -35.9594   23.3297 H   0  0  0  0  0  0
  -24.3570  -36.8931   22.2063 H   0  0  0  0  0  0
  -23.7201  -37.6482   23.6680 H   0  0  0  0  0  0
  -26.0701  -31.5619   20.5919 H   0  0  0  0  0  0
  -26.8431  -30.8663   21.9828 H   0  0  0  0  0  0
  -28.1102  -28.9939   21.2214 H   0  0  0  0  0  0
  -26.0044  -25.9071   19.0554 H   0  0  0  0  0  0
  -24.0057  -27.2882   19.0120 H   0  0  0  0  0  0
  -23.7183  -30.5557   19.3835 H   0  0  0  0  0  0
  -22.7679  -29.1932   19.8795 H   0  0  0  0  0  0
  -25.1279  -36.1943   25.0825 H   0  0  0  0  0  0
  -20.9969  -28.3250   24.1450 H   0  0  0  0  0  0
  -20.5765  -26.2278   23.3624 H   0  0  0  0  0  0
  -21.6646  -26.7472   22.1152 H   0  0  0  0  0  0
  -19.6894  -25.6244   21.1326 H   0  0  0  0  0  0
  -19.6707  -27.3157   20.6796 H   0  0  0  0  0  0
  -17.4201  -26.6771   21.4013 H   0  0  0  0  0  0
  -18.0238  -26.0080   22.9006 H   0  0  0  0  0  0
  -19.7960  -30.7323   24.2196 H   0  0  0  0  0  0
  -17.5032  -31.6303   24.5135 H   0  0  0  0  0  0
  -15.5363  -30.2990   23.7705 H   0  0  0  0  0  0
  -15.8681  -28.0853   22.7051 H   0  0  0  0  0  0
  -24.5781  -30.7247   25.7773 H   0  0  0  0  0  0
  -24.8880  -32.3076   26.4803 H   0  0  0  0  0  0
  -25.7914  -30.9068   27.0256 H   0  0  0  0  0  0
  -26.2955  -29.6871   24.1107 H   0  0  0  0  0  0
  -27.3992  -29.7337   25.4671 H   0  0  0  0  0  0
  -27.8791  -30.4459   23.9437 H   0  0  0  0  0  0
  -27.2539  -33.3749   26.2015 H   0  0  0  0  0  0
  -28.3809  -32.6994   25.0359 H   0  0  0  0  0  0
  -28.0597  -31.8620   26.5492 H   0  0  0  0  0  0
  -28.2547  -38.0134   24.7551 H   0  0  0  0  0  0
  -28.1106  -36.2672   24.6205 H   0  0  0  0  0  0
  -27.2299  -37.1335   25.8861 H   0  0  0  0  0  0
  -20.9377  -29.8802   21.6985 H   0  0  0  0  0  0
  -26.0164  -38.2862   24.1449 H   0  0  0  0  0  0
  -29.8981  -23.2606   18.0630 H   0  0  0  0  0  0
  -30.1791  -20.9138   18.7235 H   0  0  0  0  0  0
  -27.8225  -24.1179   21.6890 H   0  0  0  0  0  0
  -25.0169  -21.2259   23.8558 H   0  0  0  0  0  0
  -26.4283  -20.9990   24.9666 H   0  0  0  0  0  0
  -27.1138  -23.2219   24.1758 H   0  0  0  0  0  0
  -26.1167  -23.0044   22.6893 H   0  0  0  0  0  0
  -26.2723  -20.3693   21.9521 H   0  0  0  0  0  0
  -27.2876  -19.5270   23.1843 H   0  0  0  0  0  0
  -28.6662  -21.4936   23.5180 H   0  0  0  0  0  0
  -27.9514  -25.3597   18.4671 H   0  0  0  0  0  0
  -29.5930  -25.6405   18.8333 H   0  0  0  0  0  0
  -28.4281  -18.1441   20.2842 H   0  0  0  0  0  0
  -29.8354  -18.6088   19.3631 H   0  0  0  0  0  0
  -30.2283  -17.3743   22.1478 H   0  0  0  0  0  0
  -31.3476  -17.3561   20.8310 H   0  0  0  0  0  0
  -29.2107  -19.6290   22.1088 H   0  0  0  0  0  0
  -28.9130  -15.5828   21.0962 H   0  0  0  0  0  0
  1 25  1  0  0  0
  1 30  2  0  0  0
  1 85  1  0  0  0
  2  3  1  0  0  0
  2 25  1  0  0  0
  2 86  1  0  0  0
  2 87  1  0  0  0
  3  4  1  0  0  0
  3 88  1  0  0  0
  3 89  1  0  0  0
  4  5  1  0  0  0
  4 90  1  0  0  0
  4 91  1  0  0  0
  5  6  1  0  0  0
  5 26  1  0  0  0
  5 92  1  0  0  0
  6 25  1  0  0  0
  6 93  1  0  0  0
  6 94  1  0  0  0
  7  8  2  0  0  0
  7 26  1  0  0  0
  7 29  1  0  0  0
  8  9  1  0  0  0
  8 22  1  0  0  0
  9 10  1  0  0  0
  9 27  2  0  0  0
 10 11  2  0  0  0
 10 15  1  0  0  0
 11 12  1  0  0  0
 11 95  1  0  0  0
 12 13  2  0  0  0
 12 96  1  0  0  0
 13 14  1  0  0  0
 13 31  1  0  0  0
 14 15  2  0  0  0
 14 97  1  0  0  0
 15 98  1  0  0  0
 16 17  2  0  0  0
 16 21  1  0  0  0
 16 31  1  0  0  0
 17 18  1  0  0  0
 17 99  1  0  0  0
 18 19  2  0  0  0
 18100  1  0  0  0
 19 20  1  0  0  0
 19 24  1  0  0  0
 20 21  2  0  0  0
 20101  1  0  0  0
 21 23  1  0  0  0
 22 28  1  0  0  0
 22 32  2  0  0  0
 26 27  1  0  0  0
 28102  1  0  0  0
 28103  1  0  0  0
 29104  1  0  0  0
 29105  1  0  0  0
 33 34  1  0  0  0
 33 66  1  0  0  0
 33 70  2  0  0  0
 34 36  1  0  0  0
 34 59  1  0  0  0
 34106  1  0  0  0
 35 44  2  0  0  0
 35 45  1  0  0  0
 35 68  1  0  0  0
 36 56  1  0  0  0
 36107  1  0  0  0
 37 39  1  0  0  0
 37 47  1  0  0  0
 37 66  1  0  0  0
 37108  1  0  0  0
 38 43  2  0  0  0
 38 46  1  0  0  0
 38 47  1  0  0  0
 39 64  1  0  0  0
 39 67  2  0  0  0
 40 52  1  0  0  0
 40 53  2  0  0  0
 40 58  1  0  0  0
 41109  1  0  0  0
 41110  1  0  0  0
 41111  1  0  0  0
 41 48  1  0  0  0
 42 43  1  0  0  0
 42 66  1  0  0  0
 42112  1  0  0  0
 42113  1  0  0  0
 43 44  1  0  0  0
 44114  1  0  0  0
 45 46  2  0  0  0
 45115  1  0  0  0
 46116  1  0  0  0
 47117  1  0  0  0
 47118  1  0  0  0
 48 56  1  0  0  0
 48 65  1  0  0  0
 48119  1  0  0  0
 49 50  1  0  0  0
 49 53  1  0  0  0
 49 64  1  0  0  0
 49120  1  0  0  0
 50 51  1  0  0  0
 50121  1  0  0  0
 50122  1  0  0  0
 51 52  1  0  0  0
 51123  1  0  0  0
 51124  1  0  0  0
 52125  1  0  0  0
 52126  1  0  0  0
 53 54  1  0  0  0
 54 55  2  0  0  0
 54127  1  0  0  0
 55 57  1  0  0  0
 55128  1  0  0  0
 56 69  2  0  0  0
 57 58  2  0  0  0
 57129  1  0  0  0
 58130  1  0  0  0
 59 60  1  0  0  0
 59 61  1  0  0  0
 59 62  1  0  0  0
 60131  1  0  0  0
 60132  1  0  0  0
 60133  1  0  0  0
 61134  1  0  0  0
 61135  1  0  0  0
 61136  1  0  0  0
 62137  1  0  0  0
 62138  1  0  0  0
 62139  1  0  0  0
 63 65  1  0  0  0
 63140  1  0  0  0
 63141  1  0  0  0
 63142  1  0  0  0
 64143  1  0  0  0
 65144  1  0  0  0
 68 81  1  0  0  0
 71 72  2  0  0  0
 71 75  1  0  0  0
 71145  1  0  0  0
 72 76  1  0  0  0
 72146  1  0  0  0
 73 74  1  0  0  0
 73 75  2  0  0  0
 73147  1  0  0  0
 74 76  2  0  0  0
 74 80  1  0  0  0
 75 81  1  0  0  0
 76 84  1  0  0  0
 77 78  1  0  0  0
 77 79  1  0  0  0
 77148  1  0  0  0
 77149  1  0  0  0
 78 80  1  0  0  0
 78150  1  0  0  0
 78151  1  0  0  0
 79 80  1  0  0  0
 79152  1  0  0  0
 79153  1  0  0  0
 80154  1  0  0  0
 81155  1  0  0  0
 81156  1  0  0  0
 82 83  1  0  0  0
 82 84  1  0  0  0
 82157  1  0  0  0
 82158  1  0  0  0
 83 85  1  0  0  0
 83159  1  0  0  0
 83160  1  0  0  0
 84161  1  0  0  0
 85162  1  0  0  0
M  ISO  4   1 100  68 101  81 101  85 100
M  END
> <chiral flag>
0

> <version>
0

> <s_m_source_file>
/data/baiqing/PycharmProjects/Reinvent-master-3.2/result/LINK_invent/BTK/process_docking_weight1_custom_sum_contain_oxygen_bond_distance_aromatic_linkinvent_7_9_3/rearranged_h_0131.sdf

> <i_m_source_file_index>
15

> <r_mmod_Potential_Energy-OPLS-2005>
77.6710662841797

> <r_mmod_Stretch_Energy-OPLS-2005>
88.8116302490234

> <r_mmod_Bend_Energy-OPLS-2005>
182.906295776367

> <r_mmod_Torsional_Energy-OPLS-2005>
236.820877075195

> <r_mmod_Improper_Torsional_Energy-OPLS-2005>
6.23944187164307

> <r_mmod_Van_der_Waal_Energy-OPLS-2005>
139.279876708984

> <r_mmod_Electrostatic_Energy-OPLS-2005>
-417.015716552734

> <r_mmod_Solvation_Energy-OPLS-2005>
-215.896514892578

> <b_mmod_Minimization_Converged-OPLS-2005>
0

> <r_mmod_RMS_Derivative-OPLS-2005>
3.57847738265991

$$$$
15
                    3D
 Structure written by MMmdl.
155163  0  0  1  0            999 V2000
  -30.7082  -14.4490   20.6061 C   0  0  0  0  0  0
  -30.4232  -12.3062   19.4151 C   0  0  0  0  0  0
  -29.4909  -12.5032   18.2028 C   0  0  0  0  0  0
  -28.0141  -12.3562   18.6192 C   0  0  0  0  0  0
  -27.6608  -13.2002   19.8733 C   0  0  2  0  0  0
  -28.6996  -12.9696   20.9934 C   0  0  0  0  0  0
  -25.2584  -13.8142   20.5672 C   0  0  0  0  0  0
  -24.1823  -13.0430   20.9149 C   0  0  0  0  0  0
  -24.6366  -11.6890   20.8717 C   0  0  0  0  0  0
  -23.9039  -10.4280   21.0396 C   0  0  0  0  0  0
  -24.3599   -9.4200   21.9177 C   0  0  0  0  0  0
  -23.6271   -8.2245   22.0763 C   0  0  0  0  0  0
  -22.4254   -8.0280   21.3556 C   0  0  0  0  0  0
  -21.9884   -9.0250   20.4659 C   0  0  0  0  0  0
  -22.7211  -10.2124   20.3052 C   0  0  0  0  0  0
  -21.6852   -6.0720   22.5277 C   0  0  0  0  0  0
  -21.4014   -6.5628   23.8210 C   0  0  0  0  0  0
  -21.3658   -5.6789   24.9175 C   0  0  0  0  0  0
  -21.6045   -4.3051   24.7230 C   0  0  0  0  0  0
  -21.8819   -3.8135   23.4356 C   0  0  0  0  0  0
  -21.9191   -4.6946   22.3406 C   0  0  0  0  0  0
  -22.7853  -13.5242   21.1824 C   0  0  0  0  0  0
  -22.1658   -4.2128   21.0984 F   0  0  0  0  0  0
  -21.5630   -3.4540   25.7748 F   0  0  0  0  0  0
  -30.0332  -13.2796   20.4466 N   0  0  0  0  0  0
  -26.3007  -12.9302   20.3348 N   0  0  0  0  0  0
  -25.9290  -11.6464   20.5749 N   0  0  0  0  0  0
  -22.0496  -12.8250   22.0386 N   0  0  0  0  0  0
  -25.4342  -15.1869   20.4137 N   0  0  0  0  0  0
  -31.8106  -14.6623   20.0920 O   0  0  0  0  0  0
  -21.6639   -6.8864   21.4241 O   0  0  0  0  0  0
  -22.3546  -14.5552   20.6671 O   0  0  0  0  0  0
  -24.6161  -31.8665   23.2082 C   0  0  0  0  0  0
  -25.9056  -32.4802   23.8384 C   0  0  1  0  0  0
  -27.2366  -27.4298   20.0890 C   0  0  0  0  0  0
  -25.5913  -33.8596   24.2344 N   0  0  0  0  0  0
  -23.4031  -30.4890   21.5491 C   0  0  2  0  0  0
  -24.8460  -28.9486   20.1172 C   0  0  0  0  0  0
  -22.7413  -29.4653   22.4993 C   0  0  0  0  0  0
  -18.0275  -28.1359   22.8495 C   0  0  0  0  0  0
  -24.1488  -36.7313   23.2643 C   0  0  0  0  0  0
  -25.9296  -30.8303   21.3585 C   0  0  0  0  0  0
  -26.0056  -29.4626   20.7087 C   0  0  0  0  0  0
  -27.2006  -28.7110   20.6886 C   0  0  0  0  0  0
  -26.0527  -26.9214   19.5078 C   0  0  0  0  0  0
  -24.8631  -27.6769   19.5183 C   0  0  0  0  0  0
  -23.6112  -29.8187   20.1640 C   0  0  0  0  0  0
  -25.4095  -36.3093   24.0357 C   0  0  1  0  0  0
  -20.5867  -28.3654   23.1321 C   0  0  2  0  0  0
  -20.6753  -26.9387   22.5427 C   0  0  0  0  0  0
  -19.5741  -26.6375   21.5213 C   0  0  0  0  0  0
  -18.1915  -26.7910   22.1616 C   0  0  0  0  0  0
  -19.1524  -28.8820   23.2907 C   0  0  0  0  0  0
  -18.9453  -30.1419   23.8929 C   0  0  0  0  0  0
  -17.6459  -30.6572   24.0556 C   0  0  0  0  0  0
  -25.9026  -34.9458   23.5149 C   0  0  0  0  0  0
  -16.5351  -29.9075   23.6311 C   0  0  0  0  0  0
  -16.7264  -28.6479   23.0356 C   0  0  0  0  0  0
  -26.4498  -31.6561   25.0695 C   0  0  0  0  0  0
  -25.3797  -31.3650   26.1474 C   0  0  0  0  0  0
  -27.0334  -30.3013   24.6026 C   0  0  0  0  0  0
  -27.6071  -32.4277   25.7461 C   0  0  0  0  0  0
  -27.5581  -37.1804   24.8468 C   0  0  0  0  0  0
  -21.4139  -29.3034   22.3735 N   0  0  0  0  0  0
  -26.4285  -37.3778   23.9423 N   0  0  0  0  0  0
  -24.6680  -31.0768   22.0975 N   0  0  0  0  0  0
  -23.4183  -28.8203   23.3043 O   0  0  0  0  0  0
  -28.4367  -26.7473   20.0929 O   0  0  0  0  0  0
  -26.5580  -34.8915   22.4704 O   0  0  0  0  0  0
  -23.5357  -32.1419   23.7482 O   0  0  0  0  0  0
  -29.9554  -22.8222   21.1557 C   0  0  0  0  0  0
  -27.9034  -21.8537   20.2919 C   0  0  0  0  0  0
  -30.5376  -21.5393   21.2020 C   0  0  0  0  0  0
  -28.4886  -20.5650   20.3386 C   0  0  0  0  0  0
  -28.6281  -22.9937   20.7110 C   0  0  0  0  0  0
  -29.8111  -20.3940   20.8120 C   0  0  0  0  0  0
  -27.9928  -24.3884   20.7530 C   0  0  0  0  0  0
  -29.7679  -17.8567   20.8096 C   0  0  0  0  0  0
  -30.5369  -16.7573   21.5842 C   0  0  0  0  0  0
  -28.5197  -25.3735   19.6810 C   0  0  0  0  0  0
  -30.4503  -19.1451   20.9234 N   0  0  0  0  0  0
  -30.0575  -15.4004   21.2978 N   0  0  0  0  0  0
  -31.4653  -12.4151   19.1085 H   0  0  0  0  0  0
  -30.3356  -11.2912   19.8067 H   0  0  0  0  0  0
  -29.7335  -11.7788   17.4244 H   0  0  0  0  0  0
  -29.6541  -13.4896   17.7669 H   0  0  0  0  0  0
  -27.8331  -11.3005   18.8245 H   0  0  0  0  0  0
  -27.3597  -12.6184   17.7876 H   0  0  0  0  0  0
  -27.7123  -14.2482   19.5781 H   0  0  0  0  0  0
  -28.6724  -11.9286   21.3195 H   0  0  0  0  0  0
  -28.4502  -13.5527   21.8806 H   0  0  0  0  0  0
  -25.2749   -9.5683   22.4743 H   0  0  0  0  0  0
  -23.9982   -7.4644   22.7488 H   0  0  0  0  0  0
  -21.0813   -8.8758   19.8976 H   0  0  0  0  0  0
  -22.3662  -10.9657   19.6158 H   0  0  0  0  0  0
  -21.2006   -7.6137   23.9703 H   0  0  0  0  0  0
  -21.1483   -6.0525   25.9078 H   0  0  0  0  0  0
  -22.0597   -2.7596   23.2866 H   0  0  0  0  0  0
  -22.4113  -11.9917   22.4782 H   0  0  0  0  0  0
  -21.1127  -13.1313   22.2605 H   0  0  0  0  0  0
  -24.6758  -15.8481   20.5427 H   0  0  0  0  0  0
  -26.2963  -15.6272   20.1182 H   0  0  0  0  0  0
  -26.7115  -32.5516   23.1140 H   0  0  0  0  0  0
  -25.0072  -33.9745   25.0494 H   0  0  0  0  0  0
  -22.6914  -31.3032   21.4074 H   0  0  0  0  0  0
  -23.3738  -35.9663   23.3304 H   0  0  0  0  0  0
  -24.3580  -36.8917   22.2055 H   0  0  0  0  0  0
  -23.7252  -37.6527   23.6647 H   0  0  0  0  0  0
  -26.0372  -31.5906   20.5841 H   0  0  0  0  0  0
  -26.8201  -30.8881   21.9713 H   0  0  0  0  0  0
  -28.1001  -29.1086   21.1390 H   0  0  0  0  0  0
  -26.0256  -25.9475   19.0416 H   0  0  0  0  0  0
  -23.9667  -27.2717   19.0690 H   0  0  0  0  0  0
  -23.7261  -30.5927   19.4043 H   0  0  0  0  0  0
  -22.7329  -29.2435   19.8666 H   0  0  0  0  0  0
  -25.1261  -36.1957   25.0851 H   0  0  0  0  0  0
  -20.9961  -28.3212   24.1437 H   0  0  0  0  0  0
  -20.5602  -26.2275   23.3620 H   0  0  0  0  0  0
  -21.6632  -26.7380   22.1264 H   0  0  0  0  0  0
  -19.6898  -25.6288   21.1229 H   0  0  0  0  0  0
  -19.6685  -27.3196   20.6752 H   0  0  0  0  0  0
  -17.4199  -26.6689   21.4001 H   0  0  0  0  0  0
  -18.0286  -26.0026   22.8979 H   0  0  0  0  0  0
  -19.7928  -30.7213   24.2334 H   0  0  0  0  0  0
  -17.5012  -31.6252   24.5153 H   0  0  0  0  0  0
  -15.5349  -30.2990   23.7593 H   0  0  0  0  0  0
  -15.8666  -28.0785   22.7085 H   0  0  0  0  0  0
  -24.5990  -30.6948   25.7857 H   0  0  0  0  0  0
  -24.8974  -32.2799   26.4919 H   0  0  0  0  0  0
  -25.8210  -30.8855   27.0223 H   0  0  0  0  0  0
  -26.2850  -29.6726   24.1185 H   0  0  0  0  0  0
  -27.4256  -29.7268   25.4426 H   0  0  0  0  0  0
  -27.8611  -30.4354   23.9062 H   0  0  0  0  0  0
  -27.2698  -33.3582   26.2036 H   0  0  0  0  0  0
  -28.3899  -32.6817   25.0304 H   0  0  0  0  0  0
  -28.0721  -31.8392   26.5380 H   0  0  0  0  0  0
  -28.2599  -38.0097   24.7499 H   0  0  0  0  0  0
  -28.1076  -36.2627   24.6304 H   0  0  0  0  0  0
  -27.2311  -37.1478   25.8876 H   0  0  0  0  0  0
  -20.9289  -29.8769   21.6973 H   0  0  0  0  0  0
  -26.0174  -38.2865   24.1393 H   0  0  0  0  0  0
  -30.5308  -23.6777   21.4826 H   0  0  0  0  0  0
  -26.8824  -21.9550   19.9499 H   0  0  0  0  0  0
  -31.5529  -21.4480   21.5603 H   0  0  0  0  0  0
  -27.9034  -19.7172   20.0138 H   0  0  0  0  0  0
  -28.1974  -24.8039   21.7402 H   0  0  0  0  0  0
  -26.9077  -24.3101   20.6871 H   0  0  0  0  0  0
  -29.7039  -17.5928   19.7525 H   0  0  0  0  0  0
  -28.7455  -17.9267   21.1846 H   0  0  0  0  0  0
  -31.6037  -16.8227   21.3673 H   0  0  0  0  0  0
  -30.4427  -16.9327   22.6569 H   0  0  0  0  0  0
  -28.0682  -25.1960   18.7048 H   0  0  0  0  0  0
  -29.5853  -25.1945   19.5381 H   0  0  0  0  0  0
  -31.3974  -19.1313   21.2942 H   0  0  0  0  0  0
  -29.1572  -15.1434   21.6754 H   0  0  0  0  0  0
  1 25  1  0  0  0
  1 30  2  0  0  0
  1 82  1  0  0  0
  2  3  1  0  0  0
  2 25  1  0  0  0
  2 83  1  0  0  0
  2 84  1  0  0  0
  3  4  1  0  0  0
  3 85  1  0  0  0
  3 86  1  0  0  0
  4  5  1  0  0  0
  4 87  1  0  0  0
  4 88  1  0  0  0
  5  6  1  0  0  0
  5 26  1  0  0  0
  5 89  1  0  0  0
  6 25  1  0  0  0
  6 90  1  0  0  0
  6 91  1  0  0  0
  7  8  2  0  0  0
  7 26  1  0  0  0
  7 29  1  0  0  0
  8  9  1  0  0  0
  8 22  1  0  0  0
  9 10  1  0  0  0
  9 27  2  0  0  0
 10 11  2  0  0  0
 10 15  1  0  0  0
 11 12  1  0  0  0
 11 92  1  0  0  0
 12 13  2  0  0  0
 12 93  1  0  0  0
 13 14  1  0  0  0
 13 31  1  0  0  0
 14 15  2  0  0  0
 14 94  1  0  0  0
 15 95  1  0  0  0
 16 17  2  0  0  0
 16 21  1  0  0  0
 16 31  1  0  0  0
 17 18  1  0  0  0
 17 96  1  0  0  0
 18 19  2  0  0  0
 18 97  1  0  0  0
 19 20  1  0  0  0
 19 24  1  0  0  0
 20 21  2  0  0  0
 20 98  1  0  0  0
 21 23  1  0  0  0
 22 28  1  0  0  0
 22 32  2  0  0  0
 26 27  1  0  0  0
 28 99  1  0  0  0
 28100  1  0  0  0
 29101  1  0  0  0
 29102  1  0  0  0
 33 34  1  0  0  0
 33 66  1  0  0  0
 33 70  2  0  0  0
 34 36  1  0  0  0
 34 59  1  0  0  0
 34103  1  0  0  0
 35 44  2  0  0  0
 35 45  1  0  0  0
 35 68  1  0  0  0
 36 56  1  0  0  0
 36104  1  0  0  0
 37 39  1  0  0  0
 37 47  1  0  0  0
 37 66  1  0  0  0
 37105  1  0  0  0
 38 43  2  0  0  0
 38 46  1  0  0  0
 38 47  1  0  0  0
 39 64  1  0  0  0
 39 67  2  0  0  0
 40 52  1  0  0  0
 40 53  2  0  0  0
 40 58  1  0  0  0
 41106  1  0  0  0
 41107  1  0  0  0
 41108  1  0  0  0
 41 48  1  0  0  0
 42 43  1  0  0  0
 42 66  1  0  0  0
 42109  1  0  0  0
 42110  1  0  0  0
 43 44  1  0  0  0
 44111  1  0  0  0
 45 46  2  0  0  0
 45112  1  0  0  0
 46113  1  0  0  0
 47114  1  0  0  0
 47115  1  0  0  0
 48 56  1  0  0  0
 48 65  1  0  0  0
 48116  1  0  0  0
 49 50  1  0  0  0
 49 53  1  0  0  0
 49 64  1  0  0  0
 49117  1  0  0  0
 50 51  1  0  0  0
 50118  1  0  0  0
 50119  1  0  0  0
 51 52  1  0  0  0
 51120  1  0  0  0
 51121  1  0  0  0
 52122  1  0  0  0
 52123  1  0  0  0
 53 54  1  0  0  0
 54 55  2  0  0  0
 54124  1  0  0  0
 55 57  1  0  0  0
 55125  1  0  0  0
 56 69  2  0  0  0
 57 58  2  0  0  0
 57126  1  0  0  0
 58127  1  0  0  0
 59 60  1  0  0  0
 59 61  1  0  0  0
 59 62  1  0  0  0
 60128  1  0  0  0
 60129  1  0  0  0
 60130  1  0  0  0
 61131  1  0  0  0
 61132  1  0  0  0
 61133  1  0  0  0
 62134  1  0  0  0
 62135  1  0  0  0
 62136  1  0  0  0
 63 65  1  0  0  0
 63137  1  0  0  0
 63138  1  0  0  0
 63139  1  0  0  0
 64140  1  0  0  0
 65141  1  0  0  0
 68 80  1  0  0  0
 71 73  2  0  0  0
 71 75  1  0  0  0
 71142  1  0  0  0
 72 74  1  0  0  0
 72 75  2  0  0  0
 72143  1  0  0  0
 73 76  1  0  0  0
 73144  1  0  0  0
 74 76  2  0  0  0
 74145  1  0  0  0
 75 77  1  0  0  0
 76 81  1  0  0  0
 77 80  1  0  0  0
 77146  1  0  0  0
 77147  1  0  0  0
 78 79  1  0  0  0
 78 81  1  0  0  0
 78148  1  0  0  0
 78149  1  0  0  0
 79 82  1  0  0  0
 79150  1  0  0  0
 79151  1  0  0  0
 80152  1  0  0  0
 80153  1  0  0  0
 81154  1  0  0  0
 82155  1  0  0  0
M  ISO  4   1 100  68 101  80 101  82 100
M  END
> <chiral flag>
0

> <version>
0

> <s_m_source_file>
/data/baiqing/PycharmProjects/Reinvent-master-3.2/result/LINK_invent/BTK/process_docking_weight1_custom_sum_contain_oxygen_bond_distance_aromatic_linkinvent_7_9_3/rearranged_h_0131.sdf

> <i_m_source_file_index>
16

> <r_mmod_Potential_Energy-OPLS-2005>
-149.417617797852

> <r_mmod_Stretch_Energy-OPLS-2005>
35.7775726318359

> <r_mmod_Bend_Energy-OPLS-2005>
114.079116821289

> <r_mmod_Torsional_Energy-OPLS-2005>
177.531585693359

> <r_mmod_Improper_Torsional_Energy-OPLS-2005>
2.65447735786438

> <r_mmod_Van_der_Waal_Energy-OPLS-2005>
151.411712646484

> <r_mmod_Electrostatic_Energy-OPLS-2005>
-419.903289794922

> <r_mmod_Solvation_Energy-OPLS-2005>
-222.086975097656

> <b_mmod_Minimization_Converged-OPLS-2005>
0

> <r_mmod_RMS_Derivative-OPLS-2005>
1.96044361591339

$$$$
16
                    3D
 Structure written by MMmdl.
172181  0  0  1  0            999 V2000
  -30.6289  -14.7003   20.4709 C   0  0  0  0  0  0
  -30.4409  -12.4324   19.4568 C   0  0  0  0  0  0
  -29.5123  -12.5238   18.2239 C   0  0  0  0  0  0
  -28.0377  -12.3477   18.6388 C   0  0  0  0  0  0
  -27.6507  -13.2285   19.8583 C   0  0  2  0  0  0
  -28.6997  -13.1290   20.9884 C   0  0  0  0  0  0
  -25.2528  -13.8188   20.5722 C   0  0  0  0  0  0
  -24.1816  -13.0421   20.9185 C   0  0  0  0  0  0
  -24.6391  -11.6900   20.8711 C   0  0  0  0  0  0
  -23.9046  -10.4277   21.0401 C   0  0  0  0  0  0
  -24.3613   -9.4194   21.9170 C   0  0  0  0  0  0
  -23.6283   -8.2233   22.0753 C   0  0  0  0  0  0
  -22.4260   -8.0269   21.3539 C   0  0  0  0  0  0
  -21.9902   -9.0233   20.4638 C   0  0  0  0  0  0
  -22.7223  -10.2103   20.3042 C   0  0  0  0  0  0
  -21.6855   -6.0719   22.5273 C   0  0  0  0  0  0
  -21.4013   -6.5631   23.8206 C   0  0  0  0  0  0
  -21.3668   -5.6782   24.9166 C   0  0  0  0  0  0
  -21.6046   -4.3049   24.7225 C   0  0  0  0  0  0
  -21.8825   -3.8135   23.4349 C   0  0  0  0  0  0
  -21.9190   -4.6949   22.3402 C   0  0  0  0  0  0
  -22.7836  -13.5206   21.1858 C   0  0  0  0  0  0
  -22.1664   -4.2146   21.0971 F   0  0  0  0  0  0
  -21.5641   -3.4529   25.7732 F   0  0  0  0  0  0
  -30.0069  -13.4754   20.4131 N   0  0  0  0  0  0
  -26.2982  -12.9392   20.3334 N   0  0  0  0  0  0
  -25.9338  -11.6526   20.5737 N   0  0  0  0  0  0
  -22.0467  -12.8189   22.0389 N   0  0  0  0  0  0
  -25.4110  -15.1932   20.4179 N   0  0  0  0  0  0
  -31.8124  -14.8157   20.1287 O   0  0  0  0  0  0
  -21.6640   -6.8858   21.4229 O   0  0  0  0  0  0
  -22.3517  -14.5488   20.6674 O   0  0  0  0  0  0
  -24.6278  -31.8484   23.1978 C   0  0  0  0  0  0
  -25.9080  -32.4720   23.8342 C   0  0  1  0  0  0
  -27.2420  -27.2825   20.1506 C   0  0  0  0  0  0
  -25.5801  -33.8510   24.2202 N   0  0  0  0  0  0
  -23.4272  -30.4760   21.5324 C   0  0  2  0  0  0
  -24.8869  -28.9080   20.1216 C   0  0  0  0  0  0
  -22.7443  -29.4657   22.4859 C   0  0  0  0  0  0
  -18.0240  -28.1411   22.8494 C   0  0  0  0  0  0
  -24.1478  -36.7353   23.2645 C   0  0  0  0  0  0
  -25.9706  -30.7718   21.3710 C   0  0  0  0  0  0
  -26.0513  -29.3915   20.7278 C   0  0  0  0  0  0
  -27.2367  -28.5930   20.7254 C   0  0  0  0  0  0
  -26.0544  -26.8455   19.5320 C   0  0  0  0  0  0
  -24.8907  -27.6426   19.5090 C   0  0  0  0  0  0
  -23.6588  -29.7948   20.1551 C   0  0  0  0  0  0
  -25.4079  -36.3056   24.0336 C   0  0  1  0  0  0
  -20.5816  -28.3881   23.1301 C   0  0  2  0  0  0
  -20.6723  -26.9507   22.5657 C   0  0  0  0  0  0
  -19.5732  -26.6302   21.5453 C   0  0  0  0  0  0
  -18.1888  -26.7918   22.1789 C   0  0  0  0  0  0
  -19.1458  -28.8979   23.2865 C   0  0  0  0  0  0
  -18.9273  -30.1549   23.8924 C   0  0  0  0  0  0
  -17.6220  -30.6544   24.0694 C   0  0  0  0  0  0
  -25.9001  -34.9384   23.5111 C   0  0  0  0  0  0
  -16.5174  -29.8944   23.6479 C   0  0  0  0  0  0
  -16.7190  -28.6431   23.0401 C   0  0  0  0  0  0
  -26.4567  -31.6583   25.0735 C   0  0  0  0  0  0
  -25.3863  -31.3595   26.1564 C   0  0  0  0  0  0
  -27.0482  -30.3077   24.6191 C   0  0  0  0  0  0
  -27.6137  -32.4440   25.7322 C   0  0  0  0  0  0
  -27.5567  -37.1847   24.8452 C   0  0  0  0  0  0
  -21.4129  -29.3189   22.3638 N   0  0  0  0  0  0
  -26.4228  -37.3783   23.9443 N   0  0  0  0  0  0
  -24.6940  -31.0513   22.0906 N   0  0  0  0  0  0
  -23.4118  -28.8193   23.2989 O   0  0  0  0  0  0
  -28.3733  -26.4487   20.0920 O   0  0  0  0  0  0
  -26.5616  -34.8834   22.4702 O   0  0  0  0  0  0
  -23.5419  -32.1221   23.7292 O   0  0  0  0  0  0
  -27.2920  -19.1077   22.1672 C   0  0  0  0  0  0
  -28.1195  -18.1188   21.6209 C   0  0  0  0  0  0
  -29.4544  -19.8770   20.6338 C   0  0  0  0  0  0
  -27.5348  -20.5029   22.0454 C   0  0  0  0  0  0
  -29.2483  -18.4545   20.8712 C   0  0  0  0  0  0
  -28.6233  -20.9432   21.1909 C   0  0  0  0  0  0
  -25.1428  -23.2564   23.2529 C   0  0  0  0  0  0
  -26.4603  -22.8603   22.6176 C   0  0  0  0  0  0
  -24.3616  -21.9679   23.0832 C   0  0  0  0  0  0
  -26.7022  -21.3975   23.0205 C   0  0  1  0  0  0
  -23.7620  -19.9562   25.1528 C   0  0  0  0  0  0
  -29.0995  -22.4779   21.0979 C   0  0  0  0  0  0
  -30.1985  -17.2760   20.3989 C   0  0  0  0  0  0
  -28.4336  -23.6813   20.2214 C   0  0  0  0  0  0
  -25.2150  -20.2585   24.7127 C   0  0  0  0  0  0
  -28.4238  -25.1743   20.8657 C   0  0  0  0  0  0
  -29.8505  -15.8164   20.6813 N   0  0  0  0  0  0
  -25.3323  -20.8736   23.3504 N   0  3  1  0  0  0
  -31.4807  -12.5618   19.1480 H   0  0  0  0  0  0
  -30.3861  -11.4449   19.9177 H   0  0  0  0  0  0
  -29.7871  -11.7730   17.4804 H   0  0  0  0  0  0
  -29.6437  -13.4951   17.7434 H   0  0  0  0  0  0
  -27.8877  -11.2948   18.8821 H   0  0  0  0  0  0
  -27.3805  -12.5605   17.7960 H   0  0  0  0  0  0
  -27.6520  -14.2593   19.5032 H   0  0  0  0  0  0
  -28.7239  -12.1218   21.4091 H   0  0  0  0  0  0
  -28.4452  -13.7945   21.8154 H   0  0  0  0  0  0
  -25.2767   -9.5690   22.4737 H   0  0  0  0  0  0
  -24.0007   -7.4637   22.7502 H   0  0  0  0  0  0
  -21.0830   -8.8724   19.8959 H   0  0  0  0  0  0
  -22.3673  -10.9625   19.6157 H   0  0  0  0  0  0
  -21.1993   -7.6136   23.9698 H   0  0  0  0  0  0
  -21.1499   -6.0520   25.9069 H   0  0  0  0  0  0
  -22.0595   -2.7599   23.2842 H   0  0  0  0  0  0
  -22.4117  -11.9888   22.4825 H   0  0  0  0  0  0
  -21.1051  -13.1200   22.2540 H   0  0  0  0  0  0
  -24.6111  -15.8125   20.5040 H   0  0  0  0  0  0
  -26.2298  -15.6481   20.0389 H   0  0  0  0  0  0
  -26.7127  -32.5372   23.1061 H   0  0  0  0  0  0
  -24.9822  -33.9600   25.0259 H   0  0  0  0  0  0
  -22.7314  -31.3036   21.3666 H   0  0  0  0  0  0
  -23.3654  -35.9784   23.3289 H   0  0  0  0  0  0
  -24.3584  -36.9012   22.2063 H   0  0  0  0  0  0
  -23.7320  -37.6575   23.6702 H   0  0  0  0  0  0
  -26.0946  -31.5200   20.5879 H   0  0  0  0  0  0
  -26.8524  -30.8376   21.9953 H   0  0  0  0  0  0
  -28.1418  -28.9755   21.1757 H   0  0  0  0  0  0
  -26.0373  -25.8765   19.0554 H   0  0  0  0  0  0
  -24.0055  -27.2762   19.0101 H   0  0  0  0  0  0
  -23.7963  -30.5611   19.3920 H   0  0  0  0  0  0
  -22.7827  -29.2273   19.8357 H   0  0  0  0  0  0
  -25.1254  -36.1902   25.0835 H   0  0  0  0  0  0
  -20.9938  -28.3747   24.1407 H   0  0  0  0  0  0
  -20.5532  -26.2575   23.4006 H   0  0  0  0  0  0
  -21.6606  -26.7402   22.1532 H   0  0  0  0  0  0
  -19.6850  -25.6132   21.1800 H   0  0  0  0  0  0
  -19.6716  -27.2893   20.6816 H   0  0  0  0  0  0
  -17.4160  -26.6558   21.4242 H   0  0  0  0  0  0
  -18.0206  -26.0243   22.9356 H   0  0  0  0  0  0
  -19.7636  -30.7399   24.2472 H   0  0  0  0  0  0
  -17.4568  -31.6030   24.5592 H   0  0  0  0  0  0
  -15.5063  -30.2605   23.7954 H   0  0  0  0  0  0
  -15.8630  -28.0634   22.7240 H   0  0  0  0  0  0
  -24.5997  -30.6982   25.7930 H   0  0  0  0  0  0
  -24.9126  -32.2687   26.5197 H   0  0  0  0  0  0
  -25.8271  -30.8623   27.0197 H   0  0  0  0  0  0
  -26.3159  -29.6894   24.1030 H   0  0  0  0  0  0
  -27.4080  -29.7276   25.4709 H   0  0  0  0  0  0
  -27.9064  -30.4422   23.9587 H   0  0  0  0  0  0
  -27.2796  -33.3877   26.1623 H   0  0  0  0  0  0
  -28.3888  -32.6813   25.0025 H   0  0  0  0  0  0
  -28.0802  -31.8759   26.5375 H   0  0  0  0  0  0
  -28.2565  -38.0151   24.7471 H   0  0  0  0  0  0
  -28.1058  -36.2678   24.6272 H   0  0  0  0  0  0
  -27.2319  -37.1559   25.8858 H   0  0  0  0  0  0
  -20.9229  -29.8995   21.6946 H   0  0  0  0  0  0
  -26.0073  -38.2853   24.1429 H   0  0  0  0  0  0
  -26.4913  -18.7267   22.7763 H   0  0  0  0  0  0
  -27.8955  -17.0833   21.8422 H   0  0  0  0  0  0
  -30.3308  -20.1662   20.0672 H   0  0  0  0  0  0
  -24.6749  -24.1104   22.7656 H   0  0  0  0  0  0
  -25.2627  -23.4963   24.3119 H   0  0  0  0  0  0
  -27.2652  -23.5189   22.9301 H   0  0  0  0  0  0
  -26.3112  -22.9229   21.5436 H   0  0  0  0  0  0
  -24.0308  -21.8905   22.0467 H   0  0  0  0  0  0
  -23.4539  -21.9661   23.6803 H   0  0  0  0  0  0
  -27.2818  -21.4274   23.9456 H   0  0  0  0  0  0
  -23.7106  -19.1819   25.9172 H   0  0  0  0  0  0
  -23.1337  -19.6329   24.3228 H   0  0  0  0  0  0
  -23.2994  -20.8413   25.5892 H   0  0  0  0  0  0
  -30.1414  -22.4434   20.7664 H   0  0  0  0  0  0
  -29.1981  -22.8248   22.1275 H   0  0  0  0  0  0
  -31.1849  -17.4645   20.8238 H   0  0  0  0  0  0
  -30.3196  -17.3719   19.3188 H   0  0  0  0  0  0
  -27.4305  -23.4262   19.8923 H   0  0  0  0  0  0
  -28.9881  -23.7405   19.2864 H   0  0  0  0  0  0
  -25.7974  -19.3355   24.7466 H   0  0  0  0  0  0
  -25.6724  -20.9083   25.4617 H   0  0  0  0  0  0
  -29.3776  -25.2461   21.3928 H   0  0  0  0  0  0
  -27.6762  -25.2370   21.6541 H   0  0  0  0  0  0
  -28.8911  -15.6271   20.9190 H   0  0  0  0  0  0
  -25.1260  -20.1444   22.6833 H   0  0  0  0  0  0
  1 25  1  0  0  0
  1 30  2  0  0  0
  1 87  1  0  0  0
  2  3  1  0  0  0
  2 25  1  0  0  0
  2 89  1  0  0  0
  2 90  1  0  0  0
  3  4  1  0  0  0
  3 91  1  0  0  0
  3 92  1  0  0  0
  4  5  1  0  0  0
  4 93  1  0  0  0
  4 94  1  0  0  0
  5  6  1  0  0  0
  5 26  1  0  0  0
  5 95  1  0  0  0
  6 25  1  0  0  0
  6 96  1  0  0  0
  6 97  1  0  0  0
  7  8  2  0  0  0
  7 26  1  0  0  0
  7 29  1  0  0  0
  8  9  1  0  0  0
  8 22  1  0  0  0
  9 10  1  0  0  0
  9 27  2  0  0  0
 10 11  2  0  0  0
 10 15  1  0  0  0
 11 12  1  0  0  0
 11 98  1  0  0  0
 12 13  2  0  0  0
 12 99  1  0  0  0
 13 14  1  0  0  0
 13 31  1  0  0  0
 14 15  2  0  0  0
 14100  1  0  0  0
 15101  1  0  0  0
 16 17  2  0  0  0
 16 21  1  0  0  0
 16 31  1  0  0  0
 17 18  1  0  0  0
 17102  1  0  0  0
 18 19  2  0  0  0
 18103  1  0  0  0
 19 20  1  0  0  0
 19 24  1  0  0  0
 20 21  2  0  0  0
 20104  1  0  0  0
 21 23  1  0  0  0
 22 28  1  0  0  0
 22 32  2  0  0  0
 26 27  1  0  0  0
 28105  1  0  0  0
 28106  1  0  0  0
 29107  1  0  0  0
 29108  1  0  0  0
 33 34  1  0  0  0
 33 66  1  0  0  0
 33 70  2  0  0  0
 34 36  1  0  0  0
 34 59  1  0  0  0
 34109  1  0  0  0
 35 44  2  0  0  0
 35 45  1  0  0  0
 35 68  1  0  0  0
 36 56  1  0  0  0
 36110  1  0  0  0
 37 39  1  0  0  0
 37 47  1  0  0  0
 37 66  1  0  0  0
 37111  1  0  0  0
 38 43  2  0  0  0
 38 46  1  0  0  0
 38 47  1  0  0  0
 39 64  1  0  0  0
 39 67  2  0  0  0
 40 52  1  0  0  0
 40 53  2  0  0  0
 40 58  1  0  0  0
 41112  1  0  0  0
 41113  1  0  0  0
 41114  1  0  0  0
 41 48  1  0  0  0
 42 43  1  0  0  0
 42 66  1  0  0  0
 42115  1  0  0  0
 42116  1  0  0  0
 43 44  1  0  0  0
 44117  1  0  0  0
 45 46  2  0  0  0
 45118  1  0  0  0
 46119  1  0  0  0
 47120  1  0  0  0
 47121  1  0  0  0
 48 56  1  0  0  0
 48 65  1  0  0  0
 48122  1  0  0  0
 49 50  1  0  0  0
 49 53  1  0  0  0
 49 64  1  0  0  0
 49123  1  0  0  0
 50 51  1  0  0  0
 50124  1  0  0  0
 50125  1  0  0  0
 51 52  1  0  0  0
 51126  1  0  0  0
 51127  1  0  0  0
 52128  1  0  0  0
 52129  1  0  0  0
 53 54  1  0  0  0
 54 55  2  0  0  0
 54130  1  0  0  0
 55 57  1  0  0  0
 55131  1  0  0  0
 56 69  2  0  0  0
 57 58  2  0  0  0
 57132  1  0  0  0
 58133  1  0  0  0
 59 60  1  0  0  0
 59 61  1  0  0  0
 59 62  1  0  0  0
 60134  1  0  0  0
 60135  1  0  0  0
 60136  1  0  0  0
 61137  1  0  0  0
 61138  1  0  0  0
 61139  1  0  0  0
 62140  1  0  0  0
 62141  1  0  0  0
 62142  1  0  0  0
 63 65  1  0  0  0
 63143  1  0  0  0
 63144  1  0  0  0
 63145  1  0  0  0
 64146  1  0  0  0
 65147  1  0  0  0
 68 86  1  0  0  0
 71 72  2  0  0  0
 71 74  1  0  0  0
 71148  1  0  0  0
 72 75  1  0  0  0
 72149  1  0  0  0
 73 75  2  0  0  0
 73 76  1  0  0  0
 73150  1  0  0  0
 74 76  2  0  0  0
 74 80  1  0  0  0
 75 83  1  0  0  0
 76 82  1  0  0  0
 77 78  1  0  0  0
 77 79  1  0  0  0
 77151  1  0  0  0
 77152  1  0  0  0
 78 80  1  0  0  0
 78153  1  0  0  0
 78154  1  0  0  0
 79 88  1  0  0  0
 79155  1  0  0  0
 79156  1  0  0  0
 80 88  1  0  0  0
 80157  1  0  0  0
 81 85  1  0  0  0
 81158  1  0  0  0
 81159  1  0  0  0
 81160  1  0  0  0
 82 84  1  0  0  0
 82161  1  0  0  0
 82162  1  0  0  0
 83 87  1  0  0  0
 83163  1  0  0  0
 83164  1  0  0  0
 84 86  1  0  0  0
 84165  1  0  0  0
 84166  1  0  0  0
 85167  1  0  0  0
 85168  1  0  0  0
 85 88  1  0  0  0
 86169  1  0  0  0
 86170  1  0  0  0
 87171  1  0  0  0
 88172  1  0  0  0
M  CHG  1  88   1
M  ISO  4   1 100  68 101  86 101  87 100
M  END
> <chiral flag>
0

> <version>
0

> <s_m_source_file>
/data/baiqing/PycharmProjects/Reinvent-master-3.2/result/LINK_invent/BTK/process_docking_weight1_custom_sum_contain_oxygen_bond_distance_aromatic_linkinvent_7_9_3/rearranged_h_0131.sdf

> <i_m_source_file_index>
17

> <r_mmod_Potential_Energy-OPLS-2005>
145.811813354492

> <r_mmod_Stretch_Energy-OPLS-2005>
133.346725463867

> <r_mmod_Bend_Energy-OPLS-2005>
220.282638549805

> <r_mmod_Torsional_Energy-OPLS-2005>
308.580108642578

> <r_mmod_Improper_Torsional_Energy-OPLS-2005>
8.76274585723877

> <r_mmod_Van_der_Waal_Energy-OPLS-2005>
143.369445800781

> <r_mmod_Electrostatic_Energy-OPLS-2005>
-297.318939208984

> <r_mmod_Solvation_Energy-OPLS-2005>
-436.169860839844

> <b_mmod_Minimization_Converged-OPLS-2005>
0

> <r_mmod_RMS_Derivative-OPLS-2005>
7.36890554428101

$$$$
17
                    3D
 Structure written by MMmdl.
169177  0  0  1  0            999 V2000
  -30.7214  -14.4041   20.6069 C   0  0  0  0  0  0
  -30.4235  -12.2707   19.4139 C   0  0  0  0  0  0
  -29.4949  -12.4977   18.1997 C   0  0  0  0  0  0
  -28.0103  -12.3874   18.6048 C   0  0  0  0  0  0
  -27.6670  -13.1983   19.8849 C   0  0  2  0  0  0
  -28.7106  -12.9406   20.9966 C   0  0  0  0  0  0
  -25.2553  -13.8092   20.5604 C   0  0  0  0  0  0
  -24.1820  -13.0384   20.9192 C   0  0  0  0  0  0
  -24.6370  -11.6849   20.8770 C   0  0  0  0  0  0
  -23.9029  -10.4250   21.0460 C   0  0  0  0  0  0
  -24.3601   -9.4170   21.9236 C   0  0  0  0  0  0
  -23.6296   -8.2199   22.0795 C   0  0  0  0  0  0
  -22.4266   -8.0248   21.3587 C   0  0  0  0  0  0
  -21.9875   -9.0237   20.4713 C   0  0  0  0  0  0
  -22.7192  -10.2120   20.3136 C   0  0  0  0  0  0
  -21.6848   -6.0691   22.5270 C   0  0  0  0  0  0
  -21.4004   -6.5610   23.8197 C   0  0  0  0  0  0
  -21.3667   -5.6788   24.9177 C   0  0  0  0  0  0
  -21.6067   -4.3046   24.7241 C   0  0  0  0  0  0
  -21.8823   -3.8113   23.4360 C   0  0  0  0  0  0
  -21.9202   -4.6918   22.3406 C   0  0  0  0  0  0
  -22.7846  -13.5173   21.1843 C   0  0  0  0  0  0
  -22.1667   -4.2090   21.0983 F   0  0  0  0  0  0
  -21.5664   -3.4526   25.7754 F   0  0  0  0  0  0
  -30.0459  -13.2380   20.4506 N   0  0  0  0  0  0
  -26.3036  -12.9274   20.3405 N   0  0  0  0  0  0
  -25.9307  -11.6435   20.5791 N   0  0  0  0  0  0
  -22.0508  -12.8196   22.0452 N   0  0  0  0  0  0
  -25.4219  -15.1793   20.3791 N   0  0  0  0  0  0
  -31.8199  -14.6398   20.0968 O   0  0  0  0  0  0
  -21.6669   -6.8830   21.4225 O   0  0  0  0  0  0
  -22.3496  -14.5413   20.6591 O   0  0  0  0  0  0
  -24.6078  -31.8717   23.2124 C   0  0  0  0  0  0
  -25.9018  -32.4830   23.8374 C   0  0  1  0  0  0
  -27.2482  -27.4937   20.0810 C   0  0  0  0  0  0
  -25.5913  -33.8622   24.2305 N   0  0  0  0  0  0
  -23.3913  -30.4976   21.5488 C   0  0  2  0  0  0
  -24.8426  -28.9623   20.1199 C   0  0  0  0  0  0
  -22.7355  -29.4693   22.4970 C   0  0  0  0  0  0
  -18.0261  -28.1370   22.8479 C   0  0  0  0  0  0
  -24.1495  -36.7316   23.2622 C   0  0  0  0  0  0
  -25.9143  -30.8543   21.3580 C   0  0  0  0  0  0
  -25.9968  -29.4897   20.7130 C   0  0  0  0  0  0
  -27.2022  -28.7609   20.6962 C   0  0  0  0  0  0
  -26.0823  -26.9626   19.4932 C   0  0  0  0  0  0
  -24.8774  -27.6925   19.5126 C   0  0  0  0  0  0
  -23.6000  -29.8236   20.1652 C   0  0  0  0  0  0
  -25.4116  -36.3093   24.0306 C   0  0  1  0  0  0
  -20.5846  -28.3652   23.1319 C   0  0  2  0  0  0
  -20.6754  -26.9386   22.5424 C   0  0  0  0  0  0
  -19.5751  -26.6372   21.5209 C   0  0  0  0  0  0
  -18.1919  -26.7915   22.1613 C   0  0  0  0  0  0
  -19.1508  -28.8830   23.2905 C   0  0  0  0  0  0
  -18.9442  -30.1433   23.8923 C   0  0  0  0  0  0
  -17.6456  -30.6577   24.0563 C   0  0  0  0  0  0
  -25.9046  -34.9476   23.5094 C   0  0  0  0  0  0
  -16.5345  -29.9083   23.6313 C   0  0  0  0  0  0
  -16.7260  -28.6500   23.0329 C   0  0  0  0  0  0
  -26.4483  -31.6590   25.0674 C   0  0  0  0  0  0
  -25.3771  -31.3721   26.1437 C   0  0  0  0  0  0
  -27.0275  -30.3018   24.6019 C   0  0  0  0  0  0
  -27.6071  -32.4288   25.7436 C   0  0  0  0  0  0
  -27.5581  -37.1808   24.8447 C   0  0  0  0  0  0
  -21.4095  -29.3042   22.3721 N   0  0  0  0  0  0
  -26.4299  -37.3781   23.9387 N   0  0  0  0  0  0
  -24.6550  -31.0872   22.0983 N   0  0  0  0  0  0
  -23.4159  -28.8221   23.2984 O   0  0  0  0  0  0
  -28.4369  -26.8208   19.9992 O   0  0  0  0  0  0
  -26.5597  -34.8934   22.4643 O   0  0  0  0  0  0
  -23.5305  -32.1441   23.7572 O   0  0  0  0  0  0
  -28.2760  -24.0669   19.2872 C   0  0  0  0  0  0
  -27.9312  -22.7470   18.9380 C   0  0  0  0  0  0
  -28.0657  -23.5080   21.6417 C   0  0  0  0  0  0
  -28.3230  -24.4596   20.6405 C   0  0  0  0  0  0
  -27.7366  -22.1814   21.3032 C   0  0  0  0  0  0
  -27.6525  -21.7893   19.9463 C   0  0  0  0  0  0
  -25.8099  -19.9537   23.8647 C   0  0  0  0  0  0
  -27.5006  -21.1790   22.4202 C   0  0  0  0  0  0
  -28.6723  -25.8825   21.0394 C   0  0  0  0  0  0
  -26.0144  -20.9804   22.7445 C   0  0  0  0  0  0
  -30.4079  -16.7733   21.3411 C   0  0  0  0  0  0
  -30.3122  -17.5130   19.9787 C   0  0  0  0  0  0
  -29.1096  -19.2983   18.7027 C   0  0  0  0  0  0
  -27.6809  -19.8333   18.5054 C   0  0  0  0  0  0
  -30.0355  -15.3608   21.2437 N   0  0  0  0  0  0
  -29.2044  -18.4915   19.9444 N   0  3  0  0  0  0
  -27.2564  -20.4931   19.6956 O   0  0  0  0  0  0
  -31.4687  -12.3662   19.1165 H   0  0  0  0  0  0
  -30.3176  -11.2548   19.7996 H   0  0  0  0  0  0
  -29.7184  -11.7760   17.4136 H   0  0  0  0  0  0
  -29.6915  -13.4838   17.7715 H   0  0  0  0  0  0
  -27.7830  -11.3308   18.7559 H   0  0  0  0  0  0
  -27.3746  -12.7172   17.7804 H   0  0  0  0  0  0
  -27.7204  -14.2535   19.6204 H   0  0  0  0  0  0
  -28.6789  -11.8933   21.3069 H   0  0  0  0  0  0
  -28.4762  -13.5112   21.8978 H   0  0  0  0  0  0
  -25.2783   -9.5600   22.4797 H   0  0  0  0  0  0
  -24.0035   -7.4568   22.7490 H   0  0  0  0  0  0
  -21.0850   -8.8732   19.8983 H   0  0  0  0  0  0
  -22.3640  -10.9674   19.6264 H   0  0  0  0  0  0
  -21.1956   -7.6112   23.9668 H   0  0  0  0  0  0
  -21.1527   -6.0541   25.9079 H   0  0  0  0  0  0
  -22.0608   -2.7571   23.2897 H   0  0  0  0  0  0
  -22.4107  -11.9888   22.4920 H   0  0  0  0  0  0
  -21.1153  -13.1257   22.2681 H   0  0  0  0  0  0
  -24.6131  -15.7933   20.3725 H   0  0  0  0  0  0
  -26.1998  -15.5563   19.8560 H   0  0  0  0  0  0
  -26.7078  -32.5581   23.1146 H   0  0  0  0  0  0
  -25.0106  -33.9787   25.0476 H   0  0  0  0  0  0
  -22.6770  -31.3115   21.4096 H   0  0  0  0  0  0
  -23.3746  -35.9670   23.3318 H   0  0  0  0  0  0
  -24.3586  -36.8906   22.2031 H   0  0  0  0  0  0
  -23.7294  -37.6534   23.6641 H   0  0  0  0  0  0
  -26.0212  -31.6236   20.5907 H   0  0  0  0  0  0
  -26.8044  -30.9113   21.9723 H   0  0  0  0  0  0
  -28.1007  -29.1757   21.1334 H   0  0  0  0  0  0
  -26.1174  -25.9964   19.0077 H   0  0  0  0  0  0
  -23.9898  -27.2792   19.0564 H   0  0  0  0  0  0
  -23.7039  -30.5972   19.4029 H   0  0  0  0  0  0
  -22.7250  -29.2398   19.8686 H   0  0  0  0  0  0
  -25.1311  -36.1930   25.0798 H   0  0  0  0  0  0
  -20.9976  -28.3252   24.1428 H   0  0  0  0  0  0
  -20.5624  -26.2280   23.3622 H   0  0  0  0  0  0
  -21.6629  -26.7412   22.1246 H   0  0  0  0  0  0
  -19.6919  -25.6285   21.1234 H   0  0  0  0  0  0
  -19.6697  -27.3185   20.6743 H   0  0  0  0  0  0
  -17.4187  -26.6658   21.4009 H   0  0  0  0  0  0
  -18.0327  -26.0036   22.8996 H   0  0  0  0  0  0
  -19.7922  -30.7221   24.2315 H   0  0  0  0  0  0
  -17.5014  -31.6258   24.5149 H   0  0  0  0  0  0
  -15.5350  -30.3008   23.7608 H   0  0  0  0  0  0
  -15.8652  -28.0836   22.7037 H   0  0  0  0  0  0
  -24.5964  -30.7023   25.7812 H   0  0  0  0  0  0
  -24.8950  -32.2894   26.4818 H   0  0  0  0  0  0
  -25.8159  -30.8959   27.0213 H   0  0  0  0  0  0
  -26.2770  -29.6780   24.1143 H   0  0  0  0  0  0
  -27.4110  -29.7256   25.4447 H   0  0  0  0  0  0
  -27.8595  -30.4301   23.9091 H   0  0  0  0  0  0
  -27.2695  -33.3567   26.2069 H   0  0  0  0  0  0
  -28.3882  -32.6872   25.0270 H   0  0  0  0  0  0
  -28.0748  -31.8367   26.5311 H   0  0  0  0  0  0
  -28.2599  -38.0098   24.7472 H   0  0  0  0  0  0
  -28.1078  -36.2632   24.6307 H   0  0  0  0  0  0
  -27.2295  -37.1488   25.8846 H   0  0  0  0  0  0
  -20.9224  -29.8772   21.6959 H   0  0  0  0  0  0
  -26.0178  -38.2851   24.1401 H   0  0  0  0  0  0
  -28.4814  -24.7867   18.5080 H   0  0  0  0  0  0
  -27.8612  -22.5160   17.8850 H   0  0  0  0  0  0
  -28.1198  -23.8062   22.6796 H   0  0  0  0  0  0
  -24.7542  -19.8439   24.1135 H   0  0  0  0  0  0
  -26.3381  -20.2543   24.7696 H   0  0  0  0  0  0
  -26.1865  -18.9718   23.5698 H   0  0  0  0  0  0
  -28.0306  -21.5150   23.3137 H   0  0  0  0  0  0
  -27.9616  -20.2279   22.1517 H   0  0  0  0  0  0
  -29.7313  -25.9188   21.2932 H   0  0  0  0  0  0
  -28.1346  -26.1548   21.9505 H   0  0  0  0  0  0
  -25.5715  -21.9353   23.0365 H   0  0  0  0  0  0
  -25.4802  -20.6508   21.8519 H   0  0  0  0  0  0
  -29.7971  -17.2506   22.1088 H   0  0  0  0  0  0
  -31.4339  -16.8251   21.7099 H   0  0  0  0  0  0
  -30.2021  -16.8152   19.1491 H   0  0  0  0  0  0
  -31.2461  -18.0479   19.7951 H   0  0  0  0  0  0
  -29.8246  -20.1220   18.7463 H   0  0  0  0  0  0
  -29.3787  -18.6968   17.8337 H   0  0  0  0  0  0
  -27.0016  -18.9949   18.3507 H   0  0  0  0  0  0
  -27.5967  -20.4412   17.6061 H   0  0  0  0  0  0
  -29.1400  -15.0848   21.6200 H   0  0  0  0  0  0
  -29.2953  -19.1290   20.7208 H   0  0  0  0  0  0
  -28.3364  -17.9898   20.0617 H   0  0  0  0  0  0
  1 25  1  0  0  0
  1 30  2  0  0  0
  1 85  1  0  0  0
  2  3  1  0  0  0
  2 25  1  0  0  0
  2 88  1  0  0  0
  2 89  1  0  0  0
  3  4  1  0  0  0
  3 90  1  0  0  0
  3 91  1  0  0  0
  4  5  1  0  0  0
  4 92  1  0  0  0
  4 93  1  0  0  0
  5  6  1  0  0  0
  5 26  1  0  0  0
  5 94  1  0  0  0
  6 25  1  0  0  0
  6 95  1  0  0  0
  6 96  1  0  0  0
  7  8  2  0  0  0
  7 26  1  0  0  0
  7 29  1  0  0  0
  8  9  1  0  0  0
  8 22  1  0  0  0
  9 10  1  0  0  0
  9 27  2  0  0  0
 10 11  2  0  0  0
 10 15  1  0  0  0
 11 12  1  0  0  0
 11 97  1  0  0  0
 12 13  2  0  0  0
 12 98  1  0  0  0
 13 14  1  0  0  0
 13 31  1  0  0  0
 14 15  2  0  0  0
 14 99  1  0  0  0
 15100  1  0  0  0
 16 17  2  0  0  0
 16 21  1  0  0  0
 16 31  1  0  0  0
 17 18  1  0  0  0
 17101  1  0  0  0
 18 19  2  0  0  0
 18102  1  0  0  0
 19 20  1  0  0  0
 19 24  1  0  0  0
 20 21  2  0  0  0
 20103  1  0  0  0
 21 23  1  0  0  0
 22 28  1  0  0  0
 22 32  2  0  0  0
 26 27  1  0  0  0
 28104  1  0  0  0
 28105  1  0  0  0
 29106  1  0  0  0
 29107  1  0  0  0
 33 34  1  0  0  0
 33 66  1  0  0  0
 33 70  2  0  0  0
 34 36  1  0  0  0
 34 59  1  0  0  0
 34108  1  0  0  0
 35 44  2  0  0  0
 35 45  1  0  0  0
 35 68  1  0  0  0
 36 56  1  0  0  0
 36109  1  0  0  0
 37 39  1  0  0  0
 37 47  1  0  0  0
 37 66  1  0  0  0
 37110  1  0  0  0
 38 43  2  0  0  0
 38 46  1  0  0  0
 38 47  1  0  0  0
 39 64  1  0  0  0
 39 67  2  0  0  0
 40 52  1  0  0  0
 40 53  2  0  0  0
 40 58  1  0  0  0
 41111  1  0  0  0
 41112  1  0  0  0
 41113  1  0  0  0
 41 48  1  0  0  0
 42 43  1  0  0  0
 42 66  1  0  0  0
 42114  1  0  0  0
 42115  1  0  0  0
 43 44  1  0  0  0
 44116  1  0  0  0
 45 46  2  0  0  0
 45117  1  0  0  0
 46118  1  0  0  0
 47119  1  0  0  0
 47120  1  0  0  0
 48 56  1  0  0  0
 48 65  1  0  0  0
 48121  1  0  0  0
 49 50  1  0  0  0
 49 53  1  0  0  0
 49 64  1  0  0  0
 49122  1  0  0  0
 50 51  1  0  0  0
 50123  1  0  0  0
 50124  1  0  0  0
 51 52  1  0  0  0
 51125  1  0  0  0
 51126  1  0  0  0
 52127  1  0  0  0
 52128  1  0  0  0
 53 54  1  0  0  0
 54 55  2  0  0  0
 54129  1  0  0  0
 55 57  1  0  0  0
 55130  1  0  0  0
 56 69  2  0  0  0
 57 58  2  0  0  0
 57131  1  0  0  0
 58132  1  0  0  0
 59 60  1  0  0  0
 59 61  1  0  0  0
 59 62  1  0  0  0
 60133  1  0  0  0
 60134  1  0  0  0
 60135  1  0  0  0
 61136  1  0  0  0
 61137  1  0  0  0
 61138  1  0  0  0
 62139  1  0  0  0
 62140  1  0  0  0
 62141  1  0  0  0
 63 65  1  0  0  0
 63142  1  0  0  0
 63143  1  0  0  0
 63144  1  0  0  0
 64145  1  0  0  0
 65146  1  0  0  0
 68 79  1  0  0  0
 71 72  2  0  0  0
 71 74  1  0  0  0
 71147  1  0  0  0
 72 76  1  0  0  0
 72148  1  0  0  0
 73 74  2  0  0  0
 73 75  1  0  0  0
 73149  1  0  0  0
 74 79  1  0  0  0
 75 76  2  0  0  0
 75 78  1  0  0  0
 76 87  1  0  0  0
 77 80  1  0  0  0
 77150  1  0  0  0
 77151  1  0  0  0
 77152  1  0  0  0
 78 80  1  0  0  0
 78153  1  0  0  0
 78154  1  0  0  0
 79155  1  0  0  0
 79156  1  0  0  0
 80157  1  0  0  0
 80158  1  0  0  0
 81 82  1  0  0  0
 81 85  1  0  0  0
 81159  1  0  0  0
 81160  1  0  0  0
 82 86  1  0  0  0
 82161  1  0  0  0
 82162  1  0  0  0
 83 84  1  0  0  0
 83 86  1  0  0  0
 83163  1  0  0  0
 83164  1  0  0  0
 84 87  1  0  0  0
 84165  1  0  0  0
 84166  1  0  0  0
 85167  1  0  0  0
 86168  1  0  0  0
 86169  1  0  0  0
M  CHG  1  86   1
M  ISO  4   1 100  68 101  79 101  85 100
M  END
> <chiral flag>
0

> <version>
0

> <s_m_source_file>
/data/baiqing/PycharmProjects/Reinvent-master-3.2/result/LINK_invent/BTK/process_docking_weight1_custom_sum_contain_oxygen_bond_distance_aromatic_linkinvent_7_9_3/rearranged_h_0131.sdf

> <i_m_source_file_index>
18

> <r_mmod_Potential_Energy-OPLS-2005>
-193.637313842773

> <r_mmod_Stretch_Energy-OPLS-2005>
32.1347045898438

> <r_mmod_Bend_Energy-OPLS-2005>
93.7192077636719

> <r_mmod_Torsional_Energy-OPLS-2005>
283.198028564453

> <r_mmod_Improper_Torsional_Energy-OPLS-2005>
5.28617429733276

> <r_mmod_Van_der_Waal_Energy-OPLS-2005>
148.05729675293

> <r_mmod_Electrostatic_Energy-OPLS-2005>
-315.008544921875

> <r_mmod_Solvation_Energy-OPLS-2005>
-449.120544433594

> <b_mmod_Minimization_Converged-OPLS-2005>
0

> <r_mmod_RMS_Derivative-OPLS-2005>
3.96203207969666

$$$$
18
                    3D
 Structure written by MMmdl.
168176  0  0  1  0            999 V2000
  -30.6540  -14.4323   20.5412 C   0  0  0  0  0  0
  -30.4302  -12.2691   19.4032 C   0  0  0  0  0  0
  -29.4954  -12.4964   18.1937 C   0  0  0  0  0  0
  -28.0097  -12.3690   18.5989 C   0  0  0  0  0  0
  -27.6648  -13.1874   19.8727 C   0  0  2  0  0  0
  -28.7059  -12.9148   20.9875 C   0  0  0  0  0  0
  -25.2635  -13.8122   20.5635 C   0  0  0  0  0  0
  -24.1863  -13.0425   20.9140 C   0  0  0  0  0  0
  -24.6398  -11.6888   20.8670 C   0  0  0  0  0  0
  -23.9035  -10.4288   21.0351 C   0  0  0  0  0  0
  -24.3616   -9.4216   21.9148 C   0  0  0  0  0  0
  -23.6314   -8.2241   22.0718 C   0  0  0  0  0  0
  -22.4297   -8.0271   21.3512 C   0  0  0  0  0  0
  -21.9909   -9.0250   20.4626 C   0  0  0  0  0  0
  -22.7197  -10.2153   20.3018 C   0  0  0  0  0  0
  -21.6890   -6.0722   22.5272 C   0  0  0  0  0  0
  -21.4020   -6.5626   23.8197 C   0  0  0  0  0  0
  -21.3650   -5.6786   24.9164 C   0  0  0  0  0  0
  -21.6042   -4.3033   24.7230 C   0  0  0  0  0  0
  -21.8821   -3.8133   23.4348 C   0  0  0  0  0  0
  -21.9207   -4.6949   22.3403 C   0  0  0  0  0  0
  -22.7892  -13.5237   21.1839 C   0  0  0  0  0  0
  -22.1648   -4.2097   21.0980 F   0  0  0  0  0  0
  -21.5649   -3.4528   25.7750 F   0  0  0  0  0  0
  -30.0414  -13.2264   20.4473 N   0  0  0  0  0  0
  -26.3046  -12.9257   20.3335 N   0  0  0  0  0  0
  -25.9296  -11.6414   20.5679 N   0  0  0  0  0  0
  -22.0565  -12.8226   22.0419 N   0  0  0  0  0  0
  -25.4441  -15.1861   20.3958 N   0  0  0  0  0  0
  -31.7751  -14.6818   20.0903 O   0  0  0  0  0  0
  -21.6665   -6.8871   21.4220 O   0  0  0  0  0  0
  -22.3547  -14.5538   20.6689 O   0  0  0  0  0  0
  -24.6087  -31.8715   23.2132 C   0  0  0  0  0  0
  -25.8998  -32.4849   23.8415 C   0  0  1  0  0  0
  -27.2520  -27.4758   20.1010 C   0  0  0  0  0  0
  -25.5894  -33.8652   24.2342 N   0  0  0  0  0  0
  -23.3968  -30.4915   21.5524 C   0  0  2  0  0  0
  -24.8477  -28.9579   20.1220 C   0  0  0  0  0  0
  -22.7396  -29.4647   22.5021 C   0  0  0  0  0  0
  -18.0260  -28.1360   22.8492 C   0  0  0  0  0  0
  -24.1492  -36.7335   23.2643 C   0  0  0  0  0  0
  -25.9169  -30.8501   21.3591 C   0  0  0  0  0  0
  -25.9995  -29.4825   20.7200 C   0  0  0  0  0  0
  -27.2019  -28.7479   20.7190 C   0  0  0  0  0  0
  -26.0868  -26.9616   19.4974 C   0  0  0  0  0  0
  -24.8821  -27.6908   19.5126 C   0  0  0  0  0  0
  -23.6073  -29.8200   20.1677 C   0  0  0  0  0  0
  -25.4112  -36.3134   24.0341 C   0  0  1  0  0  0
  -20.5846  -28.3633   23.1356 C   0  0  2  0  0  0
  -20.6745  -26.9378   22.5438 C   0  0  0  0  0  0
  -19.5733  -26.6374   21.5219 C   0  0  0  0  0  0
  -18.1904  -26.7915   22.1619 C   0  0  0  0  0  0
  -19.1509  -28.8811   23.2914 C   0  0  0  0  0  0
  -18.9430  -30.1428   23.8911 C   0  0  0  0  0  0
  -17.6442  -30.6577   24.0551 C   0  0  0  0  0  0
  -25.9035  -34.9501   23.5130 C   0  0  0  0  0  0
  -16.5336  -29.9088   23.6313 C   0  0  0  0  0  0
  -16.7253  -28.6500   23.0340 C   0  0  0  0  0  0
  -26.4457  -31.6621   25.0722 C   0  0  0  0  0  0
  -25.3756  -31.3741   26.1506 C   0  0  0  0  0  0
  -27.0237  -30.3060   24.6037 C   0  0  0  0  0  0
  -27.6051  -32.4335   25.7462 C   0  0  0  0  0  0
  -27.5599  -37.1814   24.8456 C   0  0  0  0  0  0
  -21.4126  -29.3013   22.3773 N   0  0  0  0  0  0
  -26.4301  -37.3817   23.9419 N   0  0  0  0  0  0
  -24.6585  -31.0860   22.1007 N   0  0  0  0  0  0
  -23.4201  -28.8194   23.3036 O   0  0  0  0  0  0
  -28.3818  -26.6938   20.0354 O   0  0  0  0  0  0
  -26.5576  -34.8941   22.4678 O   0  0  0  0  0  0
  -23.5287  -32.1431   23.7553 O   0  0  0  0  0  0
  -31.8304  -21.8794   20.1027 C   0  0  0  0  0  0
  -31.4910  -23.2194   20.3520 C   0  0  0  0  0  0
  -30.4149  -21.1664   21.9391 C   0  0  0  0  0  0
  -31.3067  -20.8279   20.8875 C   0  0  0  0  0  0
  -30.0483  -22.5122   22.1772 C   0  0  0  0  0  0
  -30.5732  -23.5494   21.3758 C   0  0  0  0  0  0
  -33.1699  -19.1862   20.1943 C   0  0  0  0  0  0
  -28.0052  -22.0336   23.4523 C   0  0  0  0  0  0
  -29.8184  -16.7704   20.3849 C   0  0  0  0  0  0
  -29.9354  -17.8539   21.4742 C   0  0  0  0  0  0
  -29.4820  -27.0198   20.8789 C   0  0  0  0  0  0
  -30.5138  -25.8918   20.7684 C   0  0  0  0  0  0
  -31.6790  -19.3738   20.5344 C   0  0  1  0  0  0
  -29.1655  -22.8786   23.2033 N   0  0  0  0  0  0
  -29.8218  -15.4101   20.9286 N   0  0  0  0  0  0
  -31.3108  -18.3839   21.5722 N   0  3  0  0  0  0
  -30.1293  -24.8312   21.6385 O   0  0  0  0  0  0
  -31.4755  -12.3817   19.1043 H   0  0  0  0  0  0
  -30.3386  -11.2460   19.7733 H   0  0  0  0  0  0
  -29.7338  -11.7790   17.4052 H   0  0  0  0  0  0
  -29.6738  -13.4837   17.7626 H   0  0  0  0  0  0
  -27.7985  -11.3117   18.7653 H   0  0  0  0  0  0
  -27.3688  -12.6724   17.7690 H   0  0  0  0  0  0
  -27.7220  -14.2403   19.5932 H   0  0  0  0  0  0
  -28.6713  -11.8628   21.2777 H   0  0  0  0  0  0
  -28.4785  -13.4741   21.8958 H   0  0  0  0  0  0
  -25.2773   -9.5729   22.4688 H   0  0  0  0  0  0
  -24.0042   -7.4636   22.7453 H   0  0  0  0  0  0
  -21.0815   -8.8752   19.8969 H   0  0  0  0  0  0
  -22.3611  -10.9682   19.6127 H   0  0  0  0  0  0
  -21.1979   -7.6139   23.9671 H   0  0  0  0  0  0
  -21.1483   -6.0521   25.9066 H   0  0  0  0  0  0
  -22.0614   -2.7588   23.2871 H   0  0  0  0  0  0
  -22.4234  -11.9890   22.4767 H   0  0  0  0  0  0
  -21.1179  -13.1214   22.2660 H   0  0  0  0  0  0
  -24.6803  -15.8464   20.4707 H   0  0  0  0  0  0
  -26.2902  -15.6054   20.0283 H   0  0  0  0  0  0
  -26.7070  -32.5599   23.1192 H   0  0  0  0  0  0
  -25.0053  -33.9823   25.0490 H   0  0  0  0  0  0
  -22.6825  -31.3057   21.4148 H   0  0  0  0  0  0
  -23.3759  -35.9666   23.3301 H   0  0  0  0  0  0
  -24.3581  -36.8946   22.2059 H   0  0  0  0  0  0
  -23.7232  -37.6541   23.6639 H   0  0  0  0  0  0
  -26.0153  -31.6101   20.5826 H   0  0  0  0  0  0
  -26.8092  -30.9141   21.9690 H   0  0  0  0  0  0
  -28.0763  -29.1782   21.1840 H   0  0  0  0  0  0
  -26.1161  -25.9923   19.0167 H   0  0  0  0  0  0
  -23.9963  -27.2778   19.0490 H   0  0  0  0  0  0
  -23.7230  -30.5930   19.4076 H   0  0  0  0  0  0
  -22.7315  -29.2406   19.8686 H   0  0  0  0  0  0
  -25.1280  -36.2001   25.0834 H   0  0  0  0  0  0
  -20.9932  -28.3175   24.1485 H   0  0  0  0  0  0
  -20.5636  -26.2238   23.3617 H   0  0  0  0  0  0
  -21.6625  -26.7417   22.1253 H   0  0  0  0  0  0
  -19.6901  -25.6289   21.1240 H   0  0  0  0  0  0
  -19.6691  -27.3191   20.6752 H   0  0  0  0  0  0
  -17.4195  -26.6678   21.3995 H   0  0  0  0  0  0
  -18.0284  -26.0044   22.9003 H   0  0  0  0  0  0
  -19.7913  -30.7208   24.2317 H   0  0  0  0  0  0
  -17.5006  -31.6266   24.5160 H   0  0  0  0  0  0
  -15.5328  -30.2992   23.7627 H   0  0  0  0  0  0
  -15.8667  -28.0829   22.7035 H   0  0  0  0  0  0
  -24.5870  -30.7144   25.7867 H   0  0  0  0  0  0
  -24.9024  -32.2913   26.5026 H   0  0  0  0  0  0
  -25.8141  -30.8860   27.0217 H   0  0  0  0  0  0
  -26.2721  -29.6873   24.1114 H   0  0  0  0  0  0
  -27.4027  -29.7247   25.4451 H   0  0  0  0  0  0
  -27.8567  -30.4367   23.9124 H   0  0  0  0  0  0
  -27.2660  -33.3606   26.2092 H   0  0  0  0  0  0
  -28.3827  -32.6949   25.0274 H   0  0  0  0  0  0
  -28.0760  -31.8440   26.5333 H   0  0  0  0  0  0
  -28.2614  -38.0118   24.7522 H   0  0  0  0  0  0
  -28.1085  -36.2646   24.6231 H   0  0  0  0  0  0
  -27.2320  -37.1437   25.8860 H   0  0  0  0  0  0
  -20.9285  -29.8770   21.7029 H   0  0  0  0  0  0
  -26.0191  -38.2896   24.1429 H   0  0  0  0  0  0
  -32.4969  -21.6753   19.2776 H   0  0  0  0  0  0
  -31.9481  -23.9714   19.7287 H   0  0  0  0  0  0
  -29.9947  -20.4003   22.5727 H   0  0  0  0  0  0
  -33.4756  -19.7711   19.3294 H   0  0  0  0  0  0
  -33.3844  -18.1500   19.9345 H   0  0  0  0  0  0
  -33.8072  -19.4667   21.0330 H   0  0  0  0  0  0
  -27.2412  -22.5975   23.9903 H   0  0  0  0  0  0
  -28.2685  -21.1697   24.0631 H   0  0  0  0  0  0
  -27.5587  -21.6812   22.5215 H   0  0  0  0  0  0
  -30.5558  -16.8950   19.5907 H   0  0  0  0  0  0
  -28.8607  -16.9006   19.8789 H   0  0  0  0  0  0
  -29.6046  -17.4689   22.4401 H   0  0  0  0  0  0
  -29.2553  -18.6768   21.2411 H   0  0  0  0  0  0
  -29.9301  -27.9525   20.5361 H   0  0  0  0  0  0
  -29.1679  -27.1466   21.9164 H   0  0  0  0  0  0
  -31.4991  -26.2489   21.0722 H   0  0  0  0  0  0
  -30.5685  -25.5950   19.7209 H   0  0  0  0  0  0
  -31.1259  -19.1393   19.6247 H   0  0  0  0  0  0
  -28.9821  -23.8811   23.1962 H   0  0  0  0  0  0
  -28.9521  -15.0843   21.3224 H   0  0  0  0  0  0
  -31.9335  -17.5972   21.4820 H   0  0  0  0  0  0
  -31.4792  -18.7805   22.4810 H   0  0  0  0  0  0
  1 25  1  0  0  0
  1 30  2  0  0  0
  1 85  1  0  0  0
  2  3  1  0  0  0
  2 25  1  0  0  0
  2 88  1  0  0  0
  2 89  1  0  0  0
  3  4  1  0  0  0
  3 90  1  0  0  0
  3 91  1  0  0  0
  4  5  1  0  0  0
  4 92  1  0  0  0
  4 93  1  0  0  0
  5  6  1  0  0  0
  5 26  1  0  0  0
  5 94  1  0  0  0
  6 25  1  0  0  0
  6 95  1  0  0  0
  6 96  1  0  0  0
  7  8  2  0  0  0
  7 26  1  0  0  0
  7 29  1  0  0  0
  8  9  1  0  0  0
  8 22  1  0  0  0
  9 10  1  0  0  0
  9 27  2  0  0  0
 10 11  2  0  0  0
 10 15  1  0  0  0
 11 12  1  0  0  0
 11 97  1  0  0  0
 12 13  2  0  0  0
 12 98  1  0  0  0
 13 14  1  0  0  0
 13 31  1  0  0  0
 14 15  2  0  0  0
 14 99  1  0  0  0
 15100  1  0  0  0
 16 17  2  0  0  0
 16 21  1  0  0  0
 16 31  1  0  0  0
 17 18  1  0  0  0
 17101  1  0  0  0
 18 19  2  0  0  0
 18102  1  0  0  0
 19 20  1  0  0  0
 19 24  1  0  0  0
 20 21  2  0  0  0
 20103  1  0  0  0
 21 23  1  0  0  0
 22 28  1  0  0  0
 22 32  2  0  0  0
 26 27  1  0  0  0
 28104  1  0  0  0
 28105  1  0  0  0
 29106  1  0  0  0
 29107  1  0  0  0
 33 34  1  0  0  0
 33 66  1  0  0  0
 33 70  2  0  0  0
 34 36  1  0  0  0
 34 59  1  0  0  0
 34108  1  0  0  0
 35 44  2  0  0  0
 35 45  1  0  0  0
 35 68  1  0  0  0
 36 56  1  0  0  0
 36109  1  0  0  0
 37 39  1  0  0  0
 37 47  1  0  0  0
 37 66  1  0  0  0
 37110  1  0  0  0
 38 43  2  0  0  0
 38 46  1  0  0  0
 38 47  1  0  0  0
 39 64  1  0  0  0
 39 67  2  0  0  0
 40 52  1  0  0  0
 40 53  2  0  0  0
 40 58  1  0  0  0
 41111  1  0  0  0
 41112  1  0  0  0
 41113  1  0  0  0
 41 48  1  0  0  0
 42 43  1  0  0  0
 42 66  1  0  0  0
 42114  1  0  0  0
 42115  1  0  0  0
 43 44  1  0  0  0
 44116  1  0  0  0
 45 46  2  0  0  0
 45117  1  0  0  0
 46118  1  0  0  0
 47119  1  0  0  0
 47120  1  0  0  0
 48 56  1  0  0  0
 48 65  1  0  0  0
 48121  1  0  0  0
 49 50  1  0  0  0
 49 53  1  0  0  0
 49 64  1  0  0  0
 49122  1  0  0  0
 50 51  1  0  0  0
 50123  1  0  0  0
 50124  1  0  0  0
 51 52  1  0  0  0
 51125  1  0  0  0
 51126  1  0  0  0
 52127  1  0  0  0
 52128  1  0  0  0
 53 54  1  0  0  0
 54 55  2  0  0  0
 54129  1  0  0  0
 55 57  1  0  0  0
 55130  1  0  0  0
 56 69  2  0  0  0
 57 58  2  0  0  0
 57131  1  0  0  0
 58132  1  0  0  0
 59 60  1  0  0  0
 59 61  1  0  0  0
 59 62  1  0  0  0
 60133  1  0  0  0
 60134  1  0  0  0
 60135  1  0  0  0
 61136  1  0  0  0
 61137  1  0  0  0
 61138  1  0  0  0
 62139  1  0  0  0
 62140  1  0  0  0
 62141  1  0  0  0
 63 65  1  0  0  0
 63142  1  0  0  0
 63143  1  0  0  0
 63144  1  0  0  0
 64145  1  0  0  0
 65146  1  0  0  0
 68 81  1  0  0  0
 71 72  2  0  0  0
 71 74  1  0  0  0
 71147  1  0  0  0
 72 76  1  0  0  0
 72148  1  0  0  0
 73 74  2  0  0  0
 73 75  1  0  0  0
 73149  1  0  0  0
 74 83  1  0  0  0
 75 76  2  0  0  0
 75 84  1  0  0  0
 76 87  1  0  0  0
 77150  1  0  0  0
 77151  1  0  0  0
 77152  1  0  0  0
 77 83  1  0  0  0
 78 84  1  0  0  0
 78153  1  0  0  0
 78154  1  0  0  0
 78155  1  0  0  0
 79 80  1  0  0  0
 79 85  1  0  0  0
 79156  1  0  0  0
 79157  1  0  0  0
 80 86  1  0  0  0
 80158  1  0  0  0
 80159  1  0  0  0
 81 82  1  0  0  0
 81160  1  0  0  0
 81161  1  0  0  0
 82 87  1  0  0  0
 82162  1  0  0  0
 82163  1  0  0  0
 83 86  1  0  0  0
 83164  1  0  0  0
 84165  1  0  0  0
 85166  1  0  0  0
 86167  1  0  0  0
 86168  1  0  0  0
M  CHG  1  86   1
M  ISO  4   1 100  68 101  81 101  85 100
M  END
> <chiral flag>
0

> <version>
0

> <s_m_source_file>
/data/baiqing/PycharmProjects/Reinvent-master-3.2/result/LINK_invent/BTK/process_docking_weight1_custom_sum_contain_oxygen_bond_distance_aromatic_linkinvent_7_9_3/rearranged_h_0131.sdf

> <i_m_source_file_index>
19

> <r_mmod_Potential_Energy-OPLS-2005>
-273.067230224609

> <r_mmod_Stretch_Energy-OPLS-2005>
34.9916343688965

> <r_mmod_Bend_Energy-OPLS-2005>
112.136772155762

> <r_mmod_Torsional_Energy-OPLS-2005>
252.662414550781

> <r_mmod_Improper_Torsional_Energy-OPLS-2005>
12.1323432922363

> <r_mmod_Van_der_Waal_Energy-OPLS-2005>
170.292266845703

> <r_mmod_Electrostatic_Energy-OPLS-2005>
-388.981658935547

> <r_mmod_Solvation_Energy-OPLS-2005>
-476.079742431641

> <b_mmod_Minimization_Converged-OPLS-2005>
0

> <r_mmod_RMS_Derivative-OPLS-2005>
4.25724601745605

$$$$
19
                    3D
 Structure written by MMmdl.
165173  0  0  1  0            999 V2000
  -30.7619  -14.3305   20.7734 C   0  0  0  0  0  0
  -30.4208  -12.3195   19.3703 C   0  0  0  0  0  0
  -29.4658  -12.5435   18.1795 C   0  0  0  0  0  0
  -27.9936  -12.3751   18.5938 C   0  0  0  0  0  0
  -27.6629  -13.1742   19.8725 C   0  0  2  0  0  0
  -28.6953  -12.8595   20.9718 C   0  0  0  0  0  0
  -25.2658  -13.8051   20.5667 C   0  0  0  0  0  0
  -24.1892  -13.0382   20.9225 C   0  0  0  0  0  0
  -24.6381  -11.6832   20.8796 C   0  0  0  0  0  0
  -23.9023  -10.4241   21.0467 C   0  0  0  0  0  0
  -24.3597   -9.4146   21.9230 C   0  0  0  0  0  0
  -23.6288   -8.2170   22.0744 C   0  0  0  0  0  0
  -22.4267   -8.0239   21.3523 C   0  0  0  0  0  0
  -21.9907   -9.0215   20.4626 C   0  0  0  0  0  0
  -22.7211  -10.2106   20.3079 C   0  0  0  0  0  0
  -21.6836   -6.0705   22.5265 C   0  0  0  0  0  0
  -21.3985   -6.5610   23.8200 C   0  0  0  0  0  0
  -21.3677   -5.6772   24.9176 C   0  0  0  0  0  0
  -21.6053   -4.3034   24.7232 C   0  0  0  0  0  0
  -21.8836   -3.8113   23.4356 C   0  0  0  0  0  0
  -21.9184   -4.6929   22.3404 C   0  0  0  0  0  0
  -22.7922  -13.5209   21.1816 C   0  0  0  0  0  0
  -22.1650   -4.2112   21.0986 F   0  0  0  0  0  0
  -21.5669   -3.4532   25.7757 F   0  0  0  0  0  0
  -30.0380  -13.2120   20.4844 N   0  0  0  0  0  0
  -26.3019  -12.9147   20.3318 N   0  0  0  0  0  0
  -25.9270  -11.6344   20.5749 N   0  0  0  0  0  0
  -22.0574  -12.8206   22.0388 N   0  0  0  0  0  0
  -25.4461  -15.1746   20.3962 N   0  0  0  0  0  0
  -31.7079  -14.7061   20.0781 O   0  0  0  0  0  0
  -21.6605   -6.8851   21.4222 O   0  0  0  0  0  0
  -22.3651  -14.5524   20.6634 O   0  0  0  0  0  0
  -24.6104  -31.8730   23.2113 C   0  0  0  0  0  0
  -25.9001  -32.4850   23.8381 C   0  0  1  0  0  0
  -27.2285  -27.4648   20.0910 C   0  0  0  0  0  0
  -25.5858  -33.8645   24.2319 N   0  0  0  0  0  0
  -23.3943  -30.4961   21.5541 C   0  0  2  0  0  0
  -24.8419  -28.9587   20.1226 C   0  0  0  0  0  0
  -22.7365  -29.4684   22.5020 C   0  0  0  0  0  0
  -18.0284  -28.1297   22.8576 C   0  0  0  0  0  0
  -24.1486  -36.7336   23.2642 C   0  0  0  0  0  0
  -25.9214  -30.8422   21.3620 C   0  0  0  0  0  0
  -26.0000  -29.4746   20.7212 C   0  0  0  0  0  0
  -27.2003  -28.7309   20.7140 C   0  0  0  0  0  0
  -26.0668  -26.9662   19.4709 C   0  0  0  0  0  0
  -24.8684  -27.6990   19.4988 C   0  0  0  0  0  0
  -23.6002  -29.8239   20.1699 C   0  0  0  0  0  0
  -25.4097  -36.3114   24.0330 C   0  0  1  0  0  0
  -20.5892  -28.3609   23.1353 C   0  0  2  0  0  0
  -20.6788  -26.9357   22.5438 C   0  0  0  0  0  0
  -19.5730  -26.6376   21.5269 C   0  0  0  0  0  0
  -18.1964  -26.7819   22.1776 C   0  0  0  0  0  0
  -19.1553  -28.8745   23.2943 C   0  0  0  0  0  0
  -18.9467  -30.1377   23.8894 C   0  0  0  0  0  0
  -17.6489  -30.6541   24.0500 C   0  0  0  0  0  0
  -25.9027  -34.9485   23.5106 C   0  0  0  0  0  0
  -16.5365  -29.9042   23.6269 C   0  0  0  0  0  0
  -16.7282  -28.6416   23.0396 C   0  0  0  0  0  0
  -26.4442  -31.6609   25.0697 C   0  0  0  0  0  0
  -25.3726  -31.3705   26.1454 C   0  0  0  0  0  0
  -27.0259  -30.3040   24.6047 C   0  0  0  0  0  0
  -27.6008  -32.4322   25.7480 C   0  0  0  0  0  0
  -27.5571  -37.1820   24.8463 C   0  0  0  0  0  0
  -21.4098  -29.3024   22.3769 N   0  0  0  0  0  0
  -26.4294  -37.3776   23.9402 N   0  0  0  0  0  0
  -24.6599  -31.0829   22.1025 N   0  0  0  0  0  0
  -23.4129  -28.8206   23.3031 O   0  0  0  0  0  0
  -28.3768  -26.7209   20.0321 O   0  0  0  0  0  0
  -26.5609  -34.8925   22.4696 O   0  0  0  0  0  0
  -23.5289  -32.1504   23.7522 O   0  0  0  0  0  0
  -27.0533  -19.6735   23.7040 C   0  0  0  0  0  0
  -26.1970  -20.2019   21.4833 C   0  0  0  0  0  0
  -27.0254  -21.0421   24.0347 C   0  0  0  0  0  0
  -26.1792  -21.5708   21.8145 C   0  0  0  0  0  0
  -26.6388  -19.2431   22.4218 C   0  0  0  0  0  0
  -26.5970  -21.9993   23.0909 C   0  0  0  0  0  0
  -26.5886  -17.7686   22.0356 C   0  0  0  0  0  0
  -26.6007  -23.4798   23.4413 C   0  0  0  0  0  0
  -29.5510  -15.3972   22.7907 C   0  0  0  0  0  0
  -28.5966  -16.2907   21.9604 C   0  0  0  0  0  0
  -27.3706  -25.2316   21.8395 C   0  0  0  0  0  0
  -28.6074  -25.7801   21.0890 C   0  0  0  0  0  0
  -30.6716  -14.8196   22.0283 N   0  0  0  0  0  0
  -27.5252  -16.8996   22.7831 N   0  3  0  0  0  0
  -27.7361  -24.1459   22.7779 N   0  3  0  0  0  0
  -31.4483  -12.4776   19.0398 H   0  0  0  0  0  0
  -30.3859  -11.2797   19.6993 H   0  0  0  0  0  0
  -29.6997  -11.8518   17.3695 H   0  0  0  0  0  0
  -29.6092  -13.5458   17.7727 H   0  0  0  0  0  0
  -27.7946  -11.3157   18.7554 H   0  0  0  0  0  0
  -27.3341  -12.6845   17.7811 H   0  0  0  0  0  0
  -27.7326  -14.2264   19.6092 H   0  0  0  0  0  0
  -28.6746  -11.7893   21.1924 H   0  0  0  0  0  0
  -28.4009  -13.3202   21.9017 H   0  0  0  0  0  0
  -25.2760   -9.5598   22.4812 H   0  0  0  0  0  0
  -23.9996   -7.4511   22.7425 H   0  0  0  0  0  0
  -21.0863   -8.8734   19.8900 H   0  0  0  0  0  0
  -22.3694  -10.9660   19.6199 H   0  0  0  0  0  0
  -21.1944   -7.6120   23.9694 H   0  0  0  0  0  0
  -21.1499   -6.0510   25.9087 H   0  0  0  0  0  0
  -22.0612   -2.7572   23.2862 H   0  0  0  0  0  0
  -22.4198  -11.9860   22.4753 H   0  0  0  0  0  0
  -21.1169  -13.1174   22.2556 H   0  0  0  0  0  0
  -24.5836  -15.6986   20.2886 H   0  0  0  0  0  0
  -26.1165  -15.4245   19.6803 H   0  0  0  0  0  0
  -26.7098  -32.5577   23.1162 H   0  0  0  0  0  0
  -24.9936  -33.9823   25.0407 H   0  0  0  0  0  0
  -22.6820  -31.3121   21.4174 H   0  0  0  0  0  0
  -23.3716  -35.9703   23.3328 H   0  0  0  0  0  0
  -24.3579  -36.8944   22.2058 H   0  0  0  0  0  0
  -23.7285  -37.6559   23.6651 H   0  0  0  0  0  0
  -26.0227  -31.6018   20.5847 H   0  0  0  0  0  0
  -26.8135  -30.9055   21.9727 H   0  0  0  0  0  0
  -28.0936  -29.1299   21.1689 H   0  0  0  0  0  0
  -26.0898  -26.0084   18.9719 H   0  0  0  0  0  0
  -23.9807  -27.2959   19.0312 H   0  0  0  0  0  0
  -23.7019  -30.5940   19.4041 H   0  0  0  0  0  0
  -22.7239  -29.2370   19.8813 H   0  0  0  0  0  0
  -25.1279  -36.1978   25.0818 H   0  0  0  0  0  0
  -20.9968  -28.3155   24.1484 H   0  0  0  0  0  0
  -20.5752  -26.2227   23.3665 H   0  0  0  0  0  0
  -21.6604  -26.7351   22.1174 H   0  0  0  0  0  0
  -19.6824  -25.6311   21.1269 H   0  0  0  0  0  0
  -19.6638  -27.3212   20.6817 H   0  0  0  0  0  0
  -17.4204  -26.6513   21.4248 H   0  0  0  0  0  0
  -18.0420  -26.0033   22.9242 H   0  0  0  0  0  0
  -19.7961  -30.7188   24.2242 H   0  0  0  0  0  0
  -17.5067  -31.6247   24.5058 H   0  0  0  0  0  0
  -15.5380  -30.2998   23.7493 H   0  0  0  0  0  0
  -15.8652  -28.0692   22.7206 H   0  0  0  0  0  0
  -24.5875  -30.7089   25.7797 H   0  0  0  0  0  0
  -24.8945  -32.2867   26.4918 H   0  0  0  0  0  0
  -25.8094  -30.8831   27.0181 H   0  0  0  0  0  0
  -26.2775  -29.6824   24.1112 H   0  0  0  0  0  0
  -27.4048  -29.7230   25.4475 H   0  0  0  0  0  0
  -27.8604  -30.4335   23.9142 H   0  0  0  0  0  0
  -27.2570  -33.3581   26.2097 H   0  0  0  0  0  0
  -28.3796  -32.6963   25.0313 H   0  0  0  0  0  0
  -28.0690  -31.8436   26.5383 H   0  0  0  0  0  0
  -28.2599  -38.0104   24.7458 H   0  0  0  0  0  0
  -28.1048  -36.2629   24.6331 H   0  0  0  0  0  0
  -27.2285  -37.1514   25.8867 H   0  0  0  0  0  0
  -20.9253  -29.8693   21.6959 H   0  0  0  0  0  0
  -26.0187  -38.2863   24.1370 H   0  0  0  0  0  0
  -27.3852  -18.9719   24.4558 H   0  0  0  0  0  0
  -25.8504  -19.8891   20.5056 H   0  0  0  0  0  0
  -27.3277  -21.3475   25.0300 H   0  0  0  0  0  0
  -25.8321  -22.2881   21.0835 H   0  0  0  0  0  0
  -26.7811  -17.6900   20.9645 H   0  0  0  0  0  0
  -25.5677  -17.4193   22.1911 H   0  0  0  0  0  0
  -26.6942  -23.6001   24.5233 H   0  0  0  0  0  0
  -25.6462  -23.9359   23.1732 H   0  0  0  0  0  0
  -29.0190  -14.6238   23.3418 H   0  0  0  0  0  0
  -29.9954  -16.0025   23.5831 H   0  0  0  0  0  0
  -28.1250  -15.6964   21.1809 H   0  0  0  0  0  0
  -29.1596  -17.0800   21.4626 H   0  0  0  0  0  0
  -26.6412  -24.8429   21.1314 H   0  0  0  0  0  0
  -26.8769  -26.0338   22.3930 H   0  0  0  0  0  0
  -29.1298  -24.9423   20.6206 H   0  0  0  0  0  0
  -29.3057  -26.2307   21.7940 H   0  0  0  0  0  0
  -31.5360  -15.2809   22.2724 H   0  0  0  0  0  0
  -27.9148  -17.4268   23.5463 H   0  0  0  0  0  0
  -26.9666  -16.1553   23.1691 H   0  0  0  0  0  0
  -28.2374  -23.4252   22.2843 H   0  0  0  0  0  0
  -28.3541  -24.4990   23.4915 H   0  0  0  0  0  0
  1 25  1  0  0  0
  1 30  2  0  0  0
  1 83  1  0  0  0
  2  3  1  0  0  0
  2 25  1  0  0  0
  2 86  1  0  0  0
  2 87  1  0  0  0
  3  4  1  0  0  0
  3 88  1  0  0  0
  3 89  1  0  0  0
  4  5  1  0  0  0
  4 90  1  0  0  0
  4 91  1  0  0  0
  5  6  1  0  0  0
  5 26  1  0  0  0
  5 92  1  0  0  0
  6 25  1  0  0  0
  6 93  1  0  0  0
  6 94  1  0  0  0
  7  8  2  0  0  0
  7 26  1  0  0  0
  7 29  1  0  0  0
  8  9  1  0  0  0
  8 22  1  0  0  0
  9 10  1  0  0  0
  9 27  2  0  0  0
 10 11  2  0  0  0
 10 15  1  0  0  0
 11 12  1  0  0  0
 11 95  1  0  0  0
 12 13  2  0  0  0
 12 96  1  0  0  0
 13 14  1  0  0  0
 13 31  1  0  0  0
 14 15  2  0  0  0
 14 97  1  0  0  0
 15 98  1  0  0  0
 16 17  2  0  0  0
 16 21  1  0  0  0
 16 31  1  0  0  0
 17 18  1  0  0  0
 17 99  1  0  0  0
 18 19  2  0  0  0
 18100  1  0  0  0
 19 20  1  0  0  0
 19 24  1  0  0  0
 20 21  2  0  0  0
 20101  1  0  0  0
 21 23  1  0  0  0
 22 28  1  0  0  0
 22 32  2  0  0  0
 26 27  1  0  0  0
 28102  1  0  0  0
 28103  1  0  0  0
 29104  1  0  0  0
 29105  1  0  0  0
 33 34  1  0  0  0
 33 66  1  0  0  0
 33 70  2  0  0  0
 34 36  1  0  0  0
 34 59  1  0  0  0
 34106  1  0  0  0
 35 44  2  0  0  0
 35 45  1  0  0  0
 35 68  1  0  0  0
 36 56  1  0  0  0
 36107  1  0  0  0
 37 39  1  0  0  0
 37 47  1  0  0  0
 37 66  1  0  0  0
 37108  1  0  0  0
 38 43  2  0  0  0
 38 46  1  0  0  0
 38 47  1  0  0  0
 39 64  1  0  0  0
 39 67  2  0  0  0
 40 52  1  0  0  0
 40 53  2  0  0  0
 40 58  1  0  0  0
 41109  1  0  0  0
 41110  1  0  0  0
 41111  1  0  0  0
 41 48  1  0  0  0
 42 43  1  0  0  0
 42 66  1  0  0  0
 42112  1  0  0  0
 42113  1  0  0  0
 43 44  1  0  0  0
 44114  1  0  0  0
 45 46  2  0  0  0
 45115  1  0  0  0
 46116  1  0  0  0
 47117  1  0  0  0
 47118  1  0  0  0
 48 56  1  0  0  0
 48 65  1  0  0  0
 48119  1  0  0  0
 49 50  1  0  0  0
 49 53  1  0  0  0
 49 64  1  0  0  0
 49120  1  0  0  0
 50 51  1  0  0  0
 50121  1  0  0  0
 50122  1  0  0  0
 51 52  1  0  0  0
 51123  1  0  0  0
 51124  1  0  0  0
 52125  1  0  0  0
 52126  1  0  0  0
 53 54  1  0  0  0
 54 55  2  0  0  0
 54127  1  0  0  0
 55 57  1  0  0  0
 55128  1  0  0  0
 56 69  2  0  0  0
 57 58  2  0  0  0
 57129  1  0  0  0
 58130  1  0  0  0
 59 60  1  0  0  0
 59 61  1  0  0  0
 59 62  1  0  0  0
 60131  1  0  0  0
 60132  1  0  0  0
 60133  1  0  0  0
 61134  1  0  0  0
 61135  1  0  0  0
 61136  1  0  0  0
 62137  1  0  0  0
 62138  1  0  0  0
 62139  1  0  0  0
 63 65  1  0  0  0
 63140  1  0  0  0
 63141  1  0  0  0
 63142  1  0  0  0
 64143  1  0  0  0
 65144  1  0  0  0
 68 82  1  0  0  0
 71 73  2  0  0  0
 71 75  1  0  0  0
 71145  1  0  0  0
 72 74  1  0  0  0
 72 75  2  0  0  0
 72146  1  0  0  0
 73 76  1  0  0  0
 73147  1  0  0  0
 74 76  2  0  0  0
 74148  1  0  0  0
 75 77  1  0  0  0
 76 78  1  0  0  0
 77 84  1  0  0  0
 77149  1  0  0  0
 77150  1  0  0  0
 78 85  1  0  0  0
 78151  1  0  0  0
 78152  1  0  0  0
 79 80  1  0  0  0
 79 83  1  0  0  0
 79153  1  0  0  0
 79154  1  0  0  0
 80 84  1  0  0  0
 80155  1  0  0  0
 80156  1  0  0  0
 81 82  1  0  0  0
 81 85  1  0  0  0
 81157  1  0  0  0
 81158  1  0  0  0
 82159  1  0  0  0
 82160  1  0  0  0
 83161  1  0  0  0
 84162  1  0  0  0
 84163  1  0  0  0
 85164  1  0  0  0
 85165  1  0  0  0
M  CHG  2  84   1  85   1
M  ISO  4   1 100  68 101  82 101  83 100
M  END
> <chiral flag>
0

> <version>
0

> <s_m_source_file>
/data/baiqing/PycharmProjects/Reinvent-master-3.2/result/LINK_invent/BTK/process_docking_weight1_custom_sum_contain_oxygen_bond_distance_aromatic_linkinvent_7_9_3/rearranged_h_0131.sdf

> <i_m_source_file_index>
20

> <r_mmod_Potential_Energy-OPLS-2005>
-397.402801513672

> <r_mmod_Stretch_Energy-OPLS-2005>
33.6630859375

> <r_mmod_Bend_Energy-OPLS-2005>
111.206085205078

> <r_mmod_Torsional_Energy-OPLS-2005>
283.010528564453

> <r_mmod_Improper_Torsional_Energy-OPLS-2005>
17.2414417266846

> <r_mmod_Van_der_Waal_Energy-OPLS-2005>
145.448394775391

> <r_mmod_Electrostatic_Energy-OPLS-2005>
-107.198501586914

> <r_mmod_Solvation_Energy-OPLS-2005>
-890.994384765625

> <b_mmod_Minimization_Converged-OPLS-2005>
0

> <r_mmod_RMS_Derivative-OPLS-2005>
5.83101463317871

$$$$
20
                    3D
 Structure written by MMmdl.
163172  0  0  1  0            999 V2000
  -30.7687  -14.5014   20.6303 C   0  0  0  0  0  0
  -30.4023  -12.3588   19.4468 C   0  0  0  0  0  0
  -29.4898  -12.5320   18.2186 C   0  0  0  0  0  0
  -28.0154  -12.3784   18.6316 C   0  0  0  0  0  0
  -27.6555  -13.2332   19.8777 C   0  0  2  0  0  0
  -28.6970  -13.0715   21.0073 C   0  0  0  0  0  0
  -25.2538  -13.8220   20.5738 C   0  0  0  0  0  0
  -24.1825  -13.0454   20.9196 C   0  0  0  0  0  0
  -24.6414  -11.6935   20.8743 C   0  0  0  0  0  0
  -23.9089  -10.4323   21.0405 C   0  0  0  0  0  0
  -24.3626   -9.4240   21.9183 C   0  0  0  0  0  0
  -23.6315   -8.2266   22.0728 C   0  0  0  0  0  0
  -22.4303   -8.0292   21.3511 C   0  0  0  0  0  0
  -21.9932   -9.0283   20.4621 C   0  0  0  0  0  0
  -22.7263  -10.2166   20.3051 C   0  0  0  0  0  0
  -21.6882   -6.0732   22.5292 C   0  0  0  0  0  0
  -21.4012   -6.5626   23.8217 C   0  0  0  0  0  0
  -21.3669   -5.6783   24.9177 C   0  0  0  0  0  0
  -21.6050   -4.3048   24.7245 C   0  0  0  0  0  0
  -21.8821   -3.8132   23.4375 C   0  0  0  0  0  0
  -21.9198   -4.6948   22.3421 C   0  0  0  0  0  0
  -22.7835  -13.5216   21.1886 C   0  0  0  0  0  0
  -22.1669   -4.2126   21.0996 F   0  0  0  0  0  0
  -21.5653   -3.4527   25.7752 F   0  0  0  0  0  0
  -30.0186  -13.3732   20.4518 N   0  0  0  0  0  0
  -26.3009  -12.9463   20.3427 N   0  0  0  0  0  0
  -25.9347  -11.6593   20.5789 N   0  0  0  0  0  0
  -22.0488  -12.8178   22.0429 N   0  0  0  0  0  0
  -25.4259  -15.1947   20.4222 N   0  0  0  0  0  0
  -31.8424  -14.6453   20.0478 O   0  0  0  0  0  0
  -21.6665   -6.8888   21.4250 O   0  0  0  0  0  0
  -22.3522  -14.5555   20.6794 O   0  0  0  0  0  0
  -24.6187  -31.8656   23.2057 C   0  0  0  0  0  0
  -25.9059  -32.4809   23.8389 C   0  0  1  0  0  0
  -27.2234  -27.3755   20.1072 C   0  0  0  0  0  0
  -25.5899  -33.8608   24.2284 N   0  0  0  0  0  0
  -23.4070  -30.4857   21.5501 C   0  0  2  0  0  0
  -24.8528  -28.9440   20.1140 C   0  0  0  0  0  0
  -22.7439  -29.4642   22.5018 C   0  0  0  0  0  0
  -18.0319  -28.1348   22.8512 C   0  0  0  0  0  0
  -24.1489  -36.7320   23.2642 C   0  0  0  0  0  0
  -25.9429  -30.8094   21.3709 C   0  0  0  0  0  0
  -26.0147  -29.4401   20.7166 C   0  0  0  0  0  0
  -27.1997  -28.6588   20.7170 C   0  0  0  0  0  0
  -26.0360  -26.9035   19.5042 C   0  0  0  0  0  0
  -24.8588  -27.6762   19.5092 C   0  0  0  0  0  0
  -23.6189  -29.8187   20.1650 C   0  0  0  0  0  0
  -25.4106  -36.3098   24.0329 C   0  0  1  0  0  0
  -20.5878  -28.3671   23.1365 C   0  0  2  0  0  0
  -20.6806  -26.9412   22.5453 C   0  0  0  0  0  0
  -19.5794  -26.6435   21.5231 C   0  0  0  0  0  0
  -18.1999  -26.7880   22.1692 C   0  0  0  0  0  0
  -19.1537  -28.8849   23.2909 C   0  0  0  0  0  0
  -18.9451  -30.1483   23.8878 C   0  0  0  0  0  0
  -17.6438  -30.6576   24.0514 C   0  0  0  0  0  0
  -25.9040  -34.9464   23.5101 C   0  0  0  0  0  0
  -16.5351  -29.9036   23.6306 C   0  0  0  0  0  0
  -16.7305  -28.6438   23.0379 C   0  0  0  0  0  0
  -26.4459  -31.6629   25.0749 C   0  0  0  0  0  0
  -25.3702  -31.3768   26.1486 C   0  0  0  0  0  0
  -27.0294  -30.3064   24.6179 C   0  0  0  0  0  0
  -27.6005  -32.4378   25.7521 C   0  0  0  0  0  0
  -27.5581  -37.1814   24.8460 C   0  0  0  0  0  0
  -21.4161  -29.3025   22.3764 N   0  0  0  0  0  0
  -26.4296  -37.3773   23.9400 N   0  0  0  0  0  0
  -24.6739  -31.0704   22.0988 N   0  0  0  0  0  0
  -23.4214  -28.8219   23.3088 O   0  0  0  0  0  0
  -28.3747  -26.5992   20.1629 O   0  0  0  0  0  0
  -26.5612  -34.8924   22.4668 O   0  0  0  0  0  0
  -23.5368  -32.1456   23.7403 O   0  0  0  0  0  0
  -27.4701  -17.3397   22.7731 C   0  0  0  0  0  0
  -27.3849  -18.4461   21.9085 C   0  0  0  0  0  0
  -27.5608  -22.1057   20.7332 C   0  0  0  0  0  0
  -29.1676  -21.7513   18.9664 C   0  0  0  0  0  0
  -27.6868  -23.5184   20.5691 C   0  0  0  0  0  0
  -29.2879  -23.1504   18.8001 C   0  0  0  0  0  0
  -28.4339  -16.3443   22.5568 C   0  0  0  0  0  0
  -28.2729  -21.1940   19.9039 C   0  0  0  0  0  0
  -28.5316  -24.0646   19.5701 C   0  0  0  0  0  0
  -28.2640  -18.5889   20.8116 C   0  0  0  0  0  0
  -29.2922  -17.5946   20.6262 C   0  0  0  0  0  0
  -29.3445  -16.4379   21.4862 C   0  0  0  0  0  0
  -31.4940  -18.7130   20.0116 C   0  0  0  0  0  0
  -27.9023  -19.6900   19.7732 C   0  0  0  0  0  0
  -30.3542  -17.7942   19.5446 C   0  0  0  0  0  0
  -28.6166  -25.5680   19.1760 C   0  0  0  0  0  0
  -30.4092  -15.4701   21.5046 N   0  0  0  0  0  0
  -31.4481  -12.4326   19.1451 H   0  0  0  0  0  0
  -30.2933  -11.3592   19.8694 H   0  0  0  0  0  0
  -29.7430  -11.8047   17.4470 H   0  0  0  0  0  0
  -29.6487  -13.5165   17.7763 H   0  0  0  0  0  0
  -27.8317  -11.3232   18.8336 H   0  0  0  0  0  0
  -27.3604  -12.6428   17.8014 H   0  0  0  0  0  0
  -27.6867  -14.2764   19.5571 H   0  0  0  0  0  0
  -28.6904  -12.0532   21.3984 H   0  0  0  0  0  0
  -28.4517  -13.7188   21.8446 H   0  0  0  0  0  0
  -25.2783   -9.5724   22.4741 H   0  0  0  0  0  0
  -24.0033   -7.4664   22.7431 H   0  0  0  0  0  0
  -21.0876   -8.8838   19.8915 H   0  0  0  0  0  0
  -22.3763  -10.9708   19.6148 H   0  0  0  0  0  0
  -21.1984   -7.6125   23.9726 H   0  0  0  0  0  0
  -21.1492   -6.0492   25.9077 H   0  0  0  0  0  0
  -22.0589   -2.7591   23.2892 H   0  0  0  0  0  0
  -22.4080  -11.9804   22.4803 H   0  0  0  0  0  0
  -21.1083  -13.1161   22.2606 H   0  0  0  0  0  0
  -24.6776  -15.8577   20.5813 H   0  0  0  0  0  0
  -26.3109  -15.6468   20.2332 H   0  0  0  0  0  0
  -26.7142  -32.5485   23.1159 H   0  0  0  0  0  0
  -25.0046  -33.9788   25.0431 H   0  0  0  0  0  0
  -22.6957  -31.3011   21.4069 H   0  0  0  0  0  0
  -23.3736  -35.9670   23.3300 H   0  0  0  0  0  0
  -24.3583  -36.8946   22.2061 H   0  0  0  0  0  0
  -23.7261  -37.6526   23.6672 H   0  0  0  0  0  0
  -26.0660  -31.5716   20.6002 H   0  0  0  0  0  0
  -26.8270  -30.8593   21.9973 H   0  0  0  0  0  0
  -28.0953  -29.0309   21.1937 H   0  0  0  0  0  0
  -25.9898  -25.9208   19.0583 H   0  0  0  0  0  0
  -23.9580  -27.2823   19.0596 H   0  0  0  0  0  0
  -23.7364  -30.5923   19.4055 H   0  0  0  0  0  0
  -22.7405  -29.2466   19.8665 H   0  0  0  0  0  0
  -25.1288  -36.1957   25.0825 H   0  0  0  0  0  0
  -20.9963  -28.3227   24.1489 H   0  0  0  0  0  0
  -20.5658  -26.2277   23.3618 H   0  0  0  0  0  0
  -21.6696  -26.7402   22.1265 H   0  0  0  0  0  0
  -19.6948  -25.6376   21.1173 H   0  0  0  0  0  0
  -19.6685  -27.3310   20.6823 H   0  0  0  0  0  0
  -17.4222  -26.6562   21.4145 H   0  0  0  0  0  0
  -18.0512  -26.0052   22.9154 H   0  0  0  0  0  0
  -19.7918  -30.7317   24.2223 H   0  0  0  0  0  0
  -17.4964  -31.6262   24.5073 H   0  0  0  0  0  0
  -15.5324  -30.2929   23.7568 H   0  0  0  0  0  0
  -15.8716  -28.0710   22.7171 H   0  0  0  0  0  0
  -24.5834  -30.7164   25.7829 H   0  0  0  0  0  0
  -24.8944  -32.2942   26.4969 H   0  0  0  0  0  0
  -25.8033  -30.8905   27.0238 H   0  0  0  0  0  0
  -26.2872  -29.6841   24.1170 H   0  0  0  0  0  0
  -27.3977  -29.7293   25.4677 H   0  0  0  0  0  0
  -27.8744  -30.4366   23.9405 H   0  0  0  0  0  0
  -27.2586  -33.3653   26.2132 H   0  0  0  0  0  0
  -28.3802  -32.7005   25.0354 H   0  0  0  0  0  0
  -28.0707  -31.8507   26.5424 H   0  0  0  0  0  0
  -28.2596  -38.0115   24.7486 H   0  0  0  0  0  0
  -28.1083  -36.2640   24.6298 H   0  0  0  0  0  0
  -27.2312  -37.1478   25.8870 H   0  0  0  0  0  0
  -20.9319  -29.8755   21.7009 H   0  0  0  0  0  0
  -26.0184  -38.2863   24.1355 H   0  0  0  0  0  0
  -26.7855  -17.2434   23.6047 H   0  0  0  0  0  0
  -26.6028  -19.1751   22.0722 H   0  0  0  0  0  0
  -26.8519  -21.7259   21.4580 H   0  0  0  0  0  0
  -29.7068  -21.0982   18.2936 H   0  0  0  0  0  0
  -27.0901  -24.1841   21.1785 H   0  0  0  0  0  0
  -29.9280  -23.5262   18.0142 H   0  0  0  0  0  0
  -28.4929  -15.5240   23.2598 H   0  0  0  0  0  0
  -32.2526  -18.8220   19.2376 H   0  0  0  0  0  0
  -31.9860  -18.3076   20.8956 H   0  0  0  0  0  0
  -31.1382  -19.7122   20.2642 H   0  0  0  0  0  0
  -28.1820  -19.3547   18.7758 H   0  0  0  0  0  0
  -26.8148  -19.6761   19.7066 H   0  0  0  0  0  0
  -29.9193  -18.1854   18.6300 H   0  0  0  0  0  0
  -30.7662  -16.8406   19.2265 H   0  0  0  0  0  0
  -28.0399  -25.7256   18.2651 H   0  0  0  0  0  0
  -29.6472  -25.7415   18.8618 H   0  0  0  0  0  0
  -31.2668  -15.9347   21.7657 H   0  0  0  0  0  0
  1 25  1  0  0  0
  1 30  2  0  0  0
  1 87  1  0  0  0
  2  3  1  0  0  0
  2 25  1  0  0  0
  2 88  1  0  0  0
  2 89  1  0  0  0
  3  4  1  0  0  0
  3 90  1  0  0  0
  3 91  1  0  0  0
  4  5  1  0  0  0
  4 92  1  0  0  0
  4 93  1  0  0  0
  5  6  1  0  0  0
  5 26  1  0  0  0
  5 94  1  0  0  0
  6 25  1  0  0  0
  6 95  1  0  0  0
  6 96  1  0  0  0
  7  8  2  0  0  0
  7 26  1  0  0  0
  7 29  1  0  0  0
  8  9  1  0  0  0
  8 22  1  0  0  0
  9 10  1  0  0  0
  9 27  2  0  0  0
 10 11  2  0  0  0
 10 15  1  0  0  0
 11 12  1  0  0  0
 11 97  1  0  0  0
 12 13  2  0  0  0
 12 98  1  0  0  0
 13 14  1  0  0  0
 13 31  1  0  0  0
 14 15  2  0  0  0
 14 99  1  0  0  0
 15100  1  0  0  0
 16 17  2  0  0  0
 16 21  1  0  0  0
 16 31  1  0  0  0
 17 18  1  0  0  0
 17101  1  0  0  0
 18 19  2  0  0  0
 18102  1  0  0  0
 19 20  1  0  0  0
 19 24  1  0  0  0
 20 21  2  0  0  0
 20103  1  0  0  0
 21 23  1  0  0  0
 22 28  1  0  0  0
 22 32  2  0  0  0
 26 27  1  0  0  0
 28104  1  0  0  0
 28105  1  0  0  0
 29106  1  0  0  0
 29107  1  0  0  0
 33 34  1  0  0  0
 33 66  1  0  0  0
 33 70  2  0  0  0
 34 36  1  0  0  0
 34 59  1  0  0  0
 34108  1  0  0  0
 35 44  2  0  0  0
 35 45  1  0  0  0
 35 68  1  0  0  0
 36 56  1  0  0  0
 36109  1  0  0  0
 37 39  1  0  0  0
 37 47  1  0  0  0
 37 66  1  0  0  0
 37110  1  0  0  0
 38 43  2  0  0  0
 38 46  1  0  0  0
 38 47  1  0  0  0
 39 64  1  0  0  0
 39 67  2  0  0  0
 40 52  1  0  0  0
 40 53  2  0  0  0
 40 58  1  0  0  0
 41111  1  0  0  0
 41112  1  0  0  0
 41113  1  0  0  0
 41 48  1  0  0  0
 42 43  1  0  0  0
 42 66  1  0  0  0
 42114  1  0  0  0
 42115  1  0  0  0
 43 44  1  0  0  0
 44116  1  0  0  0
 45 46  2  0  0  0
 45117  1  0  0  0
 46118  1  0  0  0
 47119  1  0  0  0
 47120  1  0  0  0
 48 56  1  0  0  0
 48 65  1  0  0  0
 48121  1  0  0  0
 49 50  1  0  0  0
 49 53  1  0  0  0
 49 64  1  0  0  0
 49122  1  0  0  0
 50 51  1  0  0  0
 50123  1  0  0  0
 50124  1  0  0  0
 51 52  1  0  0  0
 51125  1  0  0  0
 51126  1  0  0  0
 52127  1  0  0  0
 52128  1  0  0  0
 53 54  1  0  0  0
 54 55  2  0  0  0
 54129  1  0  0  0
 55 57  1  0  0  0
 55130  1  0  0  0
 56 69  2  0  0  0
 57 58  2  0  0  0
 57131  1  0  0  0
 58132  1  0  0  0
 59 60  1  0  0  0
 59 61  1  0  0  0
 59 62  1  0  0  0
 60133  1  0  0  0
 60134  1  0  0  0
 60135  1  0  0  0
 61136  1  0  0  0
 61137  1  0  0  0
 61138  1  0  0  0
 62139  1  0  0  0
 62140  1  0  0  0
 62141  1  0  0  0
 63 65  1  0  0  0
 63142  1  0  0  0
 63143  1  0  0  0
 63144  1  0  0  0
 64145  1  0  0  0
 65146  1  0  0  0
 68 86  1  0  0  0
 71 72  2  0  0  0
 71 77  1  0  0  0
 71147  1  0  0  0
 72 80  1  0  0  0
 72148  1  0  0  0
 73 75  2  0  0  0
 73 78  1  0  0  0
 73149  1  0  0  0
 74 76  1  0  0  0
 74 78  2  0  0  0
 74150  1  0  0  0
 75 79  1  0  0  0
 75151  1  0  0  0
 76 79  2  0  0  0
 76152  1  0  0  0
 77 82  2  0  0  0
 77153  1  0  0  0
 78 84  1  0  0  0
 79 86  1  0  0  0
 80 81  2  0  0  0
 80 84  1  0  0  0
 81 82  1  0  0  0
 81 85  1  0  0  0
 82 87  1  0  0  0
 83 85  1  0  0  0
 83154  1  0  0  0
 83155  1  0  0  0
 83156  1  0  0  0
 84157  1  0  0  0
 84158  1  0  0  0
 85159  1  0  0  0
 85160  1  0  0  0
 86161  1  0  0  0
 86162  1  0  0  0
 87163  1  0  0  0
M  ISO  4   1 100  68 101  86 101  87 100
M  END
> <chiral flag>
0

> <version>
0

> <s_m_source_file>
/data/baiqing/PycharmProjects/Reinvent-master-3.2/result/LINK_invent/BTK/process_docking_weight1_custom_sum_contain_oxygen_bond_distance_aromatic_linkinvent_7_9_3/rearranged_h_0131.sdf

> <i_m_source_file_index>
21

> <r_mmod_Potential_Energy-OPLS-2005>
126.331344604492

> <r_mmod_Stretch_Energy-OPLS-2005>
57.2625617980957

> <r_mmod_Bend_Energy-OPLS-2005>
170.45198059082

> <r_mmod_Torsional_Energy-OPLS-2005>
277.664489746094

> <r_mmod_Improper_Torsional_Energy-OPLS-2005>
10.8371105194092

> <r_mmod_Van_der_Waal_Energy-OPLS-2005>
149.582962036133

> <r_mmod_Electrostatic_Energy-OPLS-2005>
-378.770874023438

> <r_mmod_Solvation_Energy-OPLS-2005>
-184.29557800293

> <b_mmod_Minimization_Converged-OPLS-2005>
0

> <r_mmod_RMS_Derivative-OPLS-2005>
4.41691732406616

$$$$
21
                    3D
 Structure written by MMmdl.
180190  0  0  1  0            999 V2000
  -30.7960  -14.4175   20.5968 C   0  0  0  0  0  0
  -30.4119  -12.2962   19.4115 C   0  0  0  0  0  0
  -29.4820  -12.4993   18.2018 C   0  0  0  0  0  0
  -28.0111  -12.3501   18.6301 C   0  0  0  0  0  0
  -27.6640  -13.2094   19.8738 C   0  0  2  0  0  0
  -28.7138  -13.0264   20.9958 C   0  0  0  0  0  0
  -25.2603  -13.8160   20.5690 C   0  0  0  0  0  0
  -24.1852  -13.0454   20.9165 C   0  0  0  0  0  0
  -24.6413  -11.6911   20.8757 C   0  0  0  0  0  0
  -23.9071  -10.4304   21.0431 C   0  0  0  0  0  0
  -24.3625   -9.4215   21.9222 C   0  0  0  0  0  0
  -23.6296   -8.2249   22.0780 C   0  0  0  0  0  0
  -22.4279   -8.0285   21.3554 C   0  0  0  0  0  0
  -21.9928   -9.0260   20.4654 C   0  0  0  0  0  0
  -22.7248  -10.2142   20.3076 C   0  0  0  0  0  0
  -21.6849   -6.0749   22.5271 C   0  0  0  0  0  0
  -21.4016   -6.5659   23.8209 C   0  0  0  0  0  0
  -21.3648   -5.6804   24.9172 C   0  0  0  0  0  0
  -21.6042   -4.3059   24.7213 C   0  0  0  0  0  0
  -21.8814   -3.8158   23.4333 C   0  0  0  0  0  0
  -21.9190   -4.6988   22.3384 C   0  0  0  0  0  0
  -22.7869  -13.5241   21.1807 C   0  0  0  0  0  0
  -22.1656   -4.2171   21.0962 F   0  0  0  0  0  0
  -21.5633   -3.4541   25.7735 F   0  0  0  0  0  0
  -30.0500  -13.2926   20.4325 N   0  0  0  0  0  0
  -26.3060  -12.9359   20.3418 N   0  0  0  0  0  0
  -25.9350  -11.6511   20.5847 N   0  0  0  0  0  0
  -22.0477  -12.8261   22.0347 N   0  0  0  0  0  0
  -25.4328  -15.1886   20.4042 N   0  0  0  0  0  0
  -31.8961  -14.5614   20.0674 O   0  0  0  0  0  0
  -21.6625   -6.8895   21.4230 O   0  0  0  0  0  0
  -22.3583  -14.5564   20.6656 O   0  0  0  0  0  0
  -24.6111  -31.8678   23.2144 C   0  0  0  0  0  0
  -25.9000  -32.4832   23.8422 C   0  0  1  0  0  0
  -27.2601  -27.4853   20.0411 C   0  0  0  0  0  0
  -25.5821  -33.8638   24.2318 N   0  0  0  0  0  0
  -23.3983  -30.4944   21.5516 C   0  0  2  0  0  0
  -24.8463  -28.9564   20.1176 C   0  0  0  0  0  0
  -22.7370  -29.4683   22.4977 C   0  0  0  0  0  0
  -18.0248  -28.1408   22.8525 C   0  0  0  0  0  0
  -24.1472  -36.7364   23.2653 C   0  0  0  0  0  0
  -25.9248  -30.8408   21.3655 C   0  0  0  0  0  0
  -26.0030  -29.4773   20.7112 C   0  0  0  0  0  0
  -27.2066  -28.7418   20.6818 C   0  0  0  0  0  0
  -26.0815  -26.9560   19.4690 C   0  0  0  0  0  0
  -24.8765  -27.6890   19.5057 C   0  0  0  0  0  0
  -23.6076  -29.8246   20.1655 C   0  0  0  0  0  0
  -25.4094  -36.3144   24.0330 C   0  0  1  0  0  0
  -20.5837  -28.3683   23.1338 C   0  0  2  0  0  0
  -20.6712  -26.9417   22.5443 C   0  0  0  0  0  0
  -19.5699  -26.6410   21.5231 C   0  0  0  0  0  0
  -18.1881  -26.7955   22.1650 C   0  0  0  0  0  0
  -19.1503  -28.8854   23.2934 C   0  0  0  0  0  0
  -18.9437  -30.1456   23.8954 C   0  0  0  0  0  0
  -17.6444  -30.6596   24.0615 C   0  0  0  0  0  0
  -25.9007  -34.9498   23.5142 C   0  0  0  0  0  0
  -16.5332  -29.9128   23.6340 C   0  0  0  0  0  0
  -16.7247  -28.6551   23.0360 C   0  0  0  0  0  0
  -26.4445  -31.6627   25.0762 C   0  0  0  0  0  0
  -25.3714  -31.3656   26.1497 C   0  0  0  0  0  0
  -27.0321  -30.3089   24.6158 C   0  0  0  0  0  0
  -27.6021  -32.4358   25.7503 C   0  0  0  0  0  0
  -27.5574  -37.1817   24.8455 C   0  0  0  0  0  0
  -21.4098  -29.3064   22.3746 N   0  0  0  0  0  0
  -26.4290  -37.3823   23.9411 N   0  0  0  0  0  0
  -24.6626  -31.0798   22.1040 N   0  0  0  0  0  0
  -23.4153  -28.8204   23.2999 O   0  0  0  0  0  0
  -28.4655  -26.8203   20.0443 O   0  0  0  0  0  0
  -26.5633  -34.8949   22.4736 O   0  0  0  0  0  0
  -23.5306  -32.1433   23.7540 O   0  0  0  0  0  0
  -32.4902  -20.9848   21.2444 C   0  0  0  0  0  0
  -32.8101  -19.6306   21.5324 C   0  0  0  0  0  0
  -31.5204  -21.0003   20.2794 C   0  0  0  0  0  0
  -32.0295  -18.8321   20.7467 C   0  0  0  0  0  0
  -31.5251  -23.1285   18.8008 C   0  0  0  0  0  0
  -30.0884  -22.9653   20.8675 C   0  0  0  0  0  0
  -30.5922  -24.2384   18.2514 C   0  0  0  0  0  0
  -29.1388  -24.0301   20.3183 C   0  0  0  0  0  0
  -33.8589  -20.8195   16.5465 C   0  0  0  0  0  0
  -34.6137  -19.5283   16.3075 C   0  0  0  0  0  0
  -30.7428  -22.1713   19.7274 C   0  0  2  0  0  0
  -29.8713  -25.0103   19.3843 C   0  0  2  0  0  0
  -33.1027  -19.5508   16.2217 C   0  0  0  0  0  0
  -31.9105  -17.3292   20.7155 C   0  0  0  0  0  0
  -28.8823  -26.0842   18.8889 C   0  0  0  0  0  0
  -30.3700  -19.2192   18.8640 C   0  0  0  0  0  0
  -30.7104  -16.7909   21.5468 C   0  0  0  0  0  0
  -30.9792  -19.4301   17.4650 C   0  0  0  0  0  0
  -31.2767  -19.6711   19.9222 N   0  0  0  0  0  0
  -30.2278  -15.4167   21.2886 N   0  0  0  0  0  0
  -32.3862  -18.9808   17.3826 N   0  3  0  0  0  0
  -31.4555  -12.3657   19.0978 H   0  0  0  0  0  0
  -30.2937  -11.2937   19.8215 H   0  0  0  0  0  0
  -29.7161  -11.7771   17.4192 H   0  0  0  0  0  0
  -29.6409  -13.4865   17.7658 H   0  0  0  0  0  0
  -27.8361  -11.2960   18.8512 H   0  0  0  0  0  0
  -27.3465  -12.5960   17.8014 H   0  0  0  0  0  0
  -27.7006  -14.2511   19.5541 H   0  0  0  0  0  0
  -28.6802  -12.0094   21.3873 H   0  0  0  0  0  0
  -28.4812  -13.6717   21.8424 H   0  0  0  0  0  0
  -25.2777   -9.5693   22.4798 H   0  0  0  0  0  0
  -23.9994   -7.4652   22.7518 H   0  0  0  0  0  0
  -21.0871   -8.8779   19.8954 H   0  0  0  0  0  0
  -22.3712  -10.9694   19.6183 H   0  0  0  0  0  0
  -21.2002   -7.6172   23.9714 H   0  0  0  0  0  0
  -21.1477   -6.0545   25.9080 H   0  0  0  0  0  0
  -22.0596   -2.7625   23.2821 H   0  0  0  0  0  0
  -22.4062  -11.9913   22.4736 H   0  0  0  0  0  0
  -21.1102  -13.1325   22.2526 H   0  0  0  0  0  0
  -24.6674  -15.8457   20.5082 H   0  0  0  0  0  0
  -26.2905  -15.6219   20.0866 H   0  0  0  0  0  0
  -26.7069  -32.5550   23.1181 H   0  0  0  0  0  0
  -24.9794  -33.9819   25.0331 H   0  0  0  0  0  0
  -22.6884  -31.3123   21.4119 H   0  0  0  0  0  0
  -23.3730  -35.9700   23.3328 H   0  0  0  0  0  0
  -24.3522  -36.8998   22.2066 H   0  0  0  0  0  0
  -23.7243  -37.6568   23.6683 H   0  0  0  0  0  0
  -26.0303  -31.6097   20.5973 H   0  0  0  0  0  0
  -26.8153  -30.8946   21.9792 H   0  0  0  0  0  0
  -28.1063  -29.1464   21.1245 H   0  0  0  0  0  0
  -26.0770  -25.9817   19.0028 H   0  0  0  0  0  0
  -23.9862  -27.2747   19.0540 H   0  0  0  0  0  0
  -23.7201  -30.6057   19.4106 H   0  0  0  0  0  0
  -22.7302  -29.2494   19.8629 H   0  0  0  0  0  0
  -25.1268  -36.2014   25.0822 H   0  0  0  0  0  0
  -20.9937  -28.3266   24.1456 H   0  0  0  0  0  0
  -20.5561  -26.2323   23.3646 H   0  0  0  0  0  0
  -21.6595  -26.7401   22.1288 H   0  0  0  0  0  0
  -19.6857  -25.6325   21.1261 H   0  0  0  0  0  0
  -19.6634  -27.3227   20.6769 H   0  0  0  0  0  0
  -17.4137  -26.6733   21.4068 H   0  0  0  0  0  0
  -18.0266  -26.0084   22.9034 H   0  0  0  0  0  0
  -19.7910  -30.7265   24.2353 H   0  0  0  0  0  0
  -17.5003  -31.6269   24.5239 H   0  0  0  0  0  0
  -15.5343  -30.3058   23.7613 H   0  0  0  0  0  0
  -15.8652  -28.0883   22.7037 H   0  0  0  0  0  0
  -24.5956  -30.6937   25.7808 H   0  0  0  0  0  0
  -24.8806  -32.2771   26.4934 H   0  0  0  0  0  0
  -25.8083  -30.8855   27.0272 H   0  0  0  0  0  0
  -26.2899  -29.6790   24.1264 H   0  0  0  0  0  0
  -27.4168  -29.7364   25.4609 H   0  0  0  0  0  0
  -27.8676  -30.4431   23.9286 H   0  0  0  0  0  0
  -27.2654  -33.3651   26.2114 H   0  0  0  0  0  0
  -28.3795  -32.6937   25.0295 H   0  0  0  0  0  0
  -28.0763  -31.8493   26.5386 H   0  0  0  0  0  0
  -28.2579  -38.0130   24.7495 H   0  0  0  0  0  0
  -28.1082  -36.2644   24.6275 H   0  0  0  0  0  0
  -27.2287  -37.1474   25.8862 H   0  0  0  0  0  0
  -20.9234  -29.8875   21.7062 H   0  0  0  0  0  0
  -26.0188  -38.2903   24.1427 H   0  0  0  0  0  0
  -32.8934  -21.8617   21.7311 H   0  0  0  0  0  0
  -33.5190  -19.2784   22.2709 H   0  0  0  0  0  0
  -32.3646  -23.5796   19.3336 H   0  0  0  0  0  0
  -31.9567  -22.5802   17.9634 H   0  0  0  0  0  0
  -29.5264  -22.2855   21.5095 H   0  0  0  0  0  0
  -30.8445  -23.4347   21.4989 H   0  0  0  0  0  0
  -29.8556  -23.7873   17.5850 H   0  0  0  0  0  0
  -31.1686  -24.9281   17.6328 H   0  0  0  0  0  0
  -28.6883  -24.5675   21.1522 H   0  0  0  0  0  0
  -28.3193  -23.5508   19.7808 H   0  0  0  0  0  0
  -33.8927  -21.5851   15.7736 H   0  0  0  0  0  0
  -33.8425  -21.1990   17.5671 H   0  0  0  0  0  0
  -35.0869  -19.0484   17.1630 H   0  0  0  0  0  0
  -35.1682  -19.4475   15.3728 H   0  0  0  0  0  0
  -29.9200  -21.7995   19.1233 H   0  0  0  0  0  0
  -30.6454  -25.5177   19.9616 H   0  0  0  0  0  0
  -32.6175  -19.4188   15.2557 H   0  0  0  0  0  0
  -32.8351  -16.8943   21.0989 H   0  0  0  0  0  0
  -31.8544  -17.0062   19.6776 H   0  0  0  0  0  0
  -28.0707  -25.6145   18.3380 H   0  0  0  0  0  0
  -29.3806  -26.7654   18.1981 H   0  0  0  0  0  0
  -30.1036  -18.1740   19.0097 H   0  0  0  0  0  0
  -29.4215  -19.7471   18.9468 H   0  0  0  0  0  0
  -29.8526  -17.4407   21.3738 H   0  0  0  0  0  0
  -30.9457  -16.8912   22.6064 H   0  0  0  0  0  0
  -30.9334  -20.4905   17.2182 H   0  0  0  0  0  0
  -30.3868  -18.9131   16.7104 H   0  0  0  0  0  0
  -29.3091  -15.2084   21.6504 H   0  0  0  0  0  0
  -32.8468  -19.2599   18.2360 H   0  0  0  0  0  0
  -32.4080  -17.9746   17.3358 H   0  0  0  0  0  0
  1 25  1  0  0  0
  1 30  2  0  0  0
  1 90  1  0  0  0
  2  3  1  0  0  0
  2 25  1  0  0  0
  2 92  1  0  0  0
  2 93  1  0  0  0
  3  4  1  0  0  0
  3 94  1  0  0  0
  3 95  1  0  0  0
  4  5  1  0  0  0
  4 96  1  0  0  0
  4 97  1  0  0  0
  5  6  1  0  0  0
  5 26  1  0  0  0
  5 98  1  0  0  0
  6 25  1  0  0  0
  6 99  1  0  0  0
  6100  1  0  0  0
  7  8  2  0  0  0
  7 26  1  0  0  0
  7 29  1  0  0  0
  8  9  1  0  0  0
  8 22  1  0  0  0
  9 10  1  0  0  0
  9 27  2  0  0  0
 10 11  2  0  0  0
 10 15  1  0  0  0
 11 12  1  0  0  0
 11101  1  0  0  0
 12 13  2  0  0  0
 12102  1  0  0  0
 13 14  1  0  0  0
 13 31  1  0  0  0
 14 15  2  0  0  0
 14103  1  0  0  0
 15104  1  0  0  0
 16 17  2  0  0  0
 16 21  1  0  0  0
 16 31  1  0  0  0
 17 18  1  0  0  0
 17105  1  0  0  0
 18 19  2  0  0  0
 18106  1  0  0  0
 19 20  1  0  0  0
 19 24  1  0  0  0
 20 21  2  0  0  0
 20107  1  0  0  0
 21 23  1  0  0  0
 22 28  1  0  0  0
 22 32  2  0  0  0
 26 27  1  0  0  0
 28108  1  0  0  0
 28109  1  0  0  0
 29110  1  0  0  0
 29111  1  0  0  0
 33 34  1  0  0  0
 33 66  1  0  0  0
 33 70  2  0  0  0
 34 36  1  0  0  0
 34 59  1  0  0  0
 34112  1  0  0  0
 35 44  2  0  0  0
 35 45  1  0  0  0
 35 68  1  0  0  0
 36 56  1  0  0  0
 36113  1  0  0  0
 37 39  1  0  0  0
 37 47  1  0  0  0
 37 66  1  0  0  0
 37114  1  0  0  0
 38 43  2  0  0  0
 38 46  1  0  0  0
 38 47  1  0  0  0
 39 64  1  0  0  0
 39 67  2  0  0  0
 40 52  1  0  0  0
 40 53  2  0  0  0
 40 58  1  0  0  0
 41115  1  0  0  0
 41116  1  0  0  0
 41117  1  0  0  0
 41 48  1  0  0  0
 42 43  1  0  0  0
 42 66  1  0  0  0
 42118  1  0  0  0
 42119  1  0  0  0
 43 44  1  0  0  0
 44120  1  0  0  0
 45 46  2  0  0  0
 45121  1  0  0  0
 46122  1  0  0  0
 47123  1  0  0  0
 47124  1  0  0  0
 48 56  1  0  0  0
 48 65  1  0  0  0
 48125  1  0  0  0
 49 50  1  0  0  0
 49 53  1  0  0  0
 49 64  1  0  0  0
 49126  1  0  0  0
 50 51  1  0  0  0
 50127  1  0  0  0
 50128  1  0  0  0
 51 52  1  0  0  0
 51129  1  0  0  0
 51130  1  0  0  0
 52131  1  0  0  0
 52132  1  0  0  0
 53 54  1  0  0  0
 54 55  2  0  0  0
 54133  1  0  0  0
 55 57  1  0  0  0
 55134  1  0  0  0
 56 69  2  0  0  0
 57 58  2  0  0  0
 57135  1  0  0  0
 58136  1  0  0  0
 59 60  1  0  0  0
 59 61  1  0  0  0
 59 62  1  0  0  0
 60137  1  0  0  0
 60138  1  0  0  0
 60139  1  0  0  0
 61140  1  0  0  0
 61141  1  0  0  0
 61142  1  0  0  0
 62143  1  0  0  0
 62144  1  0  0  0
 62145  1  0  0  0
 63 65  1  0  0  0
 63146  1  0  0  0
 63147  1  0  0  0
 63148  1  0  0  0
 64149  1  0  0  0
 65150  1  0  0  0
 68 85  1  0  0  0
 71 72  1  0  0  0
 71 73  2  0  0  0
 71151  1  0  0  0
 72 74  2  0  0  0
 72152  1  0  0  0
 73 89  1  0  0  0
 73 81  1  0  0  0
 74 84  1  0  0  0
 74 89  1  0  0  0
 75 77  1  0  0  0
 75 81  1  0  0  0
 75153  1  0  0  0
 75154  1  0  0  0
 76 78  1  0  0  0
 76 81  1  0  0  0
 76155  1  0  0  0
 76156  1  0  0  0
 77 82  1  0  0  0
 77157  1  0  0  0
 77158  1  0  0  0
 78 82  1  0  0  0
 78159  1  0  0  0
 78160  1  0  0  0
 79 80  1  0  0  0
 79 83  1  0  0  0
 79161  1  0  0  0
 79162  1  0  0  0
 80 83  1  0  0  0
 80163  1  0  0  0
 80164  1  0  0  0
 81165  1  0  0  0
 82 85  1  0  0  0
 82166  1  0  0  0
 83 91  1  0  0  0
 83167  1  0  0  0
 84 87  1  0  0  0
 84168  1  0  0  0
 84169  1  0  0  0
 85170  1  0  0  0
 85171  1  0  0  0
 86 88  1  0  0  0
 86 89  1  0  0  0
 86172  1  0  0  0
 86173  1  0  0  0
 87 90  1  0  0  0
 87174  1  0  0  0
 87175  1  0  0  0
 88 91  1  0  0  0
 88176  1  0  0  0
 88177  1  0  0  0
 90178  1  0  0  0
 91179  1  0  0  0
 91180  1  0  0  0
M  CHG  1  91   1
M  ISO  4   1 100  68 101  85 101  90 100
M  END
> <chiral flag>
0

> <version>
0

> <s_m_source_file>
/data/baiqing/PycharmProjects/Reinvent-master-3.2/result/LINK_invent/BTK/process_docking_weight1_custom_sum_contain_oxygen_bond_distance_aromatic_linkinvent_7_9_3/rearranged_h_0131.sdf

> <i_m_source_file_index>
22

> <r_mmod_Potential_Energy-OPLS-2005>
-205.935089111328

> <r_mmod_Stretch_Energy-OPLS-2005>
36.7022399902344

> <r_mmod_Bend_Energy-OPLS-2005>
123.54061126709

> <r_mmod_Torsional_Energy-OPLS-2005>
293.814880371094

> <r_mmod_Improper_Torsional_Energy-OPLS-2005>
2.65800046920776

> <r_mmod_Van_der_Waal_Energy-OPLS-2005>
131.699188232422

> <r_mmod_Electrostatic_Energy-OPLS-2005>
-366.962982177734

> <r_mmod_Solvation_Energy-OPLS-2005>
-440.610595703125

> <b_mmod_Minimization_Converged-OPLS-2005>
0

> <r_mmod_RMS_Derivative-OPLS-2005>
3.60233306884766

$$$$
22
                    3D
 Structure written by MMmdl.
166174  0  0  1  0            999 V2000
  -30.7951  -14.3416   20.6074 C   0  0  0  0  0  0
  -30.3976  -12.2424   19.4132 C   0  0  0  0  0  0
  -29.4800  -12.4954   18.2031 C   0  0  0  0  0  0
  -28.0042  -12.3703   18.6198 C   0  0  0  0  0  0
  -27.6661  -13.2068   19.8825 C   0  0  2  0  0  0
  -28.7062  -12.9772   21.0056 C   0  0  0  0  0  0
  -25.2601  -13.8173   20.5691 C   0  0  0  0  0  0
  -24.1847  -13.0447   20.9177 C   0  0  0  0  0  0
  -24.6400  -11.6914   20.8742 C   0  0  0  0  0  0
  -23.9064  -10.4299   21.0406 C   0  0  0  0  0  0
  -24.3618   -9.4217   21.9188 C   0  0  0  0  0  0
  -23.6301   -8.2252   22.0752 C   0  0  0  0  0  0
  -22.4285   -8.0287   21.3545 C   0  0  0  0  0  0
  -21.9917   -9.0259   20.4647 C   0  0  0  0  0  0
  -22.7236  -10.2141   20.3057 C   0  0  0  0  0  0
  -21.6858   -6.0742   22.5279 C   0  0  0  0  0  0
  -21.4016   -6.5644   23.8209 C   0  0  0  0  0  0
  -21.3658   -5.6796   24.9171 C   0  0  0  0  0  0
  -21.6039   -4.3058   24.7224 C   0  0  0  0  0  0
  -21.8822   -3.8152   23.4346 C   0  0  0  0  0  0
  -21.9197   -4.6970   22.3400 C   0  0  0  0  0  0
  -22.7867  -13.5242   21.1843 C   0  0  0  0  0  0
  -22.1665   -4.2153   21.0980 F   0  0  0  0  0  0
  -21.5632   -3.4540   25.7736 F   0  0  0  0  0  0
  -30.0497  -13.2204   20.4543 N   0  0  0  0  0  0
  -26.3049  -12.9347   20.3422 N   0  0  0  0  0  0
  -25.9329  -11.6504   20.5804 N   0  0  0  0  0  0
  -22.0516  -12.8218   22.0392 N   0  0  0  0  0  0
  -25.4336  -15.1891   20.4098 N   0  0  0  0  0  0
  -31.8849  -14.5092   20.0568 O   0  0  0  0  0  0
  -21.6648   -6.8886   21.4240 O   0  0  0  0  0  0
  -22.3543  -14.5555   20.6704 O   0  0  0  0  0  0
  -24.6092  -31.8741   23.2169 C   0  0  0  0  0  0
  -25.9012  -32.4856   23.8436 C   0  0  1  0  0  0
  -27.2232  -27.4757   20.0771 C   0  0  0  0  0  0
  -25.5895  -33.8652   24.2369 N   0  0  0  0  0  0
  -23.3939  -30.5004   21.5566 C   0  0  2  0  0  0
  -24.8372  -28.9755   20.1164 C   0  0  0  0  0  0
  -22.7378  -29.4689   22.5017 C   0  0  0  0  0  0
  -18.0269  -28.1369   22.8495 C   0  0  0  0  0  0
  -24.1490  -36.7335   23.2634 C   0  0  0  0  0  0
  -25.9206  -30.8475   21.3677 C   0  0  0  0  0  0
  -25.9950  -29.4848   20.7178 C   0  0  0  0  0  0
  -27.1912  -28.7369   20.7046 C   0  0  0  0  0  0
  -26.0564  -26.9925   19.4457 C   0  0  0  0  0  0
  -24.8601  -27.7257   19.4796 C   0  0  0  0  0  0
  -23.5987  -29.8389   20.1683 C   0  0  0  0  0  0
  -25.4101  -36.3131   24.0342 C   0  0  1  0  0  0
  -20.5855  -28.3648   23.1327 C   0  0  2  0  0  0
  -20.6763  -26.9391   22.5410 C   0  0  0  0  0  0
  -19.5736  -26.6383   21.5208 C   0  0  0  0  0  0
  -18.1917  -26.7918   22.1627 C   0  0  0  0  0  0
  -19.1520  -28.8823   23.2914 C   0  0  0  0  0  0
  -18.9446  -30.1435   23.8914 C   0  0  0  0  0  0
  -17.6449  -30.6578   24.0566 C   0  0  0  0  0  0
  -25.9022  -34.9496   23.5151 C   0  0  0  0  0  0
  -16.5341  -29.9080   23.6319 C   0  0  0  0  0  0
  -16.7260  -28.6499   23.0336 C   0  0  0  0  0  0
  -26.4461  -31.6602   25.0736 C   0  0  0  0  0  0
  -25.3755  -31.3687   26.1497 C   0  0  0  0  0  0
  -27.0278  -30.3049   24.6075 C   0  0  0  0  0  0
  -27.6048  -32.4302   25.7497 C   0  0  0  0  0  0
  -27.5583  -37.1823   24.8465 C   0  0  0  0  0  0
  -21.4114  -29.3039   22.3752 N   0  0  0  0  0  0
  -26.4302  -37.3797   23.9409 N   0  0  0  0  0  0
  -24.6589  -31.0872   22.1062 N   0  0  0  0  0  0
  -23.4173  -28.8218   23.3034 O   0  0  0  0  0  0
  -28.4030  -26.7756   20.0387 O   0  0  0  0  0  0
  -26.5569  -34.8937   22.4705 O   0  0  0  0  0  0
  -23.5299  -32.1480   23.7591 O   0  0  0  0  0  0
  -29.6071  -21.5855   16.9867 C   0  0  0  0  0  0
  -28.6786  -22.6196   17.1810 C   0  0  0  0  0  0
  -30.3738  -23.9076   18.3681 C   0  0  0  0  0  0
  -30.8840  -21.6574   17.5895 C   0  0  0  0  0  0
  -31.3076  -22.8688   18.1896 C   0  0  0  0  0  0
  -29.0397  -23.7356   17.9525 C   0  0  0  0  0  0
  -32.7162  -23.0546   18.7265 C   0  0  0  0  0  0
  -31.6670  -20.3672   17.7832 C   0  0  0  0  0  0
  -30.7788  -16.7117   21.1421 C   0  0  0  0  0  0
  -30.7302  -19.3134   18.4113 C   0  0  0  0  0  0
  -30.5200  -17.2662   19.7225 C   0  0  0  0  0  0
  -28.3918  -25.4845   20.6462 C   0  0  0  0  0  0
  -27.7592  -24.3834   19.7756 C   0  0  0  0  0  0
  -30.2273  -15.3605   21.2596 N   0  0  0  0  0  0
  -31.3765  -18.4163   19.3823 N   0  3  0  0  0  0
  -28.0600  -24.5779   18.3897 O   0  0  0  0  0  0
  -31.4448  -12.2933   19.1088 H   0  0  0  0  0  0
  -30.2545  -11.2302   19.7938 H   0  0  0  0  0  0
  -29.7032  -11.7853   17.4056 H   0  0  0  0  0  0
  -29.6663  -13.4874   17.7905 H   0  0  0  0  0  0
  -27.8045  -11.3144   18.8085 H   0  0  0  0  0  0
  -27.3532  -12.6576   17.7935 H   0  0  0  0  0  0
  -27.7189  -14.2564   19.5915 H   0  0  0  0  0  0
  -28.6490  -11.9499   21.3693 H   0  0  0  0  0  0
  -28.4858  -13.6054   21.8693 H   0  0  0  0  0  0
  -25.2765   -9.5689   22.4757 H   0  0  0  0  0  0
  -24.0012   -7.4640   22.7462 H   0  0  0  0  0  0
  -21.0856   -8.8775   19.8951 H   0  0  0  0  0  0
  -22.3700  -10.9679   19.6166 H   0  0  0  0  0  0
  -21.2005   -7.6151   23.9707 H   0  0  0  0  0  0
  -21.1475   -6.0531   25.9073 H   0  0  0  0  0  0
  -22.0605   -2.7615   23.2840 H   0  0  0  0  0  0
  -22.4152  -11.9874   22.4744 H   0  0  0  0  0  0
  -21.1136  -13.1228   22.2632 H   0  0  0  0  0  0
  -24.6697  -15.8478   20.5160 H   0  0  0  0  0  0
  -26.2932  -15.6259   20.1006 H   0  0  0  0  0  0
  -26.7094  -32.5566   23.1211 H   0  0  0  0  0  0
  -25.0073  -33.9830   25.0531 H   0  0  0  0  0  0
  -22.6805  -31.3166   21.4228 H   0  0  0  0  0  0
  -23.3745  -35.9679   23.3313 H   0  0  0  0  0  0
  -24.3591  -36.8926   22.2047 H   0  0  0  0  0  0
  -23.7258  -37.6556   23.6633 H   0  0  0  0  0  0
  -26.0273  -31.6132   20.5975 H   0  0  0  0  0  0
  -26.8100  -30.9021   21.9829 H   0  0  0  0  0  0
  -28.0873  -29.1246   21.1695 H   0  0  0  0  0  0
  -26.0547  -26.0788   18.8773 H   0  0  0  0  0  0
  -23.9784  -27.3409   18.9856 H   0  0  0  0  0  0
  -23.7044  -30.6157   19.4096 H   0  0  0  0  0  0
  -22.7228  -29.2592   19.8725 H   0  0  0  0  0  0
  -25.1282  -36.2013   25.0838 H   0  0  0  0  0  0
  -20.9958  -28.3206   24.1443 H   0  0  0  0  0  0
  -20.5667  -26.2255   23.3590 H   0  0  0  0  0  0
  -21.6632  -26.7442   22.1202 H   0  0  0  0  0  0
  -19.6899  -25.6300   21.1211 H   0  0  0  0  0  0
  -19.6675  -27.3217   20.6757 H   0  0  0  0  0  0
  -17.4191  -26.6664   21.4032 H   0  0  0  0  0  0
  -18.0328  -26.0056   22.9018 H   0  0  0  0  0  0
  -19.7921  -30.7251   24.2285 H   0  0  0  0  0  0
  -17.5001  -31.6252   24.5174 H   0  0  0  0  0  0
  -15.5338  -30.2988   23.7629 H   0  0  0  0  0  0
  -15.8660  -28.0826   22.7031 H   0  0  0  0  0  0
  -24.5934  -30.7022   25.7849 H   0  0  0  0  0  0
  -24.8933  -32.2835   26.4960 H   0  0  0  0  0  0
  -25.8118  -30.8860   27.0246 H   0  0  0  0  0  0
  -26.2812  -29.6825   24.1127 H   0  0  0  0  0  0
  -27.4072  -29.7259   25.4506 H   0  0  0  0  0  0
  -27.8642  -30.4383   23.9204 H   0  0  0  0  0  0
  -27.2681  -33.3587   26.2113 H   0  0  0  0  0  0
  -28.3834  -32.6870   25.0307 H   0  0  0  0  0  0
  -28.0741  -31.8400   26.5377 H   0  0  0  0  0  0
  -28.2608  -38.0110   24.7497 H   0  0  0  0  0  0
  -28.1068  -36.2641   24.6308 H   0  0  0  0  0  0
  -27.2298  -37.1496   25.8866 H   0  0  0  0  0  0
  -20.9259  -29.8792   21.7011 H   0  0  0  0  0  0
  -26.0198  -38.2888   24.1385 H   0  0  0  0  0  0
  -29.2782  -20.6814   16.4927 H   0  0  0  0  0  0
  -27.6612  -22.5044   16.8352 H   0  0  0  0  0  0
  -30.6577  -24.8009   18.9039 H   0  0  0  0  0  0
  -32.8184  -22.5963   19.7108 H   0  0  0  0  0  0
  -32.9667  -24.1118   18.8189 H   0  0  0  0  0  0
  -33.4521  -22.6130   18.0531 H   0  0  0  0  0  0
  -32.5347  -20.5202   18.4230 H   0  0  0  0  0  0
  -32.0478  -20.0208   16.8210 H   0  0  0  0  0  0
  -30.3125  -17.3569   21.8878 H   0  0  0  0  0  0
  -31.8470  -16.7003   21.3730 H   0  0  0  0  0  0
  -30.2555  -18.7384   17.6148 H   0  0  0  0  0  0
  -29.9226  -19.7987   18.9624 H   0  0  0  0  0  0
  -29.4668  -17.5479   19.6625 H   0  0  0  0  0  0
  -30.6709  -16.5232   18.9392 H   0  0  0  0  0  0
  -29.4296  -25.2206   20.8477 H   0  0  0  0  0  0
  -27.9051  -25.5251   21.6219 H   0  0  0  0  0  0
  -26.6781  -24.3612   19.9043 H   0  0  0  0  0  0
  -28.0886  -23.4070   20.1390 H   0  0  0  0  0  0
  -29.3300  -15.2238   21.7028 H   0  0  0  0  0  0
  -31.5701  -18.9403   20.2207 H   0  0  0  0  0  0
  -32.2499  -18.0745   19.0143 H   0  0  0  0  0  0
  1 25  1  0  0  0
  1 30  2  0  0  0
  1 84  1  0  0  0
  2  3  1  0  0  0
  2 25  1  0  0  0
  2 87  1  0  0  0
  2 88  1  0  0  0
  3  4  1  0  0  0
  3 89  1  0  0  0
  3 90  1  0  0  0
  4  5  1  0  0  0
  4 91  1  0  0  0
  4 92  1  0  0  0
  5  6  1  0  0  0
  5 26  1  0  0  0
  5 93  1  0  0  0
  6 25  1  0  0  0
  6 94  1  0  0  0
  6 95  1  0  0  0
  7  8  2  0  0  0
  7 26  1  0  0  0
  7 29  1  0  0  0
  8  9  1  0  0  0
  8 22  1  0  0  0
  9 10  1  0  0  0
  9 27  2  0  0  0
 10 11  2  0  0  0
 10 15  1  0  0  0
 11 12  1  0  0  0
 11 96  1  0  0  0
 12 13  2  0  0  0
 12 97  1  0  0  0
 13 14  1  0  0  0
 13 31  1  0  0  0
 14 15  2  0  0  0
 14 98  1  0  0  0
 15 99  1  0  0  0
 16 17  2  0  0  0
 16 21  1  0  0  0
 16 31  1  0  0  0
 17 18  1  0  0  0
 17100  1  0  0  0
 18 19  2  0  0  0
 18101  1  0  0  0
 19 20  1  0  0  0
 19 24  1  0  0  0
 20 21  2  0  0  0
 20102  1  0  0  0
 21 23  1  0  0  0
 22 28  1  0  0  0
 22 32  2  0  0  0
 26 27  1  0  0  0
 28103  1  0  0  0
 28104  1  0  0  0
 29105  1  0  0  0
 29106  1  0  0  0
 33 34  1  0  0  0
 33 66  1  0  0  0
 33 70  2  0  0  0
 34 36  1  0  0  0
 34 59  1  0  0  0
 34107  1  0  0  0
 35 44  2  0  0  0
 35 45  1  0  0  0
 35 68  1  0  0  0
 36 56  1  0  0  0
 36108  1  0  0  0
 37 39  1  0  0  0
 37 47  1  0  0  0
 37 66  1  0  0  0
 37109  1  0  0  0
 38 43  2  0  0  0
 38 46  1  0  0  0
 38 47  1  0  0  0
 39 64  1  0  0  0
 39 67  2  0  0  0
 40 52  1  0  0  0
 40 53  2  0  0  0
 40 58  1  0  0  0
 41110  1  0  0  0
 41111  1  0  0  0
 41112  1  0  0  0
 41 48  1  0  0  0
 42 43  1  0  0  0
 42 66  1  0  0  0
 42113  1  0  0  0
 42114  1  0  0  0
 43 44  1  0  0  0
 44115  1  0  0  0
 45 46  2  0  0  0
 45116  1  0  0  0
 46117  1  0  0  0
 47118  1  0  0  0
 47119  1  0  0  0
 48 56  1  0  0  0
 48 65  1  0  0  0
 48120  1  0  0  0
 49 50  1  0  0  0
 49 53  1  0  0  0
 49 64  1  0  0  0
 49121  1  0  0  0
 50 51  1  0  0  0
 50122  1  0  0  0
 50123  1  0  0  0
 51 52  1  0  0  0
 51124  1  0  0  0
 51125  1  0  0  0
 52126  1  0  0  0
 52127  1  0  0  0
 53 54  1  0  0  0
 54 55  2  0  0  0
 54128  1  0  0  0
 55 57  1  0  0  0
 55129  1  0  0  0
 56 69  2  0  0  0
 57 58  2  0  0  0
 57130  1  0  0  0
 58131  1  0  0  0
 59 60  1  0  0  0
 59 61  1  0  0  0
 59 62  1  0  0  0
 60132  1  0  0  0
 60133  1  0  0  0
 60134  1  0  0  0
 61135  1  0  0  0
 61136  1  0  0  0
 61137  1  0  0  0
 62138  1  0  0  0
 62139  1  0  0  0
 62140  1  0  0  0
 63 65  1  0  0  0
 63141  1  0  0  0
 63142  1  0  0  0
 63143  1  0  0  0
 64144  1  0  0  0
 65145  1  0  0  0
 68 82  1  0  0  0
 71 72  2  0  0  0
 71 74  1  0  0  0
 71146  1  0  0  0
 72 76  1  0  0  0
 72147  1  0  0  0
 73 75  1  0  0  0
 73 76  2  0  0  0
 73148  1  0  0  0
 74 75  2  0  0  0
 74 78  1  0  0  0
 75 77  1  0  0  0
 76 86  1  0  0  0
 77149  1  0  0  0
 77150  1  0  0  0
 77151  1  0  0  0
 78 80  1  0  0  0
 78152  1  0  0  0
 78153  1  0  0  0
 79 81  1  0  0  0
 79 84  1  0  0  0
 79154  1  0  0  0
 79155  1  0  0  0
 80 85  1  0  0  0
 80156  1  0  0  0
 80157  1  0  0  0
 81 85  1  0  0  0
 81158  1  0  0  0
 81159  1  0  0  0
 82 83  1  0  0  0
 82160  1  0  0  0
 82161  1  0  0  0
 83 86  1  0  0  0
 83162  1  0  0  0
 83163  1  0  0  0
 84164  1  0  0  0
 85165  1  0  0  0
 85166  1  0  0  0
M  CHG  1  85   1
M  ISO  4   1 100  68 101  82 101  84 100
M  END
> <chiral flag>
0

> <version>
0

> <s_m_source_file>
/data/baiqing/PycharmProjects/Reinvent-master-3.2/result/LINK_invent/BTK/process_docking_weight1_custom_sum_contain_oxygen_bond_distance_aromatic_linkinvent_7_9_3/rearranged_h_0131.sdf

> <i_m_source_file_index>
23

> <r_mmod_Potential_Energy-OPLS-2005>
-206.276901245117

> <r_mmod_Stretch_Energy-OPLS-2005>
31.0570621490479

> <r_mmod_Bend_Energy-OPLS-2005>
93.0806732177734

> <r_mmod_Torsional_Energy-OPLS-2005>
293.569213867188

> <r_mmod_Improper_Torsional_Energy-OPLS-2005>
5.84780311584473

> <r_mmod_Van_der_Waal_Energy-OPLS-2005>
175.547424316406

> <r_mmod_Electrostatic_Energy-OPLS-2005>
-337.812469482422

> <r_mmod_Solvation_Energy-OPLS-2005>
-479.068725585938

> <b_mmod_Minimization_Converged-OPLS-2005>
0

> <r_mmod_RMS_Derivative-OPLS-2005>
1.75509786605835

$$$$
23
                    3D
 Structure written by MMmdl.
173183  0  0  1  0            999 V2000
  -30.7817  -14.3404   20.6949 C   0  0  0  0  0  0
  -30.4106  -12.2774   19.3907 C   0  0  0  0  0  0
  -29.4797  -12.5259   18.1897 C   0  0  0  0  0  0
  -28.0052  -12.3817   18.6076 C   0  0  0  0  0  0
  -27.6667  -13.2020   19.8798 C   0  0  2  0  0  0
  -28.7033  -12.9375   20.9944 C   0  0  0  0  0  0
  -25.2604  -13.8161   20.5671 C   0  0  0  0  0  0
  -24.1844  -13.0442   20.9163 C   0  0  0  0  0  0
  -24.6386  -11.6909   20.8720 C   0  0  0  0  0  0
  -23.9051  -10.4295   21.0396 C   0  0  0  0  0  0
  -24.3607   -9.4214   21.9182 C   0  0  0  0  0  0
  -23.6281   -8.2248   22.0750 C   0  0  0  0  0  0
  -22.4268   -8.0280   21.3540 C   0  0  0  0  0  0
  -21.9907   -9.0250   20.4641 C   0  0  0  0  0  0
  -22.7226  -10.2134   20.3046 C   0  0  0  0  0  0
  -21.6850   -6.0735   22.5276 C   0  0  0  0  0  0
  -21.4014   -6.5638   23.8209 C   0  0  0  0  0  0
  -21.3658   -5.6792   24.9176 C   0  0  0  0  0  0
  -21.6041   -4.3053   24.7225 C   0  0  0  0  0  0
  -21.8824   -3.8148   23.4346 C   0  0  0  0  0  0
  -21.9193   -4.6963   22.3401 C   0  0  0  0  0  0
  -22.7870  -13.5235   21.1835 C   0  0  0  0  0  0
  -22.1662   -4.2148   21.0981 F   0  0  0  0  0  0
  -21.5632   -3.4535   25.7737 F   0  0  0  0  0  0
  -30.0518  -13.2185   20.4626 N   0  0  0  0  0  0
  -26.3046  -12.9322   20.3378 N   0  0  0  0  0  0
  -25.9310  -11.6483   20.5744 N   0  0  0  0  0  0
  -22.0516  -12.8220   22.0396 N   0  0  0  0  0  0
  -25.4340  -15.1874   20.4082 N   0  0  0  0  0  0
  -31.7812  -14.6336   20.0314 O   0  0  0  0  0  0
  -21.6633   -6.8879   21.4236 O   0  0  0  0  0  0
  -22.3553  -14.5542   20.6690 O   0  0  0  0  0  0
  -24.6086  -31.8708   23.2115 C   0  0  0  0  0  0
  -25.9003  -32.4830   23.8401 C   0  0  1  0  0  0
  -27.2408  -27.4808   20.0851 C   0  0  0  0  0  0
  -25.5886  -33.8623   24.2342 N   0  0  0  0  0  0
  -23.3950  -30.4920   21.5509 C   0  0  2  0  0  0
  -24.8452  -28.9621   20.1134 C   0  0  0  0  0  0
  -22.7385  -29.4655   22.5004 C   0  0  0  0  0  0
  -18.0266  -28.1366   22.8491 C   0  0  0  0  0  0
  -24.1487  -36.7314   23.2643 C   0  0  0  0  0  0
  -25.9185  -30.8486   21.3597 C   0  0  0  0  0  0
  -25.9990  -29.4855   20.7103 C   0  0  0  0  0  0
  -27.1999  -28.7493   20.7012 C   0  0  0  0  0  0
  -26.0800  -26.9627   19.4786 C   0  0  0  0  0  0
  -24.8774  -27.6959   19.4982 C   0  0  0  0  0  0
  -23.6015  -29.8198   20.1656 C   0  0  0  0  0  0
  -25.4102  -36.3105   24.0349 C   0  0  1  0  0  0
  -20.5851  -28.3635   23.1340 C   0  0  2  0  0  0
  -20.6748  -26.9374   22.5428 C   0  0  0  0  0  0
  -19.5735  -26.6364   21.5209 C   0  0  0  0  0  0
  -18.1906  -26.7919   22.1608 C   0  0  0  0  0  0
  -19.1514  -28.8820   23.2912 C   0  0  0  0  0  0
  -18.9447  -30.1441   23.8899 C   0  0  0  0  0  0
  -17.6451  -30.6581   24.0553 C   0  0  0  0  0  0
  -25.9032  -34.9477   23.5143 C   0  0  0  0  0  0
  -16.5345  -29.9079   23.6318 C   0  0  0  0  0  0
  -16.7257  -28.6498   23.0335 C   0  0  0  0  0  0
  -26.4436  -31.6591   25.0709 C   0  0  0  0  0  0
  -25.3713  -31.3707   26.1462 C   0  0  0  0  0  0
  -27.0257  -30.3034   24.6045 C   0  0  0  0  0  0
  -27.6013  -32.4298   25.7485 C   0  0  0  0  0  0
  -27.5586  -37.1808   24.8460 C   0  0  0  0  0  0
  -21.4118  -29.3014   22.3752 N   0  0  0  0  0  0
  -26.4291  -37.3785   23.9414 N   0  0  0  0  0  0
  -24.6586  -31.0839   22.0996 N   0  0  0  0  0  0
  -23.4186  -28.8197   23.3023 O   0  0  0  0  0  0
  -28.3891  -26.7341   20.0705 O   0  0  0  0  0  0
  -26.5583  -34.8926   22.4697 O   0  0  0  0  0  0
  -23.5291  -32.1440   23.7540 O   0  0  0  0  0  0
  -30.9409  -17.8863   24.1127 C   0  0  0  0  0  0
  -32.0203  -18.4455   22.0032 C   0  0  0  0  0  0
  -30.5233  -16.6549   23.5706 C   0  0  0  0  0  0
  -31.6061  -17.2146   21.4627 C   0  0  0  0  0  0
  -31.6890  -18.7902   23.3296 C   0  0  0  0  0  0
  -30.8580  -16.3017   22.2462 C   0  0  0  0  0  0
  -28.9202  -22.1770   23.1217 C   0  0  0  0  0  0
  -30.3212  -23.4138   24.7912 C   0  0  0  0  0  0
  -30.2062  -26.7040   21.7325 C   0  0  0  0  0  0
  -30.1059  -21.2245   22.8650 C   0  0  0  0  0  0
  -31.4747  -22.4273   24.5227 C   0  0  0  0  0  0
  -30.5098  -25.7198   22.8623 C   0  0  0  0  0  0
  -28.8439  -24.7706   21.4468 C   0  0  0  0  0  0
  -29.3578  -23.5851   23.5907 C   0  0  1  0  0  0
  -28.7917  -26.2958   21.3660 C   0  0  2  0  0  0
  -32.1151  -20.1410   23.8925 C   0  0  0  0  0  0
  -30.3824  -15.0526   21.7608 N   0  0  0  0  0  0
  -29.8746  -24.4335   22.4682 N   0  3  2  0  0  0
  -30.9896  -21.1007   24.0582 N   0  3  2  0  0  0
  -31.4545  -12.3679   19.0839 H   0  0  0  0  0  0
  -30.2996  -11.2528   19.7499 H   0  0  0  0  0  0
  -29.7074  -11.8259   17.3846 H   0  0  0  0  0  0
  -29.6544  -13.5248   17.7867 H   0  0  0  0  0  0
  -27.8102  -11.3236   18.7848 H   0  0  0  0  0  0
  -27.3502  -12.6760   17.7862 H   0  0  0  0  0  0
  -27.7282  -14.2567   19.6107 H   0  0  0  0  0  0
  -28.6563  -11.8942   21.3103 H   0  0  0  0  0  0
  -28.4461  -13.5157   21.8821 H   0  0  0  0  0  0
  -25.2752   -9.5693   22.4760 H   0  0  0  0  0  0
  -23.9990   -7.4647   22.7474 H   0  0  0  0  0  0
  -21.0842   -8.8763   19.8947 H   0  0  0  0  0  0
  -22.3678  -10.9671   19.6154 H   0  0  0  0  0  0
  -21.2004   -7.6149   23.9713 H   0  0  0  0  0  0
  -21.1476   -6.0524   25.9078 H   0  0  0  0  0  0
  -22.0607   -2.7608   23.2848 H   0  0  0  0  0  0
  -22.4128  -11.9869   22.4767 H   0  0  0  0  0  0
  -21.1136  -13.1242   22.2604 H   0  0  0  0  0  0
  -24.6724  -15.8491   20.5180 H   0  0  0  0  0  0
  -26.2977  -15.6239   20.1093 H   0  0  0  0  0  0
  -26.7078  -32.5565   23.1178 H   0  0  0  0  0  0
  -25.0037  -33.9777   25.0490 H   0  0  0  0  0  0
  -22.6807  -31.3061   21.4124 H   0  0  0  0  0  0
  -23.3753  -35.9640   23.3278 H   0  0  0  0  0  0
  -24.3609  -36.8952   22.2066 H   0  0  0  0  0  0
  -23.7229  -37.6511   23.6674 H   0  0  0  0  0  0
  -26.0250  -31.6161   20.5918 H   0  0  0  0  0  0
  -26.8091  -30.9054   21.9732 H   0  0  0  0  0  0
  -28.0914  -29.1556   21.1588 H   0  0  0  0  0  0
  -26.1067  -25.9923   19.0028 H   0  0  0  0  0  0
  -23.9896  -27.2865   19.0359 H   0  0  0  0  0  0
  -23.6985  -30.5922   19.4025 H   0  0  0  0  0  0
  -22.7292  -29.2304   19.8765 H   0  0  0  0  0  0
  -25.1266  -36.1971   25.0839 H   0  0  0  0  0  0
  -20.9945  -28.3190   24.1458 H   0  0  0  0  0  0
  -20.5633  -26.2232   23.3600 H   0  0  0  0  0  0
  -21.6624  -26.7396   22.1240 H   0  0  0  0  0  0
  -19.6889  -25.6276   21.1236 H   0  0  0  0  0  0
  -19.6692  -27.3167   20.6735 H   0  0  0  0  0  0
  -17.4184  -26.6693   21.3999 H   0  0  0  0  0  0
  -18.0286  -26.0055   22.8990 H   0  0  0  0  0  0
  -19.7925  -30.7258   24.2263 H   0  0  0  0  0  0
  -17.5009  -31.6261   24.5156 H   0  0  0  0  0  0
  -15.5346  -30.2983   23.7647 H   0  0  0  0  0  0
  -15.8656  -28.0831   22.7026 H   0  0  0  0  0  0
  -24.5848  -30.7090   25.7809 H   0  0  0  0  0  0
  -24.8931  -32.2880   26.4913 H   0  0  0  0  0  0
  -25.8060  -30.8869   27.0217 H   0  0  0  0  0  0
  -26.2791  -29.6851   24.1044 H   0  0  0  0  0  0
  -27.3979  -29.7206   25.4481 H   0  0  0  0  0  0
  -27.8645  -30.4362   23.9212 H   0  0  0  0  0  0
  -27.2601  -33.3570   26.2107 H   0  0  0  0  0  0
  -28.3802  -32.6913   25.0313 H   0  0  0  0  0  0
  -28.0694  -31.8394   26.5372 H   0  0  0  0  0  0
  -28.2577  -38.0128   24.7524 H   0  0  0  0  0  0
  -28.1109  -36.2662   24.6255 H   0  0  0  0  0  0
  -27.2322  -37.1415   25.8865 H   0  0  0  0  0  0
  -20.9263  -29.8765   21.7006 H   0  0  0  0  0  0
  -26.0185  -38.2866   24.1413 H   0  0  0  0  0  0
  -30.6735  -18.1325   25.1314 H   0  0  0  0  0  0
  -32.5899  -19.1268   21.3856 H   0  0  0  0  0  0
  -29.9432  -15.9816   24.1867 H   0  0  0  0  0  0
  -31.8678  -17.0042   20.4363 H   0  0  0  0  0  0
  -28.2873  -21.7369   23.8932 H   0  0  0  0  0  0
  -28.2900  -22.2217   22.2334 H   0  0  0  0  0  0
  -30.7200  -24.3672   25.1362 H   0  0  0  0  0  0
  -29.7427  -23.0377   25.6366 H   0  0  0  0  0  0
  -30.8812  -26.5397   20.8911 H   0  0  0  0  0  0
  -30.2854  -27.7464   22.0401 H   0  0  0  0  0  0
  -30.6895  -21.5606   22.0069 H   0  0  0  0  0  0
  -29.6942  -20.2521   22.5911 H   0  0  0  0  0  0
  -32.0554  -22.3001   25.4373 H   0  0  0  0  0  0
  -32.1571  -22.8504   23.7833 H   0  0  0  0  0  0
  -30.0529  -26.0990   23.7789 H   0  0  0  0  0  0
  -31.5798  -25.6134   23.0452 H   0  0  0  0  0  0
  -29.1654  -24.3553   20.4899 H   0  0  0  0  0  0
  -27.8522  -24.3692   21.6592 H   0  0  0  0  0  0
  -28.4735  -24.1018   23.9707 H   0  0  0  0  0  0
  -28.1206  -26.6501   22.1533 H   0  0  0  0  0  0
  -32.8713  -20.5776   23.2377 H   0  0  0  0  0  0
  -32.6036  -19.9802   24.8546 H   0  0  0  0  0  0
  -29.6414  -14.6211   22.2926 H   0  0  0  0  0  0
  -30.5908  -23.9218   21.9732 H   0  0  0  0  0  0
  -30.4255  -20.7146   24.8012 H   0  0  0  0  0  0
  1 25  1  0  0  0
  1 30  2  0  0  0
  1 87  1  0  0  0
  2  3  1  0  0  0
  2 25  1  0  0  0
  2 90  1  0  0  0
  2 91  1  0  0  0
  3  4  1  0  0  0
  3 92  1  0  0  0
  3 93  1  0  0  0
  4  5  1  0  0  0
  4 94  1  0  0  0
  4 95  1  0  0  0
  5  6  1  0  0  0
  5 26  1  0  0  0
  5 96  1  0  0  0
  6 25  1  0  0  0
  6 97  1  0  0  0
  6 98  1  0  0  0
  7  8  2  0  0  0
  7 26  1  0  0  0
  7 29  1  0  0  0
  8  9  1  0  0  0
  8 22  1  0  0  0
  9 10  1  0  0  0
  9 27  2  0  0  0
 10 11  2  0  0  0
 10 15  1  0  0  0
 11 12  1  0  0  0
 11 99  1  0  0  0
 12 13  2  0  0  0
 12100  1  0  0  0
 13 14  1  0  0  0
 13 31  1  0  0  0
 14 15  2  0  0  0
 14101  1  0  0  0
 15102  1  0  0  0
 16 17  2  0  0  0
 16 21  1  0  0  0
 16 31  1  0  0  0
 17 18  1  0  0  0
 17103  1  0  0  0
 18 19  2  0  0  0
 18104  1  0  0  0
 19 20  1  0  0  0
 19 24  1  0  0  0
 20 21  2  0  0  0
 20105  1  0  0  0
 21 23  1  0  0  0
 22 28  1  0  0  0
 22 32  2  0  0  0
 26 27  1  0  0  0
 28106  1  0  0  0
 28107  1  0  0  0
 29108  1  0  0  0
 29109  1  0  0  0
 33 34  1  0  0  0
 33 66  1  0  0  0
 33 70  2  0  0  0
 34 36  1  0  0  0
 34 59  1  0  0  0
 34110  1  0  0  0
 35 44  2  0  0  0
 35 45  1  0  0  0
 35 68  1  0  0  0
 36 56  1  0  0  0
 36111  1  0  0  0
 37 39  1  0  0  0
 37 47  1  0  0  0
 37 66  1  0  0  0
 37112  1  0  0  0
 38 43  2  0  0  0
 38 46  1  0  0  0
 38 47  1  0  0  0
 39 64  1  0  0  0
 39 67  2  0  0  0
 40 52  1  0  0  0
 40 53  2  0  0  0
 40 58  1  0  0  0
 41113  1  0  0  0
 41114  1  0  0  0
 41115  1  0  0  0
 41 48  1  0  0  0
 42 43  1  0  0  0
 42 66  1  0  0  0
 42116  1  0  0  0
 42117  1  0  0  0
 43 44  1  0  0  0
 44118  1  0  0  0
 45 46  2  0  0  0
 45119  1  0  0  0
 46120  1  0  0  0
 47121  1  0  0  0
 47122  1  0  0  0
 48 56  1  0  0  0
 48 65  1  0  0  0
 48123  1  0  0  0
 49 50  1  0  0  0
 49 53  1  0  0  0
 49 64  1  0  0  0
 49124  1  0  0  0
 50 51  1  0  0  0
 50125  1  0  0  0
 50126  1  0  0  0
 51 52  1  0  0  0
 51127  1  0  0  0
 51128  1  0  0  0
 52129  1  0  0  0
 52130  1  0  0  0
 53 54  1  0  0  0
 54 55  2  0  0  0
 54131  1  0  0  0
 55 57  1  0  0  0
 55132  1  0  0  0
 56 69  2  0  0  0
 57 58  2  0  0  0
 57133  1  0  0  0
 58134  1  0  0  0
 59 60  1  0  0  0
 59 61  1  0  0  0
 59 62  1  0  0  0
 60135  1  0  0  0
 60136  1  0  0  0
 60137  1  0  0  0
 61138  1  0  0  0
 61139  1  0  0  0
 61140  1  0  0  0
 62141  1  0  0  0
 62142  1  0  0  0
 62143  1  0  0  0
 63 65  1  0  0  0
 63144  1  0  0  0
 63145  1  0  0  0
 63146  1  0  0  0
 64147  1  0  0  0
 65148  1  0  0  0
 68 85  1  0  0  0
 71 73  2  0  0  0
 71 75  1  0  0  0
 71149  1  0  0  0
 72 74  1  0  0  0
 72 75  2  0  0  0
 72150  1  0  0  0
 73 76  1  0  0  0
 73151  1  0  0  0
 74 76  2  0  0  0
 74152  1  0  0  0
 75 86  1  0  0  0
 76 87  1  0  0  0
 77 80  1  0  0  0
 77153  1  0  0  0
 77154  1  0  0  0
 77 84  1  0  0  0
 78 81  1  0  0  0
 78 84  1  0  0  0
 78155  1  0  0  0
 78156  1  0  0  0
 79 82  1  0  0  0
 79 85  1  0  0  0
 79157  1  0  0  0
 79158  1  0  0  0
 80 89  1  0  0  0
 80159  1  0  0  0
 80160  1  0  0  0
 81 89  1  0  0  0
 81161  1  0  0  0
 81162  1  0  0  0
 82163  1  0  0  0
 82164  1  0  0  0
 82 88  1  0  0  0
 83 85  1  0  0  0
 83 88  1  0  0  0
 83165  1  0  0  0
 83166  1  0  0  0
 84 88  1  0  0  0
 84167  1  0  0  0
 85168  1  0  0  0
 86169  1  0  0  0
 86170  1  0  0  0
 86 89  1  0  0  0
 87171  1  0  0  0
 88172  1  0  0  0
 89173  1  0  0  0
M  CHG  2  88   1  89   1
M  ISO  4   1 100  68 101  85 101  87 100
M  END
> <chiral flag>
0

> <version>
0

> <s_m_source_file>
/data/baiqing/PycharmProjects/Reinvent-master-3.2/result/LINK_invent/BTK/process_docking_weight1_custom_sum_contain_oxygen_bond_distance_aromatic_linkinvent_7_9_3/rearranged_h_0131.sdf

> <i_m_source_file_index>
24

> <r_mmod_Potential_Energy-OPLS-2005>
-188.09928894043

> <r_mmod_Stretch_Energy-OPLS-2005>
35.8792915344238

> <r_mmod_Bend_Energy-OPLS-2005>
130.130767822266

> <r_mmod_Torsional_Energy-OPLS-2005>
324.466735839844

> <r_mmod_Improper_Torsional_Energy-OPLS-2005>
2.2247314453125

> <r_mmod_Van_der_Waal_Energy-OPLS-2005>
162.56770324707

> <r_mmod_Electrostatic_Energy-OPLS-2005>
105.33837890625

> <r_mmod_Solvation_Energy-OPLS-2005>
-955.217224121094

> <b_mmod_Minimization_Converged-OPLS-2005>
0

> <r_mmod_RMS_Derivative-OPLS-2005>
1.45450961589813

$$$$
24
                    3D
 Structure written by MMmdl.
166174  0  0  1  0            999 V2000
  -30.6121  -14.6120   20.4102 C   0  0  0  0  0  0
  -30.4396  -12.3532   19.4413 C   0  0  0  0  0  0
  -29.5149  -12.4591   18.2121 C   0  0  0  0  0  0
  -28.0327  -12.3093   18.6222 C   0  0  0  0  0  0
  -27.6480  -13.2011   19.8307 C   0  0  2  0  0  0
  -28.6896  -13.0735   20.9644 C   0  0  0  0  0  0
  -25.2536  -13.7965   20.5384 C   0  0  0  0  0  0
  -24.1832  -13.0356   20.9157 C   0  0  0  0  0  0
  -24.6409  -11.6818   20.8805 C   0  0  0  0  0  0
  -23.9068  -10.4235   21.0475 C   0  0  0  0  0  0
  -24.3612   -9.4132   21.9234 C   0  0  0  0  0  0
  -23.6255   -8.2194   22.0773 C   0  0  0  0  0  0
  -22.4237   -8.0269   21.3561 C   0  0  0  0  0  0
  -21.9906   -9.0259   20.4667 C   0  0  0  0  0  0
  -22.7261  -10.2108   20.3084 C   0  0  0  0  0  0
  -21.6806   -6.0716   22.5296 C   0  0  0  0  0  0
  -21.3986   -6.5611   23.8243 C   0  0  0  0  0  0
  -21.3640   -5.6756   24.9198 C   0  0  0  0  0  0
  -21.6036   -4.3028   24.7241 C   0  0  0  0  0  0
  -21.8818   -3.8128   23.4367 C   0  0  0  0  0  0
  -21.9184   -4.6946   22.3422 C   0  0  0  0  0  0
  -22.7846  -13.5193   21.1839 C   0  0  0  0  0  0
  -22.1639   -4.2129   21.0999 F   0  0  0  0  0  0
  -21.5636   -3.4517   25.7764 F   0  0  0  0  0  0
  -30.0078  -13.3877   20.3916 N   0  0  0  0  0  0
  -26.2971  -12.9181   20.3094 N   0  0  0  0  0  0
  -25.9337  -11.6370   20.5768 N   0  0  0  0  0  0
  -22.0451  -12.8263   22.0413 N   0  0  0  0  0  0
  -25.4270  -15.1561   20.3316 N   0  0  0  0  0  0
  -31.8057  -14.7605   20.1325 O   0  0  0  0  0  0
  -21.6575   -6.8875   21.4263 O   0  0  0  0  0  0
  -22.3573  -14.5507   20.6652 O   0  0  0  0  0  0
  -24.6179  -31.8644   23.2044 C   0  0  0  0  0  0
  -25.9072  -32.4810   23.8335 C   0  0  1  0  0  0
  -27.2423  -27.3878   20.0892 C   0  0  0  0  0  0
  -25.5930  -33.8600   24.2301 N   0  0  0  0  0  0
  -23.4075  -30.4863   21.5504 C   0  0  2  0  0  0
  -24.8549  -28.9377   20.1206 C   0  0  0  0  0  0
  -22.7401  -29.4630   22.5011 C   0  0  0  0  0  0
  -18.0251  -28.1369   22.8413 C   0  0  0  0  0  0
  -24.1488  -36.7305   23.2634 C   0  0  0  0  0  0
  -25.9414  -30.8097   21.3641 C   0  0  0  0  0  0
  -26.0201  -29.4409   20.7130 C   0  0  0  0  0  0
  -27.2190  -28.6808   20.6799 C   0  0  0  0  0  0
  -26.0577  -26.9066   19.4897 C   0  0  0  0  0  0
  -24.8753  -27.6752   19.5013 C   0  0  0  0  0  0
  -23.6182  -29.8125   20.1676 C   0  0  0  0  0  0
  -25.4108  -36.3102   24.0332 C   0  0  1  0  0  0
  -20.5830  -28.3625   23.1425 C   0  0  2  0  0  0
  -20.6773  -26.9343   22.5474 C   0  0  0  0  0  0
  -19.5758  -26.6419   21.5206 C   0  0  0  0  0  0
  -18.1930  -26.7898   22.1593 C   0  0  0  0  0  0
  -19.1455  -28.8758   23.3029 C   0  0  0  0  0  0
  -18.9387  -30.1267   23.9232 C   0  0  0  0  0  0
  -17.6385  -30.6501   24.0724 C   0  0  0  0  0  0
  -25.9036  -34.9467   23.5109 C   0  0  0  0  0  0
  -16.5333  -29.9182   23.6044 C   0  0  0  0  0  0
  -16.7252  -28.6619   23.0014 C   0  0  0  0  0  0
  -26.4479  -31.6574   25.0662 C   0  0  0  0  0  0
  -25.3717  -31.3705   26.1392 C   0  0  0  0  0  0
  -27.0343  -30.3004   24.6069 C   0  0  0  0  0  0
  -27.6035  -32.4315   25.7433 C   0  0  0  0  0  0
  -27.5584  -37.1799   24.8469 C   0  0  0  0  0  0
  -21.4091  -29.3114   22.3899 N   0  0  0  0  0  0
  -26.4299  -37.3786   23.9416 N   0  0  0  0  0  0
  -24.6745  -31.0683   22.0984 N   0  0  0  0  0  0
  -23.4196  -28.8092   23.2975 O   0  0  0  0  0  0
  -28.4113  -26.6381   20.0492 O   0  0  0  0  0  0
  -26.5584  -34.8919   22.4661 O   0  0  0  0  0  0
  -23.5363  -32.1437   23.7403 O   0  0  0  0  0  0
  -27.6196  -17.8409   20.7622 C   0  0  0  0  0  0
  -27.6253  -19.9764   20.1625 C   0  0  0  0  0  0
  -26.8308  -19.0302   20.7206 C   0  0  0  0  0  0
  -28.8839  -18.0912   20.2853 C   0  0  0  0  0  0
  -25.3093  -19.3965   22.6990 C   0  0  0  0  0  0
  -24.4387  -18.2089   20.6380 C   0  0  0  0  0  0
  -30.0669  -17.1078   20.1565 C   0  0  0  0  0  0
  -30.0078  -20.3110   19.4460 C   0  0  0  0  0  0
  -29.6638  -21.7772   18.9448 C   0  0  0  0  0  0
  -28.9542  -24.1981   19.4232 C   0  0  0  0  0  0
  -28.3616  -25.2337   20.4518 C   0  0  0  0  0  0
  -25.4003  -19.2669   21.1704 C   0  0  0  0  0  0
  -28.8949  -19.4707   19.9362 N   0  0  0  0  0  0
  -29.7644  -15.6774   20.4643 N   0  0  0  0  0  0
  -29.1991  -22.7993   19.9554 N   0  3  0  0  0  0
  -31.4823  -12.4685   19.1478 H   0  0  0  0  0  0
  -30.3726  -11.3640   19.8954 H   0  0  0  0  0  0
  -29.7784  -11.6960   17.4789 H   0  0  0  0  0  0
  -29.6690  -13.4180   17.7163 H   0  0  0  0  0  0
  -27.8742  -11.2631   18.8783 H   0  0  0  0  0  0
  -27.3838  -12.5071   17.7672 H   0  0  0  0  0  0
  -27.6594  -14.2258   19.4610 H   0  0  0  0  0  0
  -28.6886  -12.0595   21.3652 H   0  0  0  0  0  0
  -28.4516  -13.7374   21.7978 H   0  0  0  0  0  0
  -25.2771   -9.5524   22.4793 H   0  0  0  0  0  0
  -23.9926   -7.4536   22.7475 H   0  0  0  0  0  0
  -21.0837   -8.8804   19.8967 H   0  0  0  0  0  0
  -22.3795  -10.9649   19.6161 H   0  0  0  0  0  0
  -21.1949   -7.6110   23.9753 H   0  0  0  0  0  0
  -21.1459   -6.0476   25.9107 H   0  0  0  0  0  0
  -22.0624   -2.7594   23.2884 H   0  0  0  0  0  0
  -22.4000  -11.9879   22.4754 H   0  0  0  0  0  0
  -21.1097  -13.1382   22.2653 H   0  0  0  0  0  0
  -24.6391  -15.7917   20.3839 H   0  0  0  0  0  0
  -26.2314  -15.5722   19.8806 H   0  0  0  0  0  0
  -26.7116  -32.5485   23.1071 H   0  0  0  0  0  0
  -25.0164  -33.9770   25.0497 H   0  0  0  0  0  0
  -22.6965  -31.3028   21.4090 H   0  0  0  0  0  0
  -23.3751  -35.9639   23.3313 H   0  0  0  0  0  0
  -24.3573  -36.8895   22.2041 H   0  0  0  0  0  0
  -23.7228  -37.6504   23.6636 H   0  0  0  0  0  0
  -26.0494  -31.5644   20.5862 H   0  0  0  0  0  0
  -26.8320  -30.8702   21.9805 H   0  0  0  0  0  0
  -28.1274  -29.0787   21.1105 H   0  0  0  0  0  0
  -26.0403  -25.9451   18.9900 H   0  0  0  0  0  0
  -23.9873  -27.2883   19.0242 H   0  0  0  0  0  0
  -23.7305  -30.5867   19.4066 H   0  0  0  0  0  0
  -22.7388  -29.2358   19.8756 H   0  0  0  0  0  0
  -25.1287  -36.1972   25.0824 H   0  0  0  0  0  0
  -20.9972  -28.3189   24.1552 H   0  0  0  0  0  0
  -21.6655  -26.7248   22.1391 H   0  0  0  0  0  0
  -20.5577  -26.2218   23.3661 H   0  0  0  0  0  0
  -19.6912  -25.6378   21.1082 H   0  0  0  0  0  0
  -19.6591  -27.3294   20.6805 H   0  0  0  0  0  0
  -17.4183  -26.6610   21.4020 H   0  0  0  0  0  0
  -18.0315  -26.0085   22.9010 H   0  0  0  0  0  0
  -19.7885  -30.6817   24.2976 H   0  0  0  0  0  0
  -17.4898  -31.6157   24.5395 H   0  0  0  0  0  0
  -15.5360  -30.3239   23.6996 H   0  0  0  0  0  0
  -15.8655  -28.1116   22.6366 H   0  0  0  0  0  0
  -24.5879  -30.7080   25.7710 H   0  0  0  0  0  0
  -24.8930  -32.2886   26.4804 H   0  0  0  0  0  0
  -25.8031  -30.8865   27.0161 H   0  0  0  0  0  0
  -26.2923  -29.6726   24.1115 H   0  0  0  0  0  0
  -27.4120  -29.7274   25.4553 H   0  0  0  0  0  0
  -27.8750  -30.4352   23.9255 H   0  0  0  0  0  0
  -27.2636  -33.3607   26.2027 H   0  0  0  0  0  0
  -28.3823  -32.6880   25.0241 H   0  0  0  0  0  0
  -28.0726  -31.8419   26.5318 H   0  0  0  0  0  0
  -28.2598  -38.0095   24.7512 H   0  0  0  0  0  0
  -28.1089  -36.2623   24.6330 H   0  0  0  0  0  0
  -27.2306  -37.1494   25.8870 H   0  0  0  0  0  0
  -20.9151  -29.9070   21.7404 H   0  0  0  0  0  0
  -26.0192  -38.2869   24.1392 H   0  0  0  0  0  0
  -27.2809  -16.8840   21.1344 H   0  0  0  0  0  0
  -27.3574  -20.9991   19.9386 H   0  0  0  0  0  0
  -24.2663  -19.4112   23.0269 H   0  0  0  0  0  0
  -25.7834  -20.3139   23.0470 H   0  0  0  0  0  0
  -25.7905  -18.5538   23.1966 H   0  0  0  0  0  0
  -24.5298  -17.2963   21.2246 H   0  0  0  0  0  0
  -24.6413  -17.9780   19.5927 H   0  0  0  0  0  0
  -23.3992  -18.5352   20.7023 H   0  0  0  0  0  0
  -30.8901  -17.4338   20.7986 H   0  0  0  0  0  0
  -30.4518  -17.1501   19.1379 H   0  0  0  0  0  0
  -30.7860  -20.3417   20.2049 H   0  0  0  0  0  0
  -30.4557  -19.7703   18.6090 H   0  0  0  0  0  0
  -28.9365  -21.7044   18.1359 H   0  0  0  0  0  0
  -30.5696  -22.1758   18.4881 H   0  0  0  0  0  0
  -29.8982  -24.5806   19.0388 H   0  0  0  0  0  0
  -28.2842  -24.1442   18.5689 H   0  0  0  0  0  0
  -28.9258  -25.1711   21.3845 H   0  0  0  0  0  0
  -27.3484  -24.9363   20.7222 H   0  0  0  0  0  0
  -25.0787  -20.2191   20.7380 H   0  0  0  0  0  0
  -28.7902  -15.4554   20.5699 H   0  0  0  0  0  0
  -29.8935  -22.8534   20.6840 H   0  0  0  0  0  0
  -28.3570  -22.4497   20.3845 H   0  0  0  0  0  0
  1 25  1  0  0  0
  1 30  2  0  0  0
  1 84  1  0  0  0
  2  3  1  0  0  0
  2 25  1  0  0  0
  2 86  1  0  0  0
  2 87  1  0  0  0
  3  4  1  0  0  0
  3 88  1  0  0  0
  3 89  1  0  0  0
  4  5  1  0  0  0
  4 90  1  0  0  0
  4 91  1  0  0  0
  5  6  1  0  0  0
  5 26  1  0  0  0
  5 92  1  0  0  0
  6 25  1  0  0  0
  6 93  1  0  0  0
  6 94  1  0  0  0
  7  8  2  0  0  0
  7 26  1  0  0  0
  7 29  1  0  0  0
  8  9  1  0  0  0
  8 22  1  0  0  0
  9 10  1  0  0  0
  9 27  2  0  0  0
 10 11  2  0  0  0
 10 15  1  0  0  0
 11 12  1  0  0  0
 11 95  1  0  0  0
 12 13  2  0  0  0
 12 96  1  0  0  0
 13 14  1  0  0  0
 13 31  1  0  0  0
 14 15  2  0  0  0
 14 97  1  0  0  0
 15 98  1  0  0  0
 16 17  2  0  0  0
 16 21  1  0  0  0
 16 31  1  0  0  0
 17 18  1  0  0  0
 17 99  1  0  0  0
 18 19  2  0  0  0
 18100  1  0  0  0
 19 20  1  0  0  0
 19 24  1  0  0  0
 20 21  2  0  0  0
 20101  1  0  0  0
 21 23  1  0  0  0
 22 28  1  0  0  0
 22 32  2  0  0  0
 26 27  1  0  0  0
 28102  1  0  0  0
 28103  1  0  0  0
 29104  1  0  0  0
 29105  1  0  0  0
 33 34  1  0  0  0
 33 66  1  0  0  0
 33 70  2  0  0  0
 34 36  1  0  0  0
 34 59  1  0  0  0
 34106  1  0  0  0
 35 44  2  0  0  0
 35 45  1  0  0  0
 35 68  1  0  0  0
 36 56  1  0  0  0
 36107  1  0  0  0
 37 39  1  0  0  0
 37 47  1  0  0  0
 37 66  1  0  0  0
 37108  1  0  0  0
 38 43  2  0  0  0
 38 46  1  0  0  0
 38 47  1  0  0  0
 39 64  1  0  0  0
 39 67  2  0  0  0
 40 52  1  0  0  0
 40 53  2  0  0  0
 40 58  1  0  0  0
 41109  1  0  0  0
 41110  1  0  0  0
 41111  1  0  0  0
 41 48  1  0  0  0
 42 43  1  0  0  0
 42 66  1  0  0  0
 42112  1  0  0  0
 42113  1  0  0  0
 43 44  1  0  0  0
 44114  1  0  0  0
 45 46  2  0  0  0
 45115  1  0  0  0
 46116  1  0  0  0
 47117  1  0  0  0
 47118  1  0  0  0
 48 56  1  0  0  0
 48 65  1  0  0  0
 48119  1  0  0  0
 49 50  1  0  0  0
 49 53  1  0  0  0
 49 64  1  0  0  0
 49120  1  0  0  0
 50 51  1  0  0  0
 50121  1  0  0  0
 50122  1  0  0  0
 51 52  1  0  0  0
 51123  1  0  0  0
 51124  1  0  0  0
 52125  1  0  0  0
 52126  1  0  0  0
 53 54  1  0  0  0
 54 55  2  0  0  0
 54127  1  0  0  0
 55 57  1  0  0  0
 55128  1  0  0  0
 56 69  2  0  0  0
 57 58  2  0  0  0
 57129  1  0  0  0
 58130  1  0  0  0
 59 60  1  0  0  0
 59 61  1  0  0  0
 59 62  1  0  0  0
 60131  1  0  0  0
 60132  1  0  0  0
 60133  1  0  0  0
 61134  1  0  0  0
 61135  1  0  0  0
 61136  1  0  0  0
 62137  1  0  0  0
 62138  1  0  0  0
 62139  1  0  0  0
 63 65  1  0  0  0
 63140  1  0  0  0
 63141  1  0  0  0
 63142  1  0  0  0
 64143  1  0  0  0
 65144  1  0  0  0
 68 81  1  0  0  0
 71 73  1  0  0  0
 71 74  2  0  0  0
 71145  1  0  0  0
 72 73  2  0  0  0
 72 83  1  0  0  0
 72146  1  0  0  0
 73 82  1  0  0  0
 74 77  1  0  0  0
 74 83  1  0  0  0
 75147  1  0  0  0
 75148  1  0  0  0
 75149  1  0  0  0
 75 82  1  0  0  0
 76 82  1  0  0  0
 76150  1  0  0  0
 76151  1  0  0  0
 76152  1  0  0  0
 77 84  1  0  0  0
 77153  1  0  0  0
 77154  1  0  0  0
 78 79  1  0  0  0
 78 83  1  0  0  0
 78155  1  0  0  0
 78156  1  0  0  0
 79 85  1  0  0  0
 79157  1  0  0  0
 79158  1  0  0  0
 80 81  1  0  0  0
 80 85  1  0  0  0
 80159  1  0  0  0
 80160  1  0  0  0
 81161  1  0  0  0
 81162  1  0  0  0
 82163  1  0  0  0
 84164  1  0  0  0
 85165  1  0  0  0
 85166  1  0  0  0
M  CHG  1  85   1
M  ISO  4   1 100  68 101  81 101  84 100
M  END
> <chiral flag>
0

> <version>
0

> <s_m_source_file>
/data/baiqing/PycharmProjects/Reinvent-master-3.2/result/LINK_invent/BTK/process_docking_weight1_custom_sum_contain_oxygen_bond_distance_aromatic_linkinvent_7_9_3/rearranged_h_0131.sdf

> <i_m_source_file_index>
25

> <r_mmod_Potential_Energy-OPLS-2005>
-214.011505126953

> <r_mmod_Stretch_Energy-OPLS-2005>
62.3333396911621

> <r_mmod_Bend_Energy-OPLS-2005>
122.905601501465

> <r_mmod_Torsional_Energy-OPLS-2005>
238.666275024414

> <r_mmod_Improper_Torsional_Energy-OPLS-2005>
8.21776676177979

> <r_mmod_Van_der_Waal_Energy-OPLS-2005>
116.702331542969

> <r_mmod_Electrostatic_Energy-OPLS-2005>
-341.0458984375

> <r_mmod_Solvation_Energy-OPLS-2005>
-459.752960205078

> <b_mmod_Minimization_Converged-OPLS-2005>
0

> <r_mmod_RMS_Derivative-OPLS-2005>
6.94039583206177

$$$$
25
                    3D
 Structure written by MMmdl.
185193  0  0  1  0            999 V2000
  -30.5221  -13.2479   21.2923 C   0  0  0  0  0  0
  -30.2863  -12.3696   19.0966 C   0  0  0  0  0  0
  -29.3247  -12.4634   17.9156 C   0  0  0  0  0  0
  -27.9466  -12.1569   18.4761 C   0  0  0  0  0  0
  -27.5053  -13.3028   19.4181 C   0  0  2  0  0  0
  -28.4942  -13.7155   20.4588 C   0  0  0  0  0  0
  -25.2454  -13.9061   20.4758 C   0  0  0  0  0  0
  -24.2120  -13.1215   20.8843 C   0  0  0  0  0  0
  -24.6820  -11.7696   20.8040 C   0  0  0  0  0  0
  -23.9784  -10.3041   20.9033 C   0  0  0  0  0  0
  -24.1144   -8.6646   22.0533 C   0  0  0  0  0  0
  -24.1322   -7.3686   21.9068 C   0  0  0  0  0  0
  -23.1533   -8.2366   21.7254 C   0  0  0  0  0  0
  -23.0321   -9.9855   20.6800 C   0  0  0  0  0  0
  -23.5432  -10.5044   19.6168 C   0  0  0  0  0  0
  -21.8400   -6.2432   22.8451 C   0  0  0  0  0  0
  -21.4479   -6.5462   24.1475 C   0  0  0  0  0  0
  -21.3373   -5.5436   25.1053 C   0  0  0  0  0  0
  -21.5842   -4.2172   24.7459 C   0  0  0  0  0  0
  -21.8606   -3.8690   23.4092 C   0  0  0  0  0  0
  -21.9765   -4.8794   22.4278 C   0  0  0  0  0  0
  -22.7982  -13.5552   21.0763 C   0  0  0  0  0  0
  -22.1945   -4.5020   21.1385 F   0  0  0  0  0  0
  -21.5544   -3.2885   25.7192 F   0  0  0  0  0  0
  -29.8129  -13.1504   20.2392 N   0  0  0  0  0  0
  -26.2397  -13.0514   20.0594 N   0  0  0  0  0  0
  -25.8717  -11.7825   20.2212 N   0  0  0  0  0  0
  -22.0016  -12.8121   21.8144 N   0  0  0  0  0  0
  -25.4015  -15.2708   20.3441 N   0  0  0  0  0  0
  -31.4936  -14.0517   21.2005 O   0  0  0  0  0  0
  -21.9902   -7.4013   22.1206 O   0  0  0  0  0  0
  -22.3740  -14.5760   20.5425 O   0  0  0  0  0  0
  -24.6303  -31.8579   23.2031 C   0  0  0  0  0  0
  -25.9144  -32.4751   23.8362 C   0  0  1  0  0  0
  -27.0430  -27.1804   20.3143 C   0  0  0  0  0  0
  -25.5940  -33.8562   24.2252 N   0  0  0  0  0  0
  -23.4227  -30.4914   21.5383 C   0  0  2  0  0  0
  -24.8551  -28.9524   20.0885 C   0  0  0  0  0  0
  -22.7507  -29.4626   22.4821 C   0  0  0  0  0  0
  -18.0302  -28.1382   22.8485 C   0  0  0  0  0  0
  -24.1505  -36.7276   23.2629 C   0  0  0  0  0  0
  -25.9688  -30.7636   21.3931 C   0  0  0  0  0  0
  -26.0190  -29.3880   20.7393 C   0  0  0  0  0  0
  -27.1363  -28.5071   20.8393 C   0  0  0  0  0  0
  -25.9168  -26.8339   19.5551 C   0  0  0  0  0  0
  -24.8191  -27.7008   19.4532 C   0  0  0  0  0  0
  -23.6399  -29.8520   20.1397 C   0  0  0  0  0  0
  -25.4132  -36.3068   24.0320 C   0  0  1  0  0  0
  -20.5911  -28.3703   23.1247 C   0  0  2  0  0  0
  -20.6781  -26.9409   22.5403 C   0  0  0  0  0  0
  -19.5753  -26.6373   21.5211 C   0  0  0  0  0  0
  -18.1937  -26.7928   22.1622 C   0  0  0  0  0  0
  -19.1554  -28.8859   23.2869 C   0  0  0  0  0  0
  -18.9469  -30.1459   23.8893 C   0  0  0  0  0  0
  -17.6464  -30.6581   24.0560 C   0  0  0  0  0  0
  -25.9078  -34.9441   23.5092 C   0  0  0  0  0  0
  -16.5361  -29.9076   23.6320 C   0  0  0  0  0  0
  -16.7290  -28.6490   23.0356 C   0  0  0  0  0  0
  -26.4492  -31.6591   25.0765 C   0  0  0  0  0  0
  -25.3700  -31.3776   26.1479 C   0  0  0  0  0  0
  -27.0300  -30.2981   24.6295 C   0  0  0  0  0  0
  -27.6057  -32.4347   25.7484 C   0  0  0  0  0  0
  -27.5614  -37.1761   24.8443 C   0  0  0  0  0  0
  -21.4212  -29.3050   22.3608 N   0  0  0  0  0  0
  -26.4299  -37.3777   23.9432 N   0  0  0  0  0  0
  -24.6912  -31.0608   22.0981 N   0  0  0  0  0  0
  -23.4236  -28.8158   23.2895 O   0  0  0  0  0  0
  -27.8893  -26.1241   20.6392 O   0  0  0  0  0  0
  -26.5653  -34.8908   22.4666 O   0  0  0  0  0  0
  -23.5451  -32.1398   23.7298 O   0  0  0  0  0  0
  -21.9994   -9.9869   22.6475 C   0  0  0  0  0  0
  -21.5771   -8.4656   20.1692 C   0  0  0  0  0  0
  -25.4645   -8.7042   20.1541 C   0  0  0  0  0  0
  -25.8203  -10.1035   22.2878 C   0  0  1  0  0  0
  -27.1823  -11.1754   22.6022 C   0  0  0  0  0  0
  -25.0482  -18.7380   23.2205 C   0  0  0  0  0  0
  -24.9217  -17.4777   24.2325 C   0  0  0  0  0  0
  -25.3366  -20.2636   23.6823 C   0  0  0  0  0  0
  -24.4659  -16.0210   23.6751 C   0  0  0  0  0  0
  -25.5927  -21.3306   22.5005 C   0  0  0  0  0  0
  -24.7781  -14.6528   24.4893 C   0  0  0  0  0  0
  -26.1030  -22.8393   22.7583 C   0  0  0  0  0  0
  -23.7652  -13.3885   24.4037 C   0  0  0  0  0  0
  -26.4770  -23.7839   21.4871 C   0  0  0  0  0  0
  -24.2234  -11.8154   24.2146 C   0  0  0  0  0  0
  -28.8211  -11.1512   22.1325 C   0  0  0  0  0  0
  -27.3584  -25.1439   21.6925 C   0  0  0  0  0  0
  -23.9580  -10.6726   23.2230 N   0  0  0  0  0  0
  -29.9557  -12.3118   22.2517 N   0  0  0  0  0  0
  -23.5682   -8.0315   19.4226 N   0  3  0  0  0  0
  -31.3031  -12.5892   18.7799 H   0  0  0  0  0  0
  -30.3092  -11.3407   19.4548 H   0  0  0  0  0  0
  -29.6014  -11.7806   17.0991 H   0  0  0  0  0  0
  -29.2917  -13.4525   17.4274 H   0  0  0  0  0  0
  -27.9970  -11.2095   19.0185 H   0  0  0  0  0  0
  -27.2140  -12.0267   17.6722 H   0  0  0  0  0  0
  -27.3722  -14.1584   18.7478 H   0  0  0  0  0  0
  -28.0851  -13.6139   21.4668 H   0  0  0  0  0  0
  -28.5610  -14.8079   20.3787 H   0  0  0  0  0  0
  -24.5723   -8.5591   23.1059 H   0  0  0  0  0  0
  -24.2086   -6.5876   22.6593 H   0  0  0  0  0  0
  -22.0288  -10.5497   20.5339 H   0  0  0  0  0  0
  -23.3045  -11.4427   19.1340 H   0  0  0  0  0  0
  -21.2858   -7.5658   24.4637 H   0  0  0  0  0  0
  -21.0804   -5.7847   26.1275 H   0  0  0  0  0  0
  -22.0193   -2.8366   23.1446 H   0  0  0  0  0  0
  -22.3847  -12.0766   22.4043 H   0  0  0  0  0  0
  -21.0004  -12.9348   21.7518 H   0  0  0  0  0  0
  -24.6995  -15.8664   20.7825 H   0  0  0  0  0  0
  -26.1614  -15.7214   19.8412 H   0  0  0  0  0  0
  -26.7192  -32.5370   23.1076 H   0  0  0  0  0  0
  -25.0078  -33.9703   25.0387 H   0  0  0  0  0  0
  -22.7188  -31.3144   21.4060 H   0  0  0  0  0  0
  -23.3798  -35.9569   23.3215 H   0  0  0  0  0  0
  -24.3616  -36.8980   22.2059 H   0  0  0  0  0  0
  -23.7209  -37.6431   23.6708 H   0  0  0  0  0  0
  -26.1374  -31.5146   20.6218 H   0  0  0  0  0  0
  -26.8402  -30.7899   22.0346 H   0  0  0  0  0  0
  -27.9976  -28.7798   21.4309 H   0  0  0  0  0  0
  -25.8263  -25.8326   19.1550 H   0  0  0  0  0  0
  -23.9288  -27.3740   18.9311 H   0  0  0  0  0  0
  -23.7808  -30.6391   19.3976 H   0  0  0  0  0  0
  -22.7522  -29.3010   19.8227 H   0  0  0  0  0  0
  -25.1303  -36.1894   25.0807 H   0  0  0  0  0  0
  -21.0035  -28.3293   24.1359 H   0  0  0  0  0  0
  -20.5657  -26.2325   23.3623 H   0  0  0  0  0  0
  -21.6653  -26.7406   22.1215 H   0  0  0  0  0  0
  -19.6906  -25.6278   21.1255 H   0  0  0  0  0  0
  -19.6687  -27.3170   20.6731 H   0  0  0  0  0  0
  -17.4210  -26.6693   21.4022 H   0  0  0  0  0  0
  -18.0325  -26.0069   22.9012 H   0  0  0  0  0  0
  -19.7942  -30.7277   24.2271 H   0  0  0  0  0  0
  -17.5012  -31.6261   24.5159 H   0  0  0  0  0  0
  -15.5358  -30.2973   23.7633 H   0  0  0  0  0  0
  -15.8698  -28.0797   22.7085 H   0  0  0  0  0  0
  -24.5901  -30.7081   25.7832 H   0  0  0  0  0  0
  -24.8851  -32.2945   26.4837 H   0  0  0  0  0  0
  -25.8009  -30.9024   27.0295 H   0  0  0  0  0  0
  -26.2869  -29.6748   24.1304 H   0  0  0  0  0  0
  -27.3896  -29.7250   25.4846 H   0  0  0  0  0  0
  -27.8808  -30.4196   23.9591 H   0  0  0  0  0  0
  -27.2681  -33.3645   26.2059 H   0  0  0  0  0  0
  -28.3825  -32.6915   25.0277 H   0  0  0  0  0  0
  -28.0775  -31.8499   26.5377 H   0  0  0  0  0  0
  -28.2554  -38.0134   24.7621 H   0  0  0  0  0  0
  -28.1188  -36.2682   24.6097 H   0  0  0  0  0  0
  -27.2361  -37.1198   25.8844 H   0  0  0  0  0  0
  -20.9379  -29.8817   21.6863 H   0  0  0  0  0  0
  -26.0169  -38.2829   24.1510 H   0  0  0  0  0  0
  -21.6775   -9.4337   23.5245 H   0  0  0  0  0  0
  -21.3076  -10.8234   22.6850 H   0  0  0  0  0  0
  -21.0464   -9.0297   19.3849 H   0  0  0  0  0  0
  -20.9716   -7.5304   20.2043 H   0  0  0  0  0  0
  -26.0906   -7.8301   20.1952 H   0  0  0  0  0  0
  -25.9126   -9.1900   19.2887 H   0  0  0  0  0  0
  -26.2897   -9.3059   22.8949 H   0  0  0  0  0  0
  -27.2772  -11.1695   23.6876 H   0  0  0  0  0  0
  -26.8396  -12.1840   22.4145 H   0  0  0  0  0  0
  -24.1618  -18.7621   22.5856 H   0  0  0  0  0  0
  -25.8584  -18.4824   22.5444 H   0  0  0  0  0  0
  -24.2384  -17.7569   25.0396 H   0  0  0  0  0  0
  -25.8852  -17.3444   24.7188 H   0  0  0  0  0  0
  -26.1949  -20.2763   24.3523 H   0  0  0  0  0  0
  -24.5143  -20.6243   24.3063 H   0  0  0  0  0  0
  -24.8882  -15.9136   22.6784 H   0  0  0  0  0  0
  -23.3893  -16.0631   23.5026 H   0  0  0  0  0  0
  -24.6712  -21.3852   21.9206 H   0  0  0  0  0  0
  -26.3186  -20.8589   21.8407 H   0  0  0  0  0  0
  -24.7914  -14.9593   25.5381 H   0  0  0  0  0  0
  -25.8044  -14.3460   24.2774 H   0  0  0  0  0  0
  -26.9728  -22.7704   23.4116 H   0  0  0  0  0  0
  -25.3526  -23.3491   23.3697 H   0  0  0  0  0  0
  -22.9764  -13.7069   23.7362 H   0  0  0  0  0  0
  -23.1863  -13.4217   25.3398 H   0  0  0  0  0  0
  -25.5394  -24.0305   20.9883 H   0  0  0  0  0  0
  -27.0078  -23.1410   20.7917 H   0  0  0  0  0  0
  -23.9096  -12.0889   23.2370 H   0  0  0  0  0  0
  -23.5719  -11.3703   24.9663 H   0  0  0  0  0  0
  -28.8857  -10.7178   21.1395 H   0  0  0  0  0  0
  -29.2380  -10.3412   22.7405 H   0  0  0  0  0  0
  -28.2500  -24.7810   22.2040 H   0  0  0  0  0  0
  -26.8403  -25.7237   22.4602 H   0  0  0  0  0  0
  -30.4728  -12.1773   23.1115 H   0  0  0  0  0  0
  -23.5520   -8.4093   18.4921 H   0  0  0  0  0  0
  -23.6250   -7.0303   19.2713 H   0  0  0  0  0  0
  1 25  1  0  0  0
  1 30  2  0  0  0
  1 89  1  0  0  0
  2  3  1  0  0  0
  2 25  1  0  0  0
  2 91  1  0  0  0
  2 92  1  0  0  0
  3  4  1  0  0  0
  3 93  1  0  0  0
  3 94  1  0  0  0
  4  5  1  0  0  0
  4 95  1  0  0  0
  4 96  1  0  0  0
  5  6  1  0  0  0
  5 26  1  0  0  0
  5 97  1  0  0  0
  6 25  1  0  0  0
  6 98  1  0  0  0
  6 99  1  0  0  0
  7  8  2  0  0  0
  7 26  1  0  0  0
  7 29  1  0  0  0
  8  9  1  0  0  0
  8 22  1  0  0  0
  9 10  1  0  0  0
  9 27  2  0  0  0
 10 11  2  0  0  0
 10 15  1  0  0  0
 11 12  1  0  0  0
 11100  1  0  0  0
 12 13  2  0  0  0
 12101  1  0  0  0
 13 14  1  0  0  0
 13 31  1  0  0  0
 14 15  2  0  0  0
 14102  1  0  0  0
 15103  1  0  0  0
 16 17  2  0  0  0
 16 21  1  0  0  0
 16 31  1  0  0  0
 17 18  1  0  0  0
 17104  1  0  0  0
 18 19  2  0  0  0
 18105  1  0  0  0
 19 20  1  0  0  0
 19 24  1  0  0  0
 20 21  2  0  0  0
 20106  1  0  0  0
 21 23  1  0  0  0
 22 28  1  0  0  0
 22 32  2  0  0  0
 26 27  1  0  0  0
 28107  1  0  0  0
 28108  1  0  0  0
 29109  1  0  0  0
 29110  1  0  0  0
 33 34  1  0  0  0
 33 66  1  0  0  0
 33 70  2  0  0  0
 34 36  1  0  0  0
 34 59  1  0  0  0
 34111  1  0  0  0
 35 44  2  0  0  0
 35 45  1  0  0  0
 35 68  1  0  0  0
 36 56  1  0  0  0
 36112  1  0  0  0
 37 39  1  0  0  0
 37 47  1  0  0  0
 37 66  1  0  0  0
 37113  1  0  0  0
 38 43  2  0  0  0
 38 46  1  0  0  0
 38 47  1  0  0  0
 39 64  1  0  0  0
 39 67  2  0  0  0
 40 52  1  0  0  0
 40 53  2  0  0  0
 40 58  1  0  0  0
 41114  1  0  0  0
 41115  1  0  0  0
 41116  1  0  0  0
 41 48  1  0  0  0
 42 43  1  0  0  0
 42 66  1  0  0  0
 42117  1  0  0  0
 42118  1  0  0  0
 43 44  1  0  0  0
 44119  1  0  0  0
 45 46  2  0  0  0
 45120  1  0  0  0
 46121  1  0  0  0
 47122  1  0  0  0
 47123  1  0  0  0
 48 56  1  0  0  0
 48 65  1  0  0  0
 48124  1  0  0  0
 49 50  1  0  0  0
 49 53  1  0  0  0
 49 64  1  0  0  0
 49125  1  0  0  0
 50 51  1  0  0  0
 50126  1  0  0  0
 50127  1  0  0  0
 51 52  1  0  0  0
 51128  1  0  0  0
 51129  1  0  0  0
 52130  1  0  0  0
 52131  1  0  0  0
 53 54  1  0  0  0
 54 55  2  0  0  0
 54132  1  0  0  0
 55 57  1  0  0  0
 55133  1  0  0  0
 56 69  2  0  0  0
 57 58  2  0  0  0
 57134  1  0  0  0
 58135  1  0  0  0
 59 60  1  0  0  0
 59 61  1  0  0  0
 59 62  1  0  0  0
 60136  1  0  0  0
 60137  1  0  0  0
 60138  1  0  0  0
 61139  1  0  0  0
 61140  1  0  0  0
 61141  1  0  0  0
 62142  1  0  0  0
 62143  1  0  0  0
 62144  1  0  0  0
 63 65  1  0  0  0
 63145  1  0  0  0
 63146  1  0  0  0
 63147  1  0  0  0
 64148  1  0  0  0
 65149  1  0  0  0
 68 87  1  0  0  0
 71 72  1  0  0  0
 71 88  1  0  0  0
 71150  1  0  0  0
 71151  1  0  0  0
 72 90  1  0  0  0
 72152  1  0  0  0
 72153  1  0  0  0
 73 74  1  0  0  0
 73 90  1  0  0  0
 73154  1  0  0  0
 73155  1  0  0  0
 74 75  1  0  0  0
 74 88  1  0  0  0
 74156  1  0  0  0
 75 86  1  0  0  0
 75157  1  0  0  0
 75158  1  0  0  0
 76 77  1  0  0  0
 76 78  1  0  0  0
 76159  1  0  0  0
 76160  1  0  0  0
 77 79  1  0  0  0
 77161  1  0  0  0
 77162  1  0  0  0
 78 80  1  0  0  0
 78163  1  0  0  0
 78164  1  0  0  0
 79 81  1  0  0  0
 79165  1  0  0  0
 79166  1  0  0  0
 80 82  1  0  0  0
 80167  1  0  0  0
 80168  1  0  0  0
 81 83  1  0  0  0
 81169  1  0  0  0
 81170  1  0  0  0
 82 84  1  0  0  0
 82171  1  0  0  0
 82172  1  0  0  0
 83 85  1  0  0  0
 83173  1  0  0  0
 83174  1  0  0  0
 84 87  1  0  0  0
 84175  1  0  0  0
 84176  1  0  0  0
 85 88  1  0  0  0
 85177  1  0  0  0
 85178  1  0  0  0
 86 89  1  0  0  0
 86179  1  0  0  0
 86180  1  0  0  0
 87181  1  0  0  0
 87182  1  0  0  0
 89183  1  0  0  0
 90184  1  0  0  0
 90185  1  0  0  0
M  CHG  1  90   1
M  ISO  4   1 100  68 101  87 101  89 100
M  END
> <chiral flag>
0

> <version>
0

> <s_m_source_file>
/data/baiqing/PycharmProjects/Reinvent-master-3.2/result/LINK_invent/BTK/process_docking_weight1_custom_sum_contain_oxygen_bond_distance_aromatic_linkinvent_7_9_3/rearranged_h_0131.sdf

> <i_m_source_file_index>
26

> <r_mmod_Potential_Energy-OPLS-2005>
15485.2099609375

> <r_mmod_Stretch_Energy-OPLS-2005>
8532.9619140625

> <r_mmod_Bend_Energy-OPLS-2005>
1987.30859375

> <r_mmod_Torsional_Energy-OPLS-2005>
722.257934570312

> <r_mmod_Improper_Torsional_Energy-OPLS-2005>
29.4575634002686

> <r_mmod_Van_der_Waal_Energy-OPLS-2005>
3566.29565429688

> <r_mmod_Electrostatic_Energy-OPLS-2005>
-329.530303955078

> <r_mmod_Solvation_Energy-OPLS-2005>
-402.314239501953

> <b_mmod_Minimization_Converged-OPLS-2005>
0

> <r_mmod_RMS_Derivative-OPLS-2005>
34.1602897644043

$$$$
26
                    3D
 Structure written by MMmdl.
160168  0  0  1  0            999 V2000
  -30.5623  -14.7647   20.4952 C   0  0  0  0  0  0
  -30.4348  -12.4826   19.4593 C   0  0  0  0  0  0
  -29.5029  -12.5128   18.2264 C   0  0  0  0  0  0
  -28.0296  -12.3322   18.6381 C   0  0  0  0  0  0
  -27.6356  -13.2206   19.8470 C   0  0  2  0  0  0
  -28.6775  -13.1356   20.9801 C   0  0  0  0  0  0
  -25.2480  -13.8180   20.5635 C   0  0  0  0  0  0
  -24.1771  -13.0426   20.9175 C   0  0  0  0  0  0
  -24.6343  -11.6892   20.8721 C   0  0  0  0  0  0
  -23.9037  -10.4274   21.0392 C   0  0  0  0  0  0
  -24.3606   -9.4192   21.9165 C   0  0  0  0  0  0
  -23.6280   -8.2233   22.0742 C   0  0  0  0  0  0
  -22.4269   -8.0261   21.3523 C   0  0  0  0  0  0
  -21.9900   -9.0229   20.4632 C   0  0  0  0  0  0
  -22.7220  -10.2111   20.3031 C   0  0  0  0  0  0
  -21.6857   -6.0716   22.5252 C   0  0  0  0  0  0
  -21.4017   -6.5627   23.8183 C   0  0  0  0  0  0
  -21.3664   -5.6784   24.9146 C   0  0  0  0  0  0
  -21.6050   -4.3041   24.7208 C   0  0  0  0  0  0
  -21.8829   -3.8128   23.4327 C   0  0  0  0  0  0
  -21.9194   -4.6945   22.3380 C   0  0  0  0  0  0
  -22.7794  -13.5199   21.1873 C   0  0  0  0  0  0
  -22.1655   -4.2122   21.0950 F   0  0  0  0  0  0
  -21.5654   -3.4524   25.7730 F   0  0  0  0  0  0
  -29.9687  -13.5240   20.4056 N   0  0  0  0  0  0
  -26.2878  -12.9343   20.3219 N   0  0  0  0  0  0
  -25.9266  -11.6497   20.5713 N   0  0  0  0  0  0
  -22.0481  -12.8156   22.0432 N   0  0  0  0  0  0
  -25.4196  -15.1907   20.4042 N   0  0  0  0  0  0
  -31.7519  -14.8946   20.1885 O   0  0  0  0  0  0
  -21.6634   -6.8861   21.4215 O   0  0  0  0  0  0
  -22.3443  -14.5500   20.6739 O   0  0  0  0  0  0
  -24.6311  -31.8507   23.1950 C   0  0  0  0  0  0
  -25.9131  -32.4752   23.8311 C   0  0  1  0  0  0
  -27.2170  -27.2399   20.1733 C   0  0  0  0  0  0
  -25.5903  -33.8557   24.2249 N   0  0  0  0  0  0
  -23.4336  -30.4729   21.5345 C   0  0  2  0  0  0
  -24.8842  -28.9069   20.1253 C   0  0  0  0  0  0
  -22.7524  -29.4571   22.4857 C   0  0  0  0  0  0
  -18.0299  -28.1441   22.8488 C   0  0  0  0  0  0
  -24.1462  -36.7247   23.2662 C   0  0  0  0  0  0
  -25.9800  -30.7603   21.3798 C   0  0  0  0  0  0
  -26.0502  -29.3731   20.7440 C   0  0  0  0  0  0
  -27.2230  -28.5490   20.7602 C   0  0  0  0  0  0
  -26.0360  -26.8391   19.5226 C   0  0  0  0  0  0
  -24.8784  -27.6454   19.5059 C   0  0  0  0  0  0
  -23.6632  -29.8049   20.1541 C   0  0  0  0  0  0
  -25.4095  -36.3051   24.0349 C   0  0  1  0  0  0
  -20.5903  -28.3697   23.1288 C   0  0  2  0  0  0
  -20.6781  -26.9409   22.5417 C   0  0  0  0  0  0
  -19.5751  -26.6392   21.5243 C   0  0  0  0  0  0
  -18.1942  -26.7988   22.1624 C   0  0  0  0  0  0
  -19.1567  -28.8892   23.2883 C   0  0  0  0  0  0
  -18.9483  -30.1499   23.8863 C   0  0  0  0  0  0
  -17.6491  -30.6624   24.0586 C   0  0  0  0  0  0
  -25.9023  -34.9439   23.5096 C   0  0  0  0  0  0
  -16.5380  -29.9142   23.6347 C   0  0  0  0  0  0
  -16.7284  -28.6576   23.0335 C   0  0  0  0  0  0
  -26.4489  -31.6609   25.0717 C   0  0  0  0  0  0
  -25.3708  -31.3785   26.1435 C   0  0  0  0  0  0
  -27.0360  -30.3046   24.6206 C   0  0  0  0  0  0
  -27.6037  -32.4351   25.7472 C   0  0  0  0  0  0
  -27.5550  -37.1775   24.8493 C   0  0  0  0  0  0
  -21.4228  -29.3025   22.3658 N   0  0  0  0  0  0
  -26.4257  -37.3767   23.9445 N   0  0  0  0  0  0
  -24.6997  -31.0502   22.0904 N   0  0  0  0  0  0
  -23.4232  -28.8113   23.2953 O   0  0  0  0  0  0
  -28.3274  -26.3762   20.0803 O   0  0  0  0  0  0
  -26.5616  -34.8917   22.4669 O   0  0  0  0  0  0
  -23.5442  -32.1311   23.7236 O   0  0  0  0  0  0
  -28.8921  -22.5021   20.7874 C   0  0  0  0  0  0
  -26.6876  -23.4413   20.7188 C   0  0  0  0  0  0
  -28.0638  -23.6992   20.7398 C   0  0  0  0  0  0
  -28.3668  -21.1372   20.8913 C   0  0  0  0  0  0
  -26.9403  -21.1157   21.0277 C   0  0  0  0  0  0
  -25.2028  -19.3095   20.5052 C   0  0  0  0  0  0
  -25.3490  -20.2862   22.8501 C   0  0  0  0  0  0
  -28.5604  -25.2014   20.9895 C   0  0  0  0  0  0
  -29.0091  -18.5175   20.4910 C   0  0  0  0  0  0
  -30.0869  -17.3620   20.8966 C   0  0  0  0  0  0
  -26.1321  -19.9245   21.5664 C   0  0  0  0  0  0
  -26.1564  -22.2092   20.8506 N   0  0  0  0  0  0
  -29.2364  -19.9562   20.9672 N   0  0  0  0  0  0
  -29.7500  -15.8697   20.7485 N   0  0  0  0  0  0
  -31.4661  -12.6473   19.1462 H   0  0  0  0  0  0
  -30.4160  -11.5002   19.9336 H   0  0  0  0  0  0
  -29.7905  -11.7355   17.5169 H   0  0  0  0  0  0
  -29.6211  -13.4612   17.6991 H   0  0  0  0  0  0
  -27.8825  -11.2826   18.8876 H   0  0  0  0  0  0
  -27.3750  -12.5349   17.7896 H   0  0  0  0  0  0
  -27.6340  -14.2447   19.4751 H   0  0  0  0  0  0
  -28.7282  -12.1240   21.3832 H   0  0  0  0  0  0
  -28.4004  -13.7823   21.8141 H   0  0  0  0  0  0
  -25.2772   -9.5657   22.4700 H   0  0  0  0  0  0
  -23.9999   -7.4615   22.7453 H   0  0  0  0  0  0
  -21.0843   -8.8722   19.8924 H   0  0  0  0  0  0
  -22.3682  -10.9630   19.6114 H   0  0  0  0  0  0
  -21.1993   -7.6138   23.9671 H   0  0  0  0  0  0
  -21.1494   -6.0515   25.9049 H   0  0  0  0  0  0
  -22.0612   -2.7583   23.2821 H   0  0  0  0  0  0
  -22.4163  -11.9827   22.4811 H   0  0  0  0  0  0
  -21.1078  -13.1099   22.2667 H   0  0  0  0  0  0
  -24.6532  -15.8463   20.5127 H   0  0  0  0  0  0
  -26.2592  -15.6223   20.0385 H   0  0  0  0  0  0
  -26.7177  -32.5410   23.1022 H   0  0  0  0  0  0
  -25.0111  -33.9711   25.0438 H   0  0  0  0  0  0
  -22.7281  -31.2912   21.3798 H   0  0  0  0  0  0
  -23.3743  -35.9548   23.3343 H   0  0  0  0  0  0
  -24.3565  -36.8841   22.2068 H   0  0  0  0  0  0
  -23.7180  -37.6446   23.6658 H   0  0  0  0  0  0
  -26.1188  -31.5079   20.5956 H   0  0  0  0  0  0
  -26.8603  -30.8203   22.0084 H   0  0  0  0  0  0
  -28.1223  -28.9059   21.2424 H   0  0  0  0  0  0
  -26.0064  -25.8825   19.0230 H   0  0  0  0  0  0
  -23.9872  -27.2810   19.0174 H   0  0  0  0  0  0
  -23.8164  -30.5800   19.4010 H   0  0  0  0  0  0
  -22.7831  -29.2518   19.8297 H   0  0  0  0  0  0
  -25.1270  -36.1884   25.0843 H   0  0  0  0  0  0
  -20.9987  -28.3245   24.1403 H   0  0  0  0  0  0
  -20.5712  -26.2271   23.3588 H   0  0  0  0  0  0
  -21.6645  -26.7434   22.1183 H   0  0  0  0  0  0
  -19.6890  -25.6306   21.1265 H   0  0  0  0  0  0
  -19.6740  -27.3194   20.6786 H   0  0  0  0  0  0
  -17.4199  -26.6737   21.4036 H   0  0  0  0  0  0
  -18.0294  -26.0177   22.9047 H   0  0  0  0  0  0
  -19.7973  -30.7355   24.2177 H   0  0  0  0  0  0
  -17.5062  -31.6303   24.5184 H   0  0  0  0  0  0
  -15.5392  -30.3043   23.7728 H   0  0  0  0  0  0
  -15.8670  -28.0947   22.6990 H   0  0  0  0  0  0
  -24.5927  -30.7051   25.7798 H   0  0  0  0  0  0
  -24.8852  -32.2986   26.4729 H   0  0  0  0  0  0
  -25.8058  -30.9092   27.0281 H   0  0  0  0  0  0
  -26.2975  -29.6785   24.1199 H   0  0  0  0  0  0
  -27.4073  -29.7271   25.4687 H   0  0  0  0  0  0
  -27.8810  -30.4401   23.9452 H   0  0  0  0  0  0
  -27.2676  -33.3714   26.1952 H   0  0  0  0  0  0
  -28.3914  -32.6828   25.0333 H   0  0  0  0  0  0
  -28.0634  -31.8535   26.5483 H   0  0  0  0  0  0
  -28.2569  -38.0062   24.7517 H   0  0  0  0  0  0
  -28.1013  -36.2584   24.6306 H   0  0  0  0  0  0
  -27.2286  -37.1442   25.8906 H   0  0  0  0  0  0
  -20.9373  -29.8748   21.6897 H   0  0  0  0  0  0
  -26.0109  -38.2815   24.1500 H   0  0  0  0  0  0
  -29.9631  -22.6399   20.8106 H   0  0  0  0  0  0
  -25.9795  -24.2561   20.7198 H   0  0  0  0  0  0
  -25.7539  -19.0230   19.6105 H   0  0  0  0  0  0
  -24.4218  -20.0117   20.2089 H   0  0  0  0  0  0
  -24.7061  -18.4173   20.8890 H   0  0  0  0  0  0
  -26.0194  -20.6778   23.6159 H   0  0  0  0  0  0
  -24.8528  -19.4097   23.2698 H   0  0  0  0  0  0
  -24.5831  -21.0389   22.6655 H   0  0  0  0  0  0
  -29.6432  -25.1396   21.1045 H   0  0  0  0  0  0
  -28.2033  -25.4818   21.9802 H   0  0  0  0  0  0
  -28.0359  -18.1440   20.7882 H   0  0  0  0  0  0
  -28.9584  -18.5562   19.4012 H   0  0  0  0  0  0
  -30.3162  -17.4920   21.9562 H   0  0  0  0  0  0
  -31.0217  -17.5581   20.3692 H   0  0  0  0  0  0
  -26.8171  -19.1694   21.9232 H   0  0  0  0  0  0
  -30.2256  -20.1717   21.0798 H   0  0  0  0  0  0
  -28.7824  -15.6392   20.9162 H   0  0  0  0  0  0
  1 25  1  0  0  0
  1 30  2  0  0  0
  1 84  1  0  0  0
  2  3  1  0  0  0
  2 25  1  0  0  0
  2 85  1  0  0  0
  2 86  1  0  0  0
  3  4  1  0  0  0
  3 87  1  0  0  0
  3 88  1  0  0  0
  4  5  1  0  0  0
  4 89  1  0  0  0
  4 90  1  0  0  0
  5  6  1  0  0  0
  5 26  1  0  0  0
  5 91  1  0  0  0
  6 25  1  0  0  0
  6 92  1  0  0  0
  6 93  1  0  0  0
  7  8  2  0  0  0
  7 26  1  0  0  0
  7 29  1  0  0  0
  8  9  1  0  0  0
  8 22  1  0  0  0
  9 10  1  0  0  0
  9 27  2  0  0  0
 10 11  2  0  0  0
 10 15  1  0  0  0
 11 12  1  0  0  0
 11 94  1  0  0  0
 12 13  2  0  0  0
 12 95  1  0  0  0
 13 14  1  0  0  0
 13 31  1  0  0  0
 14 15  2  0  0  0
 14 96  1  0  0  0
 15 97  1  0  0  0
 16 17  2  0  0  0
 16 21  1  0  0  0
 16 31  1  0  0  0
 17 18  1  0  0  0
 17 98  1  0  0  0
 18 19  2  0  0  0
 18 99  1  0  0  0
 19 20  1  0  0  0
 19 24  1  0  0  0
 20 21  2  0  0  0
 20100  1  0  0  0
 21 23  1  0  0  0
 22 28  1  0  0  0
 22 32  2  0  0  0
 26 27  1  0  0  0
 28101  1  0  0  0
 28102  1  0  0  0
 29103  1  0  0  0
 29104  1  0  0  0
 33 34  1  0  0  0
 33 66  1  0  0  0
 33 70  2  0  0  0
 34 36  1  0  0  0
 34 59  1  0  0  0
 34105  1  0  0  0
 35 44  2  0  0  0
 35 45  1  0  0  0
 35 68  1  0  0  0
 36 56  1  0  0  0
 36106  1  0  0  0
 37 39  1  0  0  0
 37 47  1  0  0  0
 37 66  1  0  0  0
 37107  1  0  0  0
 38 43  2  0  0  0
 38 46  1  0  0  0
 38 47  1  0  0  0
 39 64  1  0  0  0
 39 67  2  0  0  0
 40 52  1  0  0  0
 40 53  2  0  0  0
 40 58  1  0  0  0
 41108  1  0  0  0
 41109  1  0  0  0
 41110  1  0  0  0
 41 48  1  0  0  0
 42 43  1  0  0  0
 42 66  1  0  0  0
 42111  1  0  0  0
 42112  1  0  0  0
 43 44  1  0  0  0
 44113  1  0  0  0
 45 46  2  0  0  0
 45114  1  0  0  0
 46115  1  0  0  0
 47116  1  0  0  0
 47117  1  0  0  0
 48 56  1  0  0  0
 48 65  1  0  0  0
 48118  1  0  0  0
 49 50  1  0  0  0
 49 53  1  0  0  0
 49 64  1  0  0  0
 49119  1  0  0  0
 50 51  1  0  0  0
 50120  1  0  0  0
 50121  1  0  0  0
 51 52  1  0  0  0
 51122  1  0  0  0
 51123  1  0  0  0
 52124  1  0  0  0
 52125  1  0  0  0
 53 54  1  0  0  0
 54 55  2  0  0  0
 54126  1  0  0  0
 55 57  1  0  0  0
 55127  1  0  0  0
 56 69  2  0  0  0
 57 58  2  0  0  0
 57128  1  0  0  0
 58129  1  0  0  0
 59 60  1  0  0  0
 59 61  1  0  0  0
 59 62  1  0  0  0
 60130  1  0  0  0
 60131  1  0  0  0
 60132  1  0  0  0
 61133  1  0  0  0
 61134  1  0  0  0
 61135  1  0  0  0
 62136  1  0  0  0
 62137  1  0  0  0
 62138  1  0  0  0
 63 65  1  0  0  0
 63139  1  0  0  0
 63140  1  0  0  0
 63141  1  0  0  0
 64142  1  0  0  0
 65143  1  0  0  0
 68 78  1  0  0  0
 71 73  2  0  0  0
 71 74  1  0  0  0
 71144  1  0  0  0
 72 73  1  0  0  0
 72 82  2  0  0  0
 72145  1  0  0  0
 73 78  1  0  0  0
 74 75  2  0  0  0
 74 83  1  0  0  0
 75 81  1  0  0  0
 75 82  1  0  0  0
 76146  1  0  0  0
 76147  1  0  0  0
 76148  1  0  0  0
 76 81  1  0  0  0
 77 81  1  0  0  0
 77149  1  0  0  0
 77150  1  0  0  0
 77151  1  0  0  0
 78152  1  0  0  0
 78153  1  0  0  0
 79 80  1  0  0  0
 79 83  1  0  0  0
 79154  1  0  0  0
 79155  1  0  0  0
 80 84  1  0  0  0
 80156  1  0  0  0
 80157  1  0  0  0
 81158  1  0  0  0
 83159  1  0  0  0
 84160  1  0  0  0
M  ISO  4   1 100  68 101  78 101  84 100
M  END
> <chiral flag>
0

> <version>
0

> <s_m_source_file>
/data/baiqing/PycharmProjects/Reinvent-master-3.2/result/LINK_invent/BTK/process_docking_weight1_custom_sum_contain_oxygen_bond_distance_aromatic_linkinvent_7_9_3/rearranged_h_0131.sdf

> <i_m_source_file_index>
27

> <r_mmod_Potential_Energy-OPLS-2005>
89.7376861572266

> <r_mmod_Stretch_Energy-OPLS-2005>
137.052200317383

> <r_mmod_Bend_Energy-OPLS-2005>
209.09260559082

> <r_mmod_Torsional_Energy-OPLS-2005>
239.451965332031

> <r_mmod_Improper_Torsional_Energy-OPLS-2005>
8.29973793029785

> <r_mmod_Van_der_Waal_Energy-OPLS-2005>
132.320510864258

> <r_mmod_Electrostatic_Energy-OPLS-2005>
-500.276550292969

> <r_mmod_Solvation_Energy-OPLS-2005>
-228.211318969727

> <b_mmod_Minimization_Converged-OPLS-2005>
0

> <r_mmod_RMS_Derivative-OPLS-2005>
4.3806324005127

$$$$
27
                    3D
 Structure written by MMmdl.
167176  0  0  1  0            999 V2000
  -30.6773  -14.5487   20.4349 C   0  0  0  0  0  0
  -30.4199  -12.3202   19.4508 C   0  0  0  0  0  0
  -29.5022  -12.4458   18.2168 C   0  0  0  0  0  0
  -28.0183  -12.3335   18.6195 C   0  0  0  0  0  0
  -27.6466  -13.2142   19.8452 C   0  0  2  0  0  0
  -28.6917  -13.0940   20.9785 C   0  0  0  0  0  0
  -25.2560  -13.8162   20.5678 C   0  0  0  0  0  0
  -24.1829  -13.0425   20.9199 C   0  0  0  0  0  0
  -24.6398  -11.6905   20.8741 C   0  0  0  0  0  0
  -23.9071  -10.4287   21.0394 C   0  0  0  0  0  0
  -24.3631   -9.4205   21.9176 C   0  0  0  0  0  0
  -23.6303   -8.2234   22.0754 C   0  0  0  0  0  0
  -22.4291   -8.0264   21.3545 C   0  0  0  0  0  0
  -21.9919   -9.0241   20.4646 C   0  0  0  0  0  0
  -22.7243  -10.2116   20.3052 C   0  0  0  0  0  0
  -21.6855   -6.0744   22.5289 C   0  0  0  0  0  0
  -21.4011   -6.5656   23.8220 C   0  0  0  0  0  0
  -21.3655   -5.6801   24.9181 C   0  0  0  0  0  0
  -21.6041   -4.3066   24.7225 C   0  0  0  0  0  0
  -21.8822   -3.8162   23.4341 C   0  0  0  0  0  0
  -21.9194   -4.6973   22.3411 C   0  0  0  0  0  0
  -22.7867  -13.5228   21.1828 C   0  0  0  0  0  0
  -22.1669   -4.2171   21.0976 F   0  0  0  0  0  0
  -21.5611   -3.4545   25.7725 F   0  0  0  0  0  0
  -30.0157  -13.3634   20.4065 N   0  0  0  0  0  0
  -26.2959  -12.9349   20.3251 N   0  0  0  0  0  0
  -25.9310  -11.6500   20.5739 N   0  0  0  0  0  0
  -22.0498  -12.8248   22.0388 N   0  0  0  0  0  0
  -25.4222  -15.1893   20.4113 N   0  0  0  0  0  0
  -31.8822  -14.6361   20.1897 O   0  0  0  0  0  0
  -21.6637   -6.8878   21.4251 O   0  0  0  0  0  0
  -22.3577  -14.5526   20.6634 O   0  0  0  0  0  0
  -24.6212  -31.8670   23.2042 C   0  0  0  0  0  0
  -25.9110  -32.4778   23.8378 C   0  0  1  0  0  0
  -27.2206  -27.4211   20.1070 C   0  0  0  0  0  0
  -25.5947  -33.8582   24.2303 N   0  0  0  0  0  0
  -23.4066  -30.4953   21.5422 C   0  0  2  0  0  0
  -24.8462  -28.9561   20.1094 C   0  0  0  0  0  0
  -22.7406  -29.4767   22.4955 C   0  0  0  0  0  0
  -18.0285  -28.1484   22.8458 C   0  0  0  0  0  0
  -24.1491  -36.7314   23.2628 C   0  0  0  0  0  0
  -25.9362  -30.8313   21.3566 C   0  0  0  0  0  0
  -26.0063  -29.4631   20.7087 C   0  0  0  0  0  0
  -27.2005  -28.7065   20.6945 C   0  0  0  0  0  0
  -26.0439  -26.9279   19.5017 C   0  0  0  0  0  0
  -24.8603  -27.6915   19.4974 C   0  0  0  0  0  0
  -23.6078  -29.8218   20.1588 C   0  0  0  0  0  0
  -25.4107  -36.3091   24.0322 C   0  0  1  0  0  0
  -20.5880  -28.3789   23.1297 C   0  0  2  0  0  0
  -20.6829  -26.9529   22.5421 C   0  0  0  0  0  0
  -19.5802  -26.6469   21.5234 C   0  0  0  0  0  0
  -18.1968  -26.8021   22.1610 C   0  0  0  0  0  0
  -19.1527  -28.8938   23.2886 C   0  0  0  0  0  0
  -18.9454  -30.1536   23.8915 C   0  0  0  0  0  0
  -17.6452  -30.6653   24.0623 C   0  0  0  0  0  0
  -25.9040  -34.9458   23.5105 C   0  0  0  0  0  0
  -16.5351  -29.9171   23.6350 C   0  0  0  0  0  0
  -16.7274  -28.6622   23.0301 C   0  0  0  0  0  0
  -26.4520  -31.6543   25.0717 C   0  0  0  0  0  0
  -25.3740  -31.3672   26.1418 C   0  0  0  0  0  0
  -27.0382  -30.2971   24.6170 C   0  0  0  0  0  0
  -27.6118  -32.4245   25.7454 C   0  0  0  0  0  0
  -27.5581  -37.1796   24.8451 C   0  0  0  0  0  0
  -21.4130  -29.3129   22.3643 N   0  0  0  0  0  0
  -26.4298  -37.3771   23.9386 N   0  0  0  0  0  0
  -24.6728  -31.0794   22.0921 N   0  0  0  0  0  0
  -23.4141  -28.8361   23.3071 O   0  0  0  0  0  0
  -28.3756  -26.6698   20.1178 O   0  0  0  0  0  0
  -26.5621  -34.8949   22.4679 O   0  0  0  0  0  0
  -23.5406  -32.1428   23.7448 O   0  0  0  0  0  0
  -29.9185  -22.4560   20.4569 C   0  0  0  0  0  0
  -30.2177  -21.1141   20.7717 C   0  0  0  0  0  0
  -28.5983  -22.8075   20.1059 C   0  0  0  0  0  0
  -27.6160  -21.7855   20.1738 C   0  0  0  0  0  0
  -29.1969  -20.1489   20.7126 C   0  0  0  0  0  0
  -29.7126  -18.9769   18.2293 C   0  0  0  0  0  0
  -29.6503  -18.2757   16.8733 C   0  0  0  0  0  0
  -30.2699  -16.1640   17.9156 C   0  0  0  0  0  0
  -29.3762  -18.0496   19.4422 C   0  0  1  0  0  0
  -30.2817  -16.7582   19.3638 C   0  0  1  0  0  0
  -26.1497  -22.0463   19.8773 C   0  0  0  0  0  0
  -28.3198  -24.2286   19.5806 C   0  0  0  0  0  0
  -28.2643  -25.3382   20.6598 C   0  0  0  0  0  0
  -27.9164  -20.4928   20.4598 N   0  0  0  0  0  0
  -29.5117  -18.7752   20.7255 N   0  0  0  0  0  0
  -29.8999  -15.6496   20.2808 N   0  0  0  0  0  0
  -30.5864  -17.1447   16.8636 N   0  3  0  0  0  0
  -31.4664  -12.4117   19.1532 H   0  0  0  0  0  0
  -30.3218  -11.3350   19.9070 H   0  0  0  0  0  0
  -29.7529  -11.6720   17.4908 H   0  0  0  0  0  0
  -29.6783  -13.3921   17.7108 H   0  0  0  0  0  0
  -27.8216  -11.2837   18.8381 H   0  0  0  0  0  0
  -27.3791  -12.5849   17.7729 H   0  0  0  0  0  0
  -27.6516  -14.2427   19.4867 H   0  0  0  0  0  0
  -28.6728  -12.0951   21.4157 H   0  0  0  0  0  0
  -28.4673  -13.7944   21.7843 H   0  0  0  0  0  0
  -25.2768   -9.5683   22.4758 H   0  0  0  0  0  0
  -24.0017   -7.4636   22.7478 H   0  0  0  0  0  0
  -21.0851   -8.8743   19.8972 H   0  0  0  0  0  0
  -22.3686  -10.9649   19.6171 H   0  0  0  0  0  0
  -21.2006   -7.6165   23.9741 H   0  0  0  0  0  0
  -21.1478   -6.0520   25.9079 H   0  0  0  0  0  0
  -22.0608   -2.7626   23.2835 H   0  0  0  0  0  0
  -22.4080  -11.9917   22.4823 H   0  0  0  0  0  0
  -21.1103  -13.1282   22.2512 H   0  0  0  0  0  0
  -24.6462  -15.8314   20.5169 H   0  0  0  0  0  0
  -26.2637  -15.6453   20.0893 H   0  0  0  0  0  0
  -26.7193  -32.5484   23.1149 H   0  0  0  0  0  0
  -25.0083  -33.9718   25.0450 H   0  0  0  0  0  0
  -22.7017  -31.3153   21.3994 H   0  0  0  0  0  0
  -23.3757  -35.9634   23.3261 H   0  0  0  0  0  0
  -24.3615  -36.8980   22.2054 H   0  0  0  0  0  0
  -23.7256  -37.6514   23.6672 H   0  0  0  0  0  0
  -26.0585  -31.5902   20.5820 H   0  0  0  0  0  0
  -26.8217  -30.8793   21.9795 H   0  0  0  0  0  0
  -28.0997  -29.0949   21.1501 H   0  0  0  0  0  0
  -26.0309  -25.9583   19.0294 H   0  0  0  0  0  0
  -23.9709  -27.3026   19.0188 H   0  0  0  0  0  0
  -23.7049  -30.5893   19.3900 H   0  0  0  0  0  0
  -22.7331  -29.2345   19.8745 H   0  0  0  0  0  0
  -25.1293  -36.1914   25.0814 H   0  0  0  0  0  0
  -20.9982  -28.3414   24.1415 H   0  0  0  0  0  0
  -20.5867  -26.2406   23.3628 H   0  0  0  0  0  0
  -21.6697  -26.7696   22.1149 H   0  0  0  0  0  0
  -19.7012  -25.6382   21.1278 H   0  0  0  0  0  0
  -19.6748  -27.3268   20.6763 H   0  0  0  0  0  0
  -17.4265  -26.6744   21.4000 H   0  0  0  0  0  0
  -18.0376  -26.0193   22.9033 H   0  0  0  0  0  0
  -19.7931  -30.7358   24.2286 H   0  0  0  0  0  0
  -17.5019  -31.6311   24.5272 H   0  0  0  0  0  0
  -15.5361  -30.3094   23.7709 H   0  0  0  0  0  0
  -15.8664  -28.1001   22.6948 H   0  0  0  0  0  0
  -24.5932  -30.7018   25.7702 H   0  0  0  0  0  0
  -24.8911  -32.2838   26.4797 H   0  0  0  0  0  0
  -25.8029  -30.8840   27.0201 H   0  0  0  0  0  0
  -26.2971  -29.6657   24.1258 H   0  0  0  0  0  0
  -27.4165  -29.7274   25.4673 H   0  0  0  0  0  0
  -27.8778  -30.4261   23.9343 H   0  0  0  0  0  0
  -27.2783  -33.3551   26.2039 H   0  0  0  0  0  0
  -28.3897  -32.6774   25.0239 H   0  0  0  0  0  0
  -28.0817  -31.8347   26.5330 H   0  0  0  0  0  0
  -28.2586  -38.0111   24.7545 H   0  0  0  0  0  0
  -28.1108  -36.2665   24.6201 H   0  0  0  0  0  0
  -27.2326  -37.1336   25.8863 H   0  0  0  0  0  0
  -20.9321  -29.8656   21.6675 H   0  0  0  0  0  0
  -26.0188  -38.2848   24.1362 H   0  0  0  0  0  0
  -30.7094  -23.1927   20.4193 H   0  0  0  0  0  0
  -31.2455  -20.8316   20.9591 H   0  0  0  0  0  0
  -29.0241  -19.8195   18.1673 H   0  0  0  0  0  0
  -30.7074  -19.4103   18.3567 H   0  0  0  0  0  0
  -29.9130  -18.9707   16.0741 H   0  0  0  0  0  0
  -28.6365  -17.9239   16.6726 H   0  0  0  0  0  0
  -29.2881  -15.7368   17.7022 H   0  0  0  0  0  0
  -30.9960  -15.3581   17.8114 H   0  0  0  0  0  0
  -28.3322  -17.7485   19.3466 H   0  0  0  0  0  0
  -31.3057  -17.0619   19.5948 H   0  0  0  0  0  0
  -25.7583  -22.8318   20.5240 H   0  0  0  0  0  0
  -25.5437  -21.1512   20.0355 H   0  0  0  0  0  0
  -26.0120  -22.3582   18.8424 H   0  0  0  0  0  0
  -27.4143  -24.2381   18.9767 H   0  0  0  0  0  0
  -29.1182  -24.4729   18.8796 H   0  0  0  0  0  0
  -29.1175  -25.2267   21.3272 H   0  0  0  0  0  0
  -27.3778  -25.2248   21.2877 H   0  0  0  0  0  0
  -30.3818  -18.5672   21.2013 H   0  0  0  0  0  0
  -28.9175  -15.5538   20.4890 H   0  0  0  0  0  0
  -31.5296  -17.4799   16.9788 H   0  0  0  0  0  0
  -30.5424  -16.6906   15.9643 H   0  0  0  0  0  0
  1 25  1  0  0  0
  1 30  2  0  0  0
  1 86  1  0  0  0
  2  3  1  0  0  0
  2 25  1  0  0  0
  2 88  1  0  0  0
  2 89  1  0  0  0
  3  4  1  0  0  0
  3 90  1  0  0  0
  3 91  1  0  0  0
  4  5  1  0  0  0
  4 92  1  0  0  0
  4 93  1  0  0  0
  5  6  1  0  0  0
  5 26  1  0  0  0
  5 94  1  0  0  0
  6 25  1  0  0  0
  6 95  1  0  0  0
  6 96  1  0  0  0
  7  8  2  0  0  0
  7 26  1  0  0  0
  7 29  1  0  0  0
  8  9  1  0  0  0
  8 22  1  0  0  0
  9 10  1  0  0  0
  9 27  2  0  0  0
 10 11  2  0  0  0
 10 15  1  0  0  0
 11 12  1  0  0  0
 11 97  1  0  0  0
 12 13  2  0  0  0
 12 98  1  0  0  0
 13 14  1  0  0  0
 13 31  1  0  0  0
 14 15  2  0  0  0
 14 99  1  0  0  0
 15100  1  0  0  0
 16 17  2  0  0  0
 16 21  1  0  0  0
 16 31  1  0  0  0
 17 18  1  0  0  0
 17101  1  0  0  0
 18 19  2  0  0  0
 18102  1  0  0  0
 19 20  1  0  0  0
 19 24  1  0  0  0
 20 21  2  0  0  0
 20103  1  0  0  0
 21 23  1  0  0  0
 22 28  1  0  0  0
 22 32  2  0  0  0
 26 27  1  0  0  0
 28104  1  0  0  0
 28105  1  0  0  0
 29106  1  0  0  0
 29107  1  0  0  0
 33 34  1  0  0  0
 33 66  1  0  0  0
 33 70  2  0  0  0
 34 36  1  0  0  0
 34 59  1  0  0  0
 34108  1  0  0  0
 35 44  2  0  0  0
 35 45  1  0  0  0
 35 68  1  0  0  0
 36 56  1  0  0  0
 36109  1  0  0  0
 37 39  1  0  0  0
 37 47  1  0  0  0
 37 66  1  0  0  0
 37110  1  0  0  0
 38 43  2  0  0  0
 38 46  1  0  0  0
 38 47  1  0  0  0
 39 64  1  0  0  0
 39 67  2  0  0  0
 40 52  1  0  0  0
 40 53  2  0  0  0
 40 58  1  0  0  0
 41111  1  0  0  0
 41112  1  0  0  0
 41113  1  0  0  0
 41 48  1  0  0  0
 42 43  1  0  0  0
 42 66  1  0  0  0
 42114  1  0  0  0
 42115  1  0  0  0
 43 44  1  0  0  0
 44116  1  0  0  0
 45 46  2  0  0  0
 45117  1  0  0  0
 46118  1  0  0  0
 47119  1  0  0  0
 47120  1  0  0  0
 48 56  1  0  0  0
 48 65  1  0  0  0
 48121  1  0  0  0
 49 50  1  0  0  0
 49 53  1  0  0  0
 49 64  1  0  0  0
 49122  1  0  0  0
 50 51  1  0  0  0
 50123  1  0  0  0
 50124  1  0  0  0
 51 52  1  0  0  0
 51125  1  0  0  0
 51126  1  0  0  0
 52127  1  0  0  0
 52128  1  0  0  0
 53 54  1  0  0  0
 54 55  2  0  0  0
 54129  1  0  0  0
 55 57  1  0  0  0
 55130  1  0  0  0
 56 69  2  0  0  0
 57 58  2  0  0  0
 57131  1  0  0  0
 58132  1  0  0  0
 59 60  1  0  0  0
 59 61  1  0  0  0
 59 62  1  0  0  0
 60133  1  0  0  0
 60134  1  0  0  0
 60135  1  0  0  0
 61136  1  0  0  0
 61137  1  0  0  0
 61138  1  0  0  0
 62139  1  0  0  0
 62140  1  0  0  0
 62141  1  0  0  0
 63 65  1  0  0  0
 63142  1  0  0  0
 63143  1  0  0  0
 63144  1  0  0  0
 64145  1  0  0  0
 65146  1  0  0  0
 68 83  1  0  0  0
 71 72  2  0  0  0
 71 73  1  0  0  0
 71147  1  0  0  0
 72 75  1  0  0  0
 72148  1  0  0  0
 73 74  2  0  0  0
 73 82  1  0  0  0
 74 81  1  0  0  0
 74 84  1  0  0  0
 75 84  2  0  0  0
 75 85  1  0  0  0
 76 77  1  0  0  0
 76 79  1  0  0  0
 76149  1  0  0  0
 76150  1  0  0  0
 77 87  1  0  0  0
 77151  1  0  0  0
 77152  1  0  0  0
 78 80  1  0  0  0
 78 87  1  0  0  0
 78153  1  0  0  0
 78154  1  0  0  0
 79 80  1  0  0  0
 79 85  1  0  0  0
 79155  1  0  0  0
 80 86  1  0  0  0
 80156  1  0  0  0
 81157  1  0  0  0
 81158  1  0  0  0
 81159  1  0  0  0
 82 83  1  0  0  0
 82160  1  0  0  0
 82161  1  0  0  0
 83162  1  0  0  0
 83163  1  0  0  0
 85164  1  0  0  0
 86165  1  0  0  0
 87166  1  0  0  0
 87167  1  0  0  0
M  CHG  1  87   1
M  ISO  4   1 100  68 101  83 101  86 100
M  END
> <chiral flag>
0

> <version>
0

> <s_m_source_file>
/data/baiqing/PycharmProjects/Reinvent-master-3.2/result/LINK_invent/BTK/process_docking_weight1_custom_sum_contain_oxygen_bond_distance_aromatic_linkinvent_7_9_3/rearranged_h_0131.sdf

> <i_m_source_file_index>
28

> <r_mmod_Potential_Energy-OPLS-2005>
-464.941619873047

> <r_mmod_Stretch_Energy-OPLS-2005>
45.4941864013672

> <r_mmod_Bend_Energy-OPLS-2005>
102.230026245117

> <r_mmod_Torsional_Energy-OPLS-2005>
299.727905273438

> <r_mmod_Improper_Torsional_Energy-OPLS-2005>
20.6970252990723

> <r_mmod_Van_der_Waal_Energy-OPLS-2005>
158.463363647461

> <r_mmod_Electrostatic_Energy-OPLS-2005>
-625.021179199219

> <r_mmod_Solvation_Energy-OPLS-2005>
-495.880798339844

> <b_mmod_Minimization_Converged-OPLS-2005>
0

> <r_mmod_RMS_Derivative-OPLS-2005>
4.23355388641357

$$$$
28
                    3D
 Structure written by MMmdl.
169177  0  0  1  0            999 V2000
  -30.5983  -14.7208   20.4844 C   0  0  0  0  0  0
  -30.4373  -12.4328   19.4846 C   0  0  0  0  0  0
  -29.5157  -12.5142   18.2449 C   0  0  0  0  0  0
  -28.0403  -12.3377   18.6528 C   0  0  0  0  0  0
  -27.6513  -13.2272   19.8621 C   0  0  2  0  0  0
  -28.6931  -13.1288   21.0021 C   0  0  0  0  0  0
  -25.2557  -13.8187   20.5713 C   0  0  0  0  0  0
  -24.1834  -13.0428   20.9224 C   0  0  0  0  0  0
  -24.6436  -11.6915   20.8791 C   0  0  0  0  0  0
  -23.9116  -10.4294   21.0441 C   0  0  0  0  0  0
  -24.3658   -9.4200   21.9215 C   0  0  0  0  0  0
  -23.6319   -8.2239   22.0764 C   0  0  0  0  0  0
  -22.4290   -8.0306   21.3570 C   0  0  0  0  0  0
  -21.9954   -9.0283   20.4670 C   0  0  0  0  0  0
  -22.7297  -10.2155   20.3082 C   0  0  0  0  0  0
  -21.6843   -6.0775   22.5302 C   0  0  0  0  0  0
  -21.4013   -6.5665   23.8250 C   0  0  0  0  0  0
  -21.3658   -5.6805   24.9198 C   0  0  0  0  0  0
  -21.6033   -4.3071   24.7241 C   0  0  0  0  0  0
  -21.8810   -3.8176   23.4353 C   0  0  0  0  0  0
  -21.9182   -4.7003   22.3417 C   0  0  0  0  0  0
  -22.7871  -13.5238   21.1870 C   0  0  0  0  0  0
  -22.1658   -4.2180   21.0997 F   0  0  0  0  0  0
  -21.5609   -3.4549   25.7754 F   0  0  0  0  0  0
  -30.0061  -13.4784   20.4417 N   0  0  0  0  0  0
  -26.2989  -12.9396   20.3320 N   0  0  0  0  0  0
  -25.9364  -11.6546   20.5792 N   0  0  0  0  0  0
  -22.0484  -12.8242   22.0424 N   0  0  0  0  0  0
  -25.4189  -15.1914   20.4147 N   0  0  0  0  0  0
  -31.7464  -14.8825   20.0659 O   0  0  0  0  0  0
  -21.6619   -6.8926   21.4278 O   0  0  0  0  0  0
  -22.3566  -14.5540   20.6705 O   0  0  0  0  0  0
  -24.6339  -31.8566   23.2026 C   0  0  0  0  0  0
  -25.9163  -32.4767   23.8365 C   0  0  1  0  0  0
  -27.2181  -27.2546   20.1314 C   0  0  0  0  0  0
  -25.5951  -33.8565   24.2307 N   0  0  0  0  0  0
  -23.4302  -30.4850   21.5439 C   0  0  2  0  0  0
  -24.8781  -28.9361   20.1105 C   0  0  0  0  0  0
  -22.7500  -29.4641   22.4895 C   0  0  0  0  0  0
  -18.0300  -28.1379   22.8498 C   0  0  0  0  0  0
  -24.1478  -36.7281   23.2650 C   0  0  0  0  0  0
  -25.9790  -30.7699   21.3833 C   0  0  0  0  0  0
  -26.0511  -29.3920   20.7248 C   0  0  0  0  0  0
  -27.2229  -28.5655   20.7250 C   0  0  0  0  0  0
  -26.0209  -26.8807   19.4733 C   0  0  0  0  0  0
  -24.8705  -27.6897   19.4727 C   0  0  0  0  0  0
  -23.6498  -29.8246   20.1581 C   0  0  0  0  0  0
  -25.4103  -36.3084   24.0348 C   0  0  1  0  0  0
  -20.5909  -28.3707   23.1251 C   0  0  2  0  0  0
  -20.6783  -26.9419   22.5396 C   0  0  0  0  0  0
  -19.5746  -26.6384   21.5206 C   0  0  0  0  0  0
  -18.1934  -26.7928   22.1632 C   0  0  0  0  0  0
  -19.1554  -28.8848   23.2884 C   0  0  0  0  0  0
  -18.9469  -30.1446   23.8918 C   0  0  0  0  0  0
  -17.6469  -30.6581   24.0564 C   0  0  0  0  0  0
  -25.9051  -34.9441   23.5133 C   0  0  0  0  0  0
  -16.5363  -29.9085   23.6320 C   0  0  0  0  0  0
  -16.7288  -28.6486   23.0374 C   0  0  0  0  0  0
  -26.4522  -31.6578   25.0738 C   0  0  0  0  0  0
  -25.3731  -31.3726   26.1444 C   0  0  0  0  0  0
  -27.0383  -30.3003   24.6215 C   0  0  0  0  0  0
  -27.6088  -32.4302   25.7495 C   0  0  0  0  0  0
  -27.5576  -37.1799   24.8476 C   0  0  0  0  0  0
  -21.4206  -29.3071   22.3632 N   0  0  0  0  0  0
  -26.4294  -37.3772   23.9410 N   0  0  0  0  0  0
  -24.7007  -31.0532   22.1008 N   0  0  0  0  0  0
  -23.4192  -28.8168   23.2994 O   0  0  0  0  0  0
  -28.3177  -26.3583   20.1814 O   0  0  0  0  0  0
  -26.5599  -34.8914   22.4691 O   0  0  0  0  0  0
  -23.5476  -32.1404   23.7299 O   0  0  0  0  0  0
  -27.7739  -22.7446   21.4405 C   0  0  0  0  0  0
  -27.6049  -24.2886   21.5507 C   0  0  0  0  0  0
  -29.1529  -22.5133   20.7881 C   0  0  2  0  0  0
  -29.2092  -23.8031   19.8188 C   0  0  1  0  0  0
  -28.0828  -24.8645   20.2095 C   0  0  2  0  0  0
  -30.8439  -24.5556   17.2739 C   0  0  0  0  0  0
  -29.4857  -21.0103   20.2305 C   0  0  0  0  0  0
  -29.7026  -17.2296   20.2753 C   0  0  0  0  0  0
  -29.9219  -18.4997   21.2450 C   0  0  0  0  0  0
  -32.8070  -24.7401   18.8891 C   0  0  0  0  0  0
  -31.4196  -24.1203   18.6414 C   0  0  1  0  0  0
  -29.7889  -15.7930   20.8078 N   0  0  0  0  0  0
  -30.5301  -24.4754   19.7724 N   0  3  0  0  0  0
  -29.0976  -19.7968   21.0805 N   0  3  0  0  0  0
  -32.7011  -26.1496   19.0175 O   0  0  0  0  0  0
  -31.4819  -12.5487   19.1882 H   0  0  0  0  0  0
  -30.3664  -11.4476   19.9487 H   0  0  0  0  0  0
  -29.7957  -11.7529   17.5148 H   0  0  0  0  0  0
  -29.6459  -13.4762   17.7477 H   0  0  0  0  0  0
  -27.8959  -11.2881   18.9086 H   0  0  0  0  0  0
  -27.3826  -12.5398   17.8062 H   0  0  0  0  0  0
  -27.6554  -14.2532   19.4930 H   0  0  0  0  0  0
  -28.7155  -12.1220   21.4195 H   0  0  0  0  0  0
  -28.4228  -13.7896   21.8270 H   0  0  0  0  0  0
  -25.2804   -9.5636   22.4805 H   0  0  0  0  0  0
  -24.0010   -7.4611   22.7480 H   0  0  0  0  0  0
  -21.0878   -8.8857   19.8974 H   0  0  0  0  0  0
  -22.3801  -10.9720   19.6197 H   0  0  0  0  0  0
  -21.2016   -7.6170   23.9778 H   0  0  0  0  0  0
  -21.1475   -6.0524   25.9107 H   0  0  0  0  0  0
  -22.0578   -2.7637   23.2847 H   0  0  0  0  0  0
  -22.4073  -11.9898   22.4813 H   0  0  0  0  0  0
  -21.1120  -13.1329   22.2627 H   0  0  0  0  0  0
  -24.6362  -15.8302   20.5077 H   0  0  0  0  0  0
  -26.2546  -15.6404   20.0621 H   0  0  0  0  0  0
  -26.7239  -32.5413   23.1111 H   0  0  0  0  0  0
  -25.0105  -33.9699   25.0457 H   0  0  0  0  0  0
  -22.7286  -31.3095   21.3994 H   0  0  0  0  0  0
  -23.3750  -35.9607   23.3317 H   0  0  0  0  0  0
  -24.3597  -36.8873   22.2069 H   0  0  0  0  0  0
  -23.7198  -37.6480   23.6646 H   0  0  0  0  0  0
  -26.1193  -31.5311   20.6142 H   0  0  0  0  0  0
  -26.8576  -30.8186   22.0156 H   0  0  0  0  0  0
  -28.1172  -28.9154   21.2234 H   0  0  0  0  0  0
  -25.9201  -25.9534   18.9327 H   0  0  0  0  0  0
  -23.9787  -27.3457   18.9693 H   0  0  0  0  0  0
  -23.7730  -30.6045   19.4056 H   0  0  0  0  0  0
  -22.7664  -29.2606   19.8529 H   0  0  0  0  0  0
  -25.1270  -36.1979   25.0842 H   0  0  0  0  0  0
  -21.0033  -28.3302   24.1359 H   0  0  0  0  0  0
  -20.5661  -26.2330   23.3612 H   0  0  0  0  0  0
  -21.6648  -26.7418   22.1192 H   0  0  0  0  0  0
  -19.6909  -25.6290   21.1229 H   0  0  0  0  0  0
  -19.6680  -27.3195   20.6729 H   0  0  0  0  0  0
  -17.4202  -26.6690   21.4044 H   0  0  0  0  0  0
  -18.0346  -26.0060   22.9013 H   0  0  0  0  0  0
  -19.7941  -30.7243   24.2329 H   0  0  0  0  0  0
  -17.5020  -31.6268   24.5146 H   0  0  0  0  0  0
  -15.5362  -30.2996   23.7601 H   0  0  0  0  0  0
  -15.8693  -28.0778   22.7127 H   0  0  0  0  0  0
  -24.5912  -30.7080   25.7758 H   0  0  0  0  0  0
  -24.8916  -32.2892   26.4855 H   0  0  0  0  0  0
  -25.8028  -30.8904   27.0229 H   0  0  0  0  0  0
  -26.2992  -29.6725   24.1233 H   0  0  0  0  0  0
  -27.4087  -29.7283   25.4730 H   0  0  0  0  0  0
  -27.8847  -30.4297   23.9469 H   0  0  0  0  0  0
  -27.2736  -33.3617   26.2064 H   0  0  0  0  0  0
  -28.3897  -32.6834   25.0313 H   0  0  0  0  0  0
  -28.0760  -31.8427   26.5405 H   0  0  0  0  0  0
  -28.2609  -38.0083   24.7502 H   0  0  0  0  0  0
  -28.1055  -36.2612   24.6327 H   0  0  0  0  0  0
  -27.2295  -37.1465   25.8882 H   0  0  0  0  0  0
  -20.9397  -29.8834   21.6863 H   0  0  0  0  0  0
  -26.0190  -38.2861   24.1393 H   0  0  0  0  0  0
  -26.9817  -22.3345   20.8115 H   0  0  0  0  0  0
  -27.6904  -22.2676   22.4169 H   0  0  0  0  0  0
  -28.2369  -24.6734   22.3530 H   0  0  0  0  0  0
  -26.5802  -24.5801   21.7788 H   0  0  0  0  0  0
  -29.8751  -22.6869   21.5878 H   0  0  0  0  0  0
  -28.9496  -23.4617   18.8181 H   0  0  0  0  0  0
  -27.3011  -24.6281   19.4964 H   0  0  0  0  0  0
  -31.5792  -24.4114   16.4815 H   0  0  0  0  0  0
  -30.5601  -25.6073   17.2687 H   0  0  0  0  0  0
  -29.9679  -23.9746   16.9827 H   0  0  0  0  0  0
  -30.5578  -20.9554   20.0423 H   0  0  0  0  0  0
  -29.0188  -20.8786   19.2540 H   0  0  0  0  0  0
  -30.3734  -17.3295   19.4224 H   0  0  0  0  0  0
  -28.7044  -17.3182   19.8509 H   0  0  0  0  0  0
  -30.9818  -18.7503   21.2951 H   0  0  0  0  0  0
  -29.6762  -18.1470   22.2476 H   0  0  0  0  0  0
  -33.4931  -24.4922   18.0769 H   0  0  0  0  0  0
  -33.2499  -24.3283   19.7969 H   0  0  0  0  0  0
  -31.5428  -23.0363   18.6325 H   0  0  0  0  0  0
  -28.9260  -15.4798   21.2272 H   0  0  0  0  0  0
  -31.0282  -24.3317   20.6362 H   0  0  0  0  0  0
  -30.3763  -25.4727   19.7120 H   0  0  0  0  0  0
  -28.1429  -19.5496   20.8713 H   0  0  0  0  0  0
  -29.0756  -20.1623   22.0193 H   0  0  0  0  0  0
  -32.5634  -26.5130   18.1472 H   0  0  0  0  0  0
  1 25  1  0  0  0
  1 30  2  0  0  0
  1 82  1  0  0  0
  2  3  1  0  0  0
  2 25  1  0  0  0
  2 86  1  0  0  0
  2 87  1  0  0  0
  3  4  1  0  0  0
  3 88  1  0  0  0
  3 89  1  0  0  0
  4  5  1  0  0  0
  4 90  1  0  0  0
  4 91  1  0  0  0
  5  6  1  0  0  0
  5 26  1  0  0  0
  5 92  1  0  0  0
  6 25  1  0  0  0
  6 93  1  0  0  0
  6 94  1  0  0  0
  7  8  2  0  0  0
  7 26  1  0  0  0
  7 29  1  0  0  0
  8  9  1  0  0  0
  8 22  1  0  0  0
  9 10  1  0  0  0
  9 27  2  0  0  0
 10 11  2  0  0  0
 10 15  1  0  0  0
 11 12  1  0  0  0
 11 95  1  0  0  0
 12 13  2  0  0  0
 12 96  1  0  0  0
 13 14  1  0  0  0
 13 31  1  0  0  0
 14 15  2  0  0  0
 14 97  1  0  0  0
 15 98  1  0  0  0
 16 17  2  0  0  0
 16 21  1  0  0  0
 16 31  1  0  0  0
 17 18  1  0  0  0
 17 99  1  0  0  0
 18 19  2  0  0  0
 18100  1  0  0  0
 19 20  1  0  0  0
 19 24  1  0  0  0
 20 21  2  0  0  0
 20101  1  0  0  0
 21 23  1  0  0  0
 22 28  1  0  0  0
 22 32  2  0  0  0
 26 27  1  0  0  0
 28102  1  0  0  0
 28103  1  0  0  0
 29104  1  0  0  0
 29105  1  0  0  0
 33 34  1  0  0  0
 33 66  1  0  0  0
 33 70  2  0  0  0
 34 36  1  0  0  0
 34 59  1  0  0  0
 34106  1  0  0  0
 35 44  2  0  0  0
 35 45  1  0  0  0
 35 68  1  0  0  0
 36 56  1  0  0  0
 36107  1  0  0  0
 37 39  1  0  0  0
 37 47  1  0  0  0
 37 66  1  0  0  0
 37108  1  0  0  0
 38 43  2  0  0  0
 38 46  1  0  0  0
 38 47  1  0  0  0
 39 64  1  0  0  0
 39 67  2  0  0  0
 40 52  1  0  0  0
 40 53  2  0  0  0
 40 58  1  0  0  0
 41109  1  0  0  0
 41110  1  0  0  0
 41111  1  0  0  0
 41 48  1  0  0  0
 42 43  1  0  0  0
 42 66  1  0  0  0
 42112  1  0  0  0
 42113  1  0  0  0
 43 44  1  0  0  0
 44114  1  0  0  0
 45 46  2  0  0  0
 45115  1  0  0  0
 46116  1  0  0  0
 47117  1  0  0  0
 47118  1  0  0  0
 48 56  1  0  0  0
 48 65  1  0  0  0
 48119  1  0  0  0
 49 50  1  0  0  0
 49 53  1  0  0  0
 49 64  1  0  0  0
 49120  1  0  0  0
 50 51  1  0  0  0
 50121  1  0  0  0
 50122  1  0  0  0
 51 52  1  0  0  0
 51123  1  0  0  0
 51124  1  0  0  0
 52125  1  0  0  0
 52126  1  0  0  0
 53 54  1  0  0  0
 54 55  2  0  0  0
 54127  1  0  0  0
 55 57  1  0  0  0
 55128  1  0  0  0
 56 69  2  0  0  0
 57 58  2  0  0  0
 57129  1  0  0  0
 58130  1  0  0  0
 59 60  1  0  0  0
 59 61  1  0  0  0
 59 62  1  0  0  0
 60131  1  0  0  0
 60132  1  0  0  0
 60133  1  0  0  0
 61134  1  0  0  0
 61135  1  0  0  0
 61136  1  0  0  0
 62137  1  0  0  0
 62138  1  0  0  0
 62139  1  0  0  0
 63 65  1  0  0  0
 63140  1  0  0  0
 63141  1  0  0  0
 63142  1  0  0  0
 64143  1  0  0  0
 65144  1  0  0  0
 68 75  1  0  0  0
 71 72  1  0  0  0
 71 73  1  0  0  0
 71145  1  0  0  0
 71146  1  0  0  0
 72 75  1  0  0  0
 72147  1  0  0  0
 72148  1  0  0  0
 73 74  1  0  0  0
 73 77  1  0  0  0
 73149  1  0  0  0
 74 75  1  0  0  0
 74 83  1  0  0  0
 74150  1  0  0  0
 75151  1  0  0  0
 76152  1  0  0  0
 76153  1  0  0  0
 76154  1  0  0  0
 76 81  1  0  0  0
 77 84  1  0  0  0
 77155  1  0  0  0
 77156  1  0  0  0
 78 79  1  0  0  0
 78 82  1  0  0  0
 78157  1  0  0  0
 78158  1  0  0  0
 79 84  1  0  0  0
 79159  1  0  0  0
 79160  1  0  0  0
 80 81  1  0  0  0
 80 85  1  0  0  0
 80161  1  0  0  0
 80162  1  0  0  0
 81 83  1  0  0  0
 81163  1  0  0  0
 82164  1  0  0  0
 83165  1  0  0  0
 83166  1  0  0  0
 84167  1  0  0  0
 84168  1  0  0  0
 85169  1  0  0  0
M  CHG  2  83   1  84   1
M  ISO  4   1 100  68 101  75 101  82 100
M  END
> <chiral flag>
0

> <version>
0

> <s_m_source_file>
/data/baiqing/PycharmProjects/Reinvent-master-3.2/result/LINK_invent/BTK/process_docking_weight1_custom_sum_contain_oxygen_bond_distance_aromatic_linkinvent_7_9_3/rearranged_h_0131.sdf

> <i_m_source_file_index>
29

> <r_mmod_Potential_Energy-OPLS-2005>
-81.246696472168

> <r_mmod_Stretch_Energy-OPLS-2005>
124.307426452637

> <r_mmod_Bend_Energy-OPLS-2005>
230.067672729492

> <r_mmod_Torsional_Energy-OPLS-2005>
341.556427001953

> <r_mmod_Improper_Torsional_Energy-OPLS-2005>
6.27435922622681

> <r_mmod_Van_der_Waal_Energy-OPLS-2005>
117.960708618164

> <r_mmod_Electrostatic_Energy-OPLS-2005>
-0.482395112514496

> <r_mmod_Solvation_Energy-OPLS-2005>
-980.997375488281

> <b_mmod_Minimization_Converged-OPLS-2005>
0

> <r_mmod_RMS_Derivative-OPLS-2005>
2.95061016082764

$$$$
29
                    3D
 Structure written by MMmdl.
171180  0  0  1  0            999 V2000
  -30.6872  -14.5216   20.5158 C   0  0  0  0  0  0
  -30.4219  -12.3190   19.4456 C   0  0  0  0  0  0
  -29.5000  -12.4940   18.2199 C   0  0  0  0  0  0
  -28.0208  -12.3549   18.6292 C   0  0  0  0  0  0
  -27.6584  -13.2124   19.8716 C   0  0  2  0  0  0
  -28.7012  -13.0373   21.0011 C   0  0  0  0  0  0
  -25.2575  -13.8169   20.5687 C   0  0  0  0  0  0
  -24.1834  -13.0441   20.9186 C   0  0  0  0  0  0
  -24.6393  -11.6910   20.8743 C   0  0  0  0  0  0
  -23.9059  -10.4294   21.0407 C   0  0  0  0  0  0
  -24.3612   -9.4208   21.9183 C   0  0  0  0  0  0
  -23.6290   -8.2243   22.0752 C   0  0  0  0  0  0
  -22.4273   -8.0281   21.3543 C   0  0  0  0  0  0
  -21.9906   -9.0255   20.4646 C   0  0  0  0  0  0
  -22.7233  -10.2135   20.3055 C   0  0  0  0  0  0
  -21.6852   -6.0735   22.5279 C   0  0  0  0  0  0
  -21.4014   -6.5639   23.8212 C   0  0  0  0  0  0
  -21.3659   -5.6792   24.9174 C   0  0  0  0  0  0
  -21.6045   -4.3054   24.7225 C   0  0  0  0  0  0
  -21.8820   -3.8146   23.4346 C   0  0  0  0  0  0
  -21.9192   -4.6963   22.3402 C   0  0  0  0  0  0
  -22.7855  -13.5237   21.1849 C   0  0  0  0  0  0
  -22.1661   -4.2149   21.0980 F   0  0  0  0  0  0
  -21.5629   -3.4538   25.7737 F   0  0  0  0  0  0
  -30.0296  -13.3304   20.4422 N   0  0  0  0  0  0
  -26.3012  -12.9348   20.3359 N   0  0  0  0  0  0
  -25.9323  -11.6504   20.5778 N   0  0  0  0  0  0
  -22.0496  -12.8230   22.0405 N   0  0  0  0  0  0
  -25.4290  -15.1888   20.4084 N   0  0  0  0  0  0
  -31.8409  -14.6639   20.1043 O   0  0  0  0  0  0
  -21.6638   -6.8878   21.4241 O   0  0  0  0  0  0
  -22.3544  -14.5547   20.6702 O   0  0  0  0  0  0
  -24.6188  -31.8664   23.2106 C   0  0  0  0  0  0
  -25.9071  -32.4812   23.8399 C   0  0  1  0  0  0
  -27.2221  -27.3869   20.0938 C   0  0  0  0  0  0
  -25.5919  -33.8613   24.2324 N   0  0  0  0  0  0
  -23.4075  -30.4938   21.5522 C   0  0  2  0  0  0
  -24.8508  -28.9633   20.1104 C   0  0  0  0  0  0
  -22.7432  -29.4656   22.4972 C   0  0  0  0  0  0
  -18.0277  -28.1376   22.8491 C   0  0  0  0  0  0
  -24.1489  -36.7310   23.2636 C   0  0  0  0  0  0
  -25.9436  -30.8146   21.3752 C   0  0  0  0  0  0
  -26.0149  -29.4484   20.7176 C   0  0  0  0  0  0
  -27.1990  -28.6660   20.7122 C   0  0  0  0  0  0
  -26.0377  -26.9507   19.4486 C   0  0  0  0  0  0
  -24.8601  -27.7156   19.4726 C   0  0  0  0  0  0
  -23.6168  -29.8354   20.1641 C   0  0  0  0  0  0
  -25.4110  -36.3105   24.0335 C   0  0  1  0  0  0
  -20.5871  -28.3670   23.1305 C   0  0  2  0  0  0
  -20.6768  -26.9403   22.5412 C   0  0  0  0  0  0
  -19.5745  -26.6383   21.5211 C   0  0  0  0  0  0
  -18.1925  -26.7922   22.1624 C   0  0  0  0  0  0
  -19.1527  -28.8840   23.2895 C   0  0  0  0  0  0
  -18.9454  -30.1445   23.8906 C   0  0  0  0  0  0
  -17.6455  -30.6583   24.0564 C   0  0  0  0  0  0
  -25.9042  -34.9470   23.5124 C   0  0  0  0  0  0
  -16.5347  -29.9083   23.6327 C   0  0  0  0  0  0
  -16.7266  -28.6500   23.0349 C   0  0  0  0  0  0
  -26.4483  -31.6598   25.0739 C   0  0  0  0  0  0
  -25.3741  -31.3719   26.1483 C   0  0  0  0  0  0
  -27.0314  -30.3031   24.6149 C   0  0  0  0  0  0
  -27.6057  -32.4321   25.7500 C   0  0  0  0  0  0
  -27.5581  -37.1809   24.8464 C   0  0  0  0  0  0
  -21.4155  -29.3036   22.3710 N   0  0  0  0  0  0
  -26.4294  -37.3792   23.9409 N   0  0  0  0  0  0
  -24.6750  -31.0733   22.1031 N   0  0  0  0  0  0
  -23.4191  -28.8186   23.3015 O   0  0  0  0  0  0
  -28.3728  -26.6032   20.1540 O   0  0  0  0  0  0
  -26.5600  -34.8922   22.4683 O   0  0  0  0  0  0
  -23.5372  -32.1439   23.7474 O   0  0  0  0  0  0
  -29.6181  -22.5675   22.3059 C   0  0  0  0  0  0
  -30.5233  -21.9432   20.0455 C   0  0  0  0  0  0
  -28.7059  -23.6336   21.6513 C   0  0  0  0  0  0
  -29.5884  -23.0048   19.4081 C   0  0  0  0  0  0
  -32.0040  -18.1477   22.2727 C   0  0  0  0  0  0
  -33.3792  -18.7877   22.4960 C   0  0  0  0  0  0
  -32.3292  -20.9574   22.3748 C   0  0  0  0  0  0
  -29.9795  -21.3661   21.3800 C   0  0  1  0  0  0
  -29.2889  -24.2100   20.3392 C   0  0  1  0  0  0
  -30.9254  -20.3188   22.1050 C   0  0  1  0  0  0
  -28.3229  -25.2360   19.6632 C   0  0  0  0  0  0
  -29.9063  -18.1595   21.2455 C   0  0  0  0  0  0
  -30.1673  -16.9596   20.2735 C   0  0  0  0  0  0
  -31.1162  -18.9882   21.4372 N   0  0  0  0  0  0
  -29.9288  -15.6003   20.8175 N   0  0  0  0  0  0
  -33.1998  -20.0777   23.1702 N   0  3  0  0  0  0
  -31.4682  -12.4070   19.1478 H   0  0  0  0  0  0
  -30.3166  -11.3177   19.8663 H   0  0  0  0  0  0
  -29.7455  -11.7561   17.4549 H   0  0  0  0  0  0
  -29.6671  -13.4725   17.7665 H   0  0  0  0  0  0
  -27.8366  -11.3011   18.8413 H   0  0  0  0  0  0
  -27.3711  -12.6127   17.7920 H   0  0  0  0  0  0
  -27.6886  -14.2530   19.5484 H   0  0  0  0  0  0
  -28.6805  -12.0170   21.3865 H   0  0  0  0  0  0
  -28.4686  -13.6812   21.8507 H   0  0  0  0  0  0
  -25.2758   -9.5683   22.4757 H   0  0  0  0  0  0
  -24.0002   -7.4632   22.7468 H   0  0  0  0  0  0
  -21.0838   -8.8770   19.8951 H   0  0  0  0  0  0
  -22.3691  -10.9672   19.6163 H   0  0  0  0  0  0
  -21.2006   -7.6148   23.9714 H   0  0  0  0  0  0
  -21.1481   -6.0522   25.9076 H   0  0  0  0  0  0
  -22.0599   -2.7608   23.2844 H   0  0  0  0  0  0
  -22.4106  -11.9885   22.4790 H   0  0  0  0  0  0
  -21.1114  -13.1257   22.2611 H   0  0  0  0  0  0
  -24.6609  -15.8429   20.5126 H   0  0  0  0  0  0
  -26.2768  -15.6260   20.0702 H   0  0  0  0  0  0
  -26.7137  -32.5504   23.1152 H   0  0  0  0  0  0
  -25.0080  -33.9774   25.0477 H   0  0  0  0  0  0
  -22.6978  -31.3126   21.4166 H   0  0  0  0  0  0
  -23.3748  -35.9646   23.3305 H   0  0  0  0  0  0
  -24.3584  -36.8918   22.2049 H   0  0  0  0  0  0
  -23.7243  -37.6517   23.6646 H   0  0  0  0  0  0
  -26.0685  -31.5813   20.6093 H   0  0  0  0  0  0
  -26.8274  -30.8606   21.9998 H   0  0  0  0  0  0
  -28.0913  -29.0320   21.2007 H   0  0  0  0  0  0
  -25.9772  -26.0203   18.9069 H   0  0  0  0  0  0
  -23.9700  -27.3438   18.9837 H   0  0  0  0  0  0
  -23.7301  -30.6149   19.4099 H   0  0  0  0  0  0
  -22.7383  -29.2616   19.8633 H   0  0  0  0  0  0
  -25.1286  -36.1969   25.0827 H   0  0  0  0  0  0
  -20.9963  -28.3234   24.1425 H   0  0  0  0  0  0
  -20.5673  -26.2277   23.3601 H   0  0  0  0  0  0
  -21.6638  -26.7444   22.1203 H   0  0  0  0  0  0
  -19.6907  -25.6297   21.1233 H   0  0  0  0  0  0
  -19.6683  -27.3200   20.6746 H   0  0  0  0  0  0
  -17.4195  -26.6670   21.4026 H   0  0  0  0  0  0
  -18.0328  -26.0060   22.9017 H   0  0  0  0  0  0
  -19.7931  -30.7258   24.2278 H   0  0  0  0  0  0
  -17.5012  -31.6264   24.5161 H   0  0  0  0  0  0
  -15.5348  -30.2989   23.7646 H   0  0  0  0  0  0
  -15.8666  -28.0824   22.7059 H   0  0  0  0  0  0
  -24.5910  -30.7068   25.7822 H   0  0  0  0  0  0
  -24.8937  -32.2881   26.4930 H   0  0  0  0  0  0
  -25.8087  -30.8889   27.0243 H   0  0  0  0  0  0
  -26.2870  -29.6794   24.1185 H   0  0  0  0  0  0
  -27.4044  -29.7269   25.4627 H   0  0  0  0  0  0
  -27.8728  -30.4332   23.9339 H   0  0  0  0  0  0
  -27.2676  -33.3613   26.2099 H   0  0  0  0  0  0
  -28.3855  -32.6891   25.0319 H   0  0  0  0  0  0
  -28.0737  -31.8432   26.5399 H   0  0  0  0  0  0
  -28.2602  -38.0104   24.7512 H   0  0  0  0  0  0
  -28.1074  -36.2636   24.6288 H   0  0  0  0  0  0
  -27.2301  -37.1457   25.8867 H   0  0  0  0  0  0
  -20.9315  -29.8774   21.6947 H   0  0  0  0  0  0
  -26.0181  -38.2870   24.1407 H   0  0  0  0  0  0
  -29.1377  -22.1965   23.2123 H   0  0  0  0  0  0
  -30.5151  -23.0876   22.6358 H   0  0  0  0  0  0
  -31.4935  -22.4140   20.1976 H   0  0  0  0  0  0
  -30.6882  -21.1286   19.3389 H   0  0  0  0  0  0
  -28.5286  -24.4461   22.3574 H   0  0  0  0  0  0
  -27.7294  -23.1876   21.4560 H   0  0  0  0  0  0
  -28.6516  -22.5271   19.1165 H   0  0  0  0  0  0
  -30.0404  -23.3643   18.4826 H   0  0  0  0  0  0
  -31.5348  -17.9415   23.2374 H   0  0  0  0  0  0
  -32.1776  -17.1748   21.8121 H   0  0  0  0  0  0
  -33.9020  -18.9225   21.5478 H   0  0  0  0  0  0
  -34.0027  -18.1391   23.1126 H   0  0  0  0  0  0
  -32.2505  -21.8944   22.9217 H   0  0  0  0  0  0
  -32.8422  -21.1844   21.4401 H   0  0  0  0  0  0
  -29.0342  -20.8726   21.1579 H   0  0  0  0  0  0
  -30.2317  -24.7162   20.5516 H   0  0  0  0  0  0
  -30.4641  -20.1124   23.0732 H   0  0  0  0  0  0
  -27.3369  -24.7892   19.7702 H   0  0  0  0  0  0
  -28.5273  -25.2826   18.5927 H   0  0  0  0  0  0
  -29.4976  -17.8207   22.1997 H   0  0  0  0  0  0
  -29.1260  -18.7709   20.7934 H   0  0  0  0  0  0
  -31.1522  -17.0441   19.8102 H   0  0  0  0  0  0
  -29.4783  -17.0629   19.4340 H   0  0  0  0  0  0
  -29.0002  -15.4055   21.1606 H   0  0  0  0  0  0
  -34.0967  -20.5161   23.2983 H   0  0  0  0  0  0
  -32.7904  -19.9284   24.0770 H   0  0  0  0  0  0
  1 25  1  0  0  0
  1 30  2  0  0  0
  1 85  1  0  0  0
  2  3  1  0  0  0
  2 25  1  0  0  0
  2 87  1  0  0  0
  2 88  1  0  0  0
  3  4  1  0  0  0
  3 89  1  0  0  0
  3 90  1  0  0  0
  4  5  1  0  0  0
  4 91  1  0  0  0
  4 92  1  0  0  0
  5  6  1  0  0  0
  5 26  1  0  0  0
  5 93  1  0  0  0
  6 25  1  0  0  0
  6 94  1  0  0  0
  6 95  1  0  0  0
  7  8  2  0  0  0
  7 26  1  0  0  0
  7 29  1  0  0  0
  8  9  1  0  0  0
  8 22  1  0  0  0
  9 10  1  0  0  0
  9 27  2  0  0  0
 10 11  2  0  0  0
 10 15  1  0  0  0
 11 12  1  0  0  0
 11 96  1  0  0  0
 12 13  2  0  0  0
 12 97  1  0  0  0
 13 14  1  0  0  0
 13 31  1  0  0  0
 14 15  2  0  0  0
 14 98  1  0  0  0
 15 99  1  0  0  0
 16 17  2  0  0  0
 16 21  1  0  0  0
 16 31  1  0  0  0
 17 18  1  0  0  0
 17100  1  0  0  0
 18 19  2  0  0  0
 18101  1  0  0  0
 19 20  1  0  0  0
 19 24  1  0  0  0
 20 21  2  0  0  0
 20102  1  0  0  0
 21 23  1  0  0  0
 22 28  1  0  0  0
 22 32  2  0  0  0
 26 27  1  0  0  0
 28103  1  0  0  0
 28104  1  0  0  0
 29105  1  0  0  0
 29106  1  0  0  0
 33 34  1  0  0  0
 33 66  1  0  0  0
 33 70  2  0  0  0
 34 36  1  0  0  0
 34 59  1  0  0  0
 34107  1  0  0  0
 35 44  2  0  0  0
 35 45  1  0  0  0
 35 68  1  0  0  0
 36 56  1  0  0  0
 36108  1  0  0  0
 37 39  1  0  0  0
 37 47  1  0  0  0
 37 66  1  0  0  0
 37109  1  0  0  0
 38 43  2  0  0  0
 38 46  1  0  0  0
 38 47  1  0  0  0
 39 64  1  0  0  0
 39 67  2  0  0  0
 40 52  1  0  0  0
 40 53  2  0  0  0
 40 58  1  0  0  0
 41110  1  0  0  0
 41111  1  0  0  0
 41112  1  0  0  0
 41 48  1  0  0  0
 42 43  1  0  0  0
 42 66  1  0  0  0
 42113  1  0  0  0
 42114  1  0  0  0
 43 44  1  0  0  0
 44115  1  0  0  0
 45 46  2  0  0  0
 45116  1  0  0  0
 46117  1  0  0  0
 47118  1  0  0  0
 47119  1  0  0  0
 48 56  1  0  0  0
 48 65  1  0  0  0
 48120  1  0  0  0
 49 50  1  0  0  0
 49 53  1  0  0  0
 49 64  1  0  0  0
 49121  1  0  0  0
 50 51  1  0  0  0
 50122  1  0  0  0
 50123  1  0  0  0
 51 52  1  0  0  0
 51124  1  0  0  0
 51125  1  0  0  0
 52126  1  0  0  0
 52127  1  0  0  0
 53 54  1  0  0  0
 54 55  2  0  0  0
 54128  1  0  0  0
 55 57  1  0  0  0
 55129  1  0  0  0
 56 69  2  0  0  0
 57 58  2  0  0  0
 57130  1  0  0  0
 58131  1  0  0  0
 59 60  1  0  0  0
 59 61  1  0  0  0
 59 62  1  0  0  0
 60132  1  0  0  0
 60133  1  0  0  0
 60134  1  0  0  0
 61135  1  0  0  0
 61136  1  0  0  0
 61137  1  0  0  0
 62138  1  0  0  0
 62139  1  0  0  0
 62140  1  0  0  0
 63 65  1  0  0  0
 63141  1  0  0  0
 63142  1  0  0  0
 63143  1  0  0  0
 64144  1  0  0  0
 65145  1  0  0  0
 68 81  1  0  0  0
 71 73  1  0  0  0
 71146  1  0  0  0
 71147  1  0  0  0
 71 78  1  0  0  0
 72 74  1  0  0  0
 72 78  1  0  0  0
 72148  1  0  0  0
 72149  1  0  0  0
 73 79  1  0  0  0
 73150  1  0  0  0
 73151  1  0  0  0
 74 79  1  0  0  0
 74152  1  0  0  0
 74153  1  0  0  0
 75 76  1  0  0  0
 75 84  1  0  0  0
 75154  1  0  0  0
 75155  1  0  0  0
 76 86  1  0  0  0
 76156  1  0  0  0
 76157  1  0  0  0
 77 86  1  0  0  0
 77158  1  0  0  0
 77159  1  0  0  0
 77 80  1  0  0  0
 78 80  1  0  0  0
 78160  1  0  0  0
 79 81  1  0  0  0
 79161  1  0  0  0
 80 84  1  0  0  0
 80162  1  0  0  0
 81163  1  0  0  0
 81164  1  0  0  0
 82 83  1  0  0  0
 82 84  1  0  0  0
 82165  1  0  0  0
 82166  1  0  0  0
 83 85  1  0  0  0
 83167  1  0  0  0
 83168  1  0  0  0
 85169  1  0  0  0
 86170  1  0  0  0
 86171  1  0  0  0
M  CHG  1  86   1
M  ISO  4   1 100  68 101  81 101  85 100
M  END
> <chiral flag>
0

> <version>
0

> <s_m_source_file>
/data/baiqing/PycharmProjects/Reinvent-master-3.2/result/LINK_invent/BTK/process_docking_weight1_custom_sum_contain_oxygen_bond_distance_aromatic_linkinvent_7_9_3/rearranged_h_0131.sdf

> <i_m_source_file_index>
30

> <r_mmod_Potential_Energy-OPLS-2005>
-125.003768920898

> <r_mmod_Stretch_Energy-OPLS-2005>
56.5589599609375

> <r_mmod_Bend_Energy-OPLS-2005>
127.682975769043

> <r_mmod_Torsional_Energy-OPLS-2005>
263.915954589844

> <r_mmod_Improper_Torsional_Energy-OPLS-2005>
7.20339632034302

> <r_mmod_Van_der_Waal_Energy-OPLS-2005>
158.005401611328

> <r_mmod_Electrostatic_Energy-OPLS-2005>
-303.410125732422

> <r_mmod_Solvation_Energy-OPLS-2005>
-458.633972167969

> <b_mmod_Minimization_Converged-OPLS-2005>
0

> <r_mmod_RMS_Derivative-OPLS-2005>
0.256502479314804

$$$$
30
                    3D
 Structure written by MMmdl.
154162  0  0  1  0            999 V2000
  -30.6353  -14.6498   20.4618 C   0  0  0  0  0  0
  -30.4278  -12.3891   19.4694 C   0  0  0  0  0  0
  -29.5085  -12.4889   18.2323 C   0  0  0  0  0  0
  -28.0308  -12.3335   18.6432 C   0  0  0  0  0  0
  -27.6483  -13.2210   19.8587 C   0  0  2  0  0  0
  -28.6896  -13.1147   20.9956 C   0  0  0  0  0  0
  -25.2533  -13.8176   20.5658 C   0  0  0  0  0  0
  -24.1812  -13.0440   20.9192 C   0  0  0  0  0  0
  -24.6379  -11.6910   20.8730 C   0  0  0  0  0  0
  -23.9040  -10.4295   21.0405 C   0  0  0  0  0  0
  -24.3603   -9.4215   21.9179 C   0  0  0  0  0  0
  -23.6290   -8.2242   22.0747 C   0  0  0  0  0  0
  -22.4274   -8.0268   21.3538 C   0  0  0  0  0  0
  -21.9902   -9.0238   20.4637 C   0  0  0  0  0  0
  -22.7220  -10.2124   20.3046 C   0  0  0  0  0  0
  -21.6863   -6.0715   22.5274 C   0  0  0  0  0  0
  -21.4012   -6.5619   23.8204 C   0  0  0  0  0  0
  -21.3668   -5.6781   24.9171 C   0  0  0  0  0  0
  -21.6052   -4.3043   24.7232 C   0  0  0  0  0  0
  -21.8823   -3.8127   23.4358 C   0  0  0  0  0  0
  -21.9197   -4.6940   22.3408 C   0  0  0  0  0  0
  -22.7838  -13.5238   21.1862 C   0  0  0  0  0  0
  -22.1668   -4.2118   21.0986 F   0  0  0  0  0  0
  -21.5640   -3.4531   25.7751 F   0  0  0  0  0  0
  -30.0040  -13.4349   20.4241 N   0  0  0  0  0  0
  -26.2961  -12.9364   20.3294 N   0  0  0  0  0  0
  -25.9311  -11.6513   20.5752 N   0  0  0  0  0  0
  -22.0480  -12.8212   22.0400 N   0  0  0  0  0  0
  -25.4241  -15.1898   20.4041 N   0  0  0  0  0  0
  -31.8066  -14.7674   20.0941 O   0  0  0  0  0  0
  -21.6652   -6.8858   21.4235 O   0  0  0  0  0  0
  -22.3518  -14.5551   20.6723 O   0  0  0  0  0  0
  -24.6263  -31.8613   23.2014 C   0  0  0  0  0  0
  -25.9107  -32.4798   23.8348 C   0  0  1  0  0  0
  -27.2133  -27.3230   20.1299 C   0  0  0  0  0  0
  -25.5935  -33.8589   24.2277 N   0  0  0  0  0  0
  -23.4189  -30.4849   21.5452 C   0  0  2  0  0  0
  -24.8655  -28.9376   20.1112 C   0  0  0  0  0  0
  -22.7477  -29.4643   22.4945 C   0  0  0  0  0  0
  -18.0297  -28.1396   22.8491 C   0  0  0  0  0  0
  -24.1486  -36.7271   23.2635 C   0  0  0  0  0  0
  -25.9585  -30.7961   21.3676 C   0  0  0  0  0  0
  -26.0343  -29.4216   20.7139 C   0  0  0  0  0  0
  -27.2179  -28.6263   20.7116 C   0  0  0  0  0  0
  -26.0296  -26.8907   19.4982 C   0  0  0  0  0  0
  -24.8642  -27.6770   19.4928 C   0  0  0  0  0  0
  -23.6333  -29.8170   20.1609 C   0  0  0  0  0  0
  -25.4110  -36.3084   24.0338 C   0  0  1  0  0  0
  -20.5905  -28.3696   23.1292 C   0  0  2  0  0  0
  -20.6775  -26.9421   22.5417 C   0  0  0  0  0  0
  -19.5747  -26.6410   21.5212 C   0  0  0  0  0  0
  -18.1927  -26.7950   22.1628 C   0  0  0  0  0  0
  -19.1550  -28.8863   23.2891 C   0  0  0  0  0  0
  -18.9470  -30.1467   23.8903 C   0  0  0  0  0  0
  -17.6465  -30.6598   24.0572 C   0  0  0  0  0  0
  -25.9047  -34.9462   23.5104 C   0  0  0  0  0  0
  -16.5358  -29.9091   23.6342 C   0  0  0  0  0  0
  -16.7287  -28.6515   23.0362 C   0  0  0  0  0  0
  -26.4477  -31.6602   25.0717 C   0  0  0  0  0  0
  -25.3705  -31.3739   26.1447 C   0  0  0  0  0  0
  -27.0294  -30.3030   24.6137 C   0  0  0  0  0  0
  -27.6056  -32.4307   25.7490 C   0  0  0  0  0  0
  -27.5573  -37.1796   24.8468 C   0  0  0  0  0  0
  -21.4192  -29.3045   22.3682 N   0  0  0  0  0  0
  -26.4278  -37.3790   23.9424 N   0  0  0  0  0  0
  -24.6873  -31.0633   22.0956 N   0  0  0  0  0  0
  -23.4202  -28.8192   23.3035 O   0  0  0  0  0  0
  -28.2833  -26.4247   20.1806 O   0  0  0  0  0  0
  -26.5612  -34.8929   22.4665 O   0  0  0  0  0  0
  -23.5434  -32.1412   23.7346 O   0  0  0  0  0  0
  -28.3558  -22.7415   21.6194 C   0  0  0  0  0  0
  -28.7017  -21.3737   21.3959 C   0  0  0  0  0  0
  -29.3158  -21.9475   19.1503 C   0  0  0  0  0  0
  -28.4803  -23.7613   20.6285 C   0  0  0  0  0  0
  -28.9559  -23.3181   19.3633 C   0  0  0  0  0  0
  -29.2095  -20.9362   20.1480 C   0  0  0  0  0  0
  -29.0885  -24.2971   18.2120 C   0  0  0  0  0  0
  -28.0213  -25.2262   21.0098 C   0  0  0  0  0  0
  -30.1651  -17.1441   20.1085 C   0  0  0  0  0  0
  -29.4470  -18.4471   20.6975 C   0  0  0  0  0  0
  -29.8630  -15.7675   20.6591 N   0  0  0  0  0  0
  -29.6156  -19.6207   19.8286 O   0  0  0  0  0  0
  -31.4723  -12.4956   19.1708 H   0  0  0  0  0  0
  -30.3495  -11.4028   19.9298 H   0  0  0  0  0  0
  -29.7746  -11.7213   17.5039 H   0  0  0  0  0  0
  -29.6569  -13.4487   17.7353 H   0  0  0  0  0  0
  -27.8692  -11.2831   18.8895 H   0  0  0  0  0  0
  -27.3777  -12.5497   17.7969 H   0  0  0  0  0  0
  -27.6584  -14.2500   19.4984 H   0  0  0  0  0  0
  -28.6973  -12.1115   21.4243 H   0  0  0  0  0  0
  -28.4416  -13.7923   21.8141 H   0  0  0  0  0  0
  -25.2749   -9.5704   22.4749 H   0  0  0  0  0  0
  -24.0012   -7.4638   22.7465 H   0  0  0  0  0  0
  -21.0836   -8.8744   19.8944 H   0  0  0  0  0  0
  -22.3673  -10.9651   19.6147 H   0  0  0  0  0  0
  -21.1991   -7.6121   23.9694 H   0  0  0  0  0  0
  -21.1494   -6.0509   25.9070 H   0  0  0  0  0  0
  -22.0596   -2.7583   23.2871 H   0  0  0  0  0  0
  -22.4116  -11.9880   22.4782 H   0  0  0  0  0  0
  -21.1081  -13.1202   22.2587 H   0  0  0  0  0  0
  -24.6517  -15.8409   20.4980 H   0  0  0  0  0  0
  -26.2639  -15.6228   20.0410 H   0  0  0  0  0  0
  -26.7175  -32.5482   23.1092 H   0  0  0  0  0  0
  -25.0110  -33.9724   25.0452 H   0  0  0  0  0  0
  -22.7134  -31.3067   21.4022 H   0  0  0  0  0  0
  -23.3769  -35.9583   23.3303 H   0  0  0  0  0  0
  -24.3561  -36.8875   22.2041 H   0  0  0  0  0  0
  -23.7215  -37.6468   23.6642 H   0  0  0  0  0  0
  -26.0847  -31.5564   20.5956 H   0  0  0  0  0  0
  -26.8399  -30.8504   21.9941 H   0  0  0  0  0  0
  -28.1155  -28.9874   21.1934 H   0  0  0  0  0  0
  -26.0001  -25.9139   19.0361 H   0  0  0  0  0  0
  -23.9668  -27.2989   19.0221 H   0  0  0  0  0  0
  -23.7513  -30.5910   19.4026 H   0  0  0  0  0  0
  -22.7533  -29.2452   19.8613 H   0  0  0  0  0  0
  -25.1292  -36.1921   25.0833 H   0  0  0  0  0  0
  -21.0004  -28.3261   24.1413 H   0  0  0  0  0  0
  -20.5646  -26.2310   23.3614 H   0  0  0  0  0  0
  -21.6647  -26.7427   22.1228 H   0  0  0  0  0  0
  -19.6881  -25.6320   21.1239 H   0  0  0  0  0  0
  -19.6681  -27.3222   20.6737 H   0  0  0  0  0  0
  -17.4202  -26.6739   21.4016 H   0  0  0  0  0  0
  -18.0304  -26.0076   22.9009 H   0  0  0  0  0  0
  -19.7937  -30.7297   24.2272 H   0  0  0  0  0  0
  -17.5018  -31.6275   24.5181 H   0  0  0  0  0  0
  -15.5358  -30.2992   23.7663 H   0  0  0  0  0  0
  -15.8696  -28.0830   22.7073 H   0  0  0  0  0  0
  -24.5952  -30.6982   25.7814 H   0  0  0  0  0  0
  -24.8802  -32.2891   26.4778 H   0  0  0  0  0  0
  -25.8057  -30.9038   27.0276 H   0  0  0  0  0  0
  -26.2844  -29.6825   24.1138 H   0  0  0  0  0  0
  -27.3979  -29.7246   25.4620 H   0  0  0  0  0  0
  -27.8736  -30.4332   23.9356 H   0  0  0  0  0  0
  -27.2718  -33.3666   26.1985 H   0  0  0  0  0  0
  -28.3926  -32.6748   25.0342 H   0  0  0  0  0  0
  -28.0645  -31.8456   26.5467 H   0  0  0  0  0  0
  -28.2613  -38.0075   24.7528 H   0  0  0  0  0  0
  -28.1053  -36.2615   24.6292 H   0  0  0  0  0  0
  -27.2298  -37.1445   25.8873 H   0  0  0  0  0  0
  -20.9369  -29.8759   21.6880 H   0  0  0  0  0  0
  -26.0158  -38.2867   24.1440 H   0  0  0  0  0  0
  -27.9707  -23.0143   22.5919 H   0  0  0  0  0  0
  -28.5754  -20.6676   22.2037 H   0  0  0  0  0  0
  -29.6869  -21.6552   18.1776 H   0  0  0  0  0  0
  -29.2539  -23.7869   17.2634 H   0  0  0  0  0  0
  -29.9290  -24.9679   18.3879 H   0  0  0  0  0  0
  -28.1845  -24.8958   18.1024 H   0  0  0  0  0  0
  -28.4902  -25.4449   21.9706 H   0  0  0  0  0  0
  -26.9579  -25.1473   21.2434 H   0  0  0  0  0  0
  -31.2433  -17.3093   20.1351 H   0  0  0  0  0  0
  -29.9149  -17.0928   19.0482 H   0  0  0  0  0  0
  -29.8523  -18.6666   21.6858 H   0  0  0  0  0  0
  -28.3796  -18.2631   20.8226 H   0  0  0  0  0  0
  -28.9184  -15.6035   20.9748 H   0  0  0  0  0  0
  1 25  1  0  0  0
  1 30  2  0  0  0
  1 81  1  0  0  0
  2  3  1  0  0  0
  2 25  1  0  0  0
  2 83  1  0  0  0
  2 84  1  0  0  0
  3  4  1  0  0  0
  3 85  1  0  0  0
  3 86  1  0  0  0
  4  5  1  0  0  0
  4 87  1  0  0  0
  4 88  1  0  0  0
  5  6  1  0  0  0
  5 26  1  0  0  0
  5 89  1  0  0  0
  6 25  1  0  0  0
  6 90  1  0  0  0
  6 91  1  0  0  0
  7  8  2  0  0  0
  7 26  1  0  0  0
  7 29  1  0  0  0
  8  9  1  0  0  0
  8 22  1  0  0  0
  9 10  1  0  0  0
  9 27  2  0  0  0
 10 11  2  0  0  0
 10 15  1  0  0  0
 11 12  1  0  0  0
 11 92  1  0  0  0
 12 13  2  0  0  0
 12 93  1  0  0  0
 13 14  1  0  0  0
 13 31  1  0  0  0
 14 15  2  0  0  0
 14 94  1  0  0  0
 15 95  1  0  0  0
 16 17  2  0  0  0
 16 21  1  0  0  0
 16 31  1  0  0  0
 17 18  1  0  0  0
 17 96  1  0  0  0
 18 19  2  0  0  0
 18 97  1  0  0  0
 19 20  1  0  0  0
 19 24  1  0  0  0
 20 21  2  0  0  0
 20 98  1  0  0  0
 21 23  1  0  0  0
 22 28  1  0  0  0
 22 32  2  0  0  0
 26 27  1  0  0  0
 28 99  1  0  0  0
 28100  1  0  0  0
 29101  1  0  0  0
 29102  1  0  0  0
 33 34  1  0  0  0
 33 66  1  0  0  0
 33 70  2  0  0  0
 34 36  1  0  0  0
 34 59  1  0  0  0
 34103  1  0  0  0
 35 44  2  0  0  0
 35 45  1  0  0  0
 35 68  1  0  0  0
 36 56  1  0  0  0
 36104  1  0  0  0
 37 39  1  0  0  0
 37 47  1  0  0  0
 37 66  1  0  0  0
 37105  1  0  0  0
 38 43  2  0  0  0
 38 46  1  0  0  0
 38 47  1  0  0  0
 39 64  1  0  0  0
 39 67  2  0  0  0
 40 52  1  0  0  0
 40 53  2  0  0  0
 40 58  1  0  0  0
 41106  1  0  0  0
 41107  1  0  0  0
 41108  1  0  0  0
 41 48  1  0  0  0
 42 43  1  0  0  0
 42 66  1  0  0  0
 42109  1  0  0  0
 42110  1  0  0  0
 43 44  1  0  0  0
 44111  1  0  0  0
 45 46  2  0  0  0
 45112  1  0  0  0
 46113  1  0  0  0
 47114  1  0  0  0
 47115  1  0  0  0
 48 56  1  0  0  0
 48 65  1  0  0  0
 48116  1  0  0  0
 49 50  1  0  0  0
 49 53  1  0  0  0
 49 64  1  0  0  0
 49117  1  0  0  0
 50 51  1  0  0  0
 50118  1  0  0  0
 50119  1  0  0  0
 51 52  1  0  0  0
 51120  1  0  0  0
 51121  1  0  0  0
 52122  1  0  0  0
 52123  1  0  0  0
 53 54  1  0  0  0
 54 55  2  0  0  0
 54124  1  0  0  0
 55 57  1  0  0  0
 55125  1  0  0  0
 56 69  2  0  0  0
 57 58  2  0  0  0
 57126  1  0  0  0
 58127  1  0  0  0
 59 60  1  0  0  0
 59 61  1  0  0  0
 59 62  1  0  0  0
 60128  1  0  0  0
 60129  1  0  0  0
 60130  1  0  0  0
 61131  1  0  0  0
 61132  1  0  0  0
 61133  1  0  0  0
 62134  1  0  0  0
 62135  1  0  0  0
 62136  1  0  0  0
 63 65  1  0  0  0
 63137  1  0  0  0
 63138  1  0  0  0
 63139  1  0  0  0
 64140  1  0  0  0
 65141  1  0  0  0
 68 78  1  0  0  0
 71 72  2  0  0  0
 71 74  1  0  0  0
 71142  1  0  0  0
 72 76  1  0  0  0
 72143  1  0  0  0
 73 75  1  0  0  0
 73 76  2  0  0  0
 73144  1  0  0  0
 74 75  2  0  0  0
 74 78  1  0  0  0
 75 77  1  0  0  0
 76 82  1  0  0  0
 77145  1  0  0  0
 77146  1  0  0  0
 77147  1  0  0  0
 78148  1  0  0  0
 78149  1  0  0  0
 79 80  1  0  0  0
 79 81  1  0  0  0
 79150  1  0  0  0
 79151  1  0  0  0
 80 82  1  0  0  0
 80152  1  0  0  0
 80153  1  0  0  0
 81154  1  0  0  0
M  ISO  4   1 100  68 101  78 101  81 100
M  END
> <chiral flag>
0

> <version>
0

> <s_m_source_file>
/data/baiqing/PycharmProjects/Reinvent-master-3.2/result/LINK_invent/BTK/process_docking_weight1_custom_sum_contain_oxygen_bond_distance_aromatic_linkinvent_7_9_3/rearranged_h_0131.sdf

> <i_m_source_file_index>
31

> <r_mmod_Potential_Energy-OPLS-2005>
64.3451232910156

> <r_mmod_Stretch_Energy-OPLS-2005>
80.9729843139648

> <r_mmod_Bend_Energy-OPLS-2005>
152.473678588867

> <r_mmod_Torsional_Energy-OPLS-2005>
238.631332397461

> <r_mmod_Improper_Torsional_Energy-OPLS-2005>
7.27256488800049

> <r_mmod_Van_der_Waal_Energy-OPLS-2005>
140.233062744141

> <r_mmod_Electrostatic_Energy-OPLS-2005>
-401.215240478516

> <r_mmod_Solvation_Energy-OPLS-2005>
-209.803802490234

> <b_mmod_Minimization_Converged-OPLS-2005>
0

> <r_mmod_RMS_Derivative-OPLS-2005>
2.13020539283752

$$$$
31
                    3D
 Structure written by MMmdl.
176186  0  0  1  0            999 V2000
  -30.7167  -14.3699   20.6496 C   0  0  0  0  0  0
  -30.4281  -12.2769   19.3877 C   0  0  0  0  0  0
  -29.4879  -12.5321   18.1912 C   0  0  0  0  0  0
  -28.0051  -12.4004   18.5979 C   0  0  0  0  0  0
  -27.6702  -13.1934   19.8883 C   0  0  2  0  0  0
  -28.7109  -12.8884   20.9895 C   0  0  0  0  0  0
  -25.2655  -13.8138   20.5676 C   0  0  0  0  0  0
  -24.1887  -13.0450   20.9173 C   0  0  0  0  0  0
  -24.6397  -11.6890   20.8733 C   0  0  0  0  0  0
  -23.9052  -10.4291   21.0407 C   0  0  0  0  0  0
  -24.3633   -9.4206   21.9175 C   0  0  0  0  0  0
  -23.6320   -8.2233   22.0736 C   0  0  0  0  0  0
  -22.4285   -8.0285   21.3543 C   0  0  0  0  0  0
  -21.9908   -9.0248   20.4632 C   0  0  0  0  0  0
  -22.7226  -10.2134   20.3044 C   0  0  0  0  0  0
  -21.6847   -6.0748   22.5289 C   0  0  0  0  0  0
  -21.4014   -6.5656   23.8227 C   0  0  0  0  0  0
  -21.3649   -5.6799   24.9181 C   0  0  0  0  0  0
  -21.6050   -4.3070   24.7223 C   0  0  0  0  0  0
  -21.8828   -3.8164   23.4349 C   0  0  0  0  0  0
  -21.9193   -4.6978   22.3405 C   0  0  0  0  0  0
  -22.7903  -13.5253   21.1821 C   0  0  0  0  0  0
  -22.1659   -4.2169   21.0979 F   0  0  0  0  0  0
  -21.5607   -3.4552   25.7735 F   0  0  0  0  0  0
  -30.0514  -13.2034   20.4611 N   0  0  0  0  0  0
  -26.3081  -12.9269   20.3431 N   0  0  0  0  0  0
  -25.9325  -11.6438   20.5799 N   0  0  0  0  0  0
  -22.0526  -12.8273   22.0376 N   0  0  0  0  0  0
  -25.4435  -15.1861   20.4032 N   0  0  0  0  0  0
  -31.7942  -14.6425   20.1146 O   0  0  0  0  0  0
  -21.6645   -6.8889   21.4252 O   0  0  0  0  0  0
  -22.3579  -14.5527   20.6606 O   0  0  0  0  0  0
  -24.6096  -31.8686   23.2088 C   0  0  0  0  0  0
  -25.9004  -32.4811   23.8381 C   0  0  1  0  0  0
  -27.2616  -27.4731   20.0977 C   0  0  0  0  0  0
  -25.5885  -33.8620   24.2307 N   0  0  0  0  0  0
  -23.3991  -30.4838   21.5481 C   0  0  2  0  0  0
  -24.8580  -28.9537   20.1034 C   0  0  0  0  0  0
  -22.7396  -29.4650   22.5039 C   0  0  0  0  0  0
  -18.0267  -28.1364   22.8495 C   0  0  0  0  0  0
  -24.1486  -36.7314   23.2632 C   0  0  0  0  0  0
  -25.9238  -30.8354   21.3691 C   0  0  0  0  0  0
  -26.0063  -29.4771   20.7100 C   0  0  0  0  0  0
  -27.2045  -28.7357   20.7197 C   0  0  0  0  0  0
  -26.1072  -26.9544   19.4730 C   0  0  0  0  0  0
  -24.9024  -27.6912   19.4798 C   0  0  0  0  0  0
  -23.6041  -29.7991   20.1664 C   0  0  0  0  0  0
  -25.4115  -36.3118   24.0328 C   0  0  1  0  0  0
  -20.5850  -28.3656   23.1341 C   0  0  2  0  0  0
  -20.6757  -26.9395   22.5435 C   0  0  0  0  0  0
  -19.5745  -26.6377   21.5225 C   0  0  0  0  0  0
  -18.1914  -26.7923   22.1611 C   0  0  0  0  0  0
  -19.1507  -28.8839   23.2901 C   0  0  0  0  0  0
  -18.9444  -30.1459   23.8890 C   0  0  0  0  0  0
  -17.6429  -30.6577   24.0564 C   0  0  0  0  0  0
  -25.9038  -34.9477   23.5126 C   0  0  0  0  0  0
  -16.5328  -29.9061   23.6327 C   0  0  0  0  0  0
  -16.7246  -28.6483   23.0345 C   0  0  0  0  0  0
  -26.4463  -31.6599   25.0715 C   0  0  0  0  0  0
  -25.3721  -31.3720   26.1453 C   0  0  0  0  0  0
  -27.0301  -30.3018   24.6163 C   0  0  0  0  0  0
  -27.6043  -32.4342   25.7459 C   0  0  0  0  0  0
  -27.5599  -37.1806   24.8448 C   0  0  0  0  0  0
  -21.4139  -29.3002   22.3742 N   0  0  0  0  0  0
  -26.4302  -37.3808   23.9403 N   0  0  0  0  0  0
  -24.6595  -31.0787   22.0990 N   0  0  0  0  0  0
  -23.4170  -28.8231   23.3119 O   0  0  0  0  0  0
  -28.3971  -26.7182   20.2377 O   0  0  0  0  0  0
  -26.5617  -34.8945   22.4694 O   0  0  0  0  0  0
  -23.5294  -32.1465   23.7504 O   0  0  0  0  0  0
  -31.0434  -23.3914   20.8529 C   0  0  0  0  0  0
  -28.2161  -21.6999   19.9413 C   0  0  0  0  0  0
  -30.2657  -24.7150   20.7258 C   0  0  0  0  0  0
  -28.4432  -20.2944   20.5327 C   0  0  0  0  0  0
  -29.1759  -19.4031   18.1298 C   0  0  0  0  0  0
  -30.6650  -19.7489   17.9229 C   0  0  0  0  0  0
  -28.8711  -23.8831   18.8221 C   0  0  0  0  0  0
  -31.5169  -21.0308   20.0787 C   0  0  0  0  0  0
  -29.3414  -22.4320   19.1606 C   0  0  1  0  0  0
  -30.8113  -22.3794   19.7030 C   0  0  1  0  0  0
  -29.8157  -25.0087   19.2814 C   0  0  1  0  0  0
  -29.0125  -19.1562   19.6451 C   0  0  1  0  0  0
  -31.2840  -19.6840   19.3256 C   0  0  1  0  0  0
  -29.1783  -26.4101   19.0963 C   0  0  0  0  0  0
  -30.1916  -16.7171   21.4309 C   0  0  0  0  0  0
  -30.6557  -17.3766   20.1090 C   0  0  0  0  0  0
  -30.0279  -15.2670   21.3641 N   0  0  0  0  0  0
  -30.3716  -18.8339   20.1204 N   0  3  2  0  0  0
  -31.4671  -12.4024   19.0780 H   0  0  0  0  0  0
  -30.3416  -11.2463   19.7387 H   0  0  0  0  0  0
  -29.7130  -11.8416   17.3763 H   0  0  0  0  0  0
  -29.6656  -13.5343   17.7992 H   0  0  0  0  0  0
  -27.7845  -11.3427   18.7469 H   0  0  0  0  0  0
  -27.3627  -12.7279   17.7804 H   0  0  0  0  0  0
  -27.7361  -14.2529   19.6425 H   0  0  0  0  0  0
  -28.6775  -11.8284   21.2433 H   0  0  0  0  0  0
  -28.4716  -13.4049   21.9181 H   0  0  0  0  0  0
  -25.2777   -9.5695   22.4763 H   0  0  0  0  0  0
  -24.0035   -7.4626   22.7465 H   0  0  0  0  0  0
  -21.0815   -8.8773   19.8958 H   0  0  0  0  0  0
  -22.3669  -10.9692   19.6181 H   0  0  0  0  0  0
  -21.2011   -7.6161   23.9740 H   0  0  0  0  0  0
  -21.1451   -6.0520   25.9083 H   0  0  0  0  0  0
  -22.0610   -2.7625   23.2841 H   0  0  0  0  0  0
  -22.4103  -11.9946   22.4825 H   0  0  0  0  0  0
  -21.1142  -13.1318   22.2547 H   0  0  0  0  0  0
  -24.6868  -15.8538   20.5063 H   0  0  0  0  0  0
  -26.3046  -15.6112   20.0842 H   0  0  0  0  0  0
  -26.7077  -32.5535   23.1147 H   0  0  0  0  0  0
  -24.9983  -33.9784   25.0421 H   0  0  0  0  0  0
  -22.6849  -31.2978   21.4033 H   0  0  0  0  0  0
  -23.3764  -35.9625   23.3279 H   0  0  0  0  0  0
  -24.3566  -36.8956   22.2045 H   0  0  0  0  0  0
  -23.7220  -37.6510   23.6663 H   0  0  0  0  0  0
  -26.0526  -31.6053   20.6090 H   0  0  0  0  0  0
  -26.8009  -30.8749   22.0019 H   0  0  0  0  0  0
  -28.0830  -29.1214   21.2187 H   0  0  0  0  0  0
  -26.1318  -25.9746   19.0177 H   0  0  0  0  0  0
  -24.0190  -27.2791   19.0130 H   0  0  0  0  0  0
  -23.6793  -30.5618   19.3915 H   0  0  0  0  0  0
  -22.7381  -29.1900   19.8976 H   0  0  0  0  0  0
  -25.1297  -36.1978   25.0822 H   0  0  0  0  0  0
  -20.9913  -28.3229   24.1476 H   0  0  0  0  0  0
  -20.5690  -26.2271   23.3623 H   0  0  0  0  0  0
  -21.6628  -26.7451   22.1220 H   0  0  0  0  0  0
  -19.6901  -25.6297   21.1240 H   0  0  0  0  0  0
  -19.6693  -27.3208   20.6774 H   0  0  0  0  0  0
  -17.4208  -26.6722   21.3975 H   0  0  0  0  0  0
  -18.0260  -26.0048   22.8983 H   0  0  0  0  0  0
  -19.7919  -30.7290   24.2233 H   0  0  0  0  0  0
  -17.4976  -31.6248   24.5176 H   0  0  0  0  0  0
  -15.5320  -30.2936   23.7671 H   0  0  0  0  0  0
  -15.8659  -28.0783   22.7044 H   0  0  0  0  0  0
  -24.5864  -30.7126   25.7753 H   0  0  0  0  0  0
  -24.8950  -32.2880   26.4939 H   0  0  0  0  0  0
  -25.8038  -30.8823   27.0183 H   0  0  0  0  0  0
  -26.2869  -29.6774   24.1189 H   0  0  0  0  0  0
  -27.3978  -29.7286   25.4682 H   0  0  0  0  0  0
  -27.8753  -30.4283   23.9394 H   0  0  0  0  0  0
  -27.2650  -33.3623   26.2077 H   0  0  0  0  0  0
  -28.3806  -32.6941   25.0247 H   0  0  0  0  0  0
  -28.0771  -31.8452   26.5330 H   0  0  0  0  0  0
  -28.2611  -38.0116   24.7529 H   0  0  0  0  0  0
  -28.1115  -36.2652   24.6228 H   0  0  0  0  0  0
  -27.2319  -37.1395   25.8853 H   0  0  0  0  0  0
  -20.9337  -29.8639   21.6867 H   0  0  0  0  0  0
  -26.0200  -38.2898   24.1399 H   0  0  0  0  0  0
  -30.7890  -22.9365   21.8107 H   0  0  0  0  0  0
  -32.1114  -23.6124   20.9117 H   0  0  0  0  0  0
  -27.9000  -22.3388   20.7661 H   0  0  0  0  0  0
  -27.3500  -21.6396   19.2798 H   0  0  0  0  0  0
  -30.8646  -25.5325   21.1294 H   0  0  0  0  0  0
  -29.3802  -24.6512   21.3635 H   0  0  0  0  0  0
  -27.4738  -19.9518   20.9051 H   0  0  0  0  0  0
  -29.0389  -20.3954   21.4401 H   0  0  0  0  0  0
  -28.9638  -18.4773   17.5927 H   0  0  0  0  0  0
  -28.4760  -20.1291   17.7223 H   0  0  0  0  0  0
  -30.8577  -20.6917   17.4139 H   0  0  0  0  0  0
  -31.1213  -18.9764   17.3016 H   0  0  0  0  0  0
  -27.8861  -24.0722   19.2543 H   0  0  0  0  0  0
  -28.7187  -23.9739   17.7455 H   0  0  0  0  0  0
  -31.3863  -20.8423   21.1468 H   0  0  0  0  0  0
  -32.5864  -21.2351   20.0048 H   0  0  0  0  0  0
  -29.3692  -21.9883   18.1762 H   0  0  0  0  0  0
  -31.4021  -22.7484   18.8619 H   0  0  0  0  0  0
  -30.6973  -24.9885   18.6381 H   0  0  0  0  0  0
  -28.3557  -18.2951   19.7867 H   0  0  0  0  0  0
  -32.2604  -19.2010   19.2608 H   0  0  0  0  0  0
  -28.6117  -26.4645   18.1645 H   0  0  0  0  0  0
  -29.9641  -27.1642   19.0293 H   0  0  0  0  0  0
  -29.2184  -17.1149   21.7256 H   0  0  0  0  0  0
  -30.8778  -16.9629   22.2430 H   0  0  0  0  0  0
  -30.1867  -16.9113   19.2407 H   0  0  0  0  0  0
  -31.7264  -17.2083   20.0007 H   0  0  0  0  0  0
  -29.1882  -14.9027   21.7884 H   0  0  0  0  0  0
  -30.4662  -19.1185   21.0838 H   0  0  0  0  0  0
  1 25  1  0  0  0
  1 30  2  0  0  0
  1 87  1  0  0  0
  2  3  1  0  0  0
  2 25  1  0  0  0
  2 89  1  0  0  0
  2 90  1  0  0  0
  3  4  1  0  0  0
  3 91  1  0  0  0
  3 92  1  0  0  0
  4  5  1  0  0  0
  4 93  1  0  0  0
  4 94  1  0  0  0
  5  6  1  0  0  0
  5 26  1  0  0  0
  5 95  1  0  0  0
  6 25  1  0  0  0
  6 96  1  0  0  0
  6 97  1  0  0  0
  7  8  2  0  0  0
  7 26  1  0  0  0
  7 29  1  0  0  0
  8  9  1  0  0  0
  8 22  1  0  0  0
  9 10  1  0  0  0
  9 27  2  0  0  0
 10 11  2  0  0  0
 10 15  1  0  0  0
 11 12  1  0  0  0
 11 98  1  0  0  0
 12 13  2  0  0  0
 12 99  1  0  0  0
 13 14  1  0  0  0
 13 31  1  0  0  0
 14 15  2  0  0  0
 14100  1  0  0  0
 15101  1  0  0  0
 16 17  2  0  0  0
 16 21  1  0  0  0
 16 31  1  0  0  0
 17 18  1  0  0  0
 17102  1  0  0  0
 18 19  2  0  0  0
 18103  1  0  0  0
 19 20  1  0  0  0
 19 24  1  0  0  0
 20 21  2  0  0  0
 20104  1  0  0  0
 21 23  1  0  0  0
 22 28  1  0  0  0
 22 32  2  0  0  0
 26 27  1  0  0  0
 28105  1  0  0  0
 28106  1  0  0  0
 29107  1  0  0  0
 29108  1  0  0  0
 33 34  1  0  0  0
 33 66  1  0  0  0
 33 70  2  0  0  0
 34 36  1  0  0  0
 34 59  1  0  0  0
 34109  1  0  0  0
 35 44  2  0  0  0
 35 45  1  0  0  0
 35 68  1  0  0  0
 36 56  1  0  0  0
 36110  1  0  0  0
 37 39  1  0  0  0
 37 47  1  0  0  0
 37 66  1  0  0  0
 37111  1  0  0  0
 38 43  2  0  0  0
 38 46  1  0  0  0
 38 47  1  0  0  0
 39 64  1  0  0  0
 39 67  2  0  0  0
 40 52  1  0  0  0
 40 53  2  0  0  0
 40 58  1  0  0  0
 41112  1  0  0  0
 41113  1  0  0  0
 41114  1  0  0  0
 41 48  1  0  0  0
 42 43  1  0  0  0
 42 66  1  0  0  0
 42115  1  0  0  0
 42116  1  0  0  0
 43 44  1  0  0  0
 44117  1  0  0  0
 45 46  2  0  0  0
 45118  1  0  0  0
 46119  1  0  0  0
 47120  1  0  0  0
 47121  1  0  0  0
 48 56  1  0  0  0
 48 65  1  0  0  0
 48122  1  0  0  0
 49 50  1  0  0  0
 49 53  1  0  0  0
 49 64  1  0  0  0
 49123  1  0  0  0
 50 51  1  0  0  0
 50124  1  0  0  0
 50125  1  0  0  0
 51 52  1  0  0  0
 51126  1  0  0  0
 51127  1  0  0  0
 52128  1  0  0  0
 52129  1  0  0  0
 53 54  1  0  0  0
 54 55  2  0  0  0
 54130  1  0  0  0
 55 57  1  0  0  0
 55131  1  0  0  0
 56 69  2  0  0  0
 57 58  2  0  0  0
 57132  1  0  0  0
 58133  1  0  0  0
 59 60  1  0  0  0
 59 61  1  0  0  0
 59 62  1  0  0  0
 60134  1  0  0  0
 60135  1  0  0  0
 60136  1  0  0  0
 61137  1  0  0  0
 61138  1  0  0  0
 61139  1  0  0  0
 62140  1  0  0  0
 62141  1  0  0  0
 62142  1  0  0  0
 63 65  1  0  0  0
 63143  1  0  0  0
 63144  1  0  0  0
 63145  1  0  0  0
 64146  1  0  0  0
 65147  1  0  0  0
 68 84  1  0  0  0
 71 73  1  0  0  0
 71148  1  0  0  0
 71149  1  0  0  0
 71 80  1  0  0  0
 72 74  1  0  0  0
 72150  1  0  0  0
 72151  1  0  0  0
 72 79  1  0  0  0
 73 81  1  0  0  0
 73152  1  0  0  0
 73153  1  0  0  0
 74154  1  0  0  0
 74155  1  0  0  0
 74 82  1  0  0  0
 75 76  1  0  0  0
 75 82  1  0  0  0
 75156  1  0  0  0
 75157  1  0  0  0
 76158  1  0  0  0
 76159  1  0  0  0
 76 83  1  0  0  0
 77 79  1  0  0  0
 77 81  1  0  0  0
 77160  1  0  0  0
 77161  1  0  0  0
 78 80  1  0  0  0
 78 83  1  0  0  0
 78162  1  0  0  0
 78163  1  0  0  0
 79 80  1  0  0  0
 79164  1  0  0  0
 80165  1  0  0  0
 81 84  1  0  0  0
 81166  1  0  0  0
 82 88  1  0  0  0
 82167  1  0  0  0
 83 88  1  0  0  0
 83168  1  0  0  0
 84169  1  0  0  0
 84170  1  0  0  0
 85 86  1  0  0  0
 85 87  1  0  0  0
 85171  1  0  0  0
 85172  1  0  0  0
 86173  1  0  0  0
 86174  1  0  0  0
 86 88  1  0  0  0
 87175  1  0  0  0
 88176  1  0  0  0
M  CHG  1  88   1
M  ISO  4   1 100  68 101  84 101  87 100
M  END
> <chiral flag>
0

> <version>
0

> <s_m_source_file>
/data/baiqing/PycharmProjects/Reinvent-master-3.2/result/LINK_invent/BTK/process_docking_weight1_custom_sum_contain_oxygen_bond_distance_aromatic_linkinvent_7_9_3/rearranged_h_0131.sdf

> <i_m_source_file_index>
32

> <r_mmod_Potential_Energy-OPLS-2005>
126.17894744873

> <r_mmod_Stretch_Energy-OPLS-2005>
39.1204986572266

> <r_mmod_Bend_Energy-OPLS-2005>
185.863235473633

> <r_mmod_Torsional_Energy-OPLS-2005>
425.250885009766

> <r_mmod_Improper_Torsional_Energy-OPLS-2005>
3.98237705230713

> <r_mmod_Van_der_Waal_Energy-OPLS-2005>
154.061157226562

> <r_mmod_Electrostatic_Energy-OPLS-2005>
-279.596435546875

> <r_mmod_Solvation_Energy-OPLS-2005>
-415.082427978516

> <b_mmod_Minimization_Converged-OPLS-2005>
0

> <r_mmod_RMS_Derivative-OPLS-2005>
3.81071376800537

$$$$
32
                    3D
 Structure written by MMmdl.
157165  0  0  1  0            999 V2000
  -30.5356  -14.7706   20.4556 C   0  0  0  0  0  0
  -30.4613  -12.4580   19.4782 C   0  0  0  0  0  0
  -29.5240  -12.4987   18.2453 C   0  0  0  0  0  0
  -28.0484  -12.3141   18.6567 C   0  0  0  0  0  0
  -27.6498  -13.2061   19.8605 C   0  0  2  0  0  0
  -28.6992  -13.1044   20.9888 C   0  0  0  0  0  0
  -25.2565  -13.8096   20.5713 C   0  0  0  0  0  0
  -24.1818  -13.0390   20.9184 C   0  0  0  0  0  0
  -24.6391  -11.6853   20.8770 C   0  0  0  0  0  0
  -23.9060  -10.4263   21.0435 C   0  0  0  0  0  0
  -24.3607   -9.4165   21.9195 C   0  0  0  0  0  0
  -23.6284   -8.2203   22.0763 C   0  0  0  0  0  0
  -22.4273   -8.0265   21.3541 C   0  0  0  0  0  0
  -21.9902   -9.0239   20.4639 C   0  0  0  0  0  0
  -22.7243  -10.2116   20.3064 C   0  0  0  0  0  0
  -21.6840   -6.0730   22.5287 C   0  0  0  0  0  0
  -21.4007   -6.5637   23.8215 C   0  0  0  0  0  0
  -21.3662   -5.6808   24.9182 C   0  0  0  0  0  0
  -21.6048   -4.3068   24.7240 C   0  0  0  0  0  0
  -21.8815   -3.8143   23.4366 C   0  0  0  0  0  0
  -21.9177   -4.6956   22.3414 C   0  0  0  0  0  0
  -22.7849  -13.5204   21.1838 C   0  0  0  0  0  0
  -22.1656   -4.2123   21.0992 F   0  0  0  0  0  0
  -21.5644   -3.4563   25.7764 F   0  0  0  0  0  0
  -30.0015  -13.4954   20.4289 N   0  0  0  0  0  0
  -26.2987  -12.9246   20.3342 N   0  0  0  0  0  0
  -25.9316  -11.6435   20.5809 N   0  0  0  0  0  0
  -22.0477  -12.8205   22.0381 N   0  0  0  0  0  0
  -25.4320  -15.1813   20.4155 N   0  0  0  0  0  0
  -31.7209  -14.9343   20.1476 O   0  0  0  0  0  0
  -21.6629   -6.8872   21.4249 O   0  0  0  0  0  0
  -22.3555  -14.5521   20.6692 O   0  0  0  0  0  0
  -24.6338  -31.8523   23.1998 C   0  0  0  0  0  0
  -25.9147  -32.4743   23.8366 C   0  0  1  0  0  0
  -27.2166  -27.2323   20.1553 C   0  0  0  0  0  0
  -25.5924  -33.8555   24.2258 N   0  0  0  0  0  0
  -23.4356  -30.4740   21.5398 C   0  0  2  0  0  0
  -24.8840  -28.9133   20.1169 C   0  0  0  0  0  0
  -22.7532  -29.4580   22.4883 C   0  0  0  0  0  0
  -18.0294  -28.1385   22.8503 C   0  0  0  0  0  0
  -24.1475  -36.7252   23.2648 C   0  0  0  0  0  0
  -25.9875  -30.7504   21.3967 C   0  0  0  0  0  0
  -26.0558  -29.3760   20.7292 C   0  0  0  0  0  0
  -27.2285  -28.5516   20.7264 C   0  0  0  0  0  0
  -26.0216  -26.8311   19.5232 C   0  0  0  0  0  0
  -24.8732  -27.6507   19.4996 C   0  0  0  0  0  0
  -23.6615  -29.8116   20.1556 C   0  0  0  0  0  0
  -25.4119  -36.3067   24.0325 C   0  0  1  0  0  0
  -20.5904  -28.3704   23.1262 C   0  0  2  0  0  0
  -20.6786  -26.9414   22.5408 C   0  0  0  0  0  0
  -19.5745  -26.6373   21.5238 C   0  0  0  0  0  0
  -18.1934  -26.7925   22.1642 C   0  0  0  0  0  0
  -19.1548  -28.8865   23.2877 C   0  0  0  0  0  0
  -18.9464  -30.1474   23.8883 C   0  0  0  0  0  0
  -17.6465  -30.6597   24.0546 C   0  0  0  0  0  0
  -25.9069  -34.9437   23.5103 C   0  0  0  0  0  0
  -16.5354  -29.9085   23.6332 C   0  0  0  0  0  0
  -16.7282  -28.6491   23.0387 C   0  0  0  0  0  0
  -26.4465  -31.6620   25.0815 C   0  0  0  0  0  0
  -25.3645  -31.3750   26.1491 C   0  0  0  0  0  0
  -27.0376  -30.3026   24.6433 C   0  0  0  0  0  0
  -27.5957  -32.4426   25.7614 C   0  0  0  0  0  0
  -27.5573  -37.1818   24.8451 C   0  0  0  0  0  0
  -21.4229  -29.3030   22.3625 N   0  0  0  0  0  0
  -26.4282  -37.3788   23.9396 N   0  0  0  0  0  0
  -24.7039  -31.0474   22.0992 N   0  0  0  0  0  0
  -23.4209  -28.8133   23.3014 O   0  0  0  0  0  0
  -28.3109  -26.3342   20.1589 O   0  0  0  0  0  0
  -26.5658  -34.8903   22.4676 O   0  0  0  0  0  0
  -23.5475  -32.1369   23.7262 O   0  0  0  0  0  0
  -28.6425  -18.3461   21.4890 C   0  0  0  0  0  0
  -30.1385  -18.5643   19.5738 C   0  0  0  0  0  0
  -28.6771  -19.9068   21.7257 C   0  0  0  0  0  0
  -30.1639  -20.1560   19.7958 C   0  0  0  0  0  0
  -29.8825  -17.6445   20.8331 C   0  0  2  0  0  0
  -28.9061  -20.8306   20.4804 C   0  0  2  0  0  0
  -29.5557  -16.0452   20.6461 C   0  0  0  0  0  0
  -28.5527  -23.5373   20.0131 C   0  0  0  0  0  0
  -28.1734  -24.9499   20.7620 C   0  0  0  0  0  0
  -29.0045  -22.3324   20.8854 N   0  3  0  0  0  0
  -31.4973  -12.6116   19.1742 H   0  0  0  0  0  0
  -30.4347  -11.4721   19.9504 H   0  0  0  0  0  0
  -29.8118  -11.7256   17.5283 H   0  0  0  0  0  0
  -29.6424  -13.4526   17.7324 H   0  0  0  0  0  0
  -27.9108  -11.2635   18.9200 H   0  0  0  0  0  0
  -27.3946  -12.5035   17.8053 H   0  0  0  0  0  0
  -27.6434  -14.2271   19.4904 H   0  0  0  0  0  0
  -28.7479  -12.0817   21.3643 H   0  0  0  0  0  0
  -28.4259  -13.7132   21.8493 H   0  0  0  0  0  0
  -25.2758   -9.5628   22.4758 H   0  0  0  0  0  0
  -23.9958   -7.4588   22.7500 H   0  0  0  0  0  0
  -21.0823   -8.8790   19.8954 H   0  0  0  0  0  0
  -22.3720  -10.9656   19.6171 H   0  0  0  0  0  0
  -21.1998   -7.6147   23.9708 H   0  0  0  0  0  0
  -21.1495   -6.0544   25.9081 H   0  0  0  0  0  0
  -22.0580   -2.7601   23.2879 H   0  0  0  0  0  0
  -22.4122  -11.9868   22.4753 H   0  0  0  0  0  0
  -21.1079  -13.1218   22.2565 H   0  0  0  0  0  0
  -24.6775  -15.8475   20.5478 H   0  0  0  0  0  0
  -26.2937  -15.6140   20.1127 H   0  0  0  0  0  0
  -26.7235  -32.5356   23.1120 H   0  0  0  0  0  0
  -25.0015  -33.9695   25.0362 H   0  0  0  0  0  0
  -22.7350  -31.2977   21.3935 H   0  0  0  0  0  0
  -23.3777  -35.9541   23.3291 H   0  0  0  0  0  0
  -24.3539  -36.8916   22.2063 H   0  0  0  0  0  0
  -23.7189  -37.6424   23.6698 H   0  0  0  0  0  0
  -26.1675  -31.5235   20.6481 H   0  0  0  0  0  0
  -26.8463  -30.7675   22.0574 H   0  0  0  0  0  0
  -28.1307  -28.9041   21.2066 H   0  0  0  0  0  0
  -25.9665  -25.8590   19.0531 H   0  0  0  0  0  0
  -23.9763  -27.2946   19.0123 H   0  0  0  0  0  0
  -23.8043  -30.5939   19.4090 H   0  0  0  0  0  0
  -22.7768  -29.2584   19.8371 H   0  0  0  0  0  0
  -25.1309  -36.1914   25.0827 H   0  0  0  0  0  0
  -21.0001  -28.3289   24.1383 H   0  0  0  0  0  0
  -20.5745  -26.2306   23.3620 H   0  0  0  0  0  0
  -21.6650  -26.7456   22.1167 H   0  0  0  0  0  0
  -19.6901  -25.6280   21.1294 H   0  0  0  0  0  0
  -19.6684  -27.3161   20.6757 H   0  0  0  0  0  0
  -17.4211  -26.6713   21.4035 H   0  0  0  0  0  0
  -18.0280  -26.0064   22.9024 H   0  0  0  0  0  0
  -19.7934  -30.7302   24.2248 H   0  0  0  0  0  0
  -17.5006  -31.6283   24.5123 H   0  0  0  0  0  0
  -15.5351  -30.2985   23.7650 H   0  0  0  0  0  0
  -15.8683  -28.0794   22.7135 H   0  0  0  0  0  0
  -24.5761  -30.7212   25.7741 H   0  0  0  0  0  0
  -24.8907  -32.2922   26.5005 H   0  0  0  0  0  0
  -25.7896  -30.8794   27.0233 H   0  0  0  0  0  0
  -26.3055  -29.6761   24.1332 H   0  0  0  0  0  0
  -27.3848  -29.7306   25.5055 H   0  0  0  0  0  0
  -27.9002  -30.4263   23.9881 H   0  0  0  0  0  0
  -27.2478  -33.3706   26.2158 H   0  0  0  0  0  0
  -28.3770  -32.7058   25.0477 H   0  0  0  0  0  0
  -28.0626  -31.8624   26.5584 H   0  0  0  0  0  0
  -28.2548  -38.0159   24.7565 H   0  0  0  0  0  0
  -28.1130  -36.2696   24.6217 H   0  0  0  0  0  0
  -27.2286  -37.1375   25.8852 H   0  0  0  0  0  0
  -20.9441  -29.8690   21.6758 H   0  0  0  0  0  0
  -26.0149  -38.2859   24.1406 H   0  0  0  0  0  0
  -27.7634  -18.1181   20.8826 H   0  0  0  0  0  0
  -28.4537  -17.8734   22.4533 H   0  0  0  0  0  0
  -31.0766  -18.2638   19.1046 H   0  0  0  0  0  0
  -29.3703  -18.3414   18.8326 H   0  0  0  0  0  0
  -29.4440  -20.1146   22.4705 H   0  0  0  0  0  0
  -27.7287  -20.1809   22.1894 H   0  0  0  0  0  0
  -30.3278  -20.6314   18.8283 H   0  0  0  0  0  0
  -31.0495  -20.3949   20.3855 H   0  0  0  0  0  0
  -30.7324  -17.7357   21.5131 H   0  0  0  0  0  0
  -28.0436  -20.7229   19.8224 H   0  0  0  0  0  0
  -28.8614  -15.9905   19.8103 H   0  0  0  0  0  0
  -28.9680  -15.7860   21.5234 H   0  0  0  0  0  0
  -29.3446  -23.7269   19.2883 H   0  0  0  0  0  0
  -27.6840  -23.2309   19.4279 H   0  0  0  0  0  0
  -28.7949  -24.9985   21.6574 H   0  0  0  0  0  0
  -27.1633  -24.8462   21.1616 H   0  0  0  0  0  0
  -29.9437  -22.5119   21.2036 H   0  0  0  0  0  0
  -28.4327  -22.3916   21.7133 H   0  0  0  0  0  0
  1 25  1  0  0  0
  1 30  2  0  0  0
  1 77  1  0  0  0
  2  3  1  0  0  0
  2 25  1  0  0  0
  2 81  1  0  0  0
  2 82  1  0  0  0
  3  4  1  0  0  0
  3 83  1  0  0  0
  3 84  1  0  0  0
  4  5  1  0  0  0
  4 85  1  0  0  0
  4 86  1  0  0  0
  5  6  1  0  0  0
  5 26  1  0  0  0
  5 87  1  0  0  0
  6 25  1  0  0  0
  6 88  1  0  0  0
  6 89  1  0  0  0
  7  8  2  0  0  0
  7 26  1  0  0  0
  7 29  1  0  0  0
  8  9  1  0  0  0
  8 22  1  0  0  0
  9 10  1  0  0  0
  9 27  2  0  0  0
 10 11  2  0  0  0
 10 15  1  0  0  0
 11 12  1  0  0  0
 11 90  1  0  0  0
 12 13  2  0  0  0
 12 91  1  0  0  0
 13 14  1  0  0  0
 13 31  1  0  0  0
 14 15  2  0  0  0
 14 92  1  0  0  0
 15 93  1  0  0  0
 16 17  2  0  0  0
 16 21  1  0  0  0
 16 31  1  0  0  0
 17 18  1  0  0  0
 17 94  1  0  0  0
 18 19  2  0  0  0
 18 95  1  0  0  0
 19 20  1  0  0  0
 19 24  1  0  0  0
 20 21  2  0  0  0
 20 96  1  0  0  0
 21 23  1  0  0  0
 22 28  1  0  0  0
 22 32  2  0  0  0
 26 27  1  0  0  0
 28 97  1  0  0  0
 28 98  1  0  0  0
 29 99  1  0  0  0
 29100  1  0  0  0
 33 34  1  0  0  0
 33 66  1  0  0  0
 33 70  2  0  0  0
 34 36  1  0  0  0
 34 59  1  0  0  0
 34101  1  0  0  0
 35 44  2  0  0  0
 35 45  1  0  0  0
 35 68  1  0  0  0
 36 56  1  0  0  0
 36102  1  0  0  0
 37 39  1  0  0  0
 37 47  1  0  0  0
 37 66  1  0  0  0
 37103  1  0  0  0
 38 43  2  0  0  0
 38 46  1  0  0  0
 38 47  1  0  0  0
 39 64  1  0  0  0
 39 67  2  0  0  0
 40 52  1  0  0  0
 40 53  2  0  0  0
 40 58  1  0  0  0
 41104  1  0  0  0
 41105  1  0  0  0
 41106  1  0  0  0
 41 48  1  0  0  0
 42 43  1  0  0  0
 42 66  1  0  0  0
 42107  1  0  0  0
 42108  1  0  0  0
 43 44  1  0  0  0
 44109  1  0  0  0
 45 46  2  0  0  0
 45110  1  0  0  0
 46111  1  0  0  0
 47112  1  0  0  0
 47113  1  0  0  0
 48 56  1  0  0  0
 48 65  1  0  0  0
 48114  1  0  0  0
 49 50  1  0  0  0
 49 53  1  0  0  0
 49 64  1  0  0  0
 49115  1  0  0  0
 50 51  1  0  0  0
 50116  1  0  0  0
 50117  1  0  0  0
 51 52  1  0  0  0
 51118  1  0  0  0
 51119  1  0  0  0
 52120  1  0  0  0
 52121  1  0  0  0
 53 54  1  0  0  0
 54 55  2  0  0  0
 54122  1  0  0  0
 55 57  1  0  0  0
 55123  1  0  0  0
 56 69  2  0  0  0
 57 58  2  0  0  0
 57124  1  0  0  0
 58125  1  0  0  0
 59 60  1  0  0  0
 59 61  1  0  0  0
 59 62  1  0  0  0
 60126  1  0  0  0
 60127  1  0  0  0
 60128  1  0  0  0
 61129  1  0  0  0
 61130  1  0  0  0
 61131  1  0  0  0
 62132  1  0  0  0
 62133  1  0  0  0
 62134  1  0  0  0
 63 65  1  0  0  0
 63135  1  0  0  0
 63136  1  0  0  0
 63137  1  0  0  0
 64138  1  0  0  0
 65139  1  0  0  0
 68 79  1  0  0  0
 71 73  1  0  0  0
 71 75  1  0  0  0
 71140  1  0  0  0
 71141  1  0  0  0
 72 74  1  0  0  0
 72 75  1  0  0  0
 72142  1  0  0  0
 72143  1  0  0  0
 73 76  1  0  0  0
 73144  1  0  0  0
 73145  1  0  0  0
 74 76  1  0  0  0
 74146  1  0  0  0
 74147  1  0  0  0
 75 77  1  0  0  0
 75148  1  0  0  0
 76 80  1  0  0  0
 76149  1  0  0  0
 77150  1  0  0  0
 77151  1  0  0  0
 78 79  1  0  0  0
 78 80  1  0  0  0
 78152  1  0  0  0
 78153  1  0  0  0
 79154  1  0  0  0
 79155  1  0  0  0
 80156  1  0  0  0
 80157  1  0  0  0
M  CHG  1  80   1
M  ISO  4   1 100  68 101  77 100  79 101
M  END
> <chiral flag>
0

> <version>
0

> <s_m_source_file>
/data/baiqing/PycharmProjects/Reinvent-master-3.2/result/LINK_invent/BTK/process_docking_weight1_custom_sum_contain_oxygen_bond_distance_aromatic_linkinvent_7_9_3/rearranged_h_0131.sdf

> <i_m_source_file_index>
33

> <r_mmod_Potential_Energy-OPLS-2005>
188.474578857422

> <r_mmod_Stretch_Energy-OPLS-2005>
143.553527832031

> <r_mmod_Bend_Energy-OPLS-2005>
221.889495849609

> <r_mmod_Torsional_Energy-OPLS-2005>
229.16667175293

> <r_mmod_Improper_Torsional_Energy-OPLS-2005>
4.83264207839966

> <r_mmod_Van_der_Waal_Energy-OPLS-2005>
116.024208068848

> <r_mmod_Electrostatic_Energy-OPLS-2005>
-190.984481811523

> <r_mmod_Solvation_Energy-OPLS-2005>
-435.264526367188

> <b_mmod_Minimization_Converged-OPLS-2005>
0

> <r_mmod_RMS_Derivative-OPLS-2005>
3.65055871009827

$$$$
33
                    3D
 Structure written by MMmdl.
172181  0  0  1  0            999 V2000
  -30.7209  -14.3899   20.6191 C   0  0  0  0  0  0
  -30.4217  -12.2744   19.3987 C   0  0  0  0  0  0
  -29.4900  -12.5385   18.1981 C   0  0  0  0  0  0
  -28.0101  -12.4006   18.6136 C   0  0  0  0  0  0
  -27.6723  -13.2031   19.8993 C   0  0  2  0  0  0
  -28.7118  -12.9114   21.0045 C   0  0  0  0  0  0
  -25.2596  -13.8155   20.5724 C   0  0  0  0  0  0
  -24.1838  -13.0428   20.9192 C   0  0  0  0  0  0
  -24.6389  -11.6898   20.8731 C   0  0  0  0  0  0
  -23.9059  -10.4292   21.0407 C   0  0  0  0  0  0
  -24.3600   -9.4208   21.9208 C   0  0  0  0  0  0
  -23.6286   -8.2229   22.0781 C   0  0  0  0  0  0
  -22.4269   -8.0269   21.3556 C   0  0  0  0  0  0
  -21.9897   -9.0243   20.4667 C   0  0  0  0  0  0
  -22.7216  -10.2127   20.3077 C   0  0  0  0  0  0
  -21.6821   -6.0726   22.5283 C   0  0  0  0  0  0
  -21.3978   -6.5630   23.8214 C   0  0  0  0  0  0
  -21.3682   -5.6799   24.9179 C   0  0  0  0  0  0
  -21.6052   -4.3065   24.7236 C   0  0  0  0  0  0
  -21.8816   -3.8148   23.4358 C   0  0  0  0  0  0
  -21.9183   -4.6963   22.3411 C   0  0  0  0  0  0
  -22.7858  -13.5223   21.1876 C   0  0  0  0  0  0
  -22.1652   -4.2142   21.0989 F   0  0  0  0  0  0
  -21.5658   -3.4565   25.7762 F   0  0  0  0  0  0
  -30.0535  -13.2140   20.4696 N   0  0  0  0  0  0
  -26.3075  -12.9324   20.3492 N   0  0  0  0  0  0
  -25.9316  -11.6475   20.5790 N   0  0  0  0  0  0
  -22.0505  -12.8206   22.0426 N   0  0  0  0  0  0
  -25.4317  -15.1879   20.4160 N   0  0  0  0  0  0
  -31.7842  -14.6483   20.0536 O   0  0  0  0  0  0
  -21.6615   -6.8870   21.4248 O   0  0  0  0  0  0
  -22.3538  -14.5545   20.6753 O   0  0  0  0  0  0
  -24.6178  -31.8714   23.2132 C   0  0  0  0  0  0
  -25.9077  -32.4822   23.8420 C   0  0  1  0  0  0
  -27.1878  -27.4249   20.0985 C   0  0  0  0  0  0
  -25.5933  -33.8619   24.2342 N   0  0  0  0  0  0
  -23.4017  -30.5000   21.5571 C   0  0  2  0  0  0
  -24.8359  -28.9809   20.1005 C   0  0  0  0  0  0
  -22.7425  -29.4680   22.5015 C   0  0  0  0  0  0
  -18.0261  -28.1362   22.8474 C   0  0  0  0  0  0
  -24.1487  -36.7301   23.2637 C   0  0  0  0  0  0
  -25.9292  -30.8363   21.3608 C   0  0  0  0  0  0
  -26.0017  -29.4736   20.7038 C   0  0  0  0  0  0
  -27.1888  -28.7012   20.7046 C   0  0  0  0  0  0
  -26.0189  -26.9667   19.4557 C   0  0  0  0  0  0
  -24.8415  -27.7295   19.4672 C   0  0  0  0  0  0
  -23.5993  -29.8486   20.1659 C   0  0  0  0  0  0
  -25.4108  -36.3089   24.0330 C   0  0  1  0  0  0
  -20.5855  -28.3655   23.1311 C   0  0  2  0  0  0
  -20.6762  -26.9398   22.5405 C   0  0  0  0  0  0
  -19.5749  -26.6387   21.5186 C   0  0  0  0  0  0
  -18.1912  -26.7912   22.1580 C   0  0  0  0  0  0
  -19.1514  -28.8808   23.2883 C   0  0  0  0  0  0
  -18.9448  -30.1404   23.8908 C   0  0  0  0  0  0
  -17.6473  -30.6581   24.0544 C   0  0  0  0  0  0
  -25.9053  -34.9459   23.5134 C   0  0  0  0  0  0
  -16.5350  -29.9087   23.6337 C   0  0  0  0  0  0
  -16.7262  -28.6488   23.0376 C   0  0  0  0  0  0
  -26.4497  -31.6587   25.0744 C   0  0  0  0  0  0
  -25.3765  -31.3634   26.1507 C   0  0  0  0  0  0
  -27.0345  -30.3053   24.6069 C   0  0  0  0  0  0
  -27.6130  -32.4291   25.7463 C   0  0  0  0  0  0
  -27.5564  -37.1790   24.8457 C   0  0  0  0  0  0
  -21.4153  -29.3029   22.3723 N   0  0  0  0  0  0
  -26.4267  -37.3787   23.9422 N   0  0  0  0  0  0
  -24.6681  -31.0817   22.1033 N   0  0  0  0  0  0
  -23.4178  -28.8222   23.3071 O   0  0  0  0  0  0
  -28.2848  -26.6027   20.1647 O   0  0  0  0  0  0
  -26.5612  -34.8899   22.4694 O   0  0  0  0  0  0
  -23.5391  -32.1483   23.7550 O   0  0  0  0  0  0
  -32.7643  -21.7402   18.6526 C   0  0  0  0  0  0
  -30.9697  -21.9964   20.2700 C   0  0  0  0  0  0
  -32.6925  -23.1165   18.3312 C   0  0  0  0  0  0
  -31.7456  -23.9384   18.9858 C   0  0  0  0  0  0
  -31.9169  -21.1669   19.6280 C   0  0  0  0  0  0
  -30.8988  -23.3714   19.9586 C   0  0  0  0  0  0
  -33.6807  -23.6999   17.3238 C   0  0  0  0  0  0
  -31.6070  -25.4241   18.6512 C   0  0  0  0  0  0
  -33.3046  -25.0969   16.8040 C   0  0  0  0  0  0
  -32.8261  -26.0136   17.9329 C   0  0  0  0  0  0
  -30.8882  -19.0060   20.2696 C   0  0  0  0  0  0
  -29.9378  -16.7404   20.9811 C   0  0  0  0  0  0
  -27.9900  -25.3406   20.7995 C   0  0  0  0  0  0
  -28.7227  -24.1721   20.1419 C   0  0  0  0  0  0
  -31.2253  -17.5437   20.6512 C   0  0  2  0  0  0
  -32.0800  -19.8048   19.9513 N   0  0  0  0  0  0
  -30.0665  -15.3159   21.3321 N   0  0  0  0  0  0
  -32.1864  -17.5223   21.7644 N   0  3  0  0  0  0
  -30.0437  -24.1827   20.6437 O   0  0  0  0  0  0
  -31.4642  -12.3719   19.0937 H   0  0  0  0  0  0
  -30.3065  -11.2447   19.7412 H   0  0  0  0  0  0
  -29.7162  -11.8495   17.3823 H   0  0  0  0  0  0
  -29.6715  -13.5425   17.8071 H   0  0  0  0  0  0
  -27.8010  -11.3420   18.7721 H   0  0  0  0  0  0
  -27.3628  -12.7150   17.7944 H   0  0  0  0  0  0
  -27.7406  -14.2644   19.6569 H   0  0  0  0  0  0
  -28.6694  -11.8563   21.2757 H   0  0  0  0  0  0
  -28.4771  -13.4458   21.9242 H   0  0  0  0  0  0
  -25.2741   -9.5691   22.4782 H   0  0  0  0  0  0
  -24.0025   -7.4606   22.7447 H   0  0  0  0  0  0
  -21.0856   -8.8720   19.8947 H   0  0  0  0  0  0
  -22.3666  -10.9657   19.6182 H   0  0  0  0  0  0
  -21.1919   -7.6133   23.9716 H   0  0  0  0  0  0
  -21.1519   -6.0533   25.9083 H   0  0  0  0  0  0
  -22.0567   -2.7611   23.2856 H   0  0  0  0  0  0
  -22.4071  -11.9816   22.4765 H   0  0  0  0  0  0
  -21.1122  -13.1220   22.2647 H   0  0  0  0  0  0
  -24.6662  -15.8431   20.5352 H   0  0  0  0  0  0
  -26.2922  -15.6341   20.1268 H   0  0  0  0  0  0
  -26.7155  -32.5532   23.1185 H   0  0  0  0  0  0
  -25.0082  -33.9802   25.0486 H   0  0  0  0  0  0
  -22.6910  -31.3186   21.4315 H   0  0  0  0  0  0
  -23.3745  -35.9637   23.3307 H   0  0  0  0  0  0
  -24.3581  -36.8954   22.2056 H   0  0  0  0  0  0
  -23.7270  -37.6503   23.6687 H   0  0  0  0  0  0
  -26.0294  -31.5999   20.5882 H   0  0  0  0  0  0
  -26.8221  -30.8979   21.9674 H   0  0  0  0  0  0
  -28.0791  -29.0590   21.1999 H   0  0  0  0  0  0
  -26.0039  -26.0015   18.9695 H   0  0  0  0  0  0
  -23.9474  -27.3579   18.9856 H   0  0  0  0  0  0
  -23.6949  -30.6315   19.4131 H   0  0  0  0  0  0
  -22.7200  -29.2670   19.8795 H   0  0  0  0  0  0
  -25.1279  -36.1944   25.0815 H   0  0  0  0  0  0
  -20.9904  -28.3233   24.1446 H   0  0  0  0  0  0
  -20.5645  -26.2280   23.3595 H   0  0  0  0  0  0
  -21.6656  -26.7466   22.1200 H   0  0  0  0  0  0
  -19.6958  -25.6307   21.1205 H   0  0  0  0  0  0
  -19.6710  -27.3197   20.6711 H   0  0  0  0  0  0
  -17.4204  -26.6649   21.3953 H   0  0  0  0  0  0
  -18.0316  -26.0024   22.8936 H   0  0  0  0  0  0
  -19.7933  -30.7173   24.2327 H   0  0  0  0  0  0
  -17.5050  -31.6282   24.5122 H   0  0  0  0  0  0
  -15.5353  -30.3000   23.7698 H   0  0  0  0  0  0
  -15.8636  -28.0814   22.7151 H   0  0  0  0  0  0
  -24.5987  -30.6928   25.7831 H   0  0  0  0  0  0
  -24.8859  -32.2732   26.4981 H   0  0  0  0  0  0
  -25.8135  -30.8804   27.0266 H   0  0  0  0  0  0
  -26.2859  -29.6722   24.1293 H   0  0  0  0  0  0
  -27.4376  -29.7368   25.4462 H   0  0  0  0  0  0
  -27.8549  -30.4404   23.9024 H   0  0  0  0  0  0
  -27.2850  -33.3646   26.2011 H   0  0  0  0  0  0
  -28.3915  -32.6786   25.0233 H   0  0  0  0  0  0
  -28.0805  -31.8412   26.5377 H   0  0  0  0  0  0
  -28.2580  -38.0082   24.7568 H   0  0  0  0  0  0
  -28.1073  -36.2650   24.6225 H   0  0  0  0  0  0
  -27.2301  -37.1388   25.8854 H   0  0  0  0  0  0
  -20.9349  -29.8737   21.6895 H   0  0  0  0  0  0
  -26.0151  -38.2853   24.1471 H   0  0  0  0  0  0
  -33.4958  -21.1214   18.1517 H   0  0  0  0  0  0
  -30.3110  -21.6099   21.0324 H   0  0  0  0  0  0
  -33.7995  -23.0147   16.4863 H   0  0  0  0  0  0
  -34.6507  -23.7525   17.8197 H   0  0  0  0  0  0
  -31.4058  -26.0004   19.5558 H   0  0  0  0  0  0
  -30.7250  -25.5394   18.0200 H   0  0  0  0  0  0
  -32.5141  -25.0060   16.0586 H   0  0  0  0  0  0
  -34.1577  -25.5409   16.2873 H   0  0  0  0  0  0
  -33.6357  -26.1452   18.6496 H   0  0  0  0  0  0
  -32.5958  -27.0104   17.5525 H   0  0  0  0  0  0
  -30.3237  -19.4574   21.0872 H   0  0  0  0  0  0
  -30.2286  -19.0067   19.3994 H   0  0  0  0  0  0
  -29.2615  -16.7979   20.1266 H   0  0  0  0  0  0
  -29.4089  -17.2282   21.8023 H   0  0  0  0  0  0
  -28.2504  -25.3964   21.8571 H   0  0  0  0  0  0
  -26.9317  -25.0763   20.7955 H   0  0  0  0  0  0
  -28.6753  -24.2368   19.0522 H   0  0  0  0  0  0
  -28.2537  -23.2297   20.4341 H   0  0  0  0  0  0
  -31.7196  -17.1023   19.7873 H   0  0  0  0  0  0
  -32.7631  -19.3394   19.3568 H   0  0  0  0  0  0
  -29.2803  -14.9421   21.8428 H   0  0  0  0  0  0
  -31.7550  -17.8398   22.6137 H   0  0  0  0  0  0
  -32.9326  -18.1574   21.5367 H   0  0  0  0  0  0
  -32.5655  -16.6022   21.9019 H   0  0  0  0  0  0
  1 25  1  0  0  0
  1 30  2  0  0  0
  1 87  1  0  0  0
  2  3  1  0  0  0
  2 25  1  0  0  0
  2 90  1  0  0  0
  2 91  1  0  0  0
  3  4  1  0  0  0
  3 92  1  0  0  0
  3 93  1  0  0  0
  4  5  1  0  0  0
  4 94  1  0  0  0
  4 95  1  0  0  0
  5  6  1  0  0  0
  5 26  1  0  0  0
  5 96  1  0  0  0
  6 25  1  0  0  0
  6 97  1  0  0  0
  6 98  1  0  0  0
  7  8  2  0  0  0
  7 26  1  0  0  0
  7 29  1  0  0  0
  8  9  1  0  0  0
  8 22  1  0  0  0
  9 10  1  0  0  0
  9 27  2  0  0  0
 10 11  2  0  0  0
 10 15  1  0  0  0
 11 12  1  0  0  0
 11 99  1  0  0  0
 12 13  2  0  0  0
 12100  1  0  0  0
 13 14  1  0  0  0
 13 31  1  0  0  0
 14 15  2  0  0  0
 14101  1  0  0  0
 15102  1  0  0  0
 16 17  2  0  0  0
 16 21  1  0  0  0
 16 31  1  0  0  0
 17 18  1  0  0  0
 17103  1  0  0  0
 18 19  2  0  0  0
 18104  1  0  0  0
 19 20  1  0  0  0
 19 24  1  0  0  0
 20 21  2  0  0  0
 20105  1  0  0  0
 21 23  1  0  0  0
 22 28  1  0  0  0
 22 32  2  0  0  0
 26 27  1  0  0  0
 28106  1  0  0  0
 28107  1  0  0  0
 29108  1  0  0  0
 29109  1  0  0  0
 33 34  1  0  0  0
 33 66  1  0  0  0
 33 70  2  0  0  0
 34 36  1  0  0  0
 34 59  1  0  0  0
 34110  1  0  0  0
 35 44  2  0  0  0
 35 45  1  0  0  0
 35 68  1  0  0  0
 36 56  1  0  0  0
 36111  1  0  0  0
 37 39  1  0  0  0
 37 47  1  0  0  0
 37 66  1  0  0  0
 37112  1  0  0  0
 38 43  2  0  0  0
 38 46  1  0  0  0
 38 47  1  0  0  0
 39 64  1  0  0  0
 39 67  2  0  0  0
 40 52  1  0  0  0
 40 53  2  0  0  0
 40 58  1  0  0  0
 41113  1  0  0  0
 41114  1  0  0  0
 41115  1  0  0  0
 41 48  1  0  0  0
 42 43  1  0  0  0
 42 66  1  0  0  0
 42116  1  0  0  0
 42117  1  0  0  0
 43 44  1  0  0  0
 44118  1  0  0  0
 45 46  2  0  0  0
 45119  1  0  0  0
 46120  1  0  0  0
 47121  1  0  0  0
 47122  1  0  0  0
 48 56  1  0  0  0
 48 65  1  0  0  0
 48123  1  0  0  0
 49 50  1  0  0  0
 49 53  1  0  0  0
 49 64  1  0  0  0
 49124  1  0  0  0
 50 51  1  0  0  0
 50125  1  0  0  0
 50126  1  0  0  0
 51 52  1  0  0  0
 51127  1  0  0  0
 51128  1  0  0  0
 52129  1  0  0  0
 52130  1  0  0  0
 53 54  1  0  0  0
 54 55  2  0  0  0
 54131  1  0  0  0
 55 57  1  0  0  0
 55132  1  0  0  0
 56 69  2  0  0  0
 57 58  2  0  0  0
 57133  1  0  0  0
 58134  1  0  0  0
 59 60  1  0  0  0
 59 61  1  0  0  0
 59 62  1  0  0  0
 60135  1  0  0  0
 60136  1  0  0  0
 60137  1  0  0  0
 61138  1  0  0  0
 61139  1  0  0  0
 61140  1  0  0  0
 62141  1  0  0  0
 62142  1  0  0  0
 62143  1  0  0  0
 63 65  1  0  0  0
 63144  1  0  0  0
 63145  1  0  0  0
 63146  1  0  0  0
 64147  1  0  0  0
 65148  1  0  0  0
 68 83  1  0  0  0
 71 73  2  0  0  0
 71 75  1  0  0  0
 71149  1  0  0  0
 72 75  2  0  0  0
 72 76  1  0  0  0
 72150  1  0  0  0
 73 74  1  0  0  0
 73 77  1  0  0  0
 74 76  2  0  0  0
 74 78  1  0  0  0
 75 86  1  0  0  0
 76 89  1  0  0  0
 77 79  1  0  0  0
 77151  1  0  0  0
 77152  1  0  0  0
 78 80  1  0  0  0
 78153  1  0  0  0
 78154  1  0  0  0
 79 80  1  0  0  0
 79155  1  0  0  0
 79156  1  0  0  0
 80157  1  0  0  0
 80158  1  0  0  0
 81 85  1  0  0  0
 81 86  1  0  0  0
 81159  1  0  0  0
 81160  1  0  0  0
 82 85  1  0  0  0
 82 87  1  0  0  0
 82161  1  0  0  0
 82162  1  0  0  0
 83 84  1  0  0  0
 83163  1  0  0  0
 83164  1  0  0  0
 84 89  1  0  0  0
 84165  1  0  0  0
 84166  1  0  0  0
 85 88  1  0  0  0
 85167  1  0  0  0
 86168  1  0  0  0
 87169  1  0  0  0
 88170  1  0  0  0
 88171  1  0  0  0
 88172  1  0  0  0
M  CHG  1  88   1
M  ISO  4   1 100  68 101  83 101  87 100
M  END
> <chiral flag>
0

> <version>
0

> <s_m_source_file>
/data/baiqing/PycharmProjects/Reinvent-master-3.2/result/LINK_invent/BTK/process_docking_weight1_custom_sum_contain_oxygen_bond_distance_aromatic_linkinvent_7_9_3/rearranged_h_0131.sdf

> <i_m_source_file_index>
34

> <r_mmod_Potential_Energy-OPLS-2005>
-284.912994384766

> <r_mmod_Stretch_Energy-OPLS-2005>
37.0041732788086

> <r_mmod_Bend_Energy-OPLS-2005>
104.418426513672

> <r_mmod_Torsional_Energy-OPLS-2005>
320.777923583984

> <r_mmod_Improper_Torsional_Energy-OPLS-2005>
9.19710063934326

> <r_mmod_Van_der_Waal_Energy-OPLS-2005>
163.861679077148

> <r_mmod_Electrostatic_Energy-OPLS-2005>
-463.756622314453

> <r_mmod_Solvation_Energy-OPLS-2005>
-471.713562011719

> <b_mmod_Minimization_Converged-OPLS-2005>
0

> <r_mmod_RMS_Derivative-OPLS-2005>
4.57928371429443

$$$$
34
                    3D
 Structure written by MMmdl.
163172  0  0  1  0            999 V2000
  -30.8473  -14.5306   19.5763 C   0  0  0  0  0  0
  -30.8385  -12.1897   19.3820 C   0  0  0  0  0  0
  -29.7703  -12.0144   18.3013 C   0  0  0  0  0  0
  -28.5001  -12.1481   19.0927 C   0  0  0  0  0  0
  -28.3386  -13.5146   20.0983 C   0  0  2  0  0  0
  -29.3889  -13.3033   21.1026 C   0  0  0  0  0  0
  -25.0691  -14.4153   20.7414 C   0  0  0  0  0  0
  -23.8725  -13.5057   20.8779 C   0  0  0  0  0  0
  -24.1921  -12.3427   20.3372 C   0  0  0  0  0  0
  -23.7379  -10.8687   20.8631 C   0  0  0  0  0  0
  -24.1804   -9.9166   21.8765 C   0  0  0  0  0  0
  -23.6079   -8.6008   22.0856 C   0  0  0  0  0  0
  -22.4794   -8.1797   21.3379 C   0  0  0  0  0  0
  -22.0271   -9.0847   20.3643 C   0  0  0  0  0  0
  -22.6480  -10.3391   20.1302 C   0  0  0  0  0  0
  -21.7662   -6.1330   22.5241 C   0  0  0  0  0  0
  -21.4601   -6.6056   23.8195 C   0  0  0  0  0  0
  -21.3796   -5.7070   24.9068 C   0  0  0  0  0  0
  -21.6015   -4.3311   24.7099 C   0  0  0  0  0  0
  -21.8751   -3.8476   23.4199 C   0  0  0  0  0  0
  -21.9461   -4.7410   22.3324 C   0  0  0  0  0  0
  -22.4304  -13.7905   21.2466 C   0  0  0  0  0  0
  -22.1776   -4.2494   21.0893 F   0  0  0  0  0  0
  -21.5445   -3.4724   25.7548 F   0  0  0  0  0  0
  -30.5098  -13.3747   20.1770 N   0  0  0  0  0  0
  -26.6361  -14.4295   20.6983 N   0  0  0  0  0  0
  -24.8344  -13.7068   20.5920 N   0  0  0  0  0  0
  -21.8173  -12.9127   22.0350 N   0  0  0  0  0  0
  -26.7925  -14.8666   20.8185 N   0  0  0  0  0  0
  -31.8804  -15.0683   19.9501 O   0  0  0  0  0  0
  -21.7968   -6.9659   21.4190 O   0  0  0  0  0  0
  -21.9122  -14.7858   20.7728 O   0  0  0  0  0  0
  -24.7169  -31.7558   23.1321 C   0  0  0  0  0  0
  -25.9631  -32.4210   23.7901 C   0  0  1  0  0  0
  -26.6573  -26.1079   20.3574 C   0  0  0  0  0  0
  -25.6090  -33.8077   24.1725 N   0  0  0  0  0  0
  -23.5281  -30.3805   21.4999 C   0  0  2  0  0  0
  -24.8882  -28.6440   20.0948 C   0  0  0  0  0  0
  -22.7792  -29.4149   22.4593 C   0  0  0  0  0  0
  -18.0341  -28.1437   22.8442 C   0  0  0  0  0  0
  -24.1498  -36.7041   23.2655 C   0  0  0  0  0  0
  -26.1102  -30.2743   21.4812 C   0  0  0  0  0  0
  -26.0589  -28.7941   20.8387 C   0  0  0  0  0  0
  -26.9506  -27.5510   20.9291 C   0  0  0  0  0  0
  -25.6181  -26.3394   19.4364 C   0  0  0  0  0  0
  -24.7578  -27.4708   19.3409 C   0  0  0  0  0  0
  -23.7754  -29.7047   20.1195 C   0  0  0  0  0  0
  -25.4169  -36.2741   24.0239 C   0  0  1  0  0  0
  -20.5980  -28.3794   23.1083 C   0  0  2  0  0  0
  -20.6795  -26.9432   22.5398 C   0  0  0  0  0  0
  -19.5768  -26.6356   21.5215 C   0  0  0  0  0  0
  -18.1952  -26.7958   22.1621 C   0  0  0  0  0  0
  -19.1615  -28.8944   23.2741 C   0  0  0  0  0  0
  -18.9521  -30.1523   23.8793 C   0  0  0  0  0  0
  -17.6510  -30.6611   24.0544 C   0  0  0  0  0  0
  -25.9200  -34.9152   23.4847 C   0  0  0  0  0  0
  -16.5395  -29.9084   23.6365 C   0  0  0  0  0  0
  -16.7320  -28.6514   23.0366 C   0  0  0  0  0  0
  -26.4677  -31.6456   25.0715 C   0  0  0  0  0  0
  -25.3629  -31.3911   26.1262 C   0  0  0  0  0  0
  -27.0699  -30.2753   24.6969 C   0  0  0  0  0  0
  -27.6035  -32.4451   25.7549 C   0  0  0  0  0  0
  -27.5550  -37.1676   24.8460 C   0  0  0  0  0  0
  -21.4433  -29.2986   22.3356 N   0  0  0  0  0  0
  -26.4240  -37.3565   23.9419 N   0  0  0  0  0  0
  -24.8214  -30.8553   22.0850 N   0  0  0  0  0  0
  -23.4143  -28.7756   23.3019 O   0  0  0  0  0  0
  -27.1112  -24.5149   20.4972 O   0  0  0  0  0  0
  -26.5865  -34.8809   22.4489 O   0  0  0  0  0  0
  -23.6153  -32.0936   23.6044 O   0  0  0  0  0  0
  -25.6458  -15.5718   22.6225 C   0  0  0  0  0  0
  -25.7421  -15.7025   18.9466 C   0  0  0  0  0  0
  -26.1317  -13.4233   22.6261 C   0  0  0  0  0  0
  -26.2512  -13.5868   18.7453 C   0  0  0  0  0  0
  -26.5172  -12.2666   20.8072 C   0  0  0  0  0  0
  -25.5722  -16.7938   20.7988 C   0  0  0  0  0  0
  -26.3713  -12.5868   23.8478 C   0  0  0  0  0  0
  -27.4985  -11.5609   23.5428 C   0  0  0  0  0  0
  -27.3994  -10.5241   22.3599 C   0  0  0  0  0  0
  -27.3555  -13.8664   17.5190 C   0  0  0  0  0  0
  -28.7695  -14.8810   17.5781 C   0  0  0  0  0  0
  -26.3270  -22.6593   20.5535 C   0  0  0  0  0  0
  -26.4116  -20.4099   20.5761 C   0  0  0  0  0  0
  -26.8637  -10.9237   21.0434 N   0  0  0  0  0  0
  -30.2091  -14.8595   18.3348 N   0  0  0  0  0  0
  -25.6096  -18.5901   20.8757 O   0  0  0  0  0  0
  -31.8260  -12.2737   18.9180 H   0  0  0  0  0  0
  -30.9052  -11.3130   20.0278 H   0  0  0  0  0  0
  -29.8338  -11.0035   17.8957 H   0  0  0  0  0  0
  -29.8778  -12.6409   17.4217 H   0  0  0  0  0  0
  -28.7055  -11.3068   19.7416 H   0  0  0  0  0  0
  -27.6601  -11.7040   18.5672 H   0  0  0  0  0  0
  -28.5658  -14.4177   19.6768 H   0  0  0  0  0  0
  -29.3560  -12.3336   21.5863 H   0  0  0  0  0  0
  -29.4320  -14.0937   21.8544 H   0  0  0  0  0  0
  -24.9357  -10.2412   22.5641 H   0  0  0  0  0  0
  -24.0101   -7.9619   22.8585 H   0  0  0  0  0  0
  -21.1851   -8.8029   19.7480 H   0  0  0  0  0  0
  -22.2369  -10.9474   19.3383 H   0  0  0  0  0  0
  -21.2856   -7.6596   23.9791 H   0  0  0  0  0  0
  -21.1557   -6.0788   25.8952 H   0  0  0  0  0  0
  -22.0307   -2.7914   23.2605 H   0  0  0  0  0  0
  -22.2963  -12.0943   22.3744 H   0  0  0  0  0  0
  -20.8503  -13.0494   22.2855 H   0  0  0  0  0  0
  -26.8809  -15.8705   20.8805 H   0  0  0  0  0  0
  -27.0479  -14.4758   21.7263 H   0  0  0  0  0  0
  -26.7723  -32.4470   23.0586 H   0  0  0  0  0  0
  -25.0081  -33.9060   24.9772 H   0  0  0  0  0  0
  -22.8775  -31.2402   21.3224 H   0  0  0  0  0  0
  -23.3804  -35.9315   23.3180 H   0  0  0  0  0  0
  -24.3557  -36.8873   22.2094 H   0  0  0  0  0  0
  -23.7200  -37.6145   23.6858 H   0  0  0  0  0  0
  -26.3997  -30.9465   20.6719 H   0  0  0  0  0  0
  -26.9541  -30.3047   22.1581 H   0  0  0  0  0  0
  -27.8015  -27.6304   21.5930 H   0  0  0  0  0  0
  -25.3135  -25.4842   18.8489 H   0  0  0  0  0  0
  -23.9001  -27.3804   18.6902 H   0  0  0  0  0  0
  -24.0354  -30.4708   19.3876 H   0  0  0  0  0  0
  -22.8456  -29.2620   19.7581 H   0  0  0  0  0  0
  -25.1382  -36.1437   25.0717 H   0  0  0  0  0  0
  -21.0054  -28.3448   24.1214 H   0  0  0  0  0  0
  -20.5667  -26.2410   23.3677 H   0  0  0  0  0  0
  -21.6641  -26.7353   22.1199 H   0  0  0  0  0  0
  -19.6917  -25.6241   21.1291 H   0  0  0  0  0  0
  -19.6723  -27.3123   20.6709 H   0  0  0  0  0  0
  -17.4219  -26.6691   21.4026 H   0  0  0  0  0  0
  -18.0347  -26.0131   22.9050 H   0  0  0  0  0  0
  -19.7995  -30.7363   24.2110 H   0  0  0  0  0  0
  -17.5062  -31.6285   24.5165 H   0  0  0  0  0  0
  -15.5390  -30.2957   23.7757 H   0  0  0  0  0  0
  -15.8717  -28.0805   22.7134 H   0  0  0  0  0  0
  -24.5807  -30.7291   25.7534 H   0  0  0  0  0  0
  -24.8851  -32.3190   26.4419 H   0  0  0  0  0  0
  -25.7694  -30.9209   27.0226 H   0  0  0  0  0  0
  -26.3450  -29.6178   24.2175 H   0  0  0  0  0  0
  -27.4125  -29.7451   25.5865 H   0  0  0  0  0  0
  -27.9442  -30.3803   24.0544 H   0  0  0  0  0  0
  -27.2509  -33.3887   26.1737 H   0  0  0  0  0  0
  -28.4035  -32.6818   25.0516 H   0  0  0  0  0  0
  -28.0500  -31.8869   26.5793 H   0  0  0  0  0  0
  -28.2464  -38.0070   24.7573 H   0  0  0  0  0  0
  -28.1151  -36.2587   24.6206 H   0  0  0  0  0  0
  -27.2275  -37.1190   25.8863 H   0  0  0  0  0  0
  -20.9780  -29.8652   21.6408 H   0  0  0  0  0  0
  -26.0019  -38.2581   24.1480 H   0  0  0  0  0  0
  -25.5547  -16.0664   23.5779 H   0  0  0  0  0  0
  -25.8441  -16.3127   18.0600 H   0  0  0  0  0  0
  -25.4466  -12.0828   24.1209 H   0  0  0  0  0  0
  -26.6659  -13.2315   24.6749 H   0  0  0  0  0  0
  -27.6637  -10.9755   24.4466 H   0  0  0  0  0  0
  -28.4204  -12.1250   23.4461 H   0  0  0  0  0  0
  -26.8579   -9.6389   22.6897 H   0  0  0  0  0  0
  -28.4043  -10.1388   22.1729 H   0  0  0  0  0  0
  -26.7331  -14.4000   16.8007 H   0  0  0  0  0  0
  -27.5548  -12.9733   16.9329 H   0  0  0  0  0  0
  -28.4052  -15.8884   17.7861 H   0  0  0  0  0  0
  -29.0805  -14.9328   16.5340 H   0  0  0  0  0  0
  -25.7800  -22.8018   21.4845 H   0  0  0  0  0  0
  -25.5706  -22.8045   19.7809 H   0  0  0  0  0  0
  -27.2166  -20.2961   21.3030 H   0  0  0  0  0  0
  -26.9036  -20.2221   19.6205 H   0  0  0  0  0  0
  -27.0871  -10.3428   20.2398 H   0  0  0  0  0  0
  -30.8126  -15.5275   17.8748 H   0  0  0  0  0  0
  1 25  1  0  0  0
  1 30  2  0  0  0
  1 85  1  0  0  0
  2  3  1  0  0  0
  2 25  1  0  0  0
  2 87  1  0  0  0
  2 88  1  0  0  0
  3  4  1  0  0  0
  3 89  1  0  0  0
  3 90  1  0  0  0
  4  5  1  0  0  0
  4 91  1  0  0  0
  4 92  1  0  0  0
  5  6  1  0  0  0
  5 26  1  0  0  0
  5 93  1  0  0  0
  6 25  1  0  0  0
  6 94  1  0  0  0
  6 95  1  0  0  0
  7  8  2  0  0  0
  7 26  1  0  0  0
  7 29  1  0  0  0
  8  9  1  0  0  0
  8 22  1  0  0  0
  9 10  1  0  0  0
  9 27  2  0  0  0
 10 11  2  0  0  0
 10 15  1  0  0  0
 11 12  1  0  0  0
 11 96  1  0  0  0
 12 13  2  0  0  0
 12 97  1  0  0  0
 13 14  1  0  0  0
 13 31  1  0  0  0
 14 15  2  0  0  0
 14 98  1  0  0  0
 15 99  1  0  0  0
 16 17  2  0  0  0
 16 21  1  0  0  0
 16 31  1  0  0  0
 17 18  1  0  0  0
 17100  1  0  0  0
 18 19  2  0  0  0
 18101  1  0  0  0
 19 20  1  0  0  0
 19 24  1  0  0  0
 20 21  2  0  0  0
 20102  1  0  0  0
 21 23  1  0  0  0
 22 28  1  0  0  0
 22 32  2  0  0  0
 26 27  1  0  0  0
 28103  1  0  0  0
 28104  1  0  0  0
 29105  1  0  0  0
 29106  1  0  0  0
 33 34  1  0  0  0
 33 66  1  0  0  0
 33 70  2  0  0  0
 34 36  1  0  0  0
 34 59  1  0  0  0
 34107  1  0  0  0
 35 44  2  0  0  0
 35 45  1  0  0  0
 35 68  1  0  0  0
 36 56  1  0  0  0
 36108  1  0  0  0
 37 39  1  0  0  0
 37 47  1  0  0  0
 37 66  1  0  0  0
 37109  1  0  0  0
 38 43  2  0  0  0
 38 46  1  0  0  0
 38 47  1  0  0  0
 39 64  1  0  0  0
 39 67  2  0  0  0
 40 52  1  0  0  0
 40 53  2  0  0  0
 40 58  1  0  0  0
 41110  1  0  0  0
 41111  1  0  0  0
 41112  1  0  0  0
 41 48  1  0  0  0
 42 43  1  0  0  0
 42 66  1  0  0  0
 42113  1  0  0  0
 42114  1  0  0  0
 43 44  1  0  0  0
 44115  1  0  0  0
 45 46  2  0  0  0
 45116  1  0  0  0
 46117  1  0  0  0
 47118  1  0  0  0
 47119  1  0  0  0
 48 56  1  0  0  0
 48 65  1  0  0  0
 48120  1  0  0  0
 49 50  1  0  0  0
 49 53  1  0  0  0
 49 64  1  0  0  0
 49121  1  0  0  0
 50 51  1  0  0  0
 50122  1  0  0  0
 50123  1  0  0  0
 51 52  1  0  0  0
 51124  1  0  0  0
 51125  1  0  0  0
 52126  1  0  0  0
 52127  1  0  0  0
 53 54  1  0  0  0
 54 55  2  0  0  0
 54128  1  0  0  0
 55 57  1  0  0  0
 55129  1  0  0  0
 56 69  2  0  0  0
 57 58  2  0  0  0
 57130  1  0  0  0
 58131  1  0  0  0
 59 60  1  0  0  0
 59 61  1  0  0  0
 59 62  1  0  0  0
 60132  1  0  0  0
 60133  1  0  0  0
 60134  1  0  0  0
 61135  1  0  0  0
 61136  1  0  0  0
 61137  1  0  0  0
 62138  1  0  0  0
 62139  1  0  0  0
 62140  1  0  0  0
 63 65  1  0  0  0
 63141  1  0  0  0
 63142  1  0  0  0
 63143  1  0  0  0
 64144  1  0  0  0
 65145  1  0  0  0
 68 82  1  0  0  0
 71 73  2  0  0  0
 71 76  1  0  0  0
 71146  1  0  0  0
 72 74  1  0  0  0
 72 76  2  0  0  0
 72147  1  0  0  0
 73 75  1  0  0  0
 73 77  1  0  0  0
 74 75  2  0  0  0
 74 80  1  0  0  0
 75 84  1  0  0  0
 76 86  1  0  0  0
 77 78  1  0  0  0
 77148  1  0  0  0
 77149  1  0  0  0
 78 79  1  0  0  0
 78150  1  0  0  0
 78151  1  0  0  0
 79 84  1  0  0  0
 79152  1  0  0  0
 79153  1  0  0  0
 80 81  1  0  0  0
 80154  1  0  0  0
 80155  1  0  0  0
 81 85  1  0  0  0
 81156  1  0  0  0
 81157  1  0  0  0
 82 83  1  0  0  0
 82158  1  0  0  0
 82159  1  0  0  0
 83 86  1  0  0  0
 83160  1  0  0  0
 83161  1  0  0  0
 84162  1  0  0  0
 85163  1  0  0  0
M  ISO  4   1 100  68 101  82 101  85 100
M  END
> <chiral flag>
0

> <version>
0

> <s_m_source_file>
/data/baiqing/PycharmProjects/Reinvent-master-3.2/result/LINK_invent/BTK/process_docking_weight1_custom_sum_contain_oxygen_bond_distance_aromatic_linkinvent_7_9_3/rearranged_h_0131.sdf

> <i_m_source_file_index>
35

> <r_mmod_Potential_Energy-OPLS-2005>
23660.537109375

> <r_mmod_Stretch_Energy-OPLS-2005>
12300.72265625

> <r_mmod_Bend_Energy-OPLS-2005>
3717.0029296875

> <r_mmod_Torsional_Energy-OPLS-2005>
592.516784667969

> <r_mmod_Improper_Torsional_Energy-OPLS-2005>
89.1037902832031

> <r_mmod_Van_der_Waal_Energy-OPLS-2005>
4598.93798828125

> <r_mmod_Electrostatic_Energy-OPLS-2005>
-403.070892333984

> <r_mmod_Solvation_Energy-OPLS-2005>
-228.647674560547

> <b_mmod_Minimization_Converged-OPLS-2005>
0

> <r_mmod_RMS_Derivative-OPLS-2005>
8.90859127044678

$$$$
35
                    3D
 Structure written by MMmdl.
158167  0  0  1  0            999 V2000
  -30.7214  -14.4486   20.6152 C   0  0  0  0  0  0
  -30.4227  -12.3113   19.4108 C   0  0  0  0  0  0
  -29.4896  -12.5122   18.2003 C   0  0  0  0  0  0
  -28.0131  -12.3667   18.6177 C   0  0  0  0  0  0
  -27.6625  -13.2045   19.8760 C   0  0  2  0  0  0
  -28.7043  -12.9761   20.9935 C   0  0  0  0  0  0
  -25.2592  -13.8152   20.5679 C   0  0  0  0  0  0
  -24.1839  -13.0436   20.9171 C   0  0  0  0  0  0
  -24.6388  -11.6900   20.8732 C   0  0  0  0  0  0
  -23.9053  -10.4289   21.0402 C   0  0  0  0  0  0
  -24.3608   -9.4207   21.9180 C   0  0  0  0  0  0
  -23.6286   -8.2243   22.0753 C   0  0  0  0  0  0
  -22.4270   -8.0279   21.3542 C   0  0  0  0  0  0
  -21.9902   -9.0250   20.4644 C   0  0  0  0  0  0
  -22.7226  -10.2130   20.3051 C   0  0  0  0  0  0
  -21.6851   -6.0732   22.5278 C   0  0  0  0  0  0
  -21.4013   -6.5638   23.8210 C   0  0  0  0  0  0
  -21.3660   -5.6792   24.9173 C   0  0  0  0  0  0
  -21.6046   -4.3054   24.7225 C   0  0  0  0  0  0
  -21.8819   -3.8145   23.4346 C   0  0  0  0  0  0
  -21.9193   -4.6960   22.3402 C   0  0  0  0  0  0
  -22.7864  -13.5237   21.1842 C   0  0  0  0  0  0
  -22.1662   -4.2146   21.0979 F   0  0  0  0  0  0
  -21.5630   -3.4539   25.7738 F   0  0  0  0  0  0
  -30.0364  -13.2853   20.4432 N   0  0  0  0  0  0
  -26.3028  -12.9319   20.3373 N   0  0  0  0  0  0
  -25.9314  -11.6479   20.5763 N   0  0  0  0  0  0
  -22.0508  -12.8228   22.0400 N   0  0  0  0  0  0
  -25.4327  -15.1869   20.4094 N   0  0  0  0  0  0
  -31.8194  -14.6671   20.0963 O   0  0  0  0  0  0
  -21.6638   -6.8874   21.4239 O   0  0  0  0  0  0
  -22.3550  -14.5547   20.6697 O   0  0  0  0  0  0
  -24.6161  -31.8682   23.2110 C   0  0  0  0  0  0
  -25.9052  -32.4822   23.8405 C   0  0  1  0  0  0
  -27.2287  -27.4203   20.0905 C   0  0  0  0  0  0
  -25.5906  -33.8620   24.2333 N   0  0  0  0  0  0
  -23.4035  -30.4946   21.5528 C   0  0  2  0  0  0
  -24.8472  -28.9628   20.1146 C   0  0  0  0  0  0
  -22.7417  -29.4665   22.4992 C   0  0  0  0  0  0
  -18.0274  -28.1379   22.8496 C   0  0  0  0  0  0
  -24.1484  -36.7314   23.2640 C   0  0  0  0  0  0
  -25.9360  -30.8293   21.3671 C   0  0  0  0  0  0
  -26.0112  -29.4650   20.7095 C   0  0  0  0  0  0
  -27.2042  -28.7029   20.6912 C   0  0  0  0  0  0
  -26.0413  -26.9437   19.4838 C   0  0  0  0  0  0
  -24.8587  -27.7022   19.4990 C   0  0  0  0  0  0
  -23.6110  -29.8311   20.1664 C   0  0  0  0  0  0
  -25.4107  -36.3112   24.0337 C   0  0  1  0  0  0
  -20.5865  -28.3667   23.1316 C   0  0  2  0  0  0
  -20.6763  -26.9405   22.5417 C   0  0  0  0  0  0
  -19.5738  -26.6385   21.5218 C   0  0  0  0  0  0
  -18.1916  -26.7926   22.1626 C   0  0  0  0  0  0
  -19.1524  -28.8840   23.2900 C   0  0  0  0  0  0
  -18.9450  -30.1447   23.8910 C   0  0  0  0  0  0
  -17.6453  -30.6588   24.0567 C   0  0  0  0  0  0
  -25.9035  -34.9475   23.5131 C   0  0  0  0  0  0
  -16.5343  -29.9090   23.6330 C   0  0  0  0  0  0
  -16.7262  -28.6504   23.0355 C   0  0  0  0  0  0
  -26.4476  -31.6601   25.0735 C   0  0  0  0  0  0
  -25.3740  -31.3693   26.1482 C   0  0  0  0  0  0
  -27.0317  -30.3044   24.6120 C   0  0  0  0  0  0
  -27.6053  -32.4328   25.7489 C   0  0  0  0  0  0
  -27.5579  -37.1807   24.8468 C   0  0  0  0  0  0
  -21.4145  -29.3032   22.3722 N   0  0  0  0  0  0
  -26.4294  -37.3794   23.9408 N   0  0  0  0  0  0
  -24.6704  -31.0778   22.1017 N   0  0  0  0  0  0
  -23.4187  -28.8204   23.3034 O   0  0  0  0  0  0
  -28.3970  -26.6739   20.1145 O   0  0  0  0  0  0
  -26.5595  -34.8926   22.4692 O   0  0  0  0  0  0
  -23.5351  -32.1441   23.7499 O   0  0  0  0  0  0
  -30.6657  -22.2042   19.8780 C   0  0  0  0  0  0
  -30.6440  -20.8182   20.1558 C   0  0  0  0  0  0
  -28.5271  -21.0982   21.3069 C   0  0  0  0  0  0
  -29.6200  -23.0504   20.3097 C   0  0  0  0  0  0
  -28.5373  -22.4863   21.0274 C   0  0  0  0  0  0
  -29.5746  -20.2449   20.8844 C   0  0  0  0  0  0
  -29.6696  -24.5554   20.0124 C   0  0  0  0  0  0
  -27.6090  -24.7364   21.4266 C   0  0  0  0  0  0
  -28.2873  -25.2326   20.1299 C   0  0  1  0  0  0
  -30.3637  -17.8231   20.6861 C   0  0  0  0  0  0
  -30.6283  -16.7017   21.7247 C   0  0  0  0  0  0
  -27.4641  -23.2826   21.4584 N   0  0  0  0  0  0
  -29.5004  -18.8763   21.2299 N   0  0  0  0  0  0
  -30.0941  -15.3905   21.3384 N   0  0  0  0  0  0
  -31.4654  -12.4161   19.1060 H   0  0  0  0  0  0
  -30.3290  -11.2973   19.8021 H   0  0  0  0  0  0
  -29.7282  -11.7916   17.4167 H   0  0  0  0  0  0
  -29.6535  -13.5005   17.7672 H   0  0  0  0  0  0
  -27.8279  -11.3100   18.8144 H   0  0  0  0  0  0
  -27.3581  -12.6395   17.7893 H   0  0  0  0  0  0
  -27.7109  -14.2539   19.5843 H   0  0  0  0  0  0
  -28.6815  -11.9368   21.3250 H   0  0  0  0  0  0
  -28.4574  -13.5632   21.8788 H   0  0  0  0  0  0
  -25.2752   -9.5688   22.4754 H   0  0  0  0  0  0
  -23.9998   -7.4637   22.7473 H   0  0  0  0  0  0
  -21.0835   -8.8763   19.8951 H   0  0  0  0  0  0
  -22.3681  -10.9668   19.6163 H   0  0  0  0  0  0
  -21.2005   -7.6146   23.9711 H   0  0  0  0  0  0
  -21.1484   -6.0523   25.9076 H   0  0  0  0  0  0
  -22.0599   -2.7608   23.2847 H   0  0  0  0  0  0
  -22.4122  -11.9882   22.4776 H   0  0  0  0  0  0
  -21.1130  -13.1255   22.2618 H   0  0  0  0  0  0
  -24.6693  -15.8457   20.5174 H   0  0  0  0  0  0
  -26.2919  -15.6242   20.0999 H   0  0  0  0  0  0
  -26.7119  -32.5528   23.1166 H   0  0  0  0  0  0
  -25.0068  -33.9781   25.0487 H   0  0  0  0  0  0
  -22.6923  -31.3123   21.4164 H   0  0  0  0  0  0
  -23.3746  -35.9647   23.3317 H   0  0  0  0  0  0
  -24.3575  -36.8919   22.2053 H   0  0  0  0  0  0
  -23.7236  -37.6521   23.6651 H   0  0  0  0  0  0
  -26.0544  -31.5977   20.6016 H   0  0  0  0  0  0
  -26.8219  -30.8775   21.9889 H   0  0  0  0  0  0
  -28.1021  -29.0866   21.1554 H   0  0  0  0  0  0
  -25.9955  -25.9873   18.9878 H   0  0  0  0  0  0
  -23.9650  -27.3116   19.0314 H   0  0  0  0  0  0
  -23.7208  -30.6085   19.4094 H   0  0  0  0  0  0
  -22.7338  -29.2534   19.8692 H   0  0  0  0  0  0
  -25.1282  -36.1979   25.0831 H   0  0  0  0  0  0
  -20.9956  -28.3234   24.1436 H   0  0  0  0  0  0
  -20.5682  -26.2271   23.3599 H   0  0  0  0  0  0
  -21.6631  -26.7454   22.1199 H   0  0  0  0  0  0
  -19.6901  -25.6301   21.1233 H   0  0  0  0  0  0
  -19.6678  -27.3208   20.6759 H   0  0  0  0  0  0
  -17.4189  -26.6687   21.4024 H   0  0  0  0  0  0
  -18.0307  -26.0062   22.9014 H   0  0  0  0  0  0
  -19.7928  -30.7258   24.2283 H   0  0  0  0  0  0
  -17.5012  -31.6271   24.5164 H   0  0  0  0  0  0
  -15.5343  -30.2996   23.7651 H   0  0  0  0  0  0
  -15.8658  -28.0830   22.7066 H   0  0  0  0  0  0
  -24.5933  -30.7018   25.7818 H   0  0  0  0  0  0
  -24.8908  -32.2839   26.4928 H   0  0  0  0  0  0
  -25.8103  -30.8872   27.0240 H   0  0  0  0  0  0
  -26.2870  -29.6786   24.1189 H   0  0  0  0  0  0
  -27.4107  -29.7294   25.4579 H   0  0  0  0  0  0
  -27.8693  -30.4366   23.9267 H   0  0  0  0  0  0
  -27.2684  -33.3632   26.2073 H   0  0  0  0  0  0
  -28.3852  -32.6881   25.0302 H   0  0  0  0  0  0
  -28.0734  -31.8450   26.5395 H   0  0  0  0  0  0
  -28.2603  -38.0098   24.7518 H   0  0  0  0  0  0
  -28.1069  -36.2630   24.6297 H   0  0  0  0  0  0
  -27.2295  -37.1464   25.8871 H   0  0  0  0  0  0
  -20.9306  -29.8751   21.6939 H   0  0  0  0  0  0
  -26.0187  -38.2875   24.1411 H   0  0  0  0  0  0
  -31.5000  -22.6186   19.3295 H   0  0  0  0  0  0
  -31.4727  -20.2219   19.8051 H   0  0  0  0  0  0
  -27.6978  -20.6799   21.8598 H   0  0  0  0  0  0
  -30.0834  -24.7251   19.0182 H   0  0  0  0  0  0
  -30.3600  -25.0100   20.7226 H   0  0  0  0  0  0
  -26.6185  -25.1792   21.5371 H   0  0  0  0  0  0
  -28.1881  -25.0554   22.2946 H   0  0  0  0  0  0
  -27.7209  -24.8851   19.2675 H   0  0  0  0  0  0
  -29.9079  -17.4178   19.7812 H   0  0  0  0  0  0
  -31.3282  -18.2276   20.3824 H   0  0  0  0  0  0
  -30.2138  -16.9613   22.6999 H   0  0  0  0  0  0
  -31.7041  -16.6140   21.8907 H   0  0  0  0  0  0
  -26.7601  -22.8823   22.0739 H   0  0  0  0  0  0
  -28.6732  -18.5620   21.7314 H   0  0  0  0  0  0
  -29.1825  -15.1470   21.6961 H   0  0  0  0  0  0
  1 25  1  0  0  0
  1 30  2  0  0  0
  1 84  1  0  0  0
  2  3  1  0  0  0
  2 25  1  0  0  0
  2 85  1  0  0  0
  2 86  1  0  0  0
  3  4  1  0  0  0
  3 87  1  0  0  0
  3 88  1  0  0  0
  4  5  1  0  0  0
  4 89  1  0  0  0
  4 90  1  0  0  0
  5  6  1  0  0  0
  5 26  1  0  0  0
  5 91  1  0  0  0
  6 25  1  0  0  0
  6 92  1  0  0  0
  6 93  1  0  0  0
  7  8  2  0  0  0
  7 26  1  0  0  0
  7 29  1  0  0  0
  8  9  1  0  0  0
  8 22  1  0  0  0
  9 10  1  0  0  0
  9 27  2  0  0  0
 10 11  2  0  0  0
 10 15  1  0  0  0
 11 12  1  0  0  0
 11 94  1  0  0  0
 12 13  2  0  0  0
 12 95  1  0  0  0
 13 14  1  0  0  0
 13 31  1  0  0  0
 14 15  2  0  0  0
 14 96  1  0  0  0
 15 97  1  0  0  0
 16 17  2  0  0  0
 16 21  1  0  0  0
 16 31  1  0  0  0
 17 18  1  0  0  0
 17 98  1  0  0  0
 18 19  2  0  0  0
 18 99  1  0  0  0
 19 20  1  0  0  0
 19 24  1  0  0  0
 20 21  2  0  0  0
 20100  1  0  0  0
 21 23  1  0  0  0
 22 28  1  0  0  0
 22 32  2  0  0  0
 26 27  1  0  0  0
 28101  1  0  0  0
 28102  1  0  0  0
 29103  1  0  0  0
 29104  1  0  0  0
 33 34  1  0  0  0
 33 66  1  0  0  0
 33 70  2  0  0  0
 34 36  1  0  0  0
 34 59  1  0  0  0
 34105  1  0  0  0
 35 44  2  0  0  0
 35 45  1  0  0  0
 35 68  1  0  0  0
 36 56  1  0  0  0
 36106  1  0  0  0
 37 39  1  0  0  0
 37 47  1  0  0  0
 37 66  1  0  0  0
 37107  1  0  0  0
 38 43  2  0  0  0
 38 46  1  0  0  0
 38 47  1  0  0  0
 39 64  1  0  0  0
 39 67  2  0  0  0
 40 52  1  0  0  0
 40 53  2  0  0  0
 40 58  1  0  0  0
 41108  1  0  0  0
 41109  1  0  0  0
 41110  1  0  0  0
 41 48  1  0  0  0
 42 43  1  0  0  0
 42 66  1  0  0  0
 42111  1  0  0  0
 42112  1  0  0  0
 43 44  1  0  0  0
 44113  1  0  0  0
 45 46  2  0  0  0
 45114  1  0  0  0
 46115  1  0  0  0
 47116  1  0  0  0
 47117  1  0  0  0
 48 56  1  0  0  0
 48 65  1  0  0  0
 48118  1  0  0  0
 49 50  1  0  0  0
 49 53  1  0  0  0
 49 64  1  0  0  0
 49119  1  0  0  0
 50 51  1  0  0  0
 50120  1  0  0  0
 50121  1  0  0  0
 51 52  1  0  0  0
 51122  1  0  0  0
 51123  1  0  0  0
 52124  1  0  0  0
 52125  1  0  0  0
 53 54  1  0  0  0
 54 55  2  0  0  0
 54126  1  0  0  0
 55 57  1  0  0  0
 55127  1  0  0  0
 56 69  2  0  0  0
 57 58  2  0  0  0
 57128  1  0  0  0
 58129  1  0  0  0
 59 60  1  0  0  0
 59 61  1  0  0  0
 59 62  1  0  0  0
 60130  1  0  0  0
 60131  1  0  0  0
 60132  1  0  0  0
 61133  1  0  0  0
 61134  1  0  0  0
 61135  1  0  0  0
 62136  1  0  0  0
 62137  1  0  0  0
 62138  1  0  0  0
 63 65  1  0  0  0
 63139  1  0  0  0
 63140  1  0  0  0
 63141  1  0  0  0
 64142  1  0  0  0
 65143  1  0  0  0
 68 79  1  0  0  0
 71 72  2  0  0  0
 71 74  1  0  0  0
 71144  1  0  0  0
 72 76  1  0  0  0
 72145  1  0  0  0
 73 75  1  0  0  0
 73 76  2  0  0  0
 73146  1  0  0  0
 74 75  2  0  0  0
 74 77  1  0  0  0
 75 82  1  0  0  0
 76 83  1  0  0  0
 77 79  1  0  0  0
 77147  1  0  0  0
 77148  1  0  0  0
 78 79  1  0  0  0
 78 82  1  0  0  0
 78149  1  0  0  0
 78150  1  0  0  0
 79151  1  0  0  0
 80 81  1  0  0  0
 80 83  1  0  0  0
 80152  1  0  0  0
 80153  1  0  0  0
 81 84  1  0  0  0
 81154  1  0  0  0
 81155  1  0  0  0
 82156  1  0  0  0
 83157  1  0  0  0
 84158  1  0  0  0
M  ISO  4   1 100  68 101  79 101  84 100
M  END
> <chiral flag>
0

> <version>
0

> <s_m_source_file>
/data/baiqing/PycharmProjects/Reinvent-master-3.2/result/LINK_invent/BTK/process_docking_weight1_custom_sum_contain_oxygen_bond_distance_aromatic_linkinvent_7_9_3/rearranged_h_0131.sdf

> <i_m_source_file_index>
36

> <r_mmod_Potential_Energy-OPLS-2005>
-110.579391479492

> <r_mmod_Stretch_Energy-OPLS-2005>
39.4606819152832

> <r_mmod_Bend_Energy-OPLS-2005>
117.394058227539

> <r_mmod_Torsional_Energy-OPLS-2005>
192.367553710938

> <r_mmod_Improper_Torsional_Energy-OPLS-2005>
3.63075876235962

> <r_mmod_Van_der_Waal_Energy-OPLS-2005>
165.436737060547

> <r_mmod_Electrostatic_Energy-OPLS-2005>
-407.160400390625

> <r_mmod_Solvation_Energy-OPLS-2005>
-233.822402954102

> <b_mmod_Minimization_Converged-OPLS-2005>
0

> <r_mmod_RMS_Derivative-OPLS-2005>
0.572457373142242

$$$$
36
                    3D
 Structure written by MMmdl.
162171  0  0  1  0            999 V2000
  -30.6673  -14.6445   20.4782 C   0  0  0  0  0  0
  -30.4198  -12.3945   19.4627 C   0  0  0  0  0  0
  -29.4985  -12.5078   18.2295 C   0  0  0  0  0  0
  -28.0255  -12.3437   18.6465 C   0  0  0  0  0  0
  -27.6481  -13.2290   19.8648 C   0  0  2  0  0  0
  -28.6952  -13.1275   20.9971 C   0  0  0  0  0  0
  -25.2523  -13.8203   20.5697 C   0  0  0  0  0  0
  -24.1808  -13.0442   20.9196 C   0  0  0  0  0  0
  -24.6405  -11.6924   20.8767 C   0  0  0  0  0  0
  -23.9080  -10.4297   21.0420 C   0  0  0  0  0  0
  -24.3627   -9.4213   21.9196 C   0  0  0  0  0  0
  -23.6299   -8.2241   22.0764 C   0  0  0  0  0  0
  -22.4282   -8.0287   21.3547 C   0  0  0  0  0  0
  -21.9919   -9.0263   20.4655 C   0  0  0  0  0  0
  -22.7248  -10.2145   20.3072 C   0  0  0  0  0  0
  -21.6852   -6.0735   22.5280 C   0  0  0  0  0  0
  -21.4009   -6.5644   23.8209 C   0  0  0  0  0  0
  -21.3663   -5.6800   24.9176 C   0  0  0  0  0  0
  -21.6038   -4.3062   24.7227 C   0  0  0  0  0  0
  -21.8822   -3.8154   23.4354 C   0  0  0  0  0  0
  -21.9189   -4.6961   22.3406 C   0  0  0  0  0  0
  -22.7835  -13.5236   21.1846 C   0  0  0  0  0  0
  -22.1663   -4.2153   21.0980 F   0  0  0  0  0  0
  -21.5627   -3.4544   25.7744 F   0  0  0  0  0  0
  -30.0057  -13.4450   20.4167 N   0  0  0  0  0  0
  -26.2971  -12.9414   20.3376 N   0  0  0  0  0  0
  -25.9341  -11.6557   20.5811 N   0  0  0  0  0  0
  -22.0496  -12.8230   22.0422 N   0  0  0  0  0  0
  -25.4201  -15.1918   20.4075 N   0  0  0  0  0  0
  -31.8455  -14.7307   20.1261 O   0  0  0  0  0  0
  -21.6644   -6.8884   21.4247 O   0  0  0  0  0  0
  -22.3522  -14.5532   20.6687 O   0  0  0  0  0  0
  -24.6236  -31.8619   23.2048 C   0  0  0  0  0  0
  -25.9073  -32.4800   23.8380 C   0  0  1  0  0  0
  -27.2277  -27.3248   20.0931 C   0  0  0  0  0  0
  -25.5882  -33.8598   24.2297 N   0  0  0  0  0  0
  -23.4181  -30.4836   21.5516 C   0  0  2  0  0  0
  -24.8661  -28.9492   20.1086 C   0  0  0  0  0  0
  -22.7477  -29.4583   22.4966 C   0  0  0  0  0  0
  -18.0269  -28.1373   22.8499 C   0  0  0  0  0  0
  -24.1470  -36.7287   23.2646 C   0  0  0  0  0  0
  -25.9608  -30.7914   21.3786 C   0  0  0  0  0  0
  -26.0345  -29.4207   20.7175 C   0  0  0  0  0  0
  -27.2136  -28.6156   20.7097 C   0  0  0  0  0  0
  -26.0247  -26.9042   19.4761 C   0  0  0  0  0  0
  -24.8631  -27.6966   19.4818 C   0  0  0  0  0  0
  -23.6320  -29.8263   20.1645 C   0  0  0  0  0  0
  -25.4104  -36.3102   24.0334 C   0  0  1  0  0  0
  -20.5877  -28.3644   23.1319 C   0  0  2  0  0  0
  -20.6759  -26.9365   22.5441 C   0  0  0  0  0  0
  -19.5733  -26.6360   21.5243 C   0  0  0  0  0  0
  -18.1902  -26.7916   22.1646 C   0  0  0  0  0  0
  -19.1528  -28.8835   23.2895 C   0  0  0  0  0  0
  -18.9454  -30.1451   23.8882 C   0  0  0  0  0  0
  -17.6450  -30.6582   24.0554 C   0  0  0  0  0  0
  -25.9030  -34.9466   23.5121 C   0  0  0  0  0  0
  -16.5336  -29.9076   23.6334 C   0  0  0  0  0  0
  -16.7261  -28.6500   23.0345 C   0  0  0  0  0  0
  -26.4466  -31.6603   25.0737 C   0  0  0  0  0  0
  -25.3688  -31.3713   26.1449 C   0  0  0  0  0  0
  -27.0319  -30.3042   24.6178 C   0  0  0  0  0  0
  -27.6033  -32.4347   25.7495 C   0  0  0  0  0  0
  -27.5572  -37.1790   24.8469 C   0  0  0  0  0  0
  -21.4183  -29.2992   22.3717 N   0  0  0  0  0  0
  -26.4283  -37.3798   23.9411 N   0  0  0  0  0  0
  -24.6866  -31.0601   22.1025 N   0  0  0  0  0  0
  -23.4215  -28.8123   23.3027 O   0  0  0  0  0  0
  -28.3583  -26.4908   20.1606 O   0  0  0  0  0  0
  -26.5620  -34.8924   22.4699 O   0  0  0  0  0  0
  -23.5390  -32.1421   23.7356 O   0  0  0  0  0  0
  -30.2720  -23.4870   19.8291 C   0  0  0  0  0  0
  -30.6701  -22.1405   20.0594 C   0  0  0  0  0  0
  -28.3826  -21.4967   20.3623 C   0  0  0  0  0  0
  -27.9706  -22.8601   20.1652 C   0  0  0  0  0  0
  -28.9130  -23.8907   19.8423 C   0  0  0  0  0  0
  -29.7411  -21.0951   20.2997 C   0  0  0  0  0  0
  -24.4372  -22.6091   20.1607 C   0  0  0  0  0  0
  -25.5569  -22.7224   19.1212 C   0  0  0  0  0  0
  -25.5282  -22.5004   21.2339 C   0  0  0  0  0  0
  -26.4870  -23.1901   20.2453 C   0  0  0  0  0  0
  -28.5198  -25.3162   19.2797 C   0  0  0  0  0  0
  -29.5034  -18.4543   20.5512 C   0  0  0  0  0  0
  -30.4798  -17.1874   20.5299 C   0  0  0  0  0  0
  -30.2330  -19.7563   20.4668 N   0  0  0  0  0  0
  -29.9475  -15.7886   20.7185 N   0  0  0  0  0  0
  -31.4647  -12.4877   19.1618 H   0  0  0  0  0  0
  -30.3305  -11.4092   19.9225 H   0  0  0  0  0  0
  -29.7641  -11.7566   17.4847 H   0  0  0  0  0  0
  -29.6373  -13.4787   17.7506 H   0  0  0  0  0  0
  -27.8688  -11.2925   18.8917 H   0  0  0  0  0  0
  -27.3657  -12.5618   17.8055 H   0  0  0  0  0  0
  -27.6552  -14.2578   19.5052 H   0  0  0  0  0  0
  -28.7055  -12.1252   21.4270 H   0  0  0  0  0  0
  -28.4506  -13.8072   21.8149 H   0  0  0  0  0  0
  -25.2770   -9.5680   22.4770 H   0  0  0  0  0  0
  -24.0005   -7.4640   22.7489 H   0  0  0  0  0  0
  -21.0843   -8.8786   19.8968 H   0  0  0  0  0  0
  -22.3705  -10.9685   19.6184 H   0  0  0  0  0  0
  -21.2007   -7.6151   23.9714 H   0  0  0  0  0  0
  -21.1478   -6.0532   25.9077 H   0  0  0  0  0  0
  -22.0595   -2.7614   23.2853 H   0  0  0  0  0  0
  -22.4124  -11.9888   22.4793 H   0  0  0  0  0  0
  -21.1131  -13.1272   22.2669 H   0  0  0  0  0  0
  -24.6459  -15.8413   20.4910 H   0  0  0  0  0  0
  -26.2667  -15.6299   20.0678 H   0  0  0  0  0  0
  -26.7129  -32.5486   23.1121 H   0  0  0  0  0  0
  -24.9969  -33.9754   25.0402 H   0  0  0  0  0  0
  -22.7102  -31.3031   21.4125 H   0  0  0  0  0  0
  -23.3750  -35.9600   23.3327 H   0  0  0  0  0  0
  -24.3539  -36.8912   22.2056 H   0  0  0  0  0  0
  -23.7213  -37.6484   23.6666 H   0  0  0  0  0  0
  -26.0847  -31.5568   20.6117 H   0  0  0  0  0  0
  -26.8440  -30.8461   22.0032 H   0  0  0  0  0  0
  -28.1098  -28.9703   21.1987 H   0  0  0  0  0  0
  -25.9168  -25.9427   19.0045 H   0  0  0  0  0  0
  -23.9643  -27.3274   19.0067 H   0  0  0  0  0  0
  -23.7435  -30.6070   19.4114 H   0  0  0  0  0  0
  -22.7556  -29.2506   19.8636 H   0  0  0  0  0  0
  -25.1285  -36.1958   25.0826 H   0  0  0  0  0  0
  -20.9950  -28.3204   24.1451 H   0  0  0  0  0  0
  -20.5679  -26.2226   23.3620 H   0  0  0  0  0  0
  -21.6616  -26.7394   22.1216 H   0  0  0  0  0  0
  -19.6869  -25.6273   21.1260 H   0  0  0  0  0  0
  -19.6685  -27.3178   20.6774 H   0  0  0  0  0  0
  -17.4174  -26.6670   21.4033 H   0  0  0  0  0  0
  -18.0277  -26.0064   22.9044 H   0  0  0  0  0  0
  -19.7922  -30.7281   24.2237 H   0  0  0  0  0  0
  -17.4994  -31.6263   24.5154 H   0  0  0  0  0  0
  -15.5335  -30.2968   23.7674 H   0  0  0  0  0  0
  -15.8655  -28.0834   22.7044 H   0  0  0  0  0  0
  -24.5903  -30.7023   25.7763 H   0  0  0  0  0  0
  -24.8798  -32.2843   26.4839 H   0  0  0  0  0  0
  -25.7996  -30.8922   27.0245 H   0  0  0  0  0  0
  -26.2905  -29.6800   24.1175 H   0  0  0  0  0  0
  -27.4017  -29.7288   25.4670 H   0  0  0  0  0  0
  -27.8762  -30.4364   23.9413 H   0  0  0  0  0  0
  -27.2683  -33.3695   26.2004 H   0  0  0  0  0  0
  -28.3856  -32.6839   25.0312 H   0  0  0  0  0  0
  -28.0669  -31.8505   26.5455 H   0  0  0  0  0  0
  -28.2590  -38.0086   24.7539 H   0  0  0  0  0  0
  -28.1077  -36.2620   24.6291 H   0  0  0  0  0  0
  -27.2272  -37.1442   25.8867 H   0  0  0  0  0  0
  -20.9352  -29.8745   21.6965 H   0  0  0  0  0  0
  -26.0173  -38.2870   24.1456 H   0  0  0  0  0  0
  -31.0334  -24.2142   19.5844 H   0  0  0  0  0  0
  -31.7261  -21.9159   20.0093 H   0  0  0  0  0  0
  -27.6398  -20.7355   20.5457 H   0  0  0  0  0  0
  -23.8073  -21.7246   20.0568 H   0  0  0  0  0  0
  -23.8471  -23.5232   20.2477 H   0  0  0  0  0  0
  -25.3983  -23.4530   18.3284 H   0  0  0  0  0  0
  -25.8425  -21.7503   18.7162 H   0  0  0  0  0  0
  -25.7726  -21.4618   21.4601 H   0  0  0  0  0  0
  -25.3260  -23.0641   22.1460 H   0  0  0  0  0  0
  -26.3726  -24.2618   20.4046 H   0  0  0  0  0  0
  -27.7195  -25.1781   18.5587 H   0  0  0  0  0  0
  -29.3440  -25.6062   18.6263 H   0  0  0  0  0  0
  -28.9120  -18.4521   21.4688 H   0  0  0  0  0  0
  -28.7928  -18.3878   19.7244 H   0  0  0  0  0  0
  -31.2467  -17.3323   21.2924 H   0  0  0  0  0  0
  -31.0135  -17.1975   19.5771 H   0  0  0  0  0  0
  -31.2461  -19.6695   20.4991 H   0  0  0  0  0  0
  -28.9850  -15.6844   21.0035 H   0  0  0  0  0  0
  1 25  1  0  0  0
  1 30  2  0  0  0
  1 85  1  0  0  0
  2  3  1  0  0  0
  2 25  1  0  0  0
  2 86  1  0  0  0
  2 87  1  0  0  0
  3  4  1  0  0  0
  3 88  1  0  0  0
  3 89  1  0  0  0
  4  5  1  0  0  0
  4 90  1  0  0  0
  4 91  1  0  0  0
  5  6  1  0  0  0
  5 26  1  0  0  0
  5 92  1  0  0  0
  6 25  1  0  0  0
  6 93  1  0  0  0
  6 94  1  0  0  0
  7  8  2  0  0  0
  7 26  1  0  0  0
  7 29  1  0  0  0
  8  9  1  0  0  0
  8 22  1  0  0  0
  9 10  1  0  0  0
  9 27  2  0  0  0
 10 11  2  0  0  0
 10 15  1  0  0  0
 11 12  1  0  0  0
 11 95  1  0  0  0
 12 13  2  0  0  0
 12 96  1  0  0  0
 13 14  1  0  0  0
 13 31  1  0  0  0
 14 15  2  0  0  0
 14 97  1  0  0  0
 15 98  1  0  0  0
 16 17  2  0  0  0
 16 21  1  0  0  0
 16 31  1  0  0  0
 17 18  1  0  0  0
 17 99  1  0  0  0
 18 19  2  0  0  0
 18100  1  0  0  0
 19 20  1  0  0  0
 19 24  1  0  0  0
 20 21  2  0  0  0
 20101  1  0  0  0
 21 23  1  0  0  0
 22 28  1  0  0  0
 22 32  2  0  0  0
 26 27  1  0  0  0
 28102  1  0  0  0
 28103  1  0  0  0
 29104  1  0  0  0
 29105  1  0  0  0
 33 34  1  0  0  0
 33 66  1  0  0  0
 33 70  2  0  0  0
 34 36  1  0  0  0
 34 59  1  0  0  0
 34106  1  0  0  0
 35 44  2  0  0  0
 35 45  1  0  0  0
 35 68  1  0  0  0
 36 56  1  0  0  0
 36107  1  0  0  0
 37 39  1  0  0  0
 37 47  1  0  0  0
 37 66  1  0  0  0
 37108  1  0  0  0
 38 43  2  0  0  0
 38 46  1  0  0  0
 38 47  1  0  0  0
 39 64  1  0  0  0
 39 67  2  0  0  0
 40 52  1  0  0  0
 40 53  2  0  0  0
 40 58  1  0  0  0
 41109  1  0  0  0
 41110  1  0  0  0
 41111  1  0  0  0
 41 48  1  0  0  0
 42 43  1  0  0  0
 42 66  1  0  0  0
 42112  1  0  0  0
 42113  1  0  0  0
 43 44  1  0  0  0
 44114  1  0  0  0
 45 46  2  0  0  0
 45115  1  0  0  0
 46116  1  0  0  0
 47117  1  0  0  0
 47118  1  0  0  0
 48 56  1  0  0  0
 48 65  1  0  0  0
 48119  1  0  0  0
 49 50  1  0  0  0
 49 53  1  0  0  0
 49 64  1  0  0  0
 49120  1  0  0  0
 50 51  1  0  0  0
 50121  1  0  0  0
 50122  1  0  0  0
 51 52  1  0  0  0
 51123  1  0  0  0
 51124  1  0  0  0
 52125  1  0  0  0
 52126  1  0  0  0
 53 54  1  0  0  0
 54 55  2  0  0  0
 54127  1  0  0  0
 55 57  1  0  0  0
 55128  1  0  0  0
 56 69  2  0  0  0
 57 58  2  0  0  0
 57129  1  0  0  0
 58130  1  0  0  0
 59 60  1  0  0  0
 59 61  1  0  0  0
 59 62  1  0  0  0
 60131  1  0  0  0
 60132  1  0  0  0
 60133  1  0  0  0
 61134  1  0  0  0
 61135  1  0  0  0
 61136  1  0  0  0
 62137  1  0  0  0
 62138  1  0  0  0
 62139  1  0  0  0
 63 65  1  0  0  0
 63140  1  0  0  0
 63141  1  0  0  0
 63142  1  0  0  0
 64143  1  0  0  0
 65144  1  0  0  0
 68 81  1  0  0  0
 71 72  2  0  0  0
 71 75  1  0  0  0
 71145  1  0  0  0
 72 76  1  0  0  0
 72146  1  0  0  0
 73 74  1  0  0  0
 73 76  2  0  0  0
 73147  1  0  0  0
 74 75  2  0  0  0
 74 80  1  0  0  0
 75 81  1  0  0  0
 76 84  1  0  0  0
 77 78  1  0  0  0
 77 79  1  0  0  0
 77148  1  0  0  0
 77149  1  0  0  0
 78 80  1  0  0  0
 78150  1  0  0  0
 78151  1  0  0  0
 79 80  1  0  0  0
 79152  1  0  0  0
 79153  1  0  0  0
 80154  1  0  0  0
 81155  1  0  0  0
 81156  1  0  0  0
 82 83  1  0  0  0
 82 84  1  0  0  0
 82157  1  0  0  0
 82158  1  0  0  0
 83 85  1  0  0  0
 83159  1  0  0  0
 83160  1  0  0  0
 84161  1  0  0  0
 85162  1  0  0  0
M  ISO  4   1 100  68 101  81 101  85 100
M  END
> <chiral flag>
0

> <version>
0

> <s_m_source_file>
/data/baiqing/PycharmProjects/Reinvent-master-3.2/result/LINK_invent/BTK/process_docking_weight1_custom_sum_contain_oxygen_bond_distance_aromatic_linkinvent_7_9_3/rearranged_h_0131.sdf

> <i_m_source_file_index>
37

> <r_mmod_Potential_Energy-OPLS-2005>
55.5559577941895

> <r_mmod_Stretch_Energy-OPLS-2005>
80.0179672241211

> <r_mmod_Bend_Energy-OPLS-2005>
182.352645874023

> <r_mmod_Torsional_Energy-OPLS-2005>
232.572143554688

> <r_mmod_Improper_Torsional_Energy-OPLS-2005>
6.4875864982605

> <r_mmod_Van_der_Waal_Energy-OPLS-2005>
142.56103515625

> <r_mmod_Electrostatic_Energy-OPLS-2005>
-416.650482177734

> <r_mmod_Solvation_Energy-OPLS-2005>
-221.470809936523

> <b_mmod_Minimization_Converged-OPLS-2005>
0

> <r_mmod_RMS_Derivative-OPLS-2005>
2.34314489364624

$$$$
37
                    3D
 Structure written by MMmdl.
165174  0  0  1  0            999 V2000
  -30.6967  -14.6356   20.4803 C   0  0  0  0  0  0
  -30.4133  -12.3981   19.4415 C   0  0  0  0  0  0
  -29.4801  -12.4825   18.2139 C   0  0  0  0  0  0
  -28.0221  -12.2941   18.6646 C   0  0  0  0  0  0
  -27.6450  -13.2164   19.8533 C   0  0  2  0  0  0
  -28.6975  -13.1603   20.9832 C   0  0  0  0  0  0
  -25.2560  -13.8158   20.5712 C   0  0  0  0  0  0
  -24.1830  -13.0436   20.9189 C   0  0  0  0  0  0
  -24.6379  -11.6895   20.8767 C   0  0  0  0  0  0
  -23.9054  -10.4293   21.0410 C   0  0  0  0  0  0
  -24.3588   -9.4223   21.9214 C   0  0  0  0  0  0
  -23.6262   -8.2250   22.0798 C   0  0  0  0  0  0
  -22.4282   -8.0250   21.3527 C   0  0  0  0  0  0
  -21.9911   -9.0229   20.4656 C   0  0  0  0  0  0
  -22.7219  -10.2121   20.3070 C   0  0  0  0  0  0
  -21.6858   -6.0705   22.5257 C   0  0  0  0  0  0
  -21.4024   -6.5618   23.8174 C   0  0  0  0  0  0
  -21.3681   -5.6801   24.9151 C   0  0  0  0  0  0
  -21.6054   -4.3059   24.7237 C   0  0  0  0  0  0
  -21.8809   -3.8127   23.4351 C   0  0  0  0  0  0
  -21.9194   -4.6927   22.3388 C   0  0  0  0  0  0
  -22.7873  -13.5244   21.1807 C   0  0  0  0  0  0
  -22.1665   -4.2088   21.0977 F   0  0  0  0  0  0
  -21.5642   -3.4578   25.7775 F   0  0  0  0  0  0
  -30.0061  -13.4559   20.3883 N   0  0  0  0  0  0
  -26.2985  -12.9331   20.3365 N   0  0  0  0  0  0
  -25.9316  -11.6495   20.5822 N   0  0  0  0  0  0
  -22.0509  -12.8222   22.0356 N   0  0  0  0  0  0
  -25.4258  -15.1875   20.4063 N   0  0  0  0  0  0
  -31.8812  -14.7051   20.1491 O   0  0  0  0  0  0
  -21.6654   -6.8847   21.4213 O   0  0  0  0  0  0
  -22.3585  -14.5560   20.6684 O   0  0  0  0  0  0
  -24.6264  -31.8624   23.1973 C   0  0  0  0  0  0
  -25.9107  -32.4764   23.8302 C   0  0  1  0  0  0
  -27.2011  -27.3321   20.0871 C   0  0  0  0  0  0
  -25.5923  -33.8587   24.2200 N   0  0  0  0  0  0
  -23.4106  -30.4853   21.5466 C   0  0  2  0  0  0
  -24.8536  -28.9533   20.1013 C   0  0  0  0  0  0
  -22.7446  -29.4659   22.4975 C   0  0  0  0  0  0
  -18.0267  -28.1362   22.8514 C   0  0  0  0  0  0
  -24.1485  -36.7313   23.2655 C   0  0  0  0  0  0
  -25.9547  -30.7920   21.3647 C   0  0  0  0  0  0
  -26.0261  -29.4219   20.7069 C   0  0  0  0  0  0
  -27.2081  -28.6208   20.6981 C   0  0  0  0  0  0
  -26.0206  -26.9493   19.4065 C   0  0  0  0  0  0
  -24.8522  -27.7230   19.4413 C   0  0  0  0  0  0
  -23.6108  -29.8158   20.1623 C   0  0  0  0  0  0
  -25.4108  -36.3053   24.0333 C   0  0  1  0  0  0
  -20.5855  -28.3670   23.1262 C   0  0  2  0  0  0
  -20.6726  -26.9404   22.5330 C   0  0  0  0  0  0
  -19.5656  -26.6372   21.5174 C   0  0  0  0  0  0
  -18.1847  -26.7921   22.1612 C   0  0  0  0  0  0
  -19.1518  -28.8846   23.2845 C   0  0  0  0  0  0
  -18.9458  -30.1450   23.8848 C   0  0  0  0  0  0
  -17.6467  -30.6585   24.0577 C   0  0  0  0  0  0
  -25.9065  -34.9441   23.5041 C   0  0  0  0  0  0
  -16.5355  -29.9071   23.6390 C   0  0  0  0  0  0
  -16.7262  -28.6470   23.0446 C   0  0  0  0  0  0
  -26.4512  -31.6633   25.0688 C   0  0  0  0  0  0
  -25.3732  -31.3632   26.1379 C   0  0  0  0  0  0
  -27.0583  -30.3157   24.6156 C   0  0  0  0  0  0
  -27.5928  -32.4534   25.7512 C   0  0  0  0  0  0
  -27.5555  -37.1790   24.8493 C   0  0  0  0  0  0
  -21.4164  -29.3063   22.3736 N   0  0  0  0  0  0
  -26.4281  -37.3738   23.9422 N   0  0  0  0  0  0
  -24.6832  -31.0639   22.0908 N   0  0  0  0  0  0
  -23.4191  -28.8178   23.3011 O   0  0  0  0  0  0
  -28.2465  -26.3983   20.2113 O   0  0  0  0  0  0
  -26.5618  -34.8925   22.4615 O   0  0  0  0  0  0
  -23.5441  -32.1494   23.7263 O   0  0  0  0  0  0
  -28.5059  -22.8088   19.5291 C   0  0  0  0  0  0
  -29.0022  -21.4753   19.6383 C   0  0  0  0  0  0
  -28.6657  -23.7611   20.5692 C   0  0  0  0  0  0
  -29.3938  -23.3405   21.7092 C   0  0  0  0  0  0
  -29.9116  -22.0040   21.8237 C   0  0  0  0  0  0
  -29.7039  -21.0317   20.7919 C   0  0  0  0  0  0
  -29.5231  -24.3672   22.8302 C   0  0  0  0  0  0
  -27.1592  -25.1270   22.0662 C   0  0  0  0  0  0
  -27.7789  -25.0523   20.6478 C   0  0  1  0  0  0
  -28.1762  -25.0111   23.2290 C   0  0  1  0  0  0
  -30.6478  -21.6125   23.1063 C   0  0  0  0  0  0
  -27.5355  -24.2725   24.4239 C   0  0  0  0  0  0
  -29.7061  -18.4248   20.3859 C   0  0  0  0  0  0
  -30.5784  -17.1692   20.8395 C   0  0  0  0  0  0
  -30.2197  -19.7037   20.9473 N   0  0  0  0  0  0
  -30.0016  -15.7828   20.7466 N   0  0  0  0  0  0
  -31.4562  -12.4867   19.1320 H   0  0  0  0  0  0
  -30.3188  -11.4211   19.9159 H   0  0  0  0  0  0
  -29.7374  -11.7142   17.4858 H   0  0  0  0  0  0
  -29.5925  -13.4402   17.7024 H   0  0  0  0  0  0
  -27.9147  -11.2545   18.9693 H   0  0  0  0  0  0
  -27.3315  -12.4396   17.8317 H   0  0  0  0  0  0
  -27.6427  -14.2294   19.4541 H   0  0  0  0  0  0
  -28.7228  -12.1842   21.4638 H   0  0  0  0  0  0
  -28.4525  -13.8797   21.7666 H   0  0  0  0  0  0
  -25.2699   -9.5729   22.4811 H   0  0  0  0  0  0
  -23.9966   -7.4682   22.7569 H   0  0  0  0  0  0
  -21.0833   -8.8716   19.8963 H   0  0  0  0  0  0
  -22.3630  -10.9658   19.6192 H   0  0  0  0  0  0
  -21.2013   -7.6132   23.9625 H   0  0  0  0  0  0
  -21.1534   -6.0574   25.9041 H   0  0  0  0  0  0
  -22.0566   -2.7590   23.2892 H   0  0  0  0  0  0
  -22.4151  -11.9846   22.4685 H   0  0  0  0  0  0
  -21.1155  -13.1239   22.2604 H   0  0  0  0  0  0
  -24.6433  -15.8312   20.4727 H   0  0  0  0  0  0
  -26.2626  -15.6227   20.0454 H   0  0  0  0  0  0
  -26.7162  -32.5439   23.1022 H   0  0  0  0  0  0
  -25.0184  -33.9747   25.0432 H   0  0  0  0  0  0
  -22.7020  -31.3050   21.4023 H   0  0  0  0  0  0
  -23.3745  -35.9641   23.3271 H   0  0  0  0  0  0
  -24.3566  -36.9046   22.2078 H   0  0  0  0  0  0
  -23.7287  -37.6500   23.6784 H   0  0  0  0  0  0
  -26.0900  -31.5561   20.5949 H   0  0  0  0  0  0
  -26.8320  -30.8357   21.9981 H   0  0  0  0  0  0
  -28.1001  -28.9609   21.2042 H   0  0  0  0  0  0
  -25.9609  -26.0320   18.8382 H   0  0  0  0  0  0
  -23.9600  -27.3756   18.9354 H   0  0  0  0  0  0
  -23.6875  -30.5840   19.3909 H   0  0  0  0  0  0
  -22.7318  -29.2235   19.8905 H   0  0  0  0  0  0
  -25.1280  -36.1836   25.0825 H   0  0  0  0  0  0
  -20.9929  -28.3232   24.1394 H   0  0  0  0  0  0
  -20.5617  -26.2301   23.3536 H   0  0  0  0  0  0
  -21.6586  -26.7423   22.1123 H   0  0  0  0  0  0
  -19.6781  -25.6260   21.1250 H   0  0  0  0  0  0
  -19.6534  -27.3144   20.6659 H   0  0  0  0  0  0
  -17.4100  -26.6760   21.4013 H   0  0  0  0  0  0
  -18.0200  -26.0003   22.8918 H   0  0  0  0  0  0
  -19.7950  -30.7272   24.2153 H   0  0  0  0  0  0
  -17.5057  -31.6284   24.5111 H   0  0  0  0  0  0
  -15.5344  -30.2964   23.7736 H   0  0  0  0  0  0
  -15.8681  -28.0772   22.7217 H   0  0  0  0  0  0
  -24.5781  -30.7186   25.7593 H   0  0  0  0  0  0
  -24.9058  -32.2765   26.5068 H   0  0  0  0  0  0
  -25.8021  -30.8521   27.0005 H   0  0  0  0  0  0
  -26.3291  -29.6702   24.1262 H   0  0  0  0  0  0
  -27.4563  -29.7551   25.4622 H   0  0  0  0  0  0
  -27.8931  -30.4630   23.9290 H   0  0  0  0  0  0
  -27.2407  -33.3896   26.1864 H   0  0  0  0  0  0
  -28.3816  -32.7078   25.0410 H   0  0  0  0  0  0
  -28.0521  -31.8876   26.5631 H   0  0  0  0  0  0
  -28.2466  -38.0159   24.7622 H   0  0  0  0  0  0
  -28.1145  -36.2699   24.6254 H   0  0  0  0  0  0
  -27.2264  -37.1369   25.8878 H   0  0  0  0  0  0
  -20.9322  -29.8933   21.7099 H   0  0  0  0  0  0
  -26.0144  -38.2804   24.1400 H   0  0  0  0  0  0
  -27.9286  -23.0738   18.6540 H   0  0  0  0  0  0
  -28.8225  -20.7931   18.8213 H   0  0  0  0  0  0
  -30.1802  -25.1523   22.4457 H   0  0  0  0  0  0
  -30.0346  -23.9971   23.7162 H   0  0  0  0  0  0
  -26.4515  -24.2991   22.1346 H   0  0  0  0  0  0
  -26.5409  -26.0123   22.2097 H   0  0  0  0  0  0
  -26.9664  -24.7469   19.9999 H   0  0  0  0  0  0
  -28.4095  -26.0210   23.5670 H   0  0  0  0  0  0
  -31.4849  -22.2883   23.2824 H   0  0  0  0  0  0
  -31.0592  -20.6064   23.1021 H   0  0  0  0  0  0
  -29.9757  -21.6685   23.9646 H   0  0  0  0  0  0
  -27.2762  -23.2436   24.1615 H   0  0  0  0  0  0
  -26.6134  -24.7572   24.7504 H   0  0  0  0  0  0
  -28.2059  -24.2294   25.2850 H   0  0  0  0  0  0
  -28.6694  -18.3047   20.7071 H   0  0  0  0  0  0
  -29.6842  -18.4915   19.2940 H   0  0  0  0  0  0
  -30.8528  -17.2971   21.8904 H   0  0  0  0  0  0
  -31.5255  -17.2073   20.2982 H   0  0  0  0  0  0
  -30.8128  -19.5740   21.7609 H   0  0  0  0  0  0
  -29.0203  -15.6857   20.9524 H   0  0  0  0  0  0
  1 25  1  0  0  0
  1 30  2  0  0  0
  1 86  1  0  0  0
  2  3  1  0  0  0
  2 25  1  0  0  0
  2 87  1  0  0  0
  2 88  1  0  0  0
  3  4  1  0  0  0
  3 89  1  0  0  0
  3 90  1  0  0  0
  4  5  1  0  0  0
  4 91  1  0  0  0
  4 92  1  0  0  0
  5  6  1  0  0  0
  5 26  1  0  0  0
  5 93  1  0  0  0
  6 25  1  0  0  0
  6 94  1  0  0  0
  6 95  1  0  0  0
  7  8  2  0  0  0
  7 26  1  0  0  0
  7 29  1  0  0  0
  8  9  1  0  0  0
  8 22  1  0  0  0
  9 10  1  0  0  0
  9 27  2  0  0  0
 10 11  2  0  0  0
 10 15  1  0  0  0
 11 12  1  0  0  0
 11 96  1  0  0  0
 12 13  2  0  0  0
 12 97  1  0  0  0
 13 14  1  0  0  0
 13 31  1  0  0  0
 14 15  2  0  0  0
 14 98  1  0  0  0
 15 99  1  0  0  0
 16 17  2  0  0  0
 16 21  1  0  0  0
 16 31  1  0  0  0
 17 18  1  0  0  0
 17100  1  0  0  0
 18 19  2  0  0  0
 18101  1  0  0  0
 19 20  1  0  0  0
 19 24  1  0  0  0
 20 21  2  0  0  0
 20102  1  0  0  0
 21 23  1  0  0  0
 22 28  1  0  0  0
 22 32  2  0  0  0
 26 27  1  0  0  0
 28103  1  0  0  0
 28104  1  0  0  0
 29105  1  0  0  0
 29106  1  0  0  0
 33 34  1  0  0  0
 33 66  1  0  0  0
 33 70  2  0  0  0
 34 36  1  0  0  0
 34 59  1  0  0  0
 34107  1  0  0  0
 35 44  2  0  0  0
 35 45  1  0  0  0
 35 68  1  0  0  0
 36 56  1  0  0  0
 36108  1  0  0  0
 37 39  1  0  0  0
 37 47  1  0  0  0
 37 66  1  0  0  0
 37109  1  0  0  0
 38 43  2  0  0  0
 38 46  1  0  0  0
 38 47  1  0  0  0
 39 64  1  0  0  0
 39 67  2  0  0  0
 40 52  1  0  0  0
 40 53  2  0  0  0
 40 58  1  0  0  0
 41110  1  0  0  0
 41111  1  0  0  0
 41112  1  0  0  0
 41 48  1  0  0  0
 42 43  1  0  0  0
 42 66  1  0  0  0
 42113  1  0  0  0
 42114  1  0  0  0
 43 44  1  0  0  0
 44115  1  0  0  0
 45 46  2  0  0  0
 45116  1  0  0  0
 46117  1  0  0  0
 47118  1  0  0  0
 47119  1  0  0  0
 48 56  1  0  0  0
 48 65  1  0  0  0
 48120  1  0  0  0
 49 50  1  0  0  0
 49 53  1  0  0  0
 49 64  1  0  0  0
 49121  1  0  0  0
 50 51  1  0  0  0
 50122  1  0  0  0
 50123  1  0  0  0
 51 52  1  0  0  0
 51124  1  0  0  0
 51125  1  0  0  0
 52126  1  0  0  0
 52127  1  0  0  0
 53 54  1  0  0  0
 54 55  2  0  0  0
 54128  1  0  0  0
 55 57  1  0  0  0
 55129  1  0  0  0
 56 69  2  0  0  0
 57 58  2  0  0  0
 57130  1  0  0  0
 58131  1  0  0  0
 59 60  1  0  0  0
 59 61  1  0  0  0
 59 62  1  0  0  0
 60132  1  0  0  0
 60133  1  0  0  0
 60134  1  0  0  0
 61135  1  0  0  0
 61136  1  0  0  0
 61137  1  0  0  0
 62138  1  0  0  0
 62139  1  0  0  0
 62140  1  0  0  0
 63 65  1  0  0  0
 63141  1  0  0  0
 63142  1  0  0  0
 63143  1  0  0  0
 64144  1  0  0  0
 65145  1  0  0  0
 68 79  1  0  0  0
 71 72  2  0  0  0
 71 73  1  0  0  0
 71146  1  0  0  0
 72 76  1  0  0  0
 72147  1  0  0  0
 73 74  2  0  0  0
 73 79  1  0  0  0
 74 75  1  0  0  0
 74 77  1  0  0  0
 75 76  2  0  0  0
 75 81  1  0  0  0
 76 85  1  0  0  0
 77 80  1  0  0  0
 77148  1  0  0  0
 77149  1  0  0  0
 78 79  1  0  0  0
 78 80  1  0  0  0
 78150  1  0  0  0
 78151  1  0  0  0
 79152  1  0  0  0
 80 82  1  0  0  0
 80153  1  0  0  0
 81154  1  0  0  0
 81155  1  0  0  0
 81156  1  0  0  0
 82157  1  0  0  0
 82158  1  0  0  0
 82159  1  0  0  0
 83 84  1  0  0  0
 83 85  1  0  0  0
 83160  1  0  0  0
 83161  1  0  0  0
 84 86  1  0  0  0
 84162  1  0  0  0
 84163  1  0  0  0
 85164  1  0  0  0
 86165  1  0  0  0
M  ISO  4   1 100  68 101  79 101  86 100
M  END
> <chiral flag>
0

> <version>
0

> <s_m_source_file>
/data/baiqing/PycharmProjects/Reinvent-master-3.2/result/LINK_invent/BTK/process_docking_weight1_custom_sum_contain_oxygen_bond_distance_aromatic_linkinvent_7_9_3/rearranged_h_0131.sdf

> <i_m_source_file_index>
38

> <r_mmod_Potential_Energy-OPLS-2005>
71.2390670776367

> <r_mmod_Stretch_Energy-OPLS-2005>
77.8462829589844

> <r_mmod_Bend_Energy-OPLS-2005>
158.928787231445

> <r_mmod_Torsional_Energy-OPLS-2005>
250.292861938477

> <r_mmod_Improper_Torsional_Energy-OPLS-2005>
8.91018199920654

> <r_mmod_Van_der_Waal_Energy-OPLS-2005>
167.79328918457

> <r_mmod_Electrostatic_Energy-OPLS-2005>
-439.317016601562

> <r_mmod_Solvation_Energy-OPLS-2005>
-215.571395874023

> <b_mmod_Minimization_Converged-OPLS-2005>
0

> <r_mmod_RMS_Derivative-OPLS-2005>
6.28150463104248

$$$$
38
                    3D
 Structure written by MMmdl.
178187  0  0  1  0            999 V2000
  -30.7564  -14.3409   20.7624 C   0  0  0  0  0  0
  -30.4273  -12.3035   19.3941 C   0  0  0  0  0  0
  -29.4909  -12.5342   18.1923 C   0  0  0  0  0  0
  -28.0135  -12.3828   18.6023 C   0  0  0  0  0  0
  -27.6673  -13.1992   19.8768 C   0  0  2  0  0  0
  -28.6938  -12.9141   20.9915 C   0  0  0  0  0  0
  -25.2628  -13.8157   20.5668 C   0  0  0  0  0  0
  -24.1848  -13.0435   20.9155 C   0  0  0  0  0  0
  -24.6391  -11.6910   20.8700 C   0  0  0  0  0  0
  -23.9057  -10.4286   21.0387 C   0  0  0  0  0  0
  -24.3618   -9.4216   21.9162 C   0  0  0  0  0  0
  -23.6288   -8.2255   22.0741 C   0  0  0  0  0  0
  -22.4272   -8.0281   21.3541 C   0  0  0  0  0  0
  -21.9907   -9.0253   20.4647 C   0  0  0  0  0  0
  -22.7232  -10.2126   20.3040 C   0  0  0  0  0  0
  -21.6856   -6.0736   22.5284 C   0  0  0  0  0  0
  -21.4016   -6.5635   23.8214 C   0  0  0  0  0  0
  -21.3651   -5.6783   24.9176 C   0  0  0  0  0  0
  -21.6040   -4.3047   24.7236 C   0  0  0  0  0  0
  -21.8806   -3.8141   23.4352 C   0  0  0  0  0  0
  -21.9199   -4.6960   22.3415 C   0  0  0  0  0  0
  -22.7873  -13.5244   21.1839 C   0  0  0  0  0  0
  -22.1650   -4.2141   21.0994 F   0  0  0  0  0  0
  -21.5637   -3.4538   25.7747 F   0  0  0  0  0  0
  -30.0439  -13.2199   20.4758 N   0  0  0  0  0  0
  -26.3029  -12.9314   20.3291 N   0  0  0  0  0  0
  -25.9299  -11.6473   20.5656 N   0  0  0  0  0  0
  -22.0524  -12.8235   22.0426 N   0  0  0  0  0  0
  -25.4413  -15.1865   20.4192 N   0  0  0  0  0  0
  -31.7461  -14.7065   20.1161 O   0  0  0  0  0  0
  -21.6633   -6.8881   21.4244 O   0  0  0  0  0  0
  -22.3560  -14.5561   20.6722 O   0  0  0  0  0  0
  -24.6062  -31.8742   23.2147 C   0  0  0  0  0  0
  -25.8986  -32.4848   23.8414 C   0  0  1  0  0  0
  -27.2489  -27.4791   20.0940 C   0  0  0  0  0  0
  -25.5841  -33.8651   24.2347 N   0  0  0  0  0  0
  -23.3928  -30.4994   21.5494 C   0  0  2  0  0  0
  -24.8411  -28.9641   20.1278 C   0  0  0  0  0  0
  -22.7305  -29.4769   22.4988 C   0  0  0  0  0  0
  -18.0280  -28.1271   22.8591 C   0  0  0  0  0  0
  -24.1458  -36.7330   23.2648 C   0  0  0  0  0  0
  -25.9147  -30.8610   21.3501 C   0  0  0  0  0  0
  -25.9978  -29.4947   20.7052 C   0  0  0  0  0  0
  -27.2018  -28.7612   20.6820 C   0  0  0  0  0  0
  -26.0605  -26.9398   19.5445 C   0  0  0  0  0  0
  -24.8640  -27.6834   19.5573 C   0  0  0  0  0  0
  -23.5971  -29.8219   20.1702 C   0  0  0  0  0  0
  -25.4080  -36.3132   24.0345 C   0  0  1  0  0  0
  -20.5834  -28.3683   23.1333 C   0  0  2  0  0  0
  -20.6765  -26.9351   22.5589 C   0  0  0  0  0  0
  -19.5772  -26.6219   21.5394 C   0  0  0  0  0  0
  -18.1951  -26.7781   22.1813 C   0  0  0  0  0  0
  -19.1514  -28.8815   23.2929 C   0  0  0  0  0  0
  -18.9443  -30.1428   23.8870 C   0  0  0  0  0  0
  -17.6448  -30.6531   24.0565 C   0  0  0  0  0  0
  -25.9023  -34.9498   23.5149 C   0  0  0  0  0  0
  -16.5358  -29.8958   23.6386 C   0  0  0  0  0  0
  -16.7267  -28.6370   23.0476 C   0  0  0  0  0  0
  -26.4455  -31.6601   25.0704 C   0  0  0  0  0  0
  -25.3728  -31.3682   26.1452 C   0  0  0  0  0  0
  -27.0243  -30.3022   24.6045 C   0  0  0  0  0  0
  -27.6039  -32.4315   25.7487 C   0  0  0  0  0  0
  -27.5558  -37.1821   24.8479 C   0  0  0  0  0  0
  -21.4036  -29.3090   22.3718 N   0  0  0  0  0  0
  -26.4268  -37.3816   23.9452 N   0  0  0  0  0  0
  -24.6556  -31.0901   22.0993 N   0  0  0  0  0  0
  -23.4093  -28.8302   23.3020 O   0  0  0  0  0  0
  -28.4787  -26.8559   20.0585 O   0  0  0  0  0  0
  -26.5618  -34.8969   22.4725 O   0  0  0  0  0  0
  -23.5268  -32.1486   23.7594 O   0  0  0  0  0  0
  -28.5596  -18.7511   20.8223 C   0  0  0  0  0  0
  -29.3479  -17.6168   21.0848 C   0  0  0  0  0  0
  -28.9450  -19.5110   23.0974 C   0  0  0  0  0  0
  -28.3613  -19.7132   21.8299 C   0  0  0  0  0  0
  -29.9658  -17.4124   22.3407 C   0  0  0  0  0  0
  -29.7632  -18.3891   23.3649 C   0  0  0  0  0  0
  -27.4552  -24.9791   23.1265 C   0  0  0  0  0  0
  -28.7650  -25.3811   22.4505 C   0  0  0  0  0  0
  -26.8102  -23.9344   22.2117 C   0  0  0  0  0  0
  -28.8101  -24.6285   21.1002 C   0  0  2  0  0  0
  -27.5703  -20.9825   21.5488 C   0  0  0  0  0  0
  -30.4168  -18.3345   24.7469 C   0  0  0  0  0  0
  -30.8625  -16.1738   22.5048 C   0  0  0  0  0  0
  -28.6084  -25.4606   19.8054 C   0  0  0  0  0  0
  -31.3303  -19.5521   25.0003 C   0  0  0  0  0  0
  -28.4988  -22.2165   21.4818 C   0  0  0  0  0  0
  -32.3688  -19.3469   26.1173 C   0  0  0  0  0  0
  -30.3272  -14.9762   21.8609 N   0  0  0  0  0  0
  -27.8256  -23.5163   21.2108 N   0  3  1  0  0  0
  -33.1642  -20.5652   26.3505 N   0  3  0  0  0  0
  -31.4701  -12.4277   19.0964 H   0  0  0  0  0  0
  -30.3486  -11.2724   19.7455 H   0  0  0  0  0  0
  -29.7324  -11.8381   17.3861 H   0  0  0  0  0  0
  -29.6556  -13.5335   17.7869 H   0  0  0  0  0  0
  -27.8227  -11.3218   18.7755 H   0  0  0  0  0  0
  -27.3640  -12.6742   17.7756 H   0  0  0  0  0  0
  -27.7341  -14.2557   19.6165 H   0  0  0  0  0  0
  -28.6545  -11.8600   21.2705 H   0  0  0  0  0  0
  -28.4128  -13.4533   21.8961 H   0  0  0  0  0  0
  -25.2771   -9.5678   22.4729 H   0  0  0  0  0  0
  -23.9987   -7.4659   22.7467 H   0  0  0  0  0  0
  -21.0826   -8.8776   19.8985 H   0  0  0  0  0  0
  -22.3687  -10.9657   19.6139 H   0  0  0  0  0  0
  -21.1986   -7.6133   23.9721 H   0  0  0  0  0  0
  -21.1486   -6.0512   25.9080 H   0  0  0  0  0  0
  -22.0597   -2.7608   23.2866 H   0  0  0  0  0  0
  -22.4139  -11.9878   22.4773 H   0  0  0  0  0  0
  -21.1153  -13.1284   22.2645 H   0  0  0  0  0  0
  -24.6921  -15.8544   20.5640 H   0  0  0  0  0  0
  -26.3132  -15.6268   20.1529 H   0  0  0  0  0  0
  -26.7059  -32.5611   23.1210 H   0  0  0  0  0  0
  -24.9935  -33.9857   25.0434 H   0  0  0  0  0  0
  -22.6817  -31.3150   21.4025 H   0  0  0  0  0  0
  -23.3726  -35.9656   23.3309 H   0  0  0  0  0  0
  -24.3575  -36.8931   22.2070 H   0  0  0  0  0  0
  -23.7196  -37.6532   23.6650 H   0  0  0  0  0  0
  -26.0080  -31.6263   20.5790 H   0  0  0  0  0  0
  -26.8075  -30.9245   21.9620 H   0  0  0  0  0  0
  -28.0983  -29.1888   21.1120 H   0  0  0  0  0  0
  -26.0177  -25.9624   19.0949 H   0  0  0  0  0  0
  -23.9593  -27.2657   19.1396 H   0  0  0  0  0  0
  -23.7052  -30.5975   19.4094 H   0  0  0  0  0  0
  -22.7216  -29.2377   19.8735 H   0  0  0  0  0  0
  -25.1242  -36.1999   25.0825 H   0  0  0  0  0  0
  -20.9937  -28.3357   24.1435 H   0  0  0  0  0  0
  -20.5565  -26.2338   23.3864 H   0  0  0  0  0  0
  -21.6658  -26.7321   22.1477 H   0  0  0  0  0  0
  -19.7012  -25.6139   21.1439 H   0  0  0  0  0  0
  -19.6718  -27.2967   20.6889 H   0  0  0  0  0  0
  -17.4204  -26.6417   21.4254 H   0  0  0  0  0  0
  -18.0344  -25.9974   22.9264 H   0  0  0  0  0  0
  -19.7930  -30.7230   24.2192 H   0  0  0  0  0  0
  -17.5004  -31.6213   24.5169 H   0  0  0  0  0  0
  -15.5337  -30.2776   23.7721 H   0  0  0  0  0  0
  -15.8663  -28.0611   22.7367 H   0  0  0  0  0  0
  -24.5941  -30.6977   25.7806 H   0  0  0  0  0  0
  -24.8895  -32.2836   26.4900 H   0  0  0  0  0  0
  -25.8122  -30.8881   27.0217 H   0  0  0  0  0  0
  -26.2749  -29.6840   24.1077 H   0  0  0  0  0  0
  -27.3923  -29.7205   25.4511 H   0  0  0  0  0  0
  -27.8628  -30.4318   23.9213 H   0  0  0  0  0  0
  -27.2650  -33.3623   26.2053 H   0  0  0  0  0  0
  -28.3860  -32.6863   25.0306 H   0  0  0  0  0  0
  -28.0678  -31.8436   26.5416 H   0  0  0  0  0  0
  -28.2597  -38.0099   24.7506 H   0  0  0  0  0  0
  -28.1003  -36.2633   24.6267 H   0  0  0  0  0  0
  -27.2315  -37.1445   25.8894 H   0  0  0  0  0  0
  -20.9114  -29.8847   21.7070 H   0  0  0  0  0  0
  -26.0134  -38.2893   24.1441 H   0  0  0  0  0  0
  -28.1272  -18.8849   19.8395 H   0  0  0  0  0  0
  -29.4987  -16.9090   20.2839 H   0  0  0  0  0  0
  -28.7994  -20.2560   23.8702 H   0  0  0  0  0  0
  -26.7937  -25.8346   23.2725 H   0  0  0  0  0  0
  -27.6627  -24.5548   24.1088 H   0  0  0  0  0  0
  -29.5943  -25.0486   23.0753 H   0  0  0  0  0  0
  -28.8784  -26.4610   22.3701 H   0  0  0  0  0  0
  -26.3774  -23.1223   22.7920 H   0  0  0  0  0  0
  -25.9798  -24.3934   21.6720 H   0  0  0  0  0  0
  -29.8155  -24.2152   21.0018 H   0  0  0  0  0  0
  -26.8198  -21.0810   22.3294 H   0  0  0  0  0  0
  -27.0188  -20.8719   20.6141 H   0  0  0  0  0  0
  -30.9720  -17.4187   24.9114 H   0  0  0  0  0  0
  -29.6270  -18.3251   25.4995 H   0  0  0  0  0  0
  -30.9892  -15.8943   23.5473 H   0  0  0  0  0  0
  -31.8611  -16.4102   22.1328 H   0  0  0  0  0  0
  -27.8504  -25.0438   19.1491 H   0  0  0  0  0  0
  -29.5218  -25.3675   19.2161 H   0  0  0  0  0  0
  -30.7020  -20.4140   25.2293 H   0  0  0  0  0  0
  -31.8699  -19.7955   24.0843 H   0  0  0  0  0  0
  -29.2220  -22.0414   20.6814 H   0  0  0  0  0  0
  -29.0815  -22.3056   22.3992 H   0  0  0  0  0  0
  -33.0544  -18.5428   25.8444 H   0  0  0  0  0  0
  -31.8840  -19.0504   27.0503 H   0  0  0  0  0  0
  -29.5394  -14.5477   22.3210 H   0  0  0  0  0  0
  -27.3533  -23.4187   20.3221 H   0  0  0  0  0  0
  -33.6126  -20.8619   25.5026 H   0  0  0  0  0  0
  -33.8805  -20.3908   27.0335 H   0  0  0  0  0  0
  -32.5819  -21.3124   26.6854 H   0  0  0  0  0  0
  1 25  1  0  0  0
  1 30  2  0  0  0
  1 88  1  0  0  0
  2  3  1  0  0  0
  2 25  1  0  0  0
  2 91  1  0  0  0
  2 92  1  0  0  0
  3  4  1  0  0  0
  3 93  1  0  0  0
  3 94  1  0  0  0
  4  5  1  0  0  0
  4 95  1  0  0  0
  4 96  1  0  0  0
  5  6  1  0  0  0
  5 26  1  0  0  0
  5 97  1  0  0  0
  6 25  1  0  0  0
  6 98  1  0  0  0
  6 99  1  0  0  0
  7  8  2  0  0  0
  7 26  1  0  0  0
  7 29  1  0  0  0
  8  9  1  0  0  0
  8 22  1  0  0  0
  9 10  1  0  0  0
  9 27  2  0  0  0
 10 11  2  0  0  0
 10 15  1  0  0  0
 11 12  1  0  0  0
 11100  1  0  0  0
 12 13  2  0  0  0
 12101  1  0  0  0
 13 14  1  0  0  0
 13 31  1  0  0  0
 14 15  2  0  0  0
 14102  1  0  0  0
 15103  1  0  0  0
 16 17  2  0  0  0
 16 21  1  0  0  0
 16 31  1  0  0  0
 17 18  1  0  0  0
 17104  1  0  0  0
 18 19  2  0  0  0
 18105  1  0  0  0
 19 20  1  0  0  0
 19 24  1  0  0  0
 20 21  2  0  0  0
 20106  1  0  0  0
 21 23  1  0  0  0
 22 28  1  0  0  0
 22 32  2  0  0  0
 26 27  1  0  0  0
 28107  1  0  0  0
 28108  1  0  0  0
 29109  1  0  0  0
 29110  1  0  0  0
 33 34  1  0  0  0
 33 66  1  0  0  0
 33 70  2  0  0  0
 34 36  1  0  0  0
 34 59  1  0  0  0
 34111  1  0  0  0
 35 44  2  0  0  0
 35 45  1  0  0  0
 35 68  1  0  0  0
 36 56  1  0  0  0
 36112  1  0  0  0
 37 39  1  0  0  0
 37 47  1  0  0  0
 37 66  1  0  0  0
 37113  1  0  0  0
 38 43  2  0  0  0
 38 46  1  0  0  0
 38 47  1  0  0  0
 39 64  1  0  0  0
 39 67  2  0  0  0
 40 52  1  0  0  0
 40 53  2  0  0  0
 40 58  1  0  0  0
 41114  1  0  0  0
 41115  1  0  0  0
 41116  1  0  0  0
 41 48  1  0  0  0
 42 43  1  0  0  0
 42 66  1  0  0  0
 42117  1  0  0  0
 42118  1  0  0  0
 43 44  1  0  0  0
 44119  1  0  0  0
 45 46  2  0  0  0
 45120  1  0  0  0
 46121  1  0  0  0
 47122  1  0  0  0
 47123  1  0  0  0
 48 56  1  0  0  0
 48 65  1  0  0  0
 48124  1  0  0  0
 49 50  1  0  0  0
 49 53  1  0  0  0
 49 64  1  0  0  0
 49125  1  0  0  0
 50 51  1  0  0  0
 50126  1  0  0  0
 50127  1  0  0  0
 51 52  1  0  0  0
 51128  1  0  0  0
 51129  1  0  0  0
 52130  1  0  0  0
 52131  1  0  0  0
 53 54  1  0  0  0
 54 55  2  0  0  0
 54132  1  0  0  0
 55 57  1  0  0  0
 55133  1  0  0  0
 56 69  2  0  0  0
 57 58  2  0  0  0
 57134  1  0  0  0
 58135  1  0  0  0
 59 60  1  0  0  0
 59 61  1  0  0  0
 59 62  1  0  0  0
 60136  1  0  0  0
 60137  1  0  0  0
 60138  1  0  0  0
 61139  1  0  0  0
 61140  1  0  0  0
 61141  1  0  0  0
 62142  1  0  0  0
 62143  1  0  0  0
 62144  1  0  0  0
 63 65  1  0  0  0
 63145  1  0  0  0
 63146  1  0  0  0
 63147  1  0  0  0
 64148  1  0  0  0
 65149  1  0  0  0
 68 84  1  0  0  0
 71 72  2  0  0  0
 71 74  1  0  0  0
 71150  1  0  0  0
 72 75  1  0  0  0
 72151  1  0  0  0
 73 74  2  0  0  0
 73 76  1  0  0  0
 73152  1  0  0  0
 74 81  1  0  0  0
 75 76  2  0  0  0
 75 83  1  0  0  0
 76 82  1  0  0  0
 77 78  1  0  0  0
 77 79  1  0  0  0
 77153  1  0  0  0
 77154  1  0  0  0
 78 80  1  0  0  0
 78155  1  0  0  0
 78156  1  0  0  0
 79 89  1  0  0  0
 79157  1  0  0  0
 79158  1  0  0  0
 80 84  1  0  0  0
 80 89  1  0  0  0
 80159  1  0  0  0
 81 86  1  0  0  0
 81160  1  0  0  0
 81161  1  0  0  0
 82 85  1  0  0  0
 82162  1  0  0  0
 82163  1  0  0  0
 83 88  1  0  0  0
 83164  1  0  0  0
 83165  1  0  0  0
 84166  1  0  0  0
 84167  1  0  0  0
 85 87  1  0  0  0
 85168  1  0  0  0
 85169  1  0  0  0
 86170  1  0  0  0
 86171  1  0  0  0
 86 89  1  0  0  0
 87 90  1  0  0  0
 87172  1  0  0  0
 87173  1  0  0  0
 88174  1  0  0  0
 89175  1  0  0  0
 90176  1  0  0  0
 90177  1  0  0  0
 90178  1  0  0  0
M  CHG  2  89   1  90   1
M  ISO  4   1 100  68 101  84 101  88 100
M  END
> <chiral flag>
0

> <version>
0

> <s_m_source_file>
/data/baiqing/PycharmProjects/Reinvent-master-3.2/result/LINK_invent/BTK/process_docking_weight1_custom_sum_contain_oxygen_bond_distance_aromatic_linkinvent_7_9_3/rearranged_h_0131.sdf

> <i_m_source_file_index>
39

> <r_mmod_Potential_Energy-OPLS-2005>
-310.648773193359

> <r_mmod_Stretch_Energy-OPLS-2005>
37.5182113647461

> <r_mmod_Bend_Energy-OPLS-2005>
135.128952026367

> <r_mmod_Torsional_Energy-OPLS-2005>
293.123748779297

> <r_mmod_Improper_Torsional_Energy-OPLS-2005>
2.13843274116516

> <r_mmod_Van_der_Waal_Energy-OPLS-2005>
154.08821105957

> <r_mmod_Electrostatic_Energy-OPLS-2005>
-50.0473518371582

> <r_mmod_Solvation_Energy-OPLS-2005>
-893.213012695312

> <b_mmod_Minimization_Converged-OPLS-2005>
0

> <r_mmod_RMS_Derivative-OPLS-2005>
5.83116006851196

$$$$
39
                    3D
 Structure written by MMmdl.
165174  0  0  1  0            999 V2000
  -30.5568  -15.1288   20.4114 C   0  0  0  0  0  0
  -30.4248  -12.7260   19.5084 C   0  0  0  0  0  0
  -29.5220  -12.5549   18.2668 C   0  0  0  0  0  0
  -28.0657  -12.3060   18.6966 C   0  0  0  0  0  0
  -27.6132  -13.2723   19.8237 C   0  0  2  0  0  0
  -28.6563  -13.4270   20.9521 C   0  0  0  0  0  0
  -25.2413  -13.8256   20.5777 C   0  0  0  0  0  0
  -24.1748  -13.0443   20.9250 C   0  0  0  0  0  0
  -24.6391  -11.6937   20.8757 C   0  0  0  0  0  0
  -23.9080  -10.4296   21.0401 C   0  0  0  0  0  0
  -24.3630   -9.4207   21.9180 C   0  0  0  0  0  0
  -23.6311   -8.2235   22.0745 C   0  0  0  0  0  0
  -22.4295   -8.0279   21.3540 C   0  0  0  0  0  0
  -21.9926   -9.0243   20.4637 C   0  0  0  0  0  0
  -22.7249  -10.2130   20.3047 C   0  0  0  0  0  0
  -21.6853   -6.0736   22.5281 C   0  0  0  0  0  0
  -21.4012   -6.5642   23.8214 C   0  0  0  0  0  0
  -21.3665   -5.6793   24.9182 C   0  0  0  0  0  0
  -21.6047   -4.3052   24.7225 C   0  0  0  0  0  0
  -21.8822   -3.8143   23.4345 C   0  0  0  0  0  0
  -21.9191   -4.6964   22.3404 C   0  0  0  0  0  0
  -22.7768  -13.5204   21.1894 C   0  0  0  0  0  0
  -22.1660   -4.2147   21.0977 F   0  0  0  0  0  0
  -21.5632   -3.4536   25.7735 F   0  0  0  0  0  0
  -29.8966  -13.8849   20.3109 N   0  0  0  0  0  0
  -26.2836  -12.9527   20.3265 N   0  0  0  0  0  0
  -25.9333  -11.6625   20.5743 N   0  0  0  0  0  0
  -22.0425  -12.8197   22.0459 N   0  0  0  0  0  0
  -25.4077  -15.1993   20.4242 N   0  0  0  0  0  0
  -31.7799  -15.0321   20.2304 O   0  0  0  0  0  0
  -21.6651   -6.8881   21.4244 O   0  0  0  0  0  0
  -22.3445  -14.5497   20.6729 O   0  0  0  0  0  0
  -24.6553  -31.8329   23.1795 C   0  0  0  0  0  0
  -25.9276  -32.4631   23.8219 C   0  0  1  0  0  0
  -27.2091  -27.0087   20.1821 C   0  0  0  0  0  0
  -25.5991  -33.8445   24.2137 N   0  0  0  0  0  0
  -23.4648  -30.4494   21.5273 C   0  0  2  0  0  0
  -24.9164  -28.8543   20.1156 C   0  0  0  0  0  0
  -22.7627  -29.4491   22.4816 C   0  0  0  0  0  0
  -18.0313  -28.1398   22.8471 C   0  0  0  0  0  0
  -24.1489  -36.7216   23.2644 C   0  0  0  0  0  0
  -26.0300  -30.6663   21.3992 C   0  0  0  0  0  0
  -26.0992  -29.2648   20.7441 C   0  0  0  0  0  0
  -27.2467  -28.3626   20.7538 C   0  0  0  0  0  0
  -26.0028  -26.7393   19.4971 C   0  0  0  0  0  0
  -24.8886  -27.6093   19.4712 C   0  0  0  0  0  0
  -23.7003  -29.7739   20.1504 C   0  0  0  0  0  0
  -25.4127  -36.2992   24.0309 C   0  0  1  0  0  0
  -20.5935  -28.3739   23.1207 C   0  0  2  0  0  0
  -20.6793  -26.9426   22.5405 C   0  0  0  0  0  0
  -19.5774  -26.6368   21.5212 C   0  0  0  0  0  0
  -18.1953  -26.7930   22.1613 C   0  0  0  0  0  0
  -19.1574  -28.8886   23.2827 C   0  0  0  0  0  0
  -18.9486  -30.1479   23.8859 C   0  0  0  0  0  0
  -17.6484  -30.6590   24.0552 C   0  0  0  0  0  0
  -25.9092  -34.9372   23.5034 C   0  0  0  0  0  0
  -16.5370  -29.9083   23.6344 C   0  0  0  0  0  0
  -16.7296  -28.6500   23.0365 C   0  0  0  0  0  0
  -26.4557  -31.6547   25.0713 C   0  0  0  0  0  0
  -25.3713  -31.3776   26.1389 C   0  0  0  0  0  0
  -27.0445  -30.2923   24.6395 C   0  0  0  0  0  0
  -27.6063  -32.4343   25.7509 C   0  0  0  0  0  0
  -27.5573  -37.1762   24.8459 C   0  0  0  0  0  0
  -21.4300  -29.3045   22.3561 N   0  0  0  0  0  0
  -26.4272  -37.3730   23.9423 N   0  0  0  0  0  0
  -24.7373  -31.0068   22.0894 N   0  0  0  0  0  0
  -23.4215  -28.8046   23.3012 O   0  0  0  0  0  0
  -28.2141  -25.9324   20.2180 O   0  0  0  0  0  0
  -26.5679  -34.8890   22.4613 O   0  0  0  0  0  0
  -23.5639  -32.1252   23.6953 O   0  0  0  0  0  0
  -28.8504  -20.2332   20.6097 C   0  0  0  0  0  0
  -29.6545  -20.1963   19.4612 C   0  0  0  0  0  0
  -28.3405  -21.5883   21.0167 C   0  0  0  0  0  0
  -29.9116  -21.4711   18.8350 C   0  0  0  0  0  0
  -28.6047  -22.8793   20.3016 C   0  0  0  0  0  0
  -28.4183  -18.7631   21.1675 C   0  0  0  0  0  0
  -30.0230  -18.7861   18.8158 C   0  0  0  0  0  0
  -29.3278  -17.3672   21.3922 C   0  0  0  0  0  0
  -30.7397  -17.5711   19.5979 C   0  0  0  0  0  0
  -30.7392  -21.5327   17.5645 C   0  0  0  0  0  0
  -25.1121  -21.3386   23.1986 C   0  0  0  0  0  0
  -27.4542  -21.6484   22.2524 C   0  0  0  0  0  0
  -27.8307  -24.4000   20.5413 C   0  0  0  0  0  0
  -25.9713  -21.4129   21.9317 C   0  0  0  0  0  0
  -29.4253  -22.7083   19.2255 N   0  0  0  0  0  0
  -29.9500  -16.4709   20.2959 N   0  0  0  0  0  0
  -31.4539  -12.8819   19.1817 H   0  0  0  0  0  0
  -30.4433  -11.8127   20.1039 H   0  0  0  0  0  0
  -29.8806  -11.7350   17.6430 H   0  0  0  0  0  0
  -29.5753  -13.4560   17.6538 H   0  0  0  0  0  0
  -28.0020  -11.2759   19.0495 H   0  0  0  0  0  0
  -27.3950  -12.3765   17.8386 H   0  0  0  0  0  0
  -27.5354  -14.2484   19.3421 H   0  0  0  0  0  0
  -28.8037  -12.4945   21.4984 H   0  0  0  0  0  0
  -28.3220  -14.1685   21.6790 H   0  0  0  0  0  0
  -25.2770   -9.5696   22.4755 H   0  0  0  0  0  0
  -24.0025   -7.4625   22.7468 H   0  0  0  0  0  0
  -21.0850   -8.8744   19.8949 H   0  0  0  0  0  0
  -22.3689  -10.9658   19.6150 H   0  0  0  0  0  0
  -21.2005   -7.6148   23.9726 H   0  0  0  0  0  0
  -21.1491   -6.0518   25.9088 H   0  0  0  0  0  0
  -22.0602   -2.7606   23.2840 H   0  0  0  0  0  0
  -22.4053  -11.9860   22.4843 H   0  0  0  0  0  0
  -21.1023  -13.1184   22.2638 H   0  0  0  0  0  0
  -24.6417  -15.8533   20.5454 H   0  0  0  0  0  0
  -26.2631  -15.6436   20.1180 H   0  0  0  0  0  0
  -26.7335  -32.5192   23.0929 H   0  0  0  0  0  0
  -25.0135  -33.9541   25.0282 H   0  0  0  0  0  0
  -22.7740  -31.2790   21.3652 H   0  0  0  0  0  0
  -23.3776  -35.9521   23.3259 H   0  0  0  0  0  0
  -24.3575  -36.8900   22.2067 H   0  0  0  0  0  0
  -23.7208  -37.6379   23.6715 H   0  0  0  0  0  0
  -26.2017  -31.4133   20.6232 H   0  0  0  0  0  0
  -26.8939  -30.7191   22.0500 H   0  0  0  0  0  0
  -28.1447  -28.6770   21.2658 H   0  0  0  0  0  0
  -25.8893  -25.7999   18.9773 H   0  0  0  0  0  0
  -23.9930  -27.2945   18.9531 H   0  0  0  0  0  0
  -23.8503  -30.5465   19.3954 H   0  0  0  0  0  0
  -22.8113  -29.2258   19.8331 H   0  0  0  0  0  0
  -25.1318  -36.1792   25.0800 H   0  0  0  0  0  0
  -21.0021  -28.3329   24.1331 H   0  0  0  0  0  0
  -20.5670  -26.2353   23.3638 H   0  0  0  0  0  0
  -21.6660  -26.7408   22.1212 H   0  0  0  0  0  0
  -19.6934  -25.6268   21.1274 H   0  0  0  0  0  0
  -19.6721  -27.3148   20.6721 H   0  0  0  0  0  0
  -17.4226  -26.6680   21.4012 H   0  0  0  0  0  0
  -18.0345  -26.0079   22.9017 H   0  0  0  0  0  0
  -19.7962  -30.7299   24.2213 H   0  0  0  0  0  0
  -17.5036  -31.6272   24.5152 H   0  0  0  0  0  0
  -15.5369  -30.2974   23.7691 H   0  0  0  0  0  0
  -15.8691  -28.0800   22.7117 H   0  0  0  0  0  0
  -24.5903  -30.7114   25.7704 H   0  0  0  0  0  0
  -24.8898  -32.2974   26.4721 H   0  0  0  0  0  0
  -25.7974  -30.9007   27.0227 H   0  0  0  0  0  0
  -26.3099  -29.6617   24.1378 H   0  0  0  0  0  0
  -27.3973  -29.7262   25.5025 H   0  0  0  0  0  0
  -27.9038  -30.4113   23.9795 H   0  0  0  0  0  0
  -27.2635  -33.3676   26.1988 H   0  0  0  0  0  0
  -28.3930  -32.6860   25.0382 H   0  0  0  0  0  0
  -28.0671  -31.8540   26.5513 H   0  0  0  0  0  0
  -28.2553  -38.0097   24.7557 H   0  0  0  0  0  0
  -28.1113  -36.2633   24.6221 H   0  0  0  0  0  0
  -27.2303  -37.1310   25.8863 H   0  0  0  0  0  0
  -20.9529  -29.8752   21.6717 H   0  0  0  0  0  0
  -26.0120  -38.2779   24.1481 H   0  0  0  0  0  0
  -27.5681  -18.4756   20.5480 H   0  0  0  0  0  0
  -27.9693  -18.9392   22.1422 H   0  0  0  0  0  0
  -30.6917  -18.9970   17.9831 H   0  0  0  0  0  0
  -29.1224  -18.4044   18.3345 H   0  0  0  0  0  0
  -28.6775  -16.6865   21.9431 H   0  0  0  0  0  0
  -30.1197  -17.6061   22.1047 H   0  0  0  0  0  0
  -31.5107  -17.9658   20.2629 H   0  0  0  0  0  0
  -31.3121  -17.0616   18.8209 H   0  0  0  0  0  0
  -31.7426  -21.1488   17.7480 H   0  0  0  0  0  0
  -30.8359  -22.5527   17.1912 H   0  0  0  0  0  0
  -30.2763  -20.9386   16.7765 H   0  0  0  0  0  0
  -24.0624  -21.1737   22.9532 H   0  0  0  0  0  0
  -25.1784  -22.2618   23.7749 H   0  0  0  0  0  0
  -25.4308  -20.5194   23.8452 H   0  0  0  0  0  0
  -27.5800  -22.6033   22.7603 H   0  0  0  0  0  0
  -27.8053  -20.9190   22.9829 H   0  0  0  0  0  0
  -27.6208  -24.4445   21.6086 H   0  0  0  0  0  0
  -26.8514  -24.2313   20.0984 H   0  0  0  0  0  0
  -25.5989  -22.2090   21.2856 H   0  0  0  0  0  0
  -25.8575  -20.4834   21.3726 H   0  0  0  0  0  0
  1 25  1  0  0  0
  1 30  2  0  0  0
  1 86  1  0  0  0
  2  3  1  0  0  0
  2 25  1  0  0  0
  2 87  1  0  0  0
  2 88  1  0  0  0
  3  4  1  0  0  0
  3 89  1  0  0  0
  3 90  1  0  0  0
  4  5  1  0  0  0
  4 91  1  0  0  0
  4 92  1  0  0  0
  5  6  1  0  0  0
  5 26  1  0  0  0
  5 93  1  0  0  0
  6 25  1  0  0  0
  6 94  1  0  0  0
  6 95  1  0  0  0
  7  8  2  0  0  0
  7 26  1  0  0  0
  7 29  1  0  0  0
  8  9  1  0  0  0
  8 22  1  0  0  0
  9 10  1  0  0  0
  9 27  2  0  0  0
 10 11  2  0  0  0
 10 15  1  0  0  0
 11 12  1  0  0  0
 11 96  1  0  0  0
 12 13  2  0  0  0
 12 97  1  0  0  0
 13 14  1  0  0  0
 13 31  1  0  0  0
 14 15  2  0  0  0
 14 98  1  0  0  0
 15 99  1  0  0  0
 16 17  2  0  0  0
 16 21  1  0  0  0
 16 31  1  0  0  0
 17 18  1  0  0  0
 17100  1  0  0  0
 18 19  2  0  0  0
 18101  1  0  0  0
 19 20  1  0  0  0
 19 24  1  0  0  0
 20 21  2  0  0  0
 20102  1  0  0  0
 21 23  1  0  0  0
 22 28  1  0  0  0
 22 32  2  0  0  0
 26 27  1  0  0  0
 28103  1  0  0  0
 28104  1  0  0  0
 29105  1  0  0  0
 29106  1  0  0  0
 33 34  1  0  0  0
 33 66  1  0  0  0
 33 70  2  0  0  0
 34 36  1  0  0  0
 34 59  1  0  0  0
 34107  1  0  0  0
 35 44  2  0  0  0
 35 45  1  0  0  0
 35 68  1  0  0  0
 36 56  1  0  0  0
 36108  1  0  0  0
 37 39  1  0  0  0
 37 47  1  0  0  0
 37 66  1  0  0  0
 37109  1  0  0  0
 38 43  2  0  0  0
 38 46  1  0  0  0
 38 47  1  0  0  0
 39 64  1  0  0  0
 39 67  2  0  0  0
 40 52  1  0  0  0
 40 53  2  0  0  0
 40 58  1  0  0  0
 41110  1  0  0  0
 41111  1  0  0  0
 41112  1  0  0  0
 41 48  1  0  0  0
 42 43  1  0  0  0
 42 66  1  0  0  0
 42113  1  0  0  0
 42114  1  0  0  0
 43 44  1  0  0  0
 44115  1  0  0  0
 45 46  2  0  0  0
 45116  1  0  0  0
 46117  1  0  0  0
 47118  1  0  0  0
 47119  1  0  0  0
 48 56  1  0  0  0
 48 65  1  0  0  0
 48120  1  0  0  0
 49 50  1  0  0  0
 49 53  1  0  0  0
 49 64  1  0  0  0
 49121  1  0  0  0
 50 51  1  0  0  0
 50122  1  0  0  0
 50123  1  0  0  0
 51 52  1  0  0  0
 51124  1  0  0  0
 51125  1  0  0  0
 52126  1  0  0  0
 52127  1  0  0  0
 53 54  1  0  0  0
 54 55  2  0  0  0
 54128  1  0  0  0
 55 57  1  0  0  0
 55129  1  0  0  0
 56 69  2  0  0  0
 57 58  2  0  0  0
 57130  1  0  0  0
 58131  1  0  0  0
 59 60  1  0  0  0
 59 61  1  0  0  0
 59 62  1  0  0  0
 60132  1  0  0  0
 60133  1  0  0  0
 60134  1  0  0  0
 61135  1  0  0  0
 61136  1  0  0  0
 61137  1  0  0  0
 62138  1  0  0  0
 62139  1  0  0  0
 62140  1  0  0  0
 63 65  1  0  0  0
 63141  1  0  0  0
 63142  1  0  0  0
 63143  1  0  0  0
 64144  1  0  0  0
 65145  1  0  0  0
 68 83  1  0  0  0
 71 72  1  0  0  0
 71 73  2  0  0  0
 71 76  1  0  0  0
 72 74  2  0  0  0
 72 77  1  0  0  0
 73 75  1  0  0  0
 73 82  1  0  0  0
 74 80  1  0  0  0
 74 85  1  0  0  0
 75 83  1  0  0  0
 75 85  2  0  0  0
 76 78  1  0  0  0
 76146  1  0  0  0
 76147  1  0  0  0
 77 79  1  0  0  0
 77148  1  0  0  0
 77149  1  0  0  0
 78 86  1  0  0  0
 78150  1  0  0  0
 78151  1  0  0  0
 79 86  1  0  0  0
 79152  1  0  0  0
 79153  1  0  0  0
 80154  1  0  0  0
 80155  1  0  0  0
 80156  1  0  0  0
 81 84  1  0  0  0
 81157  1  0  0  0
 81158  1  0  0  0
 81159  1  0  0  0
 82 84  1  0  0  0
 82160  1  0  0  0
 82161  1  0  0  0
 83162  1  0  0  0
 83163  1  0  0  0
 84164  1  0  0  0
 84165  1  0  0  0
M  ISO  4   1 100  68 101  83 101  86 100
M  END
> <chiral flag>
0

> <version>
0

> <s_m_source_file>
/data/baiqing/PycharmProjects/Reinvent-master-3.2/result/LINK_invent/BTK/process_docking_weight1_custom_sum_contain_oxygen_bond_distance_aromatic_linkinvent_7_9_3/rearranged_h_0131.sdf

> <i_m_source_file_index>
40

> <r_mmod_Potential_Energy-OPLS-2005>
947.242858886719

> <r_mmod_Stretch_Energy-OPLS-2005>
379.889801025391

> <r_mmod_Bend_Energy-OPLS-2005>
402.056518554688

> <r_mmod_Torsional_Energy-OPLS-2005>
329.491302490234

> <r_mmod_Improper_Torsional_Energy-OPLS-2005>
20.2516078948975

> <r_mmod_Van_der_Waal_Energy-OPLS-2005>
139.254547119141

> <r_mmod_Electrostatic_Energy-OPLS-2005>
-436.306884765625

> <r_mmod_Solvation_Energy-OPLS-2005>
-221.832366943359

> <b_mmod_Minimization_Converged-OPLS-2005>
0

> <r_mmod_RMS_Derivative-OPLS-2005>
1.75724935531616

$$$$
40
                    3D
 Structure written by MMmdl.
172181  0  0  1  0            999 V2000
  -30.8464  -14.2895   20.6789 C   0  0  0  0  0  0
  -30.3930  -12.2543   19.3859 C   0  0  0  0  0  0
  -29.4576  -12.4924   18.1887 C   0  0  0  0  0  0
  -27.9938  -12.3475   18.6285 C   0  0  0  0  0  0
  -27.6664  -13.2024   19.8794 C   0  0  2  0  0  0
  -28.7121  -12.9893   21.0039 C   0  0  0  0  0  0
  -25.2639  -13.8160   20.5740 C   0  0  0  0  0  0
  -24.1865  -13.0470   20.9204 C   0  0  0  0  0  0
  -24.6405  -11.6933   20.8755 C   0  0  0  0  0  0
  -23.9056  -10.4326   21.0409 C   0  0  0  0  0  0
  -24.3609   -9.4228   21.9189 C   0  0  0  0  0  0
  -23.6308   -8.2259   22.0736 C   0  0  0  0  0  0
  -22.4293   -8.0304   21.3538 C   0  0  0  0  0  0
  -21.9918   -9.0267   20.4641 C   0  0  0  0  0  0
  -22.7222  -10.2170   20.3064 C   0  0  0  0  0  0
  -21.6858   -6.0752   22.5288 C   0  0  0  0  0  0
  -21.3999   -6.5655   23.8210 C   0  0  0  0  0  0
  -21.3649   -5.6817   24.9178 C   0  0  0  0  0  0
  -21.6054   -4.3078   24.7229 C   0  0  0  0  0  0
  -21.8827   -3.8165   23.4345 C   0  0  0  0  0  0
  -21.9207   -4.6983   22.3406 C   0  0  0  0  0  0
  -22.7896  -13.5270   21.1882 C   0  0  0  0  0  0
  -22.1688   -4.2169   21.0984 F   0  0  0  0  0  0
  -21.5616   -3.4564   25.7724 F   0  0  0  0  0  0
  -30.0643  -13.2046   20.4593 N   0  0  0  0  0  0
  -26.3068  -12.9344   20.3478 N   0  0  0  0  0  0
  -25.9326  -11.6495   20.5847 N   0  0  0  0  0  0
  -22.0544  -12.8234   22.0421 N   0  0  0  0  0  0
  -25.4434  -15.1870   20.4063 N   0  0  0  0  0  0
  -31.7672  -14.6047   19.9178 O   0  0  0  0  0  0
  -21.6677   -6.8896   21.4242 O   0  0  0  0  0  0
  -22.3583  -14.5604   20.6775 O   0  0  0  0  0  0
  -24.6026  -31.8745   23.2153 C   0  0  0  0  0  0
  -25.8922  -32.4899   23.8446 C   0  0  1  0  0  0
  -27.2476  -27.5115   20.0901 C   0  0  0  0  0  0
  -25.5831  -33.8691   24.2383 N   0  0  0  0  0  0
  -23.3925  -30.4864   21.5584 C   0  0  2  0  0  0
  -24.8453  -28.9658   20.1203 C   0  0  0  0  0  0
  -22.7374  -29.4628   22.5107 C   0  0  0  0  0  0
  -18.0243  -28.1395   22.8467 C   0  0  0  0  0  0
  -24.1502  -36.7334   23.2634 C   0  0  0  0  0  0
  -25.9058  -30.8650   21.3578 C   0  0  0  0  0  0
  -25.9918  -29.4934   20.7270 C   0  0  0  0  0  0
  -27.1923  -28.7657   20.7253 C   0  0  0  0  0  0
  -26.0945  -26.9839   19.4707 C   0  0  0  0  0  0
  -24.8882  -27.7058   19.4925 C   0  0  0  0  0  0
  -23.5976  -29.8105   20.1729 C   0  0  0  0  0  0
  -25.4139  -36.3168   24.0335 C   0  0  1  0  0  0
  -20.5810  -28.3640   23.1416 C   0  0  2  0  0  0
  -20.6746  -26.9412   22.5444 C   0  0  0  0  0  0
  -19.5747  -26.6412   21.5209 C   0  0  0  0  0  0
  -18.1916  -26.7940   22.1606 C   0  0  0  0  0  0
  -19.1476  -28.8850   23.2931 C   0  0  0  0  0  0
  -18.9388  -30.1450   23.8934 C   0  0  0  0  0  0
  -17.6388  -30.6590   24.0581 C   0  0  0  0  0  0
  -25.9018  -34.9525   23.5165 C   0  0  0  0  0  0
  -16.5285  -29.9080   23.6342 C   0  0  0  0  0  0
  -16.7229  -28.6521   23.0324 C   0  0  0  0  0  0
  -26.4409  -31.6629   25.0707 C   0  0  0  0  0  0
  -25.3679  -31.3638   26.1437 C   0  0  0  0  0  0
  -27.0204  -30.3117   24.5947 C   0  0  0  0  0  0
  -27.6084  -32.4261   25.7404 C   0  0  0  0  0  0
  -27.5617  -37.1837   24.8471 C   0  0  0  0  0  0
  -21.4114  -29.2974   22.3838 N   0  0  0  0  0  0
  -26.4348  -37.3825   23.9377 N   0  0  0  0  0  0
  -24.6520  -31.0853   22.1063 N   0  0  0  0  0  0
  -23.4163  -28.8182   23.3142 O   0  0  0  0  0  0
  -28.4401  -26.8535   20.0332 O   0  0  0  0  0  0
  -26.5564  -34.8927   22.4715 O   0  0  0  0  0  0
  -23.5204  -32.1473   23.7549 O   0  0  0  0  0  0
  -32.7447  -17.3285   23.8362 C   0  0  0  0  0  0
  -32.8933  -18.3841   22.9119 C   0  0  0  0  0  0
  -32.0101  -16.1781   23.4933 C   0  0  0  0  0  0
  -31.5397  -17.1585   21.3139 C   0  0  0  0  0  0
  -32.2928  -18.3004   21.6348 C   0  0  0  0  0  0
  -31.4083  -16.0848   22.2228 C   0  0  0  0  0  0
  -28.1933  -22.7656   19.0088 C   0  0  0  0  0  0
  -28.1232  -22.1473   21.4315 C   0  0  0  0  0  0
  -28.6015  -24.1994   19.3446 C   0  0  0  0  0  0
  -28.4813  -23.5771   21.8591 C   0  0  0  0  0  0
  -28.7949  -21.8528   20.0798 C   0  0  1  0  0  0
  -28.1253  -24.6069   20.7637 C   0  0  1  0  0  0
  -32.4481  -19.4101   20.6005 C   0  0  0  0  0  0
  -28.8274  -20.3592   19.7133 C   0  0  0  0  0  0
  -28.6784  -25.9887   21.1286 C   0  0  0  0  0  0
  -30.2585  -19.8557   19.4090 C   0  0  0  0  0  0
  -30.6856  -14.9188   21.8494 N   0  0  0  0  0  0
  -31.2108  -20.2054   20.4985 N   0  3  0  0  0  0
  -31.4306  -12.3293   19.0524 H   0  0  0  0  0  0
  -30.2754  -11.2370   19.7613 H   0  0  0  0  0  0
  -29.6755  -11.7703   17.4003 H   0  0  0  0  0  0
  -29.6268  -13.4801   17.7600 H   0  0  0  0  0  0
  -27.8213  -11.2938   18.8479 H   0  0  0  0  0  0
  -27.3210  -12.5989   17.8077 H   0  0  0  0  0  0
  -27.7202  -14.2476   19.5775 H   0  0  0  0  0  0
  -28.6527  -11.9745   21.3925 H   0  0  0  0  0  0
  -28.4840  -13.6431   21.8490 H   0  0  0  0  0  0
  -25.2730   -9.5762   22.4779 H   0  0  0  0  0  0
  -24.0050   -7.4654   22.7440 H   0  0  0  0  0  0
  -21.0840   -8.8777   19.8934 H   0  0  0  0  0  0
  -22.3634  -10.9727   19.6201 H   0  0  0  0  0  0
  -21.1985   -7.6162   23.9720 H   0  0  0  0  0  0
  -21.1449   -6.0541   25.9084 H   0  0  0  0  0  0
  -22.0612   -2.7631   23.2842 H   0  0  0  0  0  0
  -22.4154  -11.9842   22.4712 H   0  0  0  0  0  0
  -21.1169  -13.1238   22.2676 H   0  0  0  0  0  0
  -24.6858  -15.8526   20.5101 H   0  0  0  0  0  0
  -26.3104  -15.6139   20.1017 H   0  0  0  0  0  0
  -26.7013  -32.5662   23.1244 H   0  0  0  0  0  0
  -25.0010  -33.9929   25.0544 H   0  0  0  0  0  0
  -22.6743  -31.2970   21.4180 H   0  0  0  0  0  0
  -23.3757  -35.9666   23.3331 H   0  0  0  0  0  0
  -24.3603  -36.8892   22.2040 H   0  0  0  0  0  0
  -23.7222  -37.6546   23.6602 H   0  0  0  0  0  0
  -25.9716  -31.6281   20.5805 H   0  0  0  0  0  0
  -26.8090  -30.9489   21.9503 H   0  0  0  0  0  0
  -28.0779  -29.1675   21.1987 H   0  0  0  0  0  0
  -26.1296  -26.0302   18.9612 H   0  0  0  0  0  0
  -24.0094  -27.3083   19.0018 H   0  0  0  0  0  0
  -23.6710  -30.5741   19.3975 H   0  0  0  0  0  0
  -22.7359  -29.1969   19.9042 H   0  0  0  0  0  0
  -25.1314  -36.2102   25.0826 H   0  0  0  0  0  0
  -20.9824  -28.3118   24.1570 H   0  0  0  0  0  0
  -20.5705  -26.2200   23.3570 H   0  0  0  0  0  0
  -21.6629  -26.7554   22.1202 H   0  0  0  0  0  0
  -19.6943  -25.6332   21.1227 H   0  0  0  0  0  0
  -19.6706  -27.3239   20.6752 H   0  0  0  0  0  0
  -17.4198  -26.6638   21.4006 H   0  0  0  0  0  0
  -18.0349  -26.0122   22.9051 H   0  0  0  0  0  0
  -19.7844  -30.7279   24.2311 H   0  0  0  0  0  0
  -17.4923  -31.6276   24.5159 H   0  0  0  0  0  0
  -15.5278  -30.2978   23.7686 H   0  0  0  0  0  0
  -15.8618  -28.0872   22.6997 H   0  0  0  0  0  0
  -24.5914  -30.6966   25.7664 H   0  0  0  0  0  0
  -24.8767  -32.2731   26.4920 H   0  0  0  0  0  0
  -25.8016  -30.8742   27.0164 H   0  0  0  0  0  0
  -26.2689  -29.6936   24.1027 H   0  0  0  0  0  0
  -27.4060  -29.7313   25.4326 H   0  0  0  0  0  0
  -27.8482  -30.4493   23.8985 H   0  0  0  0  0  0
  -27.2852  -33.3559   26.2087 H   0  0  0  0  0  0
  -28.3809  -32.6805   25.0131 H   0  0  0  0  0  0
  -28.0843  -31.8285   26.5191 H   0  0  0  0  0  0
  -28.2663  -38.0118   24.7535 H   0  0  0  0  0  0
  -28.1097  -36.2649   24.6310 H   0  0  0  0  0  0
  -27.2326  -37.1501   25.8875 H   0  0  0  0  0  0
  -20.9288  -29.8642   21.7008 H   0  0  0  0  0  0
  -26.0270  -38.2923   24.1322 H   0  0  0  0  0  0
  -33.2085  -17.3960   24.8115 H   0  0  0  0  0  0
  -33.4751  -19.2495   23.2030 H   0  0  0  0  0  0
  -31.9398  -15.3649   24.2021 H   0  0  0  0  0  0
  -31.0838  -17.0796   20.3376 H   0  0  0  0  0  0
  -28.5544  -22.5040   18.0138 H   0  0  0  0  0  0
  -27.1075  -22.6777   18.9823 H   0  0  0  0  0  0
  -27.0409  -22.0266   21.3542 H   0  0  0  0  0  0
  -28.4468  -21.4397   22.1974 H   0  0  0  0  0  0
  -28.1856  -24.8690   18.5917 H   0  0  0  0  0  0
  -29.6846  -24.3030   19.2565 H   0  0  0  0  0  0
  -29.5525  -23.6127   22.0782 H   0  0  0  0  0  0
  -27.9768  -23.8422   22.7905 H   0  0  0  0  0  0
  -29.8267  -22.1857   20.1747 H   0  0  0  0  0  0
  -27.0357  -24.6628   20.7224 H   0  0  0  0  0  0
  -32.7498  -19.0170   19.6264 H   0  0  0  0  0  0
  -33.2546  -20.0681   20.9263 H   0  0  0  0  0  0
  -28.1718  -20.1732   18.8610 H   0  0  0  0  0  0
  -28.4116  -19.7643   20.5282 H   0  0  0  0  0  0
  -28.2204  -26.3502   22.0494 H   0  0  0  0  0  0
  -29.7561  -25.9584   21.3077 H   0  0  0  0  0  0
  -30.6014  -20.2926   18.4699 H   0  0  0  0  0  0
  -30.2312  -18.7802   19.2576 H   0  0  0  0  0  0
  -30.0680  -14.5001   22.5296 H   0  0  0  0  0  0
  -31.4968  -21.1624   20.3506 H   0  0  0  0  0  0
  -30.7373  -20.1711   21.3854 H   0  0  0  0  0  0
  1 25  1  0  0  0
  1 30  2  0  0  0
  1 87  1  0  0  0
  2  3  1  0  0  0
  2 25  1  0  0  0
  2 89  1  0  0  0
  2 90  1  0  0  0
  3  4  1  0  0  0
  3 91  1  0  0  0
  3 92  1  0  0  0
  4  5  1  0  0  0
  4 93  1  0  0  0
  4 94  1  0  0  0
  5  6  1  0  0  0
  5 26  1  0  0  0
  5 95  1  0  0  0
  6 25  1  0  0  0
  6 96  1  0  0  0
  6 97  1  0  0  0
  7  8  2  0  0  0
  7 26  1  0  0  0
  7 29  1  0  0  0
  8  9  1  0  0  0
  8 22  1  0  0  0
  9 10  1  0  0  0
  9 27  2  0  0  0
 10 11  2  0  0  0
 10 15  1  0  0  0
 11 12  1  0  0  0
 11 98  1  0  0  0
 12 13  2  0  0  0
 12 99  1  0  0  0
 13 14  1  0  0  0
 13 31  1  0  0  0
 14 15  2  0  0  0
 14100  1  0  0  0
 15101  1  0  0  0
 16 17  2  0  0  0
 16 21  1  0  0  0
 16 31  1  0  0  0
 17 18  1  0  0  0
 17102  1  0  0  0
 18 19  2  0  0  0
 18103  1  0  0  0
 19 20  1  0  0  0
 19 24  1  0  0  0
 20 21  2  0  0  0
 20104  1  0  0  0
 21 23  1  0  0  0
 22 28  1  0  0  0
 22 32  2  0  0  0
 26 27  1  0  0  0
 28105  1  0  0  0
 28106  1  0  0  0
 29107  1  0  0  0
 29108  1  0  0  0
 33 34  1  0  0  0
 33 66  1  0  0  0
 33 70  2  0  0  0
 34 36  1  0  0  0
 34 59  1  0  0  0
 34109  1  0  0  0
 35 44  2  0  0  0
 35 45  1  0  0  0
 35 68  1  0  0  0
 36 56  1  0  0  0
 36110  1  0  0  0
 37 39  1  0  0  0
 37 47  1  0  0  0
 37 66  1  0  0  0
 37111  1  0  0  0
 38 43  2  0  0  0
 38 46  1  0  0  0
 38 47  1  0  0  0
 39 64  1  0  0  0
 39 67  2  0  0  0
 40 52  1  0  0  0
 40 53  2  0  0  0
 40 58  1  0  0  0
 41112  1  0  0  0
 41113  1  0  0  0
 41114  1  0  0  0
 41 48  1  0  0  0
 42 43  1  0  0  0
 42 66  1  0  0  0
 42115  1  0  0  0
 42116  1  0  0  0
 43 44  1  0  0  0
 44117  1  0  0  0
 45 46  2  0  0  0
 45118  1  0  0  0
 46119  1  0  0  0
 47120  1  0  0  0
 47121  1  0  0  0
 48 56  1  0  0  0
 48 65  1  0  0  0
 48122  1  0  0  0
 49 50  1  0  0  0
 49 53  1  0  0  0
 49 64  1  0  0  0
 49123  1  0  0  0
 50 51  1  0  0  0
 50124  1  0  0  0
 50125  1  0  0  0
 51 52  1  0  0  0
 51126  1  0  0  0
 51127  1  0  0  0
 52128  1  0  0  0
 52129  1  0  0  0
 53 54  1  0  0  0
 54 55  2  0  0  0
 54130  1  0  0  0
 55 57  1  0  0  0
 55131  1  0  0  0
 56 69  2  0  0  0
 57 58  2  0  0  0
 57132  1  0  0  0
 58133  1  0  0  0
 59 60  1  0  0  0
 59 61  1  0  0  0
 59 62  1  0  0  0
 60134  1  0  0  0
 60135  1  0  0  0
 60136  1  0  0  0
 61137  1  0  0  0
 61138  1  0  0  0
 61139  1  0  0  0
 62140  1  0  0  0
 62141  1  0  0  0
 62142  1  0  0  0
 63 65  1  0  0  0
 63143  1  0  0  0
 63144  1  0  0  0
 63145  1  0  0  0
 64146  1  0  0  0
 65147  1  0  0  0
 68 85  1  0  0  0
 71 72  2  0  0  0
 71 73  1  0  0  0
 71148  1  0  0  0
 72 75  1  0  0  0
 72149  1  0  0  0
 73 76  2  0  0  0
 73150  1  0  0  0
 74 75  2  0  0  0
 74 76  1  0  0  0
 74151  1  0  0  0
 75 83  1  0  0  0
 76 87  1  0  0  0
 77 79  1  0  0  0
 77 81  1  0  0  0
 77152  1  0  0  0
 77153  1  0  0  0
 78 80  1  0  0  0
 78 81  1  0  0  0
 78154  1  0  0  0
 78155  1  0  0  0
 79 82  1  0  0  0
 79156  1  0  0  0
 79157  1  0  0  0
 80 82  1  0  0  0
 80158  1  0  0  0
 80159  1  0  0  0
 81 84  1  0  0  0
 81160  1  0  0  0
 82 85  1  0  0  0
 82161  1  0  0  0
 83 88  1  0  0  0
 83162  1  0  0  0
 83163  1  0  0  0
 84 86  1  0  0  0
 84164  1  0  0  0
 84165  1  0  0  0
 85166  1  0  0  0
 85167  1  0  0  0
 86 88  1  0  0  0
 86168  1  0  0  0
 86169  1  0  0  0
 87170  1  0  0  0
 88171  1  0  0  0
 88172  1  0  0  0
M  CHG  1  88   1
M  ISO  4   1 100  68 101  85 101  87 100
M  END
> <chiral flag>
0

> <version>
0

> <s_m_source_file>
/data/baiqing/PycharmProjects/Reinvent-master-3.2/result/LINK_invent/BTK/process_docking_weight1_custom_sum_contain_oxygen_bond_distance_aromatic_linkinvent_7_9_3/rearranged_h_0131.sdf

> <i_m_source_file_index>
41

> <r_mmod_Potential_Energy-OPLS-2005>
-148.889694213867

> <r_mmod_Stretch_Energy-OPLS-2005>
31.143030166626

> <r_mmod_Bend_Energy-OPLS-2005>
95.9488067626953

> <r_mmod_Torsional_Energy-OPLS-2005>
293.519592285156

> <r_mmod_Improper_Torsional_Energy-OPLS-2005>
3.49142575263977

> <r_mmod_Van_der_Waal_Energy-OPLS-2005>
170.363006591797

> <r_mmod_Electrostatic_Energy-OPLS-2005>
-307.573150634766

> <r_mmod_Solvation_Energy-OPLS-2005>
-447.037170410156

> <b_mmod_Minimization_Converged-OPLS-2005>
0

> <r_mmod_RMS_Derivative-OPLS-2005>
5.8852219581604

$$$$
41
                    3D
 Structure written by MMmdl.
170178  0  0  1  0            999 V2000
  -30.7248  -14.3988   20.5541 C   0  0  0  0  0  0
  -30.4168  -12.2496   19.4097 C   0  0  0  0  0  0
  -29.4952  -12.4844   18.1971 C   0  0  0  0  0  0
  -28.0121  -12.3667   18.6064 C   0  0  0  0  0  0
  -27.6666  -13.2012   19.8717 C   0  0  2  0  0  0
  -28.7081  -12.9544   20.9874 C   0  0  0  0  0  0
  -25.2634  -13.8161   20.5678 C   0  0  0  0  0  0
  -24.1874  -13.0450   20.9182 C   0  0  0  0  0  0
  -24.6407  -11.6903   20.8737 C   0  0  0  0  0  0
  -23.9064  -10.4295   21.0421 C   0  0  0  0  0  0
  -24.3621   -9.4209   21.9191 C   0  0  0  0  0  0
  -23.6301   -8.2244   22.0748 C   0  0  0  0  0  0
  -22.4282   -8.0283   21.3554 C   0  0  0  0  0  0
  -21.9919   -9.0252   20.4664 C   0  0  0  0  0  0
  -22.7242  -10.2134   20.3068 C   0  0  0  0  0  0
  -21.6849   -6.0733   22.5280 C   0  0  0  0  0  0
  -21.4008   -6.5638   23.8214 C   0  0  0  0  0  0
  -21.3663   -5.6795   24.9179 C   0  0  0  0  0  0
  -21.6045   -4.3050   24.7230 C   0  0  0  0  0  0
  -21.8821   -3.8147   23.4348 C   0  0  0  0  0  0
  -21.9199   -4.6961   22.3411 C   0  0  0  0  0  0
  -22.7893  -13.5262   21.1813 C   0  0  0  0  0  0
  -22.1673   -4.2154   21.0984 F   0  0  0  0  0  0
  -21.5632   -3.4534   25.7740 F   0  0  0  0  0  0
  -30.0438  -13.2318   20.4348 N   0  0  0  0  0  0
  -26.3062  -12.9315   20.3353 N   0  0  0  0  0  0
  -25.9337  -11.6475   20.5775 N   0  0  0  0  0  0
  -22.0499  -12.8301   22.0374 N   0  0  0  0  0  0
  -25.4371  -15.1874   20.4054 N   0  0  0  0  0  0
  -31.8594  -14.5727   20.1072 O   0  0  0  0  0  0
  -21.6643   -6.8873   21.4242 O   0  0  0  0  0  0
  -22.3596  -14.5553   20.6617 O   0  0  0  0  0  0
  -24.6075  -31.8695   23.2167 C   0  0  0  0  0  0
  -25.8975  -32.4849   23.8437 C   0  0  1  0  0  0
  -27.2413  -27.4807   20.0934 C   0  0  0  0  0  0
  -25.5843  -33.8649   24.2353 N   0  0  0  0  0  0
  -23.3925  -30.4926   21.5562 C   0  0  2  0  0  0
  -24.8426  -28.9616   20.1203 C   0  0  0  0  0  0
  -22.7351  -29.4643   22.5039 C   0  0  0  0  0  0
  -18.0245  -28.1359   22.8515 C   0  0  0  0  0  0
  -24.1470  -36.7324   23.2650 C   0  0  0  0  0  0
  -25.9169  -30.8503   21.3635 C   0  0  0  0  0  0
  -25.9985  -29.4871   20.7120 C   0  0  0  0  0  0
  -27.2018  -28.7544   20.6957 C   0  0  0  0  0  0
  -26.0729  -26.9582   19.4947 C   0  0  0  0  0  0
  -24.8712  -27.6925   19.5118 C   0  0  0  0  0  0
  -23.6004  -29.8215   20.1712 C   0  0  0  0  0  0
  -25.4094  -36.3146   24.0356 C   0  0  1  0  0  0
  -20.5837  -28.3613   23.1352 C   0  0  2  0  0  0
  -20.6750  -26.9351   22.5430 C   0  0  0  0  0  0
  -19.5738  -26.6377   21.5213 C   0  0  0  0  0  0
  -18.1906  -26.7918   22.1612 C   0  0  0  0  0  0
  -19.1502  -28.8798   23.2948 C   0  0  0  0  0  0
  -18.9434  -30.1420   23.8930 C   0  0  0  0  0  0
  -17.6444  -30.6582   24.0556 C   0  0  0  0  0  0
  -25.8997  -34.9499   23.5157 C   0  0  0  0  0  0
  -16.5329  -29.9074   23.6337 C   0  0  0  0  0  0
  -16.7235  -28.6488   23.0364 C   0  0  0  0  0  0
  -26.4446  -31.6630   25.0742 C   0  0  0  0  0  0
  -25.3751  -31.3726   26.1528 C   0  0  0  0  0  0
  -27.0276  -30.3082   24.6090 C   0  0  0  0  0  0
  -27.6033  -32.4360   25.7466 C   0  0  0  0  0  0
  -27.5587  -37.1815   24.8472 C   0  0  0  0  0  0
  -21.4082  -29.3007   22.3778 N   0  0  0  0  0  0
  -26.4299  -37.3818   23.9415 N   0  0  0  0  0  0
  -24.6567  -31.0829   22.1047 N   0  0  0  0  0  0
  -23.4142  -28.8176   23.3055 O   0  0  0  0  0  0
  -28.4249  -26.7894   20.0568 O   0  0  0  0  0  0
  -26.5577  -34.8941   22.4728 O   0  0  0  0  0  0
  -23.5279  -32.1428   23.7585 O   0  0  0  0  0  0
  -29.7428  -21.6469   21.8705 C   0  0  0  0  0  0
  -29.6499  -20.2441   21.8916 C   0  0  0  0  0  0
  -30.0615  -21.6531   24.2842 C   0  0  0  0  0  0
  -29.9548  -22.3594   23.0671 C   0  0  0  0  0  0
  -29.7724  -19.5281   23.1041 C   0  0  0  0  0  0
  -29.9743  -20.2427   24.3121 C   0  0  0  0  0  0
  -32.6036  -19.8798   25.4118 C   0  0  0  0  0  0
  -29.7420  -18.0025   23.0554 C   0  0  0  0  0  0
  -30.0957  -23.8719   23.0251 C   0  0  0  0  0  0
  -30.8730  -17.4472   22.1700 C   0  0  0  0  0  0
  -31.3988  -19.0956   25.9536 C   0  0  0  0  0  0
  -30.3770  -16.8312   20.8550 C   0  0  0  0  0  0
  -28.7149  -25.8034   22.2616 C   0  0  0  0  0  0
  -28.4353  -25.5551   20.7677 C   0  0  0  0  0  0
  -30.0810  -19.5893   25.5467 N   0  0  0  0  0  0
  -30.0005  -15.4257   21.0169 N   0  0  0  0  0  0
  -28.7776  -24.5357   23.0273 N   0  3  0  0  0  0
  -31.4656  -12.3210   19.1127 H   0  0  0  0  0  0
  -30.2886  -11.2367   19.7943 H   0  0  0  0  0  0
  -29.7204  -11.7625   17.4095 H   0  0  0  0  0  0
  -29.6897  -13.4716   17.7748 H   0  0  0  0  0  0
  -27.8071  -11.3120   18.7914 H   0  0  0  0  0  0
  -27.3678  -12.6550   17.7743 H   0  0  0  0  0  0
  -27.7197  -14.2523   19.5840 H   0  0  0  0  0  0
  -28.6644  -11.9148   21.3154 H   0  0  0  0  0  0
  -28.4908  -13.5481   21.8757 H   0  0  0  0  0  0
  -25.2761   -9.5688   22.4765 H   0  0  0  0  0  0
  -24.0015   -7.4642   22.7463 H   0  0  0  0  0  0
  -21.0843   -8.8769   19.8990 H   0  0  0  0  0  0
  -22.3692  -10.9664   19.6179 H   0  0  0  0  0  0
  -21.1978   -7.6142   23.9724 H   0  0  0  0  0  0
  -21.1492   -6.0516   25.9086 H   0  0  0  0  0  0
  -22.0596   -2.7605   23.2851 H   0  0  0  0  0  0
  -22.4087  -11.9986   22.4834 H   0  0  0  0  0  0
  -21.1104  -13.1343   22.2492 H   0  0  0  0  0  0
  -24.6684  -15.8412   20.5025 H   0  0  0  0  0  0
  -26.2854  -15.6228   20.0658 H   0  0  0  0  0  0
  -26.7032  -32.5573   23.1197 H   0  0  0  0  0  0
  -25.0026  -33.9845   25.0519 H   0  0  0  0  0  0
  -22.6788  -31.3079   21.4182 H   0  0  0  0  0  0
  -23.3750  -35.9643   23.3340 H   0  0  0  0  0  0
  -24.3570  -36.8903   22.2061 H   0  0  0  0  0  0
  -23.7195  -37.6530   23.6626 H   0  0  0  0  0  0
  -26.0263  -31.6213   20.5998 H   0  0  0  0  0  0
  -26.8037  -30.9012   21.9835 H   0  0  0  0  0  0
  -28.0961  -29.1631   21.1476 H   0  0  0  0  0  0
  -26.0972  -25.9998   18.9958 H   0  0  0  0  0  0
  -23.9840  -27.2821   19.0482 H   0  0  0  0  0  0
  -23.6994  -30.5947   19.4082 H   0  0  0  0  0  0
  -22.7254  -29.2359   19.8801 H   0  0  0  0  0  0
  -25.1273  -36.2050   25.0851 H   0  0  0  0  0  0
  -20.9926  -28.3168   24.1477 H   0  0  0  0  0  0
  -20.5631  -26.2204   23.3605 H   0  0  0  0  0  0
  -21.6626  -26.7407   22.1227 H   0  0  0  0  0  0
  -19.6884  -25.6292   21.1225 H   0  0  0  0  0  0
  -19.6704  -27.3209   20.6765 H   0  0  0  0  0  0
  -17.4183  -26.6686   21.4000 H   0  0  0  0  0  0
  -18.0286  -26.0041   22.8981 H   0  0  0  0  0  0
  -19.7912  -30.7238   24.2306 H   0  0  0  0  0  0
  -17.4992  -31.6269   24.5143 H   0  0  0  0  0  0
  -15.5325  -30.2983   23.7662 H   0  0  0  0  0  0
  -15.8635  -28.0813   22.7075 H   0  0  0  0  0  0
  -24.5870  -30.7126   25.7892 H   0  0  0  0  0  0
  -24.9013  -32.2880   26.5071 H   0  0  0  0  0  0
  -25.8142  -30.8830   27.0227 H   0  0  0  0  0  0
  -26.2798  -29.6830   24.1195 H   0  0  0  0  0  0
  -27.4118  -29.7348   25.4539 H   0  0  0  0  0  0
  -27.8598  -30.4446   23.9187 H   0  0  0  0  0  0
  -27.2643  -33.3626   26.2118 H   0  0  0  0  0  0
  -28.3764  -32.6984   25.0231 H   0  0  0  0  0  0
  -28.0779  -31.8453   26.5312 H   0  0  0  0  0  0
  -28.2639  -38.0084   24.7516 H   0  0  0  0  0  0
  -28.1047  -36.2621   24.6297 H   0  0  0  0  0  0
  -27.2311  -37.1481   25.8881 H   0  0  0  0  0  0
  -20.9197  -29.8748   21.7054 H   0  0  0  0  0  0
  -26.0210  -38.2909   24.1416 H   0  0  0  0  0  0
  -29.6765  -22.1707   20.9267 H   0  0  0  0  0  0
  -29.5167  -19.7194   20.9554 H   0  0  0  0  0  0
  -30.2230  -22.1944   25.2061 H   0  0  0  0  0  0
  -32.5412  -20.9375   25.6638 H   0  0  0  0  0  0
  -32.6940  -19.7852   24.3292 H   0  0  0  0  0  0
  -33.5277  -19.4931   25.8442 H   0  0  0  0  0  0
  -28.7660  -17.6711   22.7029 H   0  0  0  0  0  0
  -29.8347  -17.5693   24.0485 H   0  0  0  0  0  0
  -30.6672  -24.1380   22.1345 H   0  0  0  0  0  0
  -30.6696  -24.2328   23.8784 H   0  0  0  0  0  0
  -31.4588  -16.7157   22.7258 H   0  0  0  0  0  0
  -31.5857  -18.2421   21.9428 H   0  0  0  0  0  0
  -31.4351  -19.1174   27.0446 H   0  0  0  0  0  0
  -31.4928  -18.0449   25.6741 H   0  0  0  0  0  0
  -29.5291  -17.3862   20.4511 H   0  0  0  0  0  0
  -31.1621  -16.9421   20.1046 H   0  0  0  0  0  0
  -27.9225  -26.4193   22.6858 H   0  0  0  0  0  0
  -29.6381  -26.3722   22.3861 H   0  0  0  0  0  0
  -27.5032  -25.0043   20.6356 H   0  0  0  0  0  0
  -29.2239  -24.9317   20.3462 H   0  0  0  0  0  0
  -29.4101  -18.8257   25.5951 H   0  0  0  0  0  0
  -29.0694  -15.2123   21.3442 H   0  0  0  0  0  0
  -28.5449  -24.7215   23.9889 H   0  0  0  0  0  0
  -28.0840  -23.8933   22.6795 H   0  0  0  0  0  0
  1 25  1  0  0  0
  1 30  2  0  0  0
  1 86  1  0  0  0
  2  3  1  0  0  0
  2 25  1  0  0  0
  2 88  1  0  0  0
  2 89  1  0  0  0
  3  4  1  0  0  0
  3 90  1  0  0  0
  3 91  1  0  0  0
  4  5  1  0  0  0
  4 92  1  0  0  0
  4 93  1  0  0  0
  5  6  1  0  0  0
  5 26  1  0  0  0
  5 94  1  0  0  0
  6 25  1  0  0  0
  6 95  1  0  0  0
  6 96  1  0  0  0
  7  8  2  0  0  0
  7 26  1  0  0  0
  7 29  1  0  0  0
  8  9  1  0  0  0
  8 22  1  0  0  0
  9 10  1  0  0  0
  9 27  2  0  0  0
 10 11  2  0  0  0
 10 15  1  0  0  0
 11 12  1  0  0  0
 11 97  1  0  0  0
 12 13  2  0  0  0
 12 98  1  0  0  0
 13 14  1  0  0  0
 13 31  1  0  0  0
 14 15  2  0  0  0
 14 99  1  0  0  0
 15100  1  0  0  0
 16 17  2  0  0  0
 16 21  1  0  0  0
 16 31  1  0  0  0
 17 18  1  0  0  0
 17101  1  0  0  0
 18 19  2  0  0  0
 18102  1  0  0  0
 19 20  1  0  0  0
 19 24  1  0  0  0
 20 21  2  0  0  0
 20103  1  0  0  0
 21 23  1  0  0  0
 22 28  1  0  0  0
 22 32  2  0  0  0
 26 27  1  0  0  0
 28104  1  0  0  0
 28105  1  0  0  0
 29106  1  0  0  0
 29107  1  0  0  0
 33 34  1  0  0  0
 33 66  1  0  0  0
 33 70  2  0  0  0
 34 36  1  0  0  0
 34 59  1  0  0  0
 34108  1  0  0  0
 35 44  2  0  0  0
 35 45  1  0  0  0
 35 68  1  0  0  0
 36 56  1  0  0  0
 36109  1  0  0  0
 37 39  1  0  0  0
 37 47  1  0  0  0
 37 66  1  0  0  0
 37110  1  0  0  0
 38 43  2  0  0  0
 38 46  1  0  0  0
 38 47  1  0  0  0
 39 64  1  0  0  0
 39 67  2  0  0  0
 40 52  1  0  0  0
 40 53  2  0  0  0
 40 58  1  0  0  0
 41111  1  0  0  0
 41112  1  0  0  0
 41113  1  0  0  0
 41 48  1  0  0  0
 42 43  1  0  0  0
 42 66  1  0  0  0
 42114  1  0  0  0
 42115  1  0  0  0
 43 44  1  0  0  0
 44116  1  0  0  0
 45 46  2  0  0  0
 45117  1  0  0  0
 46118  1  0  0  0
 47119  1  0  0  0
 47120  1  0  0  0
 48 56  1  0  0  0
 48 65  1  0  0  0
 48121  1  0  0  0
 49 50  1  0  0  0
 49 53  1  0  0  0
 49 64  1  0  0  0
 49122  1  0  0  0
 50 51  1  0  0  0
 50123  1  0  0  0
 50124  1  0  0  0
 51 52  1  0  0  0
 51125  1  0  0  0
 51126  1  0  0  0
 52127  1  0  0  0
 52128  1  0  0  0
 53 54  1  0  0  0
 54 55  2  0  0  0
 54129  1  0  0  0
 55 57  1  0  0  0
 55130  1  0  0  0
 56 69  2  0  0  0
 57 58  2  0  0  0
 57131  1  0  0  0
 58132  1  0  0  0
 59 60  1  0  0  0
 59 61  1  0  0  0
 59 62  1  0  0  0
 60133  1  0  0  0
 60134  1  0  0  0
 60135  1  0  0  0
 61136  1  0  0  0
 61137  1  0  0  0
 61138  1  0  0  0
 62139  1  0  0  0
 62140  1  0  0  0
 62141  1  0  0  0
 63 65  1  0  0  0
 63142  1  0  0  0
 63143  1  0  0  0
 63144  1  0  0  0
 64145  1  0  0  0
 65146  1  0  0  0
 68 84  1  0  0  0
 71 72  2  0  0  0
 71 74  1  0  0  0
 71147  1  0  0  0
 72 75  1  0  0  0
 72148  1  0  0  0
 73 74  2  0  0  0
 73 76  1  0  0  0
 73149  1  0  0  0
 74 79  1  0  0  0
 75 76  2  0  0  0
 75 78  1  0  0  0
 76 85  1  0  0  0
 77 81  1  0  0  0
 77150  1  0  0  0
 77151  1  0  0  0
 77152  1  0  0  0
 78 80  1  0  0  0
 78153  1  0  0  0
 78154  1  0  0  0
 79 87  1  0  0  0
 79155  1  0  0  0
 79156  1  0  0  0
 80 82  1  0  0  0
 80157  1  0  0  0
 80158  1  0  0  0
 81 85  1  0  0  0
 81159  1  0  0  0
 81160  1  0  0  0
 82 86  1  0  0  0
 82161  1  0  0  0
 82162  1  0  0  0
 83 84  1  0  0  0
 83 87  1  0  0  0
 83163  1  0  0  0
 83164  1  0  0  0
 84165  1  0  0  0
 84166  1  0  0  0
 85167  1  0  0  0
 86168  1  0  0  0
 87169  1  0  0  0
 87170  1  0  0  0
M  CHG  1  87   1
M  ISO  4   1 100  68 101  84 101  86 100
M  END
> <chiral flag>
0

> <version>
0

> <s_m_source_file>
/data/baiqing/PycharmProjects/Reinvent-master-3.2/result/LINK_invent/BTK/process_docking_weight1_custom_sum_contain_oxygen_bond_distance_aromatic_linkinvent_7_9_3/rearranged_h_0131.sdf

> <i_m_source_file_index>
42

> <r_mmod_Potential_Energy-OPLS-2005>
-244.1171875

> <r_mmod_Stretch_Energy-OPLS-2005>
32.4073104858398

> <r_mmod_Bend_Energy-OPLS-2005>
92.629508972168

> <r_mmod_Torsional_Energy-OPLS-2005>
257.848937988281

> <r_mmod_Improper_Torsional_Energy-OPLS-2005>
10.4147567749023

> <r_mmod_Van_der_Waal_Energy-OPLS-2005>
155.398193359375

> <r_mmod_Electrostatic_Energy-OPLS-2005>
-341.657775878906

> <r_mmod_Solvation_Energy-OPLS-2005>
-461.235900878906

> <b_mmod_Minimization_Converged-OPLS-2005>
0

> <r_mmod_RMS_Derivative-OPLS-2005>
3.1701135635376

$$$$
42
                    3D
 Structure written by MMmdl.
162170  0  0  1  0            999 V2000
  -30.6806  -14.4371   20.5823 C   0  0  0  0  0  0
  -30.4249  -12.2809   19.4070 C   0  0  0  0  0  0
  -29.4909  -12.4908   18.1969 C   0  0  0  0  0  0
  -28.0104  -12.3515   18.6099 C   0  0  0  0  0  0
  -27.6595  -13.1900   19.8675 C   0  0  2  0  0  0
  -28.6996  -12.9473   20.9866 C   0  0  0  0  0  0
  -25.2575  -13.8120   20.5611 C   0  0  0  0  0  0
  -24.1827  -13.0428   20.9165 C   0  0  0  0  0  0
  -24.6361  -11.6887   20.8714 C   0  0  0  0  0  0
  -23.9019  -10.4290   21.0398 C   0  0  0  0  0  0
  -24.3586   -9.4208   21.9178 C   0  0  0  0  0  0
  -23.6277   -8.2229   22.0755 C   0  0  0  0  0  0
  -22.4253   -8.0267   21.3552 C   0  0  0  0  0  0
  -21.9879   -9.0230   20.4647 C   0  0  0  0  0  0
  -22.7189  -10.2116   20.3056 C   0  0  0  0  0  0
  -21.6848   -6.0725   22.5276 C   0  0  0  0  0  0
  -21.4013   -6.5644   23.8210 C   0  0  0  0  0  0
  -21.3659   -5.6798   24.9175 C   0  0  0  0  0  0
  -21.6041   -4.3062   24.7228 C   0  0  0  0  0  0
  -21.8822   -3.8149   23.4356 C   0  0  0  0  0  0
  -21.9190   -4.6952   22.3407 C   0  0  0  0  0  0
  -22.7862  -13.5233   21.1855 C   0  0  0  0  0  0
  -22.1664   -4.2146   21.0980 F   0  0  0  0  0  0
  -21.5612   -3.4548   25.7740 F   0  0  0  0  0  0
  -30.0337  -13.2490   20.4409 N   0  0  0  0  0  0
  -26.2995  -12.9261   20.3292 N   0  0  0  0  0  0
  -25.9278  -11.6450   20.5726 N   0  0  0  0  0  0
  -22.0516  -12.8214   22.0413 N   0  0  0  0  0  0
  -25.4331  -15.1827   20.3937 N   0  0  0  0  0  0
  -31.8116  -14.6732   20.1345 O   0  0  0  0  0  0
  -21.6633   -6.8853   21.4240 O   0  0  0  0  0  0
  -22.3553  -14.5553   20.6718 O   0  0  0  0  0  0
  -24.6152  -31.8674   23.2084 C   0  0  0  0  0  0
  -25.9052  -32.4824   23.8377 C   0  0  1  0  0  0
  -27.2428  -27.4459   20.1055 C   0  0  0  0  0  0
  -25.5900  -33.8614   24.2319 N   0  0  0  0  0  0
  -23.4052  -30.4906   21.5454 C   0  0  2  0  0  0
  -24.8553  -28.9523   20.1150 C   0  0  0  0  0  0
  -22.7425  -29.4679   22.4958 C   0  0  0  0  0  0
  -18.0292  -28.1379   22.8470 C   0  0  0  0  0  0
  -24.1488  -36.7327   23.2645 C   0  0  0  0  0  0
  -25.9316  -30.8365   21.3603 C   0  0  0  0  0  0
  -26.0110  -29.4690   20.7129 C   0  0  0  0  0  0
  -27.2092  -28.7219   20.7102 C   0  0  0  0  0  0
  -26.0775  -26.9374   19.5012 C   0  0  0  0  0  0
  -24.8821  -27.6840   19.5069 C   0  0  0  0  0  0
  -23.6143  -29.8177   20.1604 C   0  0  0  0  0  0
  -25.4096  -36.3104   24.0344 C   0  0  1  0  0  0
  -20.5884  -28.3700   23.1297 C   0  0  2  0  0  0
  -20.6796  -26.9422   22.5431 C   0  0  0  0  0  0
  -19.5781  -26.6362   21.5224 C   0  0  0  0  0  0
  -18.1954  -26.7913   22.1617 C   0  0  0  0  0  0
  -19.1530  -28.8854   23.2886 C   0  0  0  0  0  0
  -18.9435  -30.1458   23.8895 C   0  0  0  0  0  0
  -17.6416  -30.6569   24.0545 C   0  0  0  0  0  0
  -25.9033  -34.9474   23.5127 C   0  0  0  0  0  0
  -16.5320  -29.9062   23.6295 C   0  0  0  0  0  0
  -16.7270  -28.6488   23.0312 C   0  0  0  0  0  0
  -26.4463  -31.6607   25.0719 C   0  0  0  0  0  0
  -25.3743  -31.3719   26.1491 C   0  0  0  0  0  0
  -27.0302  -30.3042   24.6116 C   0  0  0  0  0  0
  -27.6029  -32.4328   25.7485 C   0  0  0  0  0  0
  -27.5573  -37.1812   24.8458 C   0  0  0  0  0  0
  -21.4151  -29.3071   22.3696 N   0  0  0  0  0  0
  -26.4285  -37.3781   23.9406 N   0  0  0  0  0  0
  -24.6680  -31.0799   22.0961 N   0  0  0  0  0  0
  -23.4206  -28.8237   23.3024 O   0  0  0  0  0  0
  -28.3916  -26.6918   20.0987 O   0  0  0  0  0  0
  -26.5599  -34.8925   22.4695 O   0  0  0  0  0  0
  -23.5349  -32.1411   23.7512 O   0  0  0  0  0  0
  -30.1468  -16.8193   21.2173 C   0  0  0  0  0  0
  -29.5717  -22.3592   19.6590 C   0  0  0  0  0  0
  -29.1037  -22.1134   22.1296 C   0  0  0  0  0  0
  -29.6507  -23.8622   20.0350 C   0  0  0  0  0  0
  -28.3832  -23.4798   22.1998 C   0  0  0  0  0  0
  -28.9410  -21.4490   20.7489 C   0  0  1  0  0  0
  -28.4742  -24.3369   20.9088 C   0  0  1  0  0  0
  -29.4717  -19.9870   20.6570 C   0  0  0  0  0  0
  -28.5445  -25.8495   21.2497 C   0  0  0  0  0  0
  -29.1708  -19.0929   21.8847 C   0  0  0  0  0  0
  -31.3501  -17.3533   20.9570 N   0  0  0  0  0  0
  -29.8641  -15.4989   21.1088 N   0  0  0  0  0  0
  -29.1482  -17.6409   21.6070 N   0  3  0  0  0  0
  -31.4678  -12.3918   19.1065 H   0  0  0  0  0  0
  -30.3295  -11.2618   19.7865 H   0  0  0  0  0  0
  -29.7238  -11.7734   17.4092 H   0  0  0  0  0  0
  -29.6628  -13.4794   17.7694 H   0  0  0  0  0  0
  -27.8209  -11.2951   18.8062 H   0  0  0  0  0  0
  -27.3596  -12.6262   17.7789 H   0  0  0  0  0  0
  -27.7076  -14.2370   19.5681 H   0  0  0  0  0  0
  -28.6644  -11.9067   21.3141 H   0  0  0  0  0  0
  -28.4629  -13.5296   21.8767 H   0  0  0  0  0  0
  -25.2740   -9.5690   22.4747 H   0  0  0  0  0  0
  -24.0004   -7.4626   22.7483 H   0  0  0  0  0  0
  -21.0811   -8.8723   19.8962 H   0  0  0  0  0  0
  -22.3636  -10.9647   19.6164 H   0  0  0  0  0  0
  -21.2012   -7.6157   23.9705 H   0  0  0  0  0  0
  -21.1479   -6.0539   25.9074 H   0  0  0  0  0  0
  -22.0601   -2.7616   23.2852 H   0  0  0  0  0  0
  -22.4144  -11.9856   22.4761 H   0  0  0  0  0  0
  -21.1149  -13.1262   22.2667 H   0  0  0  0  0  0
  -24.6413  -15.8151   20.4337 H   0  0  0  0  0  0
  -26.2313  -15.5917   19.9264 H   0  0  0  0  0  0
  -26.7149  -32.5532   23.1163 H   0  0  0  0  0  0
  -25.0026  -33.9763   25.0446 H   0  0  0  0  0  0
  -22.6991  -31.3110   21.4030 H   0  0  0  0  0  0
  -23.3739  -35.9679   23.3307 H   0  0  0  0  0  0
  -24.3593  -36.8928   22.2060 H   0  0  0  0  0  0
  -23.7265  -37.6545   23.6649 H   0  0  0  0  0  0
  -26.0508  -31.6020   20.5931 H   0  0  0  0  0  0
  -26.8176  -30.8897   21.9800 H   0  0  0  0  0  0
  -28.1027  -29.1162   21.1725 H   0  0  0  0  0  0
  -26.0948  -25.9610   19.0360 H   0  0  0  0  0  0
  -23.9938  -27.2826   19.0424 H   0  0  0  0  0  0
  -23.7266  -30.5903   19.3995 H   0  0  0  0  0  0
  -22.7366  -29.2381   19.8633 H   0  0  0  0  0  0
  -25.1278  -36.1973   25.0840 H   0  0  0  0  0  0
  -20.9987  -28.3307   24.1423 H   0  0  0  0  0  0
  -20.5750  -26.2280   23.3622 H   0  0  0  0  0  0
  -21.6657  -26.7486   22.1211 H   0  0  0  0  0  0
  -19.6950  -25.6262   21.1261 H   0  0  0  0  0  0
  -19.6706  -27.3186   20.6752 H   0  0  0  0  0  0
  -17.4235  -26.6662   21.4018 H   0  0  0  0  0  0
  -18.0342  -26.0050   22.9016 H   0  0  0  0  0  0
  -19.7891  -30.7309   24.2269 H   0  0  0  0  0  0
  -17.4950  -31.6245   24.5132 H   0  0  0  0  0  0
  -15.5311  -30.2957   23.7591 H   0  0  0  0  0  0
  -15.8689  -28.0832   22.6987 H   0  0  0  0  0  0
  -24.5895  -30.7085   25.7839 H   0  0  0  0  0  0
  -24.8976  -32.2887   26.4967 H   0  0  0  0  0  0
  -25.8129  -30.8869   27.0226 H   0  0  0  0  0  0
  -26.2856  -29.6804   24.1160 H   0  0  0  0  0  0
  -27.4047  -29.7280   25.4586 H   0  0  0  0  0  0
  -27.8700  -30.4347   23.9293 H   0  0  0  0  0  0
  -27.2629  -33.3597   26.2112 H   0  0  0  0  0  0
  -28.3820  -32.6938   25.0314 H   0  0  0  0  0  0
  -28.0732  -31.8437   26.5366 H   0  0  0  0  0  0
  -28.2594  -38.0102   24.7484 H   0  0  0  0  0  0
  -28.1075  -36.2635   24.6307 H   0  0  0  0  0  0
  -27.2309  -37.1485   25.8869 H   0  0  0  0  0  0
  -20.9310  -29.8728   21.6850 H   0  0  0  0  0  0
  -26.0189  -38.2879   24.1364 H   0  0  0  0  0  0
  -30.5890  -22.0307   19.4394 H   0  0  0  0  0  0
  -29.0231  -22.2349   18.7230 H   0  0  0  0  0  0
  -28.7100  -21.4821   22.9259 H   0  0  0  0  0  0
  -30.1666  -22.2387   22.3461 H   0  0  0  0  0  0
  -29.7123  -24.4647   19.1276 H   0  0  0  0  0  0
  -30.5787  -24.0505   20.5773 H   0  0  0  0  0  0
  -28.7871  -24.0306   23.0523 H   0  0  0  0  0  0
  -27.3284  -23.3231   22.4352 H   0  0  0  0  0  0
  -27.8672  -21.4031   20.5611 H   0  0  0  0  0  0
  -27.5630  -24.1637   20.3351 H   0  0  0  0  0  0
  -30.5527  -20.0168   20.5275 H   0  0  0  0  0  0
  -29.0787  -19.5224   19.7514 H   0  0  0  0  0  0
  -29.5007  -26.0765   21.7243 H   0  0  0  0  0  0
  -27.7901  -26.0820   22.0055 H   0  0  0  0  0  0
  -29.8901  -19.2903   22.6808 H   0  0  0  0  0  0
  -28.1893  -19.3433   22.2878 H   0  0  0  0  0  0
  -31.5460  -18.3367   21.0593 H   0  0  0  0  0  0
  -32.0949  -16.7516   20.6213 H   0  0  0  0  0  0
  -28.9427  -15.2626   21.4285 H   0  0  0  0  0  0
  -28.2347  -17.2332   21.7638 H   0  0  0  0  0  0
  1 25  1  0  0  0
  1 30  2  0  0  0
  1 82  1  0  0  0
  2  3  1  0  0  0
  2 25  1  0  0  0
  2 84  1  0  0  0
  2 85  1  0  0  0
  3  4  1  0  0  0
  3 86  1  0  0  0
  3 87  1  0  0  0
  4  5  1  0  0  0
  4 88  1  0  0  0
  4 89  1  0  0  0
  5  6  1  0  0  0
  5 26  1  0  0  0
  5 90  1  0  0  0
  6 25  1  0  0  0
  6 91  1  0  0  0
  6 92  1  0  0  0
  7  8  2  0  0  0
  7 26  1  0  0  0
  7 29  1  0  0  0
  8  9  1  0  0  0
  8 22  1  0  0  0
  9 10  1  0  0  0
  9 27  2  0  0  0
 10 11  2  0  0  0
 10 15  1  0  0  0
 11 12  1  0  0  0
 11 93  1  0  0  0
 12 13  2  0  0  0
 12 94  1  0  0  0
 13 14  1  0  0  0
 13 31  1  0  0  0
 14 15  2  0  0  0
 14 95  1  0  0  0
 15 96  1  0  0  0
 16 17  2  0  0  0
 16 21  1  0  0  0
 16 31  1  0  0  0
 17 18  1  0  0  0
 17 97  1  0  0  0
 18 19  2  0  0  0
 18 98  1  0  0  0
 19 20  1  0  0  0
 19 24  1  0  0  0
 20 21  2  0  0  0
 20 99  1  0  0  0
 21 23  1  0  0  0
 22 28  1  0  0  0
 22 32  2  0  0  0
 26 27  1  0  0  0
 28100  1  0  0  0
 28101  1  0  0  0
 29102  1  0  0  0
 29103  1  0  0  0
 33 34  1  0  0  0
 33 66  1  0  0  0
 33 70  2  0  0  0
 34 36  1  0  0  0
 34 59  1  0  0  0
 34104  1  0  0  0
 35 44  2  0  0  0
 35 45  1  0  0  0
 35 68  1  0  0  0
 36 56  1  0  0  0
 36105  1  0  0  0
 37 39  1  0  0  0
 37 47  1  0  0  0
 37 66  1  0  0  0
 37106  1  0  0  0
 38 43  2  0  0  0
 38 46  1  0  0  0
 38 47  1  0  0  0
 39 64  1  0  0  0
 39 67  2  0  0  0
 40 52  1  0  0  0
 40 53  2  0  0  0
 40 58  1  0  0  0
 41107  1  0  0  0
 41108  1  0  0  0
 41109  1  0  0  0
 41 48  1  0  0  0
 42 43  1  0  0  0
 42 66  1  0  0  0
 42110  1  0  0  0
 42111  1  0  0  0
 43 44  1  0  0  0
 44112  1  0  0  0
 45 46  2  0  0  0
 45113  1  0  0  0
 46114  1  0  0  0
 47115  1  0  0  0
 47116  1  0  0  0
 48 56  1  0  0  0
 48 65  1  0  0  0
 48117  1  0  0  0
 49 50  1  0  0  0
 49 53  1  0  0  0
 49 64  1  0  0  0
 49118  1  0  0  0
 50 51  1  0  0  0
 50119  1  0  0  0
 50120  1  0  0  0
 51 52  1  0  0  0
 51121  1  0  0  0
 51122  1  0  0  0
 52123  1  0  0  0
 52124  1  0  0  0
 53 54  1  0  0  0
 54 55  2  0  0  0
 54125  1  0  0  0
 55 57  1  0  0  0
 55126  1  0  0  0
 56 69  2  0  0  0
 57 58  2  0  0  0
 57127  1  0  0  0
 58128  1  0  0  0
 59 60  1  0  0  0
 59 61  1  0  0  0
 59 62  1  0  0  0
 60129  1  0  0  0
 60130  1  0  0  0
 60131  1  0  0  0
 61132  1  0  0  0
 61133  1  0  0  0
 61134  1  0  0  0
 62135  1  0  0  0
 62136  1  0  0  0
 62137  1  0  0  0
 63 65  1  0  0  0
 63138  1  0  0  0
 63139  1  0  0  0
 63140  1  0  0  0
 64141  1  0  0  0
 65142  1  0  0  0
 68 79  1  0  0  0
 71 81  1  0  0  0
 71 82  1  0  0  0
 71 83  2  0  0  0
 72 74  1  0  0  0
 72 76  1  0  0  0
 72143  1  0  0  0
 72144  1  0  0  0
 73 75  1  0  0  0
 73 76  1  0  0  0
 73145  1  0  0  0
 73146  1  0  0  0
 74 77  1  0  0  0
 74147  1  0  0  0
 74148  1  0  0  0
 75 77  1  0  0  0
 75149  1  0  0  0
 75150  1  0  0  0
 76 78  1  0  0  0
 76151  1  0  0  0
 77 79  1  0  0  0
 77152  1  0  0  0
 78 80  1  0  0  0
 78153  1  0  0  0
 78154  1  0  0  0
 79155  1  0  0  0
 79156  1  0  0  0
 80 83  1  0  0  0
 80157  1  0  0  0
 80158  1  0  0  0
 81159  1  0  0  0
 81160  1  0  0  0
 82161  1  0  0  0
 83162  1  0  0  0
M  CHG  1  83   1
M  ISO  4   1 100  68 101  79 101  82 100
M  END
> <chiral flag>
0

> <version>
0

> <s_m_source_file>
/data/baiqing/PycharmProjects/Reinvent-master-3.2/result/LINK_invent/BTK/process_docking_weight1_custom_sum_contain_oxygen_bond_distance_aromatic_linkinvent_7_9_3/rearranged_h_0131.sdf

> <i_m_source_file_index>
43

> <r_mmod_Potential_Energy-OPLS-2005>
-50.4083442687988

> <r_mmod_Stretch_Energy-OPLS-2005>
36.1688919067383

> <r_mmod_Bend_Energy-OPLS-2005>
109.007171630859

> <r_mmod_Torsional_Energy-OPLS-2005>
281.98681640625

> <r_mmod_Improper_Torsional_Energy-OPLS-2005>
5.45246315002441

> <r_mmod_Van_der_Waal_Energy-OPLS-2005>
142.748550415039

> <r_mmod_Electrostatic_Energy-OPLS-2005>
-212.451568603516

> <r_mmod_Solvation_Energy-OPLS-2005>
-424.268707275391

> <b_mmod_Minimization_Converged-OPLS-2005>
0

> <r_mmod_RMS_Derivative-OPLS-2005>
3.30911207199097

$$$$
43
                    3D
 Structure written by MMmdl.
156164  0  0  1  0            999 V2000
  -30.5533  -14.9310   20.4292 C   0  0  0  0  0  0
  -30.4390  -12.5797   19.5019 C   0  0  0  0  0  0
  -29.5217  -12.5333   18.2588 C   0  0  0  0  0  0
  -28.0503  -12.3307   18.6722 C   0  0  0  0  0  0
  -27.6309  -13.2514   19.8484 C   0  0  2  0  0  0
  -28.6746  -13.2698   20.9854 C   0  0  0  0  0  0
  -25.2446  -13.8207   20.5732 C   0  0  0  0  0  0
  -24.1761  -13.0432   20.9225 C   0  0  0  0  0  0
  -24.6375  -11.6916   20.8740 C   0  0  0  0  0  0
  -23.9051  -10.4293   21.0380 C   0  0  0  0  0  0
  -24.3612   -9.4217   21.9168 C   0  0  0  0  0  0
  -23.6303   -8.2237   22.0733 C   0  0  0  0  0  0
  -22.4285   -8.0260   21.3519 C   0  0  0  0  0  0
  -21.9911   -9.0221   20.4621 C   0  0  0  0  0  0
  -22.7214  -10.2119   20.3032 C   0  0  0  0  0  0
  -21.6863   -6.0726   22.5271 C   0  0  0  0  0  0
  -21.4021   -6.5631   23.8201 C   0  0  0  0  0  0
  -21.3673   -5.6786   24.9168 C   0  0  0  0  0  0
  -21.6045   -4.3041   24.7222 C   0  0  0  0  0  0
  -21.8824   -3.8135   23.4344 C   0  0  0  0  0  0
  -21.9200   -4.6954   22.3403 C   0  0  0  0  0  0
  -22.7780  -13.5187   21.1893 C   0  0  0  0  0  0
  -22.1663   -4.2138   21.0977 F   0  0  0  0  0  0
  -21.5645   -3.4523   25.7735 F   0  0  0  0  0  0
  -29.9494  -13.6774   20.3826 N   0  0  0  0  0  0
  -26.2888  -12.9452   20.3305 N   0  0  0  0  0  0
  -25.9318  -11.6575   20.5761 N   0  0  0  0  0  0
  -22.0458  -12.8136   22.0443 N   0  0  0  0  0  0
  -25.4097  -15.1949   20.4160 N   0  0  0  0  0  0
  -31.7558  -14.9922   20.1578 O   0  0  0  0  0  0
  -21.6645   -6.8860   21.4224 O   0  0  0  0  0  0
  -22.3448  -14.5500   20.6768 O   0  0  0  0  0  0
  -24.6441  -31.8461   23.1876 C   0  0  0  0  0  0
  -25.9215  -32.4707   23.8287 C   0  0  1  0  0  0
  -27.2185  -27.1423   20.1470 C   0  0  0  0  0  0
  -25.5959  -33.8511   24.2205 N   0  0  0  0  0  0
  -23.4503  -30.4639   21.5339 C   0  0  2  0  0  0
  -24.8993  -28.8934   20.1080 C   0  0  0  0  0  0
  -22.7589  -29.4557   22.4867 C   0  0  0  0  0  0
  -18.0322  -28.1393   22.8477 C   0  0  0  0  0  0
  -24.1498  -36.7252   23.2644 C   0  0  0  0  0  0
  -26.0066  -30.7186   21.3898 C   0  0  0  0  0  0
  -26.0756  -29.3323   20.7265 C   0  0  0  0  0  0
  -27.2370  -28.4726   20.7285 C   0  0  0  0  0  0
  -26.0190  -26.8084   19.4795 C   0  0  0  0  0  0
  -24.8833  -27.6448   19.4673 C   0  0  0  0  0  0
  -23.6764  -29.7951   20.1523 C   0  0  0  0  0  0
  -25.4129  -36.3042   24.0325 C   0  0  1  0  0  0
  -20.5934  -28.3723   23.1234 C   0  0  2  0  0  0
  -20.6807  -26.9425   22.5405 C   0  0  0  0  0  0
  -19.5773  -26.6381   21.5223 C   0  0  0  0  0  0
  -18.1951  -26.7930   22.1629 C   0  0  0  0  0  0
  -19.1575  -28.8878   23.2846 C   0  0  0  0  0  0
  -18.9485  -30.1479   23.8861 C   0  0  0  0  0  0
  -17.6476  -30.6577   24.0558 C   0  0  0  0  0  0
  -25.9080  -34.9416   23.5079 C   0  0  0  0  0  0
  -16.5371  -29.9066   23.6333 C   0  0  0  0  0  0
  -16.7308  -28.6496   23.0339 C   0  0  0  0  0  0
  -26.4508  -31.6573   25.0737 C   0  0  0  0  0  0
  -25.3681  -31.3748   26.1422 C   0  0  0  0  0  0
  -27.0380  -30.2973   24.6323 C   0  0  0  0  0  0
  -27.6035  -32.4335   25.7517 C   0  0  0  0  0  0
  -27.5580  -37.1783   24.8457 C   0  0  0  0  0  0
  -21.4284  -29.3045   22.3604 N   0  0  0  0  0  0
  -26.4291  -37.3754   23.9406 N   0  0  0  0  0  0
  -24.7200  -31.0311   22.0911 N   0  0  0  0  0  0
  -23.4219  -28.8118   23.3040 O   0  0  0  0  0  0
  -28.2654  -26.1537   20.2355 O   0  0  0  0  0  0
  -26.5657  -34.8905   22.4650 O   0  0  0  0  0  0
  -23.5563  -32.1339   23.7087 O   0  0  0  0  0  0
  -30.0382  -21.2457   18.1195 C   0  0  0  0  0  0
  -28.5925  -21.5909   18.5076 C   0  0  0  0  0  0
  -30.7050  -20.7208   19.4039 C   0  0  0  0  0  0
  -28.6281  -21.6898   20.0365 C   0  0  2  0  0  0
  -28.9504  -23.3091   20.4299 C   0  0  0  0  0  0
  -30.2008  -17.6498   20.5184 C   0  0  0  0  0  0
  -29.1478  -18.9689   20.3617 C   0  0  0  0  0  0
  -27.9903  -24.6362   20.0133 C   0  0  0  0  0  0
  -29.7905  -16.1214   20.5724 N   0  0  0  0  0  0
  -29.6147  -20.4960   20.3764 N   0  3  1  0  0  0
  -31.4750  -12.7305   19.1946 H   0  0  0  0  0  0
  -30.4241  -11.6274   20.0328 H   0  0  0  0  0  0
  -29.8362  -11.7388   17.5812 H   0  0  0  0  0  0
  -29.6190  -13.4677   17.7038 H   0  0  0  0  0  0
  -27.9274  -11.2854   18.9585 H   0  0  0  0  0  0
  -27.3935  -12.4909   17.8175 H   0  0  0  0  0  0
  -27.5980  -14.2591   19.4334 H   0  0  0  0  0  0
  -28.7572  -12.2916   21.4613 H   0  0  0  0  0  0
  -28.3806  -13.9686   21.7707 H   0  0  0  0  0  0
  -25.2755   -9.5712   22.4740 H   0  0  0  0  0  0
  -24.0033   -7.4623   22.7441 H   0  0  0  0  0  0
  -21.0856   -8.8705   19.8911 H   0  0  0  0  0  0
  -22.3646  -10.9646   19.6137 H   0  0  0  0  0  0
  -21.2000   -7.6136   23.9702 H   0  0  0  0  0  0
  -21.1500   -6.0515   25.9076 H   0  0  0  0  0  0
  -22.0600   -2.7596   23.2839 H   0  0  0  0  0  0
  -22.4141  -11.9814   22.4812 H   0  0  0  0  0  0
  -21.1064  -13.1097   22.2680 H   0  0  0  0  0  0
  -24.6333  -15.8391   20.5185 H   0  0  0  0  0  0
  -26.2440  -15.6351   20.0517 H   0  0  0  0  0  0
  -26.7298  -32.5304   23.1034 H   0  0  0  0  0  0
  -25.0092  -33.9635   25.0343 H   0  0  0  0  0  0
  -22.7536  -31.2893   21.3789 H   0  0  0  0  0  0
  -23.3782  -35.9562   23.3288 H   0  0  0  0  0  0
  -24.3592  -36.8898   22.2062 H   0  0  0  0  0  0
  -23.7228  -37.6433   23.6690 H   0  0  0  0  0  0
  -26.1738  -31.4770   20.6228 H   0  0  0  0  0  0
  -26.8713  -30.7585   22.0401 H   0  0  0  0  0  0
  -28.1344  -28.8024   21.2330 H   0  0  0  0  0  0
  -25.9237  -25.8578   18.9769 H   0  0  0  0  0  0
  -23.9869  -27.3067   18.9656 H   0  0  0  0  0  0
  -23.8135  -30.5699   19.3970 H   0  0  0  0  0  0
  -22.7908  -29.2374   19.8442 H   0  0  0  0  0  0
  -25.1320  -36.1882   25.0820 H   0  0  0  0  0  0
  -21.0034  -28.3319   24.1357 H   0  0  0  0  0  0
  -20.5726  -26.2336   23.3633 H   0  0  0  0  0  0
  -21.6667  -26.7435   22.1187 H   0  0  0  0  0  0
  -19.6929  -25.6290   21.1256 H   0  0  0  0  0  0
  -19.6699  -27.3195   20.6757 H   0  0  0  0  0  0
  -17.4231  -26.6701   21.4021 H   0  0  0  0  0  0
  -18.0317  -26.0072   22.9019 H   0  0  0  0  0  0
  -19.7959  -30.7312   24.2198 H   0  0  0  0  0  0
  -17.5021  -31.6251   24.5173 H   0  0  0  0  0  0
  -15.5363  -30.2942   23.7676 H   0  0  0  0  0  0
  -15.8719  -28.0808   22.7037 H   0  0  0  0  0  0
  -24.5866  -30.7100   25.7725 H   0  0  0  0  0  0
  -24.8852  -32.2919   26.4811 H   0  0  0  0  0  0
  -25.7948  -30.8931   27.0233 H   0  0  0  0  0  0
  -26.3006  -29.6692   24.1307 H   0  0  0  0  0  0
  -27.3974  -29.7278   25.4906 H   0  0  0  0  0  0
  -27.8928  -30.4224   23.9671 H   0  0  0  0  0  0
  -27.2640  -33.3655   26.2050 H   0  0  0  0  0  0
  -28.3860  -32.6867   25.0351 H   0  0  0  0  0  0
  -28.0698  -31.8493   26.5462 H   0  0  0  0  0  0
  -28.2575  -38.0100   24.7534 H   0  0  0  0  0  0
  -28.1099  -36.2629   24.6258 H   0  0  0  0  0  0
  -27.2295  -37.1401   25.8857 H   0  0  0  0  0  0
  -20.9510  -29.8735   21.6750 H   0  0  0  0  0  0
  -26.0165  -38.2831   24.1387 H   0  0  0  0  0  0
  -30.5697  -22.1239   17.7504 H   0  0  0  0  0  0
  -30.0529  -20.4988   17.3262 H   0  0  0  0  0  0
  -27.9302  -20.7748   18.2146 H   0  0  0  0  0  0
  -28.2212  -22.4850   18.0092 H   0  0  0  0  0  0
  -31.3567  -21.4956   19.8102 H   0  0  0  0  0  0
  -31.3362  -19.8520   19.2265 H   0  0  0  0  0  0
  -27.6499  -21.4437   20.4496 H   0  0  0  0  0  0
  -29.9446  -23.5307   20.0430 H   0  0  0  0  0  0
  -29.0625  -23.3433   21.5132 H   0  0  0  0  0  0
  -30.7930  -17.8218   21.4175 H   0  0  0  0  0  0
  -30.9186  -17.7087   19.7004 H   0  0  0  0  0  0
  -28.3864  -18.8824   21.1369 H   0  0  0  0  0  0
  -28.6084  -18.8277   19.4259 H   0  0  0  0  0  0
  -27.0180  -24.4389   20.4669 H   0  0  0  0  0  0
  -27.8185  -24.5504   18.9401 H   0  0  0  0  0  0
  -28.8104  -15.9548   20.7506 H   0  0  0  0  0  0
  -29.9813  -20.6526   21.3044 H   0  0  0  0  0  0
  1 25  1  0  0  0
  1 30  2  0  0  0
  1 79  1  0  0  0
  2  3  1  0  0  0
  2 25  1  0  0  0
  2 81  1  0  0  0
  2 82  1  0  0  0
  3  4  1  0  0  0
  3 83  1  0  0  0
  3 84  1  0  0  0
  4  5  1  0  0  0
  4 85  1  0  0  0
  4 86  1  0  0  0
  5  6  1  0  0  0
  5 26  1  0  0  0
  5 87  1  0  0  0
  6 25  1  0  0  0
  6 88  1  0  0  0
  6 89  1  0  0  0
  7  8  2  0  0  0
  7 26  1  0  0  0
  7 29  1  0  0  0
  8  9  1  0  0  0
  8 22  1  0  0  0
  9 10  1  0  0  0
  9 27  2  0  0  0
 10 11  2  0  0  0
 10 15  1  0  0  0
 11 12  1  0  0  0
 11 90  1  0  0  0
 12 13  2  0  0  0
 12 91  1  0  0  0
 13 14  1  0  0  0
 13 31  1  0  0  0
 14 15  2  0  0  0
 14 92  1  0  0  0
 15 93  1  0  0  0
 16 17  2  0  0  0
 16 21  1  0  0  0
 16 31  1  0  0  0
 17 18  1  0  0  0
 17 94  1  0  0  0
 18 19  2  0  0  0
 18 95  1  0  0  0
 19 20  1  0  0  0
 19 24  1  0  0  0
 20 21  2  0  0  0
 20 96  1  0  0  0
 21 23  1  0  0  0
 22 28  1  0  0  0
 22 32  2  0  0  0
 26 27  1  0  0  0
 28 97  1  0  0  0
 28 98  1  0  0  0
 29 99  1  0  0  0
 29100  1  0  0  0
 33 34  1  0  0  0
 33 66  1  0  0  0
 33 70  2  0  0  0
 34 36  1  0  0  0
 34 59  1  0  0  0
 34101  1  0  0  0
 35 44  2  0  0  0
 35 45  1  0  0  0
 35 68  1  0  0  0
 36 56  1  0  0  0
 36102  1  0  0  0
 37 39  1  0  0  0
 37 47  1  0  0  0
 37 66  1  0  0  0
 37103  1  0  0  0
 38 43  2  0  0  0
 38 46  1  0  0  0
 38 47  1  0  0  0
 39 64  1  0  0  0
 39 67  2  0  0  0
 40 52  1  0  0  0
 40 53  2  0  0  0
 40 58  1  0  0  0
 41104  1  0  0  0
 41105  1  0  0  0
 41106  1  0  0  0
 41 48  1  0  0  0
 42 43  1  0  0  0
 42 66  1  0  0  0
 42107  1  0  0  0
 42108  1  0  0  0
 43 44  1  0  0  0
 44109  1  0  0  0
 45 46  2  0  0  0
 45110  1  0  0  0
 46111  1  0  0  0
 47112  1  0  0  0
 47113  1  0  0  0
 48 56  1  0  0  0
 48 65  1  0  0  0
 48114  1  0  0  0
 49 50  1  0  0  0
 49 53  1  0  0  0
 49 64  1  0  0  0
 49115  1  0  0  0
 50 51  1  0  0  0
 50116  1  0  0  0
 50117  1  0  0  0
 51 52  1  0  0  0
 51118  1  0  0  0
 51119  1  0  0  0
 52120  1  0  0  0
 52121  1  0  0  0
 53 54  1  0  0  0
 54 55  2  0  0  0
 54122  1  0  0  0
 55 57  1  0  0  0
 55123  1  0  0  0
 56 69  2  0  0  0
 57 58  2  0  0  0
 57124  1  0  0  0
 58125  1  0  0  0
 59 60  1  0  0  0
 59 61  1  0  0  0
 59 62  1  0  0  0
 60126  1  0  0  0
 60127  1  0  0  0
 60128  1  0  0  0
 61129  1  0  0  0
 61130  1  0  0  0
 61131  1  0  0  0
 62132  1  0  0  0
 62133  1  0  0  0
 62134  1  0  0  0
 63 65  1  0  0  0
 63135  1  0  0  0
 63136  1  0  0  0
 63137  1  0  0  0
 64138  1  0  0  0
 65139  1  0  0  0
 68 78  1  0  0  0
 71 72  1  0  0  0
 71 73  1  0  0  0
 71140  1  0  0  0
 71141  1  0  0  0
 72 74  1  0  0  0
 72142  1  0  0  0
 72143  1  0  0  0
 73 80  1  0  0  0
 73144  1  0  0  0
 73145  1  0  0  0
 74 75  1  0  0  0
 74 80  1  0  0  0
 74146  1  0  0  0
 75 78  1  0  0  0
 75147  1  0  0  0
 75148  1  0  0  0
 76 77  1  0  0  0
 76 79  1  0  0  0
 76149  1  0  0  0
 76150  1  0  0  0
 77151  1  0  0  0
 77152  1  0  0  0
 77 80  1  0  0  0
 78153  1  0  0  0
 78154  1  0  0  0
 79155  1  0  0  0
 80156  1  0  0  0
M  CHG  1  80   1
M  ISO  4   1 100  68 101  78 101  79 100
M  END
> <chiral flag>
0

> <version>
0

> <s_m_source_file>
/data/baiqing/PycharmProjects/Reinvent-master-3.2/result/LINK_invent/BTK/process_docking_weight1_custom_sum_contain_oxygen_bond_distance_aromatic_linkinvent_7_9_3/rearranged_h_0131.sdf

> <i_m_source_file_index>
44

> <r_mmod_Potential_Energy-OPLS-2005>
408.392578125

> <r_mmod_Stretch_Energy-OPLS-2005>
266.914672851562

> <r_mmod_Bend_Energy-OPLS-2005>
280.973052978516

> <r_mmod_Torsional_Energy-OPLS-2005>
276.399566650391

> <r_mmod_Improper_Torsional_Energy-OPLS-2005>
4.37805795669556

> <r_mmod_Van_der_Waal_Energy-OPLS-2005>
114.840286254883

> <r_mmod_Electrostatic_Energy-OPLS-2005>
-252.095306396484

> <r_mmod_Solvation_Energy-OPLS-2005>
-468.687561035156

> <b_mmod_Minimization_Converged-OPLS-2005>
0

> <r_mmod_RMS_Derivative-OPLS-2005>
2.13541674613953

$$$$
44
                    3D
 Structure written by MMmdl.
152160  0  0  1  0            999 V2000
  -30.6037  -14.7713   20.4310 C   0  0  0  0  0  0
  -30.4391  -12.4741   19.4726 C   0  0  0  0  0  0
  -29.5167  -12.5060   18.2331 C   0  0  0  0  0  0
  -28.0404  -12.3365   18.6423 C   0  0  0  0  0  0
  -27.6416  -13.2382   19.8419 C   0  0  2  0  0  0
  -28.6838  -13.1864   20.9795 C   0  0  0  0  0  0
  -25.2520  -13.8228   20.5737 C   0  0  0  0  0  0
  -24.1810  -13.0444   20.9249 C   0  0  0  0  0  0
  -24.6438  -11.6941   20.8751 C   0  0  0  0  0  0
  -23.9126  -10.4300   21.0411 C   0  0  0  0  0  0
  -24.3669   -9.4200   21.9168 C   0  0  0  0  0  0
  -23.6324   -8.2247   22.0738 C   0  0  0  0  0  0
  -22.4284   -8.0321   21.3548 C   0  0  0  0  0  0
  -21.9955   -9.0302   20.4636 C   0  0  0  0  0  0
  -22.7319  -10.2172   20.3044 C   0  0  0  0  0  0
  -21.6853   -6.0783   22.5284 C   0  0  0  0  0  0
  -21.4022   -6.5660   23.8229 C   0  0  0  0  0  0
  -21.3660   -5.6799   24.9173 C   0  0  0  0  0  0
  -21.6036   -4.3066   24.7202 C   0  0  0  0  0  0
  -21.8810   -3.8182   23.4314 C   0  0  0  0  0  0
  -21.9187   -4.7015   22.3392 C   0  0  0  0  0  0
  -22.7824  -13.5242   21.1878 C   0  0  0  0  0  0
  -22.1643   -4.2215   21.0960 F   0  0  0  0  0  0
  -21.5625   -3.4524   25.7700 F   0  0  0  0  0  0
  -29.9911  -13.5359   20.4037 N   0  0  0  0  0  0
  -26.2932  -12.9460   20.3202 N   0  0  0  0  0  0
  -25.9352  -11.6581   20.5647 N   0  0  0  0  0  0
  -22.0450  -12.8234   22.0430 N   0  0  0  0  0  0
  -25.4170  -15.1960   20.4247 N   0  0  0  0  0  0
  -31.7834  -14.8803   20.0859 O   0  0  0  0  0  0
  -21.6631   -6.8945   21.4248 O   0  0  0  0  0  0
  -22.3509  -14.5531   20.6707 O   0  0  0  0  0  0
  -24.6329  -31.8611   23.1992 C   0  0  0  0  0  0
  -25.9164  -32.4781   23.8341 C   0  0  1  0  0  0
  -27.2388  -27.2901   20.0979 C   0  0  0  0  0  0
  -25.5965  -33.8576   24.2257 N   0  0  0  0  0  0
  -23.4282  -30.4850   21.5462 C   0  0  2  0  0  0
  -24.8779  -28.9395   20.1094 C   0  0  0  0  0  0
  -22.7512  -29.4648   22.4941 C   0  0  0  0  0  0
  -18.0313  -28.1438   22.8522 C   0  0  0  0  0  0
  -24.1495  -36.7279   23.2638 C   0  0  0  0  0  0
  -25.9774  -30.7780   21.3769 C   0  0  0  0  0  0
  -26.0543  -29.4074   20.7099 C   0  0  0  0  0  0
  -27.2365  -28.6003   20.6893 C   0  0  0  0  0  0
  -26.0318  -26.8906   19.4724 C   0  0  0  0  0  0
  -24.8726  -27.6893   19.4790 C   0  0  0  0  0  0
  -23.6448  -29.8229   20.1628 C   0  0  0  0  0  0
  -25.4125  -36.3070   24.0316 C   0  0  1  0  0  0
  -20.5914  -28.3743   23.1297 C   0  0  2  0  0  0
  -20.6798  -26.9460   22.5439 C   0  0  0  0  0  0
  -19.5748  -26.6422   21.5274 C   0  0  0  0  0  0
  -18.1937  -26.7974   22.1680 C   0  0  0  0  0  0
  -19.1564  -28.8916   23.2899 C   0  0  0  0  0  0
  -18.9462  -30.1515   23.8912 C   0  0  0  0  0  0
  -17.6456  -30.6621   24.0593 C   0  0  0  0  0  0
  -25.9067  -34.9460   23.5090 C   0  0  0  0  0  0
  -16.5357  -29.9118   23.6351 C   0  0  0  0  0  0
  -16.7292  -28.6554   23.0343 C   0  0  0  0  0  0
  -26.4502  -31.6587   25.0733 C   0  0  0  0  0  0
  -25.3697  -31.3767   26.1437 C   0  0  0  0  0  0
  -27.0323  -30.2985   24.6221 C   0  0  0  0  0  0
  -27.6056  -32.4336   25.7505 C   0  0  0  0  0  0
  -27.5575  -37.1798   24.8466 C   0  0  0  0  0  0
  -21.4220  -29.3082   22.3682 N   0  0  0  0  0  0
  -26.4293  -37.3769   23.9423 N   0  0  0  0  0  0
  -24.6999  -31.0570   22.0983 N   0  0  0  0  0  0
  -23.4215  -28.8198   23.3041 O   0  0  0  0  0  0
  -28.3435  -26.3979   20.1402 O   0  0  0  0  0  0
  -26.5639  -34.8914   22.4654 O   0  0  0  0  0  0
  -23.5485  -32.1455   23.7287 O   0  0  0  0  0  0
  -31.4176  -22.9491   20.4371 C   0  0  0  0  0  0
  -30.4982  -24.0246   20.3359 C   0  0  0  0  0  0
  -31.0054  -21.5932   20.4370 C   0  0  0  0  0  0
  -28.7266  -22.3703   20.1960 C   0  0  0  0  0  0
  -29.1133  -23.7688   20.2209 C   0  0  0  0  0  0
  -29.6418  -21.2510   20.3061 C   0  0  0  0  0  0
  -28.0368  -24.9284   20.0775 C   0  0  0  0  0  0
  -29.8912  -18.6404   20.8221 C   0  0  0  0  0  0
  -29.9557  -17.2834   19.9465 C   0  0  0  0  0  0
  -29.2179  -19.8666   20.2302 N   0  0  0  0  0  0
  -29.8110  -15.8978   20.5846 N   0  0  0  0  0  0
  -31.4762  -12.6106   19.1624 H   0  0  0  0  0  0
  -30.4019  -11.5048   19.9669 H   0  0  0  0  0  0
  -29.8039  -11.7200   17.5332 H   0  0  0  0  0  0
  -29.6381  -13.4467   17.6945 H   0  0  0  0  0  0
  -27.8957  -11.2878   18.9013 H   0  0  0  0  0  0
  -27.3912  -12.5275   17.7869 H   0  0  0  0  0  0
  -27.6284  -14.2590   19.4554 H   0  0  0  0  0  0
  -28.7218  -12.1940   21.4290 H   0  0  0  0  0  0
  -28.4113  -13.8780   21.7807 H   0  0  0  0  0  0
  -25.2827   -9.5653   22.4724 H   0  0  0  0  0  0
  -24.0036   -7.4629   22.7452 H   0  0  0  0  0  0
  -21.0883   -8.8856   19.8930 H   0  0  0  0  0  0
  -22.3804  -10.9713   19.6137 H   0  0  0  0  0  0
  -21.2010   -7.6169   23.9759 H   0  0  0  0  0  0
  -21.1479   -6.0504   25.9086 H   0  0  0  0  0  0
  -22.0588   -2.7637   23.2762 H   0  0  0  0  0  0
  -22.4091  -11.9970   22.4908 H   0  0  0  0  0  0
  -21.1019  -13.1209   22.2534 H   0  0  0  0  0  0
  -24.6494  -15.8421   20.5756 H   0  0  0  0  0  0
  -26.2602  -15.6487   20.0954 H   0  0  0  0  0  0
  -26.7258  -32.5406   23.1093 H   0  0  0  0  0  0
  -25.0120  -33.9746   25.0397 H   0  0  0  0  0  0
  -22.7230  -31.3072   21.4072 H   0  0  0  0  0  0
  -23.3740  -35.9621   23.3318 H   0  0  0  0  0  0
  -24.3589  -36.8893   22.2048 H   0  0  0  0  0  0
  -23.7242  -37.6487   23.6650 H   0  0  0  0  0  0
  -26.1164  -31.5443   20.6137 H   0  0  0  0  0  0
  -26.8554  -30.8227   22.0102 H   0  0  0  0  0  0
  -28.1343  -28.9693   21.1648 H   0  0  0  0  0  0
  -25.9418  -25.9415   18.9666 H   0  0  0  0  0  0
  -23.9721  -27.3271   18.9989 H   0  0  0  0  0  0
  -23.7595  -30.6081   19.4144 H   0  0  0  0  0  0
  -22.7614  -29.2584   19.8602 H   0  0  0  0  0  0
  -25.1286  -36.1924   25.0801 H   0  0  0  0  0  0
  -21.0016  -28.3341   24.1405 H   0  0  0  0  0  0
  -20.5788  -26.2356   23.3650 H   0  0  0  0  0  0
  -21.6647  -26.7548   22.1166 H   0  0  0  0  0  0
  -19.6903  -25.6336   21.1300 H   0  0  0  0  0  0
  -19.6654  -27.3242   20.6809 H   0  0  0  0  0  0
  -17.4205  -26.6784   21.4063 H   0  0  0  0  0  0
  -18.0281  -26.0124   22.9081 H   0  0  0  0  0  0
  -19.7921  -30.7375   24.2240 H   0  0  0  0  0  0
  -17.4986  -31.6279   24.5221 H   0  0  0  0  0  0
  -15.5338  -30.3006   23.7661 H   0  0  0  0  0  0
  -15.8706  -28.0885   22.6991 H   0  0  0  0  0  0
  -24.5907  -30.7076   25.7770 H   0  0  0  0  0  0
  -24.8841  -32.2949   26.4755 H   0  0  0  0  0  0
  -25.8003  -30.9034   27.0263 H   0  0  0  0  0  0
  -26.2911  -29.6761   24.1204 H   0  0  0  0  0  0
  -27.3937  -29.7226   25.4743 H   0  0  0  0  0  0
  -27.8805  -30.4227   23.9490 H   0  0  0  0  0  0
  -27.2663  -33.3659   26.2012 H   0  0  0  0  0  0
  -28.3877  -32.6868   25.0344 H   0  0  0  0  0  0
  -28.0680  -31.8503   26.5467 H   0  0  0  0  0  0
  -28.2590  -38.0092   24.7500 H   0  0  0  0  0  0
  -28.1069  -36.2626   24.6295 H   0  0  0  0  0  0
  -27.2308  -37.1440   25.8872 H   0  0  0  0  0  0
  -20.9433  -29.8729   21.6803 H   0  0  0  0  0  0
  -26.0161  -38.2851   24.1388 H   0  0  0  0  0  0
  -32.4748  -23.1646   20.5015 H   0  0  0  0  0  0
  -30.8721  -25.0398   20.3297 H   0  0  0  0  0  0
  -31.7629  -20.8251   20.5014 H   0  0  0  0  0  0
  -27.6724  -22.1635   20.0782 H   0  0  0  0  0  0
  -27.2886  -24.7433   20.8513 H   0  0  0  0  0  0
  -27.5684  -24.6977   19.1214 H   0  0  0  0  0  0
  -30.9035  -18.8942   21.1323 H   0  0  0  0  0  0
  -29.3641  -18.4062   21.7495 H   0  0  0  0  0  0
  -30.8723  -17.3074   19.3558 H   0  0  0  0  0  0
  -29.1576  -17.3333   19.2032 H   0  0  0  0  0  0
  -28.2117  -19.7612   20.1228 H   0  0  0  0  0  0
  -28.8787  -15.6973   20.9135 H   0  0  0  0  0  0
  1 25  1  0  0  0
  1 30  2  0  0  0
  1 81  1  0  0  0
  2  3  1  0  0  0
  2 25  1  0  0  0
  2 82  1  0  0  0
  2 83  1  0  0  0
  3  4  1  0  0  0
  3 84  1  0  0  0
  3 85  1  0  0  0
  4  5  1  0  0  0
  4 86  1  0  0  0
  4 87  1  0  0  0
  5  6  1  0  0  0
  5 26  1  0  0  0
  5 88  1  0  0  0
  6 25  1  0  0  0
  6 89  1  0  0  0
  6 90  1  0  0  0
  7  8  2  0  0  0
  7 26  1  0  0  0
  7 29  1  0  0  0
  8  9  1  0  0  0
  8 22  1  0  0  0
  9 10  1  0  0  0
  9 27  2  0  0  0
 10 11  2  0  0  0
 10 15  1  0  0  0
 11 12  1  0  0  0
 11 91  1  0  0  0
 12 13  2  0  0  0
 12 92  1  0  0  0
 13 14  1  0  0  0
 13 31  1  0  0  0
 14 15  2  0  0  0
 14 93  1  0  0  0
 15 94  1  0  0  0
 16 17  2  0  0  0
 16 21  1  0  0  0
 16 31  1  0  0  0
 17 18  1  0  0  0
 17 95  1  0  0  0
 18 19  2  0  0  0
 18 96  1  0  0  0
 19 20  1  0  0  0
 19 24  1  0  0  0
 20 21  2  0  0  0
 20 97  1  0  0  0
 21 23  1  0  0  0
 22 28  1  0  0  0
 22 32  2  0  0  0
 26 27  1  0  0  0
 28 98  1  0  0  0
 28 99  1  0  0  0
 29100  1  0  0  0
 29101  1  0  0  0
 33 34  1  0  0  0
 33 66  1  0  0  0
 33 70  2  0  0  0
 34 36  1  0  0  0
 34 59  1  0  0  0
 34102  1  0  0  0
 35 44  2  0  0  0
 35 45  1  0  0  0
 35 68  1  0  0  0
 36 56  1  0  0  0
 36103  1  0  0  0
 37 39  1  0  0  0
 37 47  1  0  0  0
 37 66  1  0  0  0
 37104  1  0  0  0
 38 43  2  0  0  0
 38 46  1  0  0  0
 38 47  1  0  0  0
 39 64  1  0  0  0
 39 67  2  0  0  0
 40 52  1  0  0  0
 40 53  2  0  0  0
 40 58  1  0  0  0
 41105  1  0  0  0
 41106  1  0  0  0
 41107  1  0  0  0
 41 48  1  0  0  0
 42 43  1  0  0  0
 42 66  1  0  0  0
 42108  1  0  0  0
 42109  1  0  0  0
 43 44  1  0  0  0
 44110  1  0  0  0
 45 46  2  0  0  0
 45111  1  0  0  0
 46112  1  0  0  0
 47113  1  0  0  0
 47114  1  0  0  0
 48 56  1  0  0  0
 48 65  1  0  0  0
 48115  1  0  0  0
 49 50  1  0  0  0
 49 53  1  0  0  0
 49 64  1  0  0  0
 49116  1  0  0  0
 50 51  1  0  0  0
 50117  1  0  0  0
 50118  1  0  0  0
 51 52  1  0  0  0
 51119  1  0  0  0
 51120  1  0  0  0
 52121  1  0  0  0
 52122  1  0  0  0
 53 54  1  0  0  0
 54 55  2  0  0  0
 54123  1  0  0  0
 55 57  1  0  0  0
 55124  1  0  0  0
 56 69  2  0  0  0
 57 58  2  0  0  0
 57125  1  0  0  0
 58126  1  0  0  0
 59 60  1  0  0  0
 59 61  1  0  0  0
 59 62  1  0  0  0
 60127  1  0  0  0
 60128  1  0  0  0
 60129  1  0  0  0
 61130  1  0  0  0
 61131  1  0  0  0
 61132  1  0  0  0
 62133  1  0  0  0
 62134  1  0  0  0
 62135  1  0  0  0
 63 65  1  0  0  0
 63136  1  0  0  0
 63137  1  0  0  0
 63138  1  0  0  0
 64139  1  0  0  0
 65140  1  0  0  0
 68 77  1  0  0  0
 71 72  2  0  0  0
 71 73  1  0  0  0
 71141  1  0  0  0
 72 75  1  0  0  0
 72142  1  0  0  0
 73 76  2  0  0  0
 73143  1  0  0  0
 74 75  2  0  0  0
 74 76  1  0  0  0
 74144  1  0  0  0
 75 77  1  0  0  0
 76 80  1  0  0  0
 77145  1  0  0  0
 77146  1  0  0  0
 78 79  1  0  0  0
 78 80  1  0  0  0
 78147  1  0  0  0
 78148  1  0  0  0
 79 81  1  0  0  0
 79149  1  0  0  0
 79150  1  0  0  0
 80151  1  0  0  0
 81152  1  0  0  0
M  ISO  4   1 100  68 101  77 101  81 100
M  END
> <chiral flag>
0

> <version>
0

> <s_m_source_file>
/data/baiqing/PycharmProjects/Reinvent-master-3.2/result/LINK_invent/BTK/process_docking_weight1_custom_sum_contain_oxygen_bond_distance_aromatic_linkinvent_7_9_3/rearranged_h_0131.sdf

> <i_m_source_file_index>
45

> <r_mmod_Potential_Energy-OPLS-2005>
97.4958877563477

> <r_mmod_Stretch_Energy-OPLS-2005>
114.411865234375

> <r_mmod_Bend_Energy-OPLS-2005>
169.167358398438

> <r_mmod_Torsional_Energy-OPLS-2005>
218.305221557617

> <r_mmod_Improper_Torsional_Energy-OPLS-2005>
9.30879402160645

> <r_mmod_Van_der_Waal_Energy-OPLS-2005>
141.872970581055

> <r_mmod_Electrostatic_Energy-OPLS-2005>
-413.545471191406

> <r_mmod_Solvation_Energy-OPLS-2005>
-227.949829101562

> <b_mmod_Minimization_Converged-OPLS-2005>
0

> <r_mmod_RMS_Derivative-OPLS-2005>
4.96575164794922

$$$$
45
                    3D
 Structure written by MMmdl.
147155  0  0  1  0            999 V2000
  -30.4751  -15.1823   20.3805 C   0  0  0  0  0  0
  -30.4354  -12.7503   19.5208 C   0  0  0  0  0  0
  -29.5293  -12.5597   18.2802 C   0  0  0  0  0  0
  -28.0737  -12.3019   18.7063 C   0  0  0  0  0  0
  -27.6140  -13.2691   19.8262 C   0  0  2  0  0  0
  -28.6501  -13.4142   20.9608 C   0  0  0  0  0  0
  -25.2396  -13.8243   20.5741 C   0  0  0  0  0  0
  -24.1743  -13.0438   20.9256 C   0  0  0  0  0  0
  -24.6391  -11.6934   20.8765 C   0  0  0  0  0  0
  -23.9084  -10.4293   21.0410 C   0  0  0  0  0  0
  -24.3633   -9.4206   21.9185 C   0  0  0  0  0  0
  -23.6307   -8.2242   22.0750 C   0  0  0  0  0  0
  -22.4286   -8.0281   21.3544 C   0  0  0  0  0  0
  -21.9928   -9.0255   20.4643 C   0  0  0  0  0  0
  -22.7259  -10.2134   20.3055 C   0  0  0  0  0  0
  -21.6855   -6.0739   22.5281 C   0  0  0  0  0  0
  -21.4015   -6.5642   23.8214 C   0  0  0  0  0  0
  -21.3659   -5.6794   24.9175 C   0  0  0  0  0  0
  -21.6045   -4.3055   24.7226 C   0  0  0  0  0  0
  -21.8819   -3.8149   23.4346 C   0  0  0  0  0  0
  -21.9196   -4.6968   22.3404 C   0  0  0  0  0  0
  -22.7761  -13.5192   21.1912 C   0  0  0  0  0  0
  -22.1663   -4.2153   21.0981 F   0  0  0  0  0  0
  -21.5631   -3.4538   25.7738 F   0  0  0  0  0  0
  -29.8927  -13.8922   20.3375 N   0  0  0  0  0  0
  -26.2822  -12.9509   20.3229 N   0  0  0  0  0  0
  -25.9325  -11.6618   20.5732 N   0  0  0  0  0  0
  -22.0426  -12.8163   22.0464 N   0  0  0  0  0  0
  -25.4030  -15.1977   20.4173 N   0  0  0  0  0  0
  -31.6935  -15.1828   20.1597 O   0  0  0  0  0  0
  -21.6644   -6.8882   21.4241 O   0  0  0  0  0  0
  -22.3438  -14.5497   20.6759 O   0  0  0  0  0  0
  -24.6588  -31.8286   23.1761 C   0  0  0  0  0  0
  -25.9293  -32.4618   23.8201 C   0  0  1  0  0  0
  -27.2114  -26.9740   20.1745 C   0  0  0  0  0  0
  -25.5981  -33.8429   24.2108 N   0  0  0  0  0  0
  -23.4707  -30.4443   21.5237 C   0  0  2  0  0  0
  -24.9232  -28.8455   20.1093 C   0  0  0  0  0  0
  -22.7642  -29.4472   22.4790 C   0  0  0  0  0  0
  -18.0320  -28.1410   22.8475 C   0  0  0  0  0  0
  -24.1486  -36.7203   23.2645 C   0  0  0  0  0  0
  -26.0381  -30.6502   21.4006 C   0  0  0  0  0  0
  -26.1063  -29.2463   20.7427 C   0  0  0  0  0  0
  -27.2474  -28.3300   20.7549 C   0  0  0  0  0  0
  -26.0015  -26.7223   19.4877 C   0  0  0  0  0  0
  -24.8939  -27.6023   19.4623 C   0  0  0  0  0  0
  -23.7077  -29.7672   20.1472 C   0  0  0  0  0  0
  -25.4125  -36.2979   24.0306 C   0  0  1  0  0  0
  -20.5944  -28.3749   23.1193 C   0  0  2  0  0  0
  -20.6796  -26.9435   22.5401 C   0  0  0  0  0  0
  -19.5767  -26.6385   21.5213 C   0  0  0  0  0  0
  -18.1950  -26.7945   22.1627 C   0  0  0  0  0  0
  -19.1582  -28.8900   23.2826 C   0  0  0  0  0  0
  -18.9495  -30.1489   23.8861 C   0  0  0  0  0  0
  -17.6490  -30.6605   24.0555 C   0  0  0  0  0  0
  -25.9093  -34.9366   23.5024 C   0  0  0  0  0  0
  -16.5377  -29.9094   23.6348 C   0  0  0  0  0  0
  -16.7304  -28.6512   23.0375 C   0  0  0  0  0  0
  -26.4558  -31.6552   25.0712 C   0  0  0  0  0  0
  -25.3702  -31.3799   26.1381 C   0  0  0  0  0  0
  -27.0443  -30.2921   24.6420 C   0  0  0  0  0  0
  -27.6054  -32.4355   25.7514 C   0  0  0  0  0  0
  -27.5563  -37.1755   24.8468 C   0  0  0  0  0  0
  -21.4319  -29.3048   22.3543 N   0  0  0  0  0  0
  -26.4267  -37.3717   23.9420 N   0  0  0  0  0  0
  -24.7433  -30.9997   22.0872 N   0  0  0  0  0  0
  -23.4214  -28.8031   23.3007 O   0  0  0  0  0  0
  -28.1962  -25.8671   20.2637 O   0  0  0  0  0  0
  -26.5687  -34.8895   22.4609 O   0  0  0  0  0  0
  -23.5671  -32.1232   23.6885 O   0  0  0  0  0  0
  -28.2774  -20.1783   20.9076 C   0  0  0  0  0  0
  -30.1456  -20.7584   19.6963 C   0  0  0  0  0  0
  -27.8545  -21.6057   20.8710 C   0  0  0  0  0  0
  -29.7223  -22.1796   19.6571 C   0  0  0  0  0  0
  -29.4725  -19.6132   20.3050 C   0  0  0  0  0  0
  -28.5298  -22.7500   20.2537 C   0  0  0  0  0  0
  -30.1825  -18.0265   20.3361 C   0  0  0  0  0  0
  -27.8040  -24.3101   20.0193 C   0  0  0  0  0  0
  -29.7353  -16.4509   20.4631 N   0  0  0  0  0  0
  -31.4594  -12.9371   19.1947 H   0  0  0  0  0  0
  -30.4796  -11.8355   20.1142 H   0  0  0  0  0  0
  -29.8932  -11.7354   17.6652 H   0  0  0  0  0  0
  -29.5747  -13.4531   17.6556 H   0  0  0  0  0  0
  -28.0144  -11.2735   19.0644 H   0  0  0  0  0  0
  -27.4061  -12.3652   17.8463 H   0  0  0  0  0  0
  -27.5393  -14.2436   19.3423 H   0  0  0  0  0  0
  -28.7973  -12.4727   21.4919 H   0  0  0  0  0  0
  -28.3051  -14.1392   21.6999 H   0  0  0  0  0  0
  -25.2775   -9.5686   22.4766 H   0  0  0  0  0  0
  -24.0018   -7.4629   22.7465 H   0  0  0  0  0  0
  -21.0861   -8.8777   19.8943 H   0  0  0  0  0  0
  -22.3716  -10.9677   19.6168 H   0  0  0  0  0  0
  -21.2001   -7.6149   23.9719 H   0  0  0  0  0  0
  -21.1482   -6.0522   25.9080 H   0  0  0  0  0  0
  -22.0598   -2.7611   23.2844 H   0  0  0  0  0  0
  -22.4066  -11.9826   22.4836 H   0  0  0  0  0  0
  -21.1039  -13.1162   22.2684 H   0  0  0  0  0  0
  -24.6307  -15.8462   20.5268 H   0  0  0  0  0  0
  -26.2426  -15.6401   20.0678 H   0  0  0  0  0  0
  -26.7360  -32.5170   23.0915 H   0  0  0  0  0  0
  -25.0108  -33.9519   25.0247 H   0  0  0  0  0  0
  -22.7817  -31.2753   21.3586 H   0  0  0  0  0  0
  -23.3765  -35.9516   23.3288 H   0  0  0  0  0  0
  -24.3561  -36.8862   22.2063 H   0  0  0  0  0  0
  -23.7225  -37.6381   23.6704 H   0  0  0  0  0  0
  -26.2147  -31.3959   20.6243 H   0  0  0  0  0  0
  -26.8998  -30.7033   22.0539 H   0  0  0  0  0  0
  -28.1398  -28.6311   21.2848 H   0  0  0  0  0  0
  -25.8646  -25.7763   18.9864 H   0  0  0  0  0  0
  -23.9957  -27.2900   18.9472 H   0  0  0  0  0  0
  -23.8604  -30.5388   19.3918 H   0  0  0  0  0  0
  -22.8182  -29.2207   19.8291 H   0  0  0  0  0  0
  -25.1322  -36.1770   25.0795 H   0  0  0  0  0  0
  -21.0038  -28.3354   24.1314 H   0  0  0  0  0  0
  -20.5671  -26.2370   23.3639 H   0  0  0  0  0  0
  -21.6659  -26.7417   22.1202 H   0  0  0  0  0  0
  -19.6920  -25.6286   21.1269 H   0  0  0  0  0  0
  -19.6698  -27.3172   20.6723 H   0  0  0  0  0  0
  -17.4213  -26.6691   21.4036 H   0  0  0  0  0  0
  -18.0346  -26.0100   22.9037 H   0  0  0  0  0  0
  -19.7970  -30.7314   24.2214 H   0  0  0  0  0  0
  -17.5045  -31.6283   24.5161 H   0  0  0  0  0  0
  -15.5376  -30.2985   23.7697 H   0  0  0  0  0  0
  -15.8703  -28.0812   22.7124 H   0  0  0  0  0  0
  -24.5887  -30.7140   25.7706 H   0  0  0  0  0  0
  -24.8887  -32.3001   26.4697 H   0  0  0  0  0  0
  -25.7949  -30.9045   27.0232 H   0  0  0  0  0  0
  -26.3101  -29.6613   24.1393 H   0  0  0  0  0  0
  -27.3950  -29.7270   25.5066 H   0  0  0  0  0  0
  -27.9059  -30.4114   23.9849 H   0  0  0  0  0  0
  -27.2623  -33.3701   26.1969 H   0  0  0  0  0  0
  -28.3933  -32.6842   25.0392 H   0  0  0  0  0  0
  -28.0644  -31.8559   26.5535 H   0  0  0  0  0  0
  -28.2564  -38.0066   24.7527 H   0  0  0  0  0  0
  -28.1075  -36.2596   24.6281 H   0  0  0  0  0  0
  -27.2284  -37.1386   25.8872 H   0  0  0  0  0  0
  -20.9555  -29.8749   21.6692 H   0  0  0  0  0  0
  -26.0113  -38.2769   24.1454 H   0  0  0  0  0  0
  -27.6291  -19.4927   21.4361 H   0  0  0  0  0  0
  -31.0814  -20.5404   19.1999 H   0  0  0  0  0  0
  -26.9033  -21.8209   21.3381 H   0  0  0  0  0  0
  -30.3513  -22.8578   19.0974 H   0  0  0  0  0  0
  -30.9305  -18.1209   21.1241 H   0  0  0  0  0  0
  -30.7794  -18.0194   19.4234 H   0  0  0  0  0  0
  -26.8452  -24.2068   20.5276 H   0  0  0  0  0  0
  -27.5507  -24.2802   18.9596 H   0  0  0  0  0  0
  -28.7435  -16.3219   20.5965 H   0  0  0  0  0  0
  1 25  1  0  0  0
  1 30  2  0  0  0
  1 79  1  0  0  0
  2  3  1  0  0  0
  2 25  1  0  0  0
  2 80  1  0  0  0
  2 81  1  0  0  0
  3  4  1  0  0  0
  3 82  1  0  0  0
  3 83  1  0  0  0
  4  5  1  0  0  0
  4 84  1  0  0  0
  4 85  1  0  0  0
  5  6  1  0  0  0
  5 26  1  0  0  0
  5 86  1  0  0  0
  6 25  1  0  0  0
  6 87  1  0  0  0
  6 88  1  0  0  0
  7  8  2  0  0  0
  7 26  1  0  0  0
  7 29  1  0  0  0
  8  9  1  0  0  0
  8 22  1  0  0  0
  9 10  1  0  0  0
  9 27  2  0  0  0
 10 11  2  0  0  0
 10 15  1  0  0  0
 11 12  1  0  0  0
 11 89  1  0  0  0
 12 13  2  0  0  0
 12 90  1  0  0  0
 13 14  1  0  0  0
 13 31  1  0  0  0
 14 15  2  0  0  0
 14 91  1  0  0  0
 15 92  1  0  0  0
 16 17  2  0  0  0
 16 21  1  0  0  0
 16 31  1  0  0  0
 17 18  1  0  0  0
 17 93  1  0  0  0
 18 19  2  0  0  0
 18 94  1  0  0  0
 19 20  1  0  0  0
 19 24  1  0  0  0
 20 21  2  0  0  0
 20 95  1  0  0  0
 21 23  1  0  0  0
 22 28  1  0  0  0
 22 32  2  0  0  0
 26 27  1  0  0  0
 28 96  1  0  0  0
 28 97  1  0  0  0
 29 98  1  0  0  0
 29 99  1  0  0  0
 33 34  1  0  0  0
 33 66  1  0  0  0
 33 70  2  0  0  0
 34 36  1  0  0  0
 34 59  1  0  0  0
 34100  1  0  0  0
 35 44  2  0  0  0
 35 45  1  0  0  0
 35 68  1  0  0  0
 36 56  1  0  0  0
 36101  1  0  0  0
 37 39  1  0  0  0
 37 47  1  0  0  0
 37 66  1  0  0  0
 37102  1  0  0  0
 38 43  2  0  0  0
 38 46  1  0  0  0
 38 47  1  0  0  0
 39 64  1  0  0  0
 39 67  2  0  0  0
 40 52  1  0  0  0
 40 53  2  0  0  0
 40 58  1  0  0  0
 41103  1  0  0  0
 41104  1  0  0  0
 41105  1  0  0  0
 41 48  1  0  0  0
 42 43  1  0  0  0
 42 66  1  0  0  0
 42106  1  0  0  0
 42107  1  0  0  0
 43 44  1  0  0  0
 44108  1  0  0  0
 45 46  2  0  0  0
 45109  1  0  0  0
 46110  1  0  0  0
 47111  1  0  0  0
 47112  1  0  0  0
 48 56  1  0  0  0
 48 65  1  0  0  0
 48113  1  0  0  0
 49 50  1  0  0  0
 49 53  1  0  0  0
 49 64  1  0  0  0
 49114  1  0  0  0
 50 51  1  0  0  0
 50115  1  0  0  0
 50116  1  0  0  0
 51 52  1  0  0  0
 51117  1  0  0  0
 51118  1  0  0  0
 52119  1  0  0  0
 52120  1  0  0  0
 53 54  1  0  0  0
 54 55  2  0  0  0
 54121  1  0  0  0
 55 57  1  0  0  0
 55122  1  0  0  0
 56 69  2  0  0  0
 57 58  2  0  0  0
 57123  1  0  0  0
 58124  1  0  0  0
 59 60  1  0  0  0
 59 61  1  0  0  0
 59 62  1  0  0  0
 60125  1  0  0  0
 60126  1  0  0  0
 60127  1  0  0  0
 61128  1  0  0  0
 61129  1  0  0  0
 61130  1  0  0  0
 62131  1  0  0  0
 62132  1  0  0  0
 62133  1  0  0  0
 63 65  1  0  0  0
 63134  1  0  0  0
 63135  1  0  0  0
 63136  1  0  0  0
 64137  1  0  0  0
 65138  1  0  0  0
 68 78  1  0  0  0
 71 73  2  0  0  0
 71 75  1  0  0  0
 71139  1  0  0  0
 72 74  1  0  0  0
 72 75  2  0  0  0
 72140  1  0  0  0
 73 76  1  0  0  0
 73141  1  0  0  0
 74 76  2  0  0  0
 74142  1  0  0  0
 75 77  1  0  0  0
 76 78  1  0  0  0
 77 79  1  0  0  0
 77143  1  0  0  0
 77144  1  0  0  0
 78145  1  0  0  0
 78146  1  0  0  0
 79147  1  0  0  0
M  ISO  4   1 100  68 101  78 101  79 100
M  END
> <chiral flag>
0

> <version>
0

> <s_m_source_file>
/data/baiqing/PycharmProjects/Reinvent-master-3.2/result/LINK_invent/BTK/process_docking_weight1_custom_sum_contain_oxygen_bond_distance_aromatic_linkinvent_7_9_3/rearranged_h_0131.sdf

> <i_m_source_file_index>
46

> <r_mmod_Potential_Energy-OPLS-2005>
1015.4599609375

> <r_mmod_Stretch_Energy-OPLS-2005>
443.456787109375

> <r_mmod_Bend_Energy-OPLS-2005>
422.297058105469

> <r_mmod_Torsional_Energy-OPLS-2005>
215.021911621094

> <r_mmod_Improper_Torsional_Energy-OPLS-2005>
7.18429374694824

> <r_mmod_Van_der_Waal_Energy-OPLS-2005>
133.087112426758

> <r_mmod_Electrostatic_Energy-OPLS-2005>
-379.332244873047

> <r_mmod_Solvation_Energy-OPLS-2005>
-213.699493408203

> <b_mmod_Minimization_Converged-OPLS-2005>
0

> <r_mmod_RMS_Derivative-OPLS-2005>
0.623550474643707

$$$$
46
                    3D
 Structure written by MMmdl.
169179  0  0  1  0            999 V2000
  -30.6466  -14.6731   20.5023 C   0  0  0  0  0  0
  -30.4362  -12.4091   19.4881 C   0  0  0  0  0  0
  -29.5300  -12.5176   18.2376 C   0  0  0  0  0  0
  -28.0416  -12.3833   18.6245 C   0  0  0  0  0  0
  -27.6572  -13.2338   19.8685 C   0  0  2  0  0  0
  -28.6981  -13.1150   21.0062 C   0  0  0  0  0  0
  -25.2543  -13.8225   20.5653 C   0  0  0  0  0  0
  -24.1814  -13.0474   20.9148 C   0  0  0  0  0  0
  -24.6404  -11.6935   20.8696 C   0  0  0  0  0  0
  -23.9080  -10.4309   21.0387 C   0  0  0  0  0  0
  -24.3616   -9.4218   21.9175 C   0  0  0  0  0  0
  -23.6275   -8.2278   22.0770 C   0  0  0  0  0  0
  -22.4261   -8.0303   21.3584 C   0  0  0  0  0  0
  -21.9887   -9.0276   20.4677 C   0  0  0  0  0  0
  -22.7241  -10.2146   20.3064 C   0  0  0  0  0  0
  -21.6864   -6.0731   22.5283 C   0  0  0  0  0  0
  -21.4020   -6.5634   23.8206 C   0  0  0  0  0  0
  -21.3658   -5.6797   24.9172 C   0  0  0  0  0  0
  -21.6044   -4.3055   24.7238 C   0  0  0  0  0  0
  -21.8820   -3.8143   23.4351 C   0  0  0  0  0  0
  -21.9183   -4.6962   22.3400 C   0  0  0  0  0  0
  -22.7823  -13.5264   21.1798 C   0  0  0  0  0  0
  -22.1657   -4.2153   21.0976 F   0  0  0  0  0  0
  -21.5612   -3.4550   25.7756 F   0  0  0  0  0  0
  -30.0187  -13.4501   20.4517 N   0  0  0  0  0  0
  -26.2996  -12.9432   20.3290 N   0  0  0  0  0  0
  -25.9344  -11.6564   20.5689 N   0  0  0  0  0  0
  -22.0444  -12.8292   22.0375 N   0  0  0  0  0  0
  -25.4296  -15.1943   20.4102 N   0  0  0  0  0  0
  -31.7831  -14.8211   20.0491 O   0  0  0  0  0  0
  -21.6660   -6.8883   21.4242 O   0  0  0  0  0  0
  -22.3479  -14.5541   20.6614 O   0  0  0  0  0  0
  -24.6256  -31.8590   23.2008 C   0  0  0  0  0  0
  -25.9102  -32.4783   23.8334 C   0  0  1  0  0  0
  -27.2332  -27.2997   20.1366 C   0  0  0  0  0  0
  -25.5917  -33.8591   24.2249 N   0  0  0  0  0  0
  -23.4204  -30.4746   21.5476 C   0  0  2  0  0  0
  -24.8691  -28.9140   20.1253 C   0  0  0  0  0  0
  -22.7490  -29.4585   22.5013 C   0  0  0  0  0  0
  -18.0291  -28.1388   22.8500 C   0  0  0  0  0  0
  -24.1478  -36.7281   23.2634 C   0  0  0  0  0  0
  -25.9636  -30.7753   21.3831 C   0  0  0  0  0  0
  -26.0354  -29.3987   20.7306 C   0  0  0  0  0  0
  -27.2206  -28.6042   20.7221 C   0  0  0  0  0  0
  -26.0427  -26.8558   19.5233 C   0  0  0  0  0  0
  -24.8728  -27.6476   19.5146 C   0  0  0  0  0  0
  -23.6376  -29.8001   20.1666 C   0  0  0  0  0  0
  -25.4116  -36.3092   24.0316 C   0  0  1  0  0  0
  -20.5888  -28.3663   23.1331 C   0  0  2  0  0  0
  -20.6803  -26.9394   22.5450 C   0  0  0  0  0  0
  -19.5792  -26.6367   21.5246 C   0  0  0  0  0  0
  -18.1949  -26.7929   22.1614 C   0  0  0  0  0  0
  -19.1547  -28.8848   23.2893 C   0  0  0  0  0  0
  -18.9455  -30.1459   23.8909 C   0  0  0  0  0  0
  -17.6460  -30.6571   24.0559 C   0  0  0  0  0  0
  -25.9050  -34.9456   23.5090 C   0  0  0  0  0  0
  -16.5349  -29.9071   23.6343 C   0  0  0  0  0  0
  -16.7276  -28.6482   23.0360 C   0  0  0  0  0  0
  -26.4445  -31.6635   25.0752 C   0  0  0  0  0  0
  -25.3636  -31.3871   26.1467 C   0  0  0  0  0  0
  -27.0277  -30.3030   24.6295 C   0  0  0  0  0  0
  -27.5998  -32.4401   25.7505 C   0  0  0  0  0  0
  -27.5590  -37.1784   24.8436 C   0  0  0  0  0  0
  -21.4210  -29.2981   22.3711 N   0  0  0  0  0  0
  -26.4283  -37.3797   23.9409 N   0  0  0  0  0  0
  -24.6877  -31.0543   22.0995 N   0  0  0  0  0  0
  -23.4187  -28.8184   23.3139 O   0  0  0  0  0  0
  -28.3945  -26.5187   20.0516 O   0  0  0  0  0  0
  -26.5635  -34.8919   22.4661 O   0  0  0  0  0  0
  -23.5410  -32.1428   23.7310 O   0  0  0  0  0  0
  -30.2060  -20.9511   20.4735 C   0  0  0  0  0  0
  -27.4862  -21.4260   20.8808 C   0  0  0  0  0  0
  -29.6586  -22.2701   20.2810 C   0  0  0  0  0  0
  -28.2820  -22.5129   20.4415 C   0  0  0  0  0  0
  -29.4074  -19.8387   20.9101 C   0  0  0  0  0  0
  -28.0373  -20.1385   21.1561 C   0  0  0  0  0  0
  -30.4969  -23.5058   19.9414 C   0  0  0  0  0  0
  -27.6906  -23.9294   20.1352 C   0  0  0  0  0  0
  -30.0322  -24.7782   20.7327 C   0  0  0  0  0  0
  -28.1146  -18.1541   24.8384 C   0  0  0  0  0  0
  -27.0343  -18.8946   25.5863 C   0  0  0  0  0  0
  -26.8300  -18.5285   24.1309 C   0  0  0  0  0  0
  -28.5177  -25.1692   20.6629 C   0  0  1  0  0  0
  -30.0220  -18.4256   21.3042 C   0  0  0  0  0  0
  -26.7808  -19.6378   23.0981 C   0  0  0  0  0  0
  -29.9198  -17.1762   20.3134 C   0  0  0  0  0  0
  -27.2171  -19.1884   21.7788 N   0  0  0  0  0  0
  -29.8941  -15.7639   20.8759 N   0  0  0  0  0  0
  -31.4866  -12.5035   19.2078 H   0  0  0  0  0  0
  -30.3442  -11.4198   19.9395 H   0  0  0  0  0  0
  -29.7968  -11.7567   17.5060 H   0  0  0  0  0  0
  -29.7023  -13.4732   17.7383 H   0  0  0  0  0  0
  -27.8376  -11.3289   18.8116 H   0  0  0  0  0  0
  -27.4162  -12.6716   17.7778 H   0  0  0  0  0  0
  -27.6676  -14.2699   19.5307 H   0  0  0  0  0  0
  -28.7026  -12.1007   21.4098 H   0  0  0  0  0  0
  -28.4337  -13.7733   21.8355 H   0  0  0  0  0  0
  -25.2790   -9.5666   22.4708 H   0  0  0  0  0  0
  -24.0003   -7.4636   22.7455 H   0  0  0  0  0  0
  -21.0830   -8.8785   19.8953 H   0  0  0  0  0  0
  -22.3726  -10.9664   19.6121 H   0  0  0  0  0  0
  -21.2064   -7.6154   23.9705 H   0  0  0  0  0  0
  -21.1461   -6.0545   25.9073 H   0  0  0  0  0  0
  -22.0613   -2.7604   23.2875 H   0  0  0  0  0  0
  -22.4065  -12.0031   22.4910 H   0  0  0  0  0  0
  -21.1016  -13.1275   22.2448 H   0  0  0  0  0  0
  -24.6796  -15.8660   20.5342 H   0  0  0  0  0  0
  -26.2960  -15.6269   20.1107 H   0  0  0  0  0  0
  -26.7189  -32.5422   23.1087 H   0  0  0  0  0  0
  -25.0059  -33.9751   25.0395 H   0  0  0  0  0  0
  -22.7125  -31.2930   21.4020 H   0  0  0  0  0  0
  -23.3763  -35.9584   23.3275 H   0  0  0  0  0  0
  -24.3554  -36.8936   22.2050 H   0  0  0  0  0  0
  -23.7186  -37.6451   23.6682 H   0  0  0  0  0  0
  -26.1120  -31.5367   20.6167 H   0  0  0  0  0  0
  -26.8361  -30.8145   22.0239 H   0  0  0  0  0  0
  -28.1239  -28.9811   21.1809 H   0  0  0  0  0  0
  -26.0141  -25.8954   19.0295 H   0  0  0  0  0  0
  -23.9801  -27.2750   19.0319 H   0  0  0  0  0  0
  -23.7554  -30.5715   19.4052 H   0  0  0  0  0  0
  -22.7575  -29.2278   19.8708 H   0  0  0  0  0  0
  -25.1292  -36.1933   25.0805 H   0  0  0  0  0  0
  -20.9954  -28.3236   24.1463 H   0  0  0  0  0  0
  -20.5759  -26.2256   23.3629 H   0  0  0  0  0  0
  -21.6668  -26.7473   22.1209 H   0  0  0  0  0  0
  -19.6952  -25.6280   21.1273 H   0  0  0  0  0  0
  -19.6745  -27.3185   20.6789 H   0  0  0  0  0  0
  -17.4246  -26.6720   21.3978 H   0  0  0  0  0  0
  -18.0287  -26.0057   22.8981 H   0  0  0  0  0  0
  -19.7929  -30.7285   24.2272 H   0  0  0  0  0  0
  -17.4992  -31.6263   24.5152 H   0  0  0  0  0  0
  -15.5345  -30.2954   23.7668 H   0  0  0  0  0  0
  -15.8667  -28.0777   22.7099 H   0  0  0  0  0  0
  -24.5756  -30.7288   25.7795 H   0  0  0  0  0  0
  -24.8897  -32.3098   26.4840 H   0  0  0  0  0  0
  -25.7886  -30.9053   27.0283 H   0  0  0  0  0  0
  -26.2903  -29.6835   24.1189 H   0  0  0  0  0  0
  -27.3766  -29.7257   25.4866 H   0  0  0  0  0  0
  -27.8856  -30.4267   23.9687 H   0  0  0  0  0  0
  -27.2579  -33.3681   26.2104 H   0  0  0  0  0  0
  -28.3766  -32.7022   25.0312 H   0  0  0  0  0  0
  -28.0720  -31.8548   26.5406 H   0  0  0  0  0  0
  -28.2587  -38.0109   24.7548 H   0  0  0  0  0  0
  -28.1118  -36.2653   24.6169 H   0  0  0  0  0  0
  -27.2334  -37.1322   25.8845 H   0  0  0  0  0  0
  -20.9443  -29.8550   21.6761 H   0  0  0  0  0  0
  -26.0166  -38.2857   24.1463 H   0  0  0  0  0  0
  -31.2697  -20.8032   20.3477 H   0  0  0  0  0  0
  -26.4335  -21.5941   21.0539 H   0  0  0  0  0  0
  -30.4360  -23.6929   18.8673 H   0  0  0  0  0  0
  -31.5495  -23.3117   20.1516 H   0  0  0  0  0  0
  -26.6674  -23.9855   20.5066 H   0  0  0  0  0  0
  -27.6168  -24.0007   19.0491 H   0  0  0  0  0  0
  -30.6521  -25.6325   20.4565 H   0  0  0  0  0  0
  -30.2693  -24.5918   21.7807 H   0  0  0  0  0  0
  -28.2662  -17.1099   25.1038 H   0  0  0  0  0  0
  -29.0190  -18.6982   24.5716 H   0  0  0  0  0  0
  -27.2162  -19.9425   25.8258 H   0  0  0  0  0  0
  -26.4708  -18.3429   26.3356 H   0  0  0  0  0  0
  -26.1341  -17.7136   23.9384 H   0  0  0  0  0  0
  -28.2078  -25.3102   21.6996 H   0  0  0  0  0  0
  -29.5873  -18.1342   22.2605 H   0  0  0  0  0  0
  -31.0776  -18.5829   21.5381 H   0  0  0  0  0  0
  -27.3902  -20.4708   23.4549 H   0  0  0  0  0  0
  -25.7564  -20.0077   23.0284 H   0  0  0  0  0  0
  -30.6961  -17.2665   19.5520 H   0  0  0  0  0  0
  -28.9808  -17.2749   19.7697 H   0  0  0  0  0  0
  -27.6025  -18.2501   21.7894 H   0  0  0  0  0  0
  -29.0365  -15.5167   21.3430 H   0  0  0  0  0  0
  1 25  1  0  0  0
  1 30  2  0  0  0
  1 88  1  0  0  0
  2  3  1  0  0  0
  2 25  1  0  0  0
  2 89  1  0  0  0
  2 90  1  0  0  0
  3  4  1  0  0  0
  3 91  1  0  0  0
  3 92  1  0  0  0
  4  5  1  0  0  0
  4 93  1  0  0  0
  4 94  1  0  0  0
  5  6  1  0  0  0
  5 26  1  0  0  0
  5 95  1  0  0  0
  6 25  1  0  0  0
  6 96  1  0  0  0
  6 97  1  0  0  0
  7  8  2  0  0  0
  7 26  1  0  0  0
  7 29  1  0  0  0
  8  9  1  0  0  0
  8 22  1  0  0  0
  9 10  1  0  0  0
  9 27  2  0  0  0
 10 11  2  0  0  0
 10 15  1  0  0  0
 11 12  1  0  0  0
 11 98  1  0  0  0
 12 13  2  0  0  0
 12 99  1  0  0  0
 13 14  1  0  0  0
 13 31  1  0  0  0
 14 15  2  0  0  0
 14100  1  0  0  0
 15101  1  0  0  0
 16 17  2  0  0  0
 16 21  1  0  0  0
 16 31  1  0  0  0
 17 18  1  0  0  0
 17102  1  0  0  0
 18 19  2  0  0  0
 18103  1  0  0  0
 19 20  1  0  0  0
 19 24  1  0  0  0
 20 21  2  0  0  0
 20104  1  0  0  0
 21 23  1  0  0  0
 22 28  1  0  0  0
 22 32  2  0  0  0
 26 27  1  0  0  0
 28105  1  0  0  0
 28106  1  0  0  0
 29107  1  0  0  0
 29108  1  0  0  0
 33 34  1  0  0  0
 33 66  1  0  0  0
 33 70  2  0  0  0
 34 36  1  0  0  0
 34 59  1  0  0  0
 34109  1  0  0  0
 35 44  2  0  0  0
 35 45  1  0  0  0
 35 68  1  0  0  0
 36 56  1  0  0  0
 36110  1  0  0  0
 37 39  1  0  0  0
 37 47  1  0  0  0
 37 66  1  0  0  0
 37111  1  0  0  0
 38 43  2  0  0  0
 38 46  1  0  0  0
 38 47  1  0  0  0
 39 64  1  0  0  0
 39 67  2  0  0  0
 40 52  1  0  0  0
 40 53  2  0  0  0
 40 58  1  0  0  0
 41112  1  0  0  0
 41113  1  0  0  0
 41114  1  0  0  0
 41 48  1  0  0  0
 42 43  1  0  0  0
 42 66  1  0  0  0
 42115  1  0  0  0
 42116  1  0  0  0
 43 44  1  0  0  0
 44117  1  0  0  0
 45 46  2  0  0  0
 45118  1  0  0  0
 46119  1  0  0  0
 47120  1  0  0  0
 47121  1  0  0  0
 48 56  1  0  0  0
 48 65  1  0  0  0
 48122  1  0  0  0
 49 50  1  0  0  0
 49 53  1  0  0  0
 49 64  1  0  0  0
 49123  1  0  0  0
 50 51  1  0  0  0
 50124  1  0  0  0
 50125  1  0  0  0
 51 52  1  0  0  0
 51126  1  0  0  0
 51127  1  0  0  0
 52128  1  0  0  0
 52129  1  0  0  0
 53 54  1  0  0  0
 54 55  2  0  0  0
 54130  1  0  0  0
 55 57  1  0  0  0
 55131  1  0  0  0
 56 69  2  0  0  0
 57 58  2  0  0  0
 57132  1  0  0  0
 58133  1  0  0  0
 59 60  1  0  0  0
 59 61  1  0  0  0
 59 62  1  0  0  0
 60134  1  0  0  0
 60135  1  0  0  0
 60136  1  0  0  0
 61137  1  0  0  0
 61138  1  0  0  0
 61139  1  0  0  0
 62140  1  0  0  0
 62141  1  0  0  0
 62142  1  0  0  0
 63 65  1  0  0  0
 63143  1  0  0  0
 63144  1  0  0  0
 63145  1  0  0  0
 64146  1  0  0  0
 65147  1  0  0  0
 68 83  1  0  0  0
 71 73  2  0  0  0
 71 75  1  0  0  0
 71148  1  0  0  0
 72 74  2  0  0  0
 72 76  1  0  0  0
 72149  1  0  0  0
 73 74  1  0  0  0
 73 77  1  0  0  0
 74 78  1  0  0  0
 75 76  2  0  0  0
 75 84  1  0  0  0
 76 87  1  0  0  0
 77 79  1  0  0  0
 77150  1  0  0  0
 77151  1  0  0  0
 78 83  1  0  0  0
 78152  1  0  0  0
 78153  1  0  0  0
 79 83  1  0  0  0
 79154  1  0  0  0
 79155  1  0  0  0
 80 81  1  0  0  0
 80 82  1  0  0  0
 80156  1  0  0  0
 80157  1  0  0  0
 81 82  1  0  0  0
 81158  1  0  0  0
 81159  1  0  0  0
 82 85  1  0  0  0
 82160  1  0  0  0
 83161  1  0  0  0
 84 86  1  0  0  0
 84162  1  0  0  0
 84163  1  0  0  0
 85 87  1  0  0  0
 85164  1  0  0  0
 85165  1  0  0  0
 86 88  1  0  0  0
 86166  1  0  0  0
 86167  1  0  0  0
 87168  1  0  0  0
 88169  1  0  0  0
M  ISO  4   1 100  68 101  83 101  88 100
M  END
> <chiral flag>
0

> <version>
0

> <s_m_source_file>
/data/baiqing/PycharmProjects/Reinvent-master-3.2/result/LINK_invent/BTK/process_docking_weight1_custom_sum_contain_oxygen_bond_distance_aromatic_linkinvent_7_9_3/rearranged_h_0131.sdf

> <i_m_source_file_index>
47

> <r_mmod_Potential_Energy-OPLS-2005>
112.986778259277

> <r_mmod_Stretch_Energy-OPLS-2005>
92.4518966674805

> <r_mmod_Bend_Energy-OPLS-2005>
154.202484130859

> <r_mmod_Torsional_Energy-OPLS-2005>
311.414306640625

> <r_mmod_Improper_Torsional_Energy-OPLS-2005>
12.3197174072266

> <r_mmod_Van_der_Waal_Energy-OPLS-2005>
133.490478515625

> <r_mmod_Electrostatic_Energy-OPLS-2005>
-430.798950195312

> <r_mmod_Solvation_Energy-OPLS-2005>
-212.684967041016

> <b_mmod_Minimization_Converged-OPLS-2005>
0

> <r_mmod_RMS_Derivative-OPLS-2005>
5.10126399993896

$$$$
47
                    3D
 Structure written by MMmdl.
159167  0  0  1  0            999 V2000
  -30.5724  -14.8725   20.4265 C   0  0  0  0  0  0
  -30.4395  -12.5334   19.4887 C   0  0  0  0  0  0
  -29.5172  -12.5112   18.2486 C   0  0  0  0  0  0
  -28.0489  -12.3109   18.6684 C   0  0  0  0  0  0
  -27.6361  -13.2403   19.8397 C   0  0  2  0  0  0
  -28.6803  -13.2372   20.9767 C   0  0  0  0  0  0
  -25.2485  -13.8212   20.5690 C   0  0  0  0  0  0
  -24.1798  -13.0439   20.9201 C   0  0  0  0  0  0
  -24.6404  -11.6921   20.8737 C   0  0  0  0  0  0
  -23.9088  -10.4298   21.0380 C   0  0  0  0  0  0
  -24.3615   -9.4215   21.9168 C   0  0  0  0  0  0
  -23.6280   -8.2264   22.0771 C   0  0  0  0  0  0
  -22.4266   -8.0283   21.3557 C   0  0  0  0  0  0
  -21.9910   -9.0262   20.4652 C   0  0  0  0  0  0
  -22.7249  -10.2142   20.3053 C   0  0  0  0  0  0
  -21.6845   -6.0722   22.5283 C   0  0  0  0  0  0
  -21.4018   -6.5634   23.8208 C   0  0  0  0  0  0
  -21.3664   -5.6799   24.9179 C   0  0  0  0  0  0
  -21.6056   -4.3056   24.7233 C   0  0  0  0  0  0
  -21.8814   -3.8138   23.4350 C   0  0  0  0  0  0
  -21.9192   -4.6953   22.3398 C   0  0  0  0  0  0
  -22.7806  -13.5196   21.1868 C   0  0  0  0  0  0
  -22.1645   -4.2135   21.0977 F   0  0  0  0  0  0
  -21.5642   -3.4539   25.7739 F   0  0  0  0  0  0
  -29.9676  -13.6233   20.3844 N   0  0  0  0  0  0
  -26.2915  -12.9438   20.3240 N   0  0  0  0  0  0
  -25.9341  -11.6570   20.5746 N   0  0  0  0  0  0
  -22.0480  -12.8239   22.0488 N   0  0  0  0  0  0
  -25.4161  -15.1937   20.4131 N   0  0  0  0  0  0
  -31.7686  -14.9543   20.1370 O   0  0  0  0  0  0
  -21.6623   -6.8880   21.4253 O   0  0  0  0  0  0
  -22.3477  -14.5482   20.6699 O   0  0  0  0  0  0
  -24.6391  -31.8471   23.1911 C   0  0  0  0  0  0
  -25.9162  -32.4719   23.8308 C   0  0  1  0  0  0
  -27.2279  -27.1874   20.1516 C   0  0  0  0  0  0
  -25.5922  -33.8525   24.2220 N   0  0  0  0  0  0
  -23.4422  -30.4649   21.5368 C   0  0  2  0  0  0
  -24.8933  -28.8927   20.1186 C   0  0  0  0  0  0
  -22.7560  -29.4550   22.4901 C   0  0  0  0  0  0
  -18.0301  -28.1387   22.8467 C   0  0  0  0  0  0
  -24.1507  -36.7287   23.2641 C   0  0  0  0  0  0
  -25.9940  -30.7393   21.3792 C   0  0  0  0  0  0
  -26.0698  -29.3509   20.7288 C   0  0  0  0  0  0
  -27.2428  -28.5150   20.7269 C   0  0  0  0  0  0
  -26.0267  -26.8100   19.5198 C   0  0  0  0  0  0
  -24.8811  -27.6323   19.5019 C   0  0  0  0  0  0
  -23.6667  -29.7894   20.1584 C   0  0  0  0  0  0
  -25.4132  -36.3058   24.0324 C   0  0  1  0  0  0
  -20.5912  -28.3703   23.1258 C   0  0  2  0  0  0
  -20.6796  -26.9415   22.5409 C   0  0  0  0  0  0
  -19.5761  -26.6377   21.5220 C   0  0  0  0  0  0
  -18.1941  -26.7918   22.1635 C   0  0  0  0  0  0
  -19.1558  -28.8865   23.2852 C   0  0  0  0  0  0
  -18.9466  -30.1461   23.8874 C   0  0  0  0  0  0
  -17.6462  -30.6578   24.0554 C   0  0  0  0  0  0
  -25.9075  -34.9423   23.5093 C   0  0  0  0  0  0
  -16.5356  -29.9065   23.6321 C   0  0  0  0  0  0
  -16.7289  -28.6488   23.0339 C   0  0  0  0  0  0
  -26.4510  -31.6559   25.0719 C   0  0  0  0  0  0
  -25.3713  -31.3727   26.1426 C   0  0  0  0  0  0
  -27.0362  -30.2973   24.6228 C   0  0  0  0  0  0
  -27.6064  -32.4312   25.7478 C   0  0  0  0  0  0
  -27.5594  -37.1803   24.8464 C   0  0  0  0  0  0
  -21.4258  -29.3036   22.3642 N   0  0  0  0  0  0
  -26.4311  -37.3749   23.9396 N   0  0  0  0  0  0
  -24.7116  -31.0360   22.0931 N   0  0  0  0  0  0
  -23.4205  -28.8107   23.3062 O   0  0  0  0  0  0
  -28.2903  -26.2322   20.1234 O   0  0  0  0  0  0
  -26.5672  -34.8909   22.4677 O   0  0  0  0  0  0
  -23.5511  -32.1318   23.7144 O   0  0  0  0  0  0
  -29.5842  -22.7163   20.0771 C   0  0  0  0  0  0
  -29.7588  -21.2623   20.0559 C   0  0  0  0  0  0
  -27.4613  -22.4313   21.0478 C   0  0  0  0  0  0
  -28.4142  -23.3840   20.5852 C   0  0  0  0  0  0
  -28.7931  -20.3158   20.5547 C   0  0  0  0  0  0
  -27.6098  -20.9931   21.0362 C   0  0  0  0  0  0
  -25.0559  -20.6747   21.2166 C   0  0  0  0  0  0
  -26.5885  -20.1425   23.1730 C   0  0  0  0  0  0
  -28.8648  -18.6643   20.5933 C   0  0  0  0  0  0
  -28.1821  -24.9668   20.9693 C   0  0  0  0  0  0
  -30.0927  -17.5664   20.4256 C   0  0  0  0  0  0
  -26.4527  -20.1866   21.6441 C   0  0  0  0  0  0
  -29.7890  -16.0343   20.5838 N   0  0  0  0  0  0
  -31.4774  -12.6741   19.1826 H   0  0  0  0  0  0
  -30.4098  -11.5731   20.0071 H   0  0  0  0  0  0
  -29.8211  -11.7170   17.5655 H   0  0  0  0  0  0
  -29.6171  -13.4468   17.6965 H   0  0  0  0  0  0
  -27.9366  -11.2696   18.9717 H   0  0  0  0  0  0
  -27.3833  -12.4498   17.8158 H   0  0  0  0  0  0
  -27.6094  -14.2492   19.4233 H   0  0  0  0  0  0
  -28.7493  -12.2552   21.4462 H   0  0  0  0  0  0
  -28.3952  -13.9344   21.7652 H   0  0  0  0  0  0
  -25.2767   -9.5698   22.4732 H   0  0  0  0  0  0
  -23.9974   -7.4673   22.7529 H   0  0  0  0  0  0
  -21.0834   -8.8796   19.8957 H   0  0  0  0  0  0
  -22.3707  -10.9684   19.6166 H   0  0  0  0  0  0
  -21.2016   -7.6153   23.9657 H   0  0  0  0  0  0
  -21.1484   -6.0574   25.9070 H   0  0  0  0  0  0
  -22.0590   -2.7602   23.2876 H   0  0  0  0  0  0
  -22.4120  -11.9974   22.4991 H   0  0  0  0  0  0
  -21.1134  -13.1336   22.2759 H   0  0  0  0  0  0
  -24.6384  -15.8394   20.5069 H   0  0  0  0  0  0
  -26.2477  -15.6330   20.0408 H   0  0  0  0  0  0
  -26.7229  -32.5341   23.1046 H   0  0  0  0  0  0
  -24.9996  -33.9656   25.0315 H   0  0  0  0  0  0
  -22.7429  -31.2893   21.3817 H   0  0  0  0  0  0
  -23.3769  -35.9619   23.3283 H   0  0  0  0  0  0
  -24.3605  -36.8935   22.2065 H   0  0  0  0  0  0
  -23.7279  -37.6488   23.6682 H   0  0  0  0  0  0
  -26.1375  -31.4905   20.6000 H   0  0  0  0  0  0
  -26.8696  -30.7969   22.0144 H   0  0  0  0  0  0
  -28.1458  -28.8681   21.2051 H   0  0  0  0  0  0
  -25.9695  -25.8397   19.0474 H   0  0  0  0  0  0
  -23.9826  -27.2737   19.0200 H   0  0  0  0  0  0
  -23.7967  -30.5615   19.3996 H   0  0  0  0  0  0
  -22.7842  -29.2245   19.8548 H   0  0  0  0  0  0
  -25.1322  -36.1907   25.0820 H   0  0  0  0  0  0
  -20.9992  -28.3283   24.1386 H   0  0  0  0  0  0
  -20.5689  -26.2325   23.3622 H   0  0  0  0  0  0
  -21.6664  -26.7412   22.1210 H   0  0  0  0  0  0
  -19.6925  -25.6288   21.1251 H   0  0  0  0  0  0
  -19.6710  -27.3186   20.6749 H   0  0  0  0  0  0
  -17.4221  -26.6649   21.4041 H   0  0  0  0  0  0
  -18.0340  -26.0071   22.9047 H   0  0  0  0  0  0
  -19.7944  -30.7285   24.2237 H   0  0  0  0  0  0
  -17.5011  -31.6251   24.5178 H   0  0  0  0  0  0
  -15.5354  -30.2965   23.7648 H   0  0  0  0  0  0
  -15.8690  -28.0804   22.7053 H   0  0  0  0  0  0
  -24.5876  -30.7092   25.7746 H   0  0  0  0  0  0
  -24.8918  -32.2907   26.4841 H   0  0  0  0  0  0
  -25.8003  -30.8901   27.0213 H   0  0  0  0  0  0
  -26.2962  -29.6741   24.1188 H   0  0  0  0  0  0
  -27.3975  -29.7220   25.4765 H   0  0  0  0  0  0
  -27.8873  -30.4268   23.9532 H   0  0  0  0  0  0
  -27.2661  -33.3613   26.2038 H   0  0  0  0  0  0
  -28.3851  -32.6862   25.0279 H   0  0  0  0  0  0
  -28.0748  -31.8448   26.5392 H   0  0  0  0  0  0
  -28.2596  -38.0108   24.7486 H   0  0  0  0  0  0
  -28.1095  -36.2635   24.6304 H   0  0  0  0  0  0
  -27.2306  -37.1477   25.8863 H   0  0  0  0  0  0
  -20.9453  -29.8760   21.6833 H   0  0  0  0  0  0
  -26.0193  -38.2828   24.1351 H   0  0  0  0  0  0
  -30.4029  -23.3296   19.7263 H   0  0  0  0  0  0
  -30.6851  -20.8721   19.6576 H   0  0  0  0  0  0
  -26.5746  -22.8425   21.5059 H   0  0  0  0  0  0
  -24.9781  -20.7351   20.1311 H   0  0  0  0  0  0
  -24.7967  -21.6482   21.6309 H   0  0  0  0  0  0
  -24.2901  -19.9764   21.5564 H   0  0  0  0  0  0
  -27.5260  -19.6703   23.4670 H   0  0  0  0  0  0
  -25.7782  -19.5734   23.6296 H   0  0  0  0  0  0
  -26.5758  -21.1450   23.6019 H   0  0  0  0  0  0
  -28.0988  -18.3490   19.8841 H   0  0  0  0  0  0
  -28.4732  -18.4096   21.5768 H   0  0  0  0  0  0
  -28.8929  -25.1351   21.7797 H   0  0  0  0  0  0
  -27.2129  -25.0190   21.4682 H   0  0  0  0  0  0
  -30.8708  -17.8103   21.1484 H   0  0  0  0  0  0
  -30.5489  -17.7041   19.4446 H   0  0  0  0  0  0
  -26.4788  -19.1624   21.2810 H   0  0  0  0  0  0
  -28.8251  -15.8290   20.7970 H   0  0  0  0  0  0
  1 25  1  0  0  0
  1 30  2  0  0  0
  1 83  1  0  0  0
  2  3  1  0  0  0
  2 25  1  0  0  0
  2 84  1  0  0  0
  2 85  1  0  0  0
  3  4  1  0  0  0
  3 86  1  0  0  0
  3 87  1  0  0  0
  4  5  1  0  0  0
  4 88  1  0  0  0
  4 89  1  0  0  0
  5  6  1  0  0  0
  5 26  1  0  0  0
  5 90  1  0  0  0
  6 25  1  0  0  0
  6 91  1  0  0  0
  6 92  1  0  0  0
  7  8  2  0  0  0
  7 26  1  0  0  0
  7 29  1  0  0  0
  8  9  1  0  0  0
  8 22  1  0  0  0
  9 10  1  0  0  0
  9 27  2  0  0  0
 10 11  2  0  0  0
 10 15  1  0  0  0
 11 12  1  0  0  0
 11 93  1  0  0  0
 12 13  2  0  0  0
 12 94  1  0  0  0
 13 14  1  0  0  0
 13 31  1  0  0  0
 14 15  2  0  0  0
 14 95  1  0  0  0
 15 96  1  0  0  0
 16 17  2  0  0  0
 16 21  1  0  0  0
 16 31  1  0  0  0
 17 18  1  0  0  0
 17 97  1  0  0  0
 18 19  2  0  0  0
 18 98  1  0  0  0
 19 20  1  0  0  0
 19 24  1  0  0  0
 20 21  2  0  0  0
 20 99  1  0  0  0
 21 23  1  0  0  0
 22 28  1  0  0  0
 22 32  2  0  0  0
 26 27  1  0  0  0
 28100  1  0  0  0
 28101  1  0  0  0
 29102  1  0  0  0
 29103  1  0  0  0
 33 34  1  0  0  0
 33 66  1  0  0  0
 33 70  2  0  0  0
 34 36  1  0  0  0
 34 59  1  0  0  0
 34104  1  0  0  0
 35 44  2  0  0  0
 35 45  1  0  0  0
 35 68  1  0  0  0
 36 56  1  0  0  0
 36105  1  0  0  0
 37 39  1  0  0  0
 37 47  1  0  0  0
 37 66  1  0  0  0
 37106  1  0  0  0
 38 43  2  0  0  0
 38 46  1  0  0  0
 38 47  1  0  0  0
 39 64  1  0  0  0
 39 67  2  0  0  0
 40 52  1  0  0  0
 40 53  2  0  0  0
 40 58  1  0  0  0
 41107  1  0  0  0
 41108  1  0  0  0
 41109  1  0  0  0
 41 48  1  0  0  0
 42 43  1  0  0  0
 42 66  1  0  0  0
 42110  1  0  0  0
 42111  1  0  0  0
 43 44  1  0  0  0
 44112  1  0  0  0
 45 46  2  0  0  0
 45113  1  0  0  0
 46114  1  0  0  0
 47115  1  0  0  0
 47116  1  0  0  0
 48 56  1  0  0  0
 48 65  1  0  0  0
 48117  1  0  0  0
 49 50  1  0  0  0
 49 53  1  0  0  0
 49 64  1  0  0  0
 49118  1  0  0  0
 50 51  1  0  0  0
 50119  1  0  0  0
 50120  1  0  0  0
 51 52  1  0  0  0
 51121  1  0  0  0
 51122  1  0  0  0
 52123  1  0  0  0
 52124  1  0  0  0
 53 54  1  0  0  0
 54 55  2  0  0  0
 54125  1  0  0  0
 55 57  1  0  0  0
 55126  1  0  0  0
 56 69  2  0  0  0
 57 58  2  0  0  0
 57127  1  0  0  0
 58128  1  0  0  0
 59 60  1  0  0  0
 59 61  1  0  0  0
 59 62  1  0  0  0
 60129  1  0  0  0
 60130  1  0  0  0
 60131  1  0  0  0
 61132  1  0  0  0
 61133  1  0  0  0
 61134  1  0  0  0
 62135  1  0  0  0
 62136  1  0  0  0
 62137  1  0  0  0
 63 65  1  0  0  0
 63138  1  0  0  0
 63139  1  0  0  0
 63140  1  0  0  0
 64141  1  0  0  0
 65142  1  0  0  0
 68 80  1  0  0  0
 71 72  2  0  0  0
 71 74  1  0  0  0
 71143  1  0  0  0
 72 75  1  0  0  0
 72144  1  0  0  0
 73 74  2  0  0  0
 73 76  1  0  0  0
 73145  1  0  0  0
 74 80  1  0  0  0
 75 76  2  0  0  0
 75 79  1  0  0  0
 76 82  1  0  0  0
 77146  1  0  0  0
 77147  1  0  0  0
 77148  1  0  0  0
 77 82  1  0  0  0
 78 82  1  0  0  0
 78149  1  0  0  0
 78150  1  0  0  0
 78151  1  0  0  0
 79 81  1  0  0  0
 79152  1  0  0  0
 79153  1  0  0  0
 80154  1  0  0  0
 80155  1  0  0  0
 81 83  1  0  0  0
 81156  1  0  0  0
 81157  1  0  0  0
 82158  1  0  0  0
 83159  1  0  0  0
M  ISO  4   1 100  68 101  80 101  83 100
M  END
> <chiral flag>
0

> <version>
0

> <s_m_source_file>
/data/baiqing/PycharmProjects/Reinvent-master-3.2/result/LINK_invent/BTK/process_docking_weight1_custom_sum_contain_oxygen_bond_distance_aromatic_linkinvent_7_9_3/rearranged_h_0131.sdf

> <i_m_source_file_index>
48

> <r_mmod_Potential_Energy-OPLS-2005>
406.117279052734

> <r_mmod_Stretch_Energy-OPLS-2005>
197.868179321289

> <r_mmod_Bend_Energy-OPLS-2005>
266.59814453125

> <r_mmod_Torsional_Energy-OPLS-2005>
242.506240844727

> <r_mmod_Improper_Torsional_Energy-OPLS-2005>
7.07506322860718

> <r_mmod_Van_der_Waal_Energy-OPLS-2005>
135.205474853516

> <r_mmod_Electrostatic_Energy-OPLS-2005>
-381.839965820312

> <r_mmod_Solvation_Energy-OPLS-2005>
-205.82649230957

> <b_mmod_Minimization_Converged-OPLS-2005>
0

> <r_mmod_RMS_Derivative-OPLS-2005>
2.52000069618225

$$$$
48
                    3D
 Structure written by MMmdl.
162171  0  0  1  0            999 V2000
  -30.7461  -14.3988   20.6610 C   0  0  0  0  0  0
  -30.4212  -12.3020   19.3978 C   0  0  0  0  0  0
  -29.4857  -12.5206   18.1934 C   0  0  0  0  0  0
  -28.0092  -12.3777   18.6101 C   0  0  0  0  0  0
  -27.6642  -13.2024   19.8781 C   0  0  2  0  0  0
  -28.7042  -12.9508   20.9919 C   0  0  0  0  0  0
  -25.2590  -13.8151   20.5670 C   0  0  0  0  0  0
  -24.1835  -13.0436   20.9163 C   0  0  0  0  0  0
  -24.6380  -11.6899   20.8724 C   0  0  0  0  0  0
  -23.9042  -10.4292   21.0397 C   0  0  0  0  0  0
  -24.3597   -9.4214   21.9180 C   0  0  0  0  0  0
  -23.6284   -8.2244   22.0748 C   0  0  0  0  0  0
  -22.4269   -8.0277   21.3538 C   0  0  0  0  0  0
  -21.9898   -9.0244   20.4637 C   0  0  0  0  0  0
  -22.7215  -10.2130   20.3046 C   0  0  0  0  0  0
  -21.6852   -6.0730   22.5273 C   0  0  0  0  0  0
  -21.4005   -6.5629   23.8207 C   0  0  0  0  0  0
  -21.3660   -5.6783   24.9169 C   0  0  0  0  0  0
  -21.6048   -4.3048   24.7222 C   0  0  0  0  0  0
  -21.8820   -3.8139   23.4343 C   0  0  0  0  0  0
  -21.9194   -4.6957   22.3397 C   0  0  0  0  0  0
  -22.7864  -13.5248   21.1838 C   0  0  0  0  0  0
  -22.1663   -4.2145   21.0974 F   0  0  0  0  0  0
  -21.5640   -3.4533   25.7732 F   0  0  0  0  0  0
  -30.0419  -13.2558   20.4505 N   0  0  0  0  0  0
  -26.3029  -12.9316   20.3372 N   0  0  0  0  0  0
  -25.9305  -11.6477   20.5751 N   0  0  0  0  0  0
  -22.0491  -12.8240   22.0382 N   0  0  0  0  0  0
  -25.4329  -15.1867   20.4085 N   0  0  0  0  0  0
  -31.8003  -14.6648   20.0779 O   0  0  0  0  0  0
  -21.6633   -6.8872   21.4237 O   0  0  0  0  0  0
  -22.3562  -14.5574   20.6707 O   0  0  0  0  0  0
  -24.6140  -31.8691   23.2111 C   0  0  0  0  0  0
  -25.9045  -32.4824   23.8398 C   0  0  1  0  0  0
  -27.2389  -27.4510   20.0687 C   0  0  0  0  0  0
  -25.5913  -33.8626   24.2334 N   0  0  0  0  0  0
  -23.3996  -30.4926   21.5531 C   0  0  2  0  0  0
  -24.8434  -28.9588   20.1164 C   0  0  0  0  0  0
  -22.7401  -29.4661   22.5015 C   0  0  0  0  0  0
  -18.0265  -28.1381   22.8493 C   0  0  0  0  0  0
  -24.1480  -36.7300   23.2632 C   0  0  0  0  0  0
  -25.9280  -30.8348   21.3636 C   0  0  0  0  0  0
  -26.0032  -29.4700   20.7107 C   0  0  0  0  0  0
  -27.1989  -28.7183   20.6933 C   0  0  0  0  0  0
  -26.0491  -26.9373   19.5017 C   0  0  0  0  0  0
  -24.8590  -27.6882   19.5170 C   0  0  0  0  0  0
  -23.6058  -29.8253   20.1670 C   0  0  0  0  0  0
  -25.4099  -36.3114   24.0343 C   0  0  1  0  0  0
  -20.5857  -28.3659   23.1335 C   0  0  2  0  0  0
  -20.6758  -26.9393   22.5438 C   0  0  0  0  0  0
  -19.5744  -26.6388   21.5223 C   0  0  0  0  0  0
  -18.1912  -26.7937   22.1608 C   0  0  0  0  0  0
  -19.1516  -28.8836   23.2911 C   0  0  0  0  0  0
  -18.9446  -30.1443   23.8919 C   0  0  0  0  0  0
  -17.6447  -30.6581   24.0573 C   0  0  0  0  0  0
  -25.9042  -34.9483   23.5137 C   0  0  0  0  0  0
  -16.5338  -29.9085   23.6335 C   0  0  0  0  0  0
  -16.7257  -28.6508   23.0346 C   0  0  0  0  0  0
  -26.4472  -31.6601   25.0726 C   0  0  0  0  0  0
  -25.3743  -31.3720   26.1483 C   0  0  0  0  0  0
  -27.0273  -30.3034   24.6098 C   0  0  0  0  0  0
  -27.6069  -32.4300   25.7473 C   0  0  0  0  0  0
  -27.5602  -37.1774   24.8437 C   0  0  0  0  0  0
  -21.4135  -29.3023   22.3748 N   0  0  0  0  0  0
  -26.4270  -37.3815   23.9450 N   0  0  0  0  0  0
  -24.6654  -31.0795   22.1011 N   0  0  0  0  0  0
  -23.4182  -28.8216   23.3059 O   0  0  0  0  0  0
  -28.4274  -26.7501   20.0725 O   0  0  0  0  0  0
  -26.5602  -34.8939   22.4697 O   0  0  0  0  0  0
  -23.5339  -32.1442   23.7518 O   0  0  0  0  0  0
  -30.9189  -22.7810   19.6028 C   0  0  0  0  0  0
  -28.6727  -22.3054   20.4078 C   0  0  0  0  0  0
  -30.5090  -24.0736   19.2185 C   0  0  0  0  0  0
  -28.2625  -23.6010   20.0209 C   0  0  0  0  0  0
  -30.0082  -21.8826   20.2038 C   0  0  0  0  0  0
  -29.1788  -24.4939   19.4257 C   0  0  0  0  0  0
  -30.1337  -20.1308   22.0899 C   0  0  0  0  0  0
  -30.5072  -18.0947   20.1111 C   0  0  0  0  0  0
  -30.4911  -20.4907   20.6296 C   0  0  1  0  0  0
  -30.1925  -17.7665   21.5974 C   0  0  1  0  0  0
  -28.7344  -25.8809   18.9756 C   0  0  0  0  0  0
  -30.8383  -16.4487   22.0937 C   0  0  0  0  0  0
  -30.7188  -18.8352   22.4501 N   0  0  0  0  0  0
  -30.2113  -15.2429   21.5539 N   0  0  0  0  0  0
  -29.9906  -19.4316   19.7304 N   0  3  0  0  0  0
  -31.4631  -12.4109   19.0911 H   0  0  0  0  0  0
  -30.3307  -11.2819   19.7734 H   0  0  0  0  0  0
  -29.7198  -11.8086   17.4007 H   0  0  0  0  0  0
  -29.6544  -13.5131   17.7720 H   0  0  0  0  0  0
  -27.8166  -11.3199   18.7926 H   0  0  0  0  0  0
  -27.3565  -12.6672   17.7857 H   0  0  0  0  0  0
  -27.7196  -14.2554   19.6020 H   0  0  0  0  0  0
  -28.6745  -11.9056   21.3040 H   0  0  0  0  0  0
  -28.4517  -13.5202   21.8865 H   0  0  0  0  0  0
  -25.2740   -9.5697   22.4753 H   0  0  0  0  0  0
  -23.9997   -7.4637   22.7465 H   0  0  0  0  0  0
  -21.0831   -8.8752   19.8942 H   0  0  0  0  0  0
  -22.3671  -10.9662   19.6148 H   0  0  0  0  0  0
  -21.1984   -7.6136   23.9712 H   0  0  0  0  0  0
  -21.1482   -6.0510   25.9075 H   0  0  0  0  0  0
  -22.0600   -2.7602   23.2840 H   0  0  0  0  0  0
  -22.4087  -11.9887   22.4753 H   0  0  0  0  0  0
  -21.1112  -13.1274   22.2585 H   0  0  0  0  0  0
  -24.6678  -15.8438   20.5165 H   0  0  0  0  0  0
  -26.2899  -15.6241   20.0942 H   0  0  0  0  0  0
  -26.7117  -32.5529   23.1166 H   0  0  0  0  0  0
  -25.0086  -33.9792   25.0499 H   0  0  0  0  0  0
  -22.6867  -31.3083   21.4154 H   0  0  0  0  0  0
  -23.3777  -35.9589   23.3223 H   0  0  0  0  0  0
  -24.3595  -36.8983   22.2060 H   0  0  0  0  0  0
  -23.7172  -37.6460   23.6686 H   0  0  0  0  0  0
  -26.0400  -31.6012   20.5952 H   0  0  0  0  0  0
  -26.8168  -30.8867   21.9809 H   0  0  0  0  0  0
  -28.0965  -29.1138   21.1484 H   0  0  0  0  0  0
  -26.0132  -25.9516   19.0628 H   0  0  0  0  0  0
  -23.9615  -27.2792   19.0738 H   0  0  0  0  0  0
  -23.7123  -30.6005   19.4072 H   0  0  0  0  0  0
  -22.7295  -29.2454   19.8729 H   0  0  0  0  0  0
  -25.1265  -36.1963   25.0832 H   0  0  0  0  0  0
  -20.9938  -28.3224   24.1459 H   0  0  0  0  0  0
  -20.5651  -26.2266   23.3625 H   0  0  0  0  0  0
  -21.6630  -26.7436   22.1236 H   0  0  0  0  0  0
  -19.6900  -25.6306   21.1234 H   0  0  0  0  0  0
  -19.6704  -27.3220   20.6772 H   0  0  0  0  0  0
  -17.4202  -26.6731   21.3978 H   0  0  0  0  0  0
  -18.0261  -26.0059   22.8972 H   0  0  0  0  0  0
  -19.7917  -30.7258   24.2299 H   0  0  0  0  0  0
  -17.4998  -31.6263   24.5175 H   0  0  0  0  0  0
  -15.5342  -30.2992   23.7655 H   0  0  0  0  0  0
  -15.8655  -28.0842   22.7043 H   0  0  0  0  0  0
  -24.5948  -30.7014   25.7849 H   0  0  0  0  0  0
  -24.8893  -32.2870   26.4888 H   0  0  0  0  0  0
  -25.8112  -30.8952   27.0265 H   0  0  0  0  0  0
  -26.2793  -29.6811   24.1167 H   0  0  0  0  0  0
  -27.4041  -29.7265   25.4556 H   0  0  0  0  0  0
  -27.8641  -30.4332   23.9229 H   0  0  0  0  0  0
  -27.2723  -33.3615   26.2049 H   0  0  0  0  0  0
  -28.3880  -32.6824   25.0289 H   0  0  0  0  0  0
  -28.0727  -31.8409   26.5384 H   0  0  0  0  0  0
  -28.2537  -38.0157   24.7634 H   0  0  0  0  0  0
  -28.1186  -36.2706   24.6057 H   0  0  0  0  0  0
  -27.2358  -37.1173   25.8841 H   0  0  0  0  0  0
  -20.9295  -29.8739   21.6967 H   0  0  0  0  0  0
  -26.0154  -38.2868   24.1557 H   0  0  0  0  0  0
  -31.9471  -22.4885   19.4360 H   0  0  0  0  0  0
  -27.9493  -21.6438   20.8639 H   0  0  0  0  0  0
  -31.2242  -24.7423   18.7598 H   0  0  0  0  0  0
  -27.2385  -23.9093   20.1784 H   0  0  0  0  0  0
  -29.0533  -20.1107   22.2430 H   0  0  0  0  0  0
  -30.5300  -20.8952   22.7601 H   0  0  0  0  0  0
  -30.0639  -17.3429   19.4571 H   0  0  0  0  0  0
  -31.5837  -18.0609   19.9349 H   0  0  0  0  0  0
  -31.5801  -20.4935   20.5499 H   0  0  0  0  0  0
  -29.1114  -17.7064   21.7405 H   0  0  0  0  0  0
  -27.9443  -25.7719   18.2349 H   0  0  0  0  0  0
  -29.5529  -26.3493   18.4284 H   0  0  0  0  0  0
  -30.7418  -16.3773   23.1781 H   0  0  0  0  0  0
  -31.9127  -16.4552   21.8973 H   0  0  0  0  0  0
  -30.4836  -18.6320   23.4185 H   0  0  0  0  0  0
  -29.3403  -14.9528   21.9732 H   0  0  0  0  0  0
  -28.9865  -19.4205   19.7641 H   0  0  0  0  0  0
  -30.2733  -19.6416   18.7889 H   0  0  0  0  0  0
  1 25  1  0  0  0
  1 30  2  0  0  0
  1 84  1  0  0  0
  2  3  1  0  0  0
  2 25  1  0  0  0
  2 86  1  0  0  0
  2 87  1  0  0  0
  3  4  1  0  0  0
  3 88  1  0  0  0
  3 89  1  0  0  0
  4  5  1  0  0  0
  4 90  1  0  0  0
  4 91  1  0  0  0
  5  6  1  0  0  0
  5 26  1  0  0  0
  5 92  1  0  0  0
  6 25  1  0  0  0
  6 93  1  0  0  0
  6 94  1  0  0  0
  7  8  2  0  0  0
  7 26  1  0  0  0
  7 29  1  0  0  0
  8  9  1  0  0  0
  8 22  1  0  0  0
  9 10  1  0  0  0
  9 27  2  0  0  0
 10 11  2  0  0  0
 10 15  1  0  0  0
 11 12  1  0  0  0
 11 95  1  0  0  0
 12 13  2  0  0  0
 12 96  1  0  0  0
 13 14  1  0  0  0
 13 31  1  0  0  0
 14 15  2  0  0  0
 14 97  1  0  0  0
 15 98  1  0  0  0
 16 17  2  0  0  0
 16 21  1  0  0  0
 16 31  1  0  0  0
 17 18  1  0  0  0
 17 99  1  0  0  0
 18 19  2  0  0  0
 18100  1  0  0  0
 19 20  1  0  0  0
 19 24  1  0  0  0
 20 21  2  0  0  0
 20101  1  0  0  0
 21 23  1  0  0  0
 22 28  1  0  0  0
 22 32  2  0  0  0
 26 27  1  0  0  0
 28102  1  0  0  0
 28103  1  0  0  0
 29104  1  0  0  0
 29105  1  0  0  0
 33 34  1  0  0  0
 33 66  1  0  0  0
 33 70  2  0  0  0
 34 36  1  0  0  0
 34 59  1  0  0  0
 34106  1  0  0  0
 35 44  2  0  0  0
 35 45  1  0  0  0
 35 68  1  0  0  0
 36 56  1  0  0  0
 36107  1  0  0  0
 37 39  1  0  0  0
 37 47  1  0  0  0
 37 66  1  0  0  0
 37108  1  0  0  0
 38 43  2  0  0  0
 38 46  1  0  0  0
 38 47  1  0  0  0
 39 64  1  0  0  0
 39 67  2  0  0  0
 40 52  1  0  0  0
 40 53  2  0  0  0
 40 58  1  0  0  0
 41109  1  0  0  0
 41110  1  0  0  0
 41111  1  0  0  0
 41 48  1  0  0  0
 42 43  1  0  0  0
 42 66  1  0  0  0
 42112  1  0  0  0
 42113  1  0  0  0
 43 44  1  0  0  0
 44114  1  0  0  0
 45 46  2  0  0  0
 45115  1  0  0  0
 46116  1  0  0  0
 47117  1  0  0  0
 47118  1  0  0  0
 48 56  1  0  0  0
 48 65  1  0  0  0
 48119  1  0  0  0
 49 50  1  0  0  0
 49 53  1  0  0  0
 49 64  1  0  0  0
 49120  1  0  0  0
 50 51  1  0  0  0
 50121  1  0  0  0
 50122  1  0  0  0
 51 52  1  0  0  0
 51123  1  0  0  0
 51124  1  0  0  0
 52125  1  0  0  0
 52126  1  0  0  0
 53 54  1  0  0  0
 54 55  2  0  0  0
 54127  1  0  0  0
 55 57  1  0  0  0
 55128  1  0  0  0
 56 69  2  0  0  0
 57 58  2  0  0  0
 57129  1  0  0  0
 58130  1  0  0  0
 59 60  1  0  0  0
 59 61  1  0  0  0
 59 62  1  0  0  0
 60131  1  0  0  0
 60132  1  0  0  0
 60133  1  0  0  0
 61134  1  0  0  0
 61135  1  0  0  0
 61136  1  0  0  0
 62137  1  0  0  0
 62138  1  0  0  0
 62139  1  0  0  0
 63 65  1  0  0  0
 63140  1  0  0  0
 63141  1  0  0  0
 63142  1  0  0  0
 64143  1  0  0  0
 65144  1  0  0  0
 68 81  1  0  0  0
 71 73  2  0  0  0
 71 75  1  0  0  0
 71145  1  0  0  0
 72 74  1  0  0  0
 72 75  2  0  0  0
 72146  1  0  0  0
 73 76  1  0  0  0
 73147  1  0  0  0
 74 76  2  0  0  0
 74148  1  0  0  0
 75 79  1  0  0  0
 76 81  1  0  0  0
 77 79  1  0  0  0
 77 83  1  0  0  0
 77149  1  0  0  0
 77150  1  0  0  0
 78 80  1  0  0  0
 78 85  1  0  0  0
 78151  1  0  0  0
 78152  1  0  0  0
 79 85  1  0  0  0
 79153  1  0  0  0
 80 82  1  0  0  0
 80 83  1  0  0  0
 80154  1  0  0  0
 81155  1  0  0  0
 81156  1  0  0  0
 82 84  1  0  0  0
 82157  1  0  0  0
 82158  1  0  0  0
 83159  1  0  0  0
 84160  1  0  0  0
 85161  1  0  0  0
 85162  1  0  0  0
M  CHG  1  85   1
M  ISO  4   1 100  68 101  81 101  84 100
M  END
> <chiral flag>
0

> <version>
0

> <s_m_source_file>
/data/baiqing/PycharmProjects/Reinvent-master-3.2/result/LINK_invent/BTK/process_docking_weight1_custom_sum_contain_oxygen_bond_distance_aromatic_linkinvent_7_9_3/rearranged_h_0131.sdf

> <i_m_source_file_index>
49

> <r_mmod_Potential_Energy-OPLS-2005>
-258.870727539062

> <r_mmod_Stretch_Energy-OPLS-2005>
36.0397148132324

> <r_mmod_Bend_Energy-OPLS-2005>
95.1840515136719

> <r_mmod_Torsional_Energy-OPLS-2005>
206.467361450195

> <r_mmod_Improper_Torsional_Energy-OPLS-2005>
1.88213062286377

> <r_mmod_Van_der_Waal_Energy-OPLS-2005>
160.446975708008

> <r_mmod_Electrostatic_Energy-OPLS-2005>
-302.035186767578

> <r_mmod_Solvation_Energy-OPLS-2005>
-465.233917236328

> <b_mmod_Minimization_Converged-OPLS-2005>
0

> <r_mmod_RMS_Derivative-OPLS-2005>
0.822600066661835

$$$$
49
                    3D
 Structure written by MMmdl.
159167  0  0  1  0            999 V2000
  -30.5756  -14.7863   20.4808 C   0  0  0  0  0  0
  -30.4436  -12.4933   19.4645 C   0  0  0  0  0  0
  -29.5076  -12.5070   18.2349 C   0  0  0  0  0  0
  -28.0368  -12.3180   18.6555 C   0  0  0  0  0  0
  -27.6378  -13.2277   19.8466 C   0  0  2  0  0  0
  -28.6838  -13.1707   20.9802 C   0  0  0  0  0  0
  -25.2487  -13.8175   20.5695 C   0  0  0  0  0  0
  -24.1789  -13.0418   20.9220 C   0  0  0  0  0  0
  -24.6380  -11.6898   20.8757 C   0  0  0  0  0  0
  -23.9058  -10.4281   21.0417 C   0  0  0  0  0  0
  -24.3613   -9.4197   21.9188 C   0  0  0  0  0  0
  -23.6297   -8.2228   22.0759 C   0  0  0  0  0  0
  -22.4275   -8.0273   21.3548 C   0  0  0  0  0  0
  -21.9903   -9.0240   20.4647 C   0  0  0  0  0  0
  -22.7231  -10.2121   20.3063 C   0  0  0  0  0  0
  -21.6861   -6.0729   22.5282 C   0  0  0  0  0  0
  -21.4015   -6.5645   23.8210 C   0  0  0  0  0  0
  -21.3653   -5.6804   24.9182 C   0  0  0  0  0  0
  -21.6045   -4.3064   24.7235 C   0  0  0  0  0  0
  -21.8816   -3.8148   23.4359 C   0  0  0  0  0  0
  -21.9189   -4.6957   22.3413 C   0  0  0  0  0  0
  -22.7811  -13.5187   21.1894 C   0  0  0  0  0  0
  -22.1664   -4.2140   21.0989 F   0  0  0  0  0  0
  -21.5619   -3.4548   25.7747 F   0  0  0  0  0  0
  -29.9749  -13.5498   20.3913 N   0  0  0  0  0  0
  -26.2910  -12.9380   20.3266 N   0  0  0  0  0  0
  -25.9307  -11.6528   20.5758 N   0  0  0  0  0  0
  -22.0480  -12.8163   22.0462 N   0  0  0  0  0  0
  -25.4126  -15.1906   20.4104 N   0  0  0  0  0  0
  -31.7766  -14.9043   20.2206 O   0  0  0  0  0  0
  -21.6652   -6.8862   21.4239 O   0  0  0  0  0  0
  -22.3488  -14.5499   20.6761 O   0  0  0  0  0  0
  -24.6339  -31.8495   23.1965 C   0  0  0  0  0  0
  -25.9161  -32.4702   23.8312 C   0  0  1  0  0  0
  -27.2243  -27.2313   20.1388 C   0  0  0  0  0  0
  -25.5939  -33.8513   24.2230 N   0  0  0  0  0  0
  -23.4339  -30.4749   21.5368 C   0  0  2  0  0  0
  -24.8849  -28.9199   20.1070 C   0  0  0  0  0  0
  -22.7537  -29.4584   22.4859 C   0  0  0  0  0  0
  -18.0306  -28.1409   22.8479 C   0  0  0  0  0  0
  -24.1488  -36.7304   23.2637 C   0  0  0  0  0  0
  -25.9826  -30.7575   21.3788 C   0  0  0  0  0  0
  -26.0580  -29.3779   20.7198 C   0  0  0  0  0  0
  -27.2292  -28.5487   20.7220 C   0  0  0  0  0  0
  -26.0266  -26.8529   19.4864 C   0  0  0  0  0  0
  -24.8772  -27.6681   19.4765 C   0  0  0  0  0  0
  -23.6583  -29.8130   20.1520 C   0  0  0  0  0  0
  -25.4101  -36.3040   24.0316 C   0  0  1  0  0  0
  -20.5923  -28.3732   23.1250 C   0  0  2  0  0  0
  -20.6822  -26.9443   22.5418 C   0  0  0  0  0  0
  -19.5782  -26.6398   21.5232 C   0  0  0  0  0  0
  -18.1948  -26.7953   22.1626 C   0  0  0  0  0  0
  -19.1560  -28.8888   23.2862 C   0  0  0  0  0  0
  -18.9484  -30.1490   23.8868 C   0  0  0  0  0  0
  -17.6480  -30.6600   24.0578 C   0  0  0  0  0  0
  -25.9055  -34.9409   23.5087 C   0  0  0  0  0  0
  -16.5378  -29.9103   23.6323 C   0  0  0  0  0  0
  -16.7293  -28.6536   23.0323 C   0  0  0  0  0  0
  -26.4514  -31.6538   25.0715 C   0  0  0  0  0  0
  -25.3755  -31.3715   26.1454 C   0  0  0  0  0  0
  -27.0334  -30.2930   24.6233 C   0  0  0  0  0  0
  -27.6033  -32.4320   25.7487 C   0  0  0  0  0  0
  -27.5574  -37.1791   24.8446 C   0  0  0  0  0  0
  -21.4243  -29.3049   22.3599 N   0  0  0  0  0  0
  -26.4278  -37.3735   23.9397 N   0  0  0  0  0  0
  -24.7029  -31.0467   22.0940 N   0  0  0  0  0  0
  -23.4224  -28.8122   23.2964 O   0  0  0  0  0  0
  -28.3048  -26.3087   20.2154 O   0  0  0  0  0  0
  -26.5625  -34.8891   22.4651 O   0  0  0  0  0  0
  -23.5482  -32.1318   23.7247 O   0  0  0  0  0  0
  -29.9741  -19.7391   18.0614 C   0  0  0  0  0  0
  -30.0657  -18.5784   18.8510 C   0  0  0  0  0  0
  -29.5571  -20.9790   18.6089 C   0  0  0  0  0  0
  -29.7617  -18.6374   20.2157 C   0  0  0  0  0  0
  -29.2445  -21.0346   19.9961 C   0  0  0  0  0  0
  -29.2033  -23.2597   15.3832 C   0  0  0  0  0  0
  -29.4242  -22.2065   17.6992 C   0  0  0  0  0  0
  -30.0516  -17.3422   21.1118 C   0  0  0  0  0  0
  -29.3093  -21.9527   16.1816 C   0  0  0  0  0  0
  -28.0295  -24.8179   20.1108 C   0  0  0  0  0  0
  -29.1118  -23.6408   20.4563 C   0  0  0  0  0  0
  -29.3446  -19.8606   20.7543 N   0  0  0  0  0  0
  -29.7610  -15.8946   20.6859 N   0  0  0  0  0  0
  -28.6972  -22.1975   20.6379 O   0  0  0  0  0  0
  -31.4754  -12.6578   19.1488 H   0  0  0  0  0  0
  -30.4303  -11.5190   19.9568 H   0  0  0  0  0  0
  -29.7971  -11.7250   17.5309 H   0  0  0  0  0  0
  -29.6165  -13.4540   17.7030 H   0  0  0  0  0  0
  -27.9071  -11.2710   18.9353 H   0  0  0  0  0  0
  -27.3723  -12.4894   17.8072 H   0  0  0  0  0  0
  -27.6261  -14.2462   19.4565 H   0  0  0  0  0  0
  -28.7363  -12.1709   21.4156 H   0  0  0  0  0  0
  -28.4091  -13.8442   21.7952 H   0  0  0  0  0  0
  -25.2748   -9.5688   22.4771 H   0  0  0  0  0  0
  -24.0013   -7.4623   22.7481 H   0  0  0  0  0  0
  -21.0831   -8.8742   19.8963 H   0  0  0  0  0  0
  -22.3668  -10.9656   19.6184 H   0  0  0  0  0  0
  -21.2022   -7.6153   23.9706 H   0  0  0  0  0  0
  -21.1475   -6.0543   25.9076 H   0  0  0  0  0  0
  -22.0597   -2.7608   23.2869 H   0  0  0  0  0  0
  -22.4133  -11.9813   22.4795 H   0  0  0  0  0  0
  -21.1101  -13.1158   22.2720 H   0  0  0  0  0  0
  -24.6311  -15.8297   20.5127 H   0  0  0  0  0  0
  -26.2418  -15.6367   20.0416 H   0  0  0  0  0  0
  -26.7231  -32.5345   23.1048 H   0  0  0  0  0  0
  -25.0055  -33.9640   25.0359 H   0  0  0  0  0  0
  -22.7322  -31.2992   21.3885 H   0  0  0  0  0  0
  -23.3718  -35.9673   23.3266 H   0  0  0  0  0  0
  -24.3601  -36.8970   22.2066 H   0  0  0  0  0  0
  -23.7298  -37.6520   23.6698 H   0  0  0  0  0  0
  -26.1304  -31.5170   20.6085 H   0  0  0  0  0  0
  -26.8560  -30.8079   22.0163 H   0  0  0  0  0  0
  -28.1272  -28.8923   21.2185 H   0  0  0  0  0  0
  -25.9452  -25.8983   18.9923 H   0  0  0  0  0  0
  -23.9829  -27.3151   18.9840 H   0  0  0  0  0  0
  -23.7956  -30.5925   19.4004 H   0  0  0  0  0  0
  -22.7733  -29.2576   19.8334 H   0  0  0  0  0  0
  -25.1277  -36.1870   25.0808 H   0  0  0  0  0  0
  -21.0019  -28.3338   24.1373 H   0  0  0  0  0  0
  -20.5790  -26.2316   23.3635 H   0  0  0  0  0  0
  -21.6680  -26.7510   22.1163 H   0  0  0  0  0  0
  -19.6959  -25.6311   21.1263 H   0  0  0  0  0  0
  -19.6729  -27.3202   20.6768 H   0  0  0  0  0  0
  -17.4242  -26.6704   21.4012 H   0  0  0  0  0  0
  -18.0339  -26.0100   22.9028 H   0  0  0  0  0  0
  -19.7956  -30.7310   24.2222 H   0  0  0  0  0  0
  -17.5033  -31.6268   24.5206 H   0  0  0  0  0  0
  -15.5379  -30.2990   23.7679 H   0  0  0  0  0  0
  -15.8697  -28.0874   22.6993 H   0  0  0  0  0  0
  -24.5967  -30.6975   25.7866 H   0  0  0  0  0  0
  -24.8896  -32.2877   26.4820 H   0  0  0  0  0  0
  -25.8112  -30.9017   27.0275 H   0  0  0  0  0  0
  -26.2896  -29.6662   24.1295 H   0  0  0  0  0  0
  -27.3995  -29.7204   25.4766 H   0  0  0  0  0  0
  -27.8793  -30.4141   23.9457 H   0  0  0  0  0  0
  -27.2606  -33.3647   26.1975 H   0  0  0  0  0  0
  -28.3877  -32.6843   25.0341 H   0  0  0  0  0  0
  -28.0639  -31.8518   26.5482 H   0  0  0  0  0  0
  -28.2550  -38.0131   24.7499 H   0  0  0  0  0  0
  -28.1116  -36.2652   24.6241 H   0  0  0  0  0  0
  -27.2305  -37.1405   25.8858 H   0  0  0  0  0  0
  -20.9440  -29.8802   21.6825 H   0  0  0  0  0  0
  -26.0140  -38.2798   24.1424 H   0  0  0  0  0  0
  -30.2401  -19.6501   17.0205 H   0  0  0  0  0  0
  -30.4074  -17.6482   18.4155 H   0  0  0  0  0  0
  -29.0394  -23.0598   14.3239 H   0  0  0  0  0  0
  -30.1202  -23.8456   15.4635 H   0  0  0  0  0  0
  -28.3784  -23.8828   15.7332 H   0  0  0  0  0  0
  -30.2873  -22.8497   17.8686 H   0  0  0  0  0  0
  -28.5353  -22.7563   18.0042 H   0  0  0  0  0  0
  -29.5011  -17.4859   22.0426 H   0  0  0  0  0  0
  -31.1015  -17.3955   21.4012 H   0  0  0  0  0  0
  -30.1818  -21.4171   15.8060 H   0  0  0  0  0  0
  -28.4374  -21.3309   15.9721 H   0  0  0  0  0  0
  -27.1616  -24.6238   20.7446 H   0  0  0  0  0  0
  -27.6987  -24.6251   19.0916 H   0  0  0  0  0  0
  -29.5206  -23.9046   21.4329 H   0  0  0  0  0  0
  -29.9749  -23.7278   19.8019 H   0  0  0  0  0  0
  -28.7820  -15.6629   20.7376 H   0  0  0  0  0  0
  1 25  1  0  0  0
  1 30  2  0  0  0
  1 83  1  0  0  0
  2  3  1  0  0  0
  2 25  1  0  0  0
  2 85  1  0  0  0
  2 86  1  0  0  0
  3  4  1  0  0  0
  3 87  1  0  0  0
  3 88  1  0  0  0
  4  5  1  0  0  0
  4 89  1  0  0  0
  4 90  1  0  0  0
  5  6  1  0  0  0
  5 26  1  0  0  0
  5 91  1  0  0  0
  6 25  1  0  0  0
  6 92  1  0  0  0
  6 93  1  0  0  0
  7  8  2  0  0  0
  7 26  1  0  0  0
  7 29  1  0  0  0
  8  9  1  0  0  0
  8 22  1  0  0  0
  9 10  1  0  0  0
  9 27  2  0  0  0
 10 11  2  0  0  0
 10 15  1  0  0  0
 11 12  1  0  0  0
 11 94  1  0  0  0
 12 13  2  0  0  0
 12 95  1  0  0  0
 13 14  1  0  0  0
 13 31  1  0  0  0
 14 15  2  0  0  0
 14 96  1  0  0  0
 15 97  1  0  0  0
 16 17  2  0  0  0
 16 21  1  0  0  0
 16 31  1  0  0  0
 17 18  1  0  0  0
 17 98  1  0  0  0
 18 19  2  0  0  0
 18 99  1  0  0  0
 19 20  1  0  0  0
 19 24  1  0  0  0
 20 21  2  0  0  0
 20100  1  0  0  0
 21 23  1  0  0  0
 22 28  1  0  0  0
 22 32  2  0  0  0
 26 27  1  0  0  0
 28101  1  0  0  0
 28102  1  0  0  0
 29103  1  0  0  0
 29104  1  0  0  0
 33 34  1  0  0  0
 33 66  1  0  0  0
 33 70  2  0  0  0
 34 36  1  0  0  0
 34 59  1  0  0  0
 34105  1  0  0  0
 35 44  2  0  0  0
 35 45  1  0  0  0
 35 68  1  0  0  0
 36 56  1  0  0  0
 36106  1  0  0  0
 37 39  1  0  0  0
 37 47  1  0  0  0
 37 66  1  0  0  0
 37107  1  0  0  0
 38 43  2  0  0  0
 38 46  1  0  0  0
 38 47  1  0  0  0
 39 64  1  0  0  0
 39 67  2  0  0  0
 40 52  1  0  0  0
 40 53  2  0  0  0
 40 58  1  0  0  0
 41108  1  0  0  0
 41109  1  0  0  0
 41110  1  0  0  0
 41 48  1  0  0  0
 42 43  1  0  0  0
 42 66  1  0  0  0
 42111  1  0  0  0
 42112  1  0  0  0
 43 44  1  0  0  0
 44113  1  0  0  0
 45 46  2  0  0  0
 45114  1  0  0  0
 46115  1  0  0  0
 47116  1  0  0  0
 47117  1  0  0  0
 48 56  1  0  0  0
 48 65  1  0  0  0
 48118  1  0  0  0
 49 50  1  0  0  0
 49 53  1  0  0  0
 49 64  1  0  0  0
 49119  1  0  0  0
 50 51  1  0  0  0
 50120  1  0  0  0
 50121  1  0  0  0
 51 52  1  0  0  0
 51122  1  0  0  0
 51123  1  0  0  0
 52124  1  0  0  0
 52125  1  0  0  0
 53 54  1  0  0  0
 54 55  2  0  0  0
 54126  1  0  0  0
 55 57  1  0  0  0
 55127  1  0  0  0
 56 69  2  0  0  0
 57 58  2  0  0  0
 57128  1  0  0  0
 58129  1  0  0  0
 59 60  1  0  0  0
 59 61  1  0  0  0
 59 62  1  0  0  0
 60130  1  0  0  0
 60131  1  0  0  0
 60132  1  0  0  0
 61133  1  0  0  0
 61134  1  0  0  0
 61135  1  0  0  0
 62136  1  0  0  0
 62137  1  0  0  0
 62138  1  0  0  0
 63 65  1  0  0  0
 63139  1  0  0  0
 63140  1  0  0  0
 63141  1  0  0  0
 64142  1  0  0  0
 65143  1  0  0  0
 68 80  1  0  0  0
 71 72  2  0  0  0
 71 73  1  0  0  0
 71144  1  0  0  0
 72 74  1  0  0  0
 72145  1  0  0  0
 73 75  2  0  0  0
 73 77  1  0  0  0
 74 78  1  0  0  0
 74 82  2  0  0  0
 75 82  1  0  0  0
 75 84  1  0  0  0
 76 79  1  0  0  0
 76146  1  0  0  0
 76147  1  0  0  0
 76148  1  0  0  0
 77 79  1  0  0  0
 77149  1  0  0  0
 77150  1  0  0  0
 78 83  1  0  0  0
 78151  1  0  0  0
 78152  1  0  0  0
 79153  1  0  0  0
 79154  1  0  0  0
 80 81  1  0  0  0
 80155  1  0  0  0
 80156  1  0  0  0
 81 84  1  0  0  0
 81157  1  0  0  0
 81158  1  0  0  0
 83159  1  0  0  0
M  ISO  4   1 100  68 101  80 101  83 100
M  END
> <chiral flag>
0

> <version>
0

> <s_m_source_file>
/data/baiqing/PycharmProjects/Reinvent-master-3.2/result/LINK_invent/BTK/process_docking_weight1_custom_sum_contain_oxygen_bond_distance_aromatic_linkinvent_7_9_3/rearranged_h_0131.sdf

> <i_m_source_file_index>
50

> <r_mmod_Potential_Energy-OPLS-2005>
-55.5819473266602

> <r_mmod_Stretch_Energy-OPLS-2005>
145.500701904297

> <r_mmod_Bend_Energy-OPLS-2005>
204.295349121094

> <r_mmod_Torsional_Energy-OPLS-2005>
219.139236450195

> <r_mmod_Improper_Torsional_Energy-OPLS-2005>
5.28635692596436

> <r_mmod_Van_der_Waal_Energy-OPLS-2005>
142.623001098633

> <r_mmod_Electrostatic_Energy-OPLS-2005>
-655.408874511719

> <r_mmod_Solvation_Energy-OPLS-2005>
-225.583221435547

> <b_mmod_Minimization_Converged-OPLS-2005>
0

> <r_mmod_RMS_Derivative-OPLS-2005>
2.96353673934937

$$$$
50
                    3D
 Structure written by MMmdl.
161170  0  0  1  0            999 V2000
  -30.6654  -14.6463   20.4994 C   0  0  0  0  0  0
  -30.4204  -12.3973   19.4663 C   0  0  0  0  0  0
  -29.4975  -12.5060   18.2337 C   0  0  0  0  0  0
  -28.0248  -12.3365   18.6518 C   0  0  0  0  0  0
  -27.6479  -13.2250   19.8669 C   0  0  2  0  0  0
  -28.6953  -13.1217   20.9994 C   0  0  0  0  0  0
  -25.2508  -13.8192   20.5688 C   0  0  0  0  0  0
  -24.1802  -13.0448   20.9215 C   0  0  0  0  0  0
  -24.6390  -11.6923   20.8790 C   0  0  0  0  0  0
  -23.9064  -10.4305   21.0428 C   0  0  0  0  0  0
  -24.3606   -9.4218   21.9199 C   0  0  0  0  0  0
  -23.6286   -8.2247   22.0765 C   0  0  0  0  0  0
  -22.4272   -8.0276   21.3549 C   0  0  0  0  0  0
  -21.9904   -9.0258   20.4655 C   0  0  0  0  0  0
  -22.7235  -10.2146   20.3072 C   0  0  0  0  0  0
  -21.6849   -6.0732   22.5290 C   0  0  0  0  0  0
  -21.4011   -6.5638   23.8219 C   0  0  0  0  0  0
  -21.3666   -5.6795   24.9176 C   0  0  0  0  0  0
  -21.6039   -4.3052   24.7232 C   0  0  0  0  0  0
  -21.8814   -3.8149   23.4352 C   0  0  0  0  0  0
  -21.9186   -4.6963   22.3407 C   0  0  0  0  0  0
  -22.7826  -13.5243   21.1868 C   0  0  0  0  0  0
  -22.1656   -4.2144   21.0986 F   0  0  0  0  0  0
  -21.5630   -3.4541   25.7747 F   0  0  0  0  0  0
  -30.0043  -13.4476   20.4203 N   0  0  0  0  0  0
  -26.2964  -12.9398   20.3391 N   0  0  0  0  0  0
  -25.9319  -11.6552   20.5825 N   0  0  0  0  0  0
  -22.0463  -12.8233   22.0426 N   0  0  0  0  0  0
  -25.4198  -15.1911   20.4038 N   0  0  0  0  0  0
  -31.8391  -14.7417   20.1332 O   0  0  0  0  0  0
  -21.6636   -6.8874   21.4243 O   0  0  0  0  0  0
  -22.3510  -14.5563   20.6728 O   0  0  0  0  0  0
  -24.6248  -31.8566   23.2024 C   0  0  0  0  0  0
  -25.9085  -32.4758   23.8351 C   0  0  1  0  0  0
  -27.2258  -27.3112   20.0939 C   0  0  0  0  0  0
  -25.5915  -33.8569   24.2275 N   0  0  0  0  0  0
  -23.4186  -30.4812   21.5447 C   0  0  2  0  0  0
  -24.8674  -28.9438   20.1055 C   0  0  0  0  0  0
  -22.7487  -29.4559   22.4924 C   0  0  0  0  0  0
  -18.0283  -28.1374   22.8482 C   0  0  0  0  0  0
  -24.1496  -36.7299   23.2632 C   0  0  0  0  0  0
  -25.9630  -30.7799   21.3828 C   0  0  0  0  0  0
  -26.0333  -29.4084   20.7236 C   0  0  0  0  0  0
  -27.2081  -28.5978   20.7220 C   0  0  0  0  0  0
  -26.0350  -26.9127   19.4383 C   0  0  0  0  0  0
  -24.8722  -27.7059   19.4501 C   0  0  0  0  0  0
  -23.6344  -29.8233   20.1572 C   0  0  0  0  0  0
  -25.4115  -36.3081   24.0325 C   0  0  1  0  0  0
  -20.5884  -28.3664   23.1302 C   0  0  2  0  0  0
  -20.6777  -26.9381   22.5426 C   0  0  0  0  0  0
  -19.5764  -26.6371   21.5215 C   0  0  0  0  0  0
  -18.1926  -26.7926   22.1597 C   0  0  0  0  0  0
  -19.1537  -28.8846   23.2881 C   0  0  0  0  0  0
  -18.9461  -30.1451   23.8886 C   0  0  0  0  0  0
  -17.6463  -30.6585   24.0559 C   0  0  0  0  0  0
  -25.9049  -34.9447   23.5098 C   0  0  0  0  0  0
  -16.5354  -29.9081   23.6325 C   0  0  0  0  0  0
  -16.7266  -28.6500   23.0339 C   0  0  0  0  0  0
  -26.4480  -31.6588   25.0726 C   0  0  0  0  0  0
  -25.3703  -31.3724   26.1461 C   0  0  0  0  0  0
  -27.0345  -30.3012   24.6215 C   0  0  0  0  0  0
  -27.6051  -32.4340   25.7495 C   0  0  0  0  0  0
  -27.5585  -37.1805   24.8459 C   0  0  0  0  0  0
  -21.4198  -29.3010   22.3697 N   0  0  0  0  0  0
  -26.4306  -37.3773   23.9414 N   0  0  0  0  0  0
  -24.6859  -31.0579   22.0982 N   0  0  0  0  0  0
  -23.4234  -28.8085   23.2976 O   0  0  0  0  0  0
  -28.3519  -26.4703   20.1837 O   0  0  0  0  0  0
  -26.5630  -34.8898   22.4669 O   0  0  0  0  0  0
  -23.5409  -32.1379   23.7347 O   0  0  0  0  0  0
  -30.4747  -22.1001   19.9681 C   0  0  0  0  0  0
  -28.3242  -21.5955   20.8799 C   0  0  0  0  0  0
  -27.9606  -22.9632   20.5937 C   0  0  0  0  0  0
  -29.6232  -21.1084   20.5309 C   0  0  0  0  0  0
  -28.8870  -23.8486   19.9683 C   0  0  0  0  0  0
  -27.3282  -20.6544   21.5523 C   0  0  0  0  0  0
  -26.5753  -23.4937   20.9496 C   0  0  0  0  0  0
  -26.0792  -21.3268   22.1348 C   0  0  0  0  0  0
  -25.5357  -22.3951   21.1906 C   0  0  0  0  0  0
  -28.5133  -25.2591   19.3473 C   0  0  0  0  0  0
  -29.4882  -18.4406   20.8104 C   0  0  0  0  0  0
  -30.4819  -17.1934   20.6887 C   0  0  0  0  0  0
  -30.1324  -23.3881   19.6895 N   0  0  0  0  0  0
  -30.1619  -19.7789   20.7241 N   0  0  0  0  0  0
  -29.9514  -15.7817   20.7928 N   0  0  0  0  0  0
  -31.4660  -12.4928   19.1671 H   0  0  0  0  0  0
  -30.3312  -11.4105   19.9262 H   0  0  0  0  0  0
  -29.7631  -11.7536   17.4894 H   0  0  0  0  0  0
  -29.6323  -13.4760   17.7510 H   0  0  0  0  0  0
  -27.8754  -11.2865   18.9059 H   0  0  0  0  0  0
  -27.3610  -12.5424   17.8103 H   0  0  0  0  0  0
  -27.6569  -14.2529   19.5066 H   0  0  0  0  0  0
  -28.7090  -12.1156   21.4202 H   0  0  0  0  0  0
  -28.4475  -13.7900   21.8254 H   0  0  0  0  0  0
  -25.2736   -9.5692   22.4790 H   0  0  0  0  0  0
  -23.9994   -7.4632   22.7485 H   0  0  0  0  0  0
  -21.0833   -8.8776   19.8959 H   0  0  0  0  0  0
  -22.3681  -10.9685   19.6194 H   0  0  0  0  0  0
  -21.2006   -7.6142   23.9720 H   0  0  0  0  0  0
  -21.1492   -6.0523   25.9080 H   0  0  0  0  0  0
  -22.0582   -2.7608   23.2857 H   0  0  0  0  0  0
  -22.4044  -11.9858   22.4777 H   0  0  0  0  0  0
  -21.1114  -13.1313   22.2702 H   0  0  0  0  0  0
  -24.6442  -15.8396   20.4794 H   0  0  0  0  0  0
  -26.2602  -15.6234   20.0437 H   0  0  0  0  0  0
  -26.7145  -32.5439   23.1083 H   0  0  0  0  0  0
  -25.0099  -33.9735   25.0452 H   0  0  0  0  0  0
  -22.7072  -31.2962   21.4024 H   0  0  0  0  0  0
  -23.3751  -35.9631   23.3281 H   0  0  0  0  0  0
  -24.3570  -36.8947   22.2051 H   0  0  0  0  0  0
  -23.7279  -37.6499   23.6675 H   0  0  0  0  0  0
  -26.1085  -31.5358   20.6110 H   0  0  0  0  0  0
  -26.8360  -30.8200   22.0198 H   0  0  0  0  0  0
  -28.0999  -28.9449   21.2237 H   0  0  0  0  0  0
  -25.9380  -25.9791   18.9128 H   0  0  0  0  0  0
  -23.9840  -27.3583   18.9388 H   0  0  0  0  0  0
  -23.7593  -30.6015   19.4036 H   0  0  0  0  0  0
  -22.7547  -29.2537   19.8518 H   0  0  0  0  0  0
  -25.1295  -36.1910   25.0820 H   0  0  0  0  0  0
  -20.9966  -28.3244   24.1429 H   0  0  0  0  0  0
  -20.5678  -26.2260   23.3623 H   0  0  0  0  0  0
  -21.6640  -26.7403   22.1224 H   0  0  0  0  0  0
  -19.6920  -25.6285   21.1251 H   0  0  0  0  0  0
  -19.6732  -27.3172   20.6748 H   0  0  0  0  0  0
  -17.4211  -26.6690   21.3975 H   0  0  0  0  0  0
  -18.0285  -26.0053   22.8978 H   0  0  0  0  0  0
  -19.7936  -30.7257   24.2257 H   0  0  0  0  0  0
  -17.5017  -31.6250   24.5161 H   0  0  0  0  0  0
  -15.5355  -30.2977   23.7662 H   0  0  0  0  0  0
  -15.8663  -28.0826   22.7055 H   0  0  0  0  0  0
  -24.6000  -30.6906   25.7844 H   0  0  0  0  0  0
  -24.8720  -32.2858   26.4726 H   0  0  0  0  0  0
  -25.8044  -30.9108   27.0336 H   0  0  0  0  0  0
  -26.2934  -29.6758   24.1241 H   0  0  0  0  0  0
  -27.4045  -29.7293   25.4729 H   0  0  0  0  0  0
  -27.8786  -30.4303   23.9440 H   0  0  0  0  0  0
  -27.2691  -33.3699   26.1975 H   0  0  0  0  0  0
  -28.3896  -32.6817   25.0325 H   0  0  0  0  0  0
  -28.0660  -31.8521   26.5487 H   0  0  0  0  0  0
  -28.2591  -38.0114   24.7510 H   0  0  0  0  0  0
  -28.1114  -36.2654   24.6284 H   0  0  0  0  0  0
  -27.2309  -37.1444   25.8864 H   0  0  0  0  0  0
  -20.9365  -29.8787   21.6957 H   0  0  0  0  0  0
  -26.0175  -38.2840   24.1412 H   0  0  0  0  0  0
  -31.4894  -21.8379   19.7018 H   0  0  0  0  0  0
  -27.8311  -20.1168   22.3542 H   0  0  0  0  0  0
  -27.0219  -19.9158   20.8116 H   0  0  0  0  0  0
  -26.2032  -24.1443   20.1623 H   0  0  0  0  0  0
  -26.6770  -24.1214   21.8377 H   0  0  0  0  0  0
  -26.3147  -21.7844   23.0970 H   0  0  0  0  0  0
  -25.3174  -20.5728   22.3345 H   0  0  0  0  0  0
  -25.2700  -21.9280   20.2416 H   0  0  0  0  0  0
  -24.6143  -22.8258   21.5870 H   0  0  0  0  0  0
  -27.7103  -25.0871   18.6392 H   0  0  0  0  0  0
  -29.3399  -25.5301   18.6872 H   0  0  0  0  0  0
  -28.9708  -18.3632   21.7662 H   0  0  0  0  0  0
  -28.7262  -18.3876   20.0313 H   0  0  0  0  0  0
  -31.2543  -17.2903   21.4523 H   0  0  0  0  0  0
  -31.0022  -17.2722   19.7332 H   0  0  0  0  0  0
  -31.1620  -19.7111   20.5363 H   0  0  0  0  0  0
  -28.9805  -15.6645   21.0469 H   0  0  0  0  0  0
  1 25  1  0  0  0
  1 30  2  0  0  0
  1 85  1  0  0  0
  2  3  1  0  0  0
  2 25  1  0  0  0
  2 86  1  0  0  0
  2 87  1  0  0  0
  3  4  1  0  0  0
  3 88  1  0  0  0
  3 89  1  0  0  0
  4  5  1  0  0  0
  4 90  1  0  0  0
  4 91  1  0  0  0
  5  6  1  0  0  0
  5 26  1  0  0  0
  5 92  1  0  0  0
  6 25  1  0  0  0
  6 93  1  0  0  0
  6 94  1  0  0  0
  7  8  2  0  0  0
  7 26  1  0  0  0
  7 29  1  0  0  0
  8  9  1  0  0  0
  8 22  1  0  0  0
  9 10  1  0  0  0
  9 27  2  0  0  0
 10 11  2  0  0  0
 10 15  1  0  0  0
 11 12  1  0  0  0
 11 95  1  0  0  0
 12 13  2  0  0  0
 12 96  1  0  0  0
 13 14  1  0  0  0
 13 31  1  0  0  0
 14 15  2  0  0  0
 14 97  1  0  0  0
 15 98  1  0  0  0
 16 17  2  0  0  0
 16 21  1  0  0  0
 16 31  1  0  0  0
 17 18  1  0  0  0
 17 99  1  0  0  0
 18 19  2  0  0  0
 18100  1  0  0  0
 19 20  1  0  0  0
 19 24  1  0  0  0
 20 21  2  0  0  0
 20101  1  0  0  0
 21 23  1  0  0  0
 22 28  1  0  0  0
 22 32  2  0  0  0
 26 27  1  0  0  0
 28102  1  0  0  0
 28103  1  0  0  0
 29104  1  0  0  0
 29105  1  0  0  0
 33 34  1  0  0  0
 33 66  1  0  0  0
 33 70  2  0  0  0
 34 36  1  0  0  0
 34 59  1  0  0  0
 34106  1  0  0  0
 35 44  2  0  0  0
 35 45  1  0  0  0
 35 68  1  0  0  0
 36 56  1  0  0  0
 36107  1  0  0  0
 37 39  1  0  0  0
 37 47  1  0  0  0
 37 66  1  0  0  0
 37108  1  0  0  0
 38 43  2  0  0  0
 38 46  1  0  0  0
 38 47  1  0  0  0
 39 64  1  0  0  0
 39 67  2  0  0  0
 40 52  1  0  0  0
 40 53  2  0  0  0
 40 58  1  0  0  0
 41109  1  0  0  0
 41110  1  0  0  0
 41111  1  0  0  0
 41 48  1  0  0  0
 42 43  1  0  0  0
 42 66  1  0  0  0
 42112  1  0  0  0
 42113  1  0  0  0
 43 44  1  0  0  0
 44114  1  0  0  0
 45 46  2  0  0  0
 45115  1  0  0  0
 46116  1  0  0  0
 47117  1  0  0  0
 47118  1  0  0  0
 48 56  1  0  0  0
 48 65  1  0  0  0
 48119  1  0  0  0
 49 50  1  0  0  0
 49 53  1  0  0  0
 49 64  1  0  0  0
 49120  1  0  0  0
 50 51  1  0  0  0
 50121  1  0  0  0
 50122  1  0  0  0
 51 52  1  0  0  0
 51123  1  0  0  0
 51124  1  0  0  0
 52125  1  0  0  0
 52126  1  0  0  0
 53 54  1  0  0  0
 54 55  2  0  0  0
 54127  1  0  0  0
 55 57  1  0  0  0
 55128  1  0  0  0
 56 69  2  0  0  0
 57 58  2  0  0  0
 57129  1  0  0  0
 58130  1  0  0  0
 59 60  1  0  0  0
 59 61  1  0  0  0
 59 62  1  0  0  0
 60131  1  0  0  0
 60132  1  0  0  0
 60133  1  0  0  0
 61134  1  0  0  0
 61135  1  0  0  0
 61136  1  0  0  0
 62137  1  0  0  0
 62138  1  0  0  0
 62139  1  0  0  0
 63 65  1  0  0  0
 63140  1  0  0  0
 63141  1  0  0  0
 63142  1  0  0  0
 64143  1  0  0  0
 65144  1  0  0  0
 68 80  1  0  0  0
 71 74  2  0  0  0
 71 83  1  0  0  0
 71145  1  0  0  0
 72 73  2  0  0  0
 72 74  1  0  0  0
 72 76  1  0  0  0
 73 75  1  0  0  0
 73 77  1  0  0  0
 74 84  1  0  0  0
 75 80  1  0  0  0
 75 83  2  0  0  0
 76 78  1  0  0  0
 76146  1  0  0  0
 76147  1  0  0  0
 77 79  1  0  0  0
 77148  1  0  0  0
 77149  1  0  0  0
 78 79  1  0  0  0
 78150  1  0  0  0
 78151  1  0  0  0
 79152  1  0  0  0
 79153  1  0  0  0
 80154  1  0  0  0
 80155  1  0  0  0
 81 82  1  0  0  0
 81 84  1  0  0  0
 81156  1  0  0  0
 81157  1  0  0  0
 82 85  1  0  0  0
 82158  1  0  0  0
 82159  1  0  0  0
 84160  1  0  0  0
 85161  1  0  0  0
M  ISO  4   1 100  68 101  80 101  85 100
M  END
> <chiral flag>
0

> <version>
0

> <s_m_source_file>
/data/baiqing/PycharmProjects/Reinvent-master-3.2/result/LINK_invent/BTK/process_docking_weight1_custom_sum_contain_oxygen_bond_distance_aromatic_linkinvent_7_9_3/rearranged_h_0131.sdf

> <i_m_source_file_index>
51

> <r_mmod_Potential_Energy-OPLS-2005>
3.88198685646057

> <r_mmod_Stretch_Energy-OPLS-2005>
88.0028381347656

> <r_mmod_Bend_Energy-OPLS-2005>
177.405792236328

> <r_mmod_Torsional_Energy-OPLS-2005>
211.171279907227

> <r_mmod_Improper_Torsional_Energy-OPLS-2005>
6.42614316940308

> <r_mmod_Van_der_Waal_Energy-OPLS-2005>
151.588363647461

> <r_mmod_Electrostatic_Energy-OPLS-2005>
-444.941101074219

> <r_mmod_Solvation_Energy-OPLS-2005>
-239.303955078125

> <b_mmod_Minimization_Converged-OPLS-2005>
0

> <r_mmod_RMS_Derivative-OPLS-2005>
3.70853233337402

$$$$
51
                    3D
 Structure written by MMmdl.
176184  0  0  1  0            999 V2000
  -30.7439  -14.4158   20.6539 C   0  0  0  0  0  0
  -30.4237  -12.3055   19.4135 C   0  0  0  0  0  0
  -29.4921  -12.5153   18.2037 C   0  0  0  0  0  0
  -28.0164  -12.3662   18.6207 C   0  0  0  0  0  0
  -27.6663  -13.2041   19.8787 C   0  0  2  0  0  0
  -28.7042  -12.9697   20.9997 C   0  0  0  0  0  0
  -25.2612  -13.8159   20.5674 C   0  0  0  0  0  0
  -24.1855  -13.0443   20.9165 C   0  0  0  0  0  0
  -24.6402  -11.6905   20.8735 C   0  0  0  0  0  0
  -23.9067  -10.4291   21.0410 C   0  0  0  0  0  0
  -24.3619   -9.4207   21.9189 C   0  0  0  0  0  0
  -23.6290   -8.2246   22.0759 C   0  0  0  0  0  0
  -22.4274   -8.0284   21.3548 C   0  0  0  0  0  0
  -21.9911   -9.0260   20.4652 C   0  0  0  0  0  0
  -22.7240  -10.2136   20.3056 C   0  0  0  0  0  0
  -21.6853   -6.0738   22.5278 C   0  0  0  0  0  0
  -21.4016   -6.5643   23.8212 C   0  0  0  0  0  0
  -21.3656   -5.6792   24.9176 C   0  0  0  0  0  0
  -21.6041   -4.3054   24.7227 C   0  0  0  0  0  0
  -21.8822   -3.8147   23.4346 C   0  0  0  0  0  0
  -21.9194   -4.6964   22.3403 C   0  0  0  0  0  0
  -22.7877  -13.5247   21.1828 C   0  0  0  0  0  0
  -22.1661   -4.2154   21.0978 F   0  0  0  0  0  0
  -21.5624   -3.4535   25.7738 F   0  0  0  0  0  0
  -30.0453  -13.2653   20.4622 N   0  0  0  0  0  0
  -26.3049  -12.9328   20.3371 N   0  0  0  0  0  0
  -25.9330  -11.6488   20.5770 N   0  0  0  0  0  0
  -22.0511  -12.8244   22.0383 N   0  0  0  0  0  0
  -25.4340  -15.1876   20.4065 N   0  0  0  0  0  0
  -31.7904  -14.6793   20.0567 O   0  0  0  0  0  0
  -21.6637   -6.8885   21.4241 O   0  0  0  0  0  0
  -22.3575  -14.5563   20.6684 O   0  0  0  0  0  0
  -24.6129  -31.8701   23.2122 C   0  0  0  0  0  0
  -25.9036  -32.4835   23.8404 C   0  0  1  0  0  0
  -27.2337  -27.4413   20.0910 C   0  0  0  0  0  0
  -25.5895  -33.8629   24.2338 N   0  0  0  0  0  0
  -23.3995  -30.4933   21.5543 C   0  0  2  0  0  0
  -24.8439  -28.9618   20.1178 C   0  0  0  0  0  0
  -22.7412  -29.4644   22.5007 C   0  0  0  0  0  0
  -18.0289  -28.1348   22.8489 C   0  0  0  0  0  0
  -24.1487  -36.7323   23.2636 C   0  0  0  0  0  0
  -25.9274  -30.8355   21.3661 C   0  0  0  0  0  0
  -26.0038  -29.4700   20.7149 C   0  0  0  0  0  0
  -27.1989  -28.7169   20.6987 C   0  0  0  0  0  0
  -26.0530  -26.9506   19.4833 C   0  0  0  0  0  0
  -24.8641  -27.7016   19.5005 C   0  0  0  0  0  0
  -23.6065  -29.8287   20.1675 C   0  0  0  0  0  0
  -25.4102  -36.3116   24.0337 C   0  0  1  0  0  0
  -20.5874  -28.3631   23.1321 C   0  0  2  0  0  0
  -20.6794  -26.9367   22.5418 C   0  0  0  0  0  0
  -19.5777  -26.6352   21.5212 C   0  0  0  0  0  0
  -18.1944  -26.7895   22.1608 C   0  0  0  0  0  0
  -19.1531  -28.8805   23.2908 C   0  0  0  0  0  0
  -18.9454  -30.1410   23.8919 C   0  0  0  0  0  0
  -17.6461  -30.6566   24.0549 C   0  0  0  0  0  0
  -25.9031  -34.9477   23.5137 C   0  0  0  0  0  0
  -16.5359  -29.9065   23.6305 C   0  0  0  0  0  0
  -16.7276  -28.6473   23.0341 C   0  0  0  0  0  0
  -26.4470  -31.6604   25.0725 C   0  0  0  0  0  0
  -25.3743  -31.3688   26.1483 C   0  0  0  0  0  0
  -27.0300  -30.3051   24.6076 C   0  0  0  0  0  0
  -27.6046  -32.4324   25.7492 C   0  0  0  0  0  0
  -27.5587  -37.1814   24.8463 C   0  0  0  0  0  0
  -21.4140  -29.3014   22.3741 N   0  0  0  0  0  0
  -26.4302  -37.3794   23.9403 N   0  0  0  0  0  0
  -24.6647  -31.0799   22.1029 N   0  0  0  0  0  0
  -23.4201  -28.8189   23.3036 O   0  0  0  0  0  0
  -28.4330  -26.7576   20.0732 O   0  0  0  0  0  0
  -26.5589  -34.8925   22.4697 O   0  0  0  0  0  0
  -23.5323  -32.1462   23.7509 O   0  0  0  0  0  0
  -27.3716  -20.6811   20.7889 C   0  0  0  0  0  0
  -28.8350  -21.0092   21.1601 C   0  0  1  0  0  0
  -28.1651  -23.2829   21.7302 C   0  0  2  0  0  0
  -26.6569  -22.9462   21.4669 C   0  0  2  0  0  0
  -23.3335  -23.9445   23.3250 C   0  0  0  0  0  0
  -23.8003  -24.5062   20.9204 C   0  0  0  0  0  0
  -28.5462  -24.7761   21.5190 C   0  0  0  0  0  0
  -29.8662  -20.1528   20.3674 C   0  0  0  0  0  0
  -25.7003  -23.7028   22.4313 C   0  0  0  0  0  0
  -30.6914  -16.6427   21.8071 C   0  0  0  0  0  0
  -29.9877  -17.7145   20.9388 C   0  0  0  0  0  0
  -28.4346  -25.3234   20.0782 C   0  0  0  0  0  0
  -24.1922  -23.5985   22.0977 C   0  0  0  0  0  0
  -29.0617  -22.4418   20.9171 N   0  0  0  0  0  0
  -30.2011  -15.2878   21.5191 N   0  0  0  0  0  0
  -26.4467  -21.4848   21.6134 N   0  3  0  0  0  0
  -30.5000  -19.0870   21.1820 N   0  3  0  0  0  0
  -31.4671  -12.4093   19.1104 H   0  0  0  0  0  0
  -30.3280  -11.2890   19.7969 H   0  0  0  0  0  0
  -29.7314  -11.7971   17.4180 H   0  0  0  0  0  0
  -29.6571  -13.5055   17.7756 H   0  0  0  0  0  0
  -27.8347  -11.3093   18.8199 H   0  0  0  0  0  0
  -27.3612  -12.6357   17.7916 H   0  0  0  0  0  0
  -27.7168  -14.2542   19.5885 H   0  0  0  0  0  0
  -28.6746  -11.9318   21.3336 H   0  0  0  0  0  0
  -28.4488  -13.5586   21.8811 H   0  0  0  0  0  0
  -25.2767   -9.5680   22.4762 H   0  0  0  0  0  0
  -23.9998   -7.4641   22.7478 H   0  0  0  0  0  0
  -21.0843   -8.8785   19.8959 H   0  0  0  0  0  0
  -22.3710  -10.9677   19.6164 H   0  0  0  0  0  0
  -21.2013   -7.6153   23.9722 H   0  0  0  0  0  0
  -21.1470   -6.0521   25.9081 H   0  0  0  0  0  0
  -22.0605   -2.7612   23.2845 H   0  0  0  0  0  0
  -22.4107  -11.9890   22.4765 H   0  0  0  0  0  0
  -21.1135  -13.1286   22.2586 H   0  0  0  0  0  0
  -24.6654  -15.8425   20.4998 H   0  0  0  0  0  0
  -26.2871  -15.6202   20.0761 H   0  0  0  0  0  0
  -26.7117  -32.5559   23.1172 H   0  0  0  0  0  0
  -25.0052  -33.9784   25.0492 H   0  0  0  0  0  0
  -22.6870  -31.3097   21.4181 H   0  0  0  0  0  0
  -23.3745  -35.9664   23.3305 H   0  0  0  0  0  0
  -24.3575  -36.8925   22.2051 H   0  0  0  0  0  0
  -23.7235  -37.6527   23.6650 H   0  0  0  0  0  0
  -26.0361  -31.6019   20.5976 H   0  0  0  0  0  0
  -26.8159  -30.8905   21.9819 H   0  0  0  0  0  0
  -28.0975  -29.1093   21.1552 H   0  0  0  0  0  0
  -26.0178  -26.0081   18.9617 H   0  0  0  0  0  0
  -23.9748  -27.3066   19.0276 H   0  0  0  0  0  0
  -23.7153  -30.6061   19.4098 H   0  0  0  0  0  0
  -22.7304  -29.2497   19.8708 H   0  0  0  0  0  0
  -25.1269  -36.1999   25.0827 H   0  0  0  0  0  0
  -20.9963  -28.3213   24.1442 H   0  0  0  0  0  0
  -20.5694  -26.2231   23.3598 H   0  0  0  0  0  0
  -21.6669  -26.7412   22.1223 H   0  0  0  0  0  0
  -19.6948  -25.6260   21.1239 H   0  0  0  0  0  0
  -19.6731  -27.3164   20.6742 H   0  0  0  0  0  0
  -17.4218  -26.6640   21.4010 H   0  0  0  0  0  0
  -18.0348  -26.0027   22.8989 H   0  0  0  0  0  0
  -19.7937  -30.7206   24.2316 H   0  0  0  0  0  0
  -17.5021  -31.6244   24.5153 H   0  0  0  0  0  0
  -15.5354  -30.2972   23.7612 H   0  0  0  0  0  0
  -15.8669  -28.0795   22.7044 H   0  0  0  0  0  0
  -24.5929  -30.7013   25.7824 H   0  0  0  0  0  0
  -24.8917  -32.2835   26.4947 H   0  0  0  0  0  0
  -25.8113  -30.8864   27.0232 H   0  0  0  0  0  0
  -26.2832  -29.6817   24.1144 H   0  0  0  0  0  0
  -27.4097  -29.7277   25.4509 H   0  0  0  0  0  0
  -27.8655  -30.4370   23.9194 H   0  0  0  0  0  0
  -27.2658  -33.3611   26.2095 H   0  0  0  0  0  0
  -28.3848  -32.6899   25.0316 H   0  0  0  0  0  0
  -28.0727  -31.8429   26.5387 H   0  0  0  0  0  0
  -28.2600  -38.0119   24.7512 H   0  0  0  0  0  0
  -28.1083  -36.2644   24.6290 H   0  0  0  0  0  0
  -27.2297  -37.1456   25.8864 H   0  0  0  0  0  0
  -20.9293  -29.8748   21.6980 H   0  0  0  0  0  0
  -26.0202  -38.2868   24.1416 H   0  0  0  0  0  0
  -27.1656  -19.6238   20.9592 H   0  0  0  0  0  0
  -27.1817  -20.8689   19.7307 H   0  0  0  0  0  0
  -28.9877  -20.8327   22.2271 H   0  0  0  0  0  0
  -28.3750  -23.0588   22.7780 H   0  0  0  0  0  0
  -26.4054  -23.2098   20.4401 H   0  0  0  0  0  0
  -22.2695  -23.8711   23.0966 H   0  0  0  0  0  0
  -23.5275  -24.9596   23.6736 H   0  0  0  0  0  0
  -23.5334  -23.2636   24.1532 H   0  0  0  0  0  0
  -22.7404  -24.4097   20.6848 H   0  0  0  0  0  0
  -24.3549  -24.2675   20.0135 H   0  0  0  0  0  0
  -23.9840  -25.5545   21.1583 H   0  0  0  0  0  0
  -29.5691  -24.9299   21.8625 H   0  0  0  0  0  0
  -27.9501  -25.4018   22.1806 H   0  0  0  0  0  0
  -30.6895  -20.7909   20.0425 H   0  0  0  0  0  0
  -29.4404  -19.7519   19.4460 H   0  0  0  0  0  0
  -25.9439  -24.7629   22.4641 H   0  0  0  0  0  0
  -25.8782  -23.3432   23.4458 H   0  0  0  0  0  0
  -30.5117  -16.8489   22.8628 H   0  0  0  0  0  0
  -31.7733  -16.6918   21.6683 H   0  0  0  0  0  0
  -28.9138  -17.6935   21.1322 H   0  0  0  0  0  0
  -30.1233  -17.4729   19.8835 H   0  0  0  0  0  0
  -27.5988  -24.8781   19.5500 H   0  0  0  0  0  0
  -29.3113  -25.0015   19.5147 H   0  0  0  0  0  0
  -23.9545  -22.5694   21.8255 H   0  0  0  0  0  0
  -28.9129  -22.6361   19.9307 H   0  0  0  0  0  0
  -29.3666  -14.9837   21.9987 H   0  0  0  0  0  0
  -26.5778  -21.2301   22.5789 H   0  0  0  0  0  0
  -25.5016  -21.2513   21.3568 H   0  0  0  0  0  0
  -30.4328  -19.3292   22.1571 H   0  0  0  0  0  0
  -31.4805  -19.0892   20.9490 H   0  0  0  0  0  0
  1 25  1  0  0  0
  1 30  2  0  0  0
  1 85  1  0  0  0
  2  3  1  0  0  0
  2 25  1  0  0  0
  2 88  1  0  0  0
  2 89  1  0  0  0
  3  4  1  0  0  0
  3 90  1  0  0  0
  3 91  1  0  0  0
  4  5  1  0  0  0
  4 92  1  0  0  0
  4 93  1  0  0  0
  5  6  1  0  0  0
  5 26  1  0  0  0
  5 94  1  0  0  0
  6 25  1  0  0  0
  6 95  1  0  0  0
  6 96  1  0  0  0
  7  8  2  0  0  0
  7 26  1  0  0  0
  7 29  1  0  0  0
  8  9  1  0  0  0
  8 22  1  0  0  0
  9 10  1  0  0  0
  9 27  2  0  0  0
 10 11  2  0  0  0
 10 15  1  0  0  0
 11 12  1  0  0  0
 11 97  1  0  0  0
 12 13  2  0  0  0
 12 98  1  0  0  0
 13 14  1  0  0  0
 13 31  1  0  0  0
 14 15  2  0  0  0
 14 99  1  0  0  0
 15100  1  0  0  0
 16 17  2  0  0  0
 16 21  1  0  0  0
 16 31  1  0  0  0
 17 18  1  0  0  0
 17101  1  0  0  0
 18 19  2  0  0  0
 18102  1  0  0  0
 19 20  1  0  0  0
 19 24  1  0  0  0
 20 21  2  0  0  0
 20103  1  0  0  0
 21 23  1  0  0  0
 22 28  1  0  0  0
 22 32  2  0  0  0
 26 27  1  0  0  0
 28104  1  0  0  0
 28105  1  0  0  0
 29106  1  0  0  0
 29107  1  0  0  0
 33 34  1  0  0  0
 33 66  1  0  0  0
 33 70  2  0  0  0
 34 36  1  0  0  0
 34 59  1  0  0  0
 34108  1  0  0  0
 35 44  2  0  0  0
 35 45  1  0  0  0
 35 68  1  0  0  0
 36 56  1  0  0  0
 36109  1  0  0  0
 37 39  1  0  0  0
 37 47  1  0  0  0
 37 66  1  0  0  0
 37110  1  0  0  0
 38 43  2  0  0  0
 38 46  1  0  0  0
 38 47  1  0  0  0
 39 64  1  0  0  0
 39 67  2  0  0  0
 40 52  1  0  0  0
 40 53  2  0  0  0
 40 58  1  0  0  0
 41111  1  0  0  0
 41112  1  0  0  0
 41113  1  0  0  0
 41 48  1  0  0  0
 42 43  1  0  0  0
 42 66  1  0  0  0
 42114  1  0  0  0
 42115  1  0  0  0
 43 44  1  0  0  0
 44116  1  0  0  0
 45 46  2  0  0  0
 45117  1  0  0  0
 46118  1  0  0  0
 47119  1  0  0  0
 47120  1  0  0  0
 48 56  1  0  0  0
 48 65  1  0  0  0
 48121  1  0  0  0
 49 50  1  0  0  0
 49 53  1  0  0  0
 49 64  1  0  0  0
 49122  1  0  0  0
 50 51  1  0  0  0
 50123  1  0  0  0
 50124  1  0  0  0
 51 52  1  0  0  0
 51125  1  0  0  0
 51126  1  0  0  0
 52127  1  0  0  0
 52128  1  0  0  0
 53 54  1  0  0  0
 54 55  2  0  0  0
 54129  1  0  0  0
 55 57  1  0  0  0
 55130  1  0  0  0
 56 69  2  0  0  0
 57 58  2  0  0  0
 57131  1  0  0  0
 58132  1  0  0  0
 59 60  1  0  0  0
 59 61  1  0  0  0
 59 62  1  0  0  0
 60133  1  0  0  0
 60134  1  0  0  0
 60135  1  0  0  0
 61136  1  0  0  0
 61137  1  0  0  0
 61138  1  0  0  0
 62139  1  0  0  0
 62140  1  0  0  0
 62141  1  0  0  0
 63 65  1  0  0  0
 63142  1  0  0  0
 63143  1  0  0  0
 63144  1  0  0  0
 64145  1  0  0  0
 65146  1  0  0  0
 68 82  1  0  0  0
 71 72  1  0  0  0
 71 86  1  0  0  0
 71147  1  0  0  0
 71148  1  0  0  0
 72 78  1  0  0  0
 72 84  1  0  0  0
 72149  1  0  0  0
 73 74  1  0  0  0
 73 77  1  0  0  0
 73 84  1  0  0  0
 73150  1  0  0  0
 74 79  1  0  0  0
 74 86  1  0  0  0
 74151  1  0  0  0
 75152  1  0  0  0
 75153  1  0  0  0
 75154  1  0  0  0
 75 83  1  0  0  0
 76 83  1  0  0  0
 76155  1  0  0  0
 76156  1  0  0  0
 76157  1  0  0  0
 77 82  1  0  0  0
 77158  1  0  0  0
 77159  1  0  0  0
 78 87  1  0  0  0
 78160  1  0  0  0
 78161  1  0  0  0
 79 83  1  0  0  0
 79162  1  0  0  0
 79163  1  0  0  0
 80 81  1  0  0  0
 80 85  1  0  0  0
 80164  1  0  0  0
 80165  1  0  0  0
 81 87  1  0  0  0
 81166  1  0  0  0
 81167  1  0  0  0
 82168  1  0  0  0
 82169  1  0  0  0
 83170  1  0  0  0
 84171  1  0  0  0
 85172  1  0  0  0
 86173  1  0  0  0
 86174  1  0  0  0
 87175  1  0  0  0
 87176  1  0  0  0
M  CHG  2  86   1  87   1
M  ISO  4   1 100  68 101  82 101  85 100
M  END
> <chiral flag>
0

> <version>
0

> <s_m_source_file>
/data/baiqing/PycharmProjects/Reinvent-master-3.2/result/LINK_invent/BTK/process_docking_weight1_custom_sum_contain_oxygen_bond_distance_aromatic_linkinvent_7_9_3/rearranged_h_0131.sdf

> <i_m_source_file_index>
52

> <r_mmod_Potential_Energy-OPLS-2005>
-404.707946777344

> <r_mmod_Stretch_Energy-OPLS-2005>
39.6043319702148

> <r_mmod_Bend_Energy-OPLS-2005>
106.23966217041

> <r_mmod_Torsional_Energy-OPLS-2005>
236.419372558594

> <r_mmod_Improper_Torsional_Energy-OPLS-2005>
1.99027717113495

> <r_mmod_Van_der_Waal_Energy-OPLS-2005>
128.969085693359

> <r_mmod_Electrostatic_Energy-OPLS-2005>
92.5267639160156

> <r_mmod_Solvation_Energy-OPLS-2005>
-1019.10931396484

> <b_mmod_Minimization_Converged-OPLS-2005>
0

> <r_mmod_RMS_Derivative-OPLS-2005>
1.58365571498871

$$$$
52
                    3D
 Structure written by MMmdl.
170179  0  0  1  0            999 V2000
  -30.7731  -14.3576   20.7030 C   0  0  0  0  0  0
  -30.4145  -12.2980   19.3905 C   0  0  0  0  0  0
  -29.4792  -12.5245   18.1892 C   0  0  0  0  0  0
  -28.0065  -12.3722   18.6108 C   0  0  0  0  0  0
  -27.6625  -13.2010   19.8752 C   0  0  2  0  0  0
  -28.6988  -12.9515   20.9920 C   0  0  0  0  0  0
  -25.2594  -13.8153   20.5678 C   0  0  0  0  0  0
  -24.1841  -13.0442   20.9174 C   0  0  0  0  0  0
  -24.6380  -11.6901   20.8725 C   0  0  0  0  0  0
  -23.9047  -10.4292   21.0399 C   0  0  0  0  0  0
  -24.3602   -9.4210   21.9181 C   0  0  0  0  0  0
  -23.6282   -8.2245   22.0755 C   0  0  0  0  0  0
  -22.4268   -8.0276   21.3542 C   0  0  0  0  0  0
  -21.9900   -9.0249   20.4644 C   0  0  0  0  0  0
  -22.7221  -10.2130   20.3050 C   0  0  0  0  0  0
  -21.6851   -6.0731   22.5276 C   0  0  0  0  0  0
  -21.4011   -6.5635   23.8209 C   0  0  0  0  0  0
  -21.3661   -5.6790   24.9175 C   0  0  0  0  0  0
  -21.6044   -4.3054   24.7225 C   0  0  0  0  0  0
  -21.8822   -3.8145   23.4347 C   0  0  0  0  0  0
  -21.9190   -4.6959   22.3400 C   0  0  0  0  0  0
  -22.7867  -13.5243   21.1842 C   0  0  0  0  0  0
  -22.1663   -4.2145   21.0978 F   0  0  0  0  0  0
  -21.5629   -3.4539   25.7741 F   0  0  0  0  0  0
  -30.0417  -13.2418   20.4551 N   0  0  0  0  0  0
  -26.3018  -12.9313   20.3349 N   0  0  0  0  0  0
  -25.9297  -11.6476   20.5740 N   0  0  0  0  0  0
  -22.0499  -12.8233   22.0391 N   0  0  0  0  0  0
  -25.4350  -15.1872   20.4108 N   0  0  0  0  0  0
  -31.7969  -14.6528   20.0797 O   0  0  0  0  0  0
  -21.6634   -6.8873   21.4239 O   0  0  0  0  0  0
  -22.3565  -14.5562   20.6703 O   0  0  0  0  0  0
  -24.6104  -31.8711   23.2124 C   0  0  0  0  0  0
  -25.9016  -32.4834   23.8413 C   0  0  1  0  0  0
  -27.2420  -27.4663   20.0817 C   0  0  0  0  0  0
  -25.5885  -33.8633   24.2349 N   0  0  0  0  0  0
  -23.3964  -30.4942   21.5530 C   0  0  2  0  0  0
  -24.8416  -28.9590   20.1224 C   0  0  0  0  0  0
  -22.7382  -29.4675   22.5019 C   0  0  0  0  0  0
  -18.0273  -28.1369   22.8506 C   0  0  0  0  0  0
  -24.1480  -36.7315   23.2632 C   0  0  0  0  0  0
  -25.9209  -30.8461   21.3589 C   0  0  0  0  0  0
  -25.9995  -29.4796   20.7117 C   0  0  0  0  0  0
  -27.2003  -28.7404   20.6870 C   0  0  0  0  0  0
  -26.0606  -26.9499   19.4970 C   0  0  0  0  0  0
  -24.8646  -27.6905   19.5173 C   0  0  0  0  0  0
  -23.6028  -29.8226   20.1695 C   0  0  0  0  0  0
  -25.4096  -36.3117   24.0341 C   0  0  1  0  0  0
  -20.5859  -28.3657   23.1330 C   0  0  2  0  0  0
  -20.6756  -26.9400   22.5415 C   0  0  0  0  0  0
  -19.5735  -26.6389   21.5212 C   0  0  0  0  0  0
  -18.1920  -26.7920   22.1632 C   0  0  0  0  0  0
  -19.1520  -28.8831   23.2915 C   0  0  0  0  0  0
  -18.9449  -30.1439   23.8920 C   0  0  0  0  0  0
  -17.6451  -30.6583   24.0567 C   0  0  0  0  0  0
  -25.9019  -34.9481   23.5142 C   0  0  0  0  0  0
  -16.5344  -29.9083   23.6317 C   0  0  0  0  0  0
  -16.7261  -28.6495   23.0349 C   0  0  0  0  0  0
  -26.4460  -31.6593   25.0720 C   0  0  0  0  0  0
  -25.3732  -31.3683   26.1474 C   0  0  0  0  0  0
  -27.0282  -30.3044   24.6060 C   0  0  0  0  0  0
  -27.6055  -32.4292   25.7482 C   0  0  0  0  0  0
  -27.5582  -37.1810   24.8465 C   0  0  0  0  0  0
  -21.4118  -29.3035   22.3746 N   0  0  0  0  0  0
  -26.4287  -37.3803   23.9416 N   0  0  0  0  0  0
  -24.6608  -31.0839   22.1003 N   0  0  0  0  0  0
  -23.4176  -28.8206   23.3033 O   0  0  0  0  0  0
  -28.4539  -26.8136   20.0403 O   0  0  0  0  0  0
  -26.5577  -34.8929   22.4701 O   0  0  0  0  0  0
  -23.5307  -32.1452   23.7539 O   0  0  0  0  0  0
  -24.6134  -21.5111   20.8182 C   0  0  0  0  0  0
  -24.6189  -22.9087   20.9587 C   0  0  0  0  0  0
  -25.8190  -20.7950   20.9235 C   0  0  0  0  0  0
  -25.8263  -23.5865   21.2059 C   0  0  0  0  0  0
  -27.0387  -21.4640   21.1728 C   0  0  0  0  0  0
  -27.0497  -22.8764   21.3200 C   0  0  0  0  0  0
  -28.3141  -19.7407   22.5409 C   0  0  0  0  0  0
  -28.6290  -19.7786   20.0656 C   0  0  0  0  0  0
  -29.6505  -18.9878   22.6858 C   0  0  0  0  0  0
  -29.9683  -19.0341   20.2403 C   0  0  0  0  0  0
  -28.3271  -20.6463   21.3003 C   0  0  1  0  0  0
  -31.1460  -16.1352   22.4057 C   0  0  0  0  0  0
  -31.2736  -17.4570   21.6150 C   0  0  0  0  0  0
  -28.4834  -25.3896   20.0791 C   0  0  0  0  0  0
  -28.3701  -24.9043   21.5353 C   0  0  0  0  0  0
  -30.3486  -15.1051   21.7331 N   0  0  0  0  0  0
  -29.9892  -18.1933   21.4702 N   0  3  1  0  0  0
  -28.2593  -23.4847   21.5913 O   0  0  0  0  0  0
  -31.4561  -12.4050   19.0814 H   0  0  0  0  0  0
  -30.3209  -11.2749   19.7577 H   0  0  0  0  0  0
  -29.7129  -11.8179   17.3919 H   0  0  0  0  0  0
  -29.6442  -13.5203   17.7746 H   0  0  0  0  0  0
  -27.8230  -11.3140   18.8014 H   0  0  0  0  0  0
  -27.3474  -12.6506   17.7876 H   0  0  0  0  0  0
  -27.7192  -14.2534   19.5958 H   0  0  0  0  0  0
  -28.6616  -11.9100   21.3160 H   0  0  0  0  0  0
  -28.4401  -13.5348   21.8758 H   0  0  0  0  0  0
  -25.2746   -9.5691   22.4754 H   0  0  0  0  0  0
  -23.9992   -7.4639   22.7476 H   0  0  0  0  0  0
  -21.0833   -8.8762   19.8950 H   0  0  0  0  0  0
  -22.3676  -10.9667   19.6157 H   0  0  0  0  0  0
  -21.2005   -7.6141   23.9712 H   0  0  0  0  0  0
  -21.1482   -6.0521   25.9078 H   0  0  0  0  0  0
  -22.0599   -2.7605   23.2847 H   0  0  0  0  0  0
  -22.4096  -11.9870   22.4750 H   0  0  0  0  0  0
  -21.1115  -13.1260   22.2592 H   0  0  0  0  0  0
  -24.6721  -15.8460   20.5214 H   0  0  0  0  0  0
  -26.2892  -15.6193   20.0836 H   0  0  0  0  0  0
  -26.7093  -32.5569   23.1192 H   0  0  0  0  0  0
  -25.0070  -33.9805   25.0515 H   0  0  0  0  0  0
  -22.6844  -31.3096   21.4134 H   0  0  0  0  0  0
  -23.3737  -35.9654   23.3301 H   0  0  0  0  0  0
  -24.3567  -36.8922   22.2045 H   0  0  0  0  0  0
  -23.7238  -37.6526   23.6635 H   0  0  0  0  0  0
  -26.0217  -31.6088   20.5852 H   0  0  0  0  0  0
  -26.8128  -30.9070   21.9707 H   0  0  0  0  0  0
  -28.0993  -29.1467   21.1294 H   0  0  0  0  0  0
  -26.0390  -25.9987   18.9885 H   0  0  0  0  0  0
  -23.9748  -27.2838   19.0563 H   0  0  0  0  0  0
  -23.7053  -30.5933   19.4048 H   0  0  0  0  0  0
  -22.7289  -29.2362   19.8797 H   0  0  0  0  0  0
  -25.1265  -36.1993   25.0836 H   0  0  0  0  0  0
  -20.9973  -28.3231   24.1441 H   0  0  0  0  0  0
  -20.5663  -26.2272   23.3599 H   0  0  0  0  0  0
  -21.6629  -26.7442   22.1212 H   0  0  0  0  0  0
  -19.6886  -25.6310   21.1216 H   0  0  0  0  0  0
  -19.6664  -27.3217   20.6757 H   0  0  0  0  0  0
  -17.4192  -26.6704   21.4022 H   0  0  0  0  0  0
  -18.0287  -26.0047   22.9010 H   0  0  0  0  0  0
  -19.7929  -30.7242   24.2314 H   0  0  0  0  0  0
  -17.5009  -31.6265   24.5172 H   0  0  0  0  0  0
  -15.5341  -30.2990   23.7622 H   0  0  0  0  0  0
  -15.8668  -28.0811   22.7050 H   0  0  0  0  0  0
  -24.5981  -30.6925   25.7839 H   0  0  0  0  0  0
  -24.8812  -32.2812   26.4836 H   0  0  0  0  0  0
  -25.8106  -30.8966   27.0285 H   0  0  0  0  0  0
  -26.2827  -29.6831   24.1077 H   0  0  0  0  0  0
  -27.4035  -29.7243   25.4500 H   0  0  0  0  0  0
  -27.8665  -30.4362   23.9212 H   0  0  0  0  0  0
  -27.2715  -33.3621   26.2033 H   0  0  0  0  0  0
  -28.3887  -32.6792   25.0311 H   0  0  0  0  0  0
  -28.0688  -31.8410   26.5415 H   0  0  0  0  0  0
  -28.2599  -38.0108   24.7527 H   0  0  0  0  0  0
  -28.1083  -36.2643   24.6274 H   0  0  0  0  0  0
  -27.2301  -37.1454   25.8869 H   0  0  0  0  0  0
  -20.9264  -29.8774   21.6997 H   0  0  0  0  0  0
  -26.0177  -38.2888   24.1417 H   0  0  0  0  0  0
  -23.6839  -20.9889   20.6350 H   0  0  0  0  0  0
  -23.6951  -23.4652   20.8830 H   0  0  0  0  0  0
  -25.7998  -19.7202   20.8175 H   0  0  0  0  0  0
  -25.7697  -24.6589   21.3104 H   0  0  0  0  0  0
  -28.1396  -20.3430   23.4335 H   0  0  0  0  0  0
  -27.4902  -19.0284   22.4846 H   0  0  0  0  0  0
  -27.8306  -19.0559   19.8944 H   0  0  0  0  0  0
  -28.6743  -20.4035   19.1727 H   0  0  0  0  0  0
  -29.6011  -18.3401   23.5608 H   0  0  0  0  0  0
  -30.4466  -19.7086   22.8821 H   0  0  0  0  0  0
  -30.7870  -19.7549   20.2808 H   0  0  0  0  0  0
  -30.1489  -18.4114   19.3633 H   0  0  0  0  0  0
  -29.1666  -21.3328   21.4086 H   0  0  0  0  0  0
  -30.7254  -16.3129   23.3958 H   0  0  0  0  0  0
  -32.1455  -15.7345   22.5877 H   0  0  0  0  0  0
  -31.6896  -17.2347   20.6319 H   0  0  0  0  0  0
  -32.0107  -18.1025   22.0945 H   0  0  0  0  0  0
  -27.7450  -24.9192   19.4338 H   0  0  0  0  0  0
  -29.4464  -25.0714   19.6790 H   0  0  0  0  0  0
  -27.5715  -25.4041   22.0812 H   0  0  0  0  0  0
  -29.2822  -25.1813   22.0644 H   0  0  0  0  0  0
  -29.5110  -14.7844   22.1981 H   0  0  0  0  0  0
  -29.2766  -17.4889   21.3527 H   0  0  0  0  0  0
  1 25  1  0  0  0
  1 30  2  0  0  0
  1 86  1  0  0  0
  2  3  1  0  0  0
  2 25  1  0  0  0
  2 89  1  0  0  0
  2 90  1  0  0  0
  3  4  1  0  0  0
  3 91  1  0  0  0
  3 92  1  0  0  0
  4  5  1  0  0  0
  4 93  1  0  0  0
  4 94  1  0  0  0
  5  6  1  0  0  0
  5 26  1  0  0  0
  5 95  1  0  0  0
  6 25  1  0  0  0
  6 96  1  0  0  0
  6 97  1  0  0  0
  7  8  2  0  0  0
  7 26  1  0  0  0
  7 29  1  0  0  0
  8  9  1  0  0  0
  8 22  1  0  0  0
  9 10  1  0  0  0
  9 27  2  0  0  0
 10 11  2  0  0  0
 10 15  1  0  0  0
 11 12  1  0  0  0
 11 98  1  0  0  0
 12 13  2  0  0  0
 12 99  1  0  0  0
 13 14  1  0  0  0
 13 31  1  0  0  0
 14 15  2  0  0  0
 14100  1  0  0  0
 15101  1  0  0  0
 16 17  2  0  0  0
 16 21  1  0  0  0
 16 31  1  0  0  0
 17 18  1  0  0  0
 17102  1  0  0  0
 18 19  2  0  0  0
 18103  1  0  0  0
 19 20  1  0  0  0
 19 24  1  0  0  0
 20 21  2  0  0  0
 20104  1  0  0  0
 21 23  1  0  0  0
 22 28  1  0  0  0
 22 32  2  0  0  0
 26 27  1  0  0  0
 28105  1  0  0  0
 28106  1  0  0  0
 29107  1  0  0  0
 29108  1  0  0  0
 33 34  1  0  0  0
 33 66  1  0  0  0
 33 70  2  0  0  0
 34 36  1  0  0  0
 34 59  1  0  0  0
 34109  1  0  0  0
 35 44  2  0  0  0
 35 45  1  0  0  0
 35 68  1  0  0  0
 36 56  1  0  0  0
 36110  1  0  0  0
 37 39  1  0  0  0
 37 47  1  0  0  0
 37 66  1  0  0  0
 37111  1  0  0  0
 38 43  2  0  0  0
 38 46  1  0  0  0
 38 47  1  0  0  0
 39 64  1  0  0  0
 39 67  2  0  0  0
 40 52  1  0  0  0
 40 53  2  0  0  0
 40 58  1  0  0  0
 41112  1  0  0  0
 41113  1  0  0  0
 41114  1  0  0  0
 41 48  1  0  0  0
 42 43  1  0  0  0
 42 66  1  0  0  0
 42115  1  0  0  0
 42116  1  0  0  0
 43 44  1  0  0  0
 44117  1  0  0  0
 45 46  2  0  0  0
 45118  1  0  0  0
 46119  1  0  0  0
 47120  1  0  0  0
 47121  1  0  0  0
 48 56  1  0  0  0
 48 65  1  0  0  0
 48122  1  0  0  0
 49 50  1  0  0  0
 49 53  1  0  0  0
 49 64  1  0  0  0
 49123  1  0  0  0
 50 51  1  0  0  0
 50124  1  0  0  0
 50125  1  0  0  0
 51 52  1  0  0  0
 51126  1  0  0  0
 51127  1  0  0  0
 52128  1  0  0  0
 52129  1  0  0  0
 53 54  1  0  0  0
 54 55  2  0  0  0
 54130  1  0  0  0
 55 57  1  0  0  0
 55131  1  0  0  0
 56 69  2  0  0  0
 57 58  2  0  0  0
 57132  1  0  0  0
 58133  1  0  0  0
 59 60  1  0  0  0
 59 61  1  0  0  0
 59 62  1  0  0  0
 60134  1  0  0  0
 60135  1  0  0  0
 60136  1  0  0  0
 61137  1  0  0  0
 61138  1  0  0  0
 61139  1  0  0  0
 62140  1  0  0  0
 62141  1  0  0  0
 62142  1  0  0  0
 63 65  1  0  0  0
 63143  1  0  0  0
 63144  1  0  0  0
 63145  1  0  0  0
 64146  1  0  0  0
 65147  1  0  0  0
 68 84  1  0  0  0
 71 72  2  0  0  0
 71 73  1  0  0  0
 71148  1  0  0  0
 72 74  1  0  0  0
 72149  1  0  0  0
 73 75  2  0  0  0
 73150  1  0  0  0
 74 76  2  0  0  0
 74151  1  0  0  0
 75 76  1  0  0  0
 75 81  1  0  0  0
 76 88  1  0  0  0
 77 79  1  0  0  0
 77 81  1  0  0  0
 77152  1  0  0  0
 77153  1  0  0  0
 78 80  1  0  0  0
 78 81  1  0  0  0
 78154  1  0  0  0
 78155  1  0  0  0
 79 87  1  0  0  0
 79156  1  0  0  0
 79157  1  0  0  0
 80 87  1  0  0  0
 80158  1  0  0  0
 80159  1  0  0  0
 81160  1  0  0  0
 82 83  1  0  0  0
 82 86  1  0  0  0
 82161  1  0  0  0
 82162  1  0  0  0
 83163  1  0  0  0
 83164  1  0  0  0
 83 87  1  0  0  0
 84 85  1  0  0  0
 84165  1  0  0  0
 84166  1  0  0  0
 85 88  1  0  0  0
 85167  1  0  0  0
 85168  1  0  0  0
 86169  1  0  0  0
 87170  1  0  0  0
M  CHG  1  87   1
M  ISO  4   1 100  68 101  84 101  86 100
M  END
> <chiral flag>
0

> <version>
0

> <s_m_source_file>
/data/baiqing/PycharmProjects/Reinvent-master-3.2/result/LINK_invent/BTK/process_docking_weight1_custom_sum_contain_oxygen_bond_distance_aromatic_linkinvent_7_9_3/rearranged_h_0131.sdf

> <i_m_source_file_index>
53

> <r_mmod_Potential_Energy-OPLS-2005>
-175.387786865234

> <r_mmod_Stretch_Energy-OPLS-2005>
35.3487281799316

> <r_mmod_Bend_Energy-OPLS-2005>
107.832176208496

> <r_mmod_Torsional_Energy-OPLS-2005>
257.333160400391

> <r_mmod_Improper_Torsional_Energy-OPLS-2005>
2.51814031600952

> <r_mmod_Van_der_Waal_Energy-OPLS-2005>
163.324157714844

> <r_mmod_Electrostatic_Energy-OPLS-2005>
-309.182403564453

> <r_mmod_Solvation_Energy-OPLS-2005>
-440.281402587891

> <b_mmod_Minimization_Converged-OPLS-2005>
0

> <r_mmod_RMS_Derivative-OPLS-2005>
1.35292029380798

$$$$
53
                    3D
 Structure written by MMmdl.
155163  0  0  1  0            999 V2000
  -30.6528  -14.6363   20.4713 C   0  0  0  0  0  0
  -30.4243  -12.3894   19.4307 C   0  0  0  0  0  0
  -29.4918  -12.5093   18.2063 C   0  0  0  0  0  0
  -28.0212  -12.3378   18.6345 C   0  0  0  0  0  0
  -27.6493  -13.2193   19.8581 C   0  0  2  0  0  0
  -28.7042  -13.1020   20.9826 C   0  0  0  0  0  0
  -25.2545  -13.8165   20.5681 C   0  0  0  0  0  0
  -24.1824  -13.0415   20.9177 C   0  0  0  0  0  0
  -24.6412  -11.6896   20.8741 C   0  0  0  0  0  0
  -23.9084  -10.4282   21.0401 C   0  0  0  0  0  0
  -24.3627   -9.4197   21.9183 C   0  0  0  0  0  0
  -23.6298   -8.2241   22.0763 C   0  0  0  0  0  0
  -22.4280   -8.0276   21.3552 C   0  0  0  0  0  0
  -21.9916   -9.0245   20.4655 C   0  0  0  0  0  0
  -22.7255  -10.2126   20.3056 C   0  0  0  0  0  0
  -21.6853   -6.0720   22.5274 C   0  0  0  0  0  0
  -21.4015   -6.5630   23.8201 C   0  0  0  0  0  0
  -21.3675   -5.6800   24.9169 C   0  0  0  0  0  0
  -21.6038   -4.3054   24.7236 C   0  0  0  0  0  0
  -21.8819   -3.8136   23.4359 C   0  0  0  0  0  0
  -21.9187   -4.6951   22.3402 C   0  0  0  0  0  0
  -22.7857  -13.5200   21.1852 C   0  0  0  0  0  0
  -22.1658   -4.2137   21.0980 F   0  0  0  0  0  0
  -21.5632   -3.4539   25.7746 F   0  0  0  0  0  0
  -30.0105  -13.4285   20.3928 N   0  0  0  0  0  0
  -26.2989  -12.9362   20.3343 N   0  0  0  0  0  0
  -25.9341  -11.6518   20.5783 N   0  0  0  0  0  0
  -22.0543  -12.8160   22.0421 N   0  0  0  0  0  0
  -25.4162  -15.1888   20.4067 N   0  0  0  0  0  0
  -31.8402  -14.7540   20.1619 O   0  0  0  0  0  0
  -21.6643   -6.8872   21.4245 O   0  0  0  0  0  0
  -22.3529  -14.5515   20.6730 O   0  0  0  0  0  0
  -24.6282  -31.8548   23.1970 C   0  0  0  0  0  0
  -25.9128  -32.4718   23.8310 C   0  0  1  0  0  0
  -27.2260  -27.3003   20.0832 C   0  0  0  0  0  0
  -25.5958  -33.8533   24.2233 N   0  0  0  0  0  0
  -23.4205  -30.4788   21.5411 C   0  0  2  0  0  0
  -24.8678  -28.9367   20.1004 C   0  0  0  0  0  0
  -22.7475  -29.4591   22.4895 C   0  0  0  0  0  0
  -18.0279  -28.1398   22.8489 C   0  0  0  0  0  0
  -24.1492  -36.7277   23.2624 C   0  0  0  0  0  0
  -25.9631  -30.7792   21.3677 C   0  0  0  0  0  0
  -26.0390  -29.4050   20.7084 C   0  0  0  0  0  0
  -27.2168  -28.5963   20.6951 C   0  0  0  0  0  0
  -26.0206  -26.8810   19.4750 C   0  0  0  0  0  0
  -24.8636  -27.6820   19.4758 C   0  0  0  0  0  0
  -23.6322  -29.8125   20.1573 C   0  0  0  0  0  0
  -25.4117  -36.3033   24.0299 C   0  0  1  0  0  0
  -20.5892  -28.3688   23.1278 C   0  0  2  0  0  0
  -20.6768  -26.9400   22.5398 C   0  0  0  0  0  0
  -19.5727  -26.6389   21.5217 C   0  0  0  0  0  0
  -18.1903  -26.7946   22.1629 C   0  0  0  0  0  0
  -19.1539  -28.8863   23.2870 C   0  0  0  0  0  0
  -18.9472  -30.1491   23.8842 C   0  0  0  0  0  0
  -17.6475  -30.6597   24.0570 C   0  0  0  0  0  0
  -25.9058  -34.9404   23.5039 C   0  0  0  0  0  0
  -16.5356  -29.9096   23.6356 C   0  0  0  0  0  0
  -16.7275  -28.6544   23.0334 C   0  0  0  0  0  0
  -26.4536  -31.6548   25.0678 C   0  0  0  0  0  0
  -25.3786  -31.3632   26.1401 C   0  0  0  0  0  0
  -27.0395  -30.2984   24.6102 C   0  0  0  0  0  0
  -27.6090  -32.4304   25.7458 C   0  0  0  0  0  0
  -27.5589  -37.1739   24.8417 C   0  0  0  0  0  0
  -21.4181  -29.3042   22.3672 N   0  0  0  0  0  0
  -26.4252  -37.3769   23.9430 N   0  0  0  0  0  0
  -24.6907  -31.0537   22.0926 N   0  0  0  0  0  0
  -23.4188  -28.8101   23.2950 O   0  0  0  0  0  0
  -28.3487  -26.4501   20.1429 O   0  0  0  0  0  0
  -26.5605  -34.8888   22.4601 O   0  0  0  0  0  0
  -23.5449  -32.1376   23.7279 O   0  0  0  0  0  0
  -29.3406  -22.8429   18.8780 C   0  0  0  0  0  0
  -29.5513  -21.4654   19.2025 C   0  0  0  0  0  0
  -28.5891  -21.8780   21.3556 C   0  0  0  0  0  0
  -28.7474  -23.7906   19.7678 C   0  0  0  0  0  0
  -28.3449  -23.2523   21.0242 C   0  0  0  0  0  0
  -29.1854  -20.9378   20.4662 C   0  0  0  0  0  0
  -27.6138  -24.1169   22.0348 C   0  0  0  0  0  0
  -28.5033  -25.2725   19.2490 C   0  0  0  0  0  0
  -29.7537  -18.3587   20.1166 C   0  0  0  0  0  0
  -30.2973  -17.1528   21.0131 C   0  0  0  0  0  0
  -29.3771  -19.5794   20.8986 N   0  0  0  0  0  0
  -29.8786  -15.7378   20.7168 N   0  0  0  0  0  0
  -31.4673  -12.4922   19.1264 H   0  0  0  0  0  0
  -30.3362  -11.3983   19.8786 H   0  0  0  0  0  0
  -29.7534  -11.7655   17.4526 H   0  0  0  0  0  0
  -29.6241  -13.4842   17.7320 H   0  0  0  0  0  0
  -27.8707  -11.2846   18.8779 H   0  0  0  0  0  0
  -27.3540  -12.5528   17.7989 H   0  0  0  0  0  0
  -27.6603  -14.2503   19.5048 H   0  0  0  0  0  0
  -28.7188  -12.0935   21.3987 H   0  0  0  0  0  0
  -28.4633  -13.7676   21.8136 H   0  0  0  0  0  0
  -25.2770   -9.5662   22.4746 H   0  0  0  0  0  0
  -24.0000   -7.4638   22.7493 H   0  0  0  0  0  0
  -21.0840   -8.8771   19.8962 H   0  0  0  0  0  0
  -22.3715  -10.9658   19.6162 H   0  0  0  0  0  0
  -21.2016   -7.6138   23.9700 H   0  0  0  0  0  0
  -21.1498   -6.0526   25.9069 H   0  0  0  0  0  0
  -22.0582   -2.7604   23.2859 H   0  0  0  0  0  0
  -22.4201  -11.9797   22.4728 H   0  0  0  0  0  0
  -21.1178  -13.1171   22.2723 H   0  0  0  0  0  0
  -24.6324  -15.8260   20.4947 H   0  0  0  0  0  0
  -26.2544  -15.6429   20.0691 H   0  0  0  0  0  0
  -26.7166  -32.5396   23.1038 H   0  0  0  0  0  0
  -25.0171  -33.9683   25.0430 H   0  0  0  0  0  0
  -22.7154  -31.3010   21.3962 H   0  0  0  0  0  0
  -23.3747  -35.9601   23.3207 H   0  0  0  0  0  0
  -24.3598  -36.9024   22.2055 H   0  0  0  0  0  0
  -23.7270  -37.6455   23.6739 H   0  0  0  0  0  0
  -26.0806  -31.5384   20.5929 H   0  0  0  0  0  0
  -26.8485  -30.8383   21.9886 H   0  0  0  0  0  0
  -28.1201  -28.9496   21.1764 H   0  0  0  0  0  0
  -25.9154  -25.9068   19.0256 H   0  0  0  0  0  0
  -23.9614  -27.3157   19.0046 H   0  0  0  0  0  0
  -23.7297  -30.5849   19.3928 H   0  0  0  0  0  0
  -22.7552  -29.2302   19.8718 H   0  0  0  0  0  0
  -25.1292  -36.1818   25.0779 H   0  0  0  0  0  0
  -20.9974  -28.3258   24.1407 H   0  0  0  0  0  0
  -20.5729  -26.2254   23.3585 H   0  0  0  0  0  0
  -21.6619  -26.7450   22.1154 H   0  0  0  0  0  0
  -19.6865  -25.6300   21.1241 H   0  0  0  0  0  0
  -19.6673  -27.3197   20.6734 H   0  0  0  0  0  0
  -17.4173  -26.6708   21.4022 H   0  0  0  0  0  0
  -18.0290  -26.0108   22.9038 H   0  0  0  0  0  0
  -19.7945  -30.7355   24.2139 H   0  0  0  0  0  0
  -17.5022  -31.6275   24.5169 H   0  0  0  0  0  0
  -15.5363  -30.2976   23.7735 H   0  0  0  0  0  0
  -15.8671  -28.0902   22.6989 H   0  0  0  0  0  0
  -24.6067  -30.6842   25.7770 H   0  0  0  0  0  0
  -24.8822  -32.2733   26.4764 H   0  0  0  0  0  0
  -25.8164  -30.8933   27.0214 H   0  0  0  0  0  0
  -26.2956  -29.6684   24.1201 H   0  0  0  0  0  0
  -27.4225  -29.7282   25.4577 H   0  0  0  0  0  0
  -27.8749  -30.4293   23.9212 H   0  0  0  0  0  0
  -27.2760  -33.3716   26.1861 H   0  0  0  0  0  0
  -28.4005  -32.6696   25.0330 H   0  0  0  0  0  0
  -28.0611  -31.8510   26.5528 H   0  0  0  0  0  0
  -28.2418  -38.0204   24.7713 H   0  0  0  0  0  0
  -28.1285  -36.2767   24.5955 H   0  0  0  0  0  0
  -27.2324  -37.1012   25.8802 H   0  0  0  0  0  0
  -20.9326  -29.8861   21.6983 H   0  0  0  0  0  0
  -26.0090  -38.2775   24.1645 H   0  0  0  0  0  0
  -29.6369  -23.1761   17.8929 H   0  0  0  0  0  0
  -30.0064  -20.8214   18.4629 H   0  0  0  0  0  0
  -28.2863  -21.5296   22.3322 H   0  0  0  0  0  0
  -27.1810  -23.5135   22.8341 H   0  0  0  0  0  0
  -26.7953  -24.6542   21.5563 H   0  0  0  0  0  0
  -28.2867  -24.8449   22.4893 H   0  0  0  0  0  0
  -27.7496  -25.2223   18.4686 H   0  0  0  0  0  0
  -29.4041  -25.5103   18.6803 H   0  0  0  0  0  0
  -28.8894  -18.0220   19.5406 H   0  0  0  0  0  0
  -30.5201  -18.6227   19.3846 H   0  0  0  0  0  0
  -29.9574  -17.3156   22.0362 H   0  0  0  0  0  0
  -31.3858  -17.2134   21.0700 H   0  0  0  0  0  0
  -29.0622  -19.3737   21.8438 H   0  0  0  0  0  0
  -28.8993  -15.5387   20.8559 H   0  0  0  0  0  0
  1 25  1  0  0  0
  1 30  2  0  0  0
  1 82  1  0  0  0
  2  3  1  0  0  0
  2 25  1  0  0  0
  2 83  1  0  0  0
  2 84  1  0  0  0
  3  4  1  0  0  0
  3 85  1  0  0  0
  3 86  1  0  0  0
  4  5  1  0  0  0
  4 87  1  0  0  0
  4 88  1  0  0  0
  5  6  1  0  0  0
  5 26  1  0  0  0
  5 89  1  0  0  0
  6 25  1  0  0  0
  6 90  1  0  0  0
  6 91  1  0  0  0
  7  8  2  0  0  0
  7 26  1  0  0  0
  7 29  1  0  0  0
  8  9  1  0  0  0
  8 22  1  0  0  0
  9 10  1  0  0  0
  9 27  2  0  0  0
 10 11  2  0  0  0
 10 15  1  0  0  0
 11 12  1  0  0  0
 11 92  1  0  0  0
 12 13  2  0  0  0
 12 93  1  0  0  0
 13 14  1  0  0  0
 13 31  1  0  0  0
 14 15  2  0  0  0
 14 94  1  0  0  0
 15 95  1  0  0  0
 16 17  2  0  0  0
 16 21  1  0  0  0
 16 31  1  0  0  0
 17 18  1  0  0  0
 17 96  1  0  0  0
 18 19  2  0  0  0
 18 97  1  0  0  0
 19 20  1  0  0  0
 19 24  1  0  0  0
 20 21  2  0  0  0
 20 98  1  0  0  0
 21 23  1  0  0  0
 22 28  1  0  0  0
 22 32  2  0  0  0
 26 27  1  0  0  0
 28 99  1  0  0  0
 28100  1  0  0  0
 29101  1  0  0  0
 29102  1  0  0  0
 33 34  1  0  0  0
 33 66  1  0  0  0
 33 70  2  0  0  0
 34 36  1  0  0  0
 34 59  1  0  0  0
 34103  1  0  0  0
 35 44  2  0  0  0
 35 45  1  0  0  0
 35 68  1  0  0  0
 36 56  1  0  0  0
 36104  1  0  0  0
 37 39  1  0  0  0
 37 47  1  0  0  0
 37 66  1  0  0  0
 37105  1  0  0  0
 38 43  2  0  0  0
 38 46  1  0  0  0
 38 47  1  0  0  0
 39 64  1  0  0  0
 39 67  2  0  0  0
 40 52  1  0  0  0
 40 53  2  0  0  0
 40 58  1  0  0  0
 41106  1  0  0  0
 41107  1  0  0  0
 41108  1  0  0  0
 41 48  1  0  0  0
 42 43  1  0  0  0
 42 66  1  0  0  0
 42109  1  0  0  0
 42110  1  0  0  0
 43 44  1  0  0  0
 44111  1  0  0  0
 45 46  2  0  0  0
 45112  1  0  0  0
 46113  1  0  0  0
 47114  1  0  0  0
 47115  1  0  0  0
 48 56  1  0  0  0
 48 65  1  0  0  0
 48116  1  0  0  0
 49 50  1  0  0  0
 49 53  1  0  0  0
 49 64  1  0  0  0
 49117  1  0  0  0
 50 51  1  0  0  0
 50118  1  0  0  0
 50119  1  0  0  0
 51 52  1  0  0  0
 51120  1  0  0  0
 51121  1  0  0  0
 52122  1  0  0  0
 52123  1  0  0  0
 53 54  1  0  0  0
 54 55  2  0  0  0
 54124  1  0  0  0
 55 57  1  0  0  0
 55125  1  0  0  0
 56 69  2  0  0  0
 57 58  2  0  0  0
 57126  1  0  0  0
 58127  1  0  0  0
 59 60  1  0  0  0
 59 61  1  0  0  0
 59 62  1  0  0  0
 60128  1  0  0  0
 60129  1  0  0  0
 60130  1  0  0  0
 61131  1  0  0  0
 61132  1  0  0  0
 61133  1  0  0  0
 62134  1  0  0  0
 62135  1  0  0  0
 62136  1  0  0  0
 63 65  1  0  0  0
 63137  1  0  0  0
 63138  1  0  0  0
 63139  1  0  0  0
 64140  1  0  0  0
 65141  1  0  0  0
 68 78  1  0  0  0
 71 72  2  0  0  0
 71 74  1  0  0  0
 71142  1  0  0  0
 72 76  1  0  0  0
 72143  1  0  0  0
 73 75  1  0  0  0
 73 76  2  0  0  0
 73144  1  0  0  0
 74 75  2  0  0  0
 74 78  1  0  0  0
 75 77  1  0  0  0
 76 81  1  0  0  0
 77145  1  0  0  0
 77146  1  0  0  0
 77147  1  0  0  0
 78148  1  0  0  0
 78149  1  0  0  0
 79 80  1  0  0  0
 79 81  1  0  0  0
 79150  1  0  0  0
 79151  1  0  0  0
 80 82  1  0  0  0
 80152  1  0  0  0
 80153  1  0  0  0
 81154  1  0  0  0
 82155  1  0  0  0
M  ISO  4   1 100  68 101  78 101  82 100
M  END
> <chiral flag>
0

> <version>
0

> <s_m_source_file>
/data/baiqing/PycharmProjects/Reinvent-master-3.2/result/LINK_invent/BTK/process_docking_weight1_custom_sum_contain_oxygen_bond_distance_aromatic_linkinvent_7_9_3/rearranged_h_0131.sdf

> <i_m_source_file_index>
54

> <r_mmod_Potential_Energy-OPLS-2005>
35.0872764587402

> <r_mmod_Stretch_Energy-OPLS-2005>
84.3039627075195

> <r_mmod_Bend_Energy-OPLS-2005>
175.285797119141

> <r_mmod_Torsional_Energy-OPLS-2005>
208.076538085938

> <r_mmod_Improper_Torsional_Energy-OPLS-2005>
5.13983345031738

> <r_mmod_Van_der_Waal_Energy-OPLS-2005>
140.323379516602

> <r_mmod_Electrostatic_Energy-OPLS-2005>
-411.671081542969

> <r_mmod_Solvation_Energy-OPLS-2005>
-219.888763427734

> <b_mmod_Minimization_Converged-OPLS-2005>
0

> <r_mmod_RMS_Derivative-OPLS-2005>
3.49985432624817

$$$$
54
                    3D
 Structure written by MMmdl.
166175  0  0  1  0            999 V2000
  -30.5903  -14.7789   20.4607 C   0  0  0  0  0  0
  -30.4314  -12.4730   19.4912 C   0  0  0  0  0  0
  -29.5173  -12.5055   18.2458 C   0  0  0  0  0  0
  -28.0405  -12.3284   18.6491 C   0  0  0  0  0  0
  -27.6374  -13.2346   19.8431 C   0  0  2  0  0  0
  -28.6745  -13.1858   20.9867 C   0  0  0  0  0  0
  -25.2464  -13.8156   20.5577 C   0  0  0  0  0  0
  -24.1799  -13.0421   20.9194 C   0  0  0  0  0  0
  -24.6397  -11.6901   20.8774 C   0  0  0  0  0  0
  -23.9096  -10.4286   21.0437 C   0  0  0  0  0  0
  -24.3652   -9.4191   21.9179 C   0  0  0  0  0  0
  -23.6318   -8.2227   22.0756 C   0  0  0  0  0  0
  -22.4291   -8.0284   21.3555 C   0  0  0  0  0  0
  -21.9949   -9.0263   20.4655 C   0  0  0  0  0  0
  -22.7277  -10.2136   20.3075 C   0  0  0  0  0  0
  -21.6843   -6.0741   22.5278 C   0  0  0  0  0  0
  -21.4018   -6.5630   23.8223 C   0  0  0  0  0  0
  -21.3666   -5.6770   24.9173 C   0  0  0  0  0  0
  -21.6043   -4.3033   24.7198 C   0  0  0  0  0  0
  -21.8824   -3.8143   23.4317 C   0  0  0  0  0  0
  -21.9198   -4.6977   22.3382 C   0  0  0  0  0  0
  -22.7850  -13.5241   21.1903 C   0  0  0  0  0  0
  -22.1649   -4.2179   21.0949 F   0  0  0  0  0  0
  -21.5637   -3.4505   25.7698 F   0  0  0  0  0  0
  -29.9765  -13.5440   20.4102 N   0  0  0  0  0  0
  -26.2900  -12.9394   20.3207 N   0  0  0  0  0  0
  -25.9319  -11.6544   20.5755 N   0  0  0  0  0  0
  -22.0644  -12.8384   22.0680 N   0  0  0  0  0  0
  -25.4117  -15.1860   20.3875 N   0  0  0  0  0  0
  -31.7759  -14.8797   20.1365 O   0  0  0  0  0  0
  -21.6630   -6.8898   21.4251 O   0  0  0  0  0  0
  -22.3491  -14.5482   20.6650 O   0  0  0  0  0  0
  -24.6332  -31.8518   23.1939 C   0  0  0  0  0  0
  -25.9136  -32.4752   23.8316 C   0  0  1  0  0  0
  -27.2322  -27.2440   20.1360 C   0  0  0  0  0  0
  -25.5926  -33.8553   24.2241 N   0  0  0  0  0  0
  -23.4326  -30.4720   21.5355 C   0  0  2  0  0  0
  -24.8839  -28.9144   20.1095 C   0  0  0  0  0  0
  -22.7518  -29.4579   22.4873 C   0  0  0  0  0  0
  -18.0305  -28.1371   22.8478 C   0  0  0  0  0  0
  -24.1489  -36.7272   23.2633 C   0  0  0  0  0  0
  -25.9789  -30.7624   21.3735 C   0  0  0  0  0  0
  -26.0556  -29.3820   20.7171 C   0  0  0  0  0  0
  -27.2313  -28.5605   20.7145 C   0  0  0  0  0  0
  -26.0373  -26.8542   19.4876 C   0  0  0  0  0  0
  -24.8807  -27.6590   19.4819 C   0  0  0  0  0  0
  -23.6564  -29.8031   20.1533 C   0  0  0  0  0  0
  -25.4112  -36.3061   24.0325 C   0  0  1  0  0  0
  -20.5905  -28.3685   23.1252 C   0  0  2  0  0  0
  -20.6776  -26.9404   22.5376 C   0  0  0  0  0  0
  -19.5759  -26.6375   21.5179 C   0  0  0  0  0  0
  -18.1946  -26.7913   22.1603 C   0  0  0  0  0  0
  -19.1554  -28.8846   23.2864 C   0  0  0  0  0  0
  -18.9474  -30.1439   23.8890 C   0  0  0  0  0  0
  -17.6467  -30.6575   24.0554 C   0  0  0  0  0  0
  -25.9053  -34.9441   23.5086 C   0  0  0  0  0  0
  -16.5362  -29.9070   23.6317 C   0  0  0  0  0  0
  -16.7286  -28.6481   23.0362 C   0  0  0  0  0  0
  -26.4507  -31.6570   25.0697 C   0  0  0  0  0  0
  -25.3759  -31.3714   26.1441 C   0  0  0  0  0  0
  -27.0322  -30.2978   24.6166 C   0  0  0  0  0  0
  -27.6064  -32.4298   25.7482 C   0  0  0  0  0  0
  -27.5577  -37.1794   24.8465 C   0  0  0  0  0  0
  -21.4218  -29.3047   22.3642 N   0  0  0  0  0  0
  -26.4278  -37.3767   23.9421 N   0  0  0  0  0  0
  -24.7002  -31.0489   22.0908 N   0  0  0  0  0  0
  -23.4211  -28.8126   23.2978 O   0  0  0  0  0  0
  -28.3231  -26.3352   20.2161 O   0  0  0  0  0  0
  -26.5608  -34.8925   22.4650 O   0  0  0  0  0  0
  -23.5470  -32.1332   23.7230 O   0  0  0  0  0  0
  -27.7624  -19.8767   22.4107 C   0  0  0  0  0  0
  -28.0568  -21.0928   21.7809 C   0  0  0  0  0  0
  -28.3345  -18.6469   21.9937 C   0  0  0  0  0  0
  -29.2847  -18.6720   20.9194 C   0  0  0  0  0  0
  -28.9415  -21.1059   20.7031 C   0  0  0  0  0  0
  -28.5447  -17.2845   24.1496 C   0  0  0  0  0  0
  -26.3433  -17.2978   22.9285 C   0  0  0  0  0  0
  -28.0683  -16.0394   24.9302 C   0  0  0  0  0  0
  -25.9377  -16.0148   23.6790 C   0  0  0  0  0  0
  -27.8803  -17.3917   22.7615 C   0  0  0  0  0  0
  -30.1503  -17.3935   20.4320 C   0  0  0  0  0  0
  -28.0990  -24.8491   20.0115 C   0  0  0  0  0  0
  -29.1009  -23.6938   20.5704 C   0  0  0  0  0  0
  -29.5334  -19.9056   20.2989 N   0  0  0  0  0  0
  -29.8104  -15.9113   20.6600 N   0  0  0  0  0  0
  -26.5908  -15.9617   25.0044 N   0  3  0  0  0  0
  -29.1802  -22.3099   19.9759 O   0  0  0  0  0  0
  -31.4768  -12.5978   19.2050 H   0  0  0  0  0  0
  -30.3755  -11.5022   19.9848 H   0  0  0  0  0  0
  -29.8082  -11.7283   17.5391 H   0  0  0  0  0  0
  -29.6460  -13.4550   17.7251 H   0  0  0  0  0  0
  -27.8947  -11.2794   18.9142 H   0  0  0  0  0  0
  -27.3921  -12.5193   17.7931 H   0  0  0  0  0  0
  -27.6277  -14.2522   19.4503 H   0  0  0  0  0  0
  -28.7089  -12.1900   21.4292 H   0  0  0  0  0  0
  -28.3986  -13.8706   21.7908 H   0  0  0  0  0  0
  -25.2806   -9.5625   22.4754 H   0  0  0  0  0  0
  -24.0027   -7.4598   22.7450 H   0  0  0  0  0  0
  -21.0889   -8.8778   19.8954 H   0  0  0  0  0  0
  -22.3758  -10.9665   19.6169 H   0  0  0  0  0  0
  -21.2008   -7.6135   23.9739 H   0  0  0  0  0  0
  -21.1489   -6.0475   25.9083 H   0  0  0  0  0  0
  -22.0618   -2.7617   23.2768 H   0  0  0  0  0  0
  -22.4444  -12.0263   22.5308 H   0  0  0  0  0  0
  -21.1360  -13.1550   22.3115 H   0  0  0  0  0  0
  -24.6015  -15.7969   20.3870 H   0  0  0  0  0  0
  -26.2105  -15.5954   19.9242 H   0  0  0  0  0  0
  -26.7212  -32.5408   23.1071 H   0  0  0  0  0  0
  -25.0134  -33.9682   25.0431 H   0  0  0  0  0  0
  -22.7300  -31.2939   21.3841 H   0  0  0  0  0  0
  -23.3756  -35.9598   23.3275 H   0  0  0  0  0  0
  -24.3579  -36.8902   22.2045 H   0  0  0  0  0  0
  -23.7241  -37.6464   23.6675 H   0  0  0  0  0  0
  -26.1186  -31.5234   20.6037 H   0  0  0  0  0  0
  -26.8560  -30.8140   22.0071 H   0  0  0  0  0  0
  -28.1266  -28.9173   21.2027 H   0  0  0  0  0  0
  -25.9703  -25.8964   18.9940 H   0  0  0  0  0  0
  -23.9850  -27.2941   18.9964 H   0  0  0  0  0  0
  -23.7908  -30.5769   19.3962 H   0  0  0  0  0  0
  -22.7771  -29.2374   19.8412 H   0  0  0  0  0  0
  -25.1307  -36.1873   25.0817 H   0  0  0  0  0  0
  -21.0007  -28.3235   24.1372 H   0  0  0  0  0  0
  -20.5619  -26.2309   23.3578 H   0  0  0  0  0  0
  -21.6656  -26.7375   22.1220 H   0  0  0  0  0  0
  -19.6895  -25.6285   21.1217 H   0  0  0  0  0  0
  -19.6694  -27.3171   20.6698 H   0  0  0  0  0  0
  -17.4204  -26.6656   21.4015 H   0  0  0  0  0  0
  -18.0371  -26.0051   22.9003 H   0  0  0  0  0  0
  -19.7948  -30.7263   24.2266 H   0  0  0  0  0  0
  -17.5022  -31.6265   24.5149 H   0  0  0  0  0  0
  -15.5360  -30.2980   23.7634 H   0  0  0  0  0  0
  -15.8690  -28.0786   22.7101 H   0  0  0  0  0  0
  -24.5934  -30.7068   25.7783 H   0  0  0  0  0  0
  -24.8984  -32.2890   26.4892 H   0  0  0  0  0  0
  -25.8116  -30.8880   27.0199 H   0  0  0  0  0  0
  -26.2875  -29.6759   24.1187 H   0  0  0  0  0  0
  -27.3977  -29.7213   25.4670 H   0  0  0  0  0  0
  -27.8806  -30.4233   23.9430 H   0  0  0  0  0  0
  -27.2673  -33.3618   26.2021 H   0  0  0  0  0  0
  -28.3918  -32.6788   25.0334 H   0  0  0  0  0  0
  -28.0690  -31.8434   26.5427 H   0  0  0  0  0  0
  -28.2583  -38.0098   24.7524 H   0  0  0  0  0  0
  -28.1086  -36.2630   24.6294 H   0  0  0  0  0  0
  -27.2307  -37.1456   25.8868 H   0  0  0  0  0  0
  -20.9375  -29.8825   21.6913 H   0  0  0  0  0  0
  -26.0140  -38.2838   24.1422 H   0  0  0  0  0  0
  -27.0690  -19.9108   23.2367 H   0  0  0  0  0  0
  -27.5592  -21.9929   22.1133 H   0  0  0  0  0  0
  -29.6291  -17.2373   24.0425 H   0  0  0  0  0  0
  -28.3327  -18.1797   24.7361 H   0  0  0  0  0  0
  -25.9455  -18.1412   23.4911 H   0  0  0  0  0  0
  -25.8537  -17.3322   21.9554 H   0  0  0  0  0  0
  -28.4745  -16.0553   25.9411 H   0  0  0  0  0  0
  -28.4530  -15.1345   24.4587 H   0  0  0  0  0  0
  -26.2150  -15.1282   23.1080 H   0  0  0  0  0  0
  -24.8537  -15.9750   23.8048 H   0  0  0  0  0  0
  -28.1355  -16.5052   22.2038 H   0  0  0  0  0  0
  -31.1575  -17.5483   20.8218 H   0  0  0  0  0  0
  -30.2556  -17.5029   19.3527 H   0  0  0  0  0  0
  -28.0292  -24.7001   18.9337 H   0  0  0  0  0  0
  -27.1195  -24.5933   20.4156 H   0  0  0  0  0  0
  -29.0143  -23.6407   21.6553 H   0  0  0  0  0  0
  -30.1051  -24.0844   20.4091 H   0  0  0  0  0  0
  -28.8429  -15.7372   20.8727 H   0  0  0  0  0  0
  -26.2445  -16.7120   25.5822 H   0  0  0  0  0  0
  -26.3299  -15.1022   25.4612 H   0  0  0  0  0  0
  1 25  1  0  0  0
  1 30  2  0  0  0
  1 85  1  0  0  0
  2  3  1  0  0  0
  2 25  1  0  0  0
  2 88  1  0  0  0
  2 89  1  0  0  0
  3  4  1  0  0  0
  3 90  1  0  0  0
  3 91  1  0  0  0
  4  5  1  0  0  0
  4 92  1  0  0  0
  4 93  1  0  0  0
  5  6  1  0  0  0
  5 26  1  0  0  0
  5 94  1  0  0  0
  6 25  1  0  0  0
  6 95  1  0  0  0
  6 96  1  0  0  0
  7  8  2  0  0  0
  7 26  1  0  0  0
  7 29  1  0  0  0
  8  9  1  0  0  0
  8 22  1  0  0  0
  9 10  1  0  0  0
  9 27  2  0  0  0
 10 11  2  0  0  0
 10 15  1  0  0  0
 11 12  1  0  0  0
 11 97  1  0  0  0
 12 13  2  0  0  0
 12 98  1  0  0  0
 13 14  1  0  0  0
 13 31  1  0  0  0
 14 15  2  0  0  0
 14 99  1  0  0  0
 15100  1  0  0  0
 16 17  2  0  0  0
 16 21  1  0  0  0
 16 31  1  0  0  0
 17 18  1  0  0  0
 17101  1  0  0  0
 18 19  2  0  0  0
 18102  1  0  0  0
 19 20  1  0  0  0
 19 24  1  0  0  0
 20 21  2  0  0  0
 20103  1  0  0  0
 21 23  1  0  0  0
 22 28  1  0  0  0
 22 32  2  0  0  0
 26 27  1  0  0  0
 28104  1  0  0  0
 28105  1  0  0  0
 29106  1  0  0  0
 29107  1  0  0  0
 33 34  1  0  0  0
 33 66  1  0  0  0
 33 70  2  0  0  0
 34 36  1  0  0  0
 34 59  1  0  0  0
 34108  1  0  0  0
 35 44  2  0  0  0
 35 45  1  0  0  0
 35 68  1  0  0  0
 36 56  1  0  0  0
 36109  1  0  0  0
 37 39  1  0  0  0
 37 47  1  0  0  0
 37 66  1  0  0  0
 37110  1  0  0  0
 38 43  2  0  0  0
 38 46  1  0  0  0
 38 47  1  0  0  0
 39 64  1  0  0  0
 39 67  2  0  0  0
 40 52  1  0  0  0
 40 53  2  0  0  0
 40 58  1  0  0  0
 41111  1  0  0  0
 41112  1  0  0  0
 41113  1  0  0  0
 41 48  1  0  0  0
 42 43  1  0  0  0
 42 66  1  0  0  0
 42114  1  0  0  0
 42115  1  0  0  0
 43 44  1  0  0  0
 44116  1  0  0  0
 45 46  2  0  0  0
 45117  1  0  0  0
 46118  1  0  0  0
 47119  1  0  0  0
 47120  1  0  0  0
 48 56  1  0  0  0
 48 65  1  0  0  0
 48121  1  0  0  0
 49 50  1  0  0  0
 49 53  1  0  0  0
 49 64  1  0  0  0
 49122  1  0  0  0
 50 51  1  0  0  0
 50123  1  0  0  0
 50124  1  0  0  0
 51 52  1  0  0  0
 51125  1  0  0  0
 51126  1  0  0  0
 52127  1  0  0  0
 52128  1  0  0  0
 53 54  1  0  0  0
 54 55  2  0  0  0
 54129  1  0  0  0
 55 57  1  0  0  0
 55130  1  0  0  0
 56 69  2  0  0  0
 57 58  2  0  0  0
 57131  1  0  0  0
 58132  1  0  0  0
 59 60  1  0  0  0
 59 61  1  0  0  0
 59 62  1  0  0  0
 60133  1  0  0  0
 60134  1  0  0  0
 60135  1  0  0  0
 61136  1  0  0  0
 61137  1  0  0  0
 61138  1  0  0  0
 62139  1  0  0  0
 62140  1  0  0  0
 62141  1  0  0  0
 63 65  1  0  0  0
 63142  1  0  0  0
 63143  1  0  0  0
 63144  1  0  0  0
 64145  1  0  0  0
 65146  1  0  0  0
 68 82  1  0  0  0
 71 72  2  0  0  0
 71 73  1  0  0  0
 71147  1  0  0  0
 72 75  1  0  0  0
 72148  1  0  0  0
 73 74  2  0  0  0
 73 80  1  0  0  0
 74 81  1  0  0  0
 74 84  1  0  0  0
 75 84  2  0  0  0
 75 87  1  0  0  0
 76 78  1  0  0  0
 76 80  1  0  0  0
 76149  1  0  0  0
 76150  1  0  0  0
 77 79  1  0  0  0
 77 80  1  0  0  0
 77151  1  0  0  0
 77152  1  0  0  0
 78 86  1  0  0  0
 78153  1  0  0  0
 78154  1  0  0  0
 79 86  1  0  0  0
 79155  1  0  0  0
 79156  1  0  0  0
 80157  1  0  0  0
 81 85  1  0  0  0
 81158  1  0  0  0
 81159  1  0  0  0
 82 83  1  0  0  0
 82160  1  0  0  0
 82161  1  0  0  0
 83 87  1  0  0  0
 83162  1  0  0  0
 83163  1  0  0  0
 85164  1  0  0  0
 86165  1  0  0  0
 86166  1  0  0  0
M  CHG  1  86   1
M  ISO  4   1 100  68 101  82 101  85 100
M  END
> <chiral flag>
0

> <version>
0

> <s_m_source_file>
/data/baiqing/PycharmProjects/Reinvent-master-3.2/result/LINK_invent/BTK/process_docking_weight1_custom_sum_contain_oxygen_bond_distance_aromatic_linkinvent_7_9_3/rearranged_h_0131.sdf

> <i_m_source_file_index>
55

> <r_mmod_Potential_Energy-OPLS-2005>
-212.305755615234

> <r_mmod_Stretch_Energy-OPLS-2005>
146.635360717773

> <r_mmod_Bend_Energy-OPLS-2005>
201.480102539062

> <r_mmod_Torsional_Energy-OPLS-2005>
241.193084716797

> <r_mmod_Improper_Torsional_Energy-OPLS-2005>
6.63364267349243

> <r_mmod_Van_der_Waal_Energy-OPLS-2005>
140.596694946289

> <r_mmod_Electrostatic_Energy-OPLS-2005>
-529.611755371094

> <r_mmod_Solvation_Energy-OPLS-2005>
-519.805114746094

> <b_mmod_Minimization_Converged-OPLS-2005>
0

> <r_mmod_RMS_Derivative-OPLS-2005>
3.14548349380493

$$$$
55
                    3D
 Structure written by MMmdl.
170178  0  0  1  0            999 V2000
  -30.7214  -14.5448   20.5771 C   0  0  0  0  0  0
  -30.4309  -12.3639   19.4466 C   0  0  0  0  0  0
  -29.4913  -12.5047   18.2311 C   0  0  0  0  0  0
  -28.0234  -12.3392   18.6628 C   0  0  0  0  0  0
  -27.6592  -13.2192   19.8882 C   0  0  2  0  0  0
  -28.7102  -13.0666   21.0158 C   0  0  0  0  0  0
  -25.2521  -13.8208   20.5724 C   0  0  0  0  0  0
  -24.1794  -13.0469   20.9271 C   0  0  0  0  0  0
  -24.6350  -11.6933   20.8808 C   0  0  0  0  0  0
  -23.9023  -10.4298   21.0439 C   0  0  0  0  0  0
  -24.3569   -9.4229   21.9218 C   0  0  0  0  0  0
  -23.6269   -8.2239   22.0761 C   0  0  0  0  0  0
  -22.4272   -8.0254   21.3537 C   0  0  0  0  0  0
  -21.9889   -9.0233   20.4658 C   0  0  0  0  0  0
  -22.7197  -10.2134   20.3087 C   0  0  0  0  0  0
  -21.6843   -6.0705   22.5267 C   0  0  0  0  0  0
  -21.4006   -6.5606   23.8210 C   0  0  0  0  0  0
  -21.3681   -5.6778   24.9196 C   0  0  0  0  0  0
  -21.6041   -4.3028   24.7267 C   0  0  0  0  0  0
  -21.8826   -3.8109   23.4395 C   0  0  0  0  0  0
  -21.9185   -4.6925   22.3415 C   0  0  0  0  0  0
  -22.7802  -13.5209   21.1959 C   0  0  0  0  0  0
  -22.1645   -4.2084   21.1003 F   0  0  0  0  0  0
  -21.5646   -3.4533   25.7787 F   0  0  0  0  0  0
  -30.0372  -13.3718   20.4499 N   0  0  0  0  0  0
  -26.2975  -12.9407   20.3508 N   0  0  0  0  0  0
  -25.9288  -11.6553   20.5911 N   0  0  0  0  0  0
  -22.0485  -12.8146   22.0508 N   0  0  0  0  0  0
  -25.4240  -15.1943   20.4002 N   0  0  0  0  0  0
  -31.8411  -14.7191   20.0911 O   0  0  0  0  0  0
  -21.6639   -6.8861   21.4233 O   0  0  0  0  0  0
  -22.3454  -14.5523   20.6844 O   0  0  0  0  0  0
  -24.6138  -31.8678   23.2150 C   0  0  0  0  0  0
  -25.8995  -32.4846   23.8448 C   0  0  1  0  0  0
  -27.2353  -27.3924   20.1236 C   0  0  0  0  0  0
  -25.5804  -33.8647   24.2340 N   0  0  0  0  0  0
  -23.4112  -30.4862   21.5592 C   0  0  2  0  0  0
  -24.8623  -28.9757   20.1044 C   0  0  0  0  0  0
  -22.7488  -29.4566   22.5052 C   0  0  0  0  0  0
  -18.0307  -28.1288   22.8481 C   0  0  0  0  0  0
  -24.1466  -36.7375   23.2665 C   0  0  0  0  0  0
  -25.9445  -30.8279   21.3736 C   0  0  0  0  0  0
  -26.0305  -29.4642   20.7081 C   0  0  0  0  0  0
  -27.2180  -28.6896   20.7048 C   0  0  0  0  0  0
  -26.0487  -26.9518   19.4818 C   0  0  0  0  0  0
  -24.8739  -27.7228   19.4796 C   0  0  0  0  0  0
  -23.6223  -29.8397   20.1679 C   0  0  0  0  0  0
  -25.4077  -36.3165   24.0353 C   0  0  1  0  0  0
  -20.5886  -28.3584   23.1330 C   0  0  2  0  0  0
  -20.6789  -26.9314   22.5439 C   0  0  0  0  0  0
  -19.5796  -26.6339   21.5191 C   0  0  0  0  0  0
  -18.1953  -26.7842   22.1602 C   0  0  0  0  0  0
  -19.1551  -28.8748   23.2871 C   0  0  0  0  0  0
  -18.9504  -30.1337   23.8896 C   0  0  0  0  0  0
  -17.6520  -30.6516   24.0516 C   0  0  0  0  0  0
  -25.9000  -34.9519   23.5193 C   0  0  0  0  0  0
  -16.5396  -29.9025   23.6303 C   0  0  0  0  0  0
  -16.7302  -28.6410   23.0343 C   0  0  0  0  0  0
  -26.4411  -31.6642   25.0784 C   0  0  0  0  0  0
  -25.3682  -31.3679   26.1537 C   0  0  0  0  0  0
  -27.0309  -30.3143   24.6087 C   0  0  0  0  0  0
  -27.5955  -32.4380   25.7568 C   0  0  0  0  0  0
  -27.5598  -37.1819   24.8472 C   0  0  0  0  0  0
  -21.4228  -29.2951   22.3774 N   0  0  0  0  0  0
  -26.4326  -37.3814   23.9385 N   0  0  0  0  0  0
  -24.6760  -31.0693   22.1083 N   0  0  0  0  0  0
  -23.4254  -28.8041   23.3070 O   0  0  0  0  0  0
  -28.3532  -26.5639   20.2418 O   0  0  0  0  0  0
  -26.5651  -34.8982   22.4823 O   0  0  0  0  0  0
  -23.5308  -32.1457   23.7471 O   0  0  0  0  0  0
  -31.1614  -22.8447   20.9301 C   0  0  0  0  0  0
  -30.5387  -24.2606   20.8981 C   0  0  0  0  0  0
  -30.0186  -21.8624   20.5911 C   0  0  2  0  0  0
  -29.0398  -23.9991   20.7473 C   0  0  1  0  0  0
  -28.2108  -21.5225   17.1647 C   0  0  0  0  0  0
  -25.8972  -22.4046   17.9261 C   0  0  0  0  0  0
  -30.4444  -20.5501   19.8109 C   0  0  0  0  0  0
  -28.0415  -25.1383   20.2754 C   0  0  0  0  0  0
  -27.7633  -22.2110   19.6084 C   0  0  0  0  0  0
  -30.5822  -16.9543   21.4229 C   0  0  0  0  0  0
  -30.4410  -18.0091   20.2684 C   0  0  0  0  0  0
  -27.4269  -22.4511   18.1153 C   0  0  0  0  0  0
  -29.0811  -22.7782   19.9025 N   0  0  0  0  0  0
  -30.0739  -15.5750   21.1703 N   0  0  0  0  0  0
  -30.8157  -19.3987   20.7012 N   0  3  0  0  0  0
  -31.4702  -12.4763   19.1317 H   0  0  0  0  0  0
  -30.3582  -11.3665   19.8824 H   0  0  0  0  0  0
  -29.7438  -11.7557   17.4801 H   0  0  0  0  0  0
  -29.6302  -13.4796   17.7618 H   0  0  0  0  0  0
  -27.8747  -11.2884   18.9143 H   0  0  0  0  0  0
  -27.3531  -12.5557   17.8303 H   0  0  0  0  0  0
  -27.6858  -14.2569   19.5508 H   0  0  0  0  0  0
  -28.7077  -12.0513   21.4169 H   0  0  0  0  0  0
  -28.4656  -13.7144   21.8587 H   0  0  0  0  0  0
  -25.2698   -9.5703   22.4826 H   0  0  0  0  0  0
  -23.9973   -7.4640   22.7446 H   0  0  0  0  0  0
  -21.0845   -8.8775   19.8934 H   0  0  0  0  0  0
  -22.3660  -10.9700   19.6206 H   0  0  0  0  0  0
  -21.1993   -7.6121   23.9711 H   0  0  0  0  0  0
  -21.1491   -6.0512   25.9106 H   0  0  0  0  0  0
  -22.0587   -2.7558   23.2936 H   0  0  0  0  0  0
  -22.4077  -11.9735   22.4783 H   0  0  0  0  0  0
  -21.1093  -13.1153   22.2832 H   0  0  0  0  0  0
  -24.6572  -15.8574   20.4664 H   0  0  0  0  0  0
  -26.2777  -15.6119   20.0479 H   0  0  0  0  0  0
  -26.7057  -32.5646   23.1201 H   0  0  0  0  0  0
  -24.9649  -33.9726   25.0254 H   0  0  0  0  0  0
  -22.7015  -31.3078   21.4309 H   0  0  0  0  0  0
  -23.3726  -35.9726   23.3333 H   0  0  0  0  0  0
  -24.3525  -36.8984   22.2087 H   0  0  0  0  0  0
  -23.7195  -37.6551   23.6705 H   0  0  0  0  0  0
  -26.0633  -31.6069   20.6177 H   0  0  0  0  0  0
  -26.8279  -30.8749   21.9994 H   0  0  0  0  0  0
  -28.1101  -29.0565   21.1942 H   0  0  0  0  0  0
  -25.9750  -25.9970   18.9833 H   0  0  0  0  0  0
  -23.9842  -27.3399   18.9936 H   0  0  0  0  0  0
  -23.7168  -30.6356   19.4270 H   0  0  0  0  0  0
  -22.7433  -29.2581   19.8723 H   0  0  0  0  0  0
  -25.1200  -36.2142   25.0836 H   0  0  0  0  0  0
  -20.9897  -28.3209   24.1478 H   0  0  0  0  0  0
  -20.5650  -26.2197   23.3628 H   0  0  0  0  0  0
  -21.6659  -26.7340   22.1221 H   0  0  0  0  0  0
  -19.6961  -25.6257   21.1189 H   0  0  0  0  0  0
  -19.6744  -27.3187   20.6750 H   0  0  0  0  0  0
  -17.4212  -26.6556   21.4008 H   0  0  0  0  0  0
  -18.0297  -25.9927   22.8955 H   0  0  0  0  0  0
  -19.7992  -30.7043   24.2324 H   0  0  0  0  0  0
  -17.5133  -31.6212   24.5107 H   0  0  0  0  0  0
  -15.5389  -30.2948   23.7613 H   0  0  0  0  0  0
  -15.8691  -28.0747   22.7096 H   0  0  0  0  0  0
  -24.5917  -30.6915   25.7889 H   0  0  0  0  0  0
  -24.8737  -32.2773   26.5003 H   0  0  0  0  0  0
  -25.8050  -30.8913   27.0336 H   0  0  0  0  0  0
  -26.2877  -29.6838   24.1158 H   0  0  0  0  0  0
  -27.4175  -29.7383   25.4494 H   0  0  0  0  0  0
  -27.8649  -30.4469   23.9178 H   0  0  0  0  0  0
  -27.2539  -33.3679   26.2138 H   0  0  0  0  0  0
  -28.3782  -32.6950   25.0414 H   0  0  0  0  0  0
  -28.0629  -31.8545   26.5492 H   0  0  0  0  0  0
  -28.2624  -38.0138   24.7535 H   0  0  0  0  0  0
  -28.1114  -36.2643   24.6300 H   0  0  0  0  0  0
  -27.2331  -37.1442   25.8900 H   0  0  0  0  0  0
  -20.9461  -29.8790   21.7047 H   0  0  0  0  0  0
  -26.0289  -38.2940   24.1372 H   0  0  0  0  0  0
  -31.5871  -22.6165   21.9095 H   0  0  0  0  0  0
  -31.9774  -22.7700   20.2097 H   0  0  0  0  0  0
  -30.9233  -24.8282   20.0491 H   0  0  0  0  0  0
  -30.7619  -24.8220   21.8071 H   0  0  0  0  0  0
  -29.5288  -21.5620   21.5200 H   0  0  0  0  0  0
  -28.6987  -23.6900   21.7407 H   0  0  0  0  0  0
  -27.9292  -21.6662   16.1219 H   0  0  0  0  0  0
  -28.0733  -20.4684   17.3988 H   0  0  0  0  0  0
  -29.2843  -21.7354   17.2118 H   0  0  0  0  0  0
  -25.6122  -22.5785   16.8875 H   0  0  0  0  0  0
  -25.4288  -23.1946   18.5241 H   0  0  0  0  0  0
  -25.4607  -21.4527   18.2428 H   0  0  0  0  0  0
  -31.2671  -20.7624   19.1221 H   0  0  0  0  0  0
  -29.6209  -20.2230   19.1755 H   0  0  0  0  0  0
  -27.1867  -25.0326   20.9570 H   0  0  0  0  0  0
  -27.6792  -24.8921   19.2859 H   0  0  0  0  0  0
  -27.7053  -21.1442   19.8354 H   0  0  0  0  0  0
  -27.0090  -22.6699   20.2517 H   0  0  0  0  0  0
  -30.0518  -17.3322   22.3020 H   0  0  0  0  0  0
  -31.6332  -16.9012   21.7160 H   0  0  0  0  0  0
  -29.4134  -18.0087   19.8951 H   0  0  0  0  0  0
  -31.0824  -17.7271   19.4306 H   0  0  0  0  0  0
  -27.7371  -23.4506   17.8079 H   0  0  0  0  0  0
  -29.1804  -15.3416   21.5823 H   0  0  0  0  0  0
  -30.3942  -19.5523   21.6000 H   0  0  0  0  0  0
  -31.8149  -19.4249   20.8334 H   0  0  0  0  0  0
  1 25  1  0  0  0
  1 30  2  0  0  0
  1 84  1  0  0  0
  2  3  1  0  0  0
  2 25  1  0  0  0
  2 86  1  0  0  0
  2 87  1  0  0  0
  3  4  1  0  0  0
  3 88  1  0  0  0
  3 89  1  0  0  0
  4  5  1  0  0  0
  4 90  1  0  0  0
  4 91  1  0  0  0
  5  6  1  0  0  0
  5 26  1  0  0  0
  5 92  1  0  0  0
  6 25  1  0  0  0
  6 93  1  0  0  0
  6 94  1  0  0  0
  7  8  2  0  0  0
  7 26  1  0  0  0
  7 29  1  0  0  0
  8  9  1  0  0  0
  8 22  1  0  0  0
  9 10  1  0  0  0
  9 27  2  0  0  0
 10 11  2  0  0  0
 10 15  1  0  0  0
 11 12  1  0  0  0
 11 95  1  0  0  0
 12 13  2  0  0  0
 12 96  1  0  0  0
 13 14  1  0  0  0
 13 31  1  0  0  0
 14 15  2  0  0  0
 14 97  1  0  0  0
 15 98  1  0  0  0
 16 17  2  0  0  0
 16 21  1  0  0  0
 16 31  1  0  0  0
 17 18  1  0  0  0
 17 99  1  0  0  0
 18 19  2  0  0  0
 18100  1  0  0  0
 19 20  1  0  0  0
 19 24  1  0  0  0
 20 21  2  0  0  0
 20101  1  0  0  0
 21 23  1  0  0  0
 22 28  1  0  0  0
 22 32  2  0  0  0
 26 27  1  0  0  0
 28102  1  0  0  0
 28103  1  0  0  0
 29104  1  0  0  0
 29105  1  0  0  0
 33 34  1  0  0  0
 33 66  1  0  0  0
 33 70  2  0  0  0
 34 36  1  0  0  0
 34 59  1  0  0  0
 34106  1  0  0  0
 35 44  2  0  0  0
 35 45  1  0  0  0
 35 68  1  0  0  0
 36 56  1  0  0  0
 36107  1  0  0  0
 37 39  1  0  0  0
 37 47  1  0  0  0
 37 66  1  0  0  0
 37108  1  0  0  0
 38 43  2  0  0  0
 38 46  1  0  0  0
 38 47  1  0  0  0
 39 64  1  0  0  0
 39 67  2  0  0  0
 40 52  1  0  0  0
 40 53  2  0  0  0
 40 58  1  0  0  0
 41109  1  0  0  0
 41110  1  0  0  0
 41111  1  0  0  0
 41 48  1  0  0  0
 42 43  1  0  0  0
 42 66  1  0  0  0
 42112  1  0  0  0
 42113  1  0  0  0
 43 44  1  0  0  0
 44114  1  0  0  0
 45 46  2  0  0  0
 45115  1  0  0  0
 46116  1  0  0  0
 47117  1  0  0  0
 47118  1  0  0  0
 48 56  1  0  0  0
 48 65  1  0  0  0
 48119  1  0  0  0
 49 50  1  0  0  0
 49 53  1  0  0  0
 49 64  1  0  0  0
 49120  1  0  0  0
 50 51  1  0  0  0
 50121  1  0  0  0
 50122  1  0  0  0
 51 52  1  0  0  0
 51123  1  0  0  0
 51124  1  0  0  0
 52125  1  0  0  0
 52126  1  0  0  0
 53 54  1  0  0  0
 54 55  2  0  0  0
 54127  1  0  0  0
 55 57  1  0  0  0
 55128  1  0  0  0
 56 69  2  0  0  0
 57 58  2  0  0  0
 57129  1  0  0  0
 58130  1  0  0  0
 59 60  1  0  0  0
 59 61  1  0  0  0
 59 62  1  0  0  0
 60131  1  0  0  0
 60132  1  0  0  0
 60133  1  0  0  0
 61134  1  0  0  0
 61135  1  0  0  0
 61136  1  0  0  0
 62137  1  0  0  0
 62138  1  0  0  0
 62139  1  0  0  0
 63 65  1  0  0  0
 63140  1  0  0  0
 63141  1  0  0  0
 63142  1  0  0  0
 64143  1  0  0  0
 65144  1  0  0  0
 68 78  1  0  0  0
 71 72  1  0  0  0
 71 73  1  0  0  0
 71145  1  0  0  0
 71146  1  0  0  0
 72 74  1  0  0  0
 72147  1  0  0  0
 72148  1  0  0  0
 73 77  1  0  0  0
 73 83  1  0  0  0
 73149  1  0  0  0
 74 78  1  0  0  0
 74 83  1  0  0  0
 74150  1  0  0  0
 75151  1  0  0  0
 75152  1  0  0  0
 75153  1  0  0  0
 75 82  1  0  0  0
 76 82  1  0  0  0
 76154  1  0  0  0
 76155  1  0  0  0
 76156  1  0  0  0
 77 85  1  0  0  0
 77157  1  0  0  0
 77158  1  0  0  0
 78159  1  0  0  0
 78160  1  0  0  0
 79 82  1  0  0  0
 79 83  1  0  0  0
 79161  1  0  0  0
 79162  1  0  0  0
 80 81  1  0  0  0
 80 84  1  0  0  0
 80163  1  0  0  0
 80164  1  0  0  0
 81 85  1  0  0  0
 81165  1  0  0  0
 81166  1  0  0  0
 82167  1  0  0  0
 84168  1  0  0  0
 85169  1  0  0  0
 85170  1  0  0  0
M  CHG  1  85   1
M  ISO  4   1 100  68 101  78 101  84 100
M  END
> <chiral flag>
0

> <version>
0

> <s_m_source_file>
/data/baiqing/PycharmProjects/Reinvent-master-3.2/result/LINK_invent/BTK/process_docking_weight1_custom_sum_contain_oxygen_bond_distance_aromatic_linkinvent_7_9_3/rearranged_h_0131.sdf

> <i_m_source_file_index>
56

> <r_mmod_Potential_Energy-OPLS-2005>
-92.4881134033203

> <r_mmod_Stretch_Energy-OPLS-2005>
58.8174591064453

> <r_mmod_Bend_Energy-OPLS-2005>
168.855575561523

> <r_mmod_Torsional_Energy-OPLS-2005>
306.255523681641

> <r_mmod_Improper_Torsional_Energy-OPLS-2005>
3.09713912010193

> <r_mmod_Van_der_Waal_Energy-OPLS-2005>
137.949523925781

> <r_mmod_Electrostatic_Energy-OPLS-2005>
-323.107086181641

> <r_mmod_Solvation_Energy-OPLS-2005>
-473.827331542969

> <b_mmod_Minimization_Converged-OPLS-2005>
0

> <r_mmod_RMS_Derivative-OPLS-2005>
7.8869571685791

$$$$
56
                    3D
 Structure written by MMmdl.
147155  0  0  1  0            999 V2000
  -30.4199  -15.1785   20.4077 C   0  0  0  0  0  0
  -30.4434  -12.7436   19.5359 C   0  0  0  0  0  0
  -29.5361  -12.5807   18.2885 C   0  0  0  0  0  0
  -28.0756  -12.3212   18.6994 C   0  0  0  0  0  0
  -27.6183  -13.2694   19.8376 C   0  0  2  0  0  0
  -28.6491  -13.3686   20.9817 C   0  0  0  0  0  0
  -25.2398  -13.8251   20.5735 C   0  0  0  0  0  0
  -24.1742  -13.0447   20.9244 C   0  0  0  0  0  0
  -24.6393  -11.6938   20.8752 C   0  0  0  0  0  0
  -23.9093  -10.4302   21.0411 C   0  0  0  0  0  0
  -24.3638   -9.4215   21.9178 C   0  0  0  0  0  0
  -23.6314   -8.2250   22.0747 C   0  0  0  0  0  0
  -22.4291   -8.0289   21.3545 C   0  0  0  0  0  0
  -21.9935   -9.0272   20.4646 C   0  0  0  0  0  0
  -22.7267  -10.2147   20.3058 C   0  0  0  0  0  0
  -21.6856   -6.0747   22.5280 C   0  0  0  0  0  0
  -21.4015   -6.5644   23.8214 C   0  0  0  0  0  0
  -21.3661   -5.6794   24.9171 C   0  0  0  0  0  0
  -21.6039   -4.3058   24.7224 C   0  0  0  0  0  0
  -21.8813   -3.8150   23.4345 C   0  0  0  0  0  0
  -21.9193   -4.6969   22.3401 C   0  0  0  0  0  0
  -22.7759  -13.5193   21.1916 C   0  0  0  0  0  0
  -22.1662   -4.2155   21.0985 F   0  0  0  0  0  0
  -21.5633   -3.4541   25.7739 F   0  0  0  0  0  0
  -29.9007  -13.8606   20.3858 N   0  0  0  0  0  0
  -26.2826  -12.9509   20.3243 N   0  0  0  0  0  0
  -25.9327  -11.6621   20.5714 N   0  0  0  0  0  0
  -22.0442  -12.8163   22.0481 N   0  0  0  0  0  0
  -25.4065  -15.1986   20.4180 N   0  0  0  0  0  0
  -31.6195  -15.2546   20.1039 O   0  0  0  0  0  0
  -21.6645   -6.8893   21.4244 O   0  0  0  0  0  0
  -22.3433  -14.5506   20.6779 O   0  0  0  0  0  0
  -24.6577  -31.8292   23.1741 C   0  0  0  0  0  0
  -25.9272  -32.4616   23.8213 C   0  0  1  0  0  0
  -27.2156  -26.9802   20.1894 C   0  0  0  0  0  0
  -25.5943  -33.8437   24.2122 N   0  0  0  0  0  0
  -23.4723  -30.4436   21.5204 C   0  0  2  0  0  0
  -24.9261  -28.8409   20.1091 C   0  0  0  0  0  0
  -22.7641  -29.4482   22.4765 C   0  0  0  0  0  0
  -18.0337  -28.1353   22.8534 C   0  0  0  0  0  0
  -24.1490  -36.7222   23.2652 C   0  0  0  0  0  0
  -26.0372  -30.6537   21.3993 C   0  0  0  0  0  0
  -26.1055  -29.2485   20.7451 C   0  0  0  0  0  0
  -27.2468  -28.3367   20.7623 C   0  0  0  0  0  0
  -26.0136  -26.7108   19.4999 C   0  0  0  0  0  0
  -24.9029  -27.5926   19.4648 C   0  0  0  0  0  0
  -23.7123  -29.7661   20.1432 C   0  0  0  0  0  0
  -25.4128  -36.2998   24.0319 C   0  0  1  0  0  0
  -20.5951  -28.3754   23.1160 C   0  0  2  0  0  0
  -20.6836  -26.9471   22.5281 C   0  0  0  0  0  0
  -19.5714  -26.6366   21.5196 C   0  0  0  0  0  0
  -18.1980  -26.7843   22.1789 C   0  0  0  0  0  0
  -19.1590  -28.8895   23.2811 C   0  0  0  0  0  0
  -18.9494  -30.1508   23.8787 C   0  0  0  0  0  0
  -17.6489  -30.6615   24.0459 C   0  0  0  0  0  0
  -25.9082  -34.9368   23.5047 C   0  0  0  0  0  0
  -16.5377  -29.9067   23.6299 C   0  0  0  0  0  0
  -16.7308  -28.6436   23.0417 C   0  0  0  0  0  0
  -26.4548  -31.6536   25.0708 C   0  0  0  0  0  0
  -25.3699  -31.3755   26.1372 C   0  0  0  0  0  0
  -27.0436  -30.2919   24.6397 C   0  0  0  0  0  0
  -27.6056  -32.4326   25.7501 C   0  0  0  0  0  0
  -27.5575  -37.1775   24.8477 C   0  0  0  0  0  0
  -21.4311  -29.3114   22.3557 N   0  0  0  0  0  0
  -26.4285  -37.3721   23.9410 N   0  0  0  0  0  0
  -24.7432  -31.0015   22.0853 N   0  0  0  0  0  0
  -23.4211  -28.7982   23.2937 O   0  0  0  0  0  0
  -28.2297  -25.9091   20.2855 O   0  0  0  0  0  0
  -26.5698  -34.8894   22.4640 O   0  0  0  0  0  0
  -23.5656  -32.1229   23.6866 O   0  0  0  0  0  0
  -30.0405  -20.3927   19.7329 C   0  0  0  0  0  0
  -28.2858  -20.2223   21.2111 C   0  0  0  0  0  0
  -30.2556  -18.9213   19.7784 C   0  0  0  0  0  0
  -28.4911  -18.7521   21.2474 C   0  0  0  0  0  0
  -29.0404  -21.1948   20.4368 C   0  0  0  0  0  0
  -29.4970  -17.9531   20.5530 C   0  0  0  0  0  0
  -29.0415  -22.9312   20.5599 C   0  0  0  0  0  0
  -27.9942  -24.3010   20.1489 C   0  0  0  0  0  0
  -29.5703  -16.3507   20.6420 N   0  0  0  0  0  0
  -31.4677  -12.9427   19.2166 H   0  0  0  0  0  0
  -30.4922  -11.8132   20.1030 H   0  0  0  0  0  0
  -29.8993  -11.7719   17.6550 H   0  0  0  0  0  0
  -29.5855  -13.4889   17.6849 H   0  0  0  0  0  0
  -28.0020  -11.2856   19.0331 H   0  0  0  0  0  0
  -27.4168  -12.4120   17.8353 H   0  0  0  0  0  0
  -27.5552  -14.2570   19.3783 H   0  0  0  0  0  0
  -28.7834  -12.4042   21.4725 H   0  0  0  0  0  0
  -28.2980  -14.0594   21.7504 H   0  0  0  0  0  0
  -25.2785   -9.5675   22.4752 H   0  0  0  0  0  0
  -24.0022   -7.4631   22.7451 H   0  0  0  0  0  0
  -21.0874   -8.8790   19.8948 H   0  0  0  0  0  0
  -22.3731  -10.9684   19.6165 H   0  0  0  0  0  0
  -21.2004   -7.6150   23.9716 H   0  0  0  0  0  0
  -21.1490   -6.0530   25.9075 H   0  0  0  0  0  0
  -22.0591   -2.7617   23.2846 H   0  0  0  0  0  0
  -22.4099  -11.9825   22.4840 H   0  0  0  0  0  0
  -21.1061  -13.1149   22.2726 H   0  0  0  0  0  0
  -24.6370  -15.8508   20.5231 H   0  0  0  0  0  0
  -26.2500  -15.6372   20.0746 H   0  0  0  0  0  0
  -26.7333  -32.5197   23.0929 H   0  0  0  0  0  0
  -25.0036  -33.9524   25.0241 H   0  0  0  0  0  0
  -22.7860  -31.2764   21.3532 H   0  0  0  0  0  0
  -23.3768  -35.9540   23.3304 H   0  0  0  0  0  0
  -24.3563  -36.8864   22.2066 H   0  0  0  0  0  0
  -23.7229  -37.6408   23.6699 H   0  0  0  0  0  0
  -26.2124  -31.3977   20.6219 H   0  0  0  0  0  0
  -26.8992  -30.7092   22.0515 H   0  0  0  0  0  0
  -28.1398  -28.6440   21.2902 H   0  0  0  0  0  0
  -25.9044  -25.7572   19.0039 H   0  0  0  0  0  0
  -24.0074  -27.2838   18.9412 H   0  0  0  0  0  0
  -23.8760  -30.5395   19.3916 H   0  0  0  0  0  0
  -22.8224  -29.2248   19.8171 H   0  0  0  0  0  0
  -25.1316  -36.1821   25.0814 H   0  0  0  0  0  0
  -21.0055  -28.3306   24.1266 H   0  0  0  0  0  0
  -20.5885  -26.2365   23.3497 H   0  0  0  0  0  0
  -21.6658  -26.7513   22.0941 H   0  0  0  0  0  0
  -19.6884  -25.6277   21.1232 H   0  0  0  0  0  0
  -19.6496  -27.3175   20.6705 H   0  0  0  0  0  0
  -17.4132  -26.6403   21.4344 H   0  0  0  0  0  0
  -18.0613  -26.0055   22.9317 H   0  0  0  0  0  0
  -19.7980  -30.7371   24.2072 H   0  0  0  0  0  0
  -17.5033  -31.6342   24.4949 H   0  0  0  0  0  0
  -15.5372  -30.2968   23.7612 H   0  0  0  0  0  0
  -15.8706  -28.0693   22.7248 H   0  0  0  0  0  0
  -24.5888  -30.7090   25.7689 H   0  0  0  0  0  0
  -24.8860  -32.2931   26.4734 H   0  0  0  0  0  0
  -25.7935  -30.8964   27.0211 H   0  0  0  0  0  0
  -26.3083  -29.6604   24.1385 H   0  0  0  0  0  0
  -27.3985  -29.7261   25.5027 H   0  0  0  0  0  0
  -27.9023  -30.4130   23.9782 H   0  0  0  0  0  0
  -27.2645  -33.3663   26.2005 H   0  0  0  0  0  0
  -28.3906  -32.6842   25.0348 H   0  0  0  0  0  0
  -28.0700  -31.8506   26.5480 H   0  0  0  0  0  0
  -28.2590  -38.0071   24.7496 H   0  0  0  0  0  0
  -28.1063  -36.2594   24.6329 H   0  0  0  0  0  0
  -27.2283  -37.1454   25.8877 H   0  0  0  0  0  0
  -20.9532  -29.8939   21.6821 H   0  0  0  0  0  0
  -26.0147  -38.2790   24.1409 H   0  0  0  0  0  0
  -30.7419  -20.9456   19.1256 H   0  0  0  0  0  0
  -27.5153  -20.6130   21.8621 H   0  0  0  0  0  0
  -31.0611  -18.5335   19.1705 H   0  0  0  0  0  0
  -27.8148  -18.2083   21.8916 H   0  0  0  0  0  0
  -29.9867  -23.1912   20.0848 H   0  0  0  0  0  0
  -29.2406  -23.0836   21.6200 H   0  0  0  0  0  0
  -27.0590  -24.1235   20.6812 H   0  0  0  0  0  0
  -27.7400  -24.1585   19.0980 H   0  0  0  0  0  0
  -28.6928  -15.9915   20.9849 H   0  0  0  0  0  0
  1 25  1  0  0  0
  1 30  2  0  0  0
  1 79  1  0  0  0
  2  3  1  0  0  0
  2 25  1  0  0  0
  2 80  1  0  0  0
  2 81  1  0  0  0
  3  4  1  0  0  0
  3 82  1  0  0  0
  3 83  1  0  0  0
  4  5  1  0  0  0
  4 84  1  0  0  0
  4 85  1  0  0  0
  5  6  1  0  0  0
  5 26  1  0  0  0
  5 86  1  0  0  0
  6 25  1  0  0  0
  6 87  1  0  0  0
  6 88  1  0  0  0
  7  8  2  0  0  0
  7 26  1  0  0  0
  7 29  1  0  0  0
  8  9  1  0  0  0
  8 22  1  0  0  0
  9 10  1  0  0  0
  9 27  2  0  0  0
 10 11  2  0  0  0
 10 15  1  0  0  0
 11 12  1  0  0  0
 11 89  1  0  0  0
 12 13  2  0  0  0
 12 90  1  0  0  0
 13 14  1  0  0  0
 13 31  1  0  0  0
 14 15  2  0  0  0
 14 91  1  0  0  0
 15 92  1  0  0  0
 16 17  2  0  0  0
 16 21  1  0  0  0
 16 31  1  0  0  0
 17 18  1  0  0  0
 17 93  1  0  0  0
 18 19  2  0  0  0
 18 94  1  0  0  0
 19 20  1  0  0  0
 19 24  1  0  0  0
 20 21  2  0  0  0
 20 95  1  0  0  0
 21 23  1  0  0  0
 22 28  1  0  0  0
 22 32  2  0  0  0
 26 27  1  0  0  0
 28 96  1  0  0  0
 28 97  1  0  0  0
 29 98  1  0  0  0
 29 99  1  0  0  0
 33 34  1  0  0  0
 33 66  1  0  0  0
 33 70  2  0  0  0
 34 36  1  0  0  0
 34 59  1  0  0  0
 34100  1  0  0  0
 35 44  2  0  0  0
 35 45  1  0  0  0
 35 68  1  0  0  0
 36 56  1  0  0  0
 36101  1  0  0  0
 37 39  1  0  0  0
 37 47  1  0  0  0
 37 66  1  0  0  0
 37102  1  0  0  0
 38 43  2  0  0  0
 38 46  1  0  0  0
 38 47  1  0  0  0
 39 64  1  0  0  0
 39 67  2  0  0  0
 40 52  1  0  0  0
 40 53  2  0  0  0
 40 58  1  0  0  0
 41103  1  0  0  0
 41104  1  0  0  0
 41105  1  0  0  0
 41 48  1  0  0  0
 42 43  1  0  0  0
 42 66  1  0  0  0
 42106  1  0  0  0
 42107  1  0  0  0
 43 44  1  0  0  0
 44108  1  0  0  0
 45 46  2  0  0  0
 45109  1  0  0  0
 46110  1  0  0  0
 47111  1  0  0  0
 47112  1  0  0  0
 48 56  1  0  0  0
 48 65  1  0  0  0
 48113  1  0  0  0
 49 50  1  0  0  0
 49 53  1  0  0  0
 49 64  1  0  0  0
 49114  1  0  0  0
 50 51  1  0  0  0
 50115  1  0  0  0
 50116  1  0  0  0
 51 52  1  0  0  0
 51117  1  0  0  0
 51118  1  0  0  0
 52119  1  0  0  0
 52120  1  0  0  0
 53 54  1  0  0  0
 54 55  2  0  0  0
 54121  1  0  0  0
 55 57  1  0  0  0
 55122  1  0  0  0
 56 69  2  0  0  0
 57 58  2  0  0  0
 57123  1  0  0  0
 58124  1  0  0  0
 59 60  1  0  0  0
 59 61  1  0  0  0
 59 62  1  0  0  0
 60125  1  0  0  0
 60126  1  0  0  0
 60127  1  0  0  0
 61128  1  0  0  0
 61129  1  0  0  0
 61130  1  0  0  0
 62131  1  0  0  0
 62132  1  0  0  0
 62133  1  0  0  0
 63 65  1  0  0  0
 63134  1  0  0  0
 63135  1  0  0  0
 63136  1  0  0  0
 64137  1  0  0  0
 65138  1  0  0  0
 68 78  1  0  0  0
 71 73  2  0  0  0
 71 75  1  0  0  0
 71139  1  0  0  0
 72 74  1  0  0  0
 72 75  2  0  0  0
 72140  1  0  0  0
 73 76  1  0  0  0
 73141  1  0  0  0
 74 76  2  0  0  0
 74142  1  0  0  0
 75 77  1  0  0  0
 76 79  1  0  0  0
 77 78  1  0  0  0
 77143  1  0  0  0
 77144  1  0  0  0
 78145  1  0  0  0
 78146  1  0  0  0
 79147  1  0  0  0
M  ISO  4   1 100  68 101  78 101  79 100
M  END
> <chiral flag>
0

> <version>
0

> <s_m_source_file>
/data/baiqing/PycharmProjects/Reinvent-master-3.2/result/LINK_invent/BTK/process_docking_weight1_custom_sum_contain_oxygen_bond_distance_aromatic_linkinvent_7_9_3/rearranged_h_0131.sdf

> <i_m_source_file_index>
57

> <r_mmod_Potential_Energy-OPLS-2005>
1025.51647949219

> <r_mmod_Stretch_Energy-OPLS-2005>
450.272552490234

> <r_mmod_Bend_Energy-OPLS-2005>
407.48046875

> <r_mmod_Torsional_Energy-OPLS-2005>
218.750228881836

> <r_mmod_Improper_Torsional_Energy-OPLS-2005>
5.29044628143311

> <r_mmod_Van_der_Waal_Energy-OPLS-2005>
127.384757995605

> <r_mmod_Electrostatic_Energy-OPLS-2005>
-353.050445556641

> <r_mmod_Solvation_Energy-OPLS-2005>
-210.476058959961

> <b_mmod_Minimization_Converged-OPLS-2005>
0

> <r_mmod_RMS_Derivative-OPLS-2005>
2.94189381599426

$$$$
57
                    3D
 Structure written by MMmdl.
163172  0  0  1  0            999 V2000
  -30.5902  -14.8201   20.4350 C   0  0  0  0  0  0
  -30.4389  -12.5037   19.4771 C   0  0  0  0  0  0
  -29.5151  -12.5135   18.2379 C   0  0  0  0  0  0
  -28.0425  -12.3282   18.6531 C   0  0  0  0  0  0
  -27.6381  -13.2384   19.8435 C   0  0  2  0  0  0
  -28.6853  -13.2085   20.9775 C   0  0  0  0  0  0
  -25.2502  -13.8212   20.5700 C   0  0  0  0  0  0
  -24.1803  -13.0448   20.9217 C   0  0  0  0  0  0
  -24.6402  -11.6927   20.8749 C   0  0  0  0  0  0
  -23.9078  -10.4300   21.0410 C   0  0  0  0  0  0
  -24.3627   -9.4213   21.9189 C   0  0  0  0  0  0
  -23.6296   -8.2248   22.0755 C   0  0  0  0  0  0
  -22.4277   -8.0290   21.3544 C   0  0  0  0  0  0
  -21.9914   -9.0267   20.4651 C   0  0  0  0  0  0
  -22.7248  -10.2144   20.3061 C   0  0  0  0  0  0
  -21.6858   -6.0736   22.5277 C   0  0  0  0  0  0
  -21.4019   -6.5638   23.8212 C   0  0  0  0  0  0
  -21.3656   -5.6792   24.9172 C   0  0  0  0  0  0
  -21.6046   -4.3054   24.7220 C   0  0  0  0  0  0
  -21.8821   -3.8144   23.4342 C   0  0  0  0  0  0
  -21.9192   -4.6963   22.3398 C   0  0  0  0  0  0
  -22.7822  -13.5227   21.1871 C   0  0  0  0  0  0
  -22.1664   -4.2151   21.0973 F   0  0  0  0  0  0
  -21.5622   -3.4536   25.7731 F   0  0  0  0  0  0
  -29.9765  -13.5812   20.3860 N   0  0  0  0  0  0
  -26.2928  -12.9428   20.3260 N   0  0  0  0  0  0
  -25.9335  -11.6567   20.5745 N   0  0  0  0  0  0
  -22.0457  -12.8223   22.0424 N   0  0  0  0  0  0
  -25.4177  -15.1938   20.4107 N   0  0  0  0  0  0
  -31.7914  -14.9045   20.1662 O   0  0  0  0  0  0
  -21.6643   -6.8885   21.4241 O   0  0  0  0  0  0
  -22.3512  -14.5527   20.6710 O   0  0  0  0  0  0
  -24.6398  -31.8511   23.1968 C   0  0  0  0  0  0
  -25.9194  -32.4730   23.8323 C   0  0  1  0  0  0
  -27.2047  -27.1878   20.1271 C   0  0  0  0  0  0
  -25.5962  -33.8535   24.2240 N   0  0  0  0  0  0
  -23.4394  -30.4770   21.5424 C   0  0  2  0  0  0
  -24.8846  -28.9254   20.1063 C   0  0  0  0  0  0
  -22.7551  -29.4583   22.4886 C   0  0  0  0  0  0
  -18.0308  -28.1385   22.8483 C   0  0  0  0  0  0
  -24.1493  -36.7269   23.2638 C   0  0  0  0  0  0
  -25.9949  -30.7384   21.3929 C   0  0  0  0  0  0
  -26.0629  -29.3581   20.7287 C   0  0  0  0  0  0
  -27.2237  -28.5020   20.7329 C   0  0  0  0  0  0
  -26.0042  -26.8679   19.4454 C   0  0  0  0  0  0
  -24.8651  -27.6903   19.4527 C   0  0  0  0  0  0
  -23.6606  -29.8206   20.1566 C   0  0  0  0  0  0
  -25.4122  -36.3057   24.0323 C   0  0  1  0  0  0
  -20.5917  -28.3708   23.1241 C   0  0  2  0  0  0
  -20.6792  -26.9416   22.5397 C   0  0  0  0  0  0
  -19.5759  -26.6374   21.5212 C   0  0  0  0  0  0
  -18.1945  -26.7925   22.1630 C   0  0  0  0  0  0
  -19.1564  -28.8865   23.2854 C   0  0  0  0  0  0
  -18.9481  -30.1463   23.8876 C   0  0  0  0  0  0
  -17.6477  -30.6583   24.0559 C   0  0  0  0  0  0
  -25.9071  -34.9428   23.5086 C   0  0  0  0  0  0
  -16.5368  -29.9077   23.6329 C   0  0  0  0  0  0
  -16.7292  -28.6492   23.0357 C   0  0  0  0  0  0
  -26.4521  -31.6575   25.0742 C   0  0  0  0  0  0
  -25.3712  -31.3756   26.1441 C   0  0  0  0  0  0
  -27.0371  -30.2971   24.6298 C   0  0  0  0  0  0
  -27.6063  -32.4325   25.7519 C   0  0  0  0  0  0
  -27.5583  -37.1793   24.8462 C   0  0  0  0  0  0
  -21.4250  -29.3051   22.3628 N   0  0  0  0  0  0
  -26.4292  -37.3764   23.9410 N   0  0  0  0  0  0
  -24.7107  -31.0411   22.0986 N   0  0  0  0  0  0
  -23.4218  -28.8117   23.3005 O   0  0  0  0  0  0
  -28.2364  -26.1907   20.2168 O   0  0  0  0  0  0
  -26.5644  -34.8913   22.4657 O   0  0  0  0  0  0
  -23.5525  -32.1370   23.7214 O   0  0  0  0  0  0
  -29.6903  -21.2257   19.3318 C   0  0  0  0  0  0
  -29.4190  -22.6460   19.2782 C   0  0  0  0  0  0
  -28.0934  -22.4506   21.2251 C   0  0  0  0  0  0
  -29.1373  -20.3212   20.3000 C   0  0  0  0  0  0
  -28.5674  -23.3294   20.2008 C   0  0  0  0  0  0
  -28.3482  -21.0241   21.2776 C   0  0  0  0  0  0
  -30.0315  -18.0762   19.0925 C   0  0  0  0  0  0
  -29.1507  -18.6981   20.1515 C   0  0  1  0  0  0
  -30.1621  -17.4509   20.4603 C   0  0  1  0  0  0
  -25.6360  -19.6049   20.9182 C   0  0  0  0  0  0
  -25.5259  -19.3378   23.4261 C   0  0  0  0  0  0
  -27.6616  -20.2367   22.3916 C   0  0  0  0  0  0
  -27.8423  -24.7484   19.8796 C   0  0  0  0  0  0
  -26.1209  -20.1566   22.2701 C   0  0  0  0  0  0
  -29.8001  -15.9710   20.5475 N   0  0  0  0  0  0
  -31.4763  -12.6429   19.1702 H   0  0  0  0  0  0
  -30.4033  -11.5370   19.9812 H   0  0  0  0  0  0
  -29.8081  -11.7276   17.5407 H   0  0  0  0  0  0
  -29.6294  -13.4571   17.7016 H   0  0  0  0  0  0
  -27.9083  -11.2808   18.9265 H   0  0  0  0  0  0
  -27.3867  -12.5054   17.8001 H   0  0  0  0  0  0
  -27.6189  -14.2533   19.4463 H   0  0  0  0  0  0
  -28.7392  -12.2185   21.4333 H   0  0  0  0  0  0
  -28.4107  -13.9002   21.7755 H   0  0  0  0  0  0
  -25.2770   -9.5684   22.4768 H   0  0  0  0  0  0
  -24.0001   -7.4638   22.7473 H   0  0  0  0  0  0
  -21.0842   -8.8791   19.8957 H   0  0  0  0  0  0
  -22.3708  -10.9686   19.6170 H   0  0  0  0  0  0
  -21.2021   -7.6150   23.9715 H   0  0  0  0  0  0
  -21.1474   -6.0520   25.9074 H   0  0  0  0  0  0
  -22.0601   -2.7606   23.2843 H   0  0  0  0  0  0
  -22.4064  -11.9894   22.4836 H   0  0  0  0  0  0
  -21.1074  -13.1265   22.2611 H   0  0  0  0  0  0
  -24.6477  -15.8444   20.5214 H   0  0  0  0  0  0
  -26.2546  -15.6315   20.0501 H   0  0  0  0  0  0
  -26.7264  -32.5345   23.1057 H   0  0  0  0  0  0
  -25.0094  -33.9657   25.0377 H   0  0  0  0  0  0
  -22.7395  -31.3028   21.3980 H   0  0  0  0  0  0
  -23.3767  -35.9588   23.3286 H   0  0  0  0  0  0
  -24.3584  -36.8908   22.2056 H   0  0  0  0  0  0
  -23.7233  -37.6460   23.6671 H   0  0  0  0  0  0
  -26.1513  -31.4992   20.6268 H   0  0  0  0  0  0
  -26.8655  -30.7793   22.0358 H   0  0  0  0  0  0
  -28.1146  -28.8218   21.2548 H   0  0  0  0  0  0
  -25.8843  -25.9408   18.9080 H   0  0  0  0  0  0
  -23.9687  -27.3586   18.9465 H   0  0  0  0  0  0
  -23.7931  -30.6010   19.4062 H   0  0  0  0  0  0
  -22.7756  -29.2623   19.8455 H   0  0  0  0  0  0
  -25.1305  -36.1901   25.0815 H   0  0  0  0  0  0
  -21.0008  -28.3290   24.1364 H   0  0  0  0  0  0
  -20.5689  -26.2324   23.3613 H   0  0  0  0  0  0
  -21.6661  -26.7425   22.1200 H   0  0  0  0  0  0
  -19.6920  -25.6281   21.1253 H   0  0  0  0  0  0
  -19.6688  -27.3175   20.6733 H   0  0  0  0  0  0
  -17.4214  -26.6675   21.4035 H   0  0  0  0  0  0
  -18.0339  -26.0064   22.9020 H   0  0  0  0  0  0
  -19.7956  -30.7288   24.2234 H   0  0  0  0  0  0
  -17.5029  -31.6262   24.5161 H   0  0  0  0  0  0
  -15.5368  -30.2973   23.7654 H   0  0  0  0  0  0
  -15.8695  -28.0796   22.7088 H   0  0  0  0  0  0
  -24.5890  -30.7106   25.7765 H   0  0  0  0  0  0
  -24.8904  -32.2935   26.4828 H   0  0  0  0  0  0
  -25.7998  -30.8951   27.0245 H   0  0  0  0  0  0
  -26.2978  -29.6710   24.1290 H   0  0  0  0  0  0
  -27.3974  -29.7253   25.4861 H   0  0  0  0  0  0
  -27.8895  -30.4214   23.9618 H   0  0  0  0  0  0
  -27.2665  -33.3637   26.2064 H   0  0  0  0  0  0
  -28.3886  -32.6864   25.0354 H   0  0  0  0  0  0
  -28.0712  -31.8469   26.5461 H   0  0  0  0  0  0
  -28.2591  -38.0101   24.7530 H   0  0  0  0  0  0
  -28.1092  -36.2635   24.6262 H   0  0  0  0  0  0
  -27.2302  -37.1411   25.8864 H   0  0  0  0  0  0
  -20.9450  -29.8783   21.6832 H   0  0  0  0  0  0
  -26.0166  -38.2837   24.1412 H   0  0  0  0  0  0
  -30.2769  -20.8118   18.5240 H   0  0  0  0  0  0
  -29.7993  -23.2002   18.4314 H   0  0  0  0  0  0
  -27.4069  -22.8653   21.9500 H   0  0  0  0  0  0
  -30.9085  -18.6219   18.7508 H   0  0  0  0  0  0
  -29.5227  -17.5120   18.3130 H   0  0  0  0  0  0
  -28.1063  -18.4050   20.0984 H   0  0  0  0  0  0
  -31.0455  -17.7278   21.0328 H   0  0  0  0  0  0
  -24.5478  -19.6298   20.8534 H   0  0  0  0  0  0
  -25.9442  -18.5692   20.7767 H   0  0  0  0  0  0
  -26.0193  -20.1896   20.0812 H   0  0  0  0  0  0
  -24.4366  -19.3149   23.3753 H   0  0  0  0  0  0
  -25.7988  -19.7624   24.3927 H   0  0  0  0  0  0
  -25.8790  -18.3056   23.4058 H   0  0  0  0  0  0
  -27.9203  -20.7142   23.3378 H   0  0  0  0  0  0
  -28.0798  -19.2324   22.4602 H   0  0  0  0  0  0
  -26.8546  -24.5921   20.3149 H   0  0  0  0  0  0
  -27.7008  -24.7285   18.7982 H   0  0  0  0  0  0
  -25.7290  -21.1709   22.3588 H   0  0  0  0  0  0
  -28.8242  -15.7823   20.7165 H   0  0  0  0  0  0
  1 25  1  0  0  0
  1 30  2  0  0  0
  1 85  1  0  0  0
  2  3  1  0  0  0
  2 25  1  0  0  0
  2 86  1  0  0  0
  2 87  1  0  0  0
  3  4  1  0  0  0
  3 88  1  0  0  0
  3 89  1  0  0  0
  4  5  1  0  0  0
  4 90  1  0  0  0
  4 91  1  0  0  0
  5  6  1  0  0  0
  5 26  1  0  0  0
  5 92  1  0  0  0
  6 25  1  0  0  0
  6 93  1  0  0  0
  6 94  1  0  0  0
  7  8  2  0  0  0
  7 26  1  0  0  0
  7 29  1  0  0  0
  8  9  1  0  0  0
  8 22  1  0  0  0
  9 10  1  0  0  0
  9 27  2  0  0  0
 10 11  2  0  0  0
 10 15  1  0  0  0
 11 12  1  0  0  0
 11 95  1  0  0  0
 12 13  2  0  0  0
 12 96  1  0  0  0
 13 14  1  0  0  0
 13 31  1  0  0  0
 14 15  2  0  0  0
 14 97  1  0  0  0
 15 98  1  0  0  0
 16 17  2  0  0  0
 16 21  1  0  0  0
 16 31  1  0  0  0
 17 18  1  0  0  0
 17 99  1  0  0  0
 18 19  2  0  0  0
 18100  1  0  0  0
 19 20  1  0  0  0
 19 24  1  0  0  0
 20 21  2  0  0  0
 20101  1  0  0  0
 21 23  1  0  0  0
 22 28  1  0  0  0
 22 32  2  0  0  0
 26 27  1  0  0  0
 28102  1  0  0  0
 28103  1  0  0  0
 29104  1  0  0  0
 29105  1  0  0  0
 33 34  1  0  0  0
 33 66  1  0  0  0
 33 70  2  0  0  0
 34 36  1  0  0  0
 34 59  1  0  0  0
 34106  1  0  0  0
 35 44  2  0  0  0
 35 45  1  0  0  0
 35 68  1  0  0  0
 36 56  1  0  0  0
 36107  1  0  0  0
 37 39  1  0  0  0
 37 47  1  0  0  0
 37 66  1  0  0  0
 37108  1  0  0  0
 38 43  2  0  0  0
 38 46  1  0  0  0
 38 47  1  0  0  0
 39 64  1  0  0  0
 39 67  2  0  0  0
 40 52  1  0  0  0
 40 53  2  0  0  0
 40 58  1  0  0  0
 41109  1  0  0  0
 41110  1  0  0  0
 41111  1  0  0  0
 41 48  1  0  0  0
 42 43  1  0  0  0
 42 66  1  0  0  0
 42112  1  0  0  0
 42113  1  0  0  0
 43 44  1  0  0  0
 44114  1  0  0  0
 45 46  2  0  0  0
 45115  1  0  0  0
 46116  1  0  0  0
 47117  1  0  0  0
 47118  1  0  0  0
 48 56  1  0  0  0
 48 65  1  0  0  0
 48119  1  0  0  0
 49 50  1  0  0  0
 49 53  1  0  0  0
 49 64  1  0  0  0
 49120  1  0  0  0
 50 51  1  0  0  0
 50121  1  0  0  0
 50122  1  0  0  0
 51 52  1  0  0  0
 51123  1  0  0  0
 51124  1  0  0  0
 52125  1  0  0  0
 52126  1  0  0  0
 53 54  1  0  0  0
 54 55  2  0  0  0
 54127  1  0  0  0
 55 57  1  0  0  0
 55128  1  0  0  0
 56 69  2  0  0  0
 57 58  2  0  0  0
 57129  1  0  0  0
 58130  1  0  0  0
 59 60  1  0  0  0
 59 61  1  0  0  0
 59 62  1  0  0  0
 60131  1  0  0  0
 60132  1  0  0  0
 60133  1  0  0  0
 61134  1  0  0  0
 61135  1  0  0  0
 61136  1  0  0  0
 62137  1  0  0  0
 62138  1  0  0  0
 62139  1  0  0  0
 63 65  1  0  0  0
 63140  1  0  0  0
 63141  1  0  0  0
 63142  1  0  0  0
 64143  1  0  0  0
 65144  1  0  0  0
 68 83  1  0  0  0
 71 72  2  0  0  0
 71 74  1  0  0  0
 71145  1  0  0  0
 72 75  1  0  0  0
 72146  1  0  0  0
 73 75  2  0  0  0
 73 76  1  0  0  0
 73147  1  0  0  0
 74 76  2  0  0  0
 74 78  1  0  0  0
 75 83  1  0  0  0
 76 82  1  0  0  0
 77 78  1  0  0  0
 77 79  1  0  0  0
 77148  1  0  0  0
 77149  1  0  0  0
 78 79  1  0  0  0
 78150  1  0  0  0
 79 85  1  0  0  0
 79151  1  0  0  0
 80152  1  0  0  0
 80153  1  0  0  0
 80154  1  0  0  0
 80 84  1  0  0  0
 81 84  1  0  0  0
 81155  1  0  0  0
 81156  1  0  0  0
 81157  1  0  0  0
 82 84  1  0  0  0
 82158  1  0  0  0
 82159  1  0  0  0
 83160  1  0  0  0
 83161  1  0  0  0
 84162  1  0  0  0
 85163  1  0  0  0
M  ISO  4   1 100  68 101  83 101  85 100
M  END
> <chiral flag>
0

> <version>
0

> <s_m_source_file>
/data/baiqing/PycharmProjects/Reinvent-master-3.2/result/LINK_invent/BTK/process_docking_weight1_custom_sum_contain_oxygen_bond_distance_aromatic_linkinvent_7_9_3/rearranged_h_0131.sdf

> <i_m_source_file_index>
58

> <r_mmod_Potential_Energy-OPLS-2005>
421.890869140625

> <r_mmod_Stretch_Energy-OPLS-2005>
175.864822387695

> <r_mmod_Bend_Energy-OPLS-2005>
220.463653564453

> <r_mmod_Torsional_Energy-OPLS-2005>
295.986389160156

> <r_mmod_Improper_Torsional_Energy-OPLS-2005>
11.6249179840088

> <r_mmod_Van_der_Waal_Energy-OPLS-2005>
138.872146606445

> <r_mmod_Electrostatic_Energy-OPLS-2005>
-353.02001953125

> <r_mmod_Solvation_Energy-OPLS-2005>
-204.631652832031

> <b_mmod_Minimization_Converged-OPLS-2005>
0

> <r_mmod_RMS_Derivative-OPLS-2005>
1.06978225708008

$$$$
58
                    3D
 Structure written by MMmdl.
154162  0  0  1  0            999 V2000
  -30.6355  -14.5956   20.5292 C   0  0  0  0  0  0
  -30.4390  -12.3719   19.4374 C   0  0  0  0  0  0
  -29.5046  -12.5123   18.2152 C   0  0  0  0  0  0
  -28.0266  -12.3555   18.6268 C   0  0  0  0  0  0
  -27.6577  -13.2115   19.8673 C   0  0  2  0  0  0
  -28.7031  -13.0352   20.9918 C   0  0  0  0  0  0
  -25.2587  -13.8169   20.5660 C   0  0  0  0  0  0
  -24.1844  -13.0438   20.9175 C   0  0  0  0  0  0
  -24.6408  -11.6910   20.8742 C   0  0  0  0  0  0
  -23.9078  -10.4293   21.0399 C   0  0  0  0  0  0
  -24.3633   -9.4207   21.9175 C   0  0  0  0  0  0
  -23.6304   -8.2246   22.0749 C   0  0  0  0  0  0
  -22.4287   -8.0287   21.3533 C   0  0  0  0  0  0
  -21.9920   -9.0267   20.4641 C   0  0  0  0  0  0
  -22.7255  -10.2145   20.3046 C   0  0  0  0  0  0
  -21.6857   -6.0745   22.5269 C   0  0  0  0  0  0
  -21.4021   -6.5642   23.8205 C   0  0  0  0  0  0
  -21.3662   -5.6793   24.9166 C   0  0  0  0  0  0
  -21.6056   -4.3057   24.7213 C   0  0  0  0  0  0
  -21.8823   -3.8146   23.4332 C   0  0  0  0  0  0
  -21.9196   -4.6969   22.3389 C   0  0  0  0  0  0
  -22.7867  -13.5235   21.1838 C   0  0  0  0  0  0
  -22.1660   -4.2147   21.0966 F   0  0  0  0  0  0
  -21.5632   -3.4535   25.7722 F   0  0  0  0  0  0
  -30.0215  -13.3770   20.4309 N   0  0  0  0  0  0
  -26.3016  -12.9338   20.3326 N   0  0  0  0  0  0
  -25.9335  -11.6502   20.5758 N   0  0  0  0  0  0
  -22.0510  -12.8231   22.0403 N   0  0  0  0  0  0
  -25.4310  -15.1886   20.4059 N   0  0  0  0  0  0
  -31.7893  -14.7858   20.1351 O   0  0  0  0  0  0
  -21.6648   -6.8889   21.4231 O   0  0  0  0  0  0
  -22.3541  -14.5530   20.6674 O   0  0  0  0  0  0
  -24.6233  -31.8612   23.2049 C   0  0  0  0  0  0
  -25.9095  -32.4789   23.8359 C   0  0  1  0  0  0
  -27.2344  -27.3552   20.1133 C   0  0  0  0  0  0
  -25.5920  -33.8586   24.2289 N   0  0  0  0  0  0
  -23.4155  -30.4860   21.5446 C   0  0  2  0  0  0
  -24.8636  -28.9446   20.1139 C   0  0  0  0  0  0
  -22.7459  -29.4640   22.4932 C   0  0  0  0  0  0
  -18.0285  -28.1386   22.8487 C   0  0  0  0  0  0
  -24.1486  -36.7299   23.2638 C   0  0  0  0  0  0
  -25.9529  -30.8065   21.3683 C   0  0  0  0  0  0
  -26.0302  -29.4358   20.7121 C   0  0  0  0  0  0
  -27.2188  -28.6537   20.7003 C   0  0  0  0  0  0
  -26.0413  -26.9044   19.5001 C   0  0  0  0  0  0
  -24.8693  -27.6832   19.5000 C   0  0  0  0  0  0
  -23.6292  -29.8191   20.1603 C   0  0  0  0  0  0
  -25.4112  -36.3091   24.0328 C   0  0  1  0  0  0
  -20.5886  -28.3687   23.1284 C   0  0  2  0  0  0
  -20.6771  -26.9410   22.5412 C   0  0  0  0  0  0
  -19.5750  -26.6386   21.5210 C   0  0  0  0  0  0
  -18.1931  -26.7929   22.1620 C   0  0  0  0  0  0
  -19.1538  -28.8852   23.2884 C   0  0  0  0  0  0
  -18.9457  -30.1448   23.8910 C   0  0  0  0  0  0
  -17.6462  -30.6589   24.0566 C   0  0  0  0  0  0
  -25.9046  -34.9458   23.5110 C   0  0  0  0  0  0
  -16.5353  -29.9093   23.6332 C   0  0  0  0  0  0
  -16.7270  -28.6508   23.0351 C   0  0  0  0  0  0
  -26.4494  -31.6594   25.0717 C   0  0  0  0  0  0
  -25.3733  -31.3723   26.1448 C   0  0  0  0  0  0
  -27.0326  -30.3025   24.6146 C   0  0  0  0  0  0
  -27.6051  -32.4318   25.7491 C   0  0  0  0  0  0
  -27.5582  -37.1811   24.8464 C   0  0  0  0  0  0
  -21.4179  -29.3045   22.3679 N   0  0  0  0  0  0
  -26.4295  -37.3785   23.9406 N   0  0  0  0  0  0
  -24.6821  -31.0676   22.0966 N   0  0  0  0  0  0
  -23.4200  -28.8171   23.2988 O   0  0  0  0  0  0
  -28.3759  -26.5477   20.1522 O   0  0  0  0  0  0
  -26.5607  -34.8922   22.4672 O   0  0  0  0  0  0
  -23.5410  -32.1369   23.7419 O   0  0  0  0  0  0
  -29.2897  -20.9207   17.6127 C   0  0  0  0  0  0
  -29.6350  -19.6283   18.0418 C   0  0  0  0  0  0
  -29.1710  -21.9713   18.5354 C   0  0  0  0  0  0
  -29.7346  -20.4161   20.3392 C   0  0  0  0  0  0
  -29.8679  -19.3326   19.4033 C   0  0  0  0  0  0
  -29.3940  -21.7523   19.9117 C   0  0  0  0  0  0
  -30.3155  -17.8556   19.6802 C   0  0  0  0  0  0
  -30.0021  -17.1052   21.0156 C   0  0  0  0  0  0
  -28.1926  -25.0892   20.1034 C   0  0  0  0  0  0
  -29.4608  -24.2034   20.4026 C   0  0  0  0  0  0
  -29.8241  -15.6178   20.9146 N   0  0  0  0  0  0
  -29.2594  -22.8093   20.8189 O   0  0  0  0  0  0
  -30.3710  -11.3690   19.8625 H   0  0  0  0  0  0
  -31.4798  -12.4988   19.1354 H   0  0  0  0  0  0
  -29.7604  -11.7713   17.4565 H   0  0  0  0  0  0
  -29.6519  -13.4887   17.7503 H   0  0  0  0  0  0
  -27.8516  -11.3002   18.8401 H   0  0  0  0  0  0
  -27.3753  -12.6073   17.7890 H   0  0  0  0  0  0
  -27.6862  -14.2518   19.5432 H   0  0  0  0  0  0
  -28.4542  -13.6480   21.8597 H   0  0  0  0  0  0
  -28.7069  -12.0061   21.3520 H   0  0  0  0  0  0
  -25.2785   -9.5689   22.4746 H   0  0  0  0  0  0
  -24.0020   -7.4641   22.7473 H   0  0  0  0  0  0
  -21.0851   -8.8804   19.8944 H   0  0  0  0  0  0
  -22.3723  -10.9697   19.6154 H   0  0  0  0  0  0
  -21.2015   -7.6146   23.9707 H   0  0  0  0  0  0
  -21.1478   -6.0516   25.9073 H   0  0  0  0  0  0
  -22.0600   -2.7605   23.2825 H   0  0  0  0  0  0
  -22.4135  -11.9903   22.4806 H   0  0  0  0  0  0
  -21.1114  -13.1240   22.2580 H   0  0  0  0  0  0
  -24.6666  -15.8461   20.5186 H   0  0  0  0  0  0
  -26.2797  -15.6254   20.0689 H   0  0  0  0  0  0
  -26.7163  -32.5475   23.1112 H   0  0  0  0  0  0
  -25.0084  -33.9727   25.0446 H   0  0  0  0  0  0
  -22.7081  -31.3058   21.4023 H   0  0  0  0  0  0
  -23.3746  -35.9636   23.3309 H   0  0  0  0  0  0
  -24.3583  -36.8909   22.2054 H   0  0  0  0  0  0
  -23.7242  -37.6507   23.6648 H   0  0  0  0  0  0
  -26.0806  -31.5720   20.6014 H   0  0  0  0  0  0
  -26.8347  -30.8555   21.9959 H   0  0  0  0  0  0
  -28.1157  -29.0327   21.1703 H   0  0  0  0  0  0
  -25.9860  -25.9410   19.0166 H   0  0  0  0  0  0
  -23.9742  -27.3030   19.0294 H   0  0  0  0  0  0
  -23.7467  -30.5931   19.4004 H   0  0  0  0  0  0
  -22.7505  -29.2454   19.8605 H   0  0  0  0  0  0
  -25.1298  -36.1949   25.0821 H   0  0  0  0  0  0
  -20.9983  -28.3261   24.1402 H   0  0  0  0  0  0
  -20.5669  -26.2295   23.3609 H   0  0  0  0  0  0
  -21.6639  -26.7439   22.1209 H   0  0  0  0  0  0
  -19.6912  -25.6299   21.1240 H   0  0  0  0  0  0
  -19.6692  -27.3194   20.6738 H   0  0  0  0  0  0
  -17.4199  -26.6671   21.4023 H   0  0  0  0  0  0
  -18.0336  -26.0074   22.9019 H   0  0  0  0  0  0
  -19.7934  -30.7257   24.2293 H   0  0  0  0  0  0
  -17.5018  -31.6272   24.5154 H   0  0  0  0  0  0
  -15.5354  -30.2997   23.7650 H   0  0  0  0  0  0
  -15.8670  -28.0833   22.7061 H   0  0  0  0  0  0
  -24.5909  -30.7070   25.7787 H   0  0  0  0  0  0
  -24.8923  -32.2883   26.4883 H   0  0  0  0  0  0
  -25.8068  -30.8904   27.0219 H   0  0  0  0  0  0
  -26.2889  -29.6786   24.1179 H   0  0  0  0  0  0
  -27.4044  -29.7277   25.4639 H   0  0  0  0  0  0
  -27.8750  -30.4323   23.9345 H   0  0  0  0  0  0
  -27.2664  -33.3611   26.2084 H   0  0  0  0  0  0
  -28.3863  -32.6893   25.0324 H   0  0  0  0  0  0
  -28.0716  -31.8430   26.5400 H   0  0  0  0  0  0
  -28.2609  -38.0104   24.7517 H   0  0  0  0  0  0
  -28.1070  -36.2637   24.6284 H   0  0  0  0  0  0
  -27.2299  -37.1453   25.8868 H   0  0  0  0  0  0
  -20.9346  -29.8784   21.6917 H   0  0  0  0  0  0
  -26.0178  -38.2861   24.1408 H   0  0  0  0  0  0
  -29.1160  -21.1126   16.5629 H   0  0  0  0  0  0
  -29.7327  -18.8500   17.2954 H   0  0  0  0  0  0
  -28.8931  -22.9455   18.1622 H   0  0  0  0  0  0
  -29.9164  -20.2311   21.3896 H   0  0  0  0  0  0
  -31.3916  -17.8067   19.5052 H   0  0  0  0  0  0
  -29.8811  -17.2513   18.8835 H   0  0  0  0  0  0
  -29.0564  -17.4863   21.4020 H   0  0  0  0  0  0
  -30.7507  -17.3479   21.7709 H   0  0  0  0  0  0
  -27.4272  -24.8265   20.8350 H   0  0  0  0  0  0
  -27.8091  -24.7992   19.1253 H   0  0  0  0  0  0
  -29.9765  -24.6673   21.2440 H   0  0  0  0  0  0
  -30.1749  -24.2717   19.5809 H   0  0  0  0  0  0
  -28.9017  -15.3005   21.1737 H   0  0  0  0  0  0
  1 25  1  0  0  0
  1 30  2  0  0  0
  1 81  1  0  0  0
  2  3  1  0  0  0
  2 25  1  0  0  0
  2 83  1  0  0  0
  2 84  1  0  0  0
  3  4  1  0  0  0
  3 85  1  0  0  0
  3 86  1  0  0  0
  4  5  1  0  0  0
  4 87  1  0  0  0
  4 88  1  0  0  0
  5  6  1  0  0  0
  5 26  1  0  0  0
  5 89  1  0  0  0
  6 25  1  0  0  0
  6 90  1  0  0  0
  6 91  1  0  0  0
  7  8  2  0  0  0
  7 26  1  0  0  0
  7 29  1  0  0  0
  8  9  1  0  0  0
  8 22  1  0  0  0
  9 10  1  0  0  0
  9 27  2  0  0  0
 10 11  2  0  0  0
 10 15  1  0  0  0
 11 12  1  0  0  0
 11 92  1  0  0  0
 12 13  2  0  0  0
 12 93  1  0  0  0
 13 14  1  0  0  0
 13 31  1  0  0  0
 14 15  2  0  0  0
 14 94  1  0  0  0
 15 95  1  0  0  0
 16 17  2  0  0  0
 16 21  1  0  0  0
 16 31  1  0  0  0
 17 18  1  0  0  0
 17 96  1  0  0  0
 18 19  2  0  0  0
 18 97  1  0  0  0
 19 20  1  0  0  0
 19 24  1  0  0  0
 20 21  2  0  0  0
 20 98  1  0  0  0
 21 23  1  0  0  0
 22 28  1  0  0  0
 22 32  2  0  0  0
 26 27  1  0  0  0
 28 99  1  0  0  0
 28100  1  0  0  0
 29101  1  0  0  0
 29102  1  0  0  0
 33 34  1  0  0  0
 33 66  1  0  0  0
 33 70  2  0  0  0
 34 36  1  0  0  0
 34 59  1  0  0  0
 34103  1  0  0  0
 35 44  2  0  0  0
 35 45  1  0  0  0
 35 68  1  0  0  0
 36 56  1  0  0  0
 36104  1  0  0  0
 37 39  1  0  0  0
 37 47  1  0  0  0
 37 66  1  0  0  0
 37105  1  0  0  0
 38 43  2  0  0  0
 38 46  1  0  0  0
 38 47  1  0  0  0
 39 64  1  0  0  0
 39 67  2  0  0  0
 40 52  1  0  0  0
 40 53  2  0  0  0
 40 58  1  0  0  0
 41106  1  0  0  0
 41107  1  0  0  0
 41108  1  0  0  0
 41 48  1  0  0  0
 42 43  1  0  0  0
 42 66  1  0  0  0
 42109  1  0  0  0
 42110  1  0  0  0
 43 44  1  0  0  0
 44111  1  0  0  0
 45 46  2  0  0  0
 45112  1  0  0  0
 46113  1  0  0  0
 47114  1  0  0  0
 47115  1  0  0  0
 48 56  1  0  0  0
 48 65  1  0  0  0
 48116  1  0  0  0
 49 50  1  0  0  0
 49 53  1  0  0  0
 49 64  1  0  0  0
 49117  1  0  0  0
 50 51  1  0  0  0
 50118  1  0  0  0
 50119  1  0  0  0
 51 52  1  0  0  0
 51120  1  0  0  0
 51121  1  0  0  0
 52122  1  0  0  0
 52123  1  0  0  0
 53 54  1  0  0  0
 54 55  2  0  0  0
 54124  1  0  0  0
 55 57  1  0  0  0
 55125  1  0  0  0
 56 69  2  0  0  0
 57 58  2  0  0  0
 57126  1  0  0  0
 58127  1  0  0  0
 59 60  1  0  0  0
 59 61  1  0  0  0
 59 62  1  0  0  0
 60128  1  0  0  0
 60129  1  0  0  0
 60130  1  0  0  0
 61131  1  0  0  0
 61132  1  0  0  0
 61133  1  0  0  0
 62134  1  0  0  0
 62135  1  0  0  0
 62136  1  0  0  0
 63 65  1  0  0  0
 63137  1  0  0  0
 63138  1  0  0  0
 63139  1  0  0  0
 64140  1  0  0  0
 65141  1  0  0  0
 68 79  1  0  0  0
 71 72  2  0  0  0
 71 73  1  0  0  0
 71142  1  0  0  0
 72 75  1  0  0  0
 72143  1  0  0  0
 73 76  2  0  0  0
 73144  1  0  0  0
 74 75  2  0  0  0
 74 76  1  0  0  0
 74145  1  0  0  0
 75 77  1  0  0  0
 76 82  1  0  0  0
 77 78  1  0  0  0
 77146  1  0  0  0
 77147  1  0  0  0
 78 81  1  0  0  0
 78148  1  0  0  0
 78149  1  0  0  0
 79 80  1  0  0  0
 79150  1  0  0  0
 79151  1  0  0  0
 80 82  1  0  0  0
 80152  1  0  0  0
 80153  1  0  0  0
 81154  1  0  0  0
M  ISO  4   1 100  68 101  79 101  81 100
M  END
> <chiral flag>
0

> <version>
0

> <s_m_source_file>
/data/baiqing/PycharmProjects/Reinvent-master-3.2/result/LINK_invent/BTK/process_docking_weight1_custom_sum_contain_oxygen_bond_distance_aromatic_linkinvent_7_9_3/rearranged_h_0131.sdf

> <i_m_source_file_index>
59

> <r_mmod_Potential_Energy-OPLS-2005>
19.8988552093506

> <r_mmod_Stretch_Energy-OPLS-2005>
67.5764236450195

> <r_mmod_Bend_Energy-OPLS-2005>
145.408721923828

> <r_mmod_Torsional_Energy-OPLS-2005>
205.499923706055

> <r_mmod_Improper_Torsional_Energy-OPLS-2005>
4.1730489730835

> <r_mmod_Van_der_Waal_Energy-OPLS-2005>
147.191207885742

> <r_mmod_Electrostatic_Energy-OPLS-2005>
-368.656585693359

> <r_mmod_Solvation_Energy-OPLS-2005>
-215.453765869141

> <b_mmod_Minimization_Converged-OPLS-2005>
0

> <r_mmod_RMS_Derivative-OPLS-2005>
1.45204830169678

$$$$
59
                    3D
 Structure written by MMmdl.
175184  0  0  1  0            999 V2000
  -30.7589  -14.4354   20.5298 C   0  0  0  0  0  0
  -30.4057  -12.2735   19.4166 C   0  0  0  0  0  0
  -29.4669  -12.4074   18.1997 C   0  0  0  0  0  0
  -27.9930  -12.3123   18.6281 C   0  0  0  0  0  0
  -27.6513  -13.1998   19.8542 C   0  0  2  0  0  0
  -28.6987  -13.0285   20.9734 C   0  0  0  0  0  0
  -25.2588  -13.8179   20.5676 C   0  0  0  0  0  0
  -24.1836  -13.0467   20.9194 C   0  0  0  0  0  0
  -24.6376  -11.6927   20.8788 C   0  0  0  0  0  0
  -23.9050  -10.4303   21.0440 C   0  0  0  0  0  0
  -24.3613   -9.4204   21.9197 C   0  0  0  0  0  0
  -23.6290   -8.2239   22.0750 C   0  0  0  0  0  0
  -22.4268   -8.0281   21.3544 C   0  0  0  0  0  0
  -21.9902   -9.0267   20.4659 C   0  0  0  0  0  0
  -22.7228  -10.2148   20.3081 C   0  0  0  0  0  0
  -21.6842   -6.0738   22.5274 C   0  0  0  0  0  0
  -21.4008   -6.5641   23.8208 C   0  0  0  0  0  0
  -21.3655   -5.6791   24.9170 C   0  0  0  0  0  0
  -21.6051   -4.3055   24.7212 C   0  0  0  0  0  0
  -21.8833   -3.8149   23.4334 C   0  0  0  0  0  0
  -21.9193   -4.6968   22.3390 C   0  0  0  0  0  0
  -22.7867  -13.5268   21.1848 C   0  0  0  0  0  0
  -22.1659   -4.2161   21.0966 F   0  0  0  0  0  0
  -21.5637   -3.4538   25.7721 F   0  0  0  0  0  0
  -30.0223  -13.3007   20.3960 N   0  0  0  0  0  0
  -26.2987  -12.9327   20.3345 N   0  0  0  0  0  0
  -25.9295  -11.6502   20.5846 N   0  0  0  0  0  0
  -22.0519  -12.8246   22.0411 N   0  0  0  0  0  0
  -25.4382  -15.1883   20.4055 N   0  0  0  0  0  0
  -31.9499  -14.4762   20.2102 O   0  0  0  0  0  0
  -21.6629   -6.8879   21.4234 O   0  0  0  0  0  0
  -22.3557  -14.5574   20.6698 O   0  0  0  0  0  0
  -24.6077  -31.8719   23.2148 C   0  0  0  0  0  0
  -25.8990  -32.4852   23.8428 C   0  0  1  0  0  0
  -27.2415  -27.4959   20.0837 C   0  0  0  0  0  0
  -25.5876  -33.8651   24.2361 N   0  0  0  0  0  0
  -23.3949  -30.4929   21.5536 C   0  0  2  0  0  0
  -24.8437  -28.9634   20.1184 C   0  0  0  0  0  0
  -22.7384  -29.4659   22.5023 C   0  0  0  0  0  0
  -18.0266  -28.1382   22.8487 C   0  0  0  0  0  0
  -24.1478  -36.7317   23.2651 C   0  0  0  0  0  0
  -25.9168  -30.8529   21.3615 C   0  0  0  0  0  0
  -25.9969  -29.4884   20.7165 C   0  0  0  0  0  0
  -27.1982  -28.7544   20.7098 C   0  0  0  0  0  0
  -26.0763  -26.9619   19.4945 C   0  0  0  0  0  0
  -24.8736  -27.6944   19.5102 C   0  0  0  0  0  0
  -23.6023  -29.8237   20.1677 C   0  0  0  0  0  0
  -25.4109  -36.3131   24.0348 C   0  0  1  0  0  0
  -20.5849  -28.3648   23.1351 C   0  0  2  0  0  0
  -20.6747  -26.9382   22.5452 C   0  0  0  0  0  0
  -19.5742  -26.6382   21.5222 C   0  0  0  0  0  0
  -18.1902  -26.7946   22.1588 C   0  0  0  0  0  0
  -19.1511  -28.8832   23.2918 C   0  0  0  0  0  0
  -18.9439  -30.1444   23.8914 C   0  0  0  0  0  0
  -17.6440  -30.6580   24.0574 C   0  0  0  0  0  0
  -25.9027  -34.9494   23.5149 C   0  0  0  0  0  0
  -16.5335  -29.9082   23.6330 C   0  0  0  0  0  0
  -16.7256  -28.6512   23.0332 C   0  0  0  0  0  0
  -26.4447  -31.6620   25.0731 C   0  0  0  0  0  0
  -25.3730  -31.3653   26.1472 C   0  0  0  0  0  0
  -27.0305  -30.3094   24.6062 C   0  0  0  0  0  0
  -27.6010  -32.4356   25.7499 C   0  0  0  0  0  0
  -27.5578  -37.1831   24.8477 C   0  0  0  0  0  0
  -21.4119  -29.3012   22.3753 N   0  0  0  0  0  0
  -26.4305  -37.3805   23.9400 N   0  0  0  0  0  0
  -24.6574  -31.0865   22.1023 N   0  0  0  0  0  0
  -23.4177  -28.8217   23.3059 O   0  0  0  0  0  0
  -28.4137  -26.7958   20.0606 O   0  0  0  0  0  0
  -26.5581  -34.8930   22.4707 O   0  0  0  0  0  0
  -23.5281  -32.1443   23.7575 O   0  0  0  0  0  0
  -29.4061  -24.5760   17.4559 C   0  0  0  0  0  0
  -30.4836  -24.8292   19.6248 C   0  0  0  0  0  0
  -29.6543  -25.3386   18.6094 C   0  0  0  0  0  0
  -29.9414  -23.2805   17.3311 C   0  0  0  0  0  0
  -31.0289  -23.5353   19.5210 C   0  0  0  0  0  0
  -30.7413  -22.7436   18.3767 C   0  0  0  0  0  0
  -30.6705  -17.0637   16.9896 C   0  0  0  0  0  0
  -30.1548  -16.1113   18.0761 C   0  0  0  0  0  0
  -30.1840  -18.4976   17.2125 C   0  0  0  0  0  0
  -29.8651  -18.0509   19.6810 C   0  0  0  0  0  0
  -30.4343  -16.6185   19.5156 C   0  0  1  0  0  0
  -30.5439  -18.9695   18.6362 C   0  0  2  0  0  0
  -29.6277  -22.4963   16.0641 C   0  0  0  0  0  0
  -31.9102  -23.0351   20.6581 C   0  0  0  0  0  0
  -29.6234  -16.1174   21.8405 C   0  0  0  0  0  0
  -31.2433  -21.3110   18.2887 C   0  0  0  0  0  0
  -29.0116  -26.6948   18.7760 C   0  0  0  0  0  0
  -30.0547  -15.5971   20.5375 N   0  0  0  0  0  0
  -30.2219  -20.3945   18.8365 N   0  3  0  0  0  0
  -31.4444  -12.3558   19.0909 H   0  0  0  0  0  0
  -30.3133  -11.2833   19.8655 H   0  0  0  0  0  0
  -29.6878  -11.6194   17.4776 H   0  0  0  0  0  0
  -29.6286  -13.3419   17.6716 H   0  0  0  0  0  0
  -27.7966  -11.2662   18.8660 H   0  0  0  0  0  0
  -27.3377  -12.5526   17.7904 H   0  0  0  0  0  0
  -27.6871  -14.2347   19.5137 H   0  0  0  0  0  0
  -28.6740  -12.0140   21.3735 H   0  0  0  0  0  0
  -28.4641  -13.6809   21.8107 H   0  0  0  0  0  0
  -25.2758   -9.5670   22.4774 H   0  0  0  0  0  0
  -24.0007   -7.4622   22.7458 H   0  0  0  0  0  0
  -21.0832   -8.8793   19.8965 H   0  0  0  0  0  0
  -22.3676  -10.9703   19.6208 H   0  0  0  0  0  0
  -21.1985   -7.6145   23.9711 H   0  0  0  0  0  0
  -21.1474   -6.0514   25.9074 H   0  0  0  0  0  0
  -22.0616   -2.7612   23.2827 H   0  0  0  0  0  0
  -22.4154  -11.9906   22.4775 H   0  0  0  0  0  0
  -21.1146  -13.1273   22.2654 H   0  0  0  0  0  0
  -24.6827  -15.8564   20.5112 H   0  0  0  0  0  0
  -26.3070  -15.6139   20.1062 H   0  0  0  0  0  0
  -26.7071  -32.5601   23.1212 H   0  0  0  0  0  0
  -25.0062  -33.9833   25.0530 H   0  0  0  0  0  0
  -22.6799  -31.3066   21.4154 H   0  0  0  0  0  0
  -23.3756  -35.9633   23.3318 H   0  0  0  0  0  0
  -24.3557  -36.8937   22.2064 H   0  0  0  0  0  0
  -23.7207  -37.6510   23.6671 H   0  0  0  0  0  0
  -26.0181  -31.6168   20.5894 H   0  0  0  0  0  0
  -26.8090  -30.9128   21.9733 H   0  0  0  0  0  0
  -28.0933  -29.1553   21.1659 H   0  0  0  0  0  0
  -26.1052  -25.9887   19.0243 H   0  0  0  0  0  0
  -23.9860  -27.2810   19.0516 H   0  0  0  0  0  0
  -23.7076  -30.5976   19.4061 H   0  0  0  0  0  0
  -22.7286  -29.2390   19.8740 H   0  0  0  0  0  0
  -25.1288  -36.2015   25.0847 H   0  0  0  0  0  0
  -20.9938  -28.3214   24.1474 H   0  0  0  0  0  0
  -20.5628  -26.2250   23.3632 H   0  0  0  0  0  0
  -21.6628  -26.7411   22.1269 H   0  0  0  0  0  0
  -19.6896  -25.6295   21.1241 H   0  0  0  0  0  0
  -19.6717  -27.3203   20.6764 H   0  0  0  0  0  0
  -17.4206  -26.6765   21.3942 H   0  0  0  0  0  0
  -18.0226  -26.0065   22.8942 H   0  0  0  0  0  0
  -19.7910  -30.7261   24.2294 H   0  0  0  0  0  0
  -17.4989  -31.6254   24.5187 H   0  0  0  0  0  0
  -15.5333  -30.2983   23.7642 H   0  0  0  0  0  0
  -15.8660  -28.0844   22.7013 H   0  0  0  0  0  0
  -24.6030  -30.6837   25.7835 H   0  0  0  0  0  0
  -24.8746  -32.2750   26.4831 H   0  0  0  0  0  0
  -25.8135  -30.8960   27.0279 H   0  0  0  0  0  0
  -26.2836  -29.6840   24.1154 H   0  0  0  0  0  0
  -27.4157  -29.7335   25.4487 H   0  0  0  0  0  0
  -27.8625  -30.4457   23.9148 H   0  0  0  0  0  0
  -27.2602  -33.3633   26.2113 H   0  0  0  0  0  0
  -28.3788  -32.6966   25.0310 H   0  0  0  0  0  0
  -28.0717  -31.8475   26.5388 H   0  0  0  0  0  0
  -28.2650  -38.0074   24.7461 H   0  0  0  0  0  0
  -28.1021  -36.2605   24.6393 H   0  0  0  0  0  0
  -27.2285  -37.1602   25.8880 H   0  0  0  0  0  0
  -20.9273  -29.8734   21.6978 H   0  0  0  0  0  0
  -26.0207  -38.2896   24.1374 H   0  0  0  0  0  0
  -28.7795  -24.9826   16.6737 H   0  0  0  0  0  0
  -30.6786  -25.4330   20.5009 H   0  0  0  0  0  0
  -30.3539  -16.7117   16.0071 H   0  0  0  0  0  0
  -31.7613  -17.0470   16.9815 H   0  0  0  0  0  0
  -30.6611  -15.1652   17.9018 H   0  0  0  0  0  0
  -29.0869  -15.9322   17.9430 H   0  0  0  0  0  0
  -29.1052  -18.5487   17.0598 H   0  0  0  0  0  0
  -30.6323  -19.1382   16.4532 H   0  0  0  0  0  0
  -30.0770  -18.4458   20.6740 H   0  0  0  0  0  0
  -28.7800  -18.0524   19.5610 H   0  0  0  0  0  0
  -31.5147  -16.7551   19.6033 H   0  0  0  0  0  0
  -31.6235  -18.8746   18.7743 H   0  0  0  0  0  0
  -28.9150  -23.0298   15.4342 H   0  0  0  0  0  0
  -29.1902  -21.5240   16.2892 H   0  0  0  0  0  0
  -30.5316  -22.3438   15.4732 H   0  0  0  0  0  0
  -31.8593  -23.7012   21.5203 H   0  0  0  0  0  0
  -32.9528  -22.9913   20.3412 H   0  0  0  0  0  0
  -31.6107  -22.0457   21.0021 H   0  0  0  0  0  0
  -30.3164  -16.8753   22.2050 H   0  0  0  0  0  0
  -29.5910  -15.3534   22.6177 H   0  0  0  0  0  0
  -28.6285  -16.5568   21.7680 H   0  0  0  0  0  0
  -32.1854  -21.1895   18.8231 H   0  0  0  0  0  0
  -31.4787  -21.0656   17.2540 H   0  0  0  0  0  0
  -28.3001  -26.8657   17.9653 H   0  0  0  0  0  0
  -29.7799  -27.4633   18.6847 H   0  0  0  0  0  0
  -30.1506  -20.5850   19.8225 H   0  0  0  0  0  0
  -29.3280  -20.6089   18.4264 H   0  0  0  0  0  0
  1 25  1  0  0  0
  1 30  2  0  0  0
  1 88  1  0  0  0
  2  3  1  0  0  0
  2 25  1  0  0  0
  2 90  1  0  0  0
  2 91  1  0  0  0
  3  4  1  0  0  0
  3 92  1  0  0  0
  3 93  1  0  0  0
  4  5  1  0  0  0
  4 94  1  0  0  0
  4 95  1  0  0  0
  5  6  1  0  0  0
  5 26  1  0  0  0
  5 96  1  0  0  0
  6 25  1  0  0  0
  6 97  1  0  0  0
  6 98  1  0  0  0
  7  8  2  0  0  0
  7 26  1  0  0  0
  7 29  1  0  0  0
  8  9  1  0  0  0
  8 22  1  0  0  0
  9 10  1  0  0  0
  9 27  2  0  0  0
 10 11  2  0  0  0
 10 15  1  0  0  0
 11 12  1  0  0  0
 11 99  1  0  0  0
 12 13  2  0  0  0
 12100  1  0  0  0
 13 14  1  0  0  0
 13 31  1  0  0  0
 14 15  2  0  0  0
 14101  1  0  0  0
 15102  1  0  0  0
 16 17  2  0  0  0
 16 21  1  0  0  0
 16 31  1  0  0  0
 17 18  1  0  0  0
 17103  1  0  0  0
 18 19  2  0  0  0
 18104  1  0  0  0
 19 20  1  0  0  0
 19 24  1  0  0  0
 20 21  2  0  0  0
 20105  1  0  0  0
 21 23  1  0  0  0
 22 28  1  0  0  0
 22 32  2  0  0  0
 26 27  1  0  0  0
 28106  1  0  0  0
 28107  1  0  0  0
 29108  1  0  0  0
 29109  1  0  0  0
 33 34  1  0  0  0
 33 66  1  0  0  0
 33 70  2  0  0  0
 34 36  1  0  0  0
 34 59  1  0  0  0
 34110  1  0  0  0
 35 44  2  0  0  0
 35 45  1  0  0  0
 35 68  1  0  0  0
 36 56  1  0  0  0
 36111  1  0  0  0
 37 39  1  0  0  0
 37 47  1  0  0  0
 37 66  1  0  0  0
 37112  1  0  0  0
 38 43  2  0  0  0
 38 46  1  0  0  0
 38 47  1  0  0  0
 39 64  1  0  0  0
 39 67  2  0  0  0
 40 52  1  0  0  0
 40 53  2  0  0  0
 40 58  1  0  0  0
 41113  1  0  0  0
 41114  1  0  0  0
 41115  1  0  0  0
 41 48  1  0  0  0
 42 43  1  0  0  0
 42 66  1  0  0  0
 42116  1  0  0  0
 42117  1  0  0  0
 43 44  1  0  0  0
 44118  1  0  0  0
 45 46  2  0  0  0
 45119  1  0  0  0
 46120  1  0  0  0
 47121  1  0  0  0
 47122  1  0  0  0
 48 56  1  0  0  0
 48 65  1  0  0  0
 48123  1  0  0  0
 49 50  1  0  0  0
 49 53  1  0  0  0
 49 64  1  0  0  0
 49124  1  0  0  0
 50 51  1  0  0  0
 50125  1  0  0  0
 50126  1  0  0  0
 51 52  1  0  0  0
 51127  1  0  0  0
 51128  1  0  0  0
 52129  1  0  0  0
 52130  1  0  0  0
 53 54  1  0  0  0
 54 55  2  0  0  0
 54131  1  0  0  0
 55 57  1  0  0  0
 55132  1  0  0  0
 56 69  2  0  0  0
 57 58  2  0  0  0
 57133  1  0  0  0
 58134  1  0  0  0
 59 60  1  0  0  0
 59 61  1  0  0  0
 59 62  1  0  0  0
 60135  1  0  0  0
 60136  1  0  0  0
 60137  1  0  0  0
 61138  1  0  0  0
 61139  1  0  0  0
 61140  1  0  0  0
 62141  1  0  0  0
 62142  1  0  0  0
 62143  1  0  0  0
 63 65  1  0  0  0
 63144  1  0  0  0
 63145  1  0  0  0
 63146  1  0  0  0
 64147  1  0  0  0
 65148  1  0  0  0
 68 87  1  0  0  0
 71 73  2  0  0  0
 71 74  1  0  0  0
 71149  1  0  0  0
 72 73  1  0  0  0
 72 75  2  0  0  0
 72150  1  0  0  0
 73 87  1  0  0  0
 74 76  2  0  0  0
 74 83  1  0  0  0
 75 76  1  0  0  0
 75 84  1  0  0  0
 76 86  1  0  0  0
 77 78  1  0  0  0
 77 79  1  0  0  0
 77151  1  0  0  0
 77152  1  0  0  0
 78 81  1  0  0  0
 78153  1  0  0  0
 78154  1  0  0  0
 79 82  1  0  0  0
 79155  1  0  0  0
 79156  1  0  0  0
 80 81  1  0  0  0
 80 82  1  0  0  0
 80157  1  0  0  0
 80158  1  0  0  0
 81 88  1  0  0  0
 81159  1  0  0  0
 82 89  1  0  0  0
 82160  1  0  0  0
 83161  1  0  0  0
 83162  1  0  0  0
 83163  1  0  0  0
 84164  1  0  0  0
 84165  1  0  0  0
 84166  1  0  0  0
 85 88  1  0  0  0
 85167  1  0  0  0
 85168  1  0  0  0
 85169  1  0  0  0
 86 89  1  0  0  0
 86170  1  0  0  0
 86171  1  0  0  0
 87172  1  0  0  0
 87173  1  0  0  0
 89174  1  0  0  0
 89175  1  0  0  0
M  CHG  1  89   1
M  ISO  4   1 100  68 101  87 101  88 100
M  END
> <chiral flag>
0

> <version>
0

> <s_m_source_file>
/data/baiqing/PycharmProjects/Reinvent-master-3.2/result/LINK_invent/BTK/process_docking_weight1_custom_sum_contain_oxygen_bond_distance_aromatic_linkinvent_7_9_3/rearranged_h_0131.sdf

> <i_m_source_file_index>
60

> <r_mmod_Potential_Energy-OPLS-2005>
53.865966796875

> <r_mmod_Stretch_Energy-OPLS-2005>
36.5619087219238

> <r_mmod_Bend_Energy-OPLS-2005>
104.230514526367

> <r_mmod_Torsional_Energy-OPLS-2005>
332.419921875

> <r_mmod_Improper_Torsional_Energy-OPLS-2005>
17.7918529510498

> <r_mmod_Van_der_Waal_Energy-OPLS-2005>
169.804138183594

> <r_mmod_Electrostatic_Energy-OPLS-2005>
-201.427658081055

> <r_mmod_Solvation_Energy-OPLS-2005>
-427.416839599609

> <b_mmod_Minimization_Converged-OPLS-2005>
0

> <r_mmod_RMS_Derivative-OPLS-2005>
1.44028520584106

$$$$
60
                    3D
 Structure written by MMmdl.
156164  0  0  1  0            999 V2000
  -30.5170  -14.8480   20.4082 C   0  0  0  0  0  0
  -30.4353  -12.5175   19.4597 C   0  0  0  0  0  0
  -29.4956  -12.4823   18.2323 C   0  0  0  0  0  0
  -28.0305  -12.2838   18.6678 C   0  0  0  0  0  0
  -27.6237  -13.2223   19.8305 C   0  0  2  0  0  0
  -28.6698  -13.2086   20.9599 C   0  0  0  0  0  0
  -25.2474  -13.8190   20.5694 C   0  0  0  0  0  0
  -24.1740  -13.0428   20.9234 C   0  0  0  0  0  0
  -24.6335  -11.6904   20.8776 C   0  0  0  0  0  0
  -23.9004  -10.4287   21.0432 C   0  0  0  0  0  0
  -24.3573   -9.4209   21.9211 C   0  0  0  0  0  0
  -23.6263   -8.2231   22.0757 C   0  0  0  0  0  0
  -22.4244   -8.0260   21.3541 C   0  0  0  0  0  0
  -21.9890   -9.0227   20.4634 C   0  0  0  0  0  0
  -22.7191  -10.2119   20.3073 C   0  0  0  0  0  0
  -21.6837   -6.0719   22.5269 C   0  0  0  0  0  0
  -21.4002   -6.5633   23.8198 C   0  0  0  0  0  0
  -21.3661   -5.6794   24.9172 C   0  0  0  0  0  0
  -21.6047   -4.3059   24.7229 C   0  0  0  0  0  0
  -21.8814   -3.8135   23.4352 C   0  0  0  0  0  0
  -21.9194   -4.6956   22.3403 C   0  0  0  0  0  0
  -22.7791  -13.5211   21.1908 C   0  0  0  0  0  0
  -22.1659   -4.2137   21.0981 F   0  0  0  0  0  0
  -21.5643   -3.4545   25.7742 F   0  0  0  0  0  0
  -29.9481  -13.5917   20.3548 N   0  0  0  0  0  0
  -26.2837  -12.9354   20.3246 N   0  0  0  0  0  0
  -25.9248  -11.6515   20.5765 N   0  0  0  0  0  0
  -22.0451  -12.8155   22.0461 N   0  0  0  0  0  0
  -25.4211  -15.1904   20.4084 N   0  0  0  0  0  0
  -31.7335  -14.9620   20.2205 O   0  0  0  0  0  0
  -21.6625   -6.8848   21.4217 O   0  0  0  0  0  0
  -22.3454  -14.5532   20.6785 O   0  0  0  0  0  0
  -24.6372  -31.8538   23.1917 C   0  0  0  0  0  0
  -25.9171  -32.4729   23.8282 C   0  0  1  0  0  0
  -27.1846  -27.1926   20.1226 C   0  0  0  0  0  0
  -25.6000  -33.8543   24.2263 N   0  0  0  0  0  0
  -23.4329  -30.4747   21.5446 C   0  0  2  0  0  0
  -24.8633  -28.9075   20.1161 C   0  0  0  0  0  0
  -22.7528  -29.4544   22.4901 C   0  0  0  0  0  0
  -18.0279  -28.1370   22.8424 C   0  0  0  0  0  0
  -24.1499  -36.7230   23.2652 C   0  0  0  0  0  0
  -25.9799  -30.7480   21.3732 C   0  0  0  0  0  0
  -26.0432  -29.3630   20.7137 C   0  0  0  0  0  0
  -27.2052  -28.5168   20.6997 C   0  0  0  0  0  0
  -25.9770  -26.8166   19.5077 C   0  0  0  0  0  0
  -24.8364  -27.6456   19.5060 C   0  0  0  0  0  0
  -23.6491  -29.8162   20.1576 C   0  0  0  0  0  0
  -25.4116  -36.3049   24.0358 C   0  0  1  0  0  0
  -20.5942  -28.3638   23.1255 C   0  0  2  0  0  0
  -20.6800  -26.9359   22.5390 C   0  0  0  0  0  0
  -19.5785  -26.6365   21.5185 C   0  0  0  0  0  0
  -18.1937  -26.7894   22.1579 C   0  0  0  0  0  0
  -19.1557  -28.8803   23.2817 C   0  0  0  0  0  0
  -18.9502  -30.1392   23.8827 C   0  0  0  0  0  0
  -17.6521  -30.6563   24.0525 C   0  0  0  0  0  0
  -25.9077  -34.9432   23.5096 C   0  0  0  0  0  0
  -16.5390  -29.9047   23.6363 C   0  0  0  0  0  0
  -16.7282  -28.6492   23.0311 C   0  0  0  0  0  0
  -26.4521  -31.6562   25.0682 C   0  0  0  0  0  0
  -25.3757  -31.3705   26.1409 C   0  0  0  0  0  0
  -27.0396  -30.3030   24.6073 C   0  0  0  0  0  0
  -27.6047  -32.4319   25.7469 C   0  0  0  0  0  0
  -27.5555  -37.1760   24.8491 C   0  0  0  0  0  0
  -21.4244  -29.2994   22.3628 N   0  0  0  0  0  0
  -26.4291  -37.3767   23.9425 N   0  0  0  0  0  0
  -24.7033  -31.0419   22.0944 N   0  0  0  0  0  0
  -23.4187  -28.8091   23.3036 O   0  0  0  0  0  0
  -28.3067  -26.3242   20.1087 O   0  0  0  0  0  0
  -26.5608  -34.8930   22.4639 O   0  0  0  0  0  0
  -23.5530  -32.1351   23.7235 O   0  0  0  0  0  0
  -27.6437  -23.7201   19.1764 C   0  0  0  0  0  0
  -28.6106  -24.0251   21.4498 C   0  0  0  0  0  0
  -27.6478  -22.1675   19.6376 C   0  0  0  0  0  0
  -29.4025  -22.6444   21.3172 C   0  0  0  0  0  0
  -28.3857  -24.7831   20.1016 C   0  0  1  0  0  0
  -29.1565  -18.7503   20.0300 C   0  0  0  0  0  0
  -29.8861  -17.4661   20.7859 C   0  0  0  0  0  0
  -28.8612  -20.1432   20.8804 C   0  0  0  0  0  0
  -29.6639  -15.9625   20.4666 N   0  0  0  0  0  0
  -28.8910  -21.6096   20.3135 N   0  3  1  0  0  0
  -31.4595  -12.6990   19.1301 H   0  0  0  0  0  0
  -30.4390  -11.5586   19.9807 H   0  0  0  0  0  0
  -29.7887  -11.6842   17.5499 H   0  0  0  0  0  0
  -29.5810  -13.4118   17.6695 H   0  0  0  0  0  0
  -27.9207  -11.2461   18.9929 H   0  0  0  0  0  0
  -27.3519  -12.4069   17.8238 H   0  0  0  0  0  0
  -27.5979  -14.2236   19.4026 H   0  0  0  0  0  0
  -28.7371  -12.2265   21.4253 H   0  0  0  0  0  0
  -28.3940  -13.9069   21.7498 H   0  0  0  0  0  0
  -25.2724   -9.5691   22.4788 H   0  0  0  0  0  0
  -23.9981   -7.4622   22.7481 H   0  0  0  0  0  0
  -21.0830   -8.8710   19.8942 H   0  0  0  0  0  0
  -22.3633  -10.9649   19.6175 H   0  0  0  0  0  0
  -21.1970   -7.6131   23.9681 H   0  0  0  0  0  0
  -21.1499   -6.0538   25.9066 H   0  0  0  0  0  0
  -22.0599   -2.7596   23.2855 H   0  0  0  0  0  0
  -22.4063  -11.9731   22.4714 H   0  0  0  0  0  0
  -21.1112  -13.1191   22.2800 H   0  0  0  0  0  0
  -24.6535  -15.8486   20.4955 H   0  0  0  0  0  0
  -26.2565  -15.6115   20.0225 H   0  0  0  0  0  0
  -26.7159  -32.5340   23.0952 H   0  0  0  0  0  0
  -25.0298  -33.9680   25.0513 H   0  0  0  0  0  0
  -22.7349  -31.3000   21.3979 H   0  0  0  0  0  0
  -23.3807  -35.9519   23.3335 H   0  0  0  0  0  0
  -24.3596  -36.8858   22.2067 H   0  0  0  0  0  0
  -23.7234  -37.6421   23.6667 H   0  0  0  0  0  0
  -26.1209  -31.5117   20.6094 H   0  0  0  0  0  0
  -26.8589  -30.7971   22.0031 H   0  0  0  0  0  0
  -28.1159  -28.8587   21.1701 H   0  0  0  0  0  0
  -25.8841  -25.8753   18.9998 H   0  0  0  0  0  0
  -23.9252  -27.2965   19.0323 H   0  0  0  0  0  0
  -23.8021  -30.6022   19.4196 H   0  0  0  0  0  0
  -22.7552  -29.2825   19.8260 H   0  0  0  0  0  0
  -25.1300  -36.1875   25.0857 H   0  0  0  0  0  0
  -20.9953  -28.3176   24.1414 H   0  0  0  0  0  0
  -20.5760  -26.2189   23.3548 H   0  0  0  0  0  0
  -21.6639  -26.7453   22.1117 H   0  0  0  0  0  0
  -19.6993  -25.6279   21.1169 H   0  0  0  0  0  0
  -19.6767  -27.3171   20.6701 H   0  0  0  0  0  0
  -17.4235  -26.6637   21.3941 H   0  0  0  0  0  0
  -18.0283  -26.0040   22.8970 H   0  0  0  0  0  0
  -19.8010  -30.7167   24.2177 H   0  0  0  0  0  0
  -17.5131  -31.6245   24.5097 H   0  0  0  0  0  0
  -15.5403  -30.2945   23.7733 H   0  0  0  0  0  0
  -15.8682  -28.0814   22.7058 H   0  0  0  0  0  0
  -24.5986  -30.6973   25.7766 H   0  0  0  0  0  0
  -24.8846  -32.2868   26.4702 H   0  0  0  0  0  0
  -25.8097  -30.9011   27.0252 H   0  0  0  0  0  0
  -26.2949  -29.6736   24.1176 H   0  0  0  0  0  0
  -27.4275  -29.7295   25.4494 H   0  0  0  0  0  0
  -27.8734  -30.4414   23.9188 H   0  0  0  0  0  0
  -27.2676  -33.3715   26.1844 H   0  0  0  0  0  0
  -28.3938  -32.6714   25.0342 H   0  0  0  0  0  0
  -28.0587  -31.8566   26.5549 H   0  0  0  0  0  0
  -28.2552  -38.0064   24.7539 H   0  0  0  0  0  0
  -28.1081  -36.2610   24.6343 H   0  0  0  0  0  0
  -27.2263  -37.1411   25.8890 H   0  0  0  0  0  0
  -20.9384  -29.8834   21.6952 H   0  0  0  0  0  0
  -26.0173  -38.2821   24.1511 H   0  0  0  0  0  0
  -26.5908  -23.9676   19.0548 H   0  0  0  0  0  0
  -28.0463  -23.7924   18.1633 H   0  0  0  0  0  0
  -29.1644  -24.6674   22.1388 H   0  0  0  0  0  0
  -27.6495  -23.8493   21.9429 H   0  0  0  0  0  0
  -27.4087  -21.5478   18.7698 H   0  0  0  0  0  0
  -26.8078  -22.0246   20.3219 H   0  0  0  0  0  0
  -29.4676  -22.2132   22.3229 H   0  0  0  0  0  0
  -30.4430  -22.8669   21.0591 H   0  0  0  0  0  0
  -29.3811  -24.7429   19.6584 H   0  0  0  0  0  0
  -28.1941  -18.4183   19.6286 H   0  0  0  0  0  0
  -29.7444  -18.9908   19.1427 H   0  0  0  0  0  0
  -29.5787  -17.5330   21.8285 H   0  0  0  0  0  0
  -30.9619  -17.6573   20.7962 H   0  0  0  0  0  0
  -29.5916  -20.1202   21.6907 H   0  0  0  0  0  0
  -27.9015  -20.0177   21.3924 H   0  0  0  0  0  0
  -28.6909  -15.6953   20.4760 H   0  0  0  0  0  0
  -29.5966  -21.6030   19.5886 H   0  0  0  0  0  0
  1 25  1  0  0  0
  1 30  2  0  0  0
  1 79  1  0  0  0
  2  3  1  0  0  0
  2 25  1  0  0  0
  2 81  1  0  0  0
  2 82  1  0  0  0
  3  4  1  0  0  0
  3 83  1  0  0  0
  3 84  1  0  0  0
  4  5  1  0  0  0
  4 85  1  0  0  0
  4 86  1  0  0  0
  5  6  1  0  0  0
  5 26  1  0  0  0
  5 87  1  0  0  0
  6 25  1  0  0  0
  6 88  1  0  0  0
  6 89  1  0  0  0
  7  8  2  0  0  0
  7 26  1  0  0  0
  7 29  1  0  0  0
  8  9  1  0  0  0
  8 22  1  0  0  0
  9 10  1  0  0  0
  9 27  2  0  0  0
 10 11  2  0  0  0
 10 15  1  0  0  0
 11 12  1  0  0  0
 11 90  1  0  0  0
 12 13  2  0  0  0
 12 91  1  0  0  0
 13 14  1  0  0  0
 13 31  1  0  0  0
 14 15  2  0  0  0
 14 92  1  0  0  0
 15 93  1  0  0  0
 16 17  2  0  0  0
 16 21  1  0  0  0
 16 31  1  0  0  0
 17 18  1  0  0  0
 17 94  1  0  0  0
 18 19  2  0  0  0
 18 95  1  0  0  0
 19 20  1  0  0  0
 19 24  1  0  0  0
 20 21  2  0  0  0
 20 96  1  0  0  0
 21 23  1  0  0  0
 22 28  1  0  0  0
 22 32  2  0  0  0
 26 27  1  0  0  0
 28 97  1  0  0  0
 28 98  1  0  0  0
 29 99  1  0  0  0
 29100  1  0  0  0
 33 34  1  0  0  0
 33 66  1  0  0  0
 33 70  2  0  0  0
 34 36  1  0  0  0
 34 59  1  0  0  0
 34101  1  0  0  0
 35 44  2  0  0  0
 35 45  1  0  0  0
 35 68  1  0  0  0
 36 56  1  0  0  0
 36102  1  0  0  0
 37 39  1  0  0  0
 37 47  1  0  0  0
 37 66  1  0  0  0
 37103  1  0  0  0
 38 43  2  0  0  0
 38 46  1  0  0  0
 38 47  1  0  0  0
 39 64  1  0  0  0
 39 67  2  0  0  0
 40 52  1  0  0  0
 40 53  2  0  0  0
 40 58  1  0  0  0
 41104  1  0  0  0
 41105  1  0  0  0
 41106  1  0  0  0
 41 48  1  0  0  0
 42 43  1  0  0  0
 42 66  1  0  0  0
 42107  1  0  0  0
 42108  1  0  0  0
 43 44  1  0  0  0
 44109  1  0  0  0
 45 46  2  0  0  0
 45110  1  0  0  0
 46111  1  0  0  0
 47112  1  0  0  0
 47113  1  0  0  0
 48 56  1  0  0  0
 48 65  1  0  0  0
 48114  1  0  0  0
 49 50  1  0  0  0
 49 53  1  0  0  0
 49 64  1  0  0  0
 49115  1  0  0  0
 50 51  1  0  0  0
 50116  1  0  0  0
 50117  1  0  0  0
 51 52  1  0  0  0
 51118  1  0  0  0
 51119  1  0  0  0
 52120  1  0  0  0
 52121  1  0  0  0
 53 54  1  0  0  0
 54 55  2  0  0  0
 54122  1  0  0  0
 55 57  1  0  0  0
 55123  1  0  0  0
 56 69  2  0  0  0
 57 58  2  0  0  0
 57124  1  0  0  0
 58125  1  0  0  0
 59 60  1  0  0  0
 59 61  1  0  0  0
 59 62  1  0  0  0
 60126  1  0  0  0
 60127  1  0  0  0
 60128  1  0  0  0
 61129  1  0  0  0
 61130  1  0  0  0
 61131  1  0  0  0
 62132  1  0  0  0
 62133  1  0  0  0
 62134  1  0  0  0
 63 65  1  0  0  0
 63135  1  0  0  0
 63136  1  0  0  0
 63137  1  0  0  0
 64138  1  0  0  0
 65139  1  0  0  0
 68 75  1  0  0  0
 71 73  1  0  0  0
 71 75  1  0  0  0
 71140  1  0  0  0
 71141  1  0  0  0
 72 74  1  0  0  0
 72 75  1  0  0  0
 72142  1  0  0  0
 72143  1  0  0  0
 73 80  1  0  0  0
 73144  1  0  0  0
 73145  1  0  0  0
 74 80  1  0  0  0
 74146  1  0  0  0
 74147  1  0  0  0
 75148  1  0  0  0
 76 77  1  0  0  0
 76 78  1  0  0  0
 76149  1  0  0  0
 76150  1  0  0  0
 77 79  1  0  0  0
 77151  1  0  0  0
 77152  1  0  0  0
 78153  1  0  0  0
 78154  1  0  0  0
 78 80  1  0  0  0
 79155  1  0  0  0
 80156  1  0  0  0
M  CHG  1  80   1
M  ISO  4   1 100  68 101  75 101  79 100
M  END
> <chiral flag>
0

> <version>
0

> <s_m_source_file>
/data/baiqing/PycharmProjects/Reinvent-master-3.2/result/LINK_invent/BTK/process_docking_weight1_custom_sum_contain_oxygen_bond_distance_aromatic_linkinvent_7_9_3/rearranged_h_0131.sdf

> <i_m_source_file_index>
61

> <r_mmod_Potential_Energy-OPLS-2005>
299.677307128906

> <r_mmod_Stretch_Energy-OPLS-2005>
178.104675292969

> <r_mmod_Bend_Energy-OPLS-2005>
284.060150146484

> <r_mmod_Torsional_Energy-OPLS-2005>
279.70361328125

> <r_mmod_Improper_Torsional_Energy-OPLS-2005>
5.02652549743652

> <r_mmod_Van_der_Waal_Energy-OPLS-2005>
123.307792663574

> <r_mmod_Electrostatic_Energy-OPLS-2005>
-237.920349121094

> <r_mmod_Solvation_Energy-OPLS-2005>
-466.321563720703

> <b_mmod_Minimization_Converged-OPLS-2005>
0

> <r_mmod_RMS_Derivative-OPLS-2005>
7.57718992233276

$$$$
61
                    3D
 Structure written by MMmdl.
178187  0  0  1  0            999 V2000
  -30.6456  -14.4656   20.5429 C   0  0  0  0  0  0
  -30.4272  -12.2798   19.4313 C   0  0  0  0  0  0
  -29.4994  -12.4718   18.2131 C   0  0  0  0  0  0
  -28.0158  -12.3520   18.6203 C   0  0  0  0  0  0
  -27.6580  -13.1897   19.8722 C   0  0  2  0  0  0
  -28.6968  -12.9488   20.9890 C   0  0  0  0  0  0
  -25.2511  -13.7956   20.5421 C   0  0  0  0  0  0
  -24.1777  -13.0298   20.9137 C   0  0  0  0  0  0
  -24.6356  -11.6806   20.8741 C   0  0  0  0  0  0
  -23.9023  -10.4235   21.0442 C   0  0  0  0  0  0
  -24.3557   -9.4151   21.9208 C   0  0  0  0  0  0
  -23.6244   -8.2174   22.0752 C   0  0  0  0  0  0
  -22.4227   -8.0223   21.3533 C   0  0  0  0  0  0
  -21.9866   -9.0223   20.4649 C   0  0  0  0  0  0
  -22.7214  -10.2110   20.3093 C   0  0  0  0  0  0
  -21.6848   -6.0673   22.5279 C   0  0  0  0  0  0
  -21.4019   -6.5590   23.8217 C   0  0  0  0  0  0
  -21.3661   -5.6756   24.9191 C   0  0  0  0  0  0
  -21.6057   -4.3017   24.7257 C   0  0  0  0  0  0
  -21.8824   -3.8095   23.4388 C   0  0  0  0  0  0
  -21.9199   -4.6899   22.3432 C   0  0  0  0  0  0
  -22.7860  -13.5229   21.1873 C   0  0  0  0  0  0
  -22.1626   -4.2054   21.1013 F   0  0  0  0  0  0
  -21.5659   -3.4528   25.7791 F   0  0  0  0  0  0
  -30.0196  -13.2639   20.4392 N   0  0  0  0  0  0
  -26.3003  -12.9150   20.3318 N   0  0  0  0  0  0
  -25.9294  -11.6342   20.5800 N   0  0  0  0  0  0
  -22.0491  -12.8231   22.0461 N   0  0  0  0  0  0
  -25.4030  -15.1558   20.3327 N   0  0  0  0  0  0
  -31.7923  -14.6624   20.1351 O   0  0  0  0  0  0
  -21.6630   -6.8794   21.4217 O   0  0  0  0  0  0
  -22.3558  -14.5554   20.6763 O   0  0  0  0  0  0
  -24.6219  -31.8678   23.2094 C   0  0  0  0  0  0
  -25.9097  -32.4811   23.8409 C   0  0  1  0  0  0
  -27.2306  -27.4353   20.0516 C   0  0  0  0  0  0
  -25.5947  -33.8619   24.2314 N   0  0  0  0  0  0
  -23.4013  -30.5022   21.5510 C   0  0  2  0  0  0
  -24.8356  -28.9557   20.1259 C   0  0  0  0  0  0
  -22.7414  -29.4685   22.4939 C   0  0  0  0  0  0
  -18.0286  -28.1324   22.8277 C   0  0  0  0  0  0
  -24.1486  -36.7348   23.2635 C   0  0  0  0  0  0
  -25.9360  -30.8322   21.3532 C   0  0  0  0  0  0
  -26.0058  -29.4645   20.6992 C   0  0  0  0  0  0
  -27.2017  -28.7097   20.6584 C   0  0  0  0  0  0
  -26.0247  -26.9238   19.5279 C   0  0  0  0  0  0
  -24.8336  -27.6736   19.5577 C   0  0  0  0  0  0
  -23.6056  -29.8373   20.1656 C   0  0  0  0  0  0
  -25.4098  -36.3118   24.0333 C   0  0  1  0  0  0
  -20.5863  -28.3593   23.1156 C   0  0  2  0  0  0
  -20.6804  -26.9383   22.5073 C   0  0  0  0  0  0
  -19.5723  -26.6016   21.5056 C   0  0  0  0  0  0
  -18.1803  -26.7963   22.1184 C   0  0  0  0  0  0
  -19.1522  -28.8702   23.2788 C   0  0  0  0  0  0
  -18.9470  -30.1189   23.8993 C   0  0  0  0  0  0
  -17.6513  -30.6420   24.0659 C   0  0  0  0  0  0
  -25.9026  -34.9479   23.5096 C   0  0  0  0  0  0
  -16.5422  -29.8999   23.6264 C   0  0  0  0  0  0
  -16.7325  -28.6484   23.0161 C   0  0  0  0  0  0
  -26.4480  -31.6618   25.0755 C   0  0  0  0  0  0
  -25.3753  -31.3781   26.1520 C   0  0  0  0  0  0
  -27.0285  -30.3069   24.6130 C   0  0  0  0  0  0
  -27.6031  -32.4348   25.7551 C   0  0  0  0  0  0
  -27.5572  -37.1839   24.8454 C   0  0  0  0  0  0
  -21.4119  -29.3214   22.3798 N   0  0  0  0  0  0
  -26.4272  -37.3811   23.9401 N   0  0  0  0  0  0
  -24.6728  -31.0807   22.0995 N   0  0  0  0  0  0
  -23.4194  -28.8044   23.2812 O   0  0  0  0  0  0
  -28.4460  -26.7764   20.0022 O   0  0  0  0  0  0
  -26.5574  -34.8942   22.4648 O   0  0  0  0  0  0
  -23.5408  -32.1433   23.7483 O   0  0  0  0  0  0
  -28.6728  -18.5189   21.4159 C   0  0  0  0  0  0
  -27.6460  -19.4958   21.4319 C   0  0  0  0  0  0
  -27.1171  -16.8774   22.2876 C   0  0  0  0  0  0
  -28.4193  -17.2044   21.8712 C   0  0  0  0  0  0
  -26.3357  -19.1782   21.8809 C   0  0  0  0  0  0
  -26.0792  -17.8378   22.2860 C   0  0  0  0  0  0
  -28.3918  -25.3912   17.7902 C   0  0  0  0  0  0
  -28.5243  -24.2483   20.0662 C   0  0  0  0  0  0
  -27.1857  -24.4755   17.4191 C   0  0  0  0  0  0
  -27.1951  -23.5508   19.7516 C   0  0  0  0  0  0
  -28.7265  -25.5490   19.2910 C   0  0  2  0  0  0
  -24.7195  -17.3871   22.7880 C   0  0  0  0  0  0
  -29.5298  -16.1572   21.9587 C   0  0  0  0  0  0
  -25.2462  -20.2730   22.0427 C   0  0  0  0  0  0
  -25.7208  -21.0796   18.4717 C   0  0  0  0  0  0
  -25.7064  -22.5725   18.0318 C   0  0  0  0  0  0
  -24.7201  -20.6449   19.5752 C   0  0  0  0  0  0
  -29.8137  -15.5083   20.6809 N   0  0  0  0  0  0
  -26.9981  -23.2787   18.2992 N   0  3  1  0  0  0
  -25.0300  -21.2094   20.9110 N   0  3  0  0  0  0
  -31.4734  -12.3782   19.1339 H   0  0  0  0  0  0
  -30.3400  -11.2640   19.8294 H   0  0  0  0  0  0
  -29.7276  -11.7289   17.4477 H   0  0  0  0  0  0
  -29.6917  -13.4448   17.7611 H   0  0  0  0  0  0
  -27.8135  -11.2993   18.8241 H   0  0  0  0  0  0
  -27.3706  -12.6275   17.7900 H   0  0  0  0  0  0
  -27.7009  -14.2411   19.5816 H   0  0  0  0  0  0
  -28.6731  -11.9119   21.3224 H   0  0  0  0  0  0
  -28.4720  -13.5445   21.8691 H   0  0  0  0  0  0
  -25.2672   -9.5599   22.4817 H   0  0  0  0  0  0
  -23.9964   -7.4541   22.7444 H   0  0  0  0  0  0
  -21.0809   -8.8789   19.8907 H   0  0  0  0  0  0
  -22.3689  -10.9673   19.6224 H   0  0  0  0  0  0
  -21.1986   -7.6094   23.9696 H   0  0  0  0  0  0
  -21.1477   -6.0491   25.9093 H   0  0  0  0  0  0
  -22.0605   -2.7549   23.2959 H   0  0  0  0  0  0
  -22.4134  -11.9905   22.4816 H   0  0  0  0  0  0
  -21.1105  -13.1226   22.2727 H   0  0  0  0  0  0
  -24.6280  -15.8029   20.4206 H   0  0  0  0  0  0
  -26.2743  -15.5909   20.0523 H   0  0  0  0  0  0
  -26.7174  -32.5465   23.1173 H   0  0  0  0  0  0
  -25.0166  -33.9767   25.0518 H   0  0  0  0  0  0
  -22.6974  -31.3236   21.4084 H   0  0  0  0  0  0
  -23.3716  -35.9707   23.3319 H   0  0  0  0  0  0
  -24.3576  -36.8947   22.2041 H   0  0  0  0  0  0
  -23.7277  -37.6583   23.6636 H   0  0  0  0  0  0
  -26.0410  -31.6020   20.5831 H   0  0  0  0  0  0
  -26.8260  -30.8854   21.9710 H   0  0  0  0  0  0
  -28.1129  -29.1132   21.0838 H   0  0  0  0  0  0
  -25.9601  -25.9391   19.1307 H   0  0  0  0  0  0
  -23.9159  -27.2578   19.1523 H   0  0  0  0  0  0
  -23.7348  -30.6088   19.4064 H   0  0  0  0  0  0
  -22.7237  -29.2751   19.8569 H   0  0  0  0  0  0
  -25.1277  -36.1977   25.0830 H   0  0  0  0  0  0
  -20.9900  -28.2911   24.1248 H   0  0  0  0  0  0
  -20.6036  -26.2195   23.3220 H   0  0  0  0  0  0
  -21.6571  -26.7731   22.0539 H   0  0  0  0  0  0
  -19.6724  -27.2206   20.6145 H   0  0  0  0  0  0
  -19.6790  -25.5676   21.1698 H   0  0  0  0  0  0
  -17.4387  -26.7274   21.3180 H   0  0  0  0  0  0
  -17.9531  -25.9953   22.8239 H   0  0  0  0  0  0
  -19.7971  -30.6850   24.2574 H   0  0  0  0  0  0
  -17.5187  -31.6024   24.5443 H   0  0  0  0  0  0
  -15.5483  -30.2899   23.7691 H   0  0  0  0  0  0
  -15.8785  -28.0839   22.6804 H   0  0  0  0  0  0
  -24.5916  -30.7111   25.7942 H   0  0  0  0  0  0
  -24.8960  -32.2964   26.4946 H   0  0  0  0  0  0
  -25.8127  -30.9030   27.0319 H   0  0  0  0  0  0
  -26.2839  -29.6874   24.1149 H   0  0  0  0  0  0
  -27.4029  -29.7266   25.4575 H   0  0  0  0  0  0
  -27.8684  -30.4394   23.9304 H   0  0  0  0  0  0
  -27.2618  -33.3626   26.2173 H   0  0  0  0  0  0
  -28.3859  -32.6962   25.0416 H   0  0  0  0  0  0
  -28.0700  -31.8470   26.5466 H   0  0  0  0  0  0
  -28.2589  -38.0144   24.7472 H   0  0  0  0  0  0
  -28.1062  -36.2663   24.6286 H   0  0  0  0  0  0
  -27.2294  -37.1528   25.8864 H   0  0  0  0  0  0
  -20.9193  -29.9646   21.7788 H   0  0  0  0  0  0
  -26.0159  -38.2886   24.1418 H   0  0  0  0  0  0
  -29.6692  -18.7815   21.0896 H   0  0  0  0  0  0
  -27.9024  -20.4947   21.1196 H   0  0  0  0  0  0
  -26.8983  -15.8698   22.6254 H   0  0  0  0  0  0
  -28.2958  -26.3709   17.3140 H   0  0  0  0  0  0
  -29.2710  -24.9409   17.3235 H   0  0  0  0  0  0
  -29.3326  -23.5606   19.8016 H   0  0  0  0  0  0
  -28.6375  -24.4271   21.1363 H   0  0  0  0  0  0
  -27.3358  -24.1110   16.4022 H   0  0  0  0  0  0
  -26.2748  -25.0622   17.3487 H   0  0  0  0  0  0
  -26.3505  -24.1048   20.1587 H   0  0  0  0  0  0
  -27.2077  -22.6049   20.2858 H   0  0  0  0  0  0
  -29.8133  -25.6578   19.2890 H   0  0  0  0  0  0
  -24.6247  -16.3031   22.7955 H   0  0  0  0  0  0
  -23.9184  -17.7550   22.1551 H   0  0  0  0  0  0
  -24.5548  -17.7397   23.8070 H   0  0  0  0  0  0
  -30.4358  -16.6459   22.3141 H   0  0  0  0  0  0
  -29.2774  -15.4262   22.7290 H   0  0  0  0  0  0
  -25.4839  -20.8702   22.9215 H   0  0  0  0  0  0
  -24.2757  -19.8471   22.2659 H   0  0  0  0  0  0
  -26.7255  -20.7600   18.7376 H   0  0  0  0  0  0
  -25.4675  -20.5049   17.5778 H   0  0  0  0  0  0
  -24.8656  -23.1212   18.4611 H   0  0  0  0  0  0
  -25.5320  -22.6056   16.9556 H   0  0  0  0  0  0
  -24.7288  -19.5570   19.6242 H   0  0  0  0  0  0
  -23.6948  -20.9106   19.3069 H   0  0  0  0  0  0
  -29.9892  -16.1987   19.9664 H   0  0  0  0  0  0
  -27.7267  -22.6428   18.0066 H   0  0  0  0  0  0
  -25.8082  -21.8355   20.8604 H   0  0  0  0  0  0
  -24.2286  -21.7649   21.1710 H   0  0  0  0  0  0
  1 25  1  0  0  0
  1 30  2  0  0  0
  1 88  1  0  0  0
  2  3  1  0  0  0
  2 25  1  0  0  0
  2 91  1  0  0  0
  2 92  1  0  0  0
  3  4  1  0  0  0
  3 93  1  0  0  0
  3 94  1  0  0  0
  4  5  1  0  0  0
  4 95  1  0  0  0
  4 96  1  0  0  0
  5  6  1  0  0  0
  5 26  1  0  0  0
  5 97  1  0  0  0
  6 25  1  0  0  0
  6 98  1  0  0  0
  6 99  1  0  0  0
  7  8  2  0  0  0
  7 26  1  0  0  0
  7 29  1  0  0  0
  8  9  1  0  0  0
  8 22  1  0  0  0
  9 10  1  0  0  0
  9 27  2  0  0  0
 10 11  2  0  0  0
 10 15  1  0  0  0
 11 12  1  0  0  0
 11100  1  0  0  0
 12 13  2  0  0  0
 12101  1  0  0  0
 13 14  1  0  0  0
 13 31  1  0  0  0
 14 15  2  0  0  0
 14102  1  0  0  0
 15103  1  0  0  0
 16 17  2  0  0  0
 16 21  1  0  0  0
 16 31  1  0  0  0
 17 18  1  0  0  0
 17104  1  0  0  0
 18 19  2  0  0  0
 18105  1  0  0  0
 19 20  1  0  0  0
 19 24  1  0  0  0
 20 21  2  0  0  0
 20106  1  0  0  0
 21 23  1  0  0  0
 22 28  1  0  0  0
 22 32  2  0  0  0
 26 27  1  0  0  0
 28107  1  0  0  0
 28108  1  0  0  0
 29109  1  0  0  0
 29110  1  0  0  0
 33 34  1  0  0  0
 33 66  1  0  0  0
 33 70  2  0  0  0
 34 36  1  0  0  0
 34 59  1  0  0  0
 34111  1  0  0  0
 35 44  2  0  0  0
 35 45  1  0  0  0
 35 68  1  0  0  0
 36 56  1  0  0  0
 36112  1  0  0  0
 37 39  1  0  0  0
 37 47  1  0  0  0
 37 66  1  0  0  0
 37113  1  0  0  0
 38 43  2  0  0  0
 38 46  1  0  0  0
 38 47  1  0  0  0
 39 64  1  0  0  0
 39 67  2  0  0  0
 40 52  1  0  0  0
 40 53  2  0  0  0
 40 58  1  0  0  0
 41114  1  0  0  0
 41115  1  0  0  0
 41116  1  0  0  0
 41 48  1  0  0  0
 42 43  1  0  0  0
 42 66  1  0  0  0
 42117  1  0  0  0
 42118  1  0  0  0
 43 44  1  0  0  0
 44119  1  0  0  0
 45 46  2  0  0  0
 45120  1  0  0  0
 46121  1  0  0  0
 47122  1  0  0  0
 47123  1  0  0  0
 48 56  1  0  0  0
 48 65  1  0  0  0
 48124  1  0  0  0
 49 50  1  0  0  0
 49 53  1  0  0  0
 49 64  1  0  0  0
 49125  1  0  0  0
 50 51  1  0  0  0
 50126  1  0  0  0
 50127  1  0  0  0
 51 52  1  0  0  0
 51128  1  0  0  0
 51129  1  0  0  0
 52130  1  0  0  0
 52131  1  0  0  0
 53 54  1  0  0  0
 54 55  2  0  0  0
 54132  1  0  0  0
 55 57  1  0  0  0
 55133  1  0  0  0
 56 69  2  0  0  0
 57 58  2  0  0  0
 57134  1  0  0  0
 58135  1  0  0  0
 59 60  1  0  0  0
 59 61  1  0  0  0
 59 62  1  0  0  0
 60136  1  0  0  0
 60137  1  0  0  0
 60138  1  0  0  0
 61139  1  0  0  0
 61140  1  0  0  0
 61141  1  0  0  0
 62142  1  0  0  0
 62143  1  0  0  0
 62144  1  0  0  0
 63 65  1  0  0  0
 63145  1  0  0  0
 63146  1  0  0  0
 63147  1  0  0  0
 64148  1  0  0  0
 65149  1  0  0  0
 68 81  1  0  0  0
 71 72  2  0  0  0
 71 74  1  0  0  0
 71150  1  0  0  0
 72 75  1  0  0  0
 72151  1  0  0  0
 73 74  2  0  0  0
 73 76  1  0  0  0
 73152  1  0  0  0
 74 83  1  0  0  0
 75 76  2  0  0  0
 75 84  1  0  0  0
 76 82  1  0  0  0
 77 79  1  0  0  0
 77 81  1  0  0  0
 77153  1  0  0  0
 77154  1  0  0  0
 78 80  1  0  0  0
 78 81  1  0  0  0
 78155  1  0  0  0
 78156  1  0  0  0
 79 89  1  0  0  0
 79157  1  0  0  0
 79158  1  0  0  0
 80 89  1  0  0  0
 80159  1  0  0  0
 80160  1  0  0  0
 81161  1  0  0  0
 82162  1  0  0  0
 82163  1  0  0  0
 82164  1  0  0  0
 83 88  1  0  0  0
 83165  1  0  0  0
 83166  1  0  0  0
 84 90  1  0  0  0
 84167  1  0  0  0
 84168  1  0  0  0
 85 86  1  0  0  0
 85 87  1  0  0  0
 85169  1  0  0  0
 85170  1  0  0  0
 86171  1  0  0  0
 86172  1  0  0  0
 86 89  1  0  0  0
 87 90  1  0  0  0
 87173  1  0  0  0
 87174  1  0  0  0
 88175  1  0  0  0
 89176  1  0  0  0
 90177  1  0  0  0
 90178  1  0  0  0
M  CHG  2  89   1  90   1
M  ISO  4   1 100  68 101  81 101  88 100
M  END
> <chiral flag>
0

> <version>
0

> <s_m_source_file>
/data/baiqing/PycharmProjects/Reinvent-master-3.2/result/LINK_invent/BTK/process_docking_weight1_custom_sum_contain_oxygen_bond_distance_aromatic_linkinvent_7_9_3/rearranged_h_0131.sdf

> <i_m_source_file_index>
62

> <r_mmod_Potential_Energy-OPLS-2005>
-193.477249145508

> <r_mmod_Stretch_Energy-OPLS-2005>
43.7559509277344

> <r_mmod_Bend_Energy-OPLS-2005>
171.016265869141

> <r_mmod_Torsional_Energy-OPLS-2005>
343.277465820312

> <r_mmod_Improper_Torsional_Energy-OPLS-2005>
18.0357418060303

> <r_mmod_Van_der_Waal_Energy-OPLS-2005>
139.735595703125

> <r_mmod_Electrostatic_Energy-OPLS-2005>
73.7671661376953

> <r_mmod_Solvation_Energy-OPLS-2005>
-1000.57611083984

> <b_mmod_Minimization_Converged-OPLS-2005>
0

> <r_mmod_RMS_Derivative-OPLS-2005>
9.83987712860107

$$$$
62
                    3D
 Structure written by MMmdl.
167176  0  0  1  0            999 V2000
  -30.6245  -14.5560   20.5553 C   0  0  0  0  0  0
  -30.4273  -12.3486   19.4315 C   0  0  0  0  0  0
  -29.5061  -12.5104   18.2024 C   0  0  0  0  0  0
  -28.0256  -12.3632   18.6082 C   0  0  0  0  0  0
  -27.6545  -13.2088   19.8565 C   0  0  2  0  0  0
  -28.6890  -13.0065   20.9854 C   0  0  0  0  0  0
  -25.2639  -13.8187   20.5602 C   0  0  0  0  0  0
  -24.1893  -13.0460   20.9141 C   0  0  0  0  0  0
  -24.6411  -11.6936   20.8697 C   0  0  0  0  0  0
  -23.9060  -10.4322   21.0323 C   0  0  0  0  0  0
  -24.3654   -9.4267   21.9094 C   0  0  0  0  0  0
  -23.6346   -8.2298   22.0697 C   0  0  0  0  0  0
  -22.4319   -8.0286   21.3514 C   0  0  0  0  0  0
  -21.9944   -9.0243   20.4603 C   0  0  0  0  0  0
  -22.7246  -10.2128   20.2980 C   0  0  0  0  0  0
  -21.6897   -6.0735   22.5283 C   0  0  0  0  0  0
  -21.4016   -6.5632   23.8200 C   0  0  0  0  0  0
  -21.3666   -5.6771   24.9152 C   0  0  0  0  0  0
  -21.6051   -4.3026   24.7208 C   0  0  0  0  0  0
  -21.8839   -3.8143   23.4316 C   0  0  0  0  0  0
  -21.9205   -4.6955   22.3361 C   0  0  0  0  0  0
  -22.7929  -13.5248   21.1803 C   0  0  0  0  0  0
  -22.1684   -4.2149   21.0923 F   0  0  0  0  0  0
  -21.5621   -3.4500   25.7695 F   0  0  0  0  0  0
  -30.0157  -13.3429   20.4392 N   0  0  0  0  0  0
  -26.3016  -12.9325   20.3222 N   0  0  0  0  0  0
  -25.9338  -11.6479   20.5661 N   0  0  0  0  0  0
  -22.0558  -12.8255   22.0349 N   0  0  0  0  0  0
  -25.4355  -15.1921   20.4067 N   0  0  0  0  0  0
  -31.7688  -14.7589   20.1326 O   0  0  0  0  0  0
  -21.6698   -6.8904   21.4255 O   0  0  0  0  0  0
  -22.3575  -14.5513   20.6639 O   0  0  0  0  0  0
  -24.6225  -31.8602   23.2026 C   0  0  0  0  0  0
  -25.9050  -32.4787   23.8374 C   0  0  1  0  0  0
  -27.2006  -27.3205   20.2517 C   0  0  0  0  0  0
  -25.5848  -33.8597   24.2259 N   0  0  0  0  0  0
  -23.4186  -30.4889   21.5334 C   0  0  2  0  0  0
  -24.8748  -28.9494   20.1037 C   0  0  0  0  0  0
  -22.7432  -29.4707   22.4844 C   0  0  0  0  0  0
  -18.0288  -28.1380   22.8507 C   0  0  0  0  0  0
  -24.1494  -36.7336   23.2658 C   0  0  0  0  0  0
  -25.9468  -30.8224   21.3542 C   0  0  0  0  0  0
  -26.0327  -29.4418   20.7224 C   0  0  0  0  0  0
  -27.2088  -28.6452   20.7723 C   0  0  0  0  0  0
  -26.0466  -26.8837   19.5696 C   0  0  0  0  0  0
  -24.8908  -27.6801   19.4999 C   0  0  0  0  0  0
  -23.6374  -29.8225   20.1446 C   0  0  0  0  0  0
  -25.4091  -36.3093   24.0337 C   0  0  1  0  0  0
  -20.5903  -28.3696   23.1253 C   0  0  2  0  0  0
  -20.6770  -26.9416   22.5419 C   0  0  0  0  0  0
  -19.5749  -26.6377   21.5197 C   0  0  0  0  0  0
  -18.1912  -26.7918   22.1607 C   0  0  0  0  0  0
  -19.1550  -28.8825   23.2904 C   0  0  0  0  0  0
  -18.9478  -30.1416   23.8931 C   0  0  0  0  0  0
  -17.6474  -30.6594   24.0559 C   0  0  0  0  0  0
  -25.9027  -34.9470   23.5111 C   0  0  0  0  0  0
  -16.5355  -29.9125   23.6306 C   0  0  0  0  0  0
  -16.7256  -28.6533   23.0345 C   0  0  0  0  0  0
  -26.4460  -31.6583   25.0696 C   0  0  0  0  0  0
  -25.3732  -31.3658   26.1426 C   0  0  0  0  0  0
  -27.0281  -30.3028   24.6061 C   0  0  0  0  0  0
  -27.6031  -32.4295   25.7444 C   0  0  0  0  0  0
  -27.5568  -37.1813   24.8444 C   0  0  0  0  0  0
  -21.4162  -29.3058   22.3594 N   0  0  0  0  0  0
  -26.4249  -37.3783   23.9406 N   0  0  0  0  0  0
  -24.6812  -31.0750   22.0903 N   0  0  0  0  0  0
  -23.4171  -28.8202   23.2891 O   0  0  0  0  0  0
  -28.2512  -26.4246   20.4352 O   0  0  0  0  0  0
  -26.5640  -34.8932   22.4704 O   0  0  0  0  0  0
  -23.5379  -32.1346   23.7383 O   0  0  0  0  0  0
  -28.4565  -22.5224   21.3903 C   0  0  0  0  0  0
  -29.8790  -19.2770   22.3290 C   0  0  0  0  0  0
  -29.0817  -19.2719   19.9387 C   0  0  0  0  0  0
  -29.8075  -17.7113   22.3254 C   0  0  0  0  0  0
  -29.0361  -17.7179   19.9541 C   0  0  0  0  0  0
  -30.2794  -24.3260   20.9085 C   0  0  0  0  0  0
  -30.5651  -25.2189   22.1470 C   0  0  0  0  0  0
  -28.1391  -25.3798   22.7359 C   0  0  0  0  0  0
  -28.7944  -23.9267   20.7316 C   0  0  2  0  0  0
  -28.9343  -19.9814   21.3044 C   0  0  2  0  0  0
  -30.0249  -17.0490   20.9409 C   0  0  2  0  0  0
  -27.9386  -25.1720   21.1945 C   0  0  2  0  0  0
  -29.2236  -21.4349   21.0890 N   0  0  0  0  0  0
  -29.8251  -15.5721   20.9789 N   0  0  0  0  0  0
  -29.5308  -25.1031   23.2022 N   0  3  0  0  0  0
  -27.4874  -22.4111   22.1387 O   0  0  0  0  0  0
  -31.4700  -12.4691   19.1286 H   0  0  0  0  0  0
  -30.3334  -11.3338   19.8255 H   0  0  0  0  0  0
  -29.7604  -11.7679   17.4472 H   0  0  0  0  0  0
  -29.6786  -13.4853   17.7410 H   0  0  0  0  0  0
  -27.8443  -11.3049   18.8033 H   0  0  0  0  0  0
  -27.3838  -12.6234   17.7672 H   0  0  0  0  0  0
  -27.6915  -14.2555   19.5524 H   0  0  0  0  0  0
  -28.6787  -11.9723   21.3216 H   0  0  0  0  0  0
  -28.4312  -13.6133   21.8573 H   0  0  0  0  0  0
  -25.2821   -9.5756   22.4666 H   0  0  0  0  0  0
  -24.0050   -7.4702   22.7441 H   0  0  0  0  0  0
  -21.0846   -8.8782   19.8950 H   0  0  0  0  0  0
  -22.3687  -10.9669   19.6093 H   0  0  0  0  0  0
  -21.2024   -7.6144   23.9705 H   0  0  0  0  0  0
  -21.1470   -6.0471   25.9027 H   0  0  0  0  0  0
  -22.0619   -2.7611   23.2796 H   0  0  0  0  0  0
  -22.4197  -12.0000   22.4851 H   0  0  0  0  0  0
  -21.1115  -13.1210   22.2451 H   0  0  0  0  0  0
  -24.6700  -15.8483   20.5198 H   0  0  0  0  0  0
  -26.2836  -15.6324   20.0775 H   0  0  0  0  0  0
  -26.7124  -32.5505   23.1144 H   0  0  0  0  0  0
  -24.9864  -33.9724   25.0312 H   0  0  0  0  0  0
  -22.7103  -31.3091   21.3844 H   0  0  0  0  0  0
  -23.3749  -35.9697   23.3292 H   0  0  0  0  0  0
  -24.3592  -36.8970   22.2090 H   0  0  0  0  0  0
  -23.7262  -37.6536   23.6677 H   0  0  0  0  0  0
  -26.0467  -31.5794   20.5782 H   0  0  0  0  0  0
  -26.8407  -30.8957   21.9594 H   0  0  0  0  0  0
  -28.0889  -29.0236   21.2739 H   0  0  0  0  0  0
  -26.0247  -25.8940   19.1381 H   0  0  0  0  0  0
  -24.0044  -27.2922   19.0122 H   0  0  0  0  0  0
  -23.7564  -30.5971   19.3866 H   0  0  0  0  0  0
  -22.7612  -29.2445   19.8414 H   0  0  0  0  0  0
  -25.1315  -36.1962   25.0828 H   0  0  0  0  0  0
  -21.0027  -28.3302   24.1364 H   0  0  0  0  0  0
  -20.5569  -26.2345   23.3665 H   0  0  0  0  0  0
  -21.6651  -26.7362   22.1261 H   0  0  0  0  0  0
  -19.6908  -25.6283   21.1250 H   0  0  0  0  0  0
  -19.6693  -27.3189   20.6746 H   0  0  0  0  0  0
  -17.4211  -26.6680   21.4002 H   0  0  0  0  0  0
  -18.0292  -26.0024   22.8984 H   0  0  0  0  0  0
  -19.7942  -30.7210   24.2330 H   0  0  0  0  0  0
  -17.5045  -31.6273   24.5180 H   0  0  0  0  0  0
  -15.5366  -30.3059   23.7580 H   0  0  0  0  0  0
  -15.8649  -28.0844   22.7058 H   0  0  0  0  0  0
  -24.5864  -30.7061   25.7726 H   0  0  0  0  0  0
  -24.8983  -32.2813   26.4978 H   0  0  0  0  0  0
  -25.8104  -30.8716   27.0116 H   0  0  0  0  0  0
  -26.2808  -29.6736   24.1208 H   0  0  0  0  0  0
  -27.4143  -29.7286   25.4499 H   0  0  0  0  0  0
  -27.8600  -30.4292   23.9125 H   0  0  0  0  0  0
  -27.2635  -33.3542   26.2107 H   0  0  0  0  0  0
  -28.3818  -32.6935   25.0279 H   0  0  0  0  0  0
  -28.0729  -31.8368   26.5286 H   0  0  0  0  0  0
  -28.2599  -38.0113   24.7527 H   0  0  0  0  0  0
  -28.1080  -36.2659   24.6257 H   0  0  0  0  0  0
  -27.2311  -37.1445   25.8854 H   0  0  0  0  0  0
  -20.9274  -29.8815   21.6858 H   0  0  0  0  0  0
  -26.0177  -38.2866   24.1441 H   0  0  0  0  0  0
  -30.9109  -19.5751   22.1351 H   0  0  0  0  0  0
  -29.6512  -19.6344   23.3368 H   0  0  0  0  0  0
  -28.3080  -19.6436   19.2640 H   0  0  0  0  0  0
  -30.0321  -19.5735   19.4970 H   0  0  0  0  0  0
  -28.8416  -17.3913   22.7256 H   0  0  0  0  0  0
  -30.5494  -17.3146   23.0222 H   0  0  0  0  0  0
  -29.2438  -17.3658   18.9435 H   0  0  0  0  0  0
  -28.0121  -17.4048   20.1811 H   0  0  0  0  0  0
  -30.9287  -23.4531   20.9330 H   0  0  0  0  0  0
  -30.5910  -24.8816   20.0225 H   0  0  0  0  0  0
  -30.5883  -26.2684   21.8445 H   0  0  0  0  0  0
  -31.5525  -24.9979   22.5527 H   0  0  0  0  0  0
  -27.4993  -24.6903   23.2920 H   0  0  0  0  0  0
  -27.8146  -26.3685   23.0566 H   0  0  0  0  0  0
  -28.5874  -23.7772   19.6714 H   0  0  0  0  0  0
  -27.9057  -19.8584   21.6450 H   0  0  0  0  0  0
  -31.0378  -17.2730   20.6059 H   0  0  0  0  0  0
  -26.8880  -24.9171   21.0458 H   0  0  0  0  0  0
  -30.0212  -21.6216   20.4999 H   0  0  0  0  0  0
  -28.8992  -15.2722   21.2531 H   0  0  0  0  0  0
  -29.7594  -25.7317   23.9601 H   0  0  0  0  0  0
  -29.5881  -24.1806   23.6141 H   0  0  0  0  0  0
  1 25  1  0  0  0
  1 30  2  0  0  0
  1 84  1  0  0  0
  2  3  1  0  0  0
  2 25  1  0  0  0
  2 87  1  0  0  0
  2 88  1  0  0  0
  3  4  1  0  0  0
  3 89  1  0  0  0
  3 90  1  0  0  0
  4  5  1  0  0  0
  4 91  1  0  0  0
  4 92  1  0  0  0
  5  6  1  0  0  0
  5 26  1  0  0  0
  5 93  1  0  0  0
  6 25  1  0  0  0
  6 94  1  0  0  0
  6 95  1  0  0  0
  7  8  2  0  0  0
  7 26  1  0  0  0
  7 29  1  0  0  0
  8  9  1  0  0  0
  8 22  1  0  0  0
  9 10  1  0  0  0
  9 27  2  0  0  0
 10 11  2  0  0  0
 10 15  1  0  0  0
 11 12  1  0  0  0
 11 96  1  0  0  0
 12 13  2  0  0  0
 12 97  1  0  0  0
 13 14  1  0  0  0
 13 31  1  0  0  0
 14 15  2  0  0  0
 14 98  1  0  0  0
 15 99  1  0  0  0
 16 17  2  0  0  0
 16 21  1  0  0  0
 16 31  1  0  0  0
 17 18  1  0  0  0
 17100  1  0  0  0
 18 19  2  0  0  0
 18101  1  0  0  0
 19 20  1  0  0  0
 19 24  1  0  0  0
 20 21  2  0  0  0
 20102  1  0  0  0
 21 23  1  0  0  0
 22 28  1  0  0  0
 22 32  2  0  0  0
 26 27  1  0  0  0
 28103  1  0  0  0
 28104  1  0  0  0
 29105  1  0  0  0
 29106  1  0  0  0
 33 34  1  0  0  0
 33 66  1  0  0  0
 33 70  2  0  0  0
 34 36  1  0  0  0
 34 59  1  0  0  0
 34107  1  0  0  0
 35 44  2  0  0  0
 35 45  1  0  0  0
 35 68  1  0  0  0
 36 56  1  0  0  0
 36108  1  0  0  0
 37 39  1  0  0  0
 37 47  1  0  0  0
 37 66  1  0  0  0
 37109  1  0  0  0
 38 43  2  0  0  0
 38 46  1  0  0  0
 38 47  1  0  0  0
 39 64  1  0  0  0
 39 67  2  0  0  0
 40 52  1  0  0  0
 40 53  2  0  0  0
 40 58  1  0  0  0
 41110  1  0  0  0
 41111  1  0  0  0
 41112  1  0  0  0
 41 48  1  0  0  0
 42 43  1  0  0  0
 42 66  1  0  0  0
 42113  1  0  0  0
 42114  1  0  0  0
 43 44  1  0  0  0
 44115  1  0  0  0
 45 46  2  0  0  0
 45116  1  0  0  0
 46117  1  0  0  0
 47118  1  0  0  0
 47119  1  0  0  0
 48 56  1  0  0  0
 48 65  1  0  0  0
 48120  1  0  0  0
 49 50  1  0  0  0
 49 53  1  0  0  0
 49 64  1  0  0  0
 49121  1  0  0  0
 50 51  1  0  0  0
 50122  1  0  0  0
 50123  1  0  0  0
 51 52  1  0  0  0
 51124  1  0  0  0
 51125  1  0  0  0
 52126  1  0  0  0
 52127  1  0  0  0
 53 54  1  0  0  0
 54 55  2  0  0  0
 54128  1  0  0  0
 55 57  1  0  0  0
 55129  1  0  0  0
 56 69  2  0  0  0
 57 58  2  0  0  0
 57130  1  0  0  0
 58131  1  0  0  0
 59 60  1  0  0  0
 59 61  1  0  0  0
 59 62  1  0  0  0
 60132  1  0  0  0
 60133  1  0  0  0
 60134  1  0  0  0
 61135  1  0  0  0
 61136  1  0  0  0
 61137  1  0  0  0
 62138  1  0  0  0
 62139  1  0  0  0
 62140  1  0  0  0
 63 65  1  0  0  0
 63141  1  0  0  0
 63142  1  0  0  0
 63143  1  0  0  0
 64144  1  0  0  0
 65145  1  0  0  0
 68 82  1  0  0  0
 71 83  1  0  0  0
 71 86  2  0  0  0
 71 79  1  0  0  0
 72 74  1  0  0  0
 72 80  1  0  0  0
 72146  1  0  0  0
 72147  1  0  0  0
 73 75  1  0  0  0
 73 80  1  0  0  0
 73148  1  0  0  0
 73149  1  0  0  0
 74 81  1  0  0  0
 74150  1  0  0  0
 74151  1  0  0  0
 75 81  1  0  0  0
 75152  1  0  0  0
 75153  1  0  0  0
 76 77  1  0  0  0
 76 79  1  0  0  0
 76154  1  0  0  0
 76155  1  0  0  0
 77 85  1  0  0  0
 77156  1  0  0  0
 77157  1  0  0  0
 78 82  1  0  0  0
 78 85  1  0  0  0
 78158  1  0  0  0
 78159  1  0  0  0
 79 82  1  0  0  0
 79160  1  0  0  0
 80 83  1  0  0  0
 80161  1  0  0  0
 81 84  1  0  0  0
 81162  1  0  0  0
 82163  1  0  0  0
 83164  1  0  0  0
 84165  1  0  0  0
 85166  1  0  0  0
 85167  1  0  0  0
M  CHG  1  85   1
M  ISO  4   1 100  68 101  82 101  84 100
M  END
> <chiral flag>
0

> <version>
0

> <s_m_source_file>
/data/baiqing/PycharmProjects/Reinvent-master-3.2/result/LINK_invent/BTK/process_docking_weight1_custom_sum_contain_oxygen_bond_distance_aromatic_linkinvent_7_9_3/rearranged_h_0131.sdf

> <i_m_source_file_index>
63

> <r_mmod_Potential_Energy-OPLS-2005>
-124.67317199707

> <r_mmod_Stretch_Energy-OPLS-2005>
69.3985061645508

> <r_mmod_Bend_Energy-OPLS-2005>
127.183486938477

> <r_mmod_Torsional_Energy-OPLS-2005>
297.644958496094

> <r_mmod_Improper_Torsional_Energy-OPLS-2005>
5.39875221252441

> <r_mmod_Van_der_Waal_Energy-OPLS-2005>
132.660018920898

> <r_mmod_Electrostatic_Energy-OPLS-2005>
-367.446563720703

> <r_mmod_Solvation_Energy-OPLS-2005>
-446.85498046875

> <b_mmod_Minimization_Converged-OPLS-2005>
0

> <r_mmod_RMS_Derivative-OPLS-2005>
9.13215065002441

$$$$
63
                    3D
 Structure written by MMmdl.
162171  0  0  1  0            999 V2000
  -30.7443  -14.4044   20.6599 C   0  0  0  0  0  0
  -30.4181  -12.2980   19.4067 C   0  0  0  0  0  0
  -29.4917  -12.5281   18.1972 C   0  0  0  0  0  0
  -28.0140  -12.3727   18.6064 C   0  0  0  0  0  0
  -27.6628  -13.2025   19.8699 C   0  0  2  0  0  0
  -28.6979  -12.9594   20.9909 C   0  0  0  0  0  0
  -25.2588  -13.8148   20.5619 C   0  0  0  0  0  0
  -24.1839  -13.0436   20.9146 C   0  0  0  0  0  0
  -24.6388  -11.6899   20.8701 C   0  0  0  0  0  0
  -23.9048  -10.4289   21.0378 C   0  0  0  0  0  0
  -24.3613   -9.4216   21.9156 C   0  0  0  0  0  0
  -23.6300   -8.2249   22.0743 C   0  0  0  0  0  0
  -22.4277   -8.0278   21.3545 C   0  0  0  0  0  0
  -21.9904   -9.0240   20.4642 C   0  0  0  0  0  0
  -22.7219  -10.2123   20.3037 C   0  0  0  0  0  0
  -21.6862   -6.0737   22.5279 C   0  0  0  0  0  0
  -21.4023   -6.5637   23.8212 C   0  0  0  0  0  0
  -21.3657   -5.6785   24.9168 C   0  0  0  0  0  0
  -21.6040   -4.3048   24.7219 C   0  0  0  0  0  0
  -21.8823   -3.8146   23.4340 C   0  0  0  0  0  0
  -21.9203   -4.6966   22.3401 C   0  0  0  0  0  0
  -22.7865  -13.5239   21.1823 C   0  0  0  0  0  0
  -22.1673   -4.2155   21.0981 F   0  0  0  0  0  0
  -21.5619   -3.4534   25.7733 F   0  0  0  0  0  0
  -30.0432  -13.2557   20.4572 N   0  0  0  0  0  0
  -26.3023  -12.9313   20.3300 N   0  0  0  0  0  0
  -25.9306  -11.6475   20.5692 N   0  0  0  0  0  0
  -22.0522  -12.8226   22.0390 N   0  0  0  0  0  0
  -25.4304  -15.1861   20.3983 N   0  0  0  0  0  0
  -31.8028  -14.6553   20.0740 O   0  0  0  0  0  0
  -21.6646   -6.8875   21.4242 O   0  0  0  0  0  0
  -22.3536  -14.5535   20.6661 O   0  0  0  0  0  0
  -24.6082  -31.8711   23.2110 C   0  0  0  0  0  0
  -25.8987  -32.4835   23.8392 C   0  0  1  0  0  0
  -27.2479  -27.4770   20.0963 C   0  0  0  0  0  0
  -25.5844  -33.8631   24.2332 N   0  0  0  0  0  0
  -23.3935  -30.4910   21.5519 C   0  0  2  0  0  0
  -24.8455  -28.9599   20.1195 C   0  0  0  0  0  0
  -22.7360  -29.4656   22.5020 C   0  0  0  0  0  0
  -18.0240  -28.1327   22.8481 C   0  0  0  0  0  0
  -24.1480  -36.7348   23.2622 C   0  0  0  0  0  0
  -25.9159  -30.8498   21.3574 C   0  0  0  0  0  0
  -25.9996  -29.4829   20.7173 C   0  0  0  0  0  0
  -27.2023  -28.7468   20.7143 C   0  0  0  0  0  0
  -26.0825  -26.9664   19.4870 C   0  0  0  0  0  0
  -24.8788  -27.6952   19.5062 C   0  0  0  0  0  0
  -23.6023  -29.8171   20.1679 C   0  0  0  0  0  0
  -25.4089  -36.3126   24.0337 C   0  0  1  0  0  0
  -20.5824  -28.3608   23.1340 C   0  0  2  0  0  0
  -20.6726  -26.9354   22.5405 C   0  0  0  0  0  0
  -19.5711  -26.6353   21.5186 C   0  0  0  0  0  0
  -18.1894  -26.7868   22.1614 C   0  0  0  0  0  0
  -19.1486  -28.8784   23.2904 C   0  0  0  0  0  0
  -18.9416  -30.1395   23.8900 C   0  0  0  0  0  0
  -17.6424  -30.6557   24.0530 C   0  0  0  0  0  0
  -25.9018  -34.9490   23.5147 C   0  0  0  0  0  0
  -16.5315  -29.9056   23.6293 C   0  0  0  0  0  0
  -16.7232  -28.6468   23.0320 C   0  0  0  0  0  0
  -26.4444  -31.6574   25.0686 C   0  0  0  0  0  0
  -25.3766  -31.3700   26.1504 C   0  0  0  0  0  0
  -27.0191  -30.2997   24.5991 C   0  0  0  0  0  0
  -27.6083  -32.4248   25.7378 C   0  0  0  0  0  0
  -27.5622  -37.1751   24.8410 C   0  0  0  0  0  0
  -21.4083  -29.3014   22.3786 N   0  0  0  0  0  0
  -26.4263  -37.3835   23.9465 N   0  0  0  0  0  0
  -24.6571  -31.0844   22.0995 N   0  0  0  0  0  0
  -23.4166  -28.8190   23.3025 O   0  0  0  0  0  0
  -28.3740  -26.6937   20.0264 O   0  0  0  0  0  0
  -26.5603  -34.8934   22.4719 O   0  0  0  0  0  0
  -23.5288  -32.1440   23.7537 O   0  0  0  0  0  0
  -29.6431  -18.7998   22.5089 C   0  0  0  0  0  0
  -32.0326  -18.4784   22.1675 C   0  0  0  0  0  0
  -30.1356  -24.9430   22.5805 C   0  0  0  0  0  0
  -29.4119  -17.4545   22.1670 C   0  0  0  0  0  0
  -31.8019  -17.1302   21.8199 C   0  0  0  0  0  0
  -30.6881  -23.6626   22.7807 C   0  0  0  0  0  0
  -30.5091  -24.7282   20.1873 C   0  0  0  0  0  0
  -30.9545  -19.3168   22.5254 C   0  0  0  0  0  0
  -30.0265  -25.4742   21.2798 C   0  0  0  0  0  0
  -31.0574  -23.4422   20.3792 C   0  0  0  0  0  0
  -30.4852  -16.6086   21.8156 C   0  0  0  0  0  0
  -31.1372  -22.8918   21.6820 C   0  0  0  0  0  0
  -31.5304  -22.6573   19.1669 C   0  0  0  0  0  0
  -31.1905  -20.7577   22.9433 C   0  0  0  0  0  0
  -29.3627  -26.8200   21.0432 C   0  0  0  0  0  0
  -30.1735  -15.2511   21.5321 N   0  0  0  0  0  0
  -31.6515  -21.5957   21.8421 N   0  0  0  0  0  0
  -31.4646  -12.3909   19.1103 H   0  0  0  0  0  0
  -30.3052  -11.2800   19.7831 H   0  0  0  0  0  0
  -29.7366  -11.8302   17.3960 H   0  0  0  0  0  0
  -29.6568  -13.5287   17.7935 H   0  0  0  0  0  0
  -27.8270  -11.3131   18.7907 H   0  0  0  0  0  0
  -27.3623  -12.6546   17.7776 H   0  0  0  0  0  0
  -27.7144  -14.2535   19.5835 H   0  0  0  0  0  0
  -28.6630  -11.9188   21.3154 H   0  0  0  0  0  0
  -28.4325  -13.5399   21.8749 H   0  0  0  0  0  0
  -25.2766   -9.5704   22.4708 H   0  0  0  0  0  0
  -24.0028   -7.4643   22.7452 H   0  0  0  0  0  0
  -21.0844   -8.8741   19.8941 H   0  0  0  0  0  0
  -22.3669  -10.9649   19.6134 H   0  0  0  0  0  0
  -21.2018   -7.6145   23.9716 H   0  0  0  0  0  0
  -21.1475   -6.0511   25.9070 H   0  0  0  0  0  0
  -22.0605   -2.7613   23.2833 H   0  0  0  0  0  0
  -22.4171  -11.9902   22.4777 H   0  0  0  0  0  0
  -21.1124  -13.1208   22.2585 H   0  0  0  0  0  0
  -24.6554  -15.8365   20.4657 H   0  0  0  0  0  0
  -26.2781  -15.6165   20.0502 H   0  0  0  0  0  0
  -26.7056  -32.5579   23.1154 H   0  0  0  0  0  0
  -24.9880  -33.9783   25.0400 H   0  0  0  0  0  0
  -22.6778  -31.3037   21.4113 H   0  0  0  0  0  0
  -23.3783  -35.9629   23.3123 H   0  0  0  0  0  0
  -24.3638  -36.9139   22.2076 H   0  0  0  0  0  0
  -23.7135  -37.6463   23.6743 H   0  0  0  0  0  0
  -26.0139  -31.6086   20.5804 H   0  0  0  0  0  0
  -26.8085  -30.9164   21.9667 H   0  0  0  0  0  0
  -28.0877  -29.1656   21.1725 H   0  0  0  0  0  0
  -26.1077  -25.9982   19.0059 H   0  0  0  0  0  0
  -23.9915  -27.2813   19.0467 H   0  0  0  0  0  0
  -23.7035  -30.5856   19.4004 H   0  0  0  0  0  0
  -22.7294  -29.2272   19.8801 H   0  0  0  0  0  0
  -25.1236  -36.1977   25.0821 H   0  0  0  0  0  0
  -20.9898  -28.3129   24.1465 H   0  0  0  0  0  0
  -20.5601  -26.2187   23.3561 H   0  0  0  0  0  0
  -21.6607  -26.7400   22.1216 H   0  0  0  0  0  0
  -19.6864  -25.6269   21.1190 H   0  0  0  0  0  0
  -19.6635  -27.3181   20.6726 H   0  0  0  0  0  0
  -17.4148  -26.6570   21.4032 H   0  0  0  0  0  0
  -18.0332  -26.0016   22.9022 H   0  0  0  0  0  0
  -19.7901  -30.7189   24.2286 H   0  0  0  0  0  0
  -17.4989  -31.6254   24.5096 H   0  0  0  0  0  0
  -15.5310  -30.2953   23.7619 H   0  0  0  0  0  0
  -15.8628  -28.0801   22.7015 H   0  0  0  0  0  0
  -24.5686  -30.7383   25.7797 H   0  0  0  0  0  0
  -24.9299  -32.2908   26.5279 H   0  0  0  0  0  0
  -25.8110  -30.8492   27.0052 H   0  0  0  0  0  0
  -26.2635  -29.6761   24.1196 H   0  0  0  0  0  0
  -27.4107  -29.7230   25.4378 H   0  0  0  0  0  0
  -27.8437  -30.4277   23.8975 H   0  0  0  0  0  0
  -27.2776  -33.3554   26.2000 H   0  0  0  0  0  0
  -28.3833  -32.6789   25.0133 H   0  0  0  0  0  0
  -28.0807  -31.8331   26.5231 H   0  0  0  0  0  0
  -28.2463  -38.0223   24.7775 H   0  0  0  0  0  0
  -28.1283  -36.2790   24.5811 H   0  0  0  0  0  0
  -27.2409  -37.0911   25.8805 H   0  0  0  0  0  0
  -20.9192  -29.8808   21.7109 H   0  0  0  0  0  0
  -26.0145  -38.2877   24.1616 H   0  0  0  0  0  0
  -28.8045  -19.4309   22.7699 H   0  0  0  0  0  0
  -33.0432  -18.8645   22.1772 H   0  0  0  0  0  0
  -29.7774  -25.5056   23.4322 H   0  0  0  0  0  0
  -28.3971  -17.0796   22.1743 H   0  0  0  0  0  0
  -32.6486  -16.5044   21.5751 H   0  0  0  0  0  0
  -30.7460  -23.2833   23.7910 H   0  0  0  0  0  0
  -30.4283  -25.1394   19.1912 H   0  0  0  0  0  0
  -31.3801  -23.2147   18.2411 H   0  0  0  0  0  0
  -30.9793  -21.7204   19.0831 H   0  0  0  0  0  0
  -32.5925  -22.4286   19.2518 H   0  0  0  0  0  0
  -31.9398  -20.7743   23.7369 H   0  0  0  0  0  0
  -30.2690  -21.1403   23.3836 H   0  0  0  0  0  0
  -30.1148  -27.5488   20.7357 H   0  0  0  0  0  0
  -28.9382  -27.1663   21.9860 H   0  0  0  0  0  0
  -29.2973  -14.9174   21.9042 H   0  0  0  0  0  0
  -31.8872  -21.0958   20.9921 H   0  0  0  0  0  0
  1 25  1  0  0  0
  1 30  2  0  0  0
  1 86  1  0  0  0
  2  3  1  0  0  0
  2 25  1  0  0  0
  2 88  1  0  0  0
  2 89  1  0  0  0
  3  4  1  0  0  0
  3 90  1  0  0  0
  3 91  1  0  0  0
  4  5  1  0  0  0
  4 92  1  0  0  0
  4 93  1  0  0  0
  5  6  1  0  0  0
  5 26  1  0  0  0
  5 94  1  0  0  0
  6 25  1  0  0  0
  6 95  1  0  0  0
  6 96  1  0  0  0
  7  8  2  0  0  0
  7 26  1  0  0  0
  7 29  1  0  0  0
  8  9  1  0  0  0
  8 22  1  0  0  0
  9 10  1  0  0  0
  9 27  2  0  0  0
 10 11  2  0  0  0
 10 15  1  0  0  0
 11 12  1  0  0  0
 11 97  1  0  0  0
 12 13  2  0  0  0
 12 98  1  0  0  0
 13 14  1  0  0  0
 13 31  1  0  0  0
 14 15  2  0  0  0
 14 99  1  0  0  0
 15100  1  0  0  0
 16 17  2  0  0  0
 16 21  1  0  0  0
 16 31  1  0  0  0
 17 18  1  0  0  0
 17101  1  0  0  0
 18 19  2  0  0  0
 18102  1  0  0  0
 19 20  1  0  0  0
 19 24  1  0  0  0
 20 21  2  0  0  0
 20103  1  0  0  0
 21 23  1  0  0  0
 22 28  1  0  0  0
 22 32  2  0  0  0
 26 27  1  0  0  0
 28104  1  0  0  0
 28105  1  0  0  0
 29106  1  0  0  0
 29107  1  0  0  0
 33 34  1  0  0  0
 33 66  1  0  0  0
 33 70  2  0  0  0
 34 36  1  0  0  0
 34 59  1  0  0  0
 34108  1  0  0  0
 35 44  2  0  0  0
 35 45  1  0  0  0
 35 68  1  0  0  0
 36 56  1  0  0  0
 36109  1  0  0  0
 37 39  1  0  0  0
 37 47  1  0  0  0
 37 66  1  0  0  0
 37110  1  0  0  0
 38 43  2  0  0  0
 38 46  1  0  0  0
 38 47  1  0  0  0
 39 64  1  0  0  0
 39 67  2  0  0  0
 40 52  1  0  0  0
 40 53  2  0  0  0
 40 58  1  0  0  0
 41111  1  0  0  0
 41112  1  0  0  0
 41113  1  0  0  0
 41 48  1  0  0  0
 42 43  1  0  0  0
 42 66  1  0  0  0
 42114  1  0  0  0
 42115  1  0  0  0
 43 44  1  0  0  0
 44116  1  0  0  0
 45 46  2  0  0  0
 45117  1  0  0  0
 46118  1  0  0  0
 47119  1  0  0  0
 47120  1  0  0  0
 48 56  1  0  0  0
 48 65  1  0  0  0
 48121  1  0  0  0
 49 50  1  0  0  0
 49 53  1  0  0  0
 49 64  1  0  0  0
 49122  1  0  0  0
 50 51  1  0  0  0
 50123  1  0  0  0
 50124  1  0  0  0
 51 52  1  0  0  0
 51125  1  0  0  0
 51126  1  0  0  0
 52127  1  0  0  0
 52128  1  0  0  0
 53 54  1  0  0  0
 54 55  2  0  0  0
 54129  1  0  0  0
 55 57  1  0  0  0
 55130  1  0  0  0
 56 69  2  0  0  0
 57 58  2  0  0  0
 57131  1  0  0  0
 58132  1  0  0  0
 59 60  1  0  0  0
 59 61  1  0  0  0
 59 62  1  0  0  0
 60133  1  0  0  0
 60134  1  0  0  0
 60135  1  0  0  0
 61136  1  0  0  0
 61137  1  0  0  0
 61138  1  0  0  0
 62139  1  0  0  0
 62140  1  0  0  0
 62141  1  0  0  0
 63 65  1  0  0  0
 63142  1  0  0  0
 63143  1  0  0  0
 63144  1  0  0  0
 64145  1  0  0  0
 65146  1  0  0  0
 68 85  1  0  0  0
 71 74  2  0  0  0
 71 78  1  0  0  0
 71147  1  0  0  0
 72 75  1  0  0  0
 72 78  2  0  0  0
 72148  1  0  0  0
 73 76  2  0  0  0
 73 79  1  0  0  0
 73149  1  0  0  0
 74 81  1  0  0  0
 74150  1  0  0  0
 75 81  2  0  0  0
 75151  1  0  0  0
 76 82  1  0  0  0
 76152  1  0  0  0
 77 79  2  0  0  0
 77 80  1  0  0  0
 77153  1  0  0  0
 78 84  1  0  0  0
 79 85  1  0  0  0
 80 82  2  0  0  0
 80 83  1  0  0  0
 81 86  1  0  0  0
 82 87  1  0  0  0
 83154  1  0  0  0
 83155  1  0  0  0
 83156  1  0  0  0
 84 87  1  0  0  0
 84157  1  0  0  0
 84158  1  0  0  0
 85159  1  0  0  0
 85160  1  0  0  0
 86161  1  0  0  0
 87162  1  0  0  0
M  ISO  4   1 100  68 101  85 101  86 100
M  END
> <chiral flag>
0

> <version>
0

> <s_m_source_file>
/data/baiqing/PycharmProjects/Reinvent-master-3.2/result/LINK_invent/BTK/process_docking_weight1_custom_sum_contain_oxygen_bond_distance_aromatic_linkinvent_7_9_3/rearranged_h_0131.sdf

> <i_m_source_file_index>
64

> <r_mmod_Potential_Energy-OPLS-2005>
-93.0773391723633

> <r_mmod_Stretch_Energy-OPLS-2005>
33.8323707580566

> <r_mmod_Bend_Energy-OPLS-2005>
103.067504882812

> <r_mmod_Torsional_Energy-OPLS-2005>
222.016632080078

> <r_mmod_Improper_Torsional_Energy-OPLS-2005>
5.16076755523682

> <r_mmod_Van_der_Waal_Energy-OPLS-2005>
178.7548828125

> <r_mmod_Electrostatic_Energy-OPLS-2005>
-432.454406738281

> <r_mmod_Solvation_Energy-OPLS-2005>
-210.183303833008

> <b_mmod_Minimization_Converged-OPLS-2005>
0

> <r_mmod_RMS_Derivative-OPLS-2005>
2.36734008789062

$$$$
64
                    3D
 Structure written by MMmdl.
184193  0  0  1  0            999 V2000
  -30.5174  -14.9527   20.3960 C   0  0  0  0  0  0
  -30.4352  -12.5778   19.5092 C   0  0  0  0  0  0
  -29.5192  -12.5245   18.2632 C   0  0  0  0  0  0
  -28.0500  -12.3161   18.6751 C   0  0  0  0  0  0
  -27.6294  -13.2465   19.8424 C   0  0  2  0  0  0
  -28.6691  -13.2691   20.9849 C   0  0  0  0  0  0
  -25.2450  -13.8219   20.5701 C   0  0  0  0  0  0
  -24.1762  -13.0425   20.9208 C   0  0  0  0  0  0
  -24.6373  -11.6918   20.8733 C   0  0  0  0  0  0
  -23.9057  -10.4284   21.0382 C   0  0  0  0  0  0
  -24.3614   -9.4207   21.9166 C   0  0  0  0  0  0
  -23.6286   -8.2245   22.0753 C   0  0  0  0  0  0
  -22.4269   -8.0272   21.3541 C   0  0  0  0  0  0
  -21.9902   -9.0235   20.4644 C   0  0  0  0  0  0
  -22.7227  -10.2119   20.3041 C   0  0  0  0  0  0
  -21.6862   -6.0718   22.5263 C   0  0  0  0  0  0
  -21.4018   -6.5637   23.8188 C   0  0  0  0  0  0
  -21.3657   -5.6797   24.9161 C   0  0  0  0  0  0
  -21.6045   -4.3056   24.7220 C   0  0  0  0  0  0
  -21.8824   -3.8136   23.4349 C   0  0  0  0  0  0
  -21.9193   -4.6941   22.3402 C   0  0  0  0  0  0
  -22.7786  -13.5188   21.1867 C   0  0  0  0  0  0
  -22.1662   -4.2127   21.0978 F   0  0  0  0  0  0
  -21.5630   -3.4547   25.7742 F   0  0  0  0  0  0
  -29.9503  -13.6783   20.3956 N   0  0  0  0  0  0
  -26.2875  -12.9448   20.3260 N   0  0  0  0  0  0
  -25.9312  -11.6574   20.5743 N   0  0  0  0  0  0
  -22.0465  -12.8165   22.0441 N   0  0  0  0  0  0
  -25.4115  -15.1945   20.4131 N   0  0  0  0  0  0
  -31.6988  -15.0432   20.0454 O   0  0  0  0  0  0
  -21.6648   -6.8859   21.4222 O   0  0  0  0  0  0
  -22.3452  -14.5473   20.6694 O   0  0  0  0  0  0
  -24.6458  -31.8422   23.1883 C   0  0  0  0  0  0
  -25.9226  -32.4675   23.8294 C   0  0  1  0  0  0
  -27.2183  -27.1282   20.1378 C   0  0  0  0  0  0
  -25.5927  -33.8482   24.2194 N   0  0  0  0  0  0
  -23.4499  -30.4586   21.5344 C   0  0  2  0  0  0
  -24.8972  -28.8803   20.1084 C   0  0  0  0  0  0
  -22.7573  -29.4521   22.4857 C   0  0  0  0  0  0
  -18.0302  -28.1375   22.8479 C   0  0  0  0  0  0
  -24.1471  -36.7262   23.2644 C   0  0  0  0  0  0
  -26.0076  -30.7054   21.3941 C   0  0  0  0  0  0
  -26.0720  -29.3180   20.7312 C   0  0  0  0  0  0
  -27.2291  -28.4544   20.7306 C   0  0  0  0  0  0
  -26.0199  -26.7853   19.4797 C   0  0  0  0  0  0
  -24.8842  -27.6292   19.4688 C   0  0  0  0  0  0
  -23.6760  -29.7858   20.1538 C   0  0  0  0  0  0
  -25.4111  -36.3034   24.0307 C   0  0  1  0  0  0
  -20.5911  -28.3709   23.1219 C   0  0  2  0  0  0
  -20.6779  -26.9401   22.5402 C   0  0  0  0  0  0
  -19.5749  -26.6360   21.5203 C   0  0  0  0  0  0
  -18.1932  -26.7925   22.1616 C   0  0  0  0  0  0
  -19.1554  -28.8860   23.2840 C   0  0  0  0  0  0
  -18.9477  -30.1455   23.8863 C   0  0  0  0  0  0
  -17.6472  -30.6581   24.0544 C   0  0  0  0  0  0
  -25.9063  -34.9399   23.5077 C   0  0  0  0  0  0
  -16.5360  -29.9078   23.6328 C   0  0  0  0  0  0
  -16.7292  -28.6483   23.0368 C   0  0  0  0  0  0
  -26.4529  -31.6579   25.0775 C   0  0  0  0  0  0
  -25.3679  -31.3772   26.1446 C   0  0  0  0  0  0
  -27.0440  -30.2973   24.6432 C   0  0  0  0  0  0
  -27.6046  -32.4372   25.7549 C   0  0  0  0  0  0
  -27.5587  -37.1773   24.8450 C   0  0  0  0  0  0
  -21.4264  -29.3040   22.3598 N   0  0  0  0  0  0
  -26.4282  -37.3746   23.9405 N   0  0  0  0  0  0
  -24.7206  -31.0244   22.0942 N   0  0  0  0  0  0
  -23.4200  -28.8072   23.3019 O   0  0  0  0  0  0
  -28.2908  -26.1737   20.2532 O   0  0  0  0  0  0
  -26.5673  -34.8890   22.4678 O   0  0  0  0  0  0
  -23.5571  -32.1309   23.7083 O   0  0  0  0  0  0
  -32.6668  -20.4164   22.0562 C   0  0  0  0  0  0
  -31.7230  -19.7554   21.2441 C   0  0  0  0  0  0
  -30.1021  -19.8359   23.0628 C   0  0  0  0  0  0
  -32.3215  -20.8292   23.3606 C   0  0  0  0  0  0
  -31.0448  -20.5112   23.8657 C   0  0  0  0  0  0
  -30.4229  -19.4947   21.7309 C   0  0  0  0  0  0
  -30.6761  -21.0072   25.2428 C   0  0  0  0  0  0
  -31.2290  -22.4248   25.4275 C   0  0  0  0  0  0
  -33.3188  -21.6484   24.1952 C   0  0  2  0  0  0
  -34.0447  -19.5245   25.5226 C   0  0  0  0  0  0
  -33.1450  -24.4760   26.7872 C   0  0  0  0  0  0
  -32.7459  -24.8380   24.3116 C   0  0  0  0  0  0
  -34.4750  -20.7729   24.7325 C   0  0  0  0  0  0
  -28.2310  -23.2055   20.3942 C   0  0  0  0  0  0
  -29.7074  -17.5839   19.9739 C   0  0  0  0  0  0
  -29.1967  -21.8345   20.1164 C   0  0  0  0  0  0
  -28.3893  -24.7292   19.6744 C   0  0  0  0  0  0
  -29.3233  -19.0256   20.7846 C   0  0  2  0  0  0
  -33.2905  -23.8639   25.3811 C   0  0  0  0  0  0
  -29.7115  -16.1130   20.5811 N   0  0  0  0  0  0
  -32.7157  -22.4803   25.2929 N   0  3  1  0  0  0
  -28.6861  -20.3204   20.0992 N   0  3  0  0  0  0
  -31.4700  -12.7276   19.1991 H   0  0  0  0  0  0
  -30.4182  -11.6248   20.0407 H   0  0  0  0  0  0
  -29.8326  -11.7225   17.5926 H   0  0  0  0  0  0
  -29.6130  -13.4527   17.6971 H   0  0  0  0  0  0
  -27.9348  -11.2752   18.9762 H   0  0  0  0  0  0
  -27.3896  -12.4597   17.8193 H   0  0  0  0  0  0
  -27.5956  -14.2484   19.4157 H   0  0  0  0  0  0
  -28.7519  -12.2935   21.4641 H   0  0  0  0  0  0
  -28.3671  -13.9708   21.7636 H   0  0  0  0  0  0
  -25.2758   -9.5698   22.4741 H   0  0  0  0  0  0
  -23.9989   -7.4654   22.7501 H   0  0  0  0  0  0
  -21.0825   -8.8745   19.8965 H   0  0  0  0  0  0
  -22.3657  -10.9648   19.6156 H   0  0  0  0  0  0
  -21.2019   -7.6153   23.9678 H   0  0  0  0  0  0
  -21.1473   -6.0540   25.9058 H   0  0  0  0  0  0
  -22.0604   -2.7595   23.2862 H   0  0  0  0  0  0
  -22.4128  -11.9836   22.4814 H   0  0  0  0  0  0
  -21.1074  -13.1156   22.2664 H   0  0  0  0  0  0
  -24.6374  -15.8422   20.5158 H   0  0  0  0  0  0
  -26.2523  -15.6351   20.0629 H   0  0  0  0  0  0
  -26.7310  -32.5254   23.1027 H   0  0  0  0  0  0
  -24.9914  -33.9568   25.0241 H   0  0  0  0  0  0
  -22.7559  -31.2862   21.3790 H   0  0  0  0  0  0
  -23.3739  -35.9595   23.3281 H   0  0  0  0  0  0
  -24.3526  -36.8968   22.2063 H   0  0  0  0  0  0
  -23.7228  -37.6439   23.6727 H   0  0  0  0  0  0
  -26.1727  -31.4597   20.6243 H   0  0  0  0  0  0
  -26.8741  -30.7474   22.0421 H   0  0  0  0  0  0
  -28.1252  -28.7775   21.2432 H   0  0  0  0  0  0
  -25.9218  -25.8222   19.0026 H   0  0  0  0  0  0
  -23.9827  -27.2882   18.9781 H   0  0  0  0  0  0
  -23.8212  -30.5592   19.3999 H   0  0  0  0  0  0
  -22.7887  -29.2323   19.8408 H   0  0  0  0  0  0
  -25.1308  -36.1861   25.0797 H   0  0  0  0  0  0
  -20.9987  -28.3314   24.1344 H   0  0  0  0  0  0
  -20.5642  -26.2333   23.3629 H   0  0  0  0  0  0
  -21.6651  -26.7391   22.1210 H   0  0  0  0  0  0
  -19.6886  -25.6259   21.1254 H   0  0  0  0  0  0
  -19.6679  -27.3150   20.6703 H   0  0  0  0  0  0
  -17.4205  -26.6660   21.4019 H   0  0  0  0  0  0
  -18.0317  -26.0066   22.8997 H   0  0  0  0  0  0
  -19.7948  -30.7258   24.2228 H   0  0  0  0  0  0
  -17.5037  -31.6257   24.5165 H   0  0  0  0  0  0
  -15.5353  -30.2969   23.7681 H   0  0  0  0  0  0
  -15.8690  -28.0792   22.7123 H   0  0  0  0  0  0
  -24.5849  -30.7139   25.7735 H   0  0  0  0  0  0
  -24.8826  -32.2935   26.4810 H   0  0  0  0  0  0
  -25.7903  -30.8959   27.0265 H   0  0  0  0  0  0
  -26.3113  -29.6605   24.1453 H   0  0  0  0  0  0
  -27.4047  -29.7367   25.5076 H   0  0  0  0  0  0
  -27.9021  -30.4222   23.9823 H   0  0  0  0  0  0
  -27.2676  -33.3718   26.2036 H   0  0  0  0  0  0
  -28.3888  -32.6861   25.0390 H   0  0  0  0  0  0
  -28.0696  -31.8561   26.5521 H   0  0  0  0  0  0
  -28.2563  -38.0114   24.7565 H   0  0  0  0  0  0
  -28.1132  -36.2640   24.6213 H   0  0  0  0  0  0
  -27.2277  -37.1347   25.8844 H   0  0  0  0  0  0
  -20.9491  -29.8780   21.6787 H   0  0  0  0  0  0
  -26.0145  -38.2807   24.1441 H   0  0  0  0  0  0
  -33.6443  -20.6462   21.6554 H   0  0  0  0  0  0
  -31.9830  -19.5141   20.2227 H   0  0  0  0  0  0
  -29.1066  -19.6563   23.4455 H   0  0  0  0  0  0
  -31.0672  -20.3242   25.9968 H   0  0  0  0  0  0
  -29.5913  -21.0162   25.3581 H   0  0  0  0  0  0
  -30.9278  -22.8042   26.4042 H   0  0  0  0  0  0
  -30.7567  -23.0670   24.6847 H   0  0  0  0  0  0
  -33.7652  -22.3391   23.4788 H   0  0  0  0  0  0
  -34.9166  -18.9964   25.9088 H   0  0  0  0  0  0
  -33.4939  -18.8226   24.8958 H   0  0  0  0  0  0
  -33.4139  -19.7742   26.3764 H   0  0  0  0  0  0
  -33.6788  -25.4261   26.8461 H   0  0  0  0  0  0
  -33.5637  -23.8270   27.5576 H   0  0  0  0  0  0
  -32.1065  -24.6840   27.0445 H   0  0  0  0  0  0
  -33.2758  -25.7902   24.3516 H   0  0  0  0  0  0
  -31.6913  -25.0687   24.4580 H   0  0  0  0  0  0
  -32.8670  -24.4502   23.3001 H   0  0  0  0  0  0
  -35.1515  -21.3776   25.3384 H   0  0  0  0  0  0
  -35.0756  -20.4378   23.8856 H   0  0  0  0  0  0
  -28.2781  -23.3771   21.4686 H   0  0  0  0  0  0
  -27.1959  -22.9038   20.2298 H   0  0  0  0  0  0
  -30.6668  -17.7206   19.4748 H   0  0  0  0  0  0
  -28.9919  -17.5113   19.1550 H   0  0  0  0  0  0
  -30.0122  -21.9087   20.8307 H   0  0  0  0  0  0
  -29.6876  -21.9769   19.1528 H   0  0  0  0  0  0
  -27.8033  -24.7073   18.7560 H   0  0  0  0  0  0
  -29.4126  -24.7236   19.2982 H   0  0  0  0  0  0
  -28.4993  -18.7117   21.4247 H   0  0  0  0  0  0
  -34.3654  -23.7696   25.2103 H   0  0  0  0  0  0
  -28.8166  -15.8730   20.9811 H   0  0  0  0  0  0
  -33.0508  -22.0154   26.1227 H   0  0  0  0  0  0
  -28.4706  -20.0800   19.1447 H   0  0  0  0  0  0
  -27.7878  -20.3670   20.5508 H   0  0  0  0  0  0
  1 25  1  0  0  0
  1 30  2  0  0  0
  1 90  1  0  0  0
  2  3  1  0  0  0
  2 25  1  0  0  0
  2 93  1  0  0  0
  2 94  1  0  0  0
  3  4  1  0  0  0
  3 95  1  0  0  0
  3 96  1  0  0  0
  4  5  1  0  0  0
  4 97  1  0  0  0
  4 98  1  0  0  0
  5  6  1  0  0  0
  5 26  1  0  0  0
  5 99  1  0  0  0
  6 25  1  0  0  0
  6100  1  0  0  0
  6101  1  0  0  0
  7  8  2  0  0  0
  7 26  1  0  0  0
  7 29  1  0  0  0
  8  9  1  0  0  0
  8 22  1  0  0  0
  9 10  1  0  0  0
  9 27  2  0  0  0
 10 11  2  0  0  0
 10 15  1  0  0  0
 11 12  1  0  0  0
 11102  1  0  0  0
 12 13  2  0  0  0
 12103  1  0  0  0
 13 14  1  0  0  0
 13 31  1  0  0  0
 14 15  2  0  0  0
 14104  1  0  0  0
 15105  1  0  0  0
 16 17  2  0  0  0
 16 21  1  0  0  0
 16 31  1  0  0  0
 17 18  1  0  0  0
 17106  1  0  0  0
 18 19  2  0  0  0
 18107  1  0  0  0
 19 20  1  0  0  0
 19 24  1  0  0  0
 20 21  2  0  0  0
 20108  1  0  0  0
 21 23  1  0  0  0
 22 28  1  0  0  0
 22 32  2  0  0  0
 26 27  1  0  0  0
 28109  1  0  0  0
 28110  1  0  0  0
 29111  1  0  0  0
 29112  1  0  0  0
 33 34  1  0  0  0
 33 66  1  0  0  0
 33 70  2  0  0  0
 34 36  1  0  0  0
 34 59  1  0  0  0
 34113  1  0  0  0
 35 44  2  0  0  0
 35 45  1  0  0  0
 35 68  1  0  0  0
 36 56  1  0  0  0
 36114  1  0  0  0
 37 39  1  0  0  0
 37 47  1  0  0  0
 37 66  1  0  0  0
 37115  1  0  0  0
 38 43  2  0  0  0
 38 46  1  0  0  0
 38 47  1  0  0  0
 39 64  1  0  0  0
 39 67  2  0  0  0
 40 52  1  0  0  0
 40 53  2  0  0  0
 40 58  1  0  0  0
 41116  1  0  0  0
 41117  1  0  0  0
 41118  1  0  0  0
 41 48  1  0  0  0
 42 43  1  0  0  0
 42 66  1  0  0  0
 42119  1  0  0  0
 42120  1  0  0  0
 43 44  1  0  0  0
 44121  1  0  0  0
 45 46  2  0  0  0
 45122  1  0  0  0
 46123  1  0  0  0
 47124  1  0  0  0
 47125  1  0  0  0
 48 56  1  0  0  0
 48 65  1  0  0  0
 48126  1  0  0  0
 49 50  1  0  0  0
 49 53  1  0  0  0
 49 64  1  0  0  0
 49127  1  0  0  0
 50 51  1  0  0  0
 50128  1  0  0  0
 50129  1  0  0  0
 51 52  1  0  0  0
 51130  1  0  0  0
 51131  1  0  0  0
 52132  1  0  0  0
 52133  1  0  0  0
 53 54  1  0  0  0
 54 55  2  0  0  0
 54134  1  0  0  0
 55 57  1  0  0  0
 55135  1  0  0  0
 56 69  2  0  0  0
 57 58  2  0  0  0
 57136  1  0  0  0
 58137  1  0  0  0
 59 60  1  0  0  0
 59 61  1  0  0  0
 59 62  1  0  0  0
 60138  1  0  0  0
 60139  1  0  0  0
 60140  1  0  0  0
 61141  1  0  0  0
 61142  1  0  0  0
 61143  1  0  0  0
 62144  1  0  0  0
 62145  1  0  0  0
 62146  1  0  0  0
 63 65  1  0  0  0
 63147  1  0  0  0
 63148  1  0  0  0
 63149  1  0  0  0
 64150  1  0  0  0
 65151  1  0  0  0
 68 87  1  0  0  0
 71 72  2  0  0  0
 71 74  1  0  0  0
 71152  1  0  0  0
 72 76  1  0  0  0
 72153  1  0  0  0
 73 75  1  0  0  0
 73 76  2  0  0  0
 73154  1  0  0  0
 74 75  2  0  0  0
 74 79  1  0  0  0
 75 77  1  0  0  0
 76 88  1  0  0  0
 77 78  1  0  0  0
 77155  1  0  0  0
 77156  1  0  0  0
 78157  1  0  0  0
 78158  1  0  0  0
 78 91  1  0  0  0
 79 83  1  0  0  0
 79 91  1  0  0  0
 79159  1  0  0  0
 80 83  1  0  0  0
 80160  1  0  0  0
 80161  1  0  0  0
 80162  1  0  0  0
 81163  1  0  0  0
 81164  1  0  0  0
 81165  1  0  0  0
 81 89  1  0  0  0
 82 89  1  0  0  0
 82166  1  0  0  0
 82167  1  0  0  0
 82168  1  0  0  0
 83169  1  0  0  0
 83170  1  0  0  0
 84 86  1  0  0  0
 84 87  1  0  0  0
 84171  1  0  0  0
 84172  1  0  0  0
 85 90  1  0  0  0
 85173  1  0  0  0
 85174  1  0  0  0
 85 88  1  0  0  0
 86 92  1  0  0  0
 86175  1  0  0  0
 86176  1  0  0  0
 87177  1  0  0  0
 87178  1  0  0  0
 88 92  1  0  0  0
 88179  1  0  0  0
 89 91  1  0  0  0
 89180  1  0  0  0
 90181  1  0  0  0
 91182  1  0  0  0
 92183  1  0  0  0
 92184  1  0  0  0
M  CHG  2  91   1  92   1
M  ISO  4   1 100  68 101  87 101  90 100
M  END
> <chiral flag>
0

> <version>
0

> <s_m_source_file>
/data/baiqing/PycharmProjects/Reinvent-master-3.2/result/LINK_invent/BTK/process_docking_weight1_custom_sum_contain_oxygen_bond_distance_aromatic_linkinvent_7_9_3/rearranged_h_0131.sdf

> <i_m_source_file_index>
65

> <r_mmod_Potential_Energy-OPLS-2005>
318.116638183594

> <r_mmod_Stretch_Energy-OPLS-2005>
287.776580810547

> <r_mmod_Bend_Energy-OPLS-2005>
341.230102539062

> <r_mmod_Torsional_Energy-OPLS-2005>
299.065460205078

> <r_mmod_Improper_Torsional_Energy-OPLS-2005>
6.92616605758667

> <r_mmod_Van_der_Waal_Energy-OPLS-2005>
133.658401489258

> <r_mmod_Electrostatic_Energy-OPLS-2005>
-40.0446510314941

> <r_mmod_Solvation_Energy-OPLS-2005>
-907.72705078125

> <b_mmod_Minimization_Converged-OPLS-2005>
0

> <r_mmod_RMS_Derivative-OPLS-2005>
3.16673994064331

$$$$
65
                    3D
 Structure written by MMmdl.
156164  0  0  1  0            999 V2000
  -30.6493  -14.4652   20.6169 C   0  0  0  0  0  0
  -30.4374  -12.3202   19.3946 C   0  0  0  0  0  0
  -29.4940  -12.5255   18.1898 C   0  0  0  0  0  0
  -28.0126  -12.3836   18.5996 C   0  0  0  0  0  0
  -27.6650  -13.1934   19.8777 C   0  0  2  0  0  0
  -28.7056  -12.9140   20.9828 C   0  0  0  0  0  0
  -25.2612  -13.8132   20.5642 C   0  0  0  0  0  0
  -24.1839  -13.0423   20.9148 C   0  0  0  0  0  0
  -24.6385  -11.6892   20.8710 C   0  0  0  0  0  0
  -23.9049  -10.4286   21.0399 C   0  0  0  0  0  0
  -24.3611   -9.4206   21.9168 C   0  0  0  0  0  0
  -23.6280   -8.2244   22.0764 C   0  0  0  0  0  0
  -22.4257   -8.0284   21.3560 C   0  0  0  0  0  0
  -21.9874   -9.0261   20.4669 C   0  0  0  0  0  0
  -22.7216  -10.2133   20.3060 C   0  0  0  0  0  0
  -21.6851   -6.0731   22.5279 C   0  0  0  0  0  0
  -21.4032   -6.5634   23.8215 C   0  0  0  0  0  0
  -21.3665   -5.6789   24.9176 C   0  0  0  0  0  0
  -21.6046   -4.3049   24.7212 C   0  0  0  0  0  0
  -21.8830   -3.8143   23.4332 C   0  0  0  0  0  0
  -21.9193   -4.6962   22.3395 C   0  0  0  0  0  0
  -22.7870  -13.5251   21.1831 C   0  0  0  0  0  0
  -22.1651   -4.2155   21.0965 F   0  0  0  0  0  0
  -21.5624   -3.4529   25.7716 F   0  0  0  0  0  0
  -30.0322  -13.2652   20.4446 N   0  0  0  0  0  0
  -26.3035  -12.9276   20.3342 N   0  0  0  0  0  0
  -25.9303  -11.6450   20.5741 N   0  0  0  0  0  0
  -22.0490  -12.8257   22.0399 N   0  0  0  0  0  0
  -25.4326  -15.1844   20.4058 N   0  0  0  0  0  0
  -31.7571  -14.7381   20.1439 O   0  0  0  0  0  0
  -21.6647   -6.8871   21.4239 O   0  0  0  0  0  0
  -22.3565  -14.5543   20.6669 O   0  0  0  0  0  0
  -24.6166  -31.8628   23.2075 C   0  0  0  0  0  0
  -25.9063  -32.4789   23.8358 C   0  0  1  0  0  0
  -27.2382  -27.4168   20.0639 C   0  0  0  0  0  0
  -25.5896  -33.8577   24.2293 N   0  0  0  0  0  0
  -23.4053  -30.4856   21.5510 C   0  0  2  0  0  0
  -24.8487  -28.9497   20.1129 C   0  0  0  0  0  0
  -22.7411  -29.4623   22.5006 C   0  0  0  0  0  0
  -18.0262  -28.1363   22.8503 C   0  0  0  0  0  0
  -24.1472  -36.7277   23.2651 C   0  0  0  0  0  0
  -25.9379  -30.8157   21.3687 C   0  0  0  0  0  0
  -26.0111  -29.4510   20.7107 C   0  0  0  0  0  0
  -27.2035  -28.6875   20.6919 C   0  0  0  0  0  0
  -26.0439  -26.9251   19.4864 C   0  0  0  0  0  0
  -24.8598  -27.6846   19.5032 C   0  0  0  0  0  0
  -23.6120  -29.8176   20.1659 C   0  0  0  0  0  0
  -25.4098  -36.3085   24.0345 C   0  0  1  0  0  0
  -20.5854  -28.3636   23.1328 C   0  0  2  0  0  0
  -20.6750  -26.9373   22.5420 C   0  0  0  0  0  0
  -19.5728  -26.6378   21.5212 C   0  0  0  0  0  0
  -18.1911  -26.7908   22.1636 C   0  0  0  0  0  0
  -19.1515  -28.8818   23.2909 C   0  0  0  0  0  0
  -18.9444  -30.1427   23.8912 C   0  0  0  0  0  0
  -17.6447  -30.6576   24.0560 C   0  0  0  0  0  0
  -25.9035  -34.9454   23.5128 C   0  0  0  0  0  0
  -16.5336  -29.9074   23.6330 C   0  0  0  0  0  0
  -16.7256  -28.6487   23.0368 C   0  0  0  0  0  0
  -26.4488  -31.6583   25.0699 C   0  0  0  0  0  0
  -25.3770  -31.3686   26.1463 C   0  0  0  0  0  0
  -27.0331  -30.3019   24.6112 C   0  0  0  0  0  0
  -27.6048  -32.4317   25.7457 C   0  0  0  0  0  0
  -27.5558  -37.1794   24.8478 C   0  0  0  0  0  0
  -21.4134  -29.2999   22.3733 N   0  0  0  0  0  0
  -26.4276  -37.3773   23.9413 N   0  0  0  0  0  0
  -24.6716  -31.0710   22.0994 N   0  0  0  0  0  0
  -23.4170  -28.8171   23.3071 O   0  0  0  0  0  0
  -28.4138  -26.6822   20.0594 O   0  0  0  0  0  0
  -26.5604  -34.8925   22.4692 O   0  0  0  0  0  0
  -23.5354  -32.1392   23.7459 O   0  0  0  0  0  0
  -28.4702  -21.9286   18.9651 C   0  0  0  0  0  0
  -30.4748  -22.5812   20.1702 C   0  0  0  0  0  0
  -28.1127  -23.2888   18.8231 C   0  0  0  0  0  0
  -30.1125  -23.9450   20.0278 C   0  0  0  0  0  0
  -29.6722  -21.5568   19.6092 C   0  0  0  0  0  0
  -28.9441  -24.3162   19.3225 C   0  0  0  0  0  0
  -30.1611  -20.0980   19.5275 C   0  0  0  0  0  0
  -28.6765  -25.7866   18.9593 C   0  0  0  0  0  0
  -30.1114  -16.8062   21.5295 C   0  0  0  0  0  0
  -29.8910  -17.7468   20.3118 C   0  0  0  0  0  0
  -29.8813  -15.3785   21.2424 N   0  0  0  0  0  0
  -29.8018  -19.1999   20.6546 N   0  3  0  0  0  0
  -31.4775  -12.4547   19.0931 H   0  0  0  0  0  0
  -30.3675  -11.2956   19.7627 H   0  0  0  0  0  0
  -29.7306  -11.8112   17.4003 H   0  0  0  0  0  0
  -29.6615  -13.5142   17.7597 H   0  0  0  0  0  0
  -27.8101  -11.3247   18.7641 H   0  0  0  0  0  0
  -27.3681  -12.6939   17.7752 H   0  0  0  0  0  0
  -27.7242  -14.2502   19.6136 H   0  0  0  0  0  0
  -28.6955  -11.8560   21.2502 H   0  0  0  0  0  0
  -28.4577  -13.4379   21.9065 H   0  0  0  0  0  0
  -25.2759   -9.5682   22.4738 H   0  0  0  0  0  0
  -24.0005   -7.4634   22.7477 H   0  0  0  0  0  0
  -21.0805   -8.8779   19.8958 H   0  0  0  0  0  0
  -22.3673  -10.9678   19.6174 H   0  0  0  0  0  0
  -21.2040   -7.6147   23.9709 H   0  0  0  0  0  0
  -21.1467   -6.0519   25.9084 H   0  0  0  0  0  0
  -22.0594   -2.7603   23.2818 H   0  0  0  0  0  0
  -22.4113  -11.9941   22.4825 H   0  0  0  0  0  0
  -21.1137  -13.1348   22.2645 H   0  0  0  0  0  0
  -24.6555  -15.8291   20.5032 H   0  0  0  0  0  0
  -26.2749  -15.6248   20.0582 H   0  0  0  0  0  0
  -26.7119  -32.5475   23.1097 H   0  0  0  0  0  0
  -25.0024  -33.9712   25.0424 H   0  0  0  0  0  0
  -22.6958  -31.3028   21.4121 H   0  0  0  0  0  0
  -23.3724  -35.9623   23.3360 H   0  0  0  0  0  0
  -24.3555  -36.8833   22.2053 H   0  0  0  0  0  0
  -23.7236  -37.6501   23.6629 H   0  0  0  0  0  0
  -26.0682  -31.5843   20.6052 H   0  0  0  0  0  0
  -26.8173  -30.8551   22.0001 H   0  0  0  0  0  0
  -28.1036  -29.0737   21.1500 H   0  0  0  0  0  0
  -25.9970  -25.9467   19.0315 H   0  0  0  0  0  0
  -23.9627  -27.2843   19.0500 H   0  0  0  0  0  0
  -23.7144  -30.5891   19.4007 H   0  0  0  0  0  0
  -22.7362  -29.2325   19.8804 H   0  0  0  0  0  0
  -25.1283  -36.1941   25.0835 H   0  0  0  0  0  0
  -20.9941  -28.3193   24.1455 H   0  0  0  0  0  0
  -20.5643  -26.2239   23.3600 H   0  0  0  0  0  0
  -21.6620  -26.7417   22.1218 H   0  0  0  0  0  0
  -19.6881  -25.6301   21.1214 H   0  0  0  0  0  0
  -19.6665  -27.3216   20.6764 H   0  0  0  0  0  0
  -17.4178  -26.6652   21.4047 H   0  0  0  0  0  0
  -18.0318  -26.0046   22.9032 H   0  0  0  0  0  0
  -19.7917  -30.7227   24.2303 H   0  0  0  0  0  0
  -17.5008  -31.6274   24.5128 H   0  0  0  0  0  0
  -15.5337  -30.2986   23.7637 H   0  0  0  0  0  0
  -15.8657  -28.0799   22.7098 H   0  0  0  0  0  0
  -24.5922  -30.7064   25.7797 H   0  0  0  0  0  0
  -24.9008  -32.2851   26.4952 H   0  0  0  0  0  0
  -25.8143  -30.8812   27.0190 H   0  0  0  0  0  0
  -26.2890  -29.6759   24.1181 H   0  0  0  0  0  0
  -27.4104  -29.7271   25.4577 H   0  0  0  0  0  0
  -27.8723  -30.4310   23.9275 H   0  0  0  0  0  0
  -27.2644  -33.3592   26.2069 H   0  0  0  0  0  0
  -28.3835  -32.6918   25.0277 H   0  0  0  0  0  0
  -28.0759  -31.8440   26.5347 H   0  0  0  0  0  0
  -28.2618  -38.0048   24.7486 H   0  0  0  0  0  0
  -28.1012  -36.2583   24.6366 H   0  0  0  0  0  0
  -27.2277  -37.1527   25.8883 H   0  0  0  0  0  0
  -20.9293  -29.8718   21.6951 H   0  0  0  0  0  0
  -26.0165  -38.2850   24.1410 H   0  0  0  0  0  0
  -27.8458  -21.1714   18.5116 H   0  0  0  0  0  0
  -31.4122  -22.3378   20.6511 H   0  0  0  0  0  0
  -27.2212  -23.5341   18.2625 H   0  0  0  0  0  0
  -30.7719  -24.7181   20.3987 H   0  0  0  0  0  0
  -31.2454  -20.0896   19.4064 H   0  0  0  0  0  0
  -29.7648  -19.6707   18.6056 H   0  0  0  0  0  0
  -27.9486  -25.8438   18.1519 H   0  0  0  0  0  0
  -29.5917  -26.1505   18.4905 H   0  0  0  0  0  0
  -29.4128  -17.0768   22.3211 H   0  0  0  0  0  0
  -31.1136  -16.9364   21.9414 H   0  0  0  0  0  0
  -28.9815  -17.4676   19.7762 H   0  0  0  0  0  0
  -30.7162  -17.5950   19.6157 H   0  0  0  0  0  0
  -28.9924  -15.0151   21.5553 H   0  0  0  0  0  0
  -28.8582  -19.4050   20.9399 H   0  0  0  0  0  0
  -30.4037  -19.4151   21.4305 H   0  0  0  0  0  0
  1 25  1  0  0  0
  1 30  2  0  0  0
  1 81  1  0  0  0
  2  3  1  0  0  0
  2 25  1  0  0  0
  2 83  1  0  0  0
  2 84  1  0  0  0
  3  4  1  0  0  0
  3 85  1  0  0  0
  3 86  1  0  0  0
  4  5  1  0  0  0
  4 87  1  0  0  0
  4 88  1  0  0  0
  5  6  1  0  0  0
  5 26  1  0  0  0
  5 89  1  0  0  0
  6 25  1  0  0  0
  6 90  1  0  0  0
  6 91  1  0  0  0
  7  8  2  0  0  0
  7 26  1  0  0  0
  7 29  1  0  0  0
  8  9  1  0  0  0
  8 22  1  0  0  0
  9 10  1  0  0  0
  9 27  2  0  0  0
 10 11  2  0  0  0
 10 15  1  0  0  0
 11 12  1  0  0  0
 11 92  1  0  0  0
 12 13  2  0  0  0
 12 93  1  0  0  0
 13 14  1  0  0  0
 13 31  1  0  0  0
 14 15  2  0  0  0
 14 94  1  0  0  0
 15 95  1  0  0  0
 16 17  2  0  0  0
 16 21  1  0  0  0
 16 31  1  0  0  0
 17 18  1  0  0  0
 17 96  1  0  0  0
 18 19  2  0  0  0
 18 97  1  0  0  0
 19 20  1  0  0  0
 19 24  1  0  0  0
 20 21  2  0  0  0
 20 98  1  0  0  0
 21 23  1  0  0  0
 22 28  1  0  0  0
 22 32  2  0  0  0
 26 27  1  0  0  0
 28 99  1  0  0  0
 28100  1  0  0  0
 29101  1  0  0  0
 29102  1  0  0  0
 33 34  1  0  0  0
 33 66  1  0  0  0
 33 70  2  0  0  0
 34 36  1  0  0  0
 34 59  1  0  0  0
 34103  1  0  0  0
 35 44  2  0  0  0
 35 45  1  0  0  0
 35 68  1  0  0  0
 36 56  1  0  0  0
 36104  1  0  0  0
 37 39  1  0  0  0
 37 47  1  0  0  0
 37 66  1  0  0  0
 37105  1  0  0  0
 38 43  2  0  0  0
 38 46  1  0  0  0
 38 47  1  0  0  0
 39 64  1  0  0  0
 39 67  2  0  0  0
 40 52  1  0  0  0
 40 53  2  0  0  0
 40 58  1  0  0  0
 41106  1  0  0  0
 41107  1  0  0  0
 41108  1  0  0  0
 41 48  1  0  0  0
 42 43  1  0  0  0
 42 66  1  0  0  0
 42109  1  0  0  0
 42110  1  0  0  0
 43 44  1  0  0  0
 44111  1  0  0  0
 45 46  2  0  0  0
 45112  1  0  0  0
 46113  1  0  0  0
 47114  1  0  0  0
 47115  1  0  0  0
 48 56  1  0  0  0
 48 65  1  0  0  0
 48116  1  0  0  0
 49 50  1  0  0  0
 49 53  1  0  0  0
 49 64  1  0  0  0
 49117  1  0  0  0
 50 51  1  0  0  0
 50118  1  0  0  0
 50119  1  0  0  0
 51 52  1  0  0  0
 51120  1  0  0  0
 51121  1  0  0  0
 52122  1  0  0  0
 52123  1  0  0  0
 53 54  1  0  0  0
 54 55  2  0  0  0
 54124  1  0  0  0
 55 57  1  0  0  0
 55125  1  0  0  0
 56 69  2  0  0  0
 57 58  2  0  0  0
 57126  1  0  0  0
 58127  1  0  0  0
 59 60  1  0  0  0
 59 61  1  0  0  0
 59 62  1  0  0  0
 60128  1  0  0  0
 60129  1  0  0  0
 60130  1  0  0  0
 61131  1  0  0  0
 61132  1  0  0  0
 61133  1  0  0  0
 62134  1  0  0  0
 62135  1  0  0  0
 62136  1  0  0  0
 63 65  1  0  0  0
 63137  1  0  0  0
 63138  1  0  0  0
 63139  1  0  0  0
 64140  1  0  0  0
 65141  1  0  0  0
 68 78  1  0  0  0
 71 73  2  0  0  0
 71 75  1  0  0  0
 71142  1  0  0  0
 72 74  1  0  0  0
 72 75  2  0  0  0
 72143  1  0  0  0
 73 76  1  0  0  0
 73144  1  0  0  0
 74 76  2  0  0  0
 74145  1  0  0  0
 75 77  1  0  0  0
 76 78  1  0  0  0
 77 82  1  0  0  0
 77146  1  0  0  0
 77147  1  0  0  0
 78148  1  0  0  0
 78149  1  0  0  0
 79 80  1  0  0  0
 79 81  1  0  0  0
 79150  1  0  0  0
 79151  1  0  0  0
 80 82  1  0  0  0
 80152  1  0  0  0
 80153  1  0  0  0
 81154  1  0  0  0
 82155  1  0  0  0
 82156  1  0  0  0
M  CHG  1  82   1
M  ISO  4   1 100  68 101  78 101  81 100
M  END
> <chiral flag>
0

> <version>
0

> <s_m_source_file>
/data/baiqing/PycharmProjects/Reinvent-master-3.2/result/LINK_invent/BTK/process_docking_weight1_custom_sum_contain_oxygen_bond_distance_aromatic_linkinvent_7_9_3/rearranged_h_0131.sdf

> <i_m_source_file_index>
66

> <r_mmod_Potential_Energy-OPLS-2005>
-288.826049804688

> <r_mmod_Stretch_Energy-OPLS-2005>
40.1489868164062

> <r_mmod_Bend_Energy-OPLS-2005>
104.516700744629

> <r_mmod_Torsional_Energy-OPLS-2005>
211.46794128418

> <r_mmod_Improper_Torsional_Energy-OPLS-2005>
4.52138900756836

> <r_mmod_Van_der_Waal_Energy-OPLS-2005>
149.172790527344

> <r_mmod_Electrostatic_Energy-OPLS-2005>
-326.719024658203

> <r_mmod_Solvation_Energy-OPLS-2005>
-486.35546875

> <b_mmod_Minimization_Converged-OPLS-2005>
0

> <r_mmod_RMS_Derivative-OPLS-2005>
2.90253758430481

$$$$
66
                    3D
 Structure written by MMmdl.
154163  0  0  1  0            999 V2000
  -30.5979  -14.8258   20.4544 C   0  0  0  0  0  0
  -30.4355  -12.5022   19.4991 C   0  0  0  0  0  0
  -29.5155  -12.5004   18.2564 C   0  0  0  0  0  0
  -28.0435  -12.3209   18.6704 C   0  0  0  0  0  0
  -27.6404  -13.2392   19.8546 C   0  0  2  0  0  0
  -28.6842  -13.2123   20.9944 C   0  0  0  0  0  0
  -25.2502  -13.8217   20.5720 C   0  0  0  0  0  0
  -24.1803  -13.0450   20.9234 C   0  0  0  0  0  0
  -24.6409  -11.6935   20.8781 C   0  0  0  0  0  0
  -23.9094  -10.4305   21.0428 C   0  0  0  0  0  0
  -24.3638   -9.4215   21.9200 C   0  0  0  0  0  0
  -23.6305   -8.2250   22.0765 C   0  0  0  0  0  0
  -22.4284   -8.0292   21.3552 C   0  0  0  0  0  0
  -21.9936   -9.0274   20.4653 C   0  0  0  0  0  0
  -22.7276  -10.2149   20.3070 C   0  0  0  0  0  0
  -21.6854   -6.0751   22.5284 C   0  0  0  0  0  0
  -21.4004   -6.5646   23.8222 C   0  0  0  0  0  0
  -21.3648   -5.6794   24.9178 C   0  0  0  0  0  0
  -21.6044   -4.3057   24.7220 C   0  0  0  0  0  0
  -21.8821   -3.8157   23.4342 C   0  0  0  0  0  0
  -21.9193   -4.6982   22.3402 C   0  0  0  0  0  0
  -22.7825  -13.5224   21.1881 C   0  0  0  0  0  0
  -22.1665   -4.2170   21.0980 F   0  0  0  0  0  0
  -21.5627   -3.4539   25.7735 F   0  0  0  0  0  0
  -29.9762  -13.5881   20.4083 N   0  0  0  0  0  0
  -26.2934  -12.9439   20.3318 N   0  0  0  0  0  0
  -25.9338  -11.6574   20.5811 N   0  0  0  0  0  0
  -22.0470  -12.8199   22.0423 N   0  0  0  0  0  0
  -25.4182  -15.1940   20.4120 N   0  0  0  0  0  0
  -31.7806  -14.8946   20.1079 O   0  0  0  0  0  0
  -21.6639   -6.8896   21.4248 O   0  0  0  0  0  0
  -22.3516  -14.5542   20.6753 O   0  0  0  0  0  0
  -24.6374  -31.8504   23.1937 C   0  0  0  0  0  0
  -25.9144  -32.4741   23.8311 C   0  0  1  0  0  0
  -27.2182  -27.1851   20.1360 C   0  0  0  0  0  0
  -25.5915  -33.8549   24.2212 N   0  0  0  0  0  0
  -23.4391  -30.4694   21.5417 C   0  0  2  0  0  0
  -24.8917  -28.9171   20.1021 C   0  0  0  0  0  0
  -22.7560  -29.4544   22.4928 C   0  0  0  0  0  0
  -18.0298  -28.1378   22.8508 C   0  0  0  0  0  0
  -24.1475  -36.7284   23.2640 C   0  0  0  0  0  0
  -25.9924  -30.7385   21.3882 C   0  0  0  0  0  0
  -26.0662  -29.3549   20.7288 C   0  0  0  0  0  0
  -27.2305  -28.5030   20.7363 C   0  0  0  0  0  0
  -26.0277  -26.8629   19.4405 C   0  0  0  0  0  0
  -24.8854  -27.6849   19.4380 C   0  0  0  0  0  0
  -23.6600  -29.8040   20.1582 C   0  0  0  0  0  0
  -25.4112  -36.3068   24.0315 C   0  0  1  0  0  0
  -20.5908  -28.3681   23.1281 C   0  0  2  0  0  0
  -20.6771  -26.9401   22.5412 C   0  0  0  0  0  0
  -19.5731  -26.6367   21.5227 C   0  0  0  0  0  0
  -18.1915  -26.7921   22.1645 C   0  0  0  0  0  0
  -19.1556  -28.8858   23.2866 C   0  0  0  0  0  0
  -18.9466  -30.1463   23.8881 C   0  0  0  0  0  0
  -17.6460  -30.6581   24.0559 C   0  0  0  0  0  0
  -25.9065  -34.9440   23.5073 C   0  0  0  0  0  0
  -16.5356  -29.9069   23.6338 C   0  0  0  0  0  0
  -16.7283  -28.6486   23.0381 C   0  0  0  0  0  0
  -26.4470  -31.6612   25.0744 C   0  0  0  0  0  0
  -25.3658  -31.3784   26.1446 C   0  0  0  0  0  0
  -27.0305  -30.3015   24.6263 C   0  0  0  0  0  0
  -27.6029  -32.4370   25.7504 C   0  0  0  0  0  0
  -27.5567  -37.1799   24.8462 C   0  0  0  0  0  0
  -21.4261  -29.3019   22.3685 N   0  0  0  0  0  0
  -26.4279  -37.3770   23.9411 N   0  0  0  0  0  0
  -24.7091  -31.0396   22.0961 N   0  0  0  0  0  0
  -23.4234  -28.8083   23.3037 O   0  0  0  0  0  0
  -28.2524  -26.1900   20.2438 O   0  0  0  0  0  0
  -26.5652  -34.8922   22.4651 O   0  0  0  0  0  0
  -23.5497  -32.1361   23.7193 O   0  0  0  0  0  0
  -28.9413  -21.3204   21.8084 C   0  0  0  0  0  0
  -29.3705  -21.0056   19.5026 C   0  0  0  0  0  0
  -28.6275  -22.7151   21.5806 C   0  0  0  0  0  0
  -29.0571  -22.4029   19.2749 C   0  0  0  0  0  0
  -29.2864  -20.3755   20.7821 C   0  0  0  0  0  0
  -28.6378  -23.3303   20.2910 C   0  0  0  0  0  0
  -30.5149  -18.4915   22.1993 C   0  0  0  0  0  0
  -31.4408  -17.9373   21.1088 C   0  0  0  0  0  0
  -29.4666  -18.7797   21.1092 C   0  0  2  0  0  0
  -30.1850  -17.4934   20.3478 C   0  0  2  0  0  0
  -27.8837  -24.7318   19.9297 C   0  0  0  0  0  0
  -29.8534  -15.9985   20.6802 N   0  0  0  0  0  0
  -31.4748  -12.6294   19.1921 H   0  0  0  0  0  0
  -30.3973  -11.5376   20.0081 H   0  0  0  0  0  0
  -29.8059  -11.7013   17.5729 H   0  0  0  0  0  0
  -29.6334  -13.4346   17.7059 H   0  0  0  0  0  0
  -27.9104  -11.2767   18.9558 H   0  0  0  0  0  0
  -27.3826  -12.4865   17.8183 H   0  0  0  0  0  0
  -27.6266  -14.2530   19.4538 H   0  0  0  0  0  0
  -28.7381  -12.2223   21.4513 H   0  0  0  0  0  0
  -28.4087  -13.9043   21.7918 H   0  0  0  0  0  0
  -25.2772   -9.5683   22.4791 H   0  0  0  0  0  0
  -24.0009   -7.4639   22.7489 H   0  0  0  0  0  0
  -21.0869   -8.8807   19.8955 H   0  0  0  0  0  0
  -22.3744  -10.9695   19.6191 H   0  0  0  0  0  0
  -21.1987   -7.6150   23.9733 H   0  0  0  0  0  0
  -21.1461   -6.0515   25.9081 H   0  0  0  0  0  0
  -22.0604   -2.7622   23.2835 H   0  0  0  0  0  0
  -22.4068  -11.9815   22.4740 H   0  0  0  0  0  0
  -21.1108  -13.1252   22.2686 H   0  0  0  0  0  0
  -24.6541  -15.8481   20.5401 H   0  0  0  0  0  0
  -26.2540  -15.6311   20.0449 H   0  0  0  0  0  0
  -26.7229  -32.5362   23.1071 H   0  0  0  0  0  0
  -25.0056  -33.9686   25.0351 H   0  0  0  0  0  0
  -22.7350  -31.2910   21.3927 H   0  0  0  0  0  0
  -23.3740  -35.9613   23.3307 H   0  0  0  0  0  0
  -24.3555  -36.8922   22.2055 H   0  0  0  0  0  0
  -23.7234  -37.6480   23.6681 H   0  0  0  0  0  0
  -26.1361  -31.4959   20.6167 H   0  0  0  0  0  0
  -26.8678  -30.7916   22.0238 H   0  0  0  0  0  0
  -28.1191  -28.8278   21.2586 H   0  0  0  0  0  0
  -25.9308  -25.9358   18.8985 H   0  0  0  0  0  0
  -23.9985  -27.3576   18.9130 H   0  0  0  0  0  0
  -23.7758  -30.5792   19.3999 H   0  0  0  0  0  0
  -22.7793  -29.2313   19.8607 H   0  0  0  0  0  0
  -25.1296  -36.1906   25.0805 H   0  0  0  0  0  0
  -20.9971  -28.3231   24.1409 H   0  0  0  0  0  0
  -20.5678  -26.2283   23.3611 H   0  0  0  0  0  0
  -21.6627  -26.7415   22.1184 H   0  0  0  0  0  0
  -19.6878  -25.6268   21.1260 H   0  0  0  0  0  0
  -19.6659  -27.3179   20.6755 H   0  0  0  0  0  0
  -17.4184  -26.6708   21.4037 H   0  0  0  0  0  0
  -18.0289  -26.0057   22.9033 H   0  0  0  0  0  0
  -19.7941  -30.7292   24.2230 H   0  0  0  0  0  0
  -17.5009  -31.6270   24.5142 H   0  0  0  0  0  0
  -15.5346  -30.2956   23.7669 H   0  0  0  0  0  0
  -15.8691  -28.0781   22.7116 H   0  0  0  0  0  0
  -24.5866  -30.7098   25.7771 H   0  0  0  0  0  0
  -24.8791  -32.2946   26.4804 H   0  0  0  0  0  0
  -25.7932  -30.9021   27.0278 H   0  0  0  0  0  0
  -26.2888  -29.6800   24.1237 H   0  0  0  0  0  0
  -27.3901  -29.7263   25.4800 H   0  0  0  0  0  0
  -27.8803  -30.4281   23.9561 H   0  0  0  0  0  0
  -27.2680  -33.3773   26.1911 H   0  0  0  0  0  0
  -28.3903  -32.6778   25.0346 H   0  0  0  0  0  0
  -28.0600  -31.8596   26.5551 H   0  0  0  0  0  0
  -28.2574  -38.0101   24.7518 H   0  0  0  0  0  0
  -28.1071  -36.2636   24.6280 H   0  0  0  0  0  0
  -27.2288  -37.1449   25.8862 H   0  0  0  0  0  0
  -20.9472  -29.8786   21.6930 H   0  0  0  0  0  0
  -26.0153  -38.2838   24.1415 H   0  0  0  0  0  0
  -28.8595  -20.9549   22.8230 H   0  0  0  0  0  0
  -29.6382  -20.3954   18.6506 H   0  0  0  0  0  0
  -28.2927  -23.3053   22.4230 H   0  0  0  0  0  0
  -29.0658  -22.7479   18.2501 H   0  0  0  0  0  0
  -30.9106  -19.3571   22.7296 H   0  0  0  0  0  0
  -30.1946  -17.7183   22.9011 H   0  0  0  0  0  0
  -32.1126  -17.1461   21.4409 H   0  0  0  0  0  0
  -31.9924  -18.7228   20.5869 H   0  0  0  0  0  0
  -28.4855  -18.4603   21.4653 H   0  0  0  0  0  0
  -30.2569  -17.6638   19.2733 H   0  0  0  0  0  0
  -26.8980  -24.5638   20.3658 H   0  0  0  0  0  0
  -27.7350  -24.6914   18.8495 H   0  0  0  0  0  0
  -28.8985  -15.8303   20.9594 H   0  0  0  0  0  0
  1 25  1  0  0  0
  1 30  2  0  0  0
  1 82  1  0  0  0
  2  3  1  0  0  0
  2 25  1  0  0  0
  2 83  1  0  0  0
  2 84  1  0  0  0
  3  4  1  0  0  0
  3 85  1  0  0  0
  3 86  1  0  0  0
  4  5  1  0  0  0
  4 87  1  0  0  0
  4 88  1  0  0  0
  5  6  1  0  0  0
  5 26  1  0  0  0
  5 89  1  0  0  0
  6 25  1  0  0  0
  6 90  1  0  0  0
  6 91  1  0  0  0
  7  8  2  0  0  0
  7 26  1  0  0  0
  7 29  1  0  0  0
  8  9  1  0  0  0
  8 22  1  0  0  0
  9 10  1  0  0  0
  9 27  2  0  0  0
 10 11  2  0  0  0
 10 15  1  0  0  0
 11 12  1  0  0  0
 11 92  1  0  0  0
 12 13  2  0  0  0
 12 93  1  0  0  0
 13 14  1  0  0  0
 13 31  1  0  0  0
 14 15  2  0  0  0
 14 94  1  0  0  0
 15 95  1  0  0  0
 16 17  2  0  0  0
 16 21  1  0  0  0
 16 31  1  0  0  0
 17 18  1  0  0  0
 17 96  1  0  0  0
 18 19  2  0  0  0
 18 97  1  0  0  0
 19 20  1  0  0  0
 19 24  1  0  0  0
 20 21  2  0  0  0
 20 98  1  0  0  0
 21 23  1  0  0  0
 22 28  1  0  0  0
 22 32  2  0  0  0
 26 27  1  0  0  0
 28 99  1  0  0  0
 28100  1  0  0  0
 29101  1  0  0  0
 29102  1  0  0  0
 33 34  1  0  0  0
 33 66  1  0  0  0
 33 70  2  0  0  0
 34 36  1  0  0  0
 34 59  1  0  0  0
 34103  1  0  0  0
 35 44  2  0  0  0
 35 45  1  0  0  0
 35 68  1  0  0  0
 36 56  1  0  0  0
 36104  1  0  0  0
 37 39  1  0  0  0
 37 47  1  0  0  0
 37 66  1  0  0  0
 37105  1  0  0  0
 38 43  2  0  0  0
 38 46  1  0  0  0
 38 47  1  0  0  0
 39 64  1  0  0  0
 39 67  2  0  0  0
 40 52  1  0  0  0
 40 53  2  0  0  0
 40 58  1  0  0  0
 41106  1  0  0  0
 41107  1  0  0  0
 41108  1  0  0  0
 41 48  1  0  0  0
 42 43  1  0  0  0
 42 66  1  0  0  0
 42109  1  0  0  0
 42110  1  0  0  0
 43 44  1  0  0  0
 44111  1  0  0  0
 45 46  2  0  0  0
 45112  1  0  0  0
 46113  1  0  0  0
 47114  1  0  0  0
 47115  1  0  0  0
 48 56  1  0  0  0
 48 65  1  0  0  0
 48116  1  0  0  0
 49 50  1  0  0  0
 49 53  1  0  0  0
 49 64  1  0  0  0
 49117  1  0  0  0
 50 51  1  0  0  0
 50118  1  0  0  0
 50119  1  0  0  0
 51 52  1  0  0  0
 51120  1  0  0  0
 51121  1  0  0  0
 52122  1  0  0  0
 52123  1  0  0  0
 53 54  1  0  0  0
 54 55  2  0  0  0
 54124  1  0  0  0
 55 57  1  0  0  0
 55125  1  0  0  0
 56 69  2  0  0  0
 57 58  2  0  0  0
 57126  1  0  0  0
 58127  1  0  0  0
 59 60  1  0  0  0
 59 61  1  0  0  0
 59 62  1  0  0  0
 60128  1  0  0  0
 60129  1  0  0  0
 60130  1  0  0  0
 61131  1  0  0  0
 61132  1  0  0  0
 61133  1  0  0  0
 62134  1  0  0  0
 62135  1  0  0  0
 62136  1  0  0  0
 63 65  1  0  0  0
 63137  1  0  0  0
 63138  1  0  0  0
 63139  1  0  0  0
 64140  1  0  0  0
 65141  1  0  0  0
 68 81  1  0  0  0
 71 73  2  0  0  0
 71 75  1  0  0  0
 71142  1  0  0  0
 72 74  1  0  0  0
 72 75  2  0  0  0
 72143  1  0  0  0
 73 76  1  0  0  0
 73144  1  0  0  0
 74 76  2  0  0  0
 74145  1  0  0  0
 75 79  1  0  0  0
 76 81  1  0  0  0
 77 78  1  0  0  0
 77 79  1  0  0  0
 77146  1  0  0  0
 77147  1  0  0  0
 78 80  1  0  0  0
 78148  1  0  0  0
 78149  1  0  0  0
 79 80  1  0  0  0
 79150  1  0  0  0
 80 82  1  0  0  0
 80151  1  0  0  0
 81152  1  0  0  0
 81153  1  0  0  0
 82154  1  0  0  0
M  ISO  4   1 100  68 101  81 101  82 100
M  END
> <chiral flag>
0

> <version>
0

> <s_m_source_file>
/data/baiqing/PycharmProjects/Reinvent-master-3.2/result/LINK_invent/BTK/process_docking_weight1_custom_sum_contain_oxygen_bond_distance_aromatic_linkinvent_7_9_3/rearranged_h_0131.sdf

> <i_m_source_file_index>
67

> <r_mmod_Potential_Energy-OPLS-2005>
412.773223876953

> <r_mmod_Stretch_Energy-OPLS-2005>
186.244079589844

> <r_mmod_Bend_Energy-OPLS-2005>
242.054534912109

> <r_mmod_Torsional_Energy-OPLS-2005>
259.582977294922

> <r_mmod_Improper_Torsional_Energy-OPLS-2005>
8.44572639465332

> <r_mmod_Van_der_Waal_Energy-OPLS-2005>
142.918273925781

> <r_mmod_Electrostatic_Energy-OPLS-2005>
-355.216033935547

> <r_mmod_Solvation_Energy-OPLS-2005>
-208.125381469727

> <b_mmod_Minimization_Converged-OPLS-2005>
0

> <r_mmod_RMS_Derivative-OPLS-2005>
2.43252038955688

$$$$
67
                    3D
 Structure written by MMmdl.
181190  0  0  1  0            999 V2000
  -30.6905  -14.5389   20.5461 C   0  0  0  0  0  0
  -30.4249  -12.3373   19.4468 C   0  0  0  0  0  0
  -29.5074  -12.5024   18.2163 C   0  0  0  0  0  0
  -28.0239  -12.3715   18.6160 C   0  0  0  0  0  0
  -27.6580  -13.2165   19.8661 C   0  0  2  0  0  0
  -28.6986  -13.0406   20.9944 C   0  0  0  0  0  0
  -25.2558  -13.8152   20.5651 C   0  0  0  0  0  0
  -24.1811  -13.0444   20.9136 C   0  0  0  0  0  0
  -24.6370  -11.6923   20.8673 C   0  0  0  0  0  0
  -23.9048  -10.4302   21.0361 C   0  0  0  0  0  0
  -24.3585   -9.4215   21.9163 C   0  0  0  0  0  0
  -23.6259   -8.2255   22.0753 C   0  0  0  0  0  0
  -22.4238   -8.0246   21.3548 C   0  0  0  0  0  0
  -21.9868   -9.0231   20.4652 C   0  0  0  0  0  0
  -22.7202  -10.2113   20.3047 C   0  0  0  0  0  0
  -21.6861   -6.0695   22.5268 C   0  0  0  0  0  0
  -21.4031   -6.5613   23.8182 C   0  0  0  0  0  0
  -21.3667   -5.6756   24.9155 C   0  0  0  0  0  0
  -21.6050   -4.3026   24.7207 C   0  0  0  0  0  0
  -21.8823   -3.8110   23.4324 C   0  0  0  0  0  0
  -21.9205   -4.6939   22.3376 C   0  0  0  0  0  0
  -22.7834  -13.5267   21.1770 C   0  0  0  0  0  0
  -22.1673   -4.2122   21.0964 F   0  0  0  0  0  0
  -21.5633   -3.4512   25.7732 F   0  0  0  0  0  0
  -30.0204  -13.3554   20.4339 N   0  0  0  0  0  0
  -26.3014  -12.9356   20.3312 N   0  0  0  0  0  0
  -25.9304  -11.6510   20.5710 N   0  0  0  0  0  0
  -22.0471  -12.8294   22.0340 N   0  0  0  0  0  0
  -25.4246  -15.1855   20.4043 N   0  0  0  0  0  0
  -31.8451  -14.6619   20.1410 O   0  0  0  0  0  0
  -21.6628   -6.8838   21.4213 O   0  0  0  0  0  0
  -22.3558  -14.5575   20.6613 O   0  0  0  0  0  0
  -24.6176  -31.8635   23.2077 C   0  0  0  0  0  0
  -25.9074  -32.4784   23.8375 C   0  0  1  0  0  0
  -27.2389  -27.4013   20.1122 C   0  0  0  0  0  0
  -25.5932  -33.8578   24.2317 N   0  0  0  0  0  0
  -23.4071  -30.4882   21.5454 C   0  0  2  0  0  0
  -24.8578  -28.9434   20.1167 C   0  0  0  0  0  0
  -22.7414  -29.4667   22.4954 C   0  0  0  0  0  0
  -18.0276  -28.1390   22.8486 C   0  0  0  0  0  0
  -24.1469  -36.7270   23.2642 C   0  0  0  0  0  0
  -25.9387  -30.8203   21.3653 C   0  0  0  0  0  0
  -26.0184  -29.4502   20.7153 C   0  0  0  0  0  0
  -27.2149  -28.6894   20.7048 C   0  0  0  0  0  0
  -26.0635  -26.9142   19.5069 C   0  0  0  0  0  0
  -24.8771  -27.6756   19.5074 C   0  0  0  0  0  0
  -23.6200  -29.8153   20.1616 C   0  0  0  0  0  0
  -25.4091  -36.3072   24.0335 C   0  0  1  0  0  0
  -20.5872  -28.3683   23.1297 C   0  0  2  0  0  0
  -20.6765  -26.9411   22.5422 C   0  0  0  0  0  0
  -19.5758  -26.6396   21.5205 C   0  0  0  0  0  0
  -18.1931  -26.7939   22.1603 C   0  0  0  0  0  0
  -19.1526  -28.8842   23.2891 C   0  0  0  0  0  0
  -18.9457  -30.1460   23.8902 C   0  0  0  0  0  0
  -17.6468  -30.6589   24.0571 C   0  0  0  0  0  0
  -25.9039  -34.9451   23.5118 C   0  0  0  0  0  0
  -16.5353  -29.9094   23.6341 C   0  0  0  0  0  0
  -16.7269  -28.6513   23.0353 C   0  0  0  0  0  0
  -26.4525  -31.6567   25.0707 C   0  0  0  0  0  0
  -25.3820  -31.3654   26.1470 C   0  0  0  0  0  0
  -27.0370  -30.3011   24.6098 C   0  0  0  0  0  0
  -27.6100  -32.4290   25.7472 C   0  0  0  0  0  0
  -27.5560  -37.1789   24.8470 C   0  0  0  0  0  0
  -21.4137  -29.3040   22.3676 N   0  0  0  0  0  0
  -26.4260  -37.3772   23.9431 N   0  0  0  0  0  0
  -24.6722  -31.0731   22.0981 N   0  0  0  0  0  0
  -23.4168  -28.8218   23.3009 O   0  0  0  0  0  0
  -28.3934  -26.6402   20.0723 O   0  0  0  0  0  0
  -26.5589  -34.8912   22.4674 O   0  0  0  0  0  0
  -23.5367  -32.1406   23.7471 O   0  0  0  0  0  0
  -34.0641  -17.5257   18.5541 C   0  0  0  0  0  0
  -31.3016  -21.4663   19.2281 C   0  0  0  0  0  0
  -33.0237  -17.6417   19.6756 C   0  0  0  0  0  0
  -31.4793  -20.6201   20.4999 C   0  0  0  0  0  0
  -33.7324  -16.3897   17.5634 C   0  0  0  0  0  0
  -29.8925  -21.1410   18.7269 C   0  0  0  0  0  0
  -31.2997  -16.8703   17.9353 C   0  0  0  0  0  0
  -31.6177  -17.9119   19.0543 C   0  0  1  0  0  0
  -30.2581  -19.6700   20.5844 C   0  0  2  0  0  0
  -27.5363  -20.6308   21.7641 C   0  0  0  0  0  0
  -28.4379  -24.0620   20.1027 C   0  0  0  0  0  0
  -28.7226  -22.8100   21.0211 C   0  0  0  0  0  0
  -30.4127  -17.0342   21.2155 C   0  0  0  0  0  0
  -28.4109  -25.4310   20.8714 C   0  0  0  0  0  0
  -30.4329  -18.1404   20.0678 C   0  0  2  0  0  0
  -28.2307  -21.3636   20.5861 C   0  0  1  0  0  0
  -29.9655  -15.6321   20.9069 N   0  0  0  0  0  0
  -32.3637  -15.8535   17.7540 N   0  3  0  0  0  0
  -29.2002  -20.4552   19.8396 N   0  3  1  0  0  0
  -31.4751  -12.4271   19.1596 H   0  0  0  0  0  0
  -30.3250  -11.3366   19.8702 H   0  0  0  0  0  0
  -29.7518  -11.7559   17.4610 H   0  0  0  0  0  0
  -29.6782  -13.4739   17.7534 H   0  0  0  0  0  0
  -27.8226  -11.3175   18.8037 H   0  0  0  0  0  0
  -27.3889  -12.6617   17.7767 H   0  0  0  0  0  0
  -27.6918  -14.2584   19.5497 H   0  0  0  0  0  0
  -28.6858  -12.0134   21.3622 H   0  0  0  0  0  0
  -28.4634  -13.6653   21.8567 H   0  0  0  0  0  0
  -25.2736   -9.5686   22.4728 H   0  0  0  0  0  0
  -23.9954   -7.4659   22.7476 H   0  0  0  0  0  0
  -21.0813   -8.8734   19.8975 H   0  0  0  0  0  0
  -22.3641  -10.9620   19.6130 H   0  0  0  0  0  0
  -21.2031   -7.6123   23.9677 H   0  0  0  0  0  0
  -21.1488   -6.0501   25.9050 H   0  0  0  0  0  0
  -22.0605   -2.7586   23.2831 H   0  0  0  0  0  0
  -22.4108  -11.9998   22.4764 H   0  0  0  0  0  0
  -21.1078  -13.1308   22.2523 H   0  0  0  0  0  0
  -24.6507  -15.8305   20.5071 H   0  0  0  0  0  0
  -26.2680  -15.6232   20.0593 H   0  0  0  0  0  0
  -26.7137  -32.5502   23.1125 H   0  0  0  0  0  0
  -25.0125  -33.9732   25.0492 H   0  0  0  0  0  0
  -22.6982  -31.3062   21.4014 H   0  0  0  0  0  0
  -23.3741  -35.9597   23.3312 H   0  0  0  0  0  0
  -24.3556  -36.8879   22.2059 H   0  0  0  0  0  0
  -23.7217  -37.6466   23.6657 H   0  0  0  0  0  0
  -26.0586  -31.5866   20.5975 H   0  0  0  0  0  0
  -26.8227  -30.8710   21.9897 H   0  0  0  0  0  0
  -28.1123  -29.0826   21.1629 H   0  0  0  0  0  0
  -26.0731  -25.9463   19.0269 H   0  0  0  0  0  0
  -23.9882  -27.2797   19.0372 H   0  0  0  0  0  0
  -23.7314  -30.5887   19.3995 H   0  0  0  0  0  0
  -22.7433  -29.2363   19.8639 H   0  0  0  0  0  0
  -25.1273  -36.1910   25.0823 H   0  0  0  0  0  0
  -20.9975  -28.3273   24.1414 H   0  0  0  0  0  0
  -20.5644  -26.2303   23.3617 H   0  0  0  0  0  0
  -21.6642  -26.7439   22.1241 H   0  0  0  0  0  0
  -19.6922  -25.6309   21.1229 H   0  0  0  0  0  0
  -19.6711  -27.3207   20.6738 H   0  0  0  0  0  0
  -17.4211  -26.6708   21.3994 H   0  0  0  0  0  0
  -18.0319  -26.0067   22.8983 H   0  0  0  0  0  0
  -19.7944  -30.7266   24.2270 H   0  0  0  0  0  0
  -17.5030  -31.6269   24.5178 H   0  0  0  0  0  0
  -15.5363  -30.2995   23.7667 H   0  0  0  0  0  0
  -15.8672  -28.0834   22.7064 H   0  0  0  0  0  0
  -24.5996  -30.6989   25.7826 H   0  0  0  0  0  0
  -24.9018  -32.2794   26.4965 H   0  0  0  0  0  0
  -25.8217  -30.8808   27.0196 H   0  0  0  0  0  0
  -26.2902  -29.6716   24.1241 H   0  0  0  0  0  0
  -27.4236  -29.7297   25.4550 H   0  0  0  0  0  0
  -27.8699  -30.4321   23.9185 H   0  0  0  0  0  0
  -27.2733  -33.3597   26.2042 H   0  0  0  0  0  0
  -28.3925  -32.6820   25.0311 H   0  0  0  0  0  0
  -28.0747  -31.8410   26.5396 H   0  0  0  0  0  0
  -28.2592  -38.0073   24.7495 H   0  0  0  0  0  0
  -28.1034  -36.2603   24.6303 H   0  0  0  0  0  0
  -27.2287  -37.1456   25.8876 H   0  0  0  0  0  0
  -20.9294  -29.8742   21.6885 H   0  0  0  0  0  0
  -26.0134  -38.2833   24.1465 H   0  0  0  0  0  0
  -35.0550  -17.3768   18.9824 H   0  0  0  0  0  0
  -34.1128  -18.4708   18.0108 H   0  0  0  0  0  0
  -32.0454  -21.2316   18.4665 H   0  0  0  0  0  0
  -31.4007  -22.5304   19.4523 H   0  0  0  0  0  0
  -33.3597  -18.3925   20.3798 H   0  0  0  0  0  0
  -33.0387  -16.7258   20.2591 H   0  0  0  0  0  0
  -31.4560  -21.2933   21.3575 H   0  0  0  0  0  0
  -32.4534  -20.1585   20.5508 H   0  0  0  0  0  0
  -34.4495  -15.5790   17.6832 H   0  0  0  0  0  0
  -33.8345  -16.7364   16.5361 H   0  0  0  0  0  0
  -29.9616  -20.4530   17.8833 H   0  0  0  0  0  0
  -29.3530  -22.0128   18.3556 H   0  0  0  0  0  0
  -31.1535  -17.3873   16.9839 H   0  0  0  0  0  0
  -30.3679  -16.3403   18.1350 H   0  0  0  0  0  0
  -31.7322  -18.8419   18.5036 H   0  0  0  0  0  0
  -30.0030  -19.5990   21.6377 H   0  0  0  0  0  0
  -26.8512  -21.2884   22.2995 H   0  0  0  0  0  0
  -28.2352  -20.2648   22.5139 H   0  0  0  0  0  0
  -26.9450  -19.7816   21.4228 H   0  0  0  0  0  0
  -27.4900  -23.9476   19.5783 H   0  0  0  0  0  0
  -29.2034  -24.1116   19.3297 H   0  0  0  0  0  0
  -28.2150  -23.0422   21.9586 H   0  0  0  0  0  0
  -29.7723  -22.7889   21.2976 H   0  0  0  0  0  0
  -29.7136  -17.3770   21.9806 H   0  0  0  0  0  0
  -31.3715  -16.9992   21.7350 H   0  0  0  0  0  0
  -29.3159  -25.4982   21.4759 H   0  0  0  0  0  0
  -27.5892  -25.4374   21.5909 H   0  0  0  0  0  0
  -29.5138  -17.9542   19.5110 H   0  0  0  0  0  0
  -27.4253  -21.5417   19.8707 H   0  0  0  0  0  0
  -29.0106  -15.4179   21.1598 H   0  0  0  0  0  0
  -32.3672  -15.2910   18.6035 H   0  0  0  0  0  0
  -32.1294  -15.2417   16.9857 H   0  0  0  0  0  0
  -28.5992  -19.7702   19.4061 H   0  0  0  0  0  0
  1 25  1  0  0  0
  1 30  2  0  0  0
  1 87  1  0  0  0
  2  3  1  0  0  0
  2 25  1  0  0  0
  2 90  1  0  0  0
  2 91  1  0  0  0
  3  4  1  0  0  0
  3 92  1  0  0  0
  3 93  1  0  0  0
  4  5  1  0  0  0
  4 94  1  0  0  0
  4 95  1  0  0  0
  5  6  1  0  0  0
  5 26  1  0  0  0
  5 96  1  0  0  0
  6 25  1  0  0  0
  6 97  1  0  0  0
  6 98  1  0  0  0
  7  8  2  0  0  0
  7 26  1  0  0  0
  7 29  1  0  0  0
  8  9  1  0  0  0
  8 22  1  0  0  0
  9 10  1  0  0  0
  9 27  2  0  0  0
 10 11  2  0  0  0
 10 15  1  0  0  0
 11 12  1  0  0  0
 11 99  1  0  0  0
 12 13  2  0  0  0
 12100  1  0  0  0
 13 14  1  0  0  0
 13 31  1  0  0  0
 14 15  2  0  0  0
 14101  1  0  0  0
 15102  1  0  0  0
 16 17  2  0  0  0
 16 21  1  0  0  0
 16 31  1  0  0  0
 17 18  1  0  0  0
 17103  1  0  0  0
 18 19  2  0  0  0
 18104  1  0  0  0
 19 20  1  0  0  0
 19 24  1  0  0  0
 20 21  2  0  0  0
 20105  1  0  0  0
 21 23  1  0  0  0
 22 28  1  0  0  0
 22 32  2  0  0  0
 26 27  1  0  0  0
 28106  1  0  0  0
 28107  1  0  0  0
 29108  1  0  0  0
 29109  1  0  0  0
 33 34  1  0  0  0
 33 66  1  0  0  0
 33 70  2  0  0  0
 34 36  1  0  0  0
 34 59  1  0  0  0
 34110  1  0  0  0
 35 44  2  0  0  0
 35 45  1  0  0  0
 35 68  1  0  0  0
 36 56  1  0  0  0
 36111  1  0  0  0
 37 39  1  0  0  0
 37 47  1  0  0  0
 37 66  1  0  0  0
 37112  1  0  0  0
 38 43  2  0  0  0
 38 46  1  0  0  0
 38 47  1  0  0  0
 39 64  1  0  0  0
 39 67  2  0  0  0
 40 52  1  0  0  0
 40 53  2  0  0  0
 40 58  1  0  0  0
 41113  1  0  0  0
 41114  1  0  0  0
 41115  1  0  0  0
 41 48  1  0  0  0
 42 43  1  0  0  0
 42 66  1  0  0  0
 42116  1  0  0  0
 42117  1  0  0  0
 43 44  1  0  0  0
 44118  1  0  0  0
 45 46  2  0  0  0
 45119  1  0  0  0
 46120  1  0  0  0
 47121  1  0  0  0
 47122  1  0  0  0
 48 56  1  0  0  0
 48 65  1  0  0  0
 48123  1  0  0  0
 49 50  1  0  0  0
 49 53  1  0  0  0
 49 64  1  0  0  0
 49124  1  0  0  0
 50 51  1  0  0  0
 50125  1  0  0  0
 50126  1  0  0  0
 51 52  1  0  0  0
 51127  1  0  0  0
 51128  1  0  0  0
 52129  1  0  0  0
 52130  1  0  0  0
 53 54  1  0  0  0
 54 55  2  0  0  0
 54131  1  0  0  0
 55 57  1  0  0  0
 55132  1  0  0  0
 56 69  2  0  0  0
 57 58  2  0  0  0
 57133  1  0  0  0
 58134  1  0  0  0
 59 60  1  0  0  0
 59 61  1  0  0  0
 59 62  1  0  0  0
 60135  1  0  0  0
 60136  1  0  0  0
 60137  1  0  0  0
 61138  1  0  0  0
 61139  1  0  0  0
 61140  1  0  0  0
 62141  1  0  0  0
 62142  1  0  0  0
 62143  1  0  0  0
 63 65  1  0  0  0
 63144  1  0  0  0
 63145  1  0  0  0
 63146  1  0  0  0
 64147  1  0  0  0
 65148  1  0  0  0
 68 84  1  0  0  0
 71 73  1  0  0  0
 71 75  1  0  0  0
 71149  1  0  0  0
 71150  1  0  0  0
 72 74  1  0  0  0
 72 76  1  0  0  0
 72151  1  0  0  0
 72152  1  0  0  0
 73153  1  0  0  0
 73154  1  0  0  0
 73 78  1  0  0  0
 74155  1  0  0  0
 74156  1  0  0  0
 74 79  1  0  0  0
 75 88  1  0  0  0
 75157  1  0  0  0
 75158  1  0  0  0
 76159  1  0  0  0
 76160  1  0  0  0
 76 89  1  0  0  0
 77 78  1  0  0  0
 77 88  1  0  0  0
 77161  1  0  0  0
 77162  1  0  0  0
 78 85  1  0  0  0
 78163  1  0  0  0
 79 85  1  0  0  0
 79 89  1  0  0  0
 79164  1  0  0  0
 80165  1  0  0  0
 80166  1  0  0  0
 80167  1  0  0  0
 80 86  1  0  0  0
 81 82  1  0  0  0
 81 84  1  0  0  0
 81168  1  0  0  0
 81169  1  0  0  0
 82 86  1  0  0  0
 82170  1  0  0  0
 82171  1  0  0  0
 83 87  1  0  0  0
 83172  1  0  0  0
 83173  1  0  0  0
 83 85  1  0  0  0
 84174  1  0  0  0
 84175  1  0  0  0
 85176  1  0  0  0
 86 89  1  0  0  0
 86177  1  0  0  0
 87178  1  0  0  0
 88179  1  0  0  0
 88180  1  0  0  0
 89181  1  0  0  0
M  CHG  2  88   1  89   1
M  ISO  4   1 100  68 101  84 101  87 100
M  END
> <chiral flag>
0

> <version>
0

> <s_m_source_file>
/data/baiqing/PycharmProjects/Reinvent-master-3.2/result/LINK_invent/BTK/process_docking_weight1_custom_sum_contain_oxygen_bond_distance_aromatic_linkinvent_7_9_3/rearranged_h_0131.sdf

> <i_m_source_file_index>
68

> <r_mmod_Potential_Energy-OPLS-2005>
10.0463066101074

> <r_mmod_Stretch_Energy-OPLS-2005>
76.7838592529297

> <r_mmod_Bend_Energy-OPLS-2005>
185.619674682617

> <r_mmod_Torsional_Energy-OPLS-2005>
430.132659912109

> <r_mmod_Improper_Torsional_Energy-OPLS-2005>
5.4773120880127

> <r_mmod_Van_der_Waal_Energy-OPLS-2005>
140.318069458008

> <r_mmod_Electrostatic_Energy-OPLS-2005>
11.7424373626709

> <r_mmod_Solvation_Energy-OPLS-2005>
-860.703674316406

> <b_mmod_Minimization_Converged-OPLS-2005>
0

> <r_mmod_RMS_Derivative-OPLS-2005>
4.43109607696533

$$$$
68
                    3D
 Structure written by MMmdl.
174183  0  0  1  0            999 V2000
  -30.5343  -14.9991   20.3694 C   0  0  0  0  0  0
  -30.4302  -12.6103   19.5234 C   0  0  0  0  0  0
  -29.5277  -12.5349   18.2685 C   0  0  0  0  0  0
  -28.0556  -12.3334   18.6746 C   0  0  0  0  0  0
  -27.6255  -13.2654   19.8383 C   0  0  2  0  0  0
  -28.6641  -13.3206   20.9792 C   0  0  0  0  0  0
  -25.2419  -13.8249   20.5745 C   0  0  0  0  0  0
  -24.1743  -13.0444   20.9216 C   0  0  0  0  0  0
  -24.6404  -11.6935   20.8744 C   0  0  0  0  0  0
  -23.9085  -10.4287   21.0410 C   0  0  0  0  0  0
  -24.3639   -9.4197   21.9181 C   0  0  0  0  0  0
  -23.6298   -8.2237   22.0747 C   0  0  0  0  0  0
  -22.4275   -8.0273   21.3545 C   0  0  0  0  0  0
  -21.9909   -9.0255   20.4657 C   0  0  0  0  0  0
  -22.7257  -10.2127   20.3067 C   0  0  0  0  0  0
  -21.6842   -6.0735   22.5279 C   0  0  0  0  0  0
  -21.4022   -6.5646   23.8223 C   0  0  0  0  0  0
  -21.3661   -5.6796   24.9175 C   0  0  0  0  0  0
  -21.6029   -4.3057   24.7218 C   0  0  0  0  0  0
  -21.8819   -3.8147   23.4337 C   0  0  0  0  0  0
  -21.9192   -4.6967   22.3403 C   0  0  0  0  0  0
  -22.7769  -13.5215   21.1870 C   0  0  0  0  0  0
  -22.1654   -4.2164   21.0970 F   0  0  0  0  0  0
  -21.5609   -3.4535   25.7726 F   0  0  0  0  0  0
  -29.9362  -13.7335   20.3781 N   0  0  0  0  0  0
  -26.2863  -12.9529   20.3245 N   0  0  0  0  0  0
  -25.9343  -11.6637   20.5716 N   0  0  0  0  0  0
  -22.0415  -12.8225   22.0437 N   0  0  0  0  0  0
  -25.4056  -15.1977   20.4207 N   0  0  0  0  0  0
  -31.7389  -15.0209   20.0965 O   0  0  0  0  0  0
  -21.6630   -6.8878   21.4244 O   0  0  0  0  0  0
  -22.3468  -14.5531   20.6716 O   0  0  0  0  0  0
  -24.6482  -31.8404   23.1829 C   0  0  0  0  0  0
  -25.9236  -32.4664   23.8240 C   0  0  1  0  0  0
  -27.2079  -27.0875   20.1626 C   0  0  0  0  0  0
  -25.5961  -33.8474   24.2151 N   0  0  0  0  0  0
  -23.4532  -30.4576   21.5304 C   0  0  2  0  0  0
  -24.8992  -28.8685   20.1170 C   0  0  0  0  0  0
  -22.7584  -29.4544   22.4848 C   0  0  0  0  0  0
  -18.0310  -28.1412   22.8479 C   0  0  0  0  0  0
  -24.1489  -36.7232   23.2648 C   0  0  0  0  0  0
  -26.0120  -30.6965   21.3902 C   0  0  0  0  0  0
  -26.0790  -29.3019   20.7347 C   0  0  0  0  0  0
  -27.2390  -28.4308   20.7311 C   0  0  0  0  0  0
  -25.9990  -26.7549   19.5211 C   0  0  0  0  0  0
  -24.8723  -27.6093   19.4964 C   0  0  0  0  0  0
  -23.6815  -29.7823   20.1522 C   0  0  0  0  0  0
  -25.4132  -36.3002   24.0305 C   0  0  1  0  0  0
  -20.5926  -28.3743   23.1220 C   0  0  2  0  0  0
  -20.6793  -26.9439   22.5403 C   0  0  0  0  0  0
  -19.5764  -26.6386   21.5216 C   0  0  0  0  0  0
  -18.1943  -26.7946   22.1625 C   0  0  0  0  0  0
  -19.1567  -28.8897   23.2837 C   0  0  0  0  0  0
  -18.9482  -30.1487   23.8870 C   0  0  0  0  0  0
  -17.6480  -30.6598   24.0562 C   0  0  0  0  0  0
  -25.9089  -34.9388   23.5042 C   0  0  0  0  0  0
  -16.5373  -29.9089   23.6344 C   0  0  0  0  0  0
  -16.7293  -28.6513   23.0356 C   0  0  0  0  0  0
  -26.4536  -31.6565   25.0713 C   0  0  0  0  0  0
  -25.3697  -31.3782   26.1389 C   0  0  0  0  0  0
  -27.0422  -30.2948   24.6362 C   0  0  0  0  0  0
  -27.6043  -32.4358   25.7510 C   0  0  0  0  0  0
  -27.5568  -37.1777   24.8466 C   0  0  0  0  0  0
  -21.4280  -29.3050   22.3584 N   0  0  0  0  0  0
  -26.4277  -37.3729   23.9411 N   0  0  0  0  0  0
  -24.7244  -31.0213   22.0888 N   0  0  0  0  0  0
  -23.4201  -28.8112   23.3033 O   0  0  0  0  0  0
  -28.2632  -26.0955   20.1279 O   0  0  0  0  0  0
  -26.5679  -34.8900   22.4623 O   0  0  0  0  0  0
  -23.5594  -32.1304   23.7020 O   0  0  0  0  0  0
  -29.7500  -16.8227   18.1657 C   0  0  0  0  0  0
  -29.6425  -17.5324   16.9755 C   0  0  0  0  0  0
  -29.8358  -19.6222   18.2086 C   0  0  0  0  0  0
  -29.6105  -18.9495   19.4603 C   0  0  0  0  0  0
  -29.7490  -17.4115   19.4589 C   0  0  0  0  0  0
  -29.6819  -18.9212   16.9860 C   0  0  0  0  0  0
  -30.3998  -21.0417   18.1287 C   0  0  0  0  0  0
  -29.1052  -20.0900   20.5192 C   0  0  0  0  0  0
  -29.3170  -21.7686   20.2496 C   0  0  2  0  0  0
  -28.1920  -20.8294   14.2431 C   0  0  0  0  0  0
  -33.4108  -21.9322   19.2826 C   0  0  0  0  0  0
  -33.1825  -24.3103   20.0677 C   0  0  0  0  0  0
  -28.1739  -23.0317   20.0497 C   0  0  0  0  0  0
  -31.1188  -23.1312   19.2261 C   0  0  0  0  0  0
  -28.2397  -20.0397   15.5525 C   0  0  0  0  0  0
  -28.1424  -24.6298   20.6931 C   0  0  0  0  0  0
  -32.4734  -22.9533   19.9498 C   0  0  0  0  0  0
  -30.2949  -21.9038   19.1713 N   0  0  0  0  0  0
  -29.7947  -16.2366   20.4568 N   0  0  0  0  0  0
  -31.0403  -21.3621   17.1211 O   0  0  0  0  0  0
  -29.5565  -19.5499   15.7731 O   0  0  0  0  0  0
  -31.4712  -12.7447   19.2250 H   0  0  0  0  0  0
  -30.3970  -11.6695   20.0744 H   0  0  0  0  0  0
  -29.8501  -11.7251   17.6117 H   0  0  0  0  0  0
  -29.6279  -13.4507   17.6863 H   0  0  0  0  0  0
  -27.9411  -11.2928   18.9782 H   0  0  0  0  0  0
  -27.4041  -12.4779   17.8120 H   0  0  0  0  0  0
  -27.5789  -14.2653   19.4051 H   0  0  0  0  0  0
  -28.7595  -12.3504   21.4687 H   0  0  0  0  0  0
  -28.3603  -14.0298   21.7502 H   0  0  0  0  0  0
  -25.2780   -9.5658   22.4770 H   0  0  0  0  0  0
  -23.9989   -7.4627   22.7487 H   0  0  0  0  0  0
  -21.0817   -8.8818   19.8986 H   0  0  0  0  0  0
  -22.3724  -10.9679   19.6192 H   0  0  0  0  0  0
  -21.2045   -7.6161   23.9729 H   0  0  0  0  0  0
  -21.1473   -6.0525   25.9087 H   0  0  0  0  0  0
  -22.0603   -2.7608   23.2840 H   0  0  0  0  0  0
  -22.4011  -11.9901   22.4858 H   0  0  0  0  0  0
  -21.1043  -13.1280   22.2651 H   0  0  0  0  0  0
  -24.6342  -15.8445   20.5402 H   0  0  0  0  0  0
  -26.2505  -15.6418   20.0869 H   0  0  0  0  0  0
  -26.7307  -32.5251   23.0974 H   0  0  0  0  0  0
  -25.0064  -33.9584   25.0261 H   0  0  0  0  0  0
  -22.7585  -31.2848   21.3718 H   0  0  0  0  0  0
  -23.3753  -35.9557   23.3307 H   0  0  0  0  0  0
  -24.3567  -36.8878   22.2061 H   0  0  0  0  0  0
  -23.7246  -37.6426   23.6702 H   0  0  0  0  0  0
  -26.1800  -31.4499   20.6187 H   0  0  0  0  0  0
  -26.8771  -30.7418   22.0407 H   0  0  0  0  0  0
  -28.1465  -28.7645   21.2135 H   0  0  0  0  0  0
  -25.9140  -25.7897   19.0394 H   0  0  0  0  0  0
  -23.9703  -27.2726   19.0040 H   0  0  0  0  0  0
  -23.8278  -30.5539   19.3951 H   0  0  0  0  0  0
  -22.7924  -29.2318   19.8395 H   0  0  0  0  0  0
  -25.1322  -36.1823   25.0793 H   0  0  0  0  0  0
  -21.0005  -28.3340   24.1347 H   0  0  0  0  0  0
  -20.5686  -26.2365   23.3636 H   0  0  0  0  0  0
  -21.6664  -26.7442   22.1212 H   0  0  0  0  0  0
  -19.6931  -25.6285   21.1273 H   0  0  0  0  0  0
  -19.6697  -27.3176   20.6729 H   0  0  0  0  0  0
  -17.4216  -26.6687   21.4024 H   0  0  0  0  0  0
  -18.0335  -26.0093   22.9027 H   0  0  0  0  0  0
  -19.7961  -30.7307   24.2218 H   0  0  0  0  0  0
  -17.5038  -31.6275   24.5172 H   0  0  0  0  0  0
  -15.5372  -30.2984   23.7684 H   0  0  0  0  0  0
  -15.8693  -28.0819   22.7089 H   0  0  0  0  0  0
  -24.5857  -30.7161   25.7697 H   0  0  0  0  0  0
  -24.8912  -32.2979   26.4763 H   0  0  0  0  0  0
  -25.7941  -30.8970   27.0206 H   0  0  0  0  0  0
  -26.3070  -29.6654   24.1331 H   0  0  0  0  0  0
  -27.3964  -29.7277   25.4984 H   0  0  0  0  0  0
  -27.9007  -30.4171   23.9750 H   0  0  0  0  0  0
  -27.2606  -33.3676   26.2017 H   0  0  0  0  0  0
  -28.3883  -32.6899   25.0361 H   0  0  0  0  0  0
  -28.0679  -31.8542   26.5488 H   0  0  0  0  0  0
  -28.2577  -38.0073   24.7497 H   0  0  0  0  0  0
  -28.1058  -36.2607   24.6302 H   0  0  0  0  0  0
  -27.2285  -37.1442   25.8863 H   0  0  0  0  0  0
  -20.9504  -29.8734   21.6734 H   0  0  0  0  0  0
  -26.0133  -38.2791   24.1403 H   0  0  0  0  0  0
  -29.7630  -15.7532   18.0347 H   0  0  0  0  0  0
  -29.5731  -17.0039   16.0351 H   0  0  0  0  0  0
  -29.5931  -19.8406   21.4628 H   0  0  0  0  0  0
  -28.0453  -19.9050   20.7019 H   0  0  0  0  0  0
  -29.8355  -22.0724   21.1604 H   0  0  0  0  0  0
  -27.1825  -21.1961   14.0585 H   0  0  0  0  0  0
  -28.4822  -20.2128   13.3932 H   0  0  0  0  0  0
  -28.8630  -21.6875   14.2794 H   0  0  0  0  0  0
  -34.3671  -21.8738   19.8033 H   0  0  0  0  0  0
  -33.6231  -22.2065   18.2495 H   0  0  0  0  0  0
  -32.9882  -20.9277   19.2831 H   0  0  0  0  0  0
  -34.1213  -24.2271   20.6162 H   0  0  0  0  0  0
  -32.5625  -25.0358   20.5948 H   0  0  0  0  0  0
  -33.4095  -24.7216   19.0829 H   0  0  0  0  0  0
  -27.2671  -22.5881   20.4611 H   0  0  0  0  0  0
  -27.9377  -23.1078   18.9880 H   0  0  0  0  0  0
  -31.2865  -23.5308   18.2236 H   0  0  0  0  0  0
  -30.5699  -23.9266   19.7263 H   0  0  0  0  0  0
  -27.5354  -19.2054   15.5075 H   0  0  0  0  0  0
  -27.9266  -20.6816   16.3780 H   0  0  0  0  0  0
  -28.8752  -24.6103   21.5002 H   0  0  0  0  0  0
  -27.1966  -24.6684   21.2357 H   0  0  0  0  0  0
  -32.2726  -22.6009   20.9626 H   0  0  0  0  0  0
  -28.9472  -16.1466   20.9970 H   0  0  0  0  0  0
  1 25  1  0  0  0
  1 30  2  0  0  0
  1 89  1  0  0  0
  2  3  1  0  0  0
  2 25  1  0  0  0
  2 92  1  0  0  0
  2 93  1  0  0  0
  3  4  1  0  0  0
  3 94  1  0  0  0
  3 95  1  0  0  0
  4  5  1  0  0  0
  4 96  1  0  0  0
  4 97  1  0  0  0
  5  6  1  0  0  0
  5 26  1  0  0  0
  5 98  1  0  0  0
  6 25  1  0  0  0
  6 99  1  0  0  0
  6100  1  0  0  0
  7  8  2  0  0  0
  7 26  1  0  0  0
  7 29  1  0  0  0
  8  9  1  0  0  0
  8 22  1  0  0  0
  9 10  1  0  0  0
  9 27  2  0  0  0
 10 11  2  0  0  0
 10 15  1  0  0  0
 11 12  1  0  0  0
 11101  1  0  0  0
 12 13  2  0  0  0
 12102  1  0  0  0
 13 14  1  0  0  0
 13 31  1  0  0  0
 14 15  2  0  0  0
 14103  1  0  0  0
 15104  1  0  0  0
 16 17  2  0  0  0
 16 21  1  0  0  0
 16 31  1  0  0  0
 17 18  1  0  0  0
 17105  1  0  0  0
 18 19  2  0  0  0
 18106  1  0  0  0
 19 20  1  0  0  0
 19 24  1  0  0  0
 20 21  2  0  0  0
 20107  1  0  0  0
 21 23  1  0  0  0
 22 28  1  0  0  0
 22 32  2  0  0  0
 26 27  1  0  0  0
 28108  1  0  0  0
 28109  1  0  0  0
 29110  1  0  0  0
 29111  1  0  0  0
 33 34  1  0  0  0
 33 66  1  0  0  0
 33 70  2  0  0  0
 34 36  1  0  0  0
 34 59  1  0  0  0
 34112  1  0  0  0
 35 44  2  0  0  0
 35 45  1  0  0  0
 35 68  1  0  0  0
 36 56  1  0  0  0
 36113  1  0  0  0
 37 39  1  0  0  0
 37 47  1  0  0  0
 37 66  1  0  0  0
 37114  1  0  0  0
 38 43  2  0  0  0
 38 46  1  0  0  0
 38 47  1  0  0  0
 39 64  1  0  0  0
 39 67  2  0  0  0
 40 52  1  0  0  0
 40 53  2  0  0  0
 40 58  1  0  0  0
 41115  1  0  0  0
 41116  1  0  0  0
 41117  1  0  0  0
 41 48  1  0  0  0
 42 43  1  0  0  0
 42 66  1  0  0  0
 42118  1  0  0  0
 42119  1  0  0  0
 43 44  1  0  0  0
 44120  1  0  0  0
 45 46  2  0  0  0
 45121  1  0  0  0
 46122  1  0  0  0
 47123  1  0  0  0
 47124  1  0  0  0
 48 56  1  0  0  0
 48 65  1  0  0  0
 48125  1  0  0  0
 49 50  1  0  0  0
 49 53  1  0  0  0
 49 64  1  0  0  0
 49126  1  0  0  0
 50 51  1  0  0  0
 50127  1  0  0  0
 50128  1  0  0  0
 51 52  1  0  0  0
 51129  1  0  0  0
 51130  1  0  0  0
 52131  1  0  0  0
 52132  1  0  0  0
 53 54  1  0  0  0
 54 55  2  0  0  0
 54133  1  0  0  0
 55 57  1  0  0  0
 55134  1  0  0  0
 56 69  2  0  0  0
 57 58  2  0  0  0
 57135  1  0  0  0
 58136  1  0  0  0
 59 60  1  0  0  0
 59 61  1  0  0  0
 59 62  1  0  0  0
 60137  1  0  0  0
 60138  1  0  0  0
 60139  1  0  0  0
 61140  1  0  0  0
 61141  1  0  0  0
 61142  1  0  0  0
 62143  1  0  0  0
 62144  1  0  0  0
 62145  1  0  0  0
 63 65  1  0  0  0
 63146  1  0  0  0
 63147  1  0  0  0
 63148  1  0  0  0
 64149  1  0  0  0
 65150  1  0  0  0
 68 86  1  0  0  0
 71 72  2  0  0  0
 71 75  1  0  0  0
 71151  1  0  0  0
 72 76  1  0  0  0
 72152  1  0  0  0
 73 74  1  0  0  0
 73 76  2  0  0  0
 73 77  1  0  0  0
 74 75  2  0  0  0
 74 78  1  0  0  0
 75 89  1  0  0  0
 76 91  1  0  0  0
 77 88  1  0  0  0
 77 90  2  0  0  0
 78 79  1  0  0  0
 78153  1  0  0  0
 78154  1  0  0  0
 79 83  1  0  0  0
 79 88  1  0  0  0
 79155  1  0  0  0
 80 85  1  0  0  0
 80156  1  0  0  0
 80157  1  0  0  0
 80158  1  0  0  0
 81159  1  0  0  0
 81160  1  0  0  0
 81161  1  0  0  0
 81 87  1  0  0  0
 82 87  1  0  0  0
 82162  1  0  0  0
 82163  1  0  0  0
 82164  1  0  0  0
 83 86  1  0  0  0
 83165  1  0  0  0
 83166  1  0  0  0
 84 87  1  0  0  0
 84 88  1  0  0  0
 84167  1  0  0  0
 84168  1  0  0  0
 85 91  1  0  0  0
 85169  1  0  0  0
 85170  1  0  0  0
 86171  1  0  0  0
 86172  1  0  0  0
 87173  1  0  0  0
 89174  1  0  0  0
M  ISO  4   1 100  68 101  86 101  89 100
M  END
> <chiral flag>
0

> <version>
0

> <s_m_source_file>
/data/baiqing/PycharmProjects/Reinvent-master-3.2/result/LINK_invent/BTK/process_docking_weight1_custom_sum_contain_oxygen_bond_distance_aromatic_linkinvent_7_9_3/rearranged_h_0131.sdf

> <i_m_source_file_index>
69

> <r_mmod_Potential_Energy-OPLS-2005>
1005.63543701172

> <r_mmod_Stretch_Energy-OPLS-2005>
350.227630615234

> <r_mmod_Bend_Energy-OPLS-2005>
398.065948486328

> <r_mmod_Torsional_Energy-OPLS-2005>
436.264801025391

> <r_mmod_Improper_Torsional_Energy-OPLS-2005>
8.32249069213867

> <r_mmod_Van_der_Waal_Energy-OPLS-2005>
148.029006958008

> <r_mmod_Electrostatic_Energy-OPLS-2005>
-330.87109375

> <r_mmod_Solvation_Energy-OPLS-2005>
-232.603485107422

> <b_mmod_Minimization_Converged-OPLS-2005>
0

> <r_mmod_RMS_Derivative-OPLS-2005>
3.21208786964417

$$$$
69
                    3D
 Structure written by MMmdl.
159168  0  0  1  0            999 V2000
  -30.6632  -14.5537   20.5272 C   0  0  0  0  0  0
  -30.4418  -12.3390   19.4575 C   0  0  0  0  0  0
  -29.5176  -12.4950   18.2293 C   0  0  0  0  0  0
  -28.0349  -12.3535   18.6311 C   0  0  0  0  0  0
  -27.6647  -13.2081   19.8735 C   0  0  2  0  0  0
  -28.7045  -13.0220   21.0043 C   0  0  0  0  0  0
  -25.2602  -13.8147   20.5669 C   0  0  0  0  0  0
  -24.1840  -13.0438   20.9167 C   0  0  0  0  0  0
  -24.6386  -11.6900   20.8709 C   0  0  0  0  0  0
  -23.9038  -10.4292   21.0382 C   0  0  0  0  0  0
  -24.3588   -9.4228   21.9165 C   0  0  0  0  0  0
  -23.6280   -8.2256   22.0751 C   0  0  0  0  0  0
  -22.4268   -8.0263   21.3540 C   0  0  0  0  0  0
  -21.9885   -9.0238   20.4637 C   0  0  0  0  0  0
  -22.7202  -10.2125   20.3040 C   0  0  0  0  0  0
  -21.6854   -6.0715   22.5284 C   0  0  0  0  0  0
  -21.4014   -6.5619   23.8209 C   0  0  0  0  0  0
  -21.3666   -5.6771   24.9176 C   0  0  0  0  0  0
  -21.6049   -4.3038   24.7230 C   0  0  0  0  0  0
  -21.8822   -3.8128   23.4348 C   0  0  0  0  0  0
  -21.9199   -4.6947   22.3402 C   0  0  0  0  0  0
  -22.7864  -13.5254   21.1836 C   0  0  0  0  0  0
  -22.1666   -4.2128   21.0986 F   0  0  0  0  0  0
  -21.5634   -3.4521   25.7744 F   0  0  0  0  0  0
  -30.0355  -13.3422   20.4574 N   0  0  0  0  0  0
  -26.3042  -12.9321   20.3341 N   0  0  0  0  0  0
  -25.9322  -11.6477   20.5733 N   0  0  0  0  0  0
  -22.0484  -12.8251   22.0380 N   0  0  0  0  0  0
  -25.4360  -15.1862   20.4096 N   0  0  0  0  0  0
  -31.7907  -14.7442   20.0656 O   0  0  0  0  0  0
  -21.6641   -6.8858   21.4237 O   0  0  0  0  0  0
  -22.3562  -14.5570   20.6698 O   0  0  0  0  0  0
  -24.6220  -31.8654   23.2066 C   0  0  0  0  0  0
  -25.9097  -32.4811   23.8367 C   0  0  1  0  0  0
  -27.2262  -27.3797   20.0870 C   0  0  0  0  0  0
  -25.5934  -33.8612   24.2309 N   0  0  0  0  0  0
  -23.4100  -30.4927   21.5500 C   0  0  2  0  0  0
  -24.8530  -28.9601   20.1071 C   0  0  0  0  0  0
  -22.7453  -29.4654   22.4964 C   0  0  0  0  0  0
  -18.0298  -28.1373   22.8541 C   0  0  0  0  0  0
  -24.1484  -36.7282   23.2631 C   0  0  0  0  0  0
  -25.9469  -30.8136   21.3673 C   0  0  0  0  0  0
  -26.0206  -29.4478   20.7075 C   0  0  0  0  0  0
  -27.2092  -28.6677   20.6931 C   0  0  0  0  0  0
  -26.0316  -26.9373   19.4656 C   0  0  0  0  0  0
  -24.8560  -27.7069   19.4803 C   0  0  0  0  0  0
  -23.6190  -29.8340   20.1610 C   0  0  0  0  0  0
  -25.4109  -36.3102   24.0338 C   0  0  1  0  0  0
  -20.5898  -28.3650   23.1337 C   0  0  2  0  0  0
  -20.6794  -26.9390   22.5428 C   0  0  0  0  0  0
  -19.5751  -26.6395   21.5246 C   0  0  0  0  0  0
  -18.1928  -26.7930   22.1651 C   0  0  0  0  0  0
  -19.1553  -28.8834   23.2939 C   0  0  0  0  0  0
  -18.9473  -30.1448   23.8929 C   0  0  0  0  0  0
  -17.6473  -30.6588   24.0582 C   0  0  0  0  0  0
  -25.9059  -34.9479   23.5124 C   0  0  0  0  0  0
  -16.5365  -29.9093   23.6342 C   0  0  0  0  0  0
  -16.7291  -28.6506   23.0384 C   0  0  0  0  0  0
  -26.4492  -31.6593   25.0704 C   0  0  0  0  0  0
  -25.3773  -31.3711   26.1463 C   0  0  0  0  0  0
  -27.0290  -30.3036   24.6054 C   0  0  0  0  0  0
  -27.6036  -32.4312   25.7489 C   0  0  0  0  0  0
  -27.5575  -37.1794   24.8475 C   0  0  0  0  0  0
  -21.4168  -29.3016   22.3723 N   0  0  0  0  0  0
  -26.4274  -37.3812   23.9434 N   0  0  0  0  0  0
  -24.6789  -31.0717   22.0987 N   0  0  0  0  0  0
  -23.4226  -28.8196   23.3011 O   0  0  0  0  0  0
  -28.3691  -26.5750   20.1243 O   0  0  0  0  0  0
  -26.5607  -34.8941   22.4670 O   0  0  0  0  0  0
  -23.5396  -32.1421   23.7448 O   0  0  0  0  0  0
  -31.4097  -22.1825   20.8332 C   0  0  0  0  0  0
  -29.1095  -22.7369   20.0511 C   0  0  0  0  0  0
  -31.5924  -23.5688   20.8785 C   0  0  0  0  0  0
  -30.5859  -24.5223   20.5351 C   0  0  0  0  0  0
  -29.3021  -24.1639   20.1261 C   0  0  0  0  0  0
  -30.1203  -21.7551   20.3935 C   0  0  0  0  0  0
  -32.6252  -24.6332   21.1572 C   0  0  0  0  0  0
  -31.4907  -25.7047   20.7740 C   0  0  0  0  0  0
  -28.1999  -25.1736   19.7481 C   0  0  0  0  0  0
  -30.7156  -18.0625   21.1512 C   0  0  0  0  0  0
  -30.0693  -19.4754   21.4085 C   0  0  0  0  0  0
  -29.8634  -16.9851   20.4040 C   0  0  0  0  0  0
  -29.8582  -20.3664   20.2478 N   0  0  0  0  0  0
  -29.8839  -15.5878   20.9266 N   0  0  0  0  0  0
  -31.4867  -12.4503   19.1638 H   0  0  0  0  0  0
  -30.3596  -11.3362   19.8804 H   0  0  0  0  0  0
  -29.7740  -11.7499   17.4746 H   0  0  0  0  0  0
  -29.6847  -13.4695   17.7674 H   0  0  0  0  0  0
  -27.8501  -11.2996   18.8405 H   0  0  0  0  0  0
  -27.3918  -12.6133   17.7901 H   0  0  0  0  0  0
  -27.6992  -14.2509   19.5569 H   0  0  0  0  0  0
  -28.6914  -11.9931   21.3654 H   0  0  0  0  0  0
  -28.4552  -13.6384   21.8696 H   0  0  0  0  0  0
  -25.2731   -9.5723   22.4736 H   0  0  0  0  0  0
  -23.9995   -7.4652   22.7471 H   0  0  0  0  0  0
  -21.0813   -8.8736   19.8935 H   0  0  0  0  0  0
  -22.3642  -10.9652   19.6137 H   0  0  0  0  0  0
  -21.1999   -7.6123   23.9713 H   0  0  0  0  0  0
  -21.1485   -6.0498   25.9079 H   0  0  0  0  0  0
  -22.0596   -2.7590   23.2858 H   0  0  0  0  0  0
  -22.4063  -11.9897   22.4765 H   0  0  0  0  0  0
  -21.1106  -13.1293   22.2564 H   0  0  0  0  0  0
  -24.6732  -15.8457   20.5136 H   0  0  0  0  0  0
  -26.2914  -15.6195   20.0873 H   0  0  0  0  0  0
  -26.7155  -32.5492   23.1104 H   0  0  0  0  0  0
  -25.0132  -33.9761   25.0486 H   0  0  0  0  0  0
  -22.7009  -31.3129   21.4165 H   0  0  0  0  0  0
  -23.3749  -35.9609   23.3320 H   0  0  0  0  0  0
  -24.3597  -36.8871   22.2041 H   0  0  0  0  0  0
  -23.7222  -37.6479   23.6642 H   0  0  0  0  0  0
  -26.0731  -31.5848   20.6061 H   0  0  0  0  0  0
  -26.8299  -30.8582   21.9934 H   0  0  0  0  0  0
  -28.1057  -29.0441   21.1654 H   0  0  0  0  0  0
  -25.9646  -25.9865   18.9606 H   0  0  0  0  0  0
  -23.9624  -27.3291   19.0037 H   0  0  0  0  0  0
  -23.7316  -30.6152   19.4080 H   0  0  0  0  0  0
  -22.7394  -29.2620   19.8593 H   0  0  0  0  0  0
  -25.1296  -36.1932   25.0829 H   0  0  0  0  0  0
  -21.0012  -28.3190   24.1455 H   0  0  0  0  0  0
  -20.5728  -26.2251   23.3611 H   0  0  0  0  0  0
  -21.6659  -26.7463   22.1189 H   0  0  0  0  0  0
  -19.6896  -25.6324   21.1234 H   0  0  0  0  0  0
  -19.6665  -27.3255   20.6814 H   0  0  0  0  0  0
  -17.4217  -26.6755   21.4021 H   0  0  0  0  0  0
  -18.0268  -26.0059   22.9019 H   0  0  0  0  0  0
  -19.7946  -30.7278   24.2283 H   0  0  0  0  0  0
  -17.5030  -31.6272   24.5171 H   0  0  0  0  0  0
  -15.5368  -30.3000   23.7634 H   0  0  0  0  0  0
  -15.8704  -28.0819   22.7074 H   0  0  0  0  0  0
  -24.5974  -30.7003   25.7856 H   0  0  0  0  0  0
  -24.8922  -32.2863   26.4858 H   0  0  0  0  0  0
  -25.8161  -30.8964   27.0250 H   0  0  0  0  0  0
  -26.2808  -29.6827   24.1098 H   0  0  0  0  0  0
  -27.4070  -29.7233   25.4470 H   0  0  0  0  0  0
  -27.8684  -30.4367   23.9224 H   0  0  0  0  0  0
  -27.2631  -33.3616   26.2043 H   0  0  0  0  0  0
  -28.3880  -32.6837   25.0356 H   0  0  0  0  0  0
  -28.0665  -31.8439   26.5427 H   0  0  0  0  0  0
  -28.2604  -38.0084   24.7562 H   0  0  0  0  0  0
  -28.1063  -36.2620   24.6266 H   0  0  0  0  0  0
  -27.2322  -37.1415   25.8888 H   0  0  0  0  0  0
  -20.9310  -29.8746   21.6970 H   0  0  0  0  0  0
  -26.0143  -38.2885   24.1434 H   0  0  0  0  0  0
  -32.2084  -21.4952   21.0758 H   0  0  0  0  0  0
  -28.1461  -22.3879   19.7076 H   0  0  0  0  0  0
  -33.4622  -24.5990   20.4585 H   0  0  0  0  0  0
  -32.9418  -24.6671   22.1991 H   0  0  0  0  0  0
  -31.1590  -26.3306   21.6019 H   0  0  0  0  0  0
  -31.6945  -26.2700   19.8633 H   0  0  0  0  0  0
  -27.2935  -24.7795   20.2098 H   0  0  0  0  0  0
  -28.0693  -25.1166   18.6649 H   0  0  0  0  0  0
  -30.9657  -17.6585   22.1333 H   0  0  0  0  0  0
  -31.6754  -18.1844   20.6484 H   0  0  0  0  0  0
  -30.6762  -19.9882   22.1569 H   0  0  0  0  0  0
  -29.0987  -19.3304   21.8856 H   0  0  0  0  0  0
  -30.1342  -16.9778   19.3466 H   0  0  0  0  0  0
  -28.8196  -17.2979   20.4253 H   0  0  0  0  0  0
  -28.9809  -20.1732   19.7693 H   0  0  0  0  0  0
  -29.0224  -15.2944   21.3628 H   0  0  0  0  0  0
  1 25  1  0  0  0
  1 30  2  0  0  0
  1 84  1  0  0  0
  2  3  1  0  0  0
  2 25  1  0  0  0
  2 85  1  0  0  0
  2 86  1  0  0  0
  3  4  1  0  0  0
  3 87  1  0  0  0
  3 88  1  0  0  0
  4  5  1  0  0  0
  4 89  1  0  0  0
  4 90  1  0  0  0
  5  6  1  0  0  0
  5 26  1  0  0  0
  5 91  1  0  0  0
  6 25  1  0  0  0
  6 92  1  0  0  0
  6 93  1  0  0  0
  7  8  2  0  0  0
  7 26  1  0  0  0
  7 29  1  0  0  0
  8  9  1  0  0  0
  8 22  1  0  0  0
  9 10  1  0  0  0
  9 27  2  0  0  0
 10 11  2  0  0  0
 10 15  1  0  0  0
 11 12  1  0  0  0
 11 94  1  0  0  0
 12 13  2  0  0  0
 12 95  1  0  0  0
 13 14  1  0  0  0
 13 31  1  0  0  0
 14 15  2  0  0  0
 14 96  1  0  0  0
 15 97  1  0  0  0
 16 17  2  0  0  0
 16 21  1  0  0  0
 16 31  1  0  0  0
 17 18  1  0  0  0
 17 98  1  0  0  0
 18 19  2  0  0  0
 18 99  1  0  0  0
 19 20  1  0  0  0
 19 24  1  0  0  0
 20 21  2  0  0  0
 20100  1  0  0  0
 21 23  1  0  0  0
 22 28  1  0  0  0
 22 32  2  0  0  0
 26 27  1  0  0  0
 28101  1  0  0  0
 28102  1  0  0  0
 29103  1  0  0  0
 29104  1  0  0  0
 33 34  1  0  0  0
 33 66  1  0  0  0
 33 70  2  0  0  0
 34 36  1  0  0  0
 34 59  1  0  0  0
 34105  1  0  0  0
 35 44  2  0  0  0
 35 45  1  0  0  0
 35 68  1  0  0  0
 36 56  1  0  0  0
 36106  1  0  0  0
 37 39  1  0  0  0
 37 47  1  0  0  0
 37 66  1  0  0  0
 37107  1  0  0  0
 38 43  2  0  0  0
 38 46  1  0  0  0
 38 47  1  0  0  0
 39 64  1  0  0  0
 39 67  2  0  0  0
 40 52  1  0  0  0
 40 53  2  0  0  0
 40 58  1  0  0  0
 41108  1  0  0  0
 41109  1  0  0  0
 41110  1  0  0  0
 41 48  1  0  0  0
 42 43  1  0  0  0
 42 66  1  0  0  0
 42111  1  0  0  0
 42112  1  0  0  0
 43 44  1  0  0  0
 44113  1  0  0  0
 45 46  2  0  0  0
 45114  1  0  0  0
 46115  1  0  0  0
 47116  1  0  0  0
 47117  1  0  0  0
 48 56  1  0  0  0
 48 65  1  0  0  0
 48118  1  0  0  0
 49 50  1  0  0  0
 49 53  1  0  0  0
 49 64  1  0  0  0
 49119  1  0  0  0
 50 51  1  0  0  0
 50120  1  0  0  0
 50121  1  0  0  0
 51 52  1  0  0  0
 51122  1  0  0  0
 51123  1  0  0  0
 52124  1  0  0  0
 52125  1  0  0  0
 53 54  1  0  0  0
 54 55  2  0  0  0
 54126  1  0  0  0
 55 57  1  0  0  0
 55127  1  0  0  0
 56 69  2  0  0  0
 57 58  2  0  0  0
 57128  1  0  0  0
 58129  1  0  0  0
 59 60  1  0  0  0
 59 61  1  0  0  0
 59 62  1  0  0  0
 60130  1  0  0  0
 60131  1  0  0  0
 60132  1  0  0  0
 61133  1  0  0  0
 61134  1  0  0  0
 61135  1  0  0  0
 62136  1  0  0  0
 62137  1  0  0  0
 62138  1  0  0  0
 63 65  1  0  0  0
 63139  1  0  0  0
 63140  1  0  0  0
 63141  1  0  0  0
 64142  1  0  0  0
 65143  1  0  0  0
 68 79  1  0  0  0
 71 73  2  0  0  0
 71 76  1  0  0  0
 71144  1  0  0  0
 72 75  1  0  0  0
 72 76  2  0  0  0
 72145  1  0  0  0
 73 74  1  0  0  0
 73 77  1  0  0  0
 74 75  2  0  0  0
 74 78  1  0  0  0
 75 79  1  0  0  0
 76 83  1  0  0  0
 77 78  1  0  0  0
 77146  1  0  0  0
 77147  1  0  0  0
 78148  1  0  0  0
 78149  1  0  0  0
 79150  1  0  0  0
 79151  1  0  0  0
 80 81  1  0  0  0
 80 82  1  0  0  0
 80152  1  0  0  0
 80153  1  0  0  0
 81 83  1  0  0  0
 81154  1  0  0  0
 81155  1  0  0  0
 82 84  1  0  0  0
 82156  1  0  0  0
 82157  1  0  0  0
 83158  1  0  0  0
 84159  1  0  0  0
M  ISO  4   1 100  68 101  79 101  84 100
M  END
> <chiral flag>
0

> <version>
0

> <s_m_source_file>
/data/baiqing/PycharmProjects/Reinvent-master-3.2/result/LINK_invent/BTK/process_docking_weight1_custom_sum_contain_oxygen_bond_distance_aromatic_linkinvent_7_9_3/rearranged_h_0131.sdf

> <i_m_source_file_index>
70

> <r_mmod_Potential_Energy-OPLS-2005>
392.892272949219

> <r_mmod_Stretch_Energy-OPLS-2005>
73.7574996948242

> <r_mmod_Bend_Energy-OPLS-2005>
485.222778320312

> <r_mmod_Torsional_Energy-OPLS-2005>
245.301696777344

> <r_mmod_Improper_Torsional_Energy-OPLS-2005>
11.0186357498169

> <r_mmod_Van_der_Waal_Energy-OPLS-2005>
147.244323730469

> <r_mmod_Electrostatic_Energy-OPLS-2005>
-365.359161376953

> <r_mmod_Solvation_Energy-OPLS-2005>
-230.567321777344

> <b_mmod_Minimization_Converged-OPLS-2005>
0

> <r_mmod_RMS_Derivative-OPLS-2005>
3.11869430541992

$$$$
70
                    3D
 Structure written by MMmdl.
154162  0  0  1  0            999 V2000
  -30.6049  -14.7625   20.4267 C   0  0  0  0  0  0
  -30.4406  -12.4601   19.4756 C   0  0  0  0  0  0
  -29.5165  -12.5073   18.2383 C   0  0  0  0  0  0
  -28.0424  -12.3286   18.6492 C   0  0  0  0  0  0
  -27.6422  -13.2337   19.8440 C   0  0  2  0  0  0
  -28.6888  -13.1776   20.9789 C   0  0  0  0  0  0
  -25.2497  -13.8198   20.5665 C   0  0  0  0  0  0
  -24.1804  -13.0427   20.9204 C   0  0  0  0  0  0
  -24.6420  -11.6918   20.8739 C   0  0  0  0  0  0
  -23.9098  -10.4297   21.0414 C   0  0  0  0  0  0
  -24.3642   -9.4204   21.9179 C   0  0  0  0  0  0
  -23.6307   -8.2234   22.0744 C   0  0  0  0  0  0
  -22.4282   -8.0283   21.3543 C   0  0  0  0  0  0
  -21.9930   -9.0261   20.4640 C   0  0  0  0  0  0
  -22.7268  -10.2139   20.3058 C   0  0  0  0  0  0
  -21.6861   -6.0747   22.5291 C   0  0  0  0  0  0
  -21.4014   -6.5644   23.8225 C   0  0  0  0  0  0
  -21.3646   -5.6788   24.9179 C   0  0  0  0  0  0
  -21.6057   -4.3053   24.7236 C   0  0  0  0  0  0
  -21.8811   -3.8150   23.4350 C   0  0  0  0  0  0
  -21.9194   -4.6975   22.3409 C   0  0  0  0  0  0
  -22.7821  -13.5199   21.1864 C   0  0  0  0  0  0
  -22.1658   -4.2153   21.0985 F   0  0  0  0  0  0
  -21.5630   -3.4540   25.7750 F   0  0  0  0  0  0
  -29.9919  -13.5276   20.4002 N   0  0  0  0  0  0
  -26.2949  -12.9405   20.3242 N   0  0  0  0  0  0
  -25.9351  -11.6557   20.5734 N   0  0  0  0  0  0
  -22.0473  -12.8190   22.0436 N   0  0  0  0  0  0
  -25.4131  -15.1917   20.4047 N   0  0  0  0  0  0
  -31.7937  -14.8653   20.1121 O   0  0  0  0  0  0
  -21.6638   -6.8885   21.4246 O   0  0  0  0  0  0
  -22.3499  -14.5501   20.6712 O   0  0  0  0  0  0
  -24.6318  -31.8517   23.1931 C   0  0  0  0  0  0
  -25.9119  -32.4732   23.8285 C   0  0  1  0  0  0
  -27.2250  -27.2365   20.1314 C   0  0  0  0  0  0
  -25.5904  -33.8542   24.2200 N   0  0  0  0  0  0
  -23.4314  -30.4724   21.5361 C   0  0  2  0  0  0
  -24.8808  -28.9102   20.1142 C   0  0  0  0  0  0
  -22.7505  -29.4576   22.4879 C   0  0  0  0  0  0
  -18.0289  -28.1402   22.8458 C   0  0  0  0  0  0
  -24.1501  -36.7297   23.2639 C   0  0  0  0  0  0
  -25.9793  -30.7562   21.3776 C   0  0  0  0  0  0
  -26.0555  -29.3757   20.7203 C   0  0  0  0  0  0
  -27.2314  -28.5531   20.7152 C   0  0  0  0  0  0
  -26.0284  -26.8426   19.4980 C   0  0  0  0  0  0
  -24.8728  -27.6509   19.4939 C   0  0  0  0  0  0
  -23.6537  -29.8026   20.1548 C   0  0  0  0  0  0
  -25.4131  -36.3065   24.0317 C   0  0  1  0  0  0
  -20.5894  -28.3708   23.1270 C   0  0  2  0  0  0
  -20.6782  -26.9423   22.5419 C   0  0  0  0  0  0
  -19.5752  -26.6394   21.5215 C   0  0  0  0  0  0
  -18.1933  -26.7940   22.1625 C   0  0  0  0  0  0
  -19.1544  -28.8871   23.2855 C   0  0  0  0  0  0
  -18.9466  -30.1461   23.8876 C   0  0  0  0  0  0
  -17.6466  -30.6586   24.0570 C   0  0  0  0  0  0
  -25.9068  -34.9430   23.5076 C   0  0  0  0  0  0
  -16.5360  -29.9080   23.6344 C   0  0  0  0  0  0
  -16.7275  -28.6522   23.0335 C   0  0  0  0  0  0
  -26.4487  -31.6557   25.0680 C   0  0  0  0  0  0
  -25.3689  -31.3723   26.1384 C   0  0  0  0  0  0
  -27.0339  -30.2966   24.6185 C   0  0  0  0  0  0
  -27.6049  -32.4301   25.7436 C   0  0  0  0  0  0
  -27.5585  -37.1792   24.8460 C   0  0  0  0  0  0
  -21.4224  -29.3044   22.3639 N   0  0  0  0  0  0
  -26.4301  -37.3759   23.9401 N   0  0  0  0  0  0
  -24.6996  -31.0456   22.0923 N   0  0  0  0  0  0
  -23.4218  -28.8131   23.2984 O   0  0  0  0  0  0
  -28.3143  -26.3258   20.1321 O   0  0  0  0  0  0
  -26.5671  -34.8920   22.4665 O   0  0  0  0  0  0
  -23.5463  -32.1361   23.7211 O   0  0  0  0  0  0
  -31.6103  -22.7289   22.1888 C   0  0  0  0  0  0
  -30.6380  -23.3226   21.3792 C   0  0  0  0  0  0
  -31.6035  -21.3451   22.3183 C   0  0  0  0  0  0
  -29.6595  -22.5547   20.7037 C   0  0  0  0  0  0
  -29.7985  -21.0795   20.8317 C   0  0  0  0  0  0
  -28.6684  -23.5172   19.8976 C   0  0  0  0  0  0
  -29.1135  -18.5336   20.7325 C   0  0  0  0  0  0
  -30.0982  -17.3614   20.1892 C   0  0  0  0  0  0
  -28.0974  -24.8986   20.5999 C   0  0  0  0  0  0
  -30.7414  -20.5646   21.6472 N   0  0  0  0  0  0
  -29.1337  -19.9731   20.1887 N   0  0  0  0  0  0
  -29.8126  -15.8962   20.5684 N   0  0  0  0  0  0
  -31.4801  -12.5882   19.1684 H   0  0  0  0  0  0
  -30.3936  -11.4846   19.9631 H   0  0  0  0  0  0
  -29.8032  -11.7375   17.5198 H   0  0  0  0  0  0
  -29.6394  -13.4628   17.7272 H   0  0  0  0  0  0
  -27.9018  -11.2807   18.9169 H   0  0  0  0  0  0
  -27.3901  -12.5144   17.7956 H   0  0  0  0  0  0
  -27.6319  -14.2511   19.4536 H   0  0  0  0  0  0
  -28.7222  -12.1818   21.4214 H   0  0  0  0  0  0
  -28.4235  -13.8651   21.7834 H   0  0  0  0  0  0
  -25.2790   -9.5671   22.4745 H   0  0  0  0  0  0
  -24.0026   -7.4622   22.7459 H   0  0  0  0  0  0
  -21.0859   -8.8786   19.8949 H   0  0  0  0  0  0
  -22.3730  -10.9671   19.6168 H   0  0  0  0  0  0
  -21.1993   -7.6151   23.9731 H   0  0  0  0  0  0
  -21.1475   -6.0518   25.9084 H   0  0  0  0  0  0
  -22.0601   -2.7618   23.2856 H   0  0  0  0  0  0
  -22.4103  -11.9880   22.4869 H   0  0  0  0  0  0
  -21.1074  -13.1185   22.2605 H   0  0  0  0  0  0
  -24.6348  -15.8335   20.5077 H   0  0  0  0  0  0
  -26.2416  -15.6349   20.0313 H   0  0  0  0  0  0
  -26.7186  -32.5377   23.1014 H   0  0  0  0  0  0
  -24.9963  -33.9660   25.0282 H   0  0  0  0  0  0
  -22.7286  -31.2940   21.3847 H   0  0  0  0  0  0
  -23.3742  -35.9651   23.3306 H   0  0  0  0  0  0
  -24.3580  -36.8938   22.2055 H   0  0  0  0  0  0
  -23.7290  -37.6511   23.6684 H   0  0  0  0  0  0
  -26.1233  -31.5159   20.6085 H   0  0  0  0  0  0
  -26.8530  -30.8044   22.0136 H   0  0  0  0  0  0
  -28.1310  -28.9025   21.2048 H   0  0  0  0  0  0
  -25.9798  -25.8800   19.0101 H   0  0  0  0  0  0
  -23.9763  -27.2860   19.0129 H   0  0  0  0  0  0
  -23.7857  -30.5780   19.3978 H   0  0  0  0  0  0
  -22.7710  -29.2425   19.8435 H   0  0  0  0  0  0
  -25.1309  -36.1892   25.0807 H   0  0  0  0  0  0
  -20.9971  -28.3299   24.1395 H   0  0  0  0  0  0
  -20.5692  -26.2315   23.3629 H   0  0  0  0  0  0
  -21.6651  -26.7459   22.1198 H   0  0  0  0  0  0
  -19.6932  -25.6304   21.1248 H   0  0  0  0  0  0
  -19.6708  -27.3206   20.6741 H   0  0  0  0  0  0
  -17.4213  -26.6686   21.4014 H   0  0  0  0  0  0
  -18.0312  -26.0087   22.9025 H   0  0  0  0  0  0
  -19.7948  -30.7271   24.2250 H   0  0  0  0  0  0
  -17.5028  -31.6255   24.5176 H   0  0  0  0  0  0
  -15.5360  -30.2977   23.7666 H   0  0  0  0  0  0
  -15.8693  -28.0842   22.7037 H   0  0  0  0  0  0
  -24.5874  -30.7065   25.7692 H   0  0  0  0  0  0
  -24.8857  -32.2897   26.4763 H   0  0  0  0  0  0
  -25.7965  -30.8919   27.0187 H   0  0  0  0  0  0
  -26.2915  -29.6677   24.1244 H   0  0  0  0  0  0
  -27.4050  -29.7264   25.4705 H   0  0  0  0  0  0
  -27.8792  -30.4230   23.9415 H   0  0  0  0  0  0
  -27.2673  -33.3625   26.1977 H   0  0  0  0  0  0
  -28.3852  -32.6817   25.0240 H   0  0  0  0  0  0
  -28.0716  -31.8438   26.5356 H   0  0  0  0  0  0
  -28.2590  -38.0095   24.7486 H   0  0  0  0  0  0
  -28.1095  -36.2618   24.6301 H   0  0  0  0  0  0
  -27.2309  -37.1459   25.8866 H   0  0  0  0  0  0
  -20.9405  -29.8778   21.6859 H   0  0  0  0  0  0
  -26.0179  -38.2842   24.1361 H   0  0  0  0  0  0
  -32.3444  -23.3274   22.7088 H   0  0  0  0  0  0
  -30.6520  -24.3974   21.2789 H   0  0  0  0  0  0
  -32.3135  -20.8405   22.9573 H   0  0  0  0  0  0
  -27.8271  -22.9281   19.5341 H   0  0  0  0  0  0
  -29.2098  -23.8160   18.9980 H   0  0  0  0  0  0
  -29.2120  -18.5658   21.8182 H   0  0  0  0  0  0
  -28.0948  -18.1848   20.5588 H   0  0  0  0  0  0
  -31.1212  -17.6064   20.4767 H   0  0  0  0  0  0
  -30.0879  -17.3983   19.0990 H   0  0  0  0  0  0
  -28.4556  -24.9030   21.6278 H   0  0  0  0  0  0
  -27.0288  -24.7413   20.7465 H   0  0  0  0  0  0
  -28.3522  -20.2124   19.5870 H   0  0  0  0  0  0
  -28.8620  -15.6997   20.8360 H   0  0  0  0  0  0
  1 25  1  0  0  0
  1 30  2  0  0  0
  1 82  1  0  0  0
  2  3  1  0  0  0
  2 25  1  0  0  0
  2 83  1  0  0  0
  2 84  1  0  0  0
  3  4  1  0  0  0
  3 85  1  0  0  0
  3 86  1  0  0  0
  4  5  1  0  0  0
  4 87  1  0  0  0
  4 88  1  0  0  0
  5  6  1  0  0  0
  5 26  1  0  0  0
  5 89  1  0  0  0
  6 25  1  0  0  0
  6 90  1  0  0  0
  6 91  1  0  0  0
  7  8  2  0  0  0
  7 26  1  0  0  0
  7 29  1  0  0  0
  8  9  1  0  0  0
  8 22  1  0  0  0
  9 10  1  0  0  0
  9 27  2  0  0  0
 10 11  2  0  0  0
 10 15  1  0  0  0
 11 12  1  0  0  0
 11 92  1  0  0  0
 12 13  2  0  0  0
 12 93  1  0  0  0
 13 14  1  0  0  0
 13 31  1  0  0  0
 14 15  2  0  0  0
 14 94  1  0  0  0
 15 95  1  0  0  0
 16 17  2  0  0  0
 16 21  1  0  0  0
 16 31  1  0  0  0
 17 18  1  0  0  0
 17 96  1  0  0  0
 18 19  2  0  0  0
 18 97  1  0  0  0
 19 20  1  0  0  0
 19 24  1  0  0  0
 20 21  2  0  0  0
 20 98  1  0  0  0
 21 23  1  0  0  0
 22 28  1  0  0  0
 22 32  2  0  0  0
 26 27  1  0  0  0
 28 99  1  0  0  0
 28100  1  0  0  0
 29101  1  0  0  0
 29102  1  0  0  0
 33 34  1  0  0  0
 33 66  1  0  0  0
 33 70  2  0  0  0
 34 36  1  0  0  0
 34 59  1  0  0  0
 34103  1  0  0  0
 35 44  2  0  0  0
 35 45  1  0  0  0
 35 68  1  0  0  0
 36 56  1  0  0  0
 36104  1  0  0  0
 37 39  1  0  0  0
 37 47  1  0  0  0
 37 66  1  0  0  0
 37105  1  0  0  0
 38 43  2  0  0  0
 38 46  1  0  0  0
 38 47  1  0  0  0
 39 64  1  0  0  0
 39 67  2  0  0  0
 40 52  1  0  0  0
 40 53  2  0  0  0
 40 58  1  0  0  0
 41106  1  0  0  0
 41107  1  0  0  0
 41108  1  0  0  0
 41 48  1  0  0  0
 42 43  1  0  0  0
 42 66  1  0  0  0
 42109  1  0  0  0
 42110  1  0  0  0
 43 44  1  0  0  0
 44111  1  0  0  0
 45 46  2  0  0  0
 45112  1  0  0  0
 46113  1  0  0  0
 47114  1  0  0  0
 47115  1  0  0  0
 48 56  1  0  0  0
 48 65  1  0  0  0
 48116  1  0  0  0
 49 50  1  0  0  0
 49 53  1  0  0  0
 49 64  1  0  0  0
 49117  1  0  0  0
 50 51  1  0  0  0
 50118  1  0  0  0
 50119  1  0  0  0
 51 52  1  0  0  0
 51120  1  0  0  0
 51121  1  0  0  0
 52122  1  0  0  0
 52123  1  0  0  0
 53 54  1  0  0  0
 54 55  2  0  0  0
 54124  1  0  0  0
 55 57  1  0  0  0
 55125  1  0  0  0
 56 69  2  0  0  0
 57 58  2  0  0  0
 57126  1  0  0  0
 58127  1  0  0  0
 59 60  1  0  0  0
 59 61  1  0  0  0
 59 62  1  0  0  0
 60128  1  0  0  0
 60129  1  0  0  0
 60130  1  0  0  0
 61131  1  0  0  0
 61132  1  0  0  0
 61133  1  0  0  0
 62134  1  0  0  0
 62135  1  0  0  0
 62136  1  0  0  0
 63 65  1  0  0  0
 63137  1  0  0  0
 63138  1  0  0  0
 63139  1  0  0  0
 64140  1  0  0  0
 65141  1  0  0  0
 68 79  1  0  0  0
 71 72  2  0  0  0
 71 73  1  0  0  0
 71142  1  0  0  0
 72 74  1  0  0  0
 72143  1  0  0  0
 73 80  2  0  0  0
 73144  1  0  0  0
 74 75  2  0  0  0
 74 76  1  0  0  0
 75 80  1  0  0  0
 75 81  1  0  0  0
 76 79  1  0  0  0
 76145  1  0  0  0
 76146  1  0  0  0
 77 78  1  0  0  0
 77 81  1  0  0  0
 77147  1  0  0  0
 77148  1  0  0  0
 78 82  1  0  0  0
 78149  1  0  0  0
 78150  1  0  0  0
 79151  1  0  0  0
 79152  1  0  0  0
 81153  1  0  0  0
 82154  1  0  0  0
M  ISO  4   1 100  68 101  79 101  82 100
M  END
> <chiral flag>
0

> <version>
0

> <s_m_source_file>
/data/baiqing/PycharmProjects/Reinvent-master-3.2/result/LINK_invent/BTK/process_docking_weight1_custom_sum_contain_oxygen_bond_distance_aromatic_linkinvent_7_9_3/rearranged_h_0131.sdf

> <i_m_source_file_index>
71

> <r_mmod_Potential_Energy-OPLS-2005>
-40.7686805725098

> <r_mmod_Stretch_Energy-OPLS-2005>
150.57536315918

> <r_mmod_Bend_Energy-OPLS-2005>
231.458389282227

> <r_mmod_Torsional_Energy-OPLS-2005>
228.991165161133

> <r_mmod_Improper_Torsional_Energy-OPLS-2005>
7.73786067962646

> <r_mmod_Van_der_Waal_Energy-OPLS-2005>
144.958877563477

> <r_mmod_Electrostatic_Energy-OPLS-2005>
-649.134094238281

> <r_mmod_Solvation_Energy-OPLS-2005>
-251.404708862305

> <b_mmod_Minimization_Converged-OPLS-2005>
0

> <r_mmod_RMS_Derivative-OPLS-2005>
3.52784824371338

$$$$
71
                    3D
 Structure written by MMmdl.
163171  0  0  1  0            999 V2000
  -30.6759  -14.5106   20.5285 C   0  0  0  0  0  0
  -30.4229  -12.3184   19.4189 C   0  0  0  0  0  0
  -29.4898  -12.4914   18.2022 C   0  0  0  0  0  0
  -28.0119  -12.3550   18.6178 C   0  0  0  0  0  0
  -27.6573  -13.2044   19.8684 C   0  0  2  0  0  0
  -28.7024  -13.0102   20.9886 C   0  0  0  0  0  0
  -25.2594  -13.8147   20.5685 C   0  0  0  0  0  0
  -24.1844  -13.0430   20.9187 C   0  0  0  0  0  0
  -24.6386  -11.6902   20.8739 C   0  0  0  0  0  0
  -23.9026  -10.4302   21.0404 C   0  0  0  0  0  0
  -24.3582   -9.4219   21.9171 C   0  0  0  0  0  0
  -23.6282   -8.2245   22.0749 C   0  0  0  0  0  0
  -22.4263   -8.0282   21.3542 C   0  0  0  0  0  0
  -21.9875   -9.0256   20.4647 C   0  0  0  0  0  0
  -22.7190  -10.2147   20.3061 C   0  0  0  0  0  0
  -21.6849   -6.0716   22.5264 C   0  0  0  0  0  0
  -21.4010   -6.5619   23.8197 C   0  0  0  0  0  0
  -21.3675   -5.6781   24.9163 C   0  0  0  0  0  0
  -21.6056   -4.3041   24.7223 C   0  0  0  0  0  0
  -21.8817   -3.8126   23.4342 C   0  0  0  0  0  0
  -21.9195   -4.6939   22.3400 C   0  0  0  0  0  0
  -22.7860  -13.5257   21.1826 C   0  0  0  0  0  0
  -22.1660   -4.2118   21.0980 F   0  0  0  0  0  0
  -21.5641   -3.4539   25.7741 F   0  0  0  0  0  0
  -30.0276  -13.3191   20.4239 N   0  0  0  0  0  0
  -26.3007  -12.9294   20.3341 N   0  0  0  0  0  0
  -25.9305  -11.6461   20.5756 N   0  0  0  0  0  0
  -22.0495  -12.8272   22.0386 N   0  0  0  0  0  0
  -25.4344  -15.1863   20.4080 N   0  0  0  0  0  0
  -31.8245  -14.6887   20.1139 O   0  0  0  0  0  0
  -21.6645   -6.8864   21.4233 O   0  0  0  0  0  0
  -22.3552  -14.5559   20.6653 O   0  0  0  0  0  0
  -24.6162  -31.8656   23.2075 C   0  0  0  0  0  0
  -25.9069  -32.4791   23.8363 C   0  0  1  0  0  0
  -27.2462  -27.4272   20.0761 C   0  0  0  0  0  0
  -25.5921  -33.8589   24.2284 N   0  0  0  0  0  0
  -23.4026  -30.4888   21.5489 C   0  0  2  0  0  0
  -24.8465  -28.9450   20.1185 C   0  0  0  0  0  0
  -22.7398  -29.4669   22.5002 C   0  0  0  0  0  0
  -18.0280  -28.1382   22.8501 C   0  0  0  0  0  0
  -24.1480  -36.7290   23.2635 C   0  0  0  0  0  0
  -25.9311  -30.8269   21.3613 C   0  0  0  0  0  0
  -26.0081  -29.4610   20.7039 C   0  0  0  0  0  0
  -27.2053  -28.7093   20.6775 C   0  0  0  0  0  0
  -26.0546  -26.9136   19.5144 C   0  0  0  0  0  0
  -24.8639  -27.6683   19.5291 C   0  0  0  0  0  0
  -23.6074  -29.8126   20.1666 C   0  0  0  0  0  0
  -25.4108  -36.3072   24.0316 C   0  0  1  0  0  0
  -20.5862  -28.3663   23.1324 C   0  0  2  0  0  0
  -20.6769  -26.9405   22.5418 C   0  0  0  0  0  0
  -19.5748  -26.6394   21.5213 C   0  0  0  0  0  0
  -18.1930  -26.7933   22.1627 C   0  0  0  0  0  0
  -19.1526  -28.8844   23.2907 C   0  0  0  0  0  0
  -18.9454  -30.1459   23.8904 C   0  0  0  0  0  0
  -17.6456  -30.6591   24.0571 C   0  0  0  0  0  0
  -25.9044  -34.9450   23.5094 C   0  0  0  0  0  0
  -16.5350  -29.9086   23.6341 C   0  0  0  0  0  0
  -16.7269  -28.6507   23.0352 C   0  0  0  0  0  0
  -26.4489  -31.6593   25.0719 C   0  0  0  0  0  0
  -25.3757  -31.3742   26.1473 C   0  0  0  0  0  0
  -27.0318  -30.3015   24.6154 C   0  0  0  0  0  0
  -27.6041  -32.4336   25.7501 C   0  0  0  0  0  0
  -27.5565  -37.1799   24.8465 C   0  0  0  0  0  0
  -21.4130  -29.3022   22.3712 N   0  0  0  0  0  0
  -26.4284  -37.3769   23.9404 N   0  0  0  0  0  0
  -24.6678  -31.0748   22.0979 N   0  0  0  0  0  0
  -23.4165  -28.8222   23.3058 O   0  0  0  0  0  0
  -28.4558  -26.7532   20.0626 O   0  0  0  0  0  0
  -26.5601  -34.8912   22.4652 O   0  0  0  0  0  0
  -23.5358  -32.1417   23.7482 O   0  0  0  0  0  0
  -28.3868  -21.8357   21.9241 C   0  0  0  0  0  0
  -28.2595  -23.0952   22.5351 C   0  0  0  0  0  0
  -28.6427  -22.9237   19.7733 C   0  0  0  0  0  0
  -28.5839  -21.7262   20.5352 C   0  0  0  0  0  0
  -28.4939  -24.2079   20.3727 C   0  0  0  0  0  0
  -28.2989  -24.2951   21.7789 C   0  0  0  0  0  0
  -29.4480  -25.6736   24.3934 C   0  0  0  0  0  0
  -28.6482  -20.3301   19.8841 C   0  0  0  0  0  0
  -28.6062  -25.4513   19.4607 C   0  0  0  0  0  0
  -30.2925  -16.9738   21.0625 C   0  0  0  0  0  0
  -29.3867  -17.9385   20.2327 C   0  0  0  0  0  0
  -28.0490  -25.6884   23.7634 C   0  0  0  0  0  0
  -29.9186  -15.5453   20.9490 N   0  0  0  0  0  0
  -29.5869  -19.3849   20.5546 N   0  3  0  0  0  0
  -28.1444  -25.5438   22.3500 O   0  0  0  0  0  0
  -31.4651  -12.4240   19.1160 H   0  0  0  0  0  0
  -30.3307  -11.3126   19.8308 H   0  0  0  0  0  0
  -29.7261  -11.7537   17.4341 H   0  0  0  0  0  0
  -29.6559  -13.4682   17.7457 H   0  0  0  0  0  0
  -27.8199  -11.3008   18.8198 H   0  0  0  0  0  0
  -27.3611  -12.6263   17.7856 H   0  0  0  0  0  0
  -27.6915  -14.2480   19.5538 H   0  0  0  0  0  0
  -28.6867  -11.9813   21.3508 H   0  0  0  0  0  0
  -28.4707  -13.6289   21.8581 H   0  0  0  0  0  0
  -25.2725   -9.5692   22.4734 H   0  0  0  0  0  0
  -23.9980   -7.4631   22.7470 H   0  0  0  0  0  0
  -21.0798   -8.8768   19.8962 H   0  0  0  0  0  0
  -22.3632  -10.9679   19.6176 H   0  0  0  0  0  0
  -21.1978   -7.6124   23.9685 H   0  0  0  0  0  0
  -21.1508   -6.0515   25.9068 H   0  0  0  0  0  0
  -22.0587   -2.7587   23.2840 H   0  0  0  0  0  0
  -22.4104  -11.9936   22.4770 H   0  0  0  0  0  0
  -21.1112  -13.1310   22.2580 H   0  0  0  0  0  0
  -24.6627  -15.8375   20.5026 H   0  0  0  0  0  0
  -26.2733  -15.6169   20.0424 H   0  0  0  0  0  0
  -26.7134  -32.5481   23.1111 H   0  0  0  0  0  0
  -25.0085  -33.9741   25.0436 H   0  0  0  0  0  0
  -22.6935  -31.3069   21.4073 H   0  0  0  0  0  0
  -23.3727  -35.9640   23.3323 H   0  0  0  0  0  0
  -24.3559  -36.8892   22.2044 H   0  0  0  0  0  0
  -23.7259  -37.6508   23.6649 H   0  0  0  0  0  0
  -26.0516  -31.5997   20.5999 H   0  0  0  0  0  0
  -26.8147  -30.8711   21.9872 H   0  0  0  0  0  0
  -28.1082  -29.1141   21.1125 H   0  0  0  0  0  0
  -26.0159  -25.9321   19.0689 H   0  0  0  0  0  0
  -23.9637  -27.2537   19.0957 H   0  0  0  0  0  0
  -23.7109  -30.5827   19.4013 H   0  0  0  0  0  0
  -22.7305  -29.2303   19.8764 H   0  0  0  0  0  0
  -25.1290  -36.1917   25.0809 H   0  0  0  0  0  0
  -20.9971  -28.3240   24.1439 H   0  0  0  0  0  0
  -20.5689  -26.2275   23.3599 H   0  0  0  0  0  0
  -21.6638  -26.7469   22.1199 H   0  0  0  0  0  0
  -19.6914  -25.6309   21.1234 H   0  0  0  0  0  0
  -19.6682  -27.3212   20.6745 H   0  0  0  0  0  0
  -17.4197  -26.6695   21.4030 H   0  0  0  0  0  0
  -18.0331  -26.0065   22.9013 H   0  0  0  0  0  0
  -19.7930  -30.7278   24.2265 H   0  0  0  0  0  0
  -17.5011  -31.6273   24.5160 H   0  0  0  0  0  0
  -15.5351  -30.2982   23.7665 H   0  0  0  0  0  0
  -15.8674  -28.0829   22.7053 H   0  0  0  0  0  0
  -24.5889  -30.7132   25.7822 H   0  0  0  0  0  0
  -24.9004  -32.2922   26.4942 H   0  0  0  0  0  0
  -25.8110  -30.8891   27.0219 H   0  0  0  0  0  0
  -26.2886  -29.6790   24.1156 H   0  0  0  0  0  0
  -27.3982  -29.7252   25.4660 H   0  0  0  0  0  0
  -27.8764  -30.4281   23.9379 H   0  0  0  0  0  0
  -27.2616  -33.3595   26.2138 H   0  0  0  0  0  0
  -28.3835  -32.6983   25.0344 H   0  0  0  0  0  0
  -28.0733  -31.8445   26.5389 H   0  0  0  0  0  0
  -28.2595  -38.0078   24.7473 H   0  0  0  0  0  0
  -28.1043  -36.2608   24.6333 H   0  0  0  0  0  0
  -27.2279  -37.1499   25.8867 H   0  0  0  0  0  0
  -20.9305  -29.8688   21.6868 H   0  0  0  0  0  0
  -26.0157  -38.2842   24.1415 H   0  0  0  0  0  0
  -28.3135  -20.9524   22.5425 H   0  0  0  0  0  0
  -28.1178  -23.0982   23.6042 H   0  0  0  0  0  0
  -28.7899  -22.8667   18.7028 H   0  0  0  0  0  0
  -29.3859  -25.6643   25.4810 H   0  0  0  0  0  0
  -30.0057  -26.5636   24.1004 H   0  0  0  0  0  0
  -30.0241  -24.8012   24.0843 H   0  0  0  0  0  0
  -28.9056  -20.4122   18.8268 H   0  0  0  0  0  0
  -27.6370  -19.9193   19.9175 H   0  0  0  0  0  0
  -27.9921  -25.3297   18.5688 H   0  0  0  0  0  0
  -29.6284  -25.4401   19.0800 H   0  0  0  0  0  0
  -30.2381  -17.2384   22.1187 H   0  0  0  0  0  0
  -31.3341  -17.1211   20.7729 H   0  0  0  0  0  0
  -28.3387  -17.6883   20.4042 H   0  0  0  0  0  0
  -29.5720  -17.7870   19.1678 H   0  0  0  0  0  0
  -27.5806  -26.6525   23.9655 H   0  0  0  0  0  0
  -27.3800  -24.9562   24.2132 H   0  0  0  0  0  0
  -28.9805  -15.3008   21.2315 H   0  0  0  0  0  0
  -29.4533  -19.4984   21.5446 H   0  0  0  0  0  0
  -30.5314  -19.6631   20.3442 H   0  0  0  0  0  0
  1 25  1  0  0  0
  1 30  2  0  0  0
  1 83  1  0  0  0
  2  3  1  0  0  0
  2 25  1  0  0  0
  2 86  1  0  0  0
  2 87  1  0  0  0
  3  4  1  0  0  0
  3 88  1  0  0  0
  3 89  1  0  0  0
  4  5  1  0  0  0
  4 90  1  0  0  0
  4 91  1  0  0  0
  5  6  1  0  0  0
  5 26  1  0  0  0
  5 92  1  0  0  0
  6 25  1  0  0  0
  6 93  1  0  0  0
  6 94  1  0  0  0
  7  8  2  0  0  0
  7 26  1  0  0  0
  7 29  1  0  0  0
  8  9  1  0  0  0
  8 22  1  0  0  0
  9 10  1  0  0  0
  9 27  2  0  0  0
 10 11  2  0  0  0
 10 15  1  0  0  0
 11 12  1  0  0  0
 11 95  1  0  0  0
 12 13  2  0  0  0
 12 96  1  0  0  0
 13 14  1  0  0  0
 13 31  1  0  0  0
 14 15  2  0  0  0
 14 97  1  0  0  0
 15 98  1  0  0  0
 16 17  2  0  0  0
 16 21  1  0  0  0
 16 31  1  0  0  0
 17 18  1  0  0  0
 17 99  1  0  0  0
 18 19  2  0  0  0
 18100  1  0  0  0
 19 20  1  0  0  0
 19 24  1  0  0  0
 20 21  2  0  0  0
 20101  1  0  0  0
 21 23  1  0  0  0
 22 28  1  0  0  0
 22 32  2  0  0  0
 26 27  1  0  0  0
 28102  1  0  0  0
 28103  1  0  0  0
 29104  1  0  0  0
 29105  1  0  0  0
 33 34  1  0  0  0
 33 66  1  0  0  0
 33 70  2  0  0  0
 34 36  1  0  0  0
 34 59  1  0  0  0
 34106  1  0  0  0
 35 44  2  0  0  0
 35 45  1  0  0  0
 35 68  1  0  0  0
 36 56  1  0  0  0
 36107  1  0  0  0
 37 39  1  0  0  0
 37 47  1  0  0  0
 37 66  1  0  0  0
 37108  1  0  0  0
 38 43  2  0  0  0
 38 46  1  0  0  0
 38 47  1  0  0  0
 39 64  1  0  0  0
 39 67  2  0  0  0
 40 52  1  0  0  0
 40 53  2  0  0  0
 40 58  1  0  0  0
 41109  1  0  0  0
 41110  1  0  0  0
 41111  1  0  0  0
 41 48  1  0  0  0
 42 43  1  0  0  0
 42 66  1  0  0  0
 42112  1  0  0  0
 42113  1  0  0  0
 43 44  1  0  0  0
 44114  1  0  0  0
 45 46  2  0  0  0
 45115  1  0  0  0
 46116  1  0  0  0
 47117  1  0  0  0
 47118  1  0  0  0
 48 56  1  0  0  0
 48 65  1  0  0  0
 48119  1  0  0  0
 49 50  1  0  0  0
 49 53  1  0  0  0
 49 64  1  0  0  0
 49120  1  0  0  0
 50 51  1  0  0  0
 50121  1  0  0  0
 50122  1  0  0  0
 51 52  1  0  0  0
 51123  1  0  0  0
 51124  1  0  0  0
 52125  1  0  0  0
 52126  1  0  0  0
 53 54  1  0  0  0
 54 55  2  0  0  0
 54127  1  0  0  0
 55 57  1  0  0  0
 55128  1  0  0  0
 56 69  2  0  0  0
 57 58  2  0  0  0
 57129  1  0  0  0
 58130  1  0  0  0
 59 60  1  0  0  0
 59 61  1  0  0  0
 59 62  1  0  0  0
 60131  1  0  0  0
 60132  1  0  0  0
 60133  1  0  0  0
 61134  1  0  0  0
 61135  1  0  0  0
 61136  1  0  0  0
 62137  1  0  0  0
 62138  1  0  0  0
 62139  1  0  0  0
 63 65  1  0  0  0
 63140  1  0  0  0
 63141  1  0  0  0
 63142  1  0  0  0
 64143  1  0  0  0
 65144  1  0  0  0
 68 79  1  0  0  0
 71 72  2  0  0  0
 71 74  1  0  0  0
 71145  1  0  0  0
 72 76  1  0  0  0
 72146  1  0  0  0
 73 74  2  0  0  0
 73 75  1  0  0  0
 73147  1  0  0  0
 74 78  1  0  0  0
 75 76  2  0  0  0
 75 79  1  0  0  0
 76 85  1  0  0  0
 77 82  1  0  0  0
 77148  1  0  0  0
 77149  1  0  0  0
 77150  1  0  0  0
 78 84  1  0  0  0
 78151  1  0  0  0
 78152  1  0  0  0
 79153  1  0  0  0
 79154  1  0  0  0
 80 81  1  0  0  0
 80 83  1  0  0  0
 80155  1  0  0  0
 80156  1  0  0  0
 81 84  1  0  0  0
 81157  1  0  0  0
 81158  1  0  0  0
 82 85  1  0  0  0
 82159  1  0  0  0
 82160  1  0  0  0
 83161  1  0  0  0
 84162  1  0  0  0
 84163  1  0  0  0
M  CHG  1  84   1
M  ISO  4   1 100  68 101  79 101  83 100
M  END
> <chiral flag>
0

> <version>
0

> <s_m_source_file>
/data/baiqing/PycharmProjects/Reinvent-master-3.2/result/LINK_invent/BTK/process_docking_weight1_custom_sum_contain_oxygen_bond_distance_aromatic_linkinvent_7_9_3/rearranged_h_0131.sdf

> <i_m_source_file_index>
72

> <r_mmod_Potential_Energy-OPLS-2005>
-283.407775878906

> <r_mmod_Stretch_Energy-OPLS-2005>
44.3166465759277

> <r_mmod_Bend_Energy-OPLS-2005>
121.646682739258

> <r_mmod_Torsional_Energy-OPLS-2005>
191.825714111328

> <r_mmod_Improper_Torsional_Energy-OPLS-2005>
4.31590366363525

> <r_mmod_Van_der_Waal_Energy-OPLS-2005>
151.160568237305

> <r_mmod_Electrostatic_Energy-OPLS-2005>
-304.061706542969

> <r_mmod_Solvation_Energy-OPLS-2005>
-509.434783935547

> <b_mmod_Minimization_Converged-OPLS-2005>
0

> <r_mmod_RMS_Derivative-OPLS-2005>
2.57573294639587

$$$$
72
                    3D
 Structure written by MMmdl.
159167  0  0  1  0            999 V2000
  -30.7506  -14.4118   20.6389 C   0  0  0  0  0  0
  -30.4096  -12.3027   19.3962 C   0  0  0  0  0  0
  -29.4804  -12.5283   18.1883 C   0  0  0  0  0  0
  -28.0018  -12.3998   18.6030 C   0  0  0  0  0  0
  -27.6609  -13.2150   19.8811 C   0  0  2  0  0  0
  -28.7033  -12.9761   20.9970 C   0  0  0  0  0  0
  -25.2571  -13.8186   20.5668 C   0  0  0  0  0  0
  -24.1830  -13.0464   20.9213 C   0  0  0  0  0  0
  -24.6377  -11.6934   20.8759 C   0  0  0  0  0  0
  -23.9010  -10.4339   21.0417 C   0  0  0  0  0  0
  -24.3562   -9.4251   21.9183 C   0  0  0  0  0  0
  -23.6297   -8.2256   22.0741 C   0  0  0  0  0  0
  -22.4285   -8.0276   21.3533 C   0  0  0  0  0  0
  -21.9888   -9.0242   20.4642 C   0  0  0  0  0  0
  -22.7174  -10.2157   20.3071 C   0  0  0  0  0  0
  -21.6853   -6.0737   22.5288 C   0  0  0  0  0  0
  -21.4016   -6.5634   23.8220 C   0  0  0  0  0  0
  -21.3695   -5.6783   24.9177 C   0  0  0  0  0  0
  -21.6051   -4.3043   24.7213 C   0  0  0  0  0  0
  -21.8813   -3.8138   23.4331 C   0  0  0  0  0  0
  -21.9193   -4.6969   22.3400 C   0  0  0  0  0  0
  -22.7852  -13.5276   21.1877 C   0  0  0  0  0  0
  -22.1657   -4.2159   21.0980 F   0  0  0  0  0  0
  -21.5651   -3.4520   25.7713 F   0  0  0  0  0  0
  -30.0406  -13.2670   20.4469 N   0  0  0  0  0  0
  -26.3023  -12.9371   20.3404 N   0  0  0  0  0  0
  -25.9298  -11.6513   20.5786 N   0  0  0  0  0  0
  -22.0462  -12.8334   22.0460 N   0  0  0  0  0  0
  -25.4175  -15.1900   20.3943 N   0  0  0  0  0  0
  -31.7912  -14.6698   20.0301 O   0  0  0  0  0  0
  -21.6640   -6.8871   21.4243 O   0  0  0  0  0  0
  -22.3577  -14.5571   20.6683 O   0  0  0  0  0  0
  -24.6134  -31.8700   23.2102 C   0  0  0  0  0  0
  -25.9062  -32.4827   23.8403 C   0  0  1  0  0  0
  -27.2362  -27.4614   20.0898 C   0  0  0  0  0  0
  -25.5946  -33.8620   24.2339 N   0  0  0  0  0  0
  -23.3978  -30.4937   21.5507 C   0  0  2  0  0  0
  -24.8463  -28.9634   20.1116 C   0  0  0  0  0  0
  -22.7375  -29.4675   22.4973 C   0  0  0  0  0  0
  -18.0280  -28.1381   22.8506 C   0  0  0  0  0  0
  -24.1482  -36.7292   23.2633 C   0  0  0  0  0  0
  -25.9268  -30.8404   21.3660 C   0  0  0  0  0  0
  -26.0040  -29.4785   20.7098 C   0  0  0  0  0  0
  -27.2015  -28.7329   20.7018 C   0  0  0  0  0  0
  -26.0674  -26.9536   19.4844 C   0  0  0  0  0  0
  -24.8721  -27.6983   19.4960 C   0  0  0  0  0  0
  -23.6057  -29.8253   20.1660 C   0  0  0  0  0  0
  -25.4113  -36.3092   24.0329 C   0  0  1  0  0  0
  -20.5869  -28.3721   23.1413 C   0  0  2  0  0  0
  -20.6837  -26.9461   22.5542 C   0  0  0  0  0  0
  -19.5872  -26.6439   21.5276 C   0  0  0  0  0  0
  -18.2014  -26.7954   22.1605 C   0  0  0  0  0  0
  -19.1498  -28.8852   23.2976 C   0  0  0  0  0  0
  -18.9380  -30.1474   23.8958 C   0  0  0  0  0  0
  -17.6363  -30.6594   24.0567 C   0  0  0  0  0  0
  -25.9039  -34.9473   23.5111 C   0  0  0  0  0  0
  -16.5311  -29.9045   23.6271 C   0  0  0  0  0  0
  -16.7265  -28.6471   23.0284 C   0  0  0  0  0  0
  -26.4522  -31.6558   25.0689 C   0  0  0  0  0  0
  -25.3796  -31.3666   26.1420 C   0  0  0  0  0  0
  -27.0331  -30.2994   24.6042 C   0  0  0  0  0  0
  -27.6100  -32.4289   25.7427 C   0  0  0  0  0  0
  -27.5580  -37.1794   24.8466 C   0  0  0  0  0  0
  -21.4097  -29.3099   22.3802 N   0  0  0  0  0  0
  -26.4289  -37.3800   23.9414 N   0  0  0  0  0  0
  -24.6639  -31.0809   22.1023 N   0  0  0  0  0  0
  -23.4199  -28.8179   23.2956 O   0  0  0  0  0  0
  -28.3878  -26.7123   20.0930 O   0  0  0  0  0  0
  -26.5580  -34.8937   22.4649 O   0  0  0  0  0  0
  -23.5307  -32.1444   23.7494 O   0  0  0  0  0  0
  -28.2071  -18.2684   21.6321 C   0  0  0  0  0  0
  -28.5779  -16.9089   21.5852 C   0  0  0  0  0  0
  -30.9082  -17.5707   21.3300 C   0  0  0  0  0  0
  -29.1813  -19.2958   21.5844 C   0  0  0  0  0  0
  -30.5414  -18.9391   21.3814 C   0  0  0  0  0  0
  -29.9364  -16.5506   21.4666 C   0  0  0  0  0  0
  -31.6301  -20.0008   21.2681 C   0  0  0  0  0  0
  -28.7555  -20.7324   21.9292 C   0  0  0  0  0  0
  -28.6689  -24.2435   20.3333 C   0  0  0  0  0  0
  -28.3404  -23.0659   21.2849 C   0  0  0  0  0  0
  -28.3306  -25.6000   20.9941 C   0  0  0  0  0  0
  -30.3391  -15.2008   21.6425 N   0  0  0  0  0  0
  -28.7807  -21.7213   20.8245 N   0  3  0  0  0  0
  -31.4555  -12.3988   19.0941 H   0  0  0  0  0  0
  -30.2944  -11.2847   19.7701 H   0  0  0  0  0  0
  -29.7071  -11.8081   17.3994 H   0  0  0  0  0  0
  -29.6664  -13.5197   17.7617 H   0  0  0  0  0  0
  -27.7907  -11.3436   18.7608 H   0  0  0  0  0  0
  -27.3531  -12.7143   17.7837 H   0  0  0  0  0  0
  -27.7143  -14.2696   19.6119 H   0  0  0  0  0  0
  -28.6742  -11.9359   21.3283 H   0  0  0  0  0  0
  -28.4571  -13.5685   21.8793 H   0  0  0  0  0  0
  -25.2698   -9.5779   22.4749 H   0  0  0  0  0  0
  -24.0025   -7.4657   22.7466 H   0  0  0  0  0  0
  -21.0817   -8.8745   19.8960 H   0  0  0  0  0  0
  -22.3602  -10.9676   19.6192 H   0  0  0  0  0  0
  -21.1981   -7.6139   23.9739 H   0  0  0  0  0  0
  -21.1539   -6.0495   25.9092 H   0  0  0  0  0  0
  -22.0558   -2.7601   23.2810 H   0  0  0  0  0  0
  -22.3972  -11.9989   22.4917 H   0  0  0  0  0  0
  -21.1079  -13.1425   22.2541 H   0  0  0  0  0  0
  -24.6174  -15.8108   20.4234 H   0  0  0  0  0  0
  -26.2293  -15.6160   19.9652 H   0  0  0  0  0  0
  -26.7158  -32.5606   23.1191 H   0  0  0  0  0  0
  -25.0176  -33.9780   25.0538 H   0  0  0  0  0  0
  -22.6889  -31.3140   21.4167 H   0  0  0  0  0  0
  -23.3757  -35.9608   23.3289 H   0  0  0  0  0  0
  -24.3584  -36.8882   22.2044 H   0  0  0  0  0  0
  -23.7203  -37.6495   23.6632 H   0  0  0  0  0  0
  -26.0441  -31.6122   20.6046 H   0  0  0  0  0  0
  -26.8099  -30.8853   21.9883 H   0  0  0  0  0  0
  -28.0929  -29.1184   21.1746 H   0  0  0  0  0  0
  -26.0834  -25.9828   19.0087 H   0  0  0  0  0  0
  -23.9838  -27.3025   19.0265 H   0  0  0  0  0  0
  -23.7156  -30.6002   19.4090 H   0  0  0  0  0  0
  -22.7270  -29.2459   19.8690 H   0  0  0  0  0  0
  -25.1289  -36.1944   25.0832 H   0  0  0  0  0  0
  -20.9955  -28.3341   24.1541 H   0  0  0  0  0  0
  -20.5613  -26.2380   23.3737 H   0  0  0  0  0  0
  -21.6744  -26.7456   22.1437 H   0  0  0  0  0  0
  -19.7111  -25.6387   21.1223 H   0  0  0  0  0  0
  -19.6787  -27.3317   20.6849 H   0  0  0  0  0  0
  -17.4379  -26.6709   21.3922 H   0  0  0  0  0  0
  -18.0317  -26.0088   22.8954 H   0  0  0  0  0  0
  -19.7825  -30.7361   24.2313 H   0  0  0  0  0  0
  -17.4858  -31.6285   24.5157 H   0  0  0  0  0  0
  -15.5313  -30.2926   23.7510 H   0  0  0  0  0  0
  -15.8704  -28.0771   22.6915 H   0  0  0  0  0  0
  -24.6019  -30.6957   25.7777 H   0  0  0  0  0  0
  -24.8941  -32.2811   26.4832 H   0  0  0  0  0  0
  -25.8154  -30.8888   27.0191 H   0  0  0  0  0  0
  -26.2856  -29.6763   24.1112 H   0  0  0  0  0  0
  -27.4133  -29.7221   25.4477 H   0  0  0  0  0  0
  -27.8680  -30.4319   23.9151 H   0  0  0  0  0  0
  -27.2739  -33.3607   26.2004 H   0  0  0  0  0  0
  -28.3890  -32.6803   25.0216 H   0  0  0  0  0  0
  -28.0794  -31.8405   26.5318 H   0  0  0  0  0  0
  -28.2595  -38.0105   24.7563 H   0  0  0  0  0  0
  -28.1068  -36.2622   24.6236 H   0  0  0  0  0  0
  -27.2293  -37.1401   25.8873 H   0  0  0  0  0  0
  -20.9208  -29.8974   21.7204 H   0  0  0  0  0  0
  -26.0142  -38.2854   24.1485 H   0  0  0  0  0  0
  -27.1634  -18.5061   21.7898 H   0  0  0  0  0  0
  -27.8206  -16.1458   21.7105 H   0  0  0  0  0  0
  -31.9514  -17.2969   21.2298 H   0  0  0  0  0  0
  -32.6194  -19.5573   21.1588 H   0  0  0  0  0  0
  -31.6565  -20.6411   22.1487 H   0  0  0  0  0  0
  -31.4646  -20.6342   20.3958 H   0  0  0  0  0  0
  -29.4053  -21.0863   22.7324 H   0  0  0  0  0  0
  -27.7554  -20.7135   22.3649 H   0  0  0  0  0  0
  -28.1187  -24.1336   19.3960 H   0  0  0  0  0  0
  -29.7283  -24.2351   20.0763 H   0  0  0  0  0  0
  -27.2647  -23.0319   21.4592 H   0  0  0  0  0  0
  -28.7966  -23.2740   22.2564 H   0  0  0  0  0  0
  -29.0324  -25.7894   21.8092 H   0  0  0  0  0  0
  -27.3519  -25.5235   21.4698 H   0  0  0  0  0  0
  -31.0089  -15.1236   22.3930 H   0  0  0  0  0  0
  -28.1846  -21.3991   20.0801 H   0  0  0  0  0  0
  -29.7193  -21.7893   20.4693 H   0  0  0  0  0  0
  1 25  1  0  0  0
  1 30  2  0  0  0
  1 82  1  0  0  0
  2  3  1  0  0  0
  2 25  1  0  0  0
  2 84  1  0  0  0
  2 85  1  0  0  0
  3  4  1  0  0  0
  3 86  1  0  0  0
  3 87  1  0  0  0
  4  5  1  0  0  0
  4 88  1  0  0  0
  4 89  1  0  0  0
  5  6  1  0  0  0
  5 26  1  0  0  0
  5 90  1  0  0  0
  6 25  1  0  0  0
  6 91  1  0  0  0
  6 92  1  0  0  0
  7  8  2  0  0  0
  7 26  1  0  0  0
  7 29  1  0  0  0
  8  9  1  0  0  0
  8 22  1  0  0  0
  9 10  1  0  0  0
  9 27  2  0  0  0
 10 11  2  0  0  0
 10 15  1  0  0  0
 11 12  1  0  0  0
 11 93  1  0  0  0
 12 13  2  0  0  0
 12 94  1  0  0  0
 13 14  1  0  0  0
 13 31  1  0  0  0
 14 15  2  0  0  0
 14 95  1  0  0  0
 15 96  1  0  0  0
 16 17  2  0  0  0
 16 21  1  0  0  0
 16 31  1  0  0  0
 17 18  1  0  0  0
 17 97  1  0  0  0
 18 19  2  0  0  0
 18 98  1  0  0  0
 19 20  1  0  0  0
 19 24  1  0  0  0
 20 21  2  0  0  0
 20 99  1  0  0  0
 21 23  1  0  0  0
 22 28  1  0  0  0
 22 32  2  0  0  0
 26 27  1  0  0  0
 28100  1  0  0  0
 28101  1  0  0  0
 29102  1  0  0  0
 29103  1  0  0  0
 33 34  1  0  0  0
 33 66  1  0  0  0
 33 70  2  0  0  0
 34 36  1  0  0  0
 34 59  1  0  0  0
 34104  1  0  0  0
 35 44  2  0  0  0
 35 45  1  0  0  0
 35 68  1  0  0  0
 36 56  1  0  0  0
 36105  1  0  0  0
 37 39  1  0  0  0
 37 47  1  0  0  0
 37 66  1  0  0  0
 37106  1  0  0  0
 38 43  2  0  0  0
 38 46  1  0  0  0
 38 47  1  0  0  0
 39 64  1  0  0  0
 39 67  2  0  0  0
 40 52  1  0  0  0
 40 53  2  0  0  0
 40 58  1  0  0  0
 41107  1  0  0  0
 41108  1  0  0  0
 41109  1  0  0  0
 41 48  1  0  0  0
 42 43  1  0  0  0
 42 66  1  0  0  0
 42110  1  0  0  0
 42111  1  0  0  0
 43 44  1  0  0  0
 44112  1  0  0  0
 45 46  2  0  0  0
 45113  1  0  0  0
 46114  1  0  0  0
 47115  1  0  0  0
 47116  1  0  0  0
 48 56  1  0  0  0
 48 65  1  0  0  0
 48117  1  0  0  0
 49 50  1  0  0  0
 49 53  1  0  0  0
 49 64  1  0  0  0
 49118  1  0  0  0
 50 51  1  0  0  0
 50119  1  0  0  0
 50120  1  0  0  0
 51 52  1  0  0  0
 51121  1  0  0  0
 51122  1  0  0  0
 52123  1  0  0  0
 52124  1  0  0  0
 53 54  1  0  0  0
 54 55  2  0  0  0
 54125  1  0  0  0
 55 57  1  0  0  0
 55126  1  0  0  0
 56 69  2  0  0  0
 57 58  2  0  0  0
 57127  1  0  0  0
 58128  1  0  0  0
 59 60  1  0  0  0
 59 61  1  0  0  0
 59 62  1  0  0  0
 60129  1  0  0  0
 60130  1  0  0  0
 60131  1  0  0  0
 61132  1  0  0  0
 61133  1  0  0  0
 61134  1  0  0  0
 62135  1  0  0  0
 62136  1  0  0  0
 62137  1  0  0  0
 63 65  1  0  0  0
 63138  1  0  0  0
 63139  1  0  0  0
 63140  1  0  0  0
 64141  1  0  0  0
 65142  1  0  0  0
 68 81  1  0  0  0
 71 72  2  0  0  0
 71 74  1  0  0  0
 71143  1  0  0  0
 72 76  1  0  0  0
 72144  1  0  0  0
 73 75  1  0  0  0
 73 76  2  0  0  0
 73145  1  0  0  0
 74 75  2  0  0  0
 74 78  1  0  0  0
 75 77  1  0  0  0
 76 82  1  0  0  0
 77146  1  0  0  0
 77147  1  0  0  0
 77148  1  0  0  0
 78 83  1  0  0  0
 78149  1  0  0  0
 78150  1  0  0  0
 79 80  1  0  0  0
 79 81  1  0  0  0
 79151  1  0  0  0
 79152  1  0  0  0
 80 83  1  0  0  0
 80153  1  0  0  0
 80154  1  0  0  0
 81155  1  0  0  0
 81156  1  0  0  0
 82157  1  0  0  0
 83158  1  0  0  0
 83159  1  0  0  0
M  CHG  1  83   1
M  ISO  4   1 100  68 101  81 101  82 100
M  END
> <chiral flag>
0

> <version>
0

> <s_m_source_file>
/data/baiqing/PycharmProjects/Reinvent-master-3.2/result/LINK_invent/BTK/process_docking_weight1_custom_sum_contain_oxygen_bond_distance_aromatic_linkinvent_7_9_3/rearranged_h_0131.sdf

> <i_m_source_file_index>
73

> <r_mmod_Potential_Energy-OPLS-2005>
-175.525390625

> <r_mmod_Stretch_Energy-OPLS-2005>
36.2685813903809

> <r_mmod_Bend_Energy-OPLS-2005>
97.5403442382812

> <r_mmod_Torsional_Energy-OPLS-2005>
300.199951171875

> <r_mmod_Improper_Torsional_Energy-OPLS-2005>
9.91118144989014

> <r_mmod_Van_der_Waal_Energy-OPLS-2005>
142.213073730469

> <r_mmod_Electrostatic_Energy-OPLS-2005>
-306.042266845703

> <r_mmod_Solvation_Energy-OPLS-2005>
-463.940887451172

> <b_mmod_Minimization_Converged-OPLS-2005>
0

> <r_mmod_RMS_Derivative-OPLS-2005>
5.41352081298828

$$$$
73
                    3D
 Structure written by MMmdl.
179188  0  0  1  0            999 V2000
  -30.7610  -14.3670   20.6641 C   0  0  0  0  0  0
  -30.4163  -12.2824   19.3971 C   0  0  0  0  0  0
  -29.4834  -12.5110   18.1933 C   0  0  0  0  0  0
  -28.0073  -12.3755   18.6117 C   0  0  0  0  0  0
  -27.6658  -13.2025   19.8790 C   0  0  2  0  0  0
  -28.7038  -12.9450   20.9928 C   0  0  0  0  0  0
  -25.2606  -13.8166   20.5674 C   0  0  0  0  0  0
  -24.1854  -13.0444   20.9174 C   0  0  0  0  0  0
  -24.6395  -11.6910   20.8734 C   0  0  0  0  0  0
  -23.9057  -10.4297   21.0407 C   0  0  0  0  0  0
  -24.3609   -9.4211   21.9185 C   0  0  0  0  0  0
  -23.6287   -8.2247   22.0757 C   0  0  0  0  0  0
  -22.4267   -8.0285   21.3549 C   0  0  0  0  0  0
  -21.9905   -9.0257   20.4648 C   0  0  0  0  0  0
  -22.7232  -10.2136   20.3054 C   0  0  0  0  0  0
  -21.6853   -6.0737   22.5281 C   0  0  0  0  0  0
  -21.4014   -6.5640   23.8212 C   0  0  0  0  0  0
  -21.3654   -5.6791   24.9173 C   0  0  0  0  0  0
  -21.6045   -4.3053   24.7223 C   0  0  0  0  0  0
  -21.8821   -3.8144   23.4343 C   0  0  0  0  0  0
  -21.9193   -4.6965   22.3397 C   0  0  0  0  0  0
  -22.7873  -13.5249   21.1832 C   0  0  0  0  0  0
  -22.1662   -4.2150   21.0975 F   0  0  0  0  0  0
  -21.5625   -3.4533   25.7733 F   0  0  0  0  0  0
  -30.0455  -13.2339   20.4532 N   0  0  0  0  0  0
  -26.3044  -12.9328   20.3387 N   0  0  0  0  0  0
  -25.9323  -11.6489   20.5776 N   0  0  0  0  0  0
  -22.0503  -12.8242   22.0381 N   0  0  0  0  0  0
  -25.4320  -15.1878   20.4050 N   0  0  0  0  0  0
  -31.8015  -14.6371   20.0603 O   0  0  0  0  0  0
  -21.6636   -6.8879   21.4240 O   0  0  0  0  0  0
  -22.3568  -14.5560   20.6686 O   0  0  0  0  0  0
  -24.6092  -31.8709   23.2131 C   0  0  0  0  0  0
  -25.9008  -32.4839   23.8413 C   0  0  1  0  0  0
  -27.2466  -27.4718   20.1002 C   0  0  0  0  0  0
  -25.5886  -33.8634   24.2348 N   0  0  0  0  0  0
  -23.3954  -30.4925   21.5519 C   0  0  2  0  0  0
  -24.8450  -28.9592   20.1206 C   0  0  0  0  0  0
  -22.7379  -29.4664   22.5017 C   0  0  0  0  0  0
  -18.0263  -28.1372   22.8499 C   0  0  0  0  0  0
  -24.1482  -36.7314   23.2636 C   0  0  0  0  0  0
  -25.9180  -30.8494   21.3594 C   0  0  0  0  0  0
  -25.9990  -29.4829   20.7160 C   0  0  0  0  0  0
  -27.2018  -28.7486   20.7070 C   0  0  0  0  0  0
  -26.0813  -26.9607   19.4949 C   0  0  0  0  0  0
  -24.8785  -27.6933   19.5088 C   0  0  0  0  0  0
  -23.6026  -29.8189   20.1681 C   0  0  0  0  0  0
  -25.4103  -36.3121   24.0343 C   0  0  1  0  0  0
  -20.5850  -28.3646   23.1340 C   0  0  2  0  0  0
  -20.6759  -26.9390   22.5434 C   0  0  0  0  0  0
  -19.5745  -26.6383   21.5223 C   0  0  0  0  0  0
  -18.1914  -26.7932   22.1612 C   0  0  0  0  0  0
  -19.1510  -28.8826   23.2917 C   0  0  0  0  0  0
  -18.9445  -30.1441   23.8918 C   0  0  0  0  0  0
  -17.6450  -30.6589   24.0567 C   0  0  0  0  0  0
  -25.9027  -34.9487   23.5143 C   0  0  0  0  0  0
  -16.5336  -29.9093   23.6331 C   0  0  0  0  0  0
  -16.7252  -28.6507   23.0351 C   0  0  0  0  0  0
  -26.4467  -31.6597   25.0713 C   0  0  0  0  0  0
  -25.3750  -31.3713   26.1478 C   0  0  0  0  0  0
  -27.0272  -30.3036   24.6048 C   0  0  0  0  0  0
  -27.6067  -32.4293   25.7464 C   0  0  0  0  0  0
  -27.5587  -37.1806   24.8460 C   0  0  0  0  0  0
  -21.4115  -29.3016   22.3750 N   0  0  0  0  0  0
  -26.4290  -37.3800   23.9418 N   0  0  0  0  0  0
  -24.6587  -31.0847   22.1008 N   0  0  0  0  0  0
  -23.4181  -28.8211   23.3037 O   0  0  0  0  0  0
  -28.3878  -26.7068   20.0240 O   0  0  0  0  0  0
  -26.5582  -34.8933   22.4697 O   0  0  0  0  0  0
  -23.5298  -32.1442   23.7552 O   0  0  0  0  0  0
  -29.8086  -24.1628   20.8761 C   0  0  0  0  0  0
  -27.8069  -24.8200   22.2616 C   0  0  0  0  0  0
  -29.8713  -22.8026   21.5955 C   0  0  0  0  0  0
  -27.8452  -23.4611   22.9833 C   0  0  0  0  0  0
  -27.6862  -18.9407   23.6735 C   0  0  0  0  0  0
  -29.2131  -25.2463   21.7952 C   0  0  2  0  0  0
  -28.0869  -19.2263   21.3267 C   0  0  1  0  0  0
  -28.4895  -22.3542   22.1194 C   0  0  2  0  0  0
  -27.6680  -20.0115   22.5842 C   0  0  2  0  0  0
  -28.7385  -17.9311   21.8815 C   0  0  1  0  0  0
  -27.2325  -20.6237   18.6362 C   0  0  0  0  0  0
  -29.2367  -26.6555   21.1701 C   0  0  0  0  0  0
  -30.8651  -16.4493   22.0317 C   0  0  0  0  0  0
  -30.1964  -17.6931   21.4077 C   0  0  1  0  0  0
  -26.3315  -20.0552   19.7379 C   0  0  2  0  0  0
  -30.2548  -15.1950   21.5834 N   0  0  0  0  0  0
  -26.9430  -18.9283   20.4448 N   0  0  0  0  0  0
  -28.6213  -21.1050   22.9038 N   0  3  0  0  0  0
  -28.7838  -18.1321   23.2905 O   0  0  0  0  0  0
  -30.2584  -17.5674   19.9987 O   0  0  0  0  0  0
  -24.8775  -19.3420   19.0030 Cl  0  0  0  0  0  0
  -31.4603  -12.3802   19.0927 H   0  0  0  0  0  0
  -30.3145  -11.2621   19.7708 H   0  0  0  0  0  0
  -29.7119  -11.7953   17.4022 H   0  0  0  0  0  0
  -29.6587  -13.5021   17.7725 H   0  0  0  0  0  0
  -27.8120  -11.3184   18.7968 H   0  0  0  0  0  0
  -27.3532  -12.6633   17.7878 H   0  0  0  0  0  0
  -27.7235  -14.2561   19.6041 H   0  0  0  0  0  0
  -28.6652  -11.9022   21.3093 H   0  0  0  0  0  0
  -28.4539  -13.5206   21.8840 H   0  0  0  0  0  0
  -25.2757   -9.5687   22.4755 H   0  0  0  0  0  0
  -23.9996   -7.4635   22.7475 H   0  0  0  0  0  0
  -21.0840   -8.8773   19.8951 H   0  0  0  0  0  0
  -22.3698  -10.9671   19.6156 H   0  0  0  0  0  0
  -21.2005   -7.6152   23.9722 H   0  0  0  0  0  0
  -21.1469   -6.0516   25.9077 H   0  0  0  0  0  0
  -22.0600   -2.7609   23.2837 H   0  0  0  0  0  0
  -22.4094  -11.9885   22.4752 H   0  0  0  0  0  0
  -21.1122  -13.1281   22.2577 H   0  0  0  0  0  0
  -24.6454  -15.8251   20.4526 H   0  0  0  0  0  0
  -26.2633  -15.6128   20.0149 H   0  0  0  0  0  0
  -26.7080  -32.5575   23.1187 H   0  0  0  0  0  0
  -25.0071  -33.9813   25.0516 H   0  0  0  0  0  0
  -22.6817  -31.3070   21.4128 H   0  0  0  0  0  0
  -23.3760  -35.9625   23.3285 H   0  0  0  0  0  0
  -24.3587  -36.8942   22.2052 H   0  0  0  0  0  0
  -23.7213  -37.6506   23.6655 H   0  0  0  0  0  0
  -26.0198  -31.6122   20.5861 H   0  0  0  0  0  0
  -26.8099  -30.9105   21.9715 H   0  0  0  0  0  0
  -28.0890  -29.1809   21.1467 H   0  0  0  0  0  0
  -26.1080  -25.9916   19.0162 H   0  0  0  0  0  0
  -23.9926  -27.2852   19.0421 H   0  0  0  0  0  0
  -23.7016  -30.5896   19.4032 H   0  0  0  0  0  0
  -22.7306  -29.2299   19.8787 H   0  0  0  0  0  0
  -25.1280  -36.1985   25.0834 H   0  0  0  0  0  0
  -20.9940  -28.3210   24.1458 H   0  0  0  0  0  0
  -20.5666  -26.2256   23.3613 H   0  0  0  0  0  0
  -21.6631  -26.7451   22.1218 H   0  0  0  0  0  0
  -19.6913  -25.6302   21.1233 H   0  0  0  0  0  0
  -19.6701  -27.3212   20.6770 H   0  0  0  0  0  0
  -17.4204  -26.6712   21.3988 H   0  0  0  0  0  0
  -18.0281  -26.0058   22.8979 H   0  0  0  0  0  0
  -19.7927  -30.7245   24.2288 H   0  0  0  0  0  0
  -17.5014  -31.6274   24.5162 H   0  0  0  0  0  0
  -15.5340  -30.3002   23.7657 H   0  0  0  0  0  0
  -15.8650  -28.0838   22.7046 H   0  0  0  0  0  0
  -24.5905  -30.7073   25.7831 H   0  0  0  0  0  0
  -24.8957  -32.2873   26.4934 H   0  0  0  0  0  0
  -25.8102  -30.8879   27.0232 H   0  0  0  0  0  0
  -26.2788  -29.6809   24.1126 H   0  0  0  0  0  0
  -27.4087  -29.7250   25.4475 H   0  0  0  0  0  0
  -27.8611  -30.4359   23.9148 H   0  0  0  0  0  0
  -27.2709  -33.3596   26.2056 H   0  0  0  0  0  0
  -28.3865  -32.6837   25.0274 H   0  0  0  0  0  0
  -28.0740  -31.8398   26.5364 H   0  0  0  0  0  0
  -28.2600  -38.0108   24.7519 H   0  0  0  0  0  0
  -28.1087  -36.2648   24.6256 H   0  0  0  0  0  0
  -27.2318  -37.1409   25.8864 H   0  0  0  0  0  0
  -20.9268  -29.8720   21.6969 H   0  0  0  0  0  0
  -26.0190  -38.2877   24.1432 H   0  0  0  0  0  0
  -29.2117  -24.0741   19.9670 H   0  0  0  0  0  0
  -30.8117  -24.4518   20.5580 H   0  0  0  0  0  0
  -27.3893  -25.5782   22.9261 H   0  0  0  0  0  0
  -27.1327  -24.7605   21.4059 H   0  0  0  0  0  0
  -30.5783  -22.8775   22.4234 H   0  0  0  0  0  0
  -30.2748  -22.0523   20.9135 H   0  0  0  0  0  0
  -26.8314  -23.1733   23.2654 H   0  0  0  0  0  0
  -28.4019  -23.5793   23.9141 H   0  0  0  0  0  0
  -26.7728  -18.3433   23.6451 H   0  0  0  0  0  0
  -27.7969  -19.3366   24.6834 H   0  0  0  0  0  0
  -29.8493  -25.3030   22.6811 H   0  0  0  0  0  0
  -28.8359  -19.7847   20.7629 H   0  0  0  0  0  0
  -27.8492  -22.1774   21.2542 H   0  0  0  0  0  0
  -26.6655  -20.4360   22.5247 H   0  0  0  0  0  0
  -28.1128  -17.0597   21.6754 H   0  0  0  0  0  0
  -28.1314  -21.0901   19.0378 H   0  0  0  0  0  0
  -26.7024  -21.3849   18.0626 H   0  0  0  0  0  0
  -27.5403  -19.8441   17.9382 H   0  0  0  0  0  0
  -30.2501  -26.9068   20.8557 H   0  0  0  0  0  0
  -28.9759  -27.3737   21.9460 H   0  0  0  0  0  0
  -30.7923  -16.4978   23.1192 H   0  0  0  0  0  0
  -31.9357  -16.4602   21.8175 H   0  0  0  0  0  0
  -30.7909  -18.5663   21.6824 H   0  0  0  0  0  0
  -25.9933  -20.8416   20.4153 H   0  0  0  0  0  0
  -29.4169  -14.8893   22.0564 H   0  0  0  0  0  0
  -26.2163  -18.4417   20.9679 H   0  0  0  0  0  0
  -28.5103  -21.3486   23.8763 H   0  0  0  0  0  0
  -29.5617  -20.7541   22.8085 H   0  0  0  0  0  0
  -29.7827  -16.7772   19.7708 H   0  0  0  0  0  0
  1 25  1  0  0  0
  1 30  2  0  0  0
  1 86  1  0  0  0
  2  3  1  0  0  0
  2 25  1  0  0  0
  2 92  1  0  0  0
  2 93  1  0  0  0
  3  4  1  0  0  0
  3 94  1  0  0  0
  3 95  1  0  0  0
  4  5  1  0  0  0
  4 96  1  0  0  0
  4 97  1  0  0  0
  5  6  1  0  0  0
  5 26  1  0  0  0
  5 98  1  0  0  0
  6 25  1  0  0  0
  6 99  1  0  0  0
  6100  1  0  0  0
  7  8  2  0  0  0
  7 26  1  0  0  0
  7 29  1  0  0  0
  8  9  1  0  0  0
  8 22  1  0  0  0
  9 10  1  0  0  0
  9 27  2  0  0  0
 10 11  2  0  0  0
 10 15  1  0  0  0
 11 12  1  0  0  0
 11101  1  0  0  0
 12 13  2  0  0  0
 12102  1  0  0  0
 13 14  1  0  0  0
 13 31  1  0  0  0
 14 15  2  0  0  0
 14103  1  0  0  0
 15104  1  0  0  0
 16 17  2  0  0  0
 16 21  1  0  0  0
 16 31  1  0  0  0
 17 18  1  0  0  0
 17105  1  0  0  0
 18 19  2  0  0  0
 18106  1  0  0  0
 19 20  1  0  0  0
 19 24  1  0  0  0
 20 21  2  0  0  0
 20107  1  0  0  0
 21 23  1  0  0  0
 22 28  1  0  0  0
 22 32  2  0  0  0
 26 27  1  0  0  0
 28108  1  0  0  0
 28109  1  0  0  0
 29110  1  0  0  0
 29111  1  0  0  0
 33 34  1  0  0  0
 33 66  1  0  0  0
 33 70  2  0  0  0
 34 36  1  0  0  0
 34 59  1  0  0  0
 34112  1  0  0  0
 35 44  2  0  0  0
 35 45  1  0  0  0
 35 68  1  0  0  0
 36 56  1  0  0  0
 36113  1  0  0  0
 37 39  1  0  0  0
 37 47  1  0  0  0
 37 66  1  0  0  0
 37114  1  0  0  0
 38 43  2  0  0  0
 38 46  1  0  0  0
 38 47  1  0  0  0
 39 64  1  0  0  0
 39 67  2  0  0  0
 40 52  1  0  0  0
 40 53  2  0  0  0
 40 58  1  0  0  0
 41115  1  0  0  0
 41116  1  0  0  0
 41117  1  0  0  0
 41 48  1  0  0  0
 42 43  1  0  0  0
 42 66  1  0  0  0
 42118  1  0  0  0
 42119  1  0  0  0
 43 44  1  0  0  0
 44120  1  0  0  0
 45 46  2  0  0  0
 45121  1  0  0  0
 46122  1  0  0  0
 47123  1  0  0  0
 47124  1  0  0  0
 48 56  1  0  0  0
 48 65  1  0  0  0
 48125  1  0  0  0
 49 50  1  0  0  0
 49 53  1  0  0  0
 49 64  1  0  0  0
 49126  1  0  0  0
 50 51  1  0  0  0
 50127  1  0  0  0
 50128  1  0  0  0
 51 52  1  0  0  0
 51129  1  0  0  0
 51130  1  0  0  0
 52131  1  0  0  0
 52132  1  0  0  0
 53 54  1  0  0  0
 54 55  2  0  0  0
 54133  1  0  0  0
 55 57  1  0  0  0
 55134  1  0  0  0
 56 69  2  0  0  0
 57 58  2  0  0  0
 57135  1  0  0  0
 58136  1  0  0  0
 59 60  1  0  0  0
 59 61  1  0  0  0
 59 62  1  0  0  0
 60137  1  0  0  0
 60138  1  0  0  0
 60139  1  0  0  0
 61140  1  0  0  0
 61141  1  0  0  0
 61142  1  0  0  0
 62143  1  0  0  0
 62144  1  0  0  0
 62145  1  0  0  0
 63 65  1  0  0  0
 63146  1  0  0  0
 63147  1  0  0  0
 63148  1  0  0  0
 64149  1  0  0  0
 65150  1  0  0  0
 68 82  1  0  0  0
 71 73  1  0  0  0
 71 76  1  0  0  0
 71151  1  0  0  0
 71152  1  0  0  0
 72 74  1  0  0  0
 72 76  1  0  0  0
 72153  1  0  0  0
 72154  1  0  0  0
 73 78  1  0  0  0
 73155  1  0  0  0
 73156  1  0  0  0
 74 78  1  0  0  0
 74157  1  0  0  0
 74158  1  0  0  0
 75 79  1  0  0  0
 75 89  1  0  0  0
 75159  1  0  0  0
 75160  1  0  0  0
 76 82  1  0  0  0
 76161  1  0  0  0
 77 79  1  0  0  0
 77 80  1  0  0  0
 77 87  1  0  0  0
 77162  1  0  0  0
 78 88  1  0  0  0
 78163  1  0  0  0
 79 88  1  0  0  0
 79164  1  0  0  0
 80 84  1  0  0  0
 80 89  1  0  0  0
 80165  1  0  0  0
 81166  1  0  0  0
 81167  1  0  0  0
 81168  1  0  0  0
 81 85  1  0  0  0
 82169  1  0  0  0
 82170  1  0  0  0
 83 84  1  0  0  0
 83 86  1  0  0  0
 83171  1  0  0  0
 83172  1  0  0  0
 84 90  1  0  0  0
 84173  1  0  0  0
 85 87  1  0  0  0
 85 91  1  0  0  0
 85174  1  0  0  0
 86175  1  0  0  0
 87176  1  0  0  0
 88177  1  0  0  0
 88178  1  0  0  0
 90179  1  0  0  0
M  CHG  1  88   1
M  ISO  4   1 100  68 101  82 101  86 100
M  END
> <chiral flag>
0

> <version>
0

> <s_m_source_file>
/data/baiqing/PycharmProjects/Reinvent-master-3.2/result/LINK_invent/BTK/process_docking_weight1_custom_sum_contain_oxygen_bond_distance_aromatic_linkinvent_7_9_3/rearranged_h_0131.sdf

> <i_m_source_file_index>
74

> <r_mmod_Potential_Energy-OPLS-2005>
-188.043807983398

> <r_mmod_Stretch_Energy-OPLS-2005>
33.5450325012207

> <r_mmod_Bend_Energy-OPLS-2005>
117.783843994141

> <r_mmod_Torsional_Energy-OPLS-2005>
315.205474853516

> <r_mmod_Improper_Torsional_Energy-OPLS-2005>
2.33781909942627

> <r_mmod_Van_der_Waal_Energy-OPLS-2005>
120.01692199707

> <r_mmod_Electrostatic_Energy-OPLS-2005>
-301.820709228516

> <r_mmod_Solvation_Energy-OPLS-2005>
-480.99755859375

> <b_mmod_Minimization_Converged-OPLS-2005>
0

> <r_mmod_RMS_Derivative-OPLS-2005>
1.26404857635498

$$$$
74
                    3D
 Structure written by MMmdl.
167176  0  0  1  0            999 V2000
  -30.6453  -14.8623   20.4400 C   0  0  0  0  0  0
  -30.4155  -12.5444   19.4792 C   0  0  0  0  0  0
  -29.5012  -12.5176   18.2380 C   0  0  0  0  0  0
  -28.0347  -12.3249   18.6627 C   0  0  0  0  0  0
  -27.6271  -13.2527   19.8392 C   0  0  2  0  0  0
  -28.6779  -13.2720   20.9695 C   0  0  0  0  0  0
  -25.2457  -13.8238   20.5739 C   0  0  0  0  0  0
  -24.1774  -13.0453   20.9235 C   0  0  0  0  0  0
  -24.6397  -11.6938   20.8766 C   0  0  0  0  0  0
  -23.9083  -10.4303   21.0411 C   0  0  0  0  0  0
  -24.3630   -9.4214   21.9188 C   0  0  0  0  0  0
  -23.6305   -8.2248   22.0754 C   0  0  0  0  0  0
  -22.4288   -8.0286   21.3543 C   0  0  0  0  0  0
  -21.9925   -9.0261   20.4645 C   0  0  0  0  0  0
  -22.7255  -10.2142   20.3058 C   0  0  0  0  0  0
  -21.6858   -6.0743   22.5281 C   0  0  0  0  0  0
  -21.4017   -6.5644   23.8215 C   0  0  0  0  0  0
  -21.3658   -5.6794   24.9175 C   0  0  0  0  0  0
  -21.6044   -4.3057   24.7223 C   0  0  0  0  0  0
  -21.8817   -3.8151   23.4344 C   0  0  0  0  0  0
  -21.9193   -4.6971   22.3403 C   0  0  0  0  0  0
  -22.7791  -13.5221   21.1876 C   0  0  0  0  0  0
  -22.1659   -4.2157   21.0980 F   0  0  0  0  0  0
  -21.5629   -3.4541   25.7735 F   0  0  0  0  0  0
  -29.9476  -13.6626   20.3478 N   0  0  0  0  0  0
  -26.2886  -12.9481   20.3298 N   0  0  0  0  0  0
  -25.9335  -11.6602   20.5781 N   0  0  0  0  0  0
  -22.0433  -12.8211   22.0426 N   0  0  0  0  0  0
  -25.4132  -15.1964   20.4166 N   0  0  0  0  0  0
  -31.8573  -14.7929   20.2046 O   0  0  0  0  0  0
  -21.6645   -6.8886   21.4242 O   0  0  0  0  0  0
  -22.3475  -14.5520   20.6713 O   0  0  0  0  0  0
  -24.6402  -31.8488   23.1945 C   0  0  0  0  0  0
  -25.9196  -32.4717   23.8310 C   0  0  1  0  0  0
  -27.2045  -27.1735   20.1374 C   0  0  0  0  0  0
  -25.5964  -33.8523   24.2225 N   0  0  0  0  0  0
  -23.4406  -30.4727   21.5393 C   0  0  2  0  0  0
  -24.8874  -28.9146   20.1061 C   0  0  0  0  0  0
  -22.7551  -29.4576   22.4875 C   0  0  0  0  0  0
  -18.0301  -28.1396   22.8481 C   0  0  0  0  0  0
  -24.1492  -36.7263   23.2638 C   0  0  0  0  0  0
  -25.9956  -30.7330   21.3906 C   0  0  0  0  0  0
  -26.0641  -29.3500   20.7285 C   0  0  0  0  0  0
  -27.2241  -28.4929   20.7346 C   0  0  0  0  0  0
  -26.0080  -26.8478   19.4561 C   0  0  0  0  0  0
  -24.8706  -27.6757   19.4551 C   0  0  0  0  0  0
  -23.6634  -29.8111   20.1552 C   0  0  0  0  0  0
  -25.4121  -36.3045   24.0317 C   0  0  1  0  0  0
  -20.5912  -28.3720   23.1240 C   0  0  2  0  0  0
  -20.6788  -26.9427   22.5402 C   0  0  0  0  0  0
  -19.5759  -26.6382   21.5214 C   0  0  0  0  0  0
  -18.1939  -26.7935   22.1623 C   0  0  0  0  0  0
  -19.1557  -28.8875   23.2854 C   0  0  0  0  0  0
  -18.9476  -30.1473   23.8876 C   0  0  0  0  0  0
  -17.6473  -30.6593   24.0561 C   0  0  0  0  0  0
  -25.9074  -34.9417   23.5074 C   0  0  0  0  0  0
  -16.5364  -29.9086   23.6338 C   0  0  0  0  0  0
  -16.7286  -28.6504   23.0360 C   0  0  0  0  0  0
  -26.4528  -31.6570   25.0735 C   0  0  0  0  0  0
  -25.3720  -31.3755   26.1435 C   0  0  0  0  0  0
  -27.0384  -30.2965   24.6300 C   0  0  0  0  0  0
  -27.6066  -32.4325   25.7515 C   0  0  0  0  0  0
  -27.5577  -37.1786   24.8460 C   0  0  0  0  0  0
  -21.4248  -29.3055   22.3622 N   0  0  0  0  0  0
  -26.4286  -37.3756   23.9407 N   0  0  0  0  0  0
  -24.7115  -31.0384   22.0961 N   0  0  0  0  0  0
  -23.4215  -28.8111   23.2999 O   0  0  0  0  0  0
  -28.2373  -26.1791   20.2371 O   0  0  0  0  0  0
  -26.5650  -34.8905   22.4648 O   0  0  0  0  0  0
  -23.5531  -32.1349   23.7186 O   0  0  0  0  0  0
  -28.5213  -21.9474   19.9935 C   0  0  0  0  0  0
  -29.6654  -23.2409   21.3448 C   0  0  0  0  0  0
  -28.6910  -23.3653   20.3949 C   0  0  0  0  0  0
  -29.3437  -21.0243   20.6753 C   0  0  0  0  0  0
  -28.5741  -18.3302   21.0949 C   0  0  0  0  0  0
  -30.2467  -18.7158   19.4468 C   0  0  0  0  0  0
  -29.0619  -16.7946   21.3017 C   0  0  0  0  0  0
  -30.8423  -17.2523   19.6829 C   0  0  0  0  0  0
  -29.6457  -19.4120   20.6975 C   0  0  0  0  0  0
  -33.4468  -20.8206   22.9964 C   0  0  0  0  0  0
  -33.0061  -22.4956   21.1530 C   0  0  0  0  0  0
  -27.8907  -24.7106   19.9271 C   0  0  0  0  0  0
  -31.0560  -21.5260   22.5178 C   0  0  0  0  0  0
  -32.4570  -21.2751   21.9126 C   0  0  0  0  0  0
  -30.0489  -21.8998   21.5264 N   0  0  0  0  0  0
  -30.0384  -16.1547   20.3462 N   0  0  0  0  0  0
  -31.4533  -12.6558   19.1624 H   0  0  0  0  0  0
  -30.3737  -11.5939   20.0132 H   0  0  0  0  0  0
  -29.8039  -11.7199   17.5585 H   0  0  0  0  0  0
  -29.6055  -13.4510   17.6825 H   0  0  0  0  0  0
  -27.9166  -11.2816   18.9581 H   0  0  0  0  0  0
  -27.3701  -12.4761   17.8111 H   0  0  0  0  0  0
  -27.5932  -14.2594   19.4211 H   0  0  0  0  0  0
  -28.7579  -12.2943   21.4472 H   0  0  0  0  0  0
  -28.3983  -13.9733   21.7551 H   0  0  0  0  0  0
  -25.2768   -9.5695   22.4774 H   0  0  0  0  0  0
  -24.0013   -7.4640   22.7477 H   0  0  0  0  0  0
  -21.0856   -8.8780   19.8953 H   0  0  0  0  0  0
  -22.3706  -10.9685   19.6173 H   0  0  0  0  0  0
  -21.2009   -7.6152   23.9723 H   0  0  0  0  0  0
  -21.1482   -6.0522   25.9078 H   0  0  0  0  0  0
  -22.0597   -2.7615   23.2841 H   0  0  0  0  0  0
  -22.4053  -11.9882   22.4831 H   0  0  0  0  0  0
  -21.1046  -13.1235   22.2610 H   0  0  0  0  0  0
  -24.6480  -15.8514   20.5351 H   0  0  0  0  0  0
  -26.2668  -15.6373   20.0989 H   0  0  0  0  0  0
  -26.7260  -32.5332   23.1038 H   0  0  0  0  0  0
  -25.0103  -33.9650   25.0366 H   0  0  0  0  0  0
  -22.7410  -31.2981   21.3913 H   0  0  0  0  0  0
  -23.3761  -35.9587   23.3281 H   0  0  0  0  0  0
  -24.3583  -36.8914   22.2057 H   0  0  0  0  0  0
  -23.7237  -37.6450   23.6686 H   0  0  0  0  0  0
  -26.1501  -31.4911   20.6218 H   0  0  0  0  0  0
  -26.8673  -30.7792   22.0316 H   0  0  0  0  0  0
  -28.1156  -28.8148   21.2537 H   0  0  0  0  0  0
  -25.9009  -25.9122   18.9298 H   0  0  0  0  0  0
  -23.9751  -27.3423   18.9486 H   0  0  0  0  0  0
  -23.7957  -30.5893   19.4027 H   0  0  0  0  0  0
  -22.7788  -29.2520   19.8452 H   0  0  0  0  0  0
  -25.1306  -36.1877   25.0809 H   0  0  0  0  0  0
  -21.0003  -28.3309   24.1362 H   0  0  0  0  0  0
  -20.5689  -26.2337   23.3622 H   0  0  0  0  0  0
  -21.6653  -26.7441   22.1194 H   0  0  0  0  0  0
  -19.6922  -25.6286   21.1261 H   0  0  0  0  0  0
  -19.6693  -27.3180   20.6733 H   0  0  0  0  0  0
  -17.4210  -26.6691   21.4022 H   0  0  0  0  0  0
  -18.0329  -26.0078   22.9018 H   0  0  0  0  0  0
  -19.7952  -30.7299   24.2232 H   0  0  0  0  0  0
  -17.5025  -31.6273   24.5162 H   0  0  0  0  0  0
  -15.5364  -30.2984   23.7668 H   0  0  0  0  0  0
  -15.8686  -28.0817   22.7086 H   0  0  0  0  0  0
  -24.5903  -30.7097   25.7757 H   0  0  0  0  0  0
  -24.8905  -32.2938   26.4806 H   0  0  0  0  0  0
  -25.8005  -30.8964   27.0246 H   0  0  0  0  0  0
  -26.2997  -29.6692   24.1297 H   0  0  0  0  0  0
  -27.3991  -29.7257   25.4867 H   0  0  0  0  0  0
  -27.8911  -30.4199   23.9619 H   0  0  0  0  0  0
  -27.2669  -33.3643   26.2046 H   0  0  0  0  0  0
  -28.3903  -32.6851   25.0361 H   0  0  0  0  0  0
  -28.0706  -31.8480   26.5470 H   0  0  0  0  0  0
  -28.2576  -38.0100   24.7524 H   0  0  0  0  0  0
  -28.1095  -36.2632   24.6264 H   0  0  0  0  0  0
  -27.2303  -37.1402   25.8864 H   0  0  0  0  0  0
  -20.9451  -29.8783   21.6818 H   0  0  0  0  0  0
  -26.0154  -38.2822   24.1422 H   0  0  0  0  0  0
  -27.8125  -21.6235   19.2429 H   0  0  0  0  0  0
  -30.1271  -24.0146   21.9453 H   0  0  0  0  0  0
  -28.0900  -18.6531   22.0169 H   0  0  0  0  0  0
  -27.7820  -18.3440   20.3444 H   0  0  0  0  0  0
  -29.5012  -18.6871   18.6509 H   0  0  0  0  0  0
  -31.0514  -19.3440   19.0632 H   0  0  0  0  0  0
  -28.1711  -16.1697   21.3461 H   0  0  0  0  0  0
  -29.5158  -16.7214   22.2912 H   0  0  0  0  0  0
  -31.7532  -17.3768   20.2718 H   0  0  0  0  0  0
  -31.1758  -16.8786   18.7129 H   0  0  0  0  0  0
  -30.4147  -19.2662   21.4503 H   0  0  0  0  0  0
  -34.4224  -20.5879   22.5681 H   0  0  0  0  0  0
  -33.0919  -19.9223   23.5030 H   0  0  0  0  0  0
  -33.5926  -21.5923   23.7531 H   0  0  0  0  0  0
  -33.9977  -22.2940   20.7467 H   0  0  0  0  0  0
  -33.0847  -23.3662   21.8049 H   0  0  0  0  0  0
  -32.3642  -22.7653   20.3138 H   0  0  0  0  0  0
  -26.8920  -24.5306   20.3258 H   0  0  0  0  0  0
  -27.8002  -24.6342   18.8432 H   0  0  0  0  0  0
  -31.1207  -22.3236   23.2597 H   0  0  0  0  0  0
  -30.7025  -20.6584   23.0755 H   0  0  0  0  0  0
  -32.3752  -20.4607   21.1926 H   0  0  0  0  0  0
  1 25  1  0  0  0
  1 30  2  0  0  0
  1 86  1  0  0  0
  2  3  1  0  0  0
  2 25  1  0  0  0
  2 87  1  0  0  0
  2 88  1  0  0  0
  3  4  1  0  0  0
  3 89  1  0  0  0
  3 90  1  0  0  0
  4  5  1  0  0  0
  4 91  1  0  0  0
  4 92  1  0  0  0
  5  6  1  0  0  0
  5 26  1  0  0  0
  5 93  1  0  0  0
  6 25  1  0  0  0
  6 94  1  0  0  0
  6 95  1  0  0  0
  7  8  2  0  0  0
  7 26  1  0  0  0
  7 29  1  0  0  0
  8  9  1  0  0  0
  8 22  1  0  0  0
  9 10  1  0  0  0
  9 27  2  0  0  0
 10 11  2  0  0  0
 10 15  1  0  0  0
 11 12  1  0  0  0
 11 96  1  0  0  0
 12 13  2  0  0  0
 12 97  1  0  0  0
 13 14  1  0  0  0
 13 31  1  0  0  0
 14 15  2  0  0  0
 14 98  1  0  0  0
 15 99  1  0  0  0
 16 17  2  0  0  0
 16 21  1  0  0  0
 16 31  1  0  0  0
 17 18  1  0  0  0
 17100  1  0  0  0
 18 19  2  0  0  0
 18101  1  0  0  0
 19 20  1  0  0  0
 19 24  1  0  0  0
 20 21  2  0  0  0
 20102  1  0  0  0
 21 23  1  0  0  0
 22 28  1  0  0  0
 22 32  2  0  0  0
 26 27  1  0  0  0
 28103  1  0  0  0
 28104  1  0  0  0
 29105  1  0  0  0
 29106  1  0  0  0
 33 34  1  0  0  0
 33 66  1  0  0  0
 33 70  2  0  0  0
 34 36  1  0  0  0
 34 59  1  0  0  0
 34107  1  0  0  0
 35 44  2  0  0  0
 35 45  1  0  0  0
 35 68  1  0  0  0
 36 56  1  0  0  0
 36108  1  0  0  0
 37 39  1  0  0  0
 37 47  1  0  0  0
 37 66  1  0  0  0
 37109  1  0  0  0
 38 43  2  0  0  0
 38 46  1  0  0  0
 38 47  1  0  0  0
 39 64  1  0  0  0
 39 67  2  0  0  0
 40 52  1  0  0  0
 40 53  2  0  0  0
 40 58  1  0  0  0
 41110  1  0  0  0
 41111  1  0  0  0
 41112  1  0  0  0
 41 48  1  0  0  0
 42 43  1  0  0  0
 42 66  1  0  0  0
 42113  1  0  0  0
 42114  1  0  0  0
 43 44  1  0  0  0
 44115  1  0  0  0
 45 46  2  0  0  0
 45116  1  0  0  0
 46117  1  0  0  0
 47118  1  0  0  0
 47119  1  0  0  0
 48 56  1  0  0  0
 48 65  1  0  0  0
 48120  1  0  0  0
 49 50  1  0  0  0
 49 53  1  0  0  0
 49 64  1  0  0  0
 49121  1  0  0  0
 50 51  1  0  0  0
 50122  1  0  0  0
 50123  1  0  0  0
 51 52  1  0  0  0
 51124  1  0  0  0
 51125  1  0  0  0
 52126  1  0  0  0
 52127  1  0  0  0
 53 54  1  0  0  0
 54 55  2  0  0  0
 54128  1  0  0  0
 55 57  1  0  0  0
 55129  1  0  0  0
 56 69  2  0  0  0
 57 58  2  0  0  0
 57130  1  0  0  0
 58131  1  0  0  0
 59 60  1  0  0  0
 59 61  1  0  0  0
 59 62  1  0  0  0
 60132  1  0  0  0
 60133  1  0  0  0
 60134  1  0  0  0
 61135  1  0  0  0
 61136  1  0  0  0
 61137  1  0  0  0
 62138  1  0  0  0
 62139  1  0  0  0
 62140  1  0  0  0
 63 65  1  0  0  0
 63141  1  0  0  0
 63142  1  0  0  0
 63143  1  0  0  0
 64144  1  0  0  0
 65145  1  0  0  0
 68 82  1  0  0  0
 71 73  1  0  0  0
 71 74  2  0  0  0
 71146  1  0  0  0
 72 73  2  0  0  0
 72 85  1  0  0  0
 72147  1  0  0  0
 73 82  1  0  0  0
 74 85  1  0  0  0
 74 79  1  0  0  0
 75 77  1  0  0  0
 75 79  1  0  0  0
 75148  1  0  0  0
 75149  1  0  0  0
 76 78  1  0  0  0
 76 79  1  0  0  0
 76150  1  0  0  0
 76151  1  0  0  0
 77 86  1  0  0  0
 77152  1  0  0  0
 77153  1  0  0  0
 78 86  1  0  0  0
 78154  1  0  0  0
 78155  1  0  0  0
 79156  1  0  0  0
 80157  1  0  0  0
 80158  1  0  0  0
 80159  1  0  0  0
 80 84  1  0  0  0
 81 84  1  0  0  0
 81160  1  0  0  0
 81161  1  0  0  0
 81162  1  0  0  0
 82163  1  0  0  0
 82164  1  0  0  0
 83 84  1  0  0  0
 83 85  1  0  0  0
 83165  1  0  0  0
 83166  1  0  0  0
 84167  1  0  0  0
M  ISO  4   1 100  68 101  82 101  86 100
M  END
> <chiral flag>
0

> <version>
0

> <s_m_source_file>
/data/baiqing/PycharmProjects/Reinvent-master-3.2/result/LINK_invent/BTK/process_docking_weight1_custom_sum_contain_oxygen_bond_distance_aromatic_linkinvent_7_9_3/rearranged_h_0131.sdf

> <i_m_source_file_index>
75

> <r_mmod_Potential_Energy-OPLS-2005>
619.055480957031

> <r_mmod_Stretch_Energy-OPLS-2005>
191.293884277344

> <r_mmod_Bend_Energy-OPLS-2005>
259.435119628906

> <r_mmod_Torsional_Energy-OPLS-2005>
332.689270019531

> <r_mmod_Improper_Torsional_Energy-OPLS-2005>
15.7210998535156

> <r_mmod_Van_der_Waal_Energy-OPLS-2005>
125.012344360352

> <r_mmod_Electrostatic_Energy-OPLS-2005>
-262.581329345703

> <r_mmod_Solvation_Energy-OPLS-2005>
-197.749252319336

> <b_mmod_Minimization_Converged-OPLS-2005>
0

> <r_mmod_RMS_Derivative-OPLS-2005>
0.596922278404236

$$$$
75
                    3D
 Structure written by MMmdl.
164172  0  0  1  0            999 V2000
  -30.7039  -14.4155   20.5422 C   0  0  0  0  0  0
  -30.3981  -12.2598   19.4252 C   0  0  0  0  0  0
  -29.4964  -12.5122   18.2025 C   0  0  0  0  0  0
  -28.0046  -12.4094   18.5825 C   0  0  0  0  0  0
  -27.6523  -13.2080   19.8688 C   0  0  2  0  0  0
  -28.6848  -12.9616   20.9944 C   0  0  0  0  0  0
  -25.2498  -13.8127   20.5628 C   0  0  0  0  0  0
  -24.1791  -13.0409   20.9166 C   0  0  0  0  0  0
  -24.6311  -11.6857   20.8620 C   0  0  0  0  0  0
  -23.8970  -10.4263   21.0314 C   0  0  0  0  0  0
  -24.3568   -9.4243   21.9145 C   0  0  0  0  0  0
  -23.6244   -8.2283   22.0718 C   0  0  0  0  0  0
  -22.4231   -8.0244   21.3538 C   0  0  0  0  0  0
  -21.9837   -9.0165   20.4650 C   0  0  0  0  0  0
  -22.7128  -10.2057   20.3009 C   0  0  0  0  0  0
  -21.6861   -6.0714   22.5275 C   0  0  0  0  0  0
  -21.4018   -6.5631   23.8198 C   0  0  0  0  0  0
  -21.3647   -5.6807   24.9191 C   0  0  0  0  0  0
  -21.6015   -4.3057   24.7287 C   0  0  0  0  0  0
  -21.8809   -3.8135   23.4418 C   0  0  0  0  0  0
  -21.9175   -4.6934   22.3447 C   0  0  0  0  0  0
  -22.7811  -13.5163   21.1835 C   0  0  0  0  0  0
  -22.1610   -4.2096   21.1029 F   0  0  0  0  0  0
  -21.5645   -3.4533   25.7833 F   0  0  0  0  0  0
  -30.0302  -13.2379   20.4561 N   0  0  0  0  0  0
  -26.2925  -12.9330   20.3254 N   0  0  0  0  0  0
  -25.9229  -11.6479   20.5627 N   0  0  0  0  0  0
  -22.0452  -12.8177   22.0415 N   0  0  0  0  0  0
  -25.4178  -15.1871   20.4199 N   0  0  0  0  0  0
  -31.8392  -14.5832   20.0865 O   0  0  0  0  0  0
  -21.6610   -6.8830   21.4215 O   0  0  0  0  0  0
  -22.3468  -14.5448   20.6623 O   0  0  0  0  0  0
  -24.6083  -31.8711   23.2143 C   0  0  0  0  0  0
  -25.9006  -32.4868   23.8404 C   0  0  1  0  0  0
  -27.2397  -27.4931   20.0808 C   0  0  0  0  0  0
  -25.5867  -33.8665   24.2337 N   0  0  0  0  0  0
  -23.3929  -30.4954   21.5542 C   0  0  2  0  0  0
  -24.8372  -28.9651   20.1212 C   0  0  0  0  0  0
  -22.7365  -29.4687   22.5043 C   0  0  0  0  0  0
  -18.0262  -28.1379   22.8503 C   0  0  0  0  0  0
  -24.1477  -36.7310   23.2639 C   0  0  0  0  0  0
  -25.9136  -30.8587   21.3510 C   0  0  0  0  0  0
  -25.9935  -29.4926   20.7086 C   0  0  0  0  0  0
  -27.1981  -28.7645   20.6920 C   0  0  0  0  0  0
  -26.0655  -26.9561   19.5191 C   0  0  0  0  0  0
  -24.8645  -27.6912   19.5275 C   0  0  0  0  0  0
  -23.5978  -29.8266   20.1685 C   0  0  0  0  0  0
  -25.4095  -36.3135   24.0350 C   0  0  1  0  0  0
  -20.5842  -28.3644   23.1354 C   0  0  2  0  0  0
  -20.6749  -26.9394   22.5433 C   0  0  0  0  0  0
  -19.5735  -26.6398   21.5222 C   0  0  0  0  0  0
  -18.1911  -26.7925   22.1629 C   0  0  0  0  0  0
  -19.1506  -28.8837   23.2928 C   0  0  0  0  0  0
  -18.9443  -30.1442   23.8939 C   0  0  0  0  0  0
  -17.6443  -30.6593   24.0582 C   0  0  0  0  0  0
  -25.9027  -34.9511   23.5136 C   0  0  0  0  0  0
  -16.5337  -29.9108   23.6325 C   0  0  0  0  0  0
  -16.7250  -28.6527   23.0351 C   0  0  0  0  0  0
  -26.4442  -31.6618   25.0708 C   0  0  0  0  0  0
  -25.3722  -31.3683   26.1455 C   0  0  0  0  0  0
  -27.0273  -30.3099   24.5999 C   0  0  0  0  0  0
  -27.6016  -32.4329   25.7466 C   0  0  0  0  0  0
  -27.5577  -37.1797   24.8458 C   0  0  0  0  0  0
  -21.4108  -29.3019   22.3765 N   0  0  0  0  0  0
  -26.4276  -37.3819   23.9431 N   0  0  0  0  0  0
  -24.6574  -31.0881   22.0999 N   0  0  0  0  0  0
  -23.4184  -28.8223   23.3047 O   0  0  0  0  0  0
  -28.3900  -26.7509   20.0108 O   0  0  0  0  0  0
  -26.5602  -34.8940   22.4715 O   0  0  0  0  0  0
  -23.5290  -32.1449   23.7581 O   0  0  0  0  0  0
  -31.1412  -22.5341   17.3908 C   0  0  0  0  0  0
  -31.9286  -22.1022   19.6486 C   0  0  0  0  0  0
  -30.9916  -23.9006   17.7060 C   0  0  0  0  0  0
  -31.7807  -23.4642   19.9616 C   0  0  0  0  0  0
  -31.5755  -21.6120   18.3761 C   0  0  0  0  0  0
  -31.2867  -24.3730   19.0072 C   0  0  0  0  0  0
  -30.1396  -16.7983   20.2915 C   0  0  0  0  0  0
  -29.3205  -16.9312   18.9824 C   0  0  0  0  0  0
  -30.7237  -18.2288   17.3541 C   0  0  0  0  0  0
  -31.1247  -19.6706   17.0039 C   0  0  0  0  0  0
  -30.3317  -26.5714   18.6542 C   0  0  0  0  0  0
  -29.5662  -27.4658   19.6362 C   0  0  0  0  0  0
  -29.9497  -15.4670   20.8773 N   0  0  0  0  0  0
  -29.5480  -18.2067   18.2639 N   0  3  0  0  0  0
  -31.6698  -20.2494   18.1890 O   0  0  0  0  0  0
  -31.1376  -25.6775   19.4200 O   0  0  0  0  0  0
  -31.4487  -12.3234   19.1445 H   0  0  0  0  0  0
  -30.2584  -11.2472   19.8020 H   0  0  0  0  0  0
  -29.7314  -11.8070   17.4063 H   0  0  0  0  0  0
  -29.7028  -13.5060   17.7985 H   0  0  0  0  0  0
  -27.7660  -11.3559   18.7184 H   0  0  0  0  0  0
  -27.3868  -12.7544   17.7515 H   0  0  0  0  0  0
  -27.6990  -14.2648   19.6050 H   0  0  0  0  0  0
  -28.6319  -11.9238   21.3273 H   0  0  0  0  0  0
  -28.4538  -13.5678   21.8721 H   0  0  0  0  0  0
  -25.2712   -9.5767   22.4734 H   0  0  0  0  0  0
  -23.9937   -7.4690   22.7456 H   0  0  0  0  0  0
  -21.0758   -8.8650   19.9018 H   0  0  0  0  0  0
  -22.3501  -10.9552   19.6135 H   0  0  0  0  0  0
  -21.1995   -7.6128   23.9694 H   0  0  0  0  0  0
  -21.1457   -6.0569   25.9062 H   0  0  0  0  0  0
  -22.0607   -2.7594   23.2940 H   0  0  0  0  0  0
  -22.4035  -11.9876   22.4926 H   0  0  0  0  0  0
  -21.1067  -13.1218   22.2538 H   0  0  0  0  0  0
  -24.6473  -15.8317   20.5635 H   0  0  0  0  0  0
  -26.2777  -15.6539   20.1614 H   0  0  0  0  0  0
  -26.7082  -32.5592   23.1173 H   0  0  0  0  0  0
  -24.9997  -33.9813   25.0467 H   0  0  0  0  0  0
  -22.6799  -31.3121   21.4193 H   0  0  0  0  0  0
  -23.3766  -35.9606   23.3281 H   0  0  0  0  0  0
  -24.3580  -36.8945   22.2054 H   0  0  0  0  0  0
  -23.7177  -37.6488   23.6665 H   0  0  0  0  0  0
  -26.0029  -31.6222   20.5766 H   0  0  0  0  0  0
  -26.8098  -30.9272   21.9561 H   0  0  0  0  0  0
  -28.0885  -29.1848   21.1414 H   0  0  0  0  0  0
  -26.0891  -25.9809   19.0549 H   0  0  0  0  0  0
  -23.9747  -27.2737   19.0799 H   0  0  0  0  0  0
  -23.7034  -30.6023   19.4086 H   0  0  0  0  0  0
  -22.7218  -29.2458   19.8756 H   0  0  0  0  0  0
  -25.1269  -36.1989   25.0842 H   0  0  0  0  0  0
  -20.9946  -28.3201   24.1470 H   0  0  0  0  0  0
  -20.5654  -26.2256   23.3612 H   0  0  0  0  0  0
  -21.6618  -26.7452   22.1209 H   0  0  0  0  0  0
  -19.6882  -25.6321   21.1231 H   0  0  0  0  0  0
  -19.6673  -27.3237   20.6776 H   0  0  0  0  0  0
  -17.4178  -26.6702   21.4029 H   0  0  0  0  0  0
  -18.0297  -26.0066   22.9026 H   0  0  0  0  0  0
  -19.7925  -30.7249   24.2329 H   0  0  0  0  0  0
  -17.5007  -31.6276   24.5169 H   0  0  0  0  0  0
  -15.5339  -30.3022   23.7635 H   0  0  0  0  0  0
  -15.8648  -28.0863   22.7033 H   0  0  0  0  0  0
  -24.5910  -30.7022   25.7774 H   0  0  0  0  0  0
  -24.8891  -32.2822   26.4918 H   0  0  0  0  0  0
  -25.8080  -30.8835   27.0201 H   0  0  0  0  0  0
  -26.2798  -29.6868   24.1094 H   0  0  0  0  0  0
  -27.4145  -29.7307   25.4382 H   0  0  0  0  0  0
  -27.8557  -30.4466   23.9058 H   0  0  0  0  0  0
  -27.2653  -33.3641   26.2034 H   0  0  0  0  0  0
  -28.3833  -32.6879   25.0300 H   0  0  0  0  0  0
  -28.0677  -31.8465   26.5393 H   0  0  0  0  0  0
  -28.2566  -38.0128   24.7606 H   0  0  0  0  0  0
  -28.1117  -36.2683   24.6174 H   0  0  0  0  0  0
  -27.2325  -37.1294   25.8863 H   0  0  0  0  0  0
  -20.9265  -29.8745   21.6987 H   0  0  0  0  0  0
  -26.0176  -38.2882   24.1502 H   0  0  0  0  0  0
  -30.9038  -22.2269   16.3825 H   0  0  0  0  0  0
  -32.2958  -21.4219   20.4048 H   0  0  0  0  0  0
  -30.6527  -24.5668   16.9274 H   0  0  0  0  0  0
  -32.0331  -23.8104   20.9540 H   0  0  0  0  0  0
  -29.8296  -17.5533   21.0172 H   0  0  0  0  0  0
  -31.1957  -16.9983   20.1001 H   0  0  0  0  0  0
  -28.2594  -16.8697   19.2226 H   0  0  0  0  0  0
  -29.5124  -16.0905   18.3112 H   0  0  0  0  0  0
  -31.5757  -17.7007   17.7838 H   0  0  0  0  0  0
  -30.4639  -17.6982   16.4391 H   0  0  0  0  0  0
  -30.2460  -20.1921   16.6224 H   0  0  0  0  0  0
  -31.8872  -19.6956   16.2212 H   0  0  0  0  0  0
  -30.9810  -27.1728   18.0158 H   0  0  0  0  0  0
  -29.6005  -26.0818   18.0072 H   0  0  0  0  0  0
  -29.3292  -28.4067   19.1330 H   0  0  0  0  0  0
  -30.1701  -27.7105   20.5102 H   0  0  0  0  0  0
  -29.0566  -15.2729   21.3050 H   0  0  0  0  0  0
  -29.6183  -18.9611   18.9313 H   0  0  0  0  0  0
  -28.7280  -18.3938   17.7073 H   0  0  0  0  0  0
  1 25  1  0  0  0
  1 30  2  0  0  0
  1 83  1  0  0  0
  2  3  1  0  0  0
  2 25  1  0  0  0
  2 87  1  0  0  0
  2 88  1  0  0  0
  3  4  1  0  0  0
  3 89  1  0  0  0
  3 90  1  0  0  0
  4  5  1  0  0  0
  4 91  1  0  0  0
  4 92  1  0  0  0
  5  6  1  0  0  0
  5 26  1  0  0  0
  5 93  1  0  0  0
  6 25  1  0  0  0
  6 94  1  0  0  0
  6 95  1  0  0  0
  7  8  2  0  0  0
  7 26  1  0  0  0
  7 29  1  0  0  0
  8  9  1  0  0  0
  8 22  1  0  0  0
  9 10  1  0  0  0
  9 27  2  0  0  0
 10 11  2  0  0  0
 10 15  1  0  0  0
 11 12  1  0  0  0
 11 96  1  0  0  0
 12 13  2  0  0  0
 12 97  1  0  0  0
 13 14  1  0  0  0
 13 31  1  0  0  0
 14 15  2  0  0  0
 14 98  1  0  0  0
 15 99  1  0  0  0
 16 17  2  0  0  0
 16 21  1  0  0  0
 16 31  1  0  0  0
 17 18  1  0  0  0
 17100  1  0  0  0
 18 19  2  0  0  0
 18101  1  0  0  0
 19 20  1  0  0  0
 19 24  1  0  0  0
 20 21  2  0  0  0
 20102  1  0  0  0
 21 23  1  0  0  0
 22 28  1  0  0  0
 22 32  2  0  0  0
 26 27  1  0  0  0
 28103  1  0  0  0
 28104  1  0  0  0
 29105  1  0  0  0
 29106  1  0  0  0
 33 34  1  0  0  0
 33 66  1  0  0  0
 33 70  2  0  0  0
 34 36  1  0  0  0
 34 59  1  0  0  0
 34107  1  0  0  0
 35 44  2  0  0  0
 35 45  1  0  0  0
 35 68  1  0  0  0
 36 56  1  0  0  0
 36108  1  0  0  0
 37 39  1  0  0  0
 37 47  1  0  0  0
 37 66  1  0  0  0
 37109  1  0  0  0
 38 43  2  0  0  0
 38 46  1  0  0  0
 38 47  1  0  0  0
 39 64  1  0  0  0
 39 67  2  0  0  0
 40 52  1  0  0  0
 40 53  2  0  0  0
 40 58  1  0  0  0
 41110  1  0  0  0
 41111  1  0  0  0
 41112  1  0  0  0
 41 48  1  0  0  0
 42 43  1  0  0  0
 42 66  1  0  0  0
 42113  1  0  0  0
 42114  1  0  0  0
 43 44  1  0  0  0
 44115  1  0  0  0
 45 46  2  0  0  0
 45116  1  0  0  0
 46117  1  0  0  0
 47118  1  0  0  0
 47119  1  0  0  0
 48 56  1  0  0  0
 48 65  1  0  0  0
 48120  1  0  0  0
 49 50  1  0  0  0
 49 53  1  0  0  0
 49 64  1  0  0  0
 49121  1  0  0  0
 50 51  1  0  0  0
 50122  1  0  0  0
 50123  1  0  0  0
 51 52  1  0  0  0
 51124  1  0  0  0
 51125  1  0  0  0
 52126  1  0  0  0
 52127  1  0  0  0
 53 54  1  0  0  0
 54 55  2  0  0  0
 54128  1  0  0  0
 55 57  1  0  0  0
 55129  1  0  0  0
 56 69  2  0  0  0
 57 58  2  0  0  0
 57130  1  0  0  0
 58131  1  0  0  0
 59 60  1  0  0  0
 59 61  1  0  0  0
 59 62  1  0  0  0
 60132  1  0  0  0
 60133  1  0  0  0
 60134  1  0  0  0
 61135  1  0  0  0
 61136  1  0  0  0
 61137  1  0  0  0
 62138  1  0  0  0
 62139  1  0  0  0
 62140  1  0  0  0
 63 65  1  0  0  0
 63141  1  0  0  0
 63142  1  0  0  0
 63143  1  0  0  0
 64144  1  0  0  0
 65145  1  0  0  0
 68 82  1  0  0  0
 71 73  2  0  0  0
 71 75  1  0  0  0
 71146  1  0  0  0
 72 74  1  0  0  0
 72 75  2  0  0  0
 72147  1  0  0  0
 73 76  1  0  0  0
 73148  1  0  0  0
 74 76  2  0  0  0
 74149  1  0  0  0
 75 85  1  0  0  0
 76 86  1  0  0  0
 77 78  1  0  0  0
 77 83  1  0  0  0
 77150  1  0  0  0
 77151  1  0  0  0
 78 84  1  0  0  0
 78152  1  0  0  0
 78153  1  0  0  0
 79 80  1  0  0  0
 79 84  1  0  0  0
 79154  1  0  0  0
 79155  1  0  0  0
 80 85  1  0  0  0
 80156  1  0  0  0
 80157  1  0  0  0
 81 82  1  0  0  0
 81 86  1  0  0  0
 81158  1  0  0  0
 81159  1  0  0  0
 82160  1  0  0  0
 82161  1  0  0  0
 83162  1  0  0  0
 84163  1  0  0  0
 84164  1  0  0  0
M  CHG  1  84   1
M  ISO  4   1 100  68 101  82 101  83 100
M  END
> <chiral flag>
0

> <version>
0

> <s_m_source_file>
/data/baiqing/PycharmProjects/Reinvent-master-3.2/result/LINK_invent/BTK/process_docking_weight1_custom_sum_contain_oxygen_bond_distance_aromatic_linkinvent_7_9_3/rearranged_h_0131.sdf

> <i_m_source_file_index>
76

> <r_mmod_Potential_Energy-OPLS-2005>
-238.1328125

> <r_mmod_Stretch_Energy-OPLS-2005>
33.2333488464355

> <r_mmod_Bend_Energy-OPLS-2005>
108.098777770996

> <r_mmod_Torsional_Energy-OPLS-2005>
235.249404907227

> <r_mmod_Improper_Torsional_Energy-OPLS-2005>
8.53096675872803

> <r_mmod_Van_der_Waal_Energy-OPLS-2005>
160.399780273438

> <r_mmod_Electrostatic_Energy-OPLS-2005>
-315.540069580078

> <r_mmod_Solvation_Energy-OPLS-2005>
-477.802673339844

> <b_mmod_Minimization_Converged-OPLS-2005>
0

> <r_mmod_RMS_Derivative-OPLS-2005>
6.43223428726196

$$$$
76
                    3D
 Structure written by MMmdl.
155163  0  0  1  0            999 V2000
  -30.6229  -14.6511   20.4933 C   0  0  0  0  0  0
  -30.4293  -12.3986   19.4530 C   0  0  0  0  0  0
  -29.5009  -12.5054   18.2235 C   0  0  0  0  0  0
  -28.0266  -12.3354   18.6414 C   0  0  0  0  0  0
  -27.6459  -13.2191   19.8589 C   0  0  2  0  0  0
  -28.6896  -13.0962   20.9892 C   0  0  0  0  0  0
  -25.2516  -13.8166   20.5664 C   0  0  0  0  0  0
  -24.1801  -13.0420   20.9175 C   0  0  0  0  0  0
  -24.6381  -11.6895   20.8740 C   0  0  0  0  0  0
  -23.9045  -10.4279   21.0416 C   0  0  0  0  0  0
  -24.3605   -9.4204   21.9197 C   0  0  0  0  0  0
  -23.6288   -8.2237   22.0762 C   0  0  0  0  0  0
  -22.4277   -8.0265   21.3546 C   0  0  0  0  0  0
  -21.9902   -9.0233   20.4648 C   0  0  0  0  0  0
  -22.7222  -10.2119   20.3062 C   0  0  0  0  0  0
  -21.6848   -6.0724   22.5277 C   0  0  0  0  0  0
  -21.4012   -6.5633   23.8208 C   0  0  0  0  0  0
  -21.3660   -5.6792   24.9174 C   0  0  0  0  0  0
  -21.6055   -4.3056   24.7230 C   0  0  0  0  0  0
  -21.8812   -3.8145   23.4347 C   0  0  0  0  0  0
  -21.9190   -4.6957   22.3400 C   0  0  0  0  0  0
  -22.7831  -13.5219   21.1861 C   0  0  0  0  0  0
  -22.1661   -4.2139   21.0977 F   0  0  0  0  0  0
  -21.5632   -3.4543   25.7741 F   0  0  0  0  0  0
  -29.9984  -13.4340   20.4123 N   0  0  0  0  0  0
  -26.2951  -12.9360   20.3323 N   0  0  0  0  0  0
  -25.9313  -11.6508   20.5760 N   0  0  0  0  0  0
  -22.0489  -12.8196   22.0413 N   0  0  0  0  0  0
  -25.4188  -15.1888   20.4029 N   0  0  0  0  0  0
  -31.8063  -14.7851   20.1705 O   0  0  0  0  0  0
  -21.6638   -6.8873   21.4244 O   0  0  0  0  0  0
  -22.3514  -14.5532   20.6727 O   0  0  0  0  0  0
  -24.6291  -31.8574   23.2026 C   0  0  0  0  0  0
  -25.9136  -32.4755   23.8352 C   0  0  1  0  0  0
  -27.2146  -27.2981   20.1087 C   0  0  0  0  0  0
  -25.5959  -33.8554   24.2283 N   0  0  0  0  0  0
  -23.4208  -30.4864   21.5425 C   0  0  2  0  0  0
  -24.8641  -28.9405   20.1074 C   0  0  0  0  0  0
  -22.7473  -29.4612   22.4886 C   0  0  0  0  0  0
  -18.0290  -28.1392   22.8468 C   0  0  0  0  0  0
  -24.1477  -36.7255   23.2618 C   0  0  0  0  0  0
  -25.9641  -30.7831   21.3738 C   0  0  0  0  0  0
  -26.0346  -29.4083   20.7160 C   0  0  0  0  0  0
  -27.2081  -28.5965   20.7114 C   0  0  0  0  0  0
  -26.0089  -26.8769   19.4997 C   0  0  0  0  0  0
  -24.8547  -27.6800   19.4920 C   0  0  0  0  0  0
  -23.6375  -29.8283   20.1554 C   0  0  0  0  0  0
  -25.4087  -36.3039   24.0331 C   0  0  1  0  0  0
  -20.5888  -28.3678   23.1268 C   0  0  2  0  0  0
  -20.6773  -26.9395   22.5393 C   0  0  0  0  0  0
  -19.5750  -26.6384   21.5196 C   0  0  0  0  0  0
  -18.1929  -26.7940   22.1604 C   0  0  0  0  0  0
  -19.1545  -28.8863   23.2870 C   0  0  0  0  0  0
  -18.9480  -30.1467   23.8885 C   0  0  0  0  0  0
  -17.6474  -30.6594   24.0563 C   0  0  0  0  0  0
  -25.9058  -34.9430   23.5099 C   0  0  0  0  0  0
  -16.5365  -29.9084   23.6355 C   0  0  0  0  0  0
  -16.7278  -28.6516   23.0344 C   0  0  0  0  0  0
  -26.4539  -31.6562   25.0727 C   0  0  0  0  0  0
  -25.3776  -31.3634   26.1465 C   0  0  0  0  0  0
  -27.0397  -30.3008   24.6150 C   0  0  0  0  0  0
  -27.6137  -32.4281   25.7474 C   0  0  0  0  0  0
  -27.5632  -37.1678   24.8400 C   0  0  0  0  0  0
  -21.4187  -29.3043   22.3676 N   0  0  0  0  0  0
  -26.4205  -37.3805   23.9547 N   0  0  0  0  0  0
  -24.6908  -31.0581   22.0972 N   0  0  0  0  0  0
  -23.4201  -28.8144   23.2956 O   0  0  0  0  0  0
  -28.3319  -26.4463   20.1876 O   0  0  0  0  0  0
  -26.5607  -34.8914   22.4653 O   0  0  0  0  0  0
  -23.5461  -32.1379   23.7342 O   0  0  0  0  0  0
  -29.2264  -22.8194   18.9448 C   0  0  0  0  0  0
  -29.4044  -21.4464   19.2939 C   0  0  0  0  0  0
  -28.2845  -23.2938   21.0964 C   0  0  0  0  0  0
  -28.6813  -23.7919   19.8294 C   0  0  0  0  0  0
  -28.4428  -21.9115   21.4519 C   0  0  0  0  0  0
  -29.0341  -20.9509   20.5688 C   0  0  0  0  0  0
  -27.9433  -21.4579   22.8124 C   0  0  0  0  0  0
  -28.4841  -25.2697   19.3016 C   0  0  0  0  0  0
  -29.5590  -18.3665   20.2071 C   0  0  0  0  0  0
  -30.2271  -17.1711   21.0412 C   0  0  0  0  0  0
  -29.2393  -19.5937   21.0058 N   0  0  0  0  0  0
  -29.8354  -15.7404   20.7677 N   0  0  0  0  0  0
  -31.4730  -12.5166   19.1557 H   0  0  0  0  0  0
  -30.3550  -11.4076   19.9055 H   0  0  0  0  0  0
  -29.7683  -11.7540   17.4792 H   0  0  0  0  0  0
  -29.6364  -13.4760   17.7435 H   0  0  0  0  0  0
  -27.8768  -11.2844   18.8913 H   0  0  0  0  0  0
  -27.3651  -12.5455   17.7994 H   0  0  0  0  0  0
  -27.6568  -14.2498   19.5054 H   0  0  0  0  0  0
  -28.7045  -12.0816   21.3916 H   0  0  0  0  0  0
  -28.4384  -13.7465   21.8293 H   0  0  0  0  0  0
  -25.2751   -9.5678   22.4769 H   0  0  0  0  0  0
  -23.9990   -7.4636   22.7498 H   0  0  0  0  0  0
  -21.0830   -8.8755   19.8960 H   0  0  0  0  0  0
  -22.3687  -10.9658   19.6165 H   0  0  0  0  0  0
  -21.2000   -7.6142   23.9704 H   0  0  0  0  0  0
  -21.1498   -6.0528   25.9072 H   0  0  0  0  0  0
  -22.0591   -2.7603   23.2853 H   0  0  0  0  0  0
  -22.4107  -11.9823   22.4734 H   0  0  0  0  0  0
  -21.1130  -13.1238   22.2693 H   0  0  0  0  0  0
  -24.6391  -15.8324   20.4813 H   0  0  0  0  0  0
  -26.2569  -15.6281   20.0448 H   0  0  0  0  0  0
  -26.7199  -32.5421   23.1087 H   0  0  0  0  0  0
  -25.0213  -33.9698   25.0494 H   0  0  0  0  0  0
  -22.7152  -31.3086   21.4023 H   0  0  0  0  0  0
  -23.3807  -35.9500   23.3080 H   0  0  0  0  0  0
  -24.3630  -36.9071   22.2078 H   0  0  0  0  0  0
  -23.7117  -37.6347   23.6759 H   0  0  0  0  0  0
  -26.0950  -31.5408   20.6009 H   0  0  0  0  0  0
  -26.8467  -30.8340   21.9991 H   0  0  0  0  0  0
  -28.1067  -28.9470   21.2007 H   0  0  0  0  0  0
  -25.9041  -25.8977   19.0598 H   0  0  0  0  0  0
  -23.9500  -27.3129   19.0272 H   0  0  0  0  0  0
  -23.7653  -30.6129   19.4089 H   0  0  0  0  0  0
  -22.7529  -29.2694   19.8438 H   0  0  0  0  0  0
  -25.1198  -36.1820   25.0790 H   0  0  0  0  0  0
  -20.9991  -28.3249   24.1377 H   0  0  0  0  0  0
  -20.5670  -26.2257   23.3576 H   0  0  0  0  0  0
  -21.6640  -26.7407   22.1187 H   0  0  0  0  0  0
  -19.6901  -25.6292   21.1231 H   0  0  0  0  0  0
  -19.6723  -27.3187   20.6724 H   0  0  0  0  0  0
  -17.4184  -26.6697   21.4014 H   0  0  0  0  0  0
  -18.0347  -26.0068   22.9002 H   0  0  0  0  0  0
  -19.7949  -30.7315   24.2211 H   0  0  0  0  0  0
  -17.5020  -31.6273   24.5167 H   0  0  0  0  0  0
  -15.5365  -30.2978   23.7700 H   0  0  0  0  0  0
  -15.8672  -28.0860   22.7023 H   0  0  0  0  0  0
  -24.6062  -30.6823   25.7822 H   0  0  0  0  0  0
  -24.8826  -32.2732   26.4859 H   0  0  0  0  0  0
  -25.8163  -30.8909   27.0260 H   0  0  0  0  0  0
  -26.2954  -29.6706   24.1268 H   0  0  0  0  0  0
  -27.4244  -29.7304   25.4612 H   0  0  0  0  0  0
  -27.8736  -30.4330   23.9252 H   0  0  0  0  0  0
  -27.2859  -33.3662   26.1940 H   0  0  0  0  0  0
  -28.4008  -32.6670   25.0305 H   0  0  0  0  0  0
  -28.0712  -31.8428   26.5458 H   0  0  0  0  0  0
  -28.2285  -38.0310   24.7997 H   0  0  0  0  0  0
  -28.1475  -36.2934   24.5512 H   0  0  0  0  0  0
  -27.2468  -37.0435   25.8766 H   0  0  0  0  0  0
  -20.9340  -29.8796   21.6929 H   0  0  0  0  0  0
  -26.0044  -38.2757   24.1925 H   0  0  0  0  0  0
  -29.5231  -23.1338   17.9537 H   0  0  0  0  0  0
  -29.8394  -20.7823   18.5596 H   0  0  0  0  0  0
  -27.8369  -23.9787   21.8015 H   0  0  0  0  0  0
  -27.3581  -22.2340   23.3079 H   0  0  0  0  0  0
  -28.7842  -21.1959   23.4551 H   0  0  0  0  0  0
  -27.3023  -20.5804   22.7071 H   0  0  0  0  0  0
  -27.7492  -25.2338   18.5009 H   0  0  0  0  0  0
  -29.4089  -25.4834   18.7668 H   0  0  0  0  0  0
  -28.6314  -18.0205   19.7497 H   0  0  0  0  0  0
  -30.2177  -18.6318   19.3785 H   0  0  0  0  0  0
  -29.9850  -17.3164   22.0947 H   0  0  0  0  0  0
  -31.3143  -17.2651   20.9963 H   0  0  0  0  0  0
  -28.9166  -19.3971   21.9484 H   0  0  0  0  0  0
  -28.8660  -15.5206   20.9378 H   0  0  0  0  0  0
  1 25  1  0  0  0
  1 30  2  0  0  0
  1 82  1  0  0  0
  2  3  1  0  0  0
  2 25  1  0  0  0
  2 83  1  0  0  0
  2 84  1  0  0  0
  3  4  1  0  0  0
  3 85  1  0  0  0
  3 86  1  0  0  0
  4  5  1  0  0  0
  4 87  1  0  0  0
  4 88  1  0  0  0
  5  6  1  0  0  0
  5 26  1  0  0  0
  5 89  1  0  0  0
  6 25  1  0  0  0
  6 90  1  0  0  0
  6 91  1  0  0  0
  7  8  2  0  0  0
  7 26  1  0  0  0
  7 29  1  0  0  0
  8  9  1  0  0  0
  8 22  1  0  0  0
  9 10  1  0  0  0
  9 27  2  0  0  0
 10 11  2  0  0  0
 10 15  1  0  0  0
 11 12  1  0  0  0
 11 92  1  0  0  0
 12 13  2  0  0  0
 12 93  1  0  0  0
 13 14  1  0  0  0
 13 31  1  0  0  0
 14 15  2  0  0  0
 14 94  1  0  0  0
 15 95  1  0  0  0
 16 17  2  0  0  0
 16 21  1  0  0  0
 16 31  1  0  0  0
 17 18  1  0  0  0
 17 96  1  0  0  0
 18 19  2  0  0  0
 18 97  1  0  0  0
 19 20  1  0  0  0
 19 24  1  0  0  0
 20 21  2  0  0  0
 20 98  1  0  0  0
 21 23  1  0  0  0
 22 28  1  0  0  0
 22 32  2  0  0  0
 26 27  1  0  0  0
 28 99  1  0  0  0
 28100  1  0  0  0
 29101  1  0  0  0
 29102  1  0  0  0
 33 34  1  0  0  0
 33 66  1  0  0  0
 33 70  2  0  0  0
 34 36  1  0  0  0
 34 59  1  0  0  0
 34103  1  0  0  0
 35 44  2  0  0  0
 35 45  1  0  0  0
 35 68  1  0  0  0
 36 56  1  0  0  0
 36104  1  0  0  0
 37 39  1  0  0  0
 37 47  1  0  0  0
 37 66  1  0  0  0
 37105  1  0  0  0
 38 43  2  0  0  0
 38 46  1  0  0  0
 38 47  1  0  0  0
 39 64  1  0  0  0
 39 67  2  0  0  0
 40 52  1  0  0  0
 40 53  2  0  0  0
 40 58  1  0  0  0
 41106  1  0  0  0
 41107  1  0  0  0
 41108  1  0  0  0
 41 48  1  0  0  0
 42 43  1  0  0  0
 42 66  1  0  0  0
 42109  1  0  0  0
 42110  1  0  0  0
 43 44  1  0  0  0
 44111  1  0  0  0
 45 46  2  0  0  0
 45112  1  0  0  0
 46113  1  0  0  0
 47114  1  0  0  0
 47115  1  0  0  0
 48 56  1  0  0  0
 48 65  1  0  0  0
 48116  1  0  0  0
 49 50  1  0  0  0
 49 53  1  0  0  0
 49 64  1  0  0  0
 49117  1  0  0  0
 50 51  1  0  0  0
 50118  1  0  0  0
 50119  1  0  0  0
 51 52  1  0  0  0
 51120  1  0  0  0
 51121  1  0  0  0
 52122  1  0  0  0
 52123  1  0  0  0
 53 54  1  0  0  0
 54 55  2  0  0  0
 54124  1  0  0  0
 55 57  1  0  0  0
 55125  1  0  0  0
 56 69  2  0  0  0
 57 58  2  0  0  0
 57126  1  0  0  0
 58127  1  0  0  0
 59 60  1  0  0  0
 59 61  1  0  0  0
 59 62  1  0  0  0
 60128  1  0  0  0
 60129  1  0  0  0
 60130  1  0  0  0
 61131  1  0  0  0
 61132  1  0  0  0
 61133  1  0  0  0
 62134  1  0  0  0
 62135  1  0  0  0
 62136  1  0  0  0
 63 65  1  0  0  0
 63137  1  0  0  0
 63138  1  0  0  0
 63139  1  0  0  0
 64140  1  0  0  0
 65141  1  0  0  0
 68 78  1  0  0  0
 71 72  2  0  0  0
 71 74  1  0  0  0
 71142  1  0  0  0
 72 76  1  0  0  0
 72143  1  0  0  0
 73 74  2  0  0  0
 73 75  1  0  0  0
 73144  1  0  0  0
 74 78  1  0  0  0
 75 76  2  0  0  0
 75 77  1  0  0  0
 76 81  1  0  0  0
 77145  1  0  0  0
 77146  1  0  0  0
 77147  1  0  0  0
 78148  1  0  0  0
 78149  1  0  0  0
 79 80  1  0  0  0
 79 81  1  0  0  0
 79150  1  0  0  0
 79151  1  0  0  0
 80 82  1  0  0  0
 80152  1  0  0  0
 80153  1  0  0  0
 81154  1  0  0  0
 82155  1  0  0  0
M  ISO  4   1 100  68 101  78 101  82 100
M  END
> <chiral flag>
0

> <version>
0

> <s_m_source_file>
/data/baiqing/PycharmProjects/Reinvent-master-3.2/result/LINK_invent/BTK/process_docking_weight1_custom_sum_contain_oxygen_bond_distance_aromatic_linkinvent_7_9_3/rearranged_h_0131.sdf

> <i_m_source_file_index>
77

> <r_mmod_Potential_Energy-OPLS-2005>
2.75107836723328

> <r_mmod_Stretch_Energy-OPLS-2005>
82.9481582641602

> <r_mmod_Bend_Energy-OPLS-2005>
169.712844848633

> <r_mmod_Torsional_Energy-OPLS-2005>
206.219131469727

> <r_mmod_Improper_Torsional_Energy-OPLS-2005>
5.20110940933228

> <r_mmod_Van_der_Waal_Energy-OPLS-2005>
144.788864135742

> <r_mmod_Electrostatic_Energy-OPLS-2005>
-444.659606933594

> <r_mmod_Solvation_Energy-OPLS-2005>
-218.855834960938

> <b_mmod_Minimization_Converged-OPLS-2005>
0

> <r_mmod_RMS_Derivative-OPLS-2005>
3.17561507225037

$$$$
77
                    3D
 Structure written by MMmdl.
162170  0  0  1  0            999 V2000
  -30.7018  -14.4632   20.6079 C   0  0  0  0  0  0
  -30.4290  -12.3169   19.4102 C   0  0  0  0  0  0
  -29.4920  -12.5123   18.2004 C   0  0  0  0  0  0
  -28.0149  -12.3658   18.6176 C   0  0  0  0  0  0
  -27.6632  -13.2020   19.8766 C   0  0  2  0  0  0
  -28.7058  -12.9677   20.9927 C   0  0  0  0  0  0
  -25.2596  -13.8147   20.5675 C   0  0  0  0  0  0
  -24.1842  -13.0432   20.9176 C   0  0  0  0  0  0
  -24.6389  -11.6897   20.8733 C   0  0  0  0  0  0
  -23.9054  -10.4287   21.0405 C   0  0  0  0  0  0
  -24.3609   -9.4203   21.9183 C   0  0  0  0  0  0
  -23.6287   -8.2239   22.0754 C   0  0  0  0  0  0
  -22.4269   -8.0278   21.3544 C   0  0  0  0  0  0
  -21.9902   -9.0250   20.4645 C   0  0  0  0  0  0
  -22.7229  -10.2129   20.3053 C   0  0  0  0  0  0
  -21.6848   -6.0733   22.5278 C   0  0  0  0  0  0
  -21.4013   -6.5637   23.8213 C   0  0  0  0  0  0
  -21.3658   -5.6791   24.9176 C   0  0  0  0  0  0
  -21.6045   -4.3054   24.7227 C   0  0  0  0  0  0
  -21.8819   -3.8144   23.4348 C   0  0  0  0  0  0
  -21.9194   -4.6960   22.3402 C   0  0  0  0  0  0
  -22.7867  -13.5236   21.1844 C   0  0  0  0  0  0
  -22.1662   -4.2147   21.0980 F   0  0  0  0  0  0
  -21.5629   -3.4537   25.7739 F   0  0  0  0  0  0
  -30.0369  -13.2868   20.4441 N   0  0  0  0  0  0
  -26.3029  -12.9305   20.3369 N   0  0  0  0  0  0
  -25.9314  -11.6468   20.5767 N   0  0  0  0  0  0
  -22.0506  -12.8227   22.0398 N   0  0  0  0  0  0
  -25.4333  -15.1863   20.4074 N   0  0  0  0  0  0
  -31.8033  -14.6955   20.1034 O   0  0  0  0  0  0
  -21.6636   -6.8874   21.4241 O   0  0  0  0  0  0
  -22.3559  -14.5551   20.6705 O   0  0  0  0  0  0
  -24.6177  -31.8681   23.2116 C   0  0  0  0  0  0
  -25.9060  -32.4824   23.8408 C   0  0  1  0  0  0
  -27.2240  -27.4098   20.0818 C   0  0  0  0  0  0
  -25.5907  -33.8622   24.2334 N   0  0  0  0  0  0
  -23.4047  -30.4967   21.5547 C   0  0  2  0  0  0
  -24.8459  -28.9680   20.1140 C   0  0  0  0  0  0
  -22.7424  -29.4669   22.4989 C   0  0  0  0  0  0
  -18.0270  -28.1374   22.8492 C   0  0  0  0  0  0
  -24.1485  -36.7319   23.2634 C   0  0  0  0  0  0
  -25.9399  -30.8240   21.3712 C   0  0  0  0  0  0
  -26.0119  -29.4595   20.7131 C   0  0  0  0  0  0
  -27.2004  -28.6873   20.6984 C   0  0  0  0  0  0
  -26.0305  -26.9534   19.4665 C   0  0  0  0  0  0
  -24.8511  -27.7133   19.4905 C   0  0  0  0  0  0
  -23.6117  -29.8385   20.1669 C   0  0  0  0  0  0
  -25.4101  -36.3113   24.0340 C   0  0  1  0  0  0
  -20.5866  -28.3669   23.1311 C   0  0  2  0  0  0
  -20.6765  -26.9405   22.5412 C   0  0  0  0  0  0
  -19.5743  -26.6388   21.5208 C   0  0  0  0  0  0
  -18.1920  -26.7921   22.1621 C   0  0  0  0  0  0
  -19.1522  -28.8837   23.2897 C   0  0  0  0  0  0
  -18.9448  -30.1443   23.8905 C   0  0  0  0  0  0
  -17.6451  -30.6581   24.0566 C   0  0  0  0  0  0
  -25.9032  -34.9477   23.5130 C   0  0  0  0  0  0
  -16.5340  -29.9085   23.6327 C   0  0  0  0  0  0
  -16.7261  -28.6502   23.0349 C   0  0  0  0  0  0
  -26.4471  -31.6601   25.0739 C   0  0  0  0  0  0
  -25.3731  -31.3705   26.1485 C   0  0  0  0  0  0
  -27.0305  -30.3040   24.6126 C   0  0  0  0  0  0
  -27.6051  -32.4321   25.7490 C   0  0  0  0  0  0
  -27.5586  -37.1801   24.8457 C   0  0  0  0  0  0
  -21.4151  -29.3039   22.3722 N   0  0  0  0  0  0
  -26.4286  -37.3801   23.9420 N   0  0  0  0  0  0
  -24.6729  -31.0768   22.1034 N   0  0  0  0  0  0
  -23.4190  -28.8193   23.3027 O   0  0  0  0  0  0
  -28.3904  -26.6505   20.1087 O   0  0  0  0  0  0
  -26.5599  -34.8928   22.4695 O   0  0  0  0  0  0
  -23.5362  -32.1446   23.7494 O   0  0  0  0  0  0
  -28.5288  -25.1840   18.1488 C   0  0  0  0  0  0
  -29.3506  -24.3216   20.3543 C   0  0  0  0  0  0
  -28.2823  -23.7549   17.6165 C   0  0  0  0  0  0
  -28.3294  -25.2714   19.6693 C   0  0  1  0  0  0
  -29.5091  -22.9254   19.6413 C   0  0  1  0  0  0
  -29.6603  -21.7329   20.6484 C   0  0  0  0  0  0
  -30.4465  -16.7853   21.6001 C   0  0  0  0  0  0
  -29.8847  -20.3138   20.0306 C   0  0  0  0  0  0
  -29.9731  -17.8492   20.5689 C   0  0  0  0  0  0
  -30.0255  -15.4097   21.2821 N   0  0  0  0  0  0
  -28.4176  -22.6990   18.6537 N   0  3  0  0  0  0
  -30.1909  -19.2509   21.0325 N   0  3  0  0  0  0
  -31.4703  -12.4327   19.1041 H   0  0  0  0  0  0
  -30.3454  -11.3010   19.7996 H   0  0  0  0  0  0
  -29.7317  -11.7907   17.4181 H   0  0  0  0  0  0
  -29.6535  -13.4999   17.7652 H   0  0  0  0  0  0
  -27.8300  -11.3090   18.8137 H   0  0  0  0  0  0
  -27.3600  -12.6391   17.7891 H   0  0  0  0  0  0
  -27.7122  -14.2521   19.5871 H   0  0  0  0  0  0
  -28.6857  -11.9250   21.3139 H   0  0  0  0  0  0
  -28.4586  -13.5441   21.8849 H   0  0  0  0  0  0
  -25.2756   -9.5679   22.4756 H   0  0  0  0  0  0
  -23.9998   -7.4630   22.7470 H   0  0  0  0  0  0
  -21.0837   -8.8766   19.8950 H   0  0  0  0  0  0
  -22.3689  -10.9667   19.6162 H   0  0  0  0  0  0
  -21.2003   -7.6145   23.9717 H   0  0  0  0  0  0
  -21.1481   -6.0520   25.9080 H   0  0  0  0  0  0
  -22.0599   -2.7608   23.2848 H   0  0  0  0  0  0
  -22.4114  -11.9873   22.4765 H   0  0  0  0  0  0
  -21.1128  -13.1255   22.2615 H   0  0  0  0  0  0
  -24.6668  -15.8426   20.5096 H   0  0  0  0  0  0
  -26.2846  -15.6203   20.0738 H   0  0  0  0  0  0
  -26.7132  -32.5531   23.1172 H   0  0  0  0  0  0
  -25.0065  -33.9782   25.0484 H   0  0  0  0  0  0
  -22.6936  -31.3149   21.4203 H   0  0  0  0  0  0
  -23.3745  -35.9653   23.3293 H   0  0  0  0  0  0
  -24.3583  -36.8939   22.2049 H   0  0  0  0  0  0
  -23.7233  -37.6521   23.6651 H   0  0  0  0  0  0
  -26.0591  -31.5905   20.6045 H   0  0  0  0  0  0
  -26.8266  -30.8721   21.9921 H   0  0  0  0  0  0
  -28.0975  -29.0619   21.1720 H   0  0  0  0  0  0
  -25.9654  -26.0096   18.9486 H   0  0  0  0  0  0
  -23.9556  -27.3321   19.0184 H   0  0  0  0  0  0
  -23.7217  -30.6182   19.4120 H   0  0  0  0  0  0
  -22.7330  -29.2645   19.8675 H   0  0  0  0  0  0
  -25.1266  -36.1978   25.0832 H   0  0  0  0  0  0
  -20.9947  -28.3233   24.1437 H   0  0  0  0  0  0
  -20.5671  -26.2277   23.3599 H   0  0  0  0  0  0
  -21.6638  -26.7454   22.1203 H   0  0  0  0  0  0
  -19.6908  -25.6303   21.1228 H   0  0  0  0  0  0
  -19.6682  -27.3210   20.6746 H   0  0  0  0  0  0
  -17.4195  -26.6671   21.4019 H   0  0  0  0  0  0
  -18.0315  -26.0055   22.9008 H   0  0  0  0  0  0
  -19.7926  -30.7253   24.2280 H   0  0  0  0  0  0
  -17.5009  -31.6261   24.5172 H   0  0  0  0  0  0
  -15.5340  -30.2990   23.7652 H   0  0  0  0  0  0
  -15.8659  -28.0830   22.7056 H   0  0  0  0  0  0
  -24.5919  -30.7031   25.7827 H   0  0  0  0  0  0
  -24.8901  -32.2855   26.4925 H   0  0  0  0  0  0
  -25.8084  -30.8892   27.0252 H   0  0  0  0  0  0
  -26.2859  -29.6794   24.1179 H   0  0  0  0  0  0
  -27.4067  -29.7282   25.4592 H   0  0  0  0  0  0
  -27.8695  -30.4354   23.9289 H   0  0  0  0  0  0
  -27.2685  -33.3630   26.2069 H   0  0  0  0  0  0
  -28.3849  -32.6868   25.0299 H   0  0  0  0  0  0
  -28.0729  -31.8443   26.5399 H   0  0  0  0  0  0
  -28.2579  -38.0123   24.7552 H   0  0  0  0  0  0
  -28.1110  -36.2661   24.6224 H   0  0  0  0  0  0
  -27.2317  -37.1375   25.8861 H   0  0  0  0  0  0
  -20.9310  -29.8797   21.6976 H   0  0  0  0  0  0
  -26.0177  -38.2877   24.1441 H   0  0  0  0  0  0
  -27.8833  -25.8834   17.6171 H   0  0  0  0  0  0
  -29.5485  -25.4906   17.9103 H   0  0  0  0  0  0
  -29.0487  -24.1848   21.3934 H   0  0  0  0  0  0
  -30.3275  -24.8046   20.3965 H   0  0  0  0  0  0
  -28.9751  -23.5520   16.7986 H   0  0  0  0  0  0
  -27.2814  -23.6835   17.1892 H   0  0  0  0  0  0
  -27.3637  -24.8479   19.9457 H   0  0  0  0  0  0
  -30.4293  -22.9699   19.0549 H   0  0  0  0  0  0
  -28.7832  -21.7010   21.2966 H   0  0  0  0  0  0
  -30.5013  -21.9616   21.3042 H   0  0  0  0  0  0
  -30.0334  -17.0209   22.5818 H   0  0  0  0  0  0
  -31.5314  -16.8268   21.7115 H   0  0  0  0  0  0
  -30.6940  -20.3424   19.2994 H   0  0  0  0  0  0
  -28.9866  -20.0218   19.4855 H   0  0  0  0  0  0
  -28.9104  -17.7139   20.3625 H   0  0  0  0  0  0
  -30.4971  -17.6963   19.6240 H   0  0  0  0  0  0
  -29.1250  -15.1224   21.6372 H   0  0  0  0  0  0
  -28.5596  -21.8336   18.1575 H   0  0  0  0  0  0
  -27.5360  -22.6153   19.1357 H   0  0  0  0  0  0
  -29.6117  -19.3960   21.8437 H   0  0  0  0  0  0
  -31.1499  -19.3525   21.3251 H   0  0  0  0  0  0
  1 25  1  0  0  0
  1 30  2  0  0  0
  1 80  1  0  0  0
  2  3  1  0  0  0
  2 25  1  0  0  0
  2 83  1  0  0  0
  2 84  1  0  0  0
  3  4  1  0  0  0
  3 85  1  0  0  0
  3 86  1  0  0  0
  4  5  1  0  0  0
  4 87  1  0  0  0
  4 88  1  0  0  0
  5  6  1  0  0  0
  5 26  1  0  0  0
  5 89  1  0  0  0
  6 25  1  0  0  0
  6 90  1  0  0  0
  6 91  1  0  0  0
  7  8  2  0  0  0
  7 26  1  0  0  0
  7 29  1  0  0  0
  8  9  1  0  0  0
  8 22  1  0  0  0
  9 10  1  0  0  0
  9 27  2  0  0  0
 10 11  2  0  0  0
 10 15  1  0  0  0
 11 12  1  0  0  0
 11 92  1  0  0  0
 12 13  2  0  0  0
 12 93  1  0  0  0
 13 14  1  0  0  0
 13 31  1  0  0  0
 14 15  2  0  0  0
 14 94  1  0  0  0
 15 95  1  0  0  0
 16 17  2  0  0  0
 16 21  1  0  0  0
 16 31  1  0  0  0
 17 18  1  0  0  0
 17 96  1  0  0  0
 18 19  2  0  0  0
 18 97  1  0  0  0
 19 20  1  0  0  0
 19 24  1  0  0  0
 20 21  2  0  0  0
 20 98  1  0  0  0
 21 23  1  0  0  0
 22 28  1  0  0  0
 22 32  2  0  0  0
 26 27  1  0  0  0
 28 99  1  0  0  0
 28100  1  0  0  0
 29101  1  0  0  0
 29102  1  0  0  0
 33 34  1  0  0  0
 33 66  1  0  0  0
 33 70  2  0  0  0
 34 36  1  0  0  0
 34 59  1  0  0  0
 34103  1  0  0  0
 35 44  2  0  0  0
 35 45  1  0  0  0
 35 68  1  0  0  0
 36 56  1  0  0  0
 36104  1  0  0  0
 37 39  1  0  0  0
 37 47  1  0  0  0
 37 66  1  0  0  0
 37105  1  0  0  0
 38 43  2  0  0  0
 38 46  1  0  0  0
 38 47  1  0  0  0
 39 64  1  0  0  0
 39 67  2  0  0  0
 40 52  1  0  0  0
 40 53  2  0  0  0
 40 58  1  0  0  0
 41106  1  0  0  0
 41107  1  0  0  0
 41108  1  0  0  0
 41 48  1  0  0  0
 42 43  1  0  0  0
 42 66  1  0  0  0
 42109  1  0  0  0
 42110  1  0  0  0
 43 44  1  0  0  0
 44111  1  0  0  0
 45 46  2  0  0  0
 45112  1  0  0  0
 46113  1  0  0  0
 47114  1  0  0  0
 47115  1  0  0  0
 48 56  1  0  0  0
 48 65  1  0  0  0
 48116  1  0  0  0
 49 50  1  0  0  0
 49 53  1  0  0  0
 49 64  1  0  0  0
 49117  1  0  0  0
 50 51  1  0  0  0
 50118  1  0  0  0
 50119  1  0  0  0
 51 52  1  0  0  0
 51120  1  0  0  0
 51121  1  0  0  0
 52122  1  0  0  0
 52123  1  0  0  0
 53 54  1  0  0  0
 54 55  2  0  0  0
 54124  1  0  0  0
 55 57  1  0  0  0
 55125  1  0  0  0
 56 69  2  0  0  0
 57 58  2  0  0  0
 57126  1  0  0  0
 58127  1  0  0  0
 59 60  1  0  0  0
 59 61  1  0  0  0
 59 62  1  0  0  0
 60128  1  0  0  0
 60129  1  0  0  0
 60130  1  0  0  0
 61131  1  0  0  0
 61132  1  0  0  0
 61133  1  0  0  0
 62134  1  0  0  0
 62135  1  0  0  0
 62136  1  0  0  0
 63 65  1  0  0  0
 63137  1  0  0  0
 63138  1  0  0  0
 63139  1  0  0  0
 64140  1  0  0  0
 65141  1  0  0  0
 68 74  1  0  0  0
 71 73  1  0  0  0
 71 74  1  0  0  0
 71142  1  0  0  0
 71143  1  0  0  0
 72 74  1  0  0  0
 72 75  1  0  0  0
 72144  1  0  0  0
 72145  1  0  0  0
 73 81  1  0  0  0
 73146  1  0  0  0
 73147  1  0  0  0
 74148  1  0  0  0
 75 76  1  0  0  0
 75 81  1  0  0  0
 75149  1  0  0  0
 76 78  1  0  0  0
 76150  1  0  0  0
 76151  1  0  0  0
 77 79  1  0  0  0
 77 80  1  0  0  0
 77152  1  0  0  0
 77153  1  0  0  0
 78 82  1  0  0  0
 78154  1  0  0  0
 78155  1  0  0  0
 79 82  1  0  0  0
 79156  1  0  0  0
 79157  1  0  0  0
 80158  1  0  0  0
 81159  1  0  0  0
 81160  1  0  0  0
 82161  1  0  0  0
 82162  1  0  0  0
M  CHG  2  81   1  82   1
M  ISO  4   1 100  68 101  74 101  80 100
M  END
> <chiral flag>
0

> <version>
0

> <s_m_source_file>
/data/baiqing/PycharmProjects/Reinvent-master-3.2/result/LINK_invent/BTK/process_docking_weight1_custom_sum_contain_oxygen_bond_distance_aromatic_linkinvent_7_9_3/rearranged_h_0131.sdf

> <i_m_source_file_index>
78

> <r_mmod_Potential_Energy-OPLS-2005>
-392.159301757812

> <r_mmod_Stretch_Energy-OPLS-2005>
44.1233024597168

> <r_mmod_Bend_Energy-OPLS-2005>
105.787811279297

> <r_mmod_Torsional_Energy-OPLS-2005>
252.617156982422

> <r_mmod_Improper_Torsional_Energy-OPLS-2005>
2.47357439994812

> <r_mmod_Van_der_Waal_Energy-OPLS-2005>
145.749053955078

> <r_mmod_Electrostatic_Energy-OPLS-2005>
78.3724365234375

> <r_mmod_Solvation_Energy-OPLS-2005>
-1035.37963867188

> <b_mmod_Minimization_Converged-OPLS-2005>
0

> <r_mmod_RMS_Derivative-OPLS-2005>
0.866377592086792

$$$$
78
                    3D
 Structure written by MMmdl.
164173  0  0  1  0            999 V2000
  -30.5036  -15.0006   20.3064 C   0  0  0  0  0  0
  -30.4412  -12.5930   19.4812 C   0  0  0  0  0  0
  -29.5110  -12.4810   18.2506 C   0  0  0  0  0  0
  -28.0507  -12.2671   18.6901 C   0  0  0  0  0  0
  -27.6222  -13.2381   19.8203 C   0  0  2  0  0  0
  -28.6769  -13.3039   20.9459 C   0  0  0  0  0  0
  -25.2446  -13.8200   20.5714 C   0  0  0  0  0  0
  -24.1759  -13.0426   20.9257 C   0  0  0  0  0  0
  -24.6362  -11.6923   20.8770 C   0  0  0  0  0  0
  -23.9039  -10.4287   21.0411 C   0  0  0  0  0  0
  -24.3591   -9.4207   21.9189 C   0  0  0  0  0  0
  -23.6278   -8.2235   22.0756 C   0  0  0  0  0  0
  -22.4264   -8.0264   21.3535 C   0  0  0  0  0  0
  -21.9896   -9.0236   20.4641 C   0  0  0  0  0  0
  -22.7218  -10.2118   20.3060 C   0  0  0  0  0  0
  -21.6846   -6.0732   22.5277 C   0  0  0  0  0  0
  -21.3994   -6.5630   23.8219 C   0  0  0  0  0  0
  -21.3660   -5.6783   24.9180 C   0  0  0  0  0  0
  -21.6044   -4.3049   24.7238 C   0  0  0  0  0  0
  -21.8819   -3.8141   23.4360 C   0  0  0  0  0  0
  -21.9188   -4.6952   22.3398 C   0  0  0  0  0  0
  -22.7780  -13.5195   21.1898 C   0  0  0  0  0  0
  -22.1660   -4.2123   21.0984 F   0  0  0  0  0  0
  -21.5627   -3.4539   25.7766 F   0  0  0  0  0  0
  -29.9396  -13.7209   20.3234 N   0  0  0  0  0  0
  -26.2861  -12.9419   20.3234 N   0  0  0  0  0  0
  -25.9277  -11.6558   20.5766 N   0  0  0  0  0  0
  -22.0429  -12.8166   22.0464 N   0  0  0  0  0  0
  -25.4107  -15.1934   20.4125 N   0  0  0  0  0  0
  -31.7159  -15.0611   20.0732 O   0  0  0  0  0  0
  -21.6634   -6.8859   21.4237 O   0  0  0  0  0  0
  -22.3445  -14.5501   20.6751 O   0  0  0  0  0  0
  -24.6513  -31.8380   23.1815 C   0  0  0  0  0  0
  -25.9249  -32.4668   23.8216 C   0  0  1  0  0  0
  -27.2095  -27.0789   20.1423 C   0  0  0  0  0  0
  -25.5986  -33.8479   24.2131 N   0  0  0  0  0  0
  -23.4568  -30.4540   21.5318 C   0  0  2  0  0  0
  -24.9062  -28.8721   20.1129 C   0  0  0  0  0  0
  -22.7606  -29.4542   22.4867 C   0  0  0  0  0  0
  -18.0313  -28.1406   22.8502 C   0  0  0  0  0  0
  -24.1481  -36.7200   23.2645 C   0  0  0  0  0  0
  -26.0163  -30.6957   21.3869 C   0  0  0  0  0  0
  -26.0905  -29.2985   20.7303 C   0  0  0  0  0  0
  -27.2479  -28.4215   20.7203 C   0  0  0  0  0  0
  -25.9947  -26.7590   19.5075 C   0  0  0  0  0  0
  -24.8725  -27.6138   19.4892 C   0  0  0  0  0  0
  -23.6862  -29.7815   20.1530 C   0  0  0  0  0  0
  -25.4126  -36.2974   24.0285 C   0  0  1  0  0  0
  -20.5930  -28.3712   23.1221 C   0  0  2  0  0  0
  -20.6793  -26.9410   22.5398 C   0  0  0  0  0  0
  -19.5760  -26.6396   21.5215 C   0  0  0  0  0  0
  -18.1945  -26.7963   22.1630 C   0  0  0  0  0  0
  -19.1578  -28.8880   23.2839 C   0  0  0  0  0  0
  -18.9503  -30.1478   23.8854 C   0  0  0  0  0  0
  -17.6498  -30.6598   24.0570 C   0  0  0  0  0  0
  -25.9102  -34.9374   23.4997 C   0  0  0  0  0  0
  -16.5384  -29.9099   23.6336 C   0  0  0  0  0  0
  -16.7305  -28.6516   23.0371 C   0  0  0  0  0  0
  -26.4540  -31.6569   25.0681 C   0  0  0  0  0  0
  -25.3707  -31.3748   26.1338 C   0  0  0  0  0  0
  -27.0448  -30.2987   24.6286 C   0  0  0  0  0  0
  -27.6052  -32.4340   25.7489 C   0  0  0  0  0  0
  -27.5537  -37.1742   24.8469 C   0  0  0  0  0  0
  -21.4292  -29.3027   22.3597 N   0  0  0  0  0  0
  -26.4264  -37.3707   23.9403 N   0  0  0  0  0  0
  -24.7295  -31.0169   22.0889 N   0  0  0  0  0  0
  -23.4208  -28.8067   23.3037 O   0  0  0  0  0  0
  -28.2344  -26.0494   20.0904 O   0  0  0  0  0  0
  -26.5706  -34.8909   22.4586 O   0  0  0  0  0  0
  -23.5623  -32.1309   23.6981 O   0  0  0  0  0  0
  -28.3731  -21.1526   18.6869 C   0  0  0  0  0  0
  -28.1389  -22.5885   18.7415 C   0  0  0  0  0  0
  -28.7785  -20.6369   19.9006 C   0  0  0  0  0  0
  -28.3917  -23.1148   19.9920 C   0  0  0  0  0  0
  -33.0925  -20.8403   22.7628 C   0  0  0  0  0  0
  -33.0533  -20.6202   21.2511 C   0  0  0  0  0  0
  -31.6263  -21.0340   23.1698 C   0  0  0  0  0  0
  -31.7293  -21.2204   20.7708 C   0  0  0  0  0  0
  -31.0163  -21.8220   22.0047 C   0  0  0  0  0  0
  -28.9228  -19.0447   20.4240 C   0  0  0  0  0  0
  -28.0041  -24.6021   20.6746 C   0  0  0  0  0  0
  -29.4543  -21.8957   22.0052 C   0  0  0  0  0  0
  -29.8777  -17.7219   19.8873 C   0  0  0  0  0  0
  -28.8841  -21.8955   20.6618 N   0  0  0  0  0  0
  -29.6862  -16.1808   20.3109 N   0  0  0  0  0  0
  -31.4687  -12.7489   19.1483 H   0  0  0  0  0  0
  -30.4581  -11.6566   20.0444 H   0  0  0  0  0  0
  -29.8242  -11.6583   17.6050 H   0  0  0  0  0  0
  -29.5818  -13.3875   17.6522 H   0  0  0  0  0  0
  -27.9650  -11.2396   19.0519 H   0  0  0  0  0  0
  -27.3742  -12.3411   17.8384 H   0  0  0  0  0  0
  -27.5751  -14.2223   19.3526 H   0  0  0  0  0  0
  -28.7765  -12.3383   21.4422 H   0  0  0  0  0  0
  -28.3859  -14.0206   21.7136 H   0  0  0  0  0  0
  -25.2726   -9.5686   22.4777 H   0  0  0  0  0  0
  -23.9986   -7.4621   22.7476 H   0  0  0  0  0  0
  -21.0827   -8.8740   19.8945 H   0  0  0  0  0  0
  -22.3666  -10.9647   19.6171 H   0  0  0  0  0  0
  -21.1990   -7.6149   23.9706 H   0  0  0  0  0  0
  -21.1467   -6.0531   25.9083 H   0  0  0  0  0  0
  -22.0601   -2.7601   23.2881 H   0  0  0  0  0  0
  -22.4062  -11.9822   22.4822 H   0  0  0  0  0  0
  -21.1052  -13.1175   22.2682 H   0  0  0  0  0  0
  -24.6380  -15.8426   20.5244 H   0  0  0  0  0  0
  -26.2500  -15.6379   20.0619 H   0  0  0  0  0  0
  -26.7329  -32.5253   23.0957 H   0  0  0  0  0  0
  -25.0079  -33.9577   25.0239 H   0  0  0  0  0  0
  -22.7632  -31.2838   21.3736 H   0  0  0  0  0  0
  -23.3748  -35.9525   23.3333 H   0  0  0  0  0  0
  -24.3537  -36.8840   22.2052 H   0  0  0  0  0  0
  -23.7259  -37.6392   23.6726 H   0  0  0  0  0  0
  -26.1734  -31.4523   20.6161 H   0  0  0  0  0  0
  -26.8848  -30.7516   22.0309 H   0  0  0  0  0  0
  -28.1618  -28.7506   21.1971 H   0  0  0  0  0  0
  -25.9053  -25.7955   19.0249 H   0  0  0  0  0  0
  -23.9681  -27.2821   18.9945 H   0  0  0  0  0  0
  -23.8252  -30.5579   19.3989 H   0  0  0  0  0  0
  -22.7992  -29.2269   19.8439 H   0  0  0  0  0  0
  -25.1318  -36.1759   25.0777 H   0  0  0  0  0  0
  -21.0011  -28.3353   24.1354 H   0  0  0  0  0  0
  -20.5726  -26.2342   23.3641 H   0  0  0  0  0  0
  -21.6666  -26.7465   22.1175 H   0  0  0  0  0  0
  -19.6940  -25.6309   21.1261 H   0  0  0  0  0  0
  -19.6713  -27.3212   20.6740 H   0  0  0  0  0  0
  -17.4229  -26.6719   21.4027 H   0  0  0  0  0  0
  -18.0300  -26.0093   22.8999 H   0  0  0  0  0  0
  -19.7990  -30.7272   24.2247 H   0  0  0  0  0  0
  -17.5080  -31.6299   24.5144 H   0  0  0  0  0  0
  -15.5393  -30.2982   23.7717 H   0  0  0  0  0  0
  -15.8708  -28.0834   22.7097 H   0  0  0  0  0  0
  -24.5954  -30.7036   25.7628 H   0  0  0  0  0  0
  -24.8793  -32.2907   26.4630 H   0  0  0  0  0  0
  -25.7919  -30.9024   27.0221 H   0  0  0  0  0  0
  -26.3111  -29.6661   24.1287 H   0  0  0  0  0  0
  -27.4062  -29.7298   25.4853 H   0  0  0  0  0  0
  -27.8983  -30.4212   23.9615 H   0  0  0  0  0  0
  -27.2704  -33.3745   26.1881 H   0  0  0  0  0  0
  -28.3971  -32.6732   25.0382 H   0  0  0  0  0  0
  -28.0615  -31.8594   26.5562 H   0  0  0  0  0  0
  -28.2535  -38.0049   24.7492 H   0  0  0  0  0  0
  -28.1038  -36.2554   24.6341 H   0  0  0  0  0  0
  -27.2228  -37.1439   25.8867 H   0  0  0  0  0  0
  -20.9536  -29.8752   21.6758 H   0  0  0  0  0  0
  -26.0091  -38.2741   24.1494 H   0  0  0  0  0  0
  -28.1862  -20.5379   17.8165 H   0  0  0  0  0  0
  -27.7434  -23.1703   17.9179 H   0  0  0  0  0  0
  -33.6675  -21.7424   22.9833 H   0  0  0  0  0  0
  -33.5699  -20.0092   23.2850 H   0  0  0  0  0  0
  -33.0540  -19.5496   21.0398 H   0  0  0  0  0  0
  -33.9134  -21.0497   20.7369 H   0  0  0  0  0  0
  -31.5152  -21.5374   24.1323 H   0  0  0  0  0  0
  -31.1425  -20.0598   23.2491 H   0  0  0  0  0  0
  -31.1847  -20.3892   20.3457 H   0  0  0  0  0  0
  -31.8560  -21.9580   19.9792 H   0  0  0  0  0  0
  -31.3768  -22.8486   22.0834 H   0  0  0  0  0  0
  -27.9033  -18.6605   20.3258 H   0  0  0  0  0  0
  -29.0731  -19.0854   21.5025 H   0  0  0  0  0  0
  -28.5202  -24.6549   21.6286 H   0  0  0  0  0  0
  -26.9544  -24.5416   20.9733 H   0  0  0  0  0  0
  -29.1396  -22.7932   22.5309 H   0  0  0  0  0  0
  -29.0102  -21.0800   22.5773 H   0  0  0  0  0  0
  -30.9220  -17.9814   20.0767 H   0  0  0  0  0  0
  -29.7985  -17.7040   18.7964 H   0  0  0  0  0  0
  -28.7154  -15.9410   20.4621 H   0  0  0  0  0  0
  1 25  1  0  0  0
  1 30  2  0  0  0
  1 85  1  0  0  0
  2  3  1  0  0  0
  2 25  1  0  0  0
  2 86  1  0  0  0
  2 87  1  0  0  0
  3  4  1  0  0  0
  3 88  1  0  0  0
  3 89  1  0  0  0
  4  5  1  0  0  0
  4 90  1  0  0  0
  4 91  1  0  0  0
  5  6  1  0  0  0
  5 26  1  0  0  0
  5 92  1  0  0  0
  6 25  1  0  0  0
  6 93  1  0  0  0
  6 94  1  0  0  0
  7  8  2  0  0  0
  7 26  1  0  0  0
  7 29  1  0  0  0
  8  9  1  0  0  0
  8 22  1  0  0  0
  9 10  1  0  0  0
  9 27  2  0  0  0
 10 11  2  0  0  0
 10 15  1  0  0  0
 11 12  1  0  0  0
 11 95  1  0  0  0
 12 13  2  0  0  0
 12 96  1  0  0  0
 13 14  1  0  0  0
 13 31  1  0  0  0
 14 15  2  0  0  0
 14 97  1  0  0  0
 15 98  1  0  0  0
 16 17  2  0  0  0
 16 21  1  0  0  0
 16 31  1  0  0  0
 17 18  1  0  0  0
 17 99  1  0  0  0
 18 19  2  0  0  0
 18100  1  0  0  0
 19 20  1  0  0  0
 19 24  1  0  0  0
 20 21  2  0  0  0
 20101  1  0  0  0
 21 23  1  0  0  0
 22 28  1  0  0  0
 22 32  2  0  0  0
 26 27  1  0  0  0
 28102  1  0  0  0
 28103  1  0  0  0
 29104  1  0  0  0
 29105  1  0  0  0
 33 34  1  0  0  0
 33 66  1  0  0  0
 33 70  2  0  0  0
 34 36  1  0  0  0
 34 59  1  0  0  0
 34106  1  0  0  0
 35 44  2  0  0  0
 35 45  1  0  0  0
 35 68  1  0  0  0
 36 56  1  0  0  0
 36107  1  0  0  0
 37 39  1  0  0  0
 37 47  1  0  0  0
 37 66  1  0  0  0
 37108  1  0  0  0
 38 43  2  0  0  0
 38 46  1  0  0  0
 38 47  1  0  0  0
 39 64  1  0  0  0
 39 67  2  0  0  0
 40 52  1  0  0  0
 40 53  2  0  0  0
 40 58  1  0  0  0
 41109  1  0  0  0
 41110  1  0  0  0
 41111  1  0  0  0
 41 48  1  0  0  0
 42 43  1  0  0  0
 42 66  1  0  0  0
 42112  1  0  0  0
 42113  1  0  0  0
 43 44  1  0  0  0
 44114  1  0  0  0
 45 46  2  0  0  0
 45115  1  0  0  0
 46116  1  0  0  0
 47117  1  0  0  0
 47118  1  0  0  0
 48 56  1  0  0  0
 48 65  1  0  0  0
 48119  1  0  0  0
 49 50  1  0  0  0
 49 53  1  0  0  0
 49 64  1  0  0  0
 49120  1  0  0  0
 50 51  1  0  0  0
 50121  1  0  0  0
 50122  1  0  0  0
 51 52  1  0  0  0
 51123  1  0  0  0
 51124  1  0  0  0
 52125  1  0  0  0
 52126  1  0  0  0
 53 54  1  0  0  0
 54 55  2  0  0  0
 54127  1  0  0  0
 55 57  1  0  0  0
 55128  1  0  0  0
 56 69  2  0  0  0
 57 58  2  0  0  0
 57129  1  0  0  0
 58130  1  0  0  0
 59 60  1  0  0  0
 59 61  1  0  0  0
 59 62  1  0  0  0
 60131  1  0  0  0
 60132  1  0  0  0
 60133  1  0  0  0
 61134  1  0  0  0
 61135  1  0  0  0
 61136  1  0  0  0
 62137  1  0  0  0
 62138  1  0  0  0
 62139  1  0  0  0
 63 65  1  0  0  0
 63140  1  0  0  0
 63141  1  0  0  0
 63142  1  0  0  0
 64143  1  0  0  0
 65144  1  0  0  0
 68 81  1  0  0  0
 71 72  1  0  0  0
 71 73  2  0  0  0
 71145  1  0  0  0
 72 74  2  0  0  0
 72146  1  0  0  0
 73 80  1  0  0  0
 73 84  1  0  0  0
 74 81  1  0  0  0
 74 84  1  0  0  0
 75 76  1  0  0  0
 75 77  1  0  0  0
 75147  1  0  0  0
 75148  1  0  0  0
 76 78  1  0  0  0
 76149  1  0  0  0
 76150  1  0  0  0
 77 79  1  0  0  0
 77151  1  0  0  0
 77152  1  0  0  0
 78 79  1  0  0  0
 78153  1  0  0  0
 78154  1  0  0  0
 79 82  1  0  0  0
 79155  1  0  0  0
 80 83  1  0  0  0
 80156  1  0  0  0
 80157  1  0  0  0
 81158  1  0  0  0
 81159  1  0  0  0
 82 84  1  0  0  0
 82160  1  0  0  0
 82161  1  0  0  0
 83 85  1  0  0  0
 83162  1  0  0  0
 83163  1  0  0  0
 85164  1  0  0  0
M  ISO  4   1 100  68 101  81 101  85 100
M  END
> <chiral flag>
0

> <version>
0

> <s_m_source_file>
/data/baiqing/PycharmProjects/Reinvent-master-3.2/result/LINK_invent/BTK/process_docking_weight1_custom_sum_contain_oxygen_bond_distance_aromatic_linkinvent_7_9_3/rearranged_h_0131.sdf

> <i_m_source_file_index>
79

> <r_mmod_Potential_Energy-OPLS-2005>
801.265808105469

> <r_mmod_Stretch_Energy-OPLS-2005>
333.493133544922

> <r_mmod_Bend_Energy-OPLS-2005>
344.554412841797

> <r_mmod_Torsional_Energy-OPLS-2005>
318.222351074219

> <r_mmod_Improper_Torsional_Energy-OPLS-2005>
7.39208602905273

> <r_mmod_Van_der_Waal_Energy-OPLS-2005>
108.744071960449

> <r_mmod_Electrostatic_Energy-OPLS-2005>
-339.403594970703

> <r_mmod_Solvation_Energy-OPLS-2005>
-215.123062133789

> <b_mmod_Minimization_Converged-OPLS-2005>
0

> <r_mmod_RMS_Derivative-OPLS-2005>
6.97785139083862

$$$$
79
                    3D
 Structure written by MMmdl.
165173  0  0  1  0            999 V2000
  -30.6292  -14.7603   20.4851 C   0  0  0  0  0  0
  -30.4510  -12.4827   19.4722 C   0  0  0  0  0  0
  -29.5292  -12.5034   18.2304 C   0  0  0  0  0  0
  -28.0540  -12.3371   18.6463 C   0  0  0  0  0  0
  -27.6520  -13.2397   19.8457 C   0  0  2  0  0  0
  -28.7006  -13.1978   20.9847 C   0  0  0  0  0  0
  -25.2598  -13.8256   20.5728 C   0  0  0  0  0  0
  -24.1849  -13.0463   20.9176 C   0  0  0  0  0  0
  -24.6467  -11.6966   20.8736 C   0  0  0  0  0  0
  -23.9152  -10.4305   21.0399 C   0  0  0  0  0  0
  -24.3660   -9.4218   21.9190 C   0  0  0  0  0  0
  -23.6276   -8.2294   22.0770 C   0  0  0  0  0  0
  -22.4265   -8.0333   21.3572 C   0  0  0  0  0  0
  -21.9928   -9.0328   20.4680 C   0  0  0  0  0  0
  -22.7307  -10.2184   20.3071 C   0  0  0  0  0  0
  -21.6859   -6.0750   22.5290 C   0  0  0  0  0  0
  -21.4004   -6.5640   23.8227 C   0  0  0  0  0  0
  -21.3628   -5.6790   24.9193 C   0  0  0  0  0  0
  -21.6037   -4.3057   24.7241 C   0  0  0  0  0  0
  -21.8802   -3.8147   23.4363 C   0  0  0  0  0  0
  -21.9178   -4.6967   22.3419 C   0  0  0  0  0  0
  -22.7881  -13.5266   21.1794 C   0  0  0  0  0  0
  -22.1651   -4.2150   21.0999 F   0  0  0  0  0  0
  -21.5623   -3.4521   25.7755 F   0  0  0  0  0  0
  -30.0021  -13.5377   20.4093 N   0  0  0  0  0  0
  -26.3048  -12.9456   20.3311 N   0  0  0  0  0  0
  -25.9409  -11.6615   20.5775 N   0  0  0  0  0  0
  -22.0439  -12.8313   22.0347 N   0  0  0  0  0  0
  -25.4251  -15.1982   20.4153 N   0  0  0  0  0  0
  -31.7966  -14.8888   20.1158 O   0  0  0  0  0  0
  -21.6618   -6.8926   21.4274 O   0  0  0  0  0  0
  -22.3609  -14.5561   20.6610 O   0  0  0  0  0  0
  -24.6338  -31.8507   23.1918 C   0  0  0  0  0  0
  -25.9159  -32.4725   23.8282 C   0  0  1  0  0  0
  -27.2361  -27.2506   20.1294 C   0  0  0  0  0  0
  -25.5945  -33.8530   24.2217 N   0  0  0  0  0  0
  -23.4324  -30.4661   21.5317 C   0  0  2  0  0  0
  -24.8870  -28.9043   20.0974 C   0  0  0  0  0  0
  -22.7512  -29.4579   22.4866 C   0  0  0  0  0  0
  -18.0303  -28.1411   22.8460 C   0  0  0  0  0  0
  -24.1496  -36.7269   23.2633 C   0  0  0  0  0  0
  -25.9755  -30.7535   21.3761 C   0  0  0  0  0  0
  -26.0489  -29.3746   20.7195 C   0  0  0  0  0  0
  -27.2174  -28.5525   20.7361 C   0  0  0  0  0  0
  -26.0610  -26.8457   19.4652 C   0  0  0  0  0  0
  -24.8978  -27.6495   19.4588 C   0  0  0  0  0  0
  -23.6529  -29.7848   20.1502 C   0  0  0  0  0  0
  -25.4123  -36.3051   24.0314 C   0  0  1  0  0  0
  -20.5907  -28.3732   23.1238 C   0  0  2  0  0  0
  -20.6791  -26.9442   22.5392 C   0  0  0  0  0  0
  -19.5768  -26.6400   21.5194 C   0  0  0  0  0  0
  -18.1946  -26.7952   22.1601 C   0  0  0  0  0  0
  -19.1558  -28.8885   23.2844 C   0  0  0  0  0  0
  -18.9481  -30.1480   23.8874 C   0  0  0  0  0  0
  -17.6480  -30.6598   24.0570 C   0  0  0  0  0  0
  -25.9069  -34.9422   23.5069 C   0  0  0  0  0  0
  -16.5371  -29.9099   23.6339 C   0  0  0  0  0  0
  -16.7288  -28.6525   23.0340 C   0  0  0  0  0  0
  -26.4521  -31.6575   25.0693 C   0  0  0  0  0  0
  -25.3729  -31.3752   26.1405 C   0  0  0  0  0  0
  -27.0383  -30.2989   24.6213 C   0  0  0  0  0  0
  -27.6071  -32.4325   25.7467 C   0  0  0  0  0  0
  -27.5584  -37.1777   24.8453 C   0  0  0  0  0  0
  -21.4220  -29.3067   22.3620 N   0  0  0  0  0  0
  -26.4286  -37.3761   23.9417 N   0  0  0  0  0  0
  -24.6987  -31.0448   22.0889 N   0  0  0  0  0  0
  -23.4200  -28.8134   23.2987 O   0  0  0  0  0  0
  -28.3259  -26.3674   20.2961 O   0  0  0  0  0  0
  -26.5637  -34.8911   22.4642 O   0  0  0  0  0  0
  -23.5487  -32.1335   23.7195 O   0  0  0  0  0  0
  -28.4892  -22.8648   17.2998 C   0  0  0  0  0  0
  -27.6309  -23.3450   18.3291 C   0  0  0  0  0  0
  -30.1829  -22.3736   18.9744 C   0  0  0  0  0  0
  -29.8166  -22.4708   17.6160 C   0  0  0  0  0  0
  -28.2309  -23.6695   19.5714 C   0  0  0  0  0  0
  -29.1674  -22.5919   19.9268 C   0  0  0  0  0  0
  -31.1164  -23.1827   15.5568 C   0  0  0  0  0  0
  -30.4095  -20.7660   15.8186 C   0  0  0  0  0  0
  -28.7630  -21.2255   20.6617 C   0  0  0  0  0  0
  -28.6828  -25.2115   19.4163 C   0  0  0  0  0  0
  -30.2552  -17.3397   20.5319 C   0  0  0  0  0  0
  -29.2159  -18.5519   20.8200 C   0  0  0  0  0  0
  -30.8238  -22.0523   16.5449 C   0  0  0  0  0  0
  -29.8647  -15.8780   20.7764 N   0  0  0  0  0  0
  -29.6227  -19.9706   20.3773 N   0  3  0  0  0  0
  -31.4848  -12.6397   19.1650 H   0  0  0  0  0  0
  -30.4395  -11.5112   19.9681 H   0  0  0  0  0  0
  -29.8200  -11.7154   17.5305 H   0  0  0  0  0  0
  -29.6615  -13.4330   17.6779 H   0  0  0  0  0  0
  -27.9102  -11.2925   18.9277 H   0  0  0  0  0  0
  -27.4028  -12.5274   17.7945 H   0  0  0  0  0  0
  -27.6310  -14.2542   19.4506 H   0  0  0  0  0  0
  -28.7509  -12.2257   21.4669 H   0  0  0  0  0  0
  -28.4435  -13.8981   21.7812 H   0  0  0  0  0  0
  -25.2787   -9.5661   22.4809 H   0  0  0  0  0  0
  -23.9924   -7.4684   22.7500 H   0  0  0  0  0  0
  -21.0860   -8.8884   19.9026 H   0  0  0  0  0  0
  -22.3748  -10.9740   19.6203 H   0  0  0  0  0  0
  -21.2000   -7.6148   23.9698 H   0  0  0  0  0  0
  -21.1456   -6.0552   25.9090 H   0  0  0  0  0  0
  -22.0599   -2.7613   23.2859 H   0  0  0  0  0  0
  -22.3944  -12.0050   22.4944 H   0  0  0  0  0  0
  -21.1100  -13.1522   22.2361 H   0  0  0  0  0  0
  -24.6481  -15.8444   20.5139 H   0  0  0  0  0  0
  -26.2600  -15.6394   20.0483 H   0  0  0  0  0  0
  -26.7225  -32.5377   23.1019 H   0  0  0  0  0  0
  -25.0105  -33.9655   25.0372 H   0  0  0  0  0  0
  -22.7321  -31.2883   21.3729 H   0  0  0  0  0  0
  -23.3766  -35.9590   23.3267 H   0  0  0  0  0  0
  -24.3585  -36.8930   22.2052 H   0  0  0  0  0  0
  -23.7238  -37.6453   23.6687 H   0  0  0  0  0  0
  -26.1164  -31.5061   20.6000 H   0  0  0  0  0  0
  -26.8545  -30.8077   22.0073 H   0  0  0  0  0  0
  -28.0992  -28.8908   21.2628 H   0  0  0  0  0  0
  -26.0161  -25.8698   19.0044 H   0  0  0  0  0  0
  -24.0060  -27.2806   18.9738 H   0  0  0  0  0  0
  -23.7710  -30.5502   19.3826 H   0  0  0  0  0  0
  -22.7750  -29.2065   19.8553 H   0  0  0  0  0  0
  -25.1307  -36.1866   25.0800 H   0  0  0  0  0  0
  -20.9997  -28.3325   24.1359 H   0  0  0  0  0  0
  -20.5670  -26.2357   23.3607 H   0  0  0  0  0  0
  -21.6663  -26.7430   22.1209 H   0  0  0  0  0  0
  -19.6930  -25.6298   21.1261 H   0  0  0  0  0  0
  -19.6715  -27.3186   20.6702 H   0  0  0  0  0  0
  -17.4209  -26.6670   21.4013 H   0  0  0  0  0  0
  -18.0353  -26.0103   22.9010 H   0  0  0  0  0  0
  -19.7959  -30.7300   24.2228 H   0  0  0  0  0  0
  -17.5038  -31.6270   24.5192 H   0  0  0  0  0  0
  -15.5374  -30.2996   23.7681 H   0  0  0  0  0  0
  -15.8686  -28.0849   22.7052 H   0  0  0  0  0  0
  -24.5886  -30.7129   25.7724 H   0  0  0  0  0  0
  -24.8943  -32.2937   26.4816 H   0  0  0  0  0  0
  -25.8023  -30.8923   27.0189 H   0  0  0  0  0  0
  -26.2979  -29.6700   24.1255 H   0  0  0  0  0  0
  -27.4078  -29.7298   25.4753 H   0  0  0  0  0  0
  -27.8848  -30.4261   23.9458 H   0  0  0  0  0  0
  -27.2691  -33.3643   26.2009 H   0  0  0  0  0  0
  -28.3901  -32.6852   25.0306 H   0  0  0  0  0  0
  -28.0717  -31.8471   26.5410 H   0  0  0  0  0  0
  -28.2562  -38.0114   24.7562 H   0  0  0  0  0  0
  -28.1126  -36.2650   24.6206 H   0  0  0  0  0  0
  -27.2309  -37.1319   25.8854 H   0  0  0  0  0  0
  -20.9435  -29.8780   21.6794 H   0  0  0  0  0  0
  -26.0153  -38.2823   24.1455 H   0  0  0  0  0  0
  -28.1547  -22.8843   16.2668 H   0  0  0  0  0  0
  -26.7331  -23.8533   18.0055 H   0  0  0  0  0  0
  -31.0690  -21.8036   19.2189 H   0  0  0  0  0  0
  -31.3495  -24.1127   16.0735 H   0  0  0  0  0  0
  -30.2682  -23.3619   14.9007 H   0  0  0  0  0  0
  -31.9744  -22.9357   14.9311 H   0  0  0  0  0  0
  -30.3522  -19.9167   16.4989 H   0  0  0  0  0  0
  -31.1364  -20.5186   15.0454 H   0  0  0  0  0  0
  -29.4400  -20.8684   15.3359 H   0  0  0  0  0  0
  -27.7327  -21.0042   20.3718 H   0  0  0  0  0  0
  -28.7271  -21.4046   21.7387 H   0  0  0  0  0  0
  -28.4646  -25.5539   18.4010 H   0  0  0  0  0  0
  -29.7731  -25.1816   19.4404 H   0  0  0  0  0  0
  -30.5822  -17.4063   19.4962 H   0  0  0  0  0  0
  -31.1760  -17.5380   21.0827 H   0  0  0  0  0  0
  -29.0149  -18.5931   21.8900 H   0  0  0  0  0  0
  -28.2711  -18.3164   20.3322 H   0  0  0  0  0  0
  -31.7692  -21.8403   17.0457 H   0  0  0  0  0  0
  -28.9262  -15.6882   21.1026 H   0  0  0  0  0  0
  -30.5373  -20.1603   20.7527 H   0  0  0  0  0  0
  -29.7099  -19.9309   19.3753 H   0  0  0  0  0  0
  1 25  1  0  0  0
  1 30  2  0  0  0
  1 84  1  0  0  0
  2  3  1  0  0  0
  2 25  1  0  0  0
  2 86  1  0  0  0
  2 87  1  0  0  0
  3  4  1  0  0  0
  3 88  1  0  0  0
  3 89  1  0  0  0
  4  5  1  0  0  0
  4 90  1  0  0  0
  4 91  1  0  0  0
  5  6  1  0  0  0
  5 26  1  0  0  0
  5 92  1  0  0  0
  6 25  1  0  0  0
  6 93  1  0  0  0
  6 94  1  0  0  0
  7  8  2  0  0  0
  7 26  1  0  0  0
  7 29  1  0  0  0
  8  9  1  0  0  0
  8 22  1  0  0  0
  9 10  1  0  0  0
  9 27  2  0  0  0
 10 11  2  0  0  0
 10 15  1  0  0  0
 11 12  1  0  0  0
 11 95  1  0  0  0
 12 13  2  0  0  0
 12 96  1  0  0  0
 13 14  1  0  0  0
 13 31  1  0  0  0
 14 15  2  0  0  0
 14 97  1  0  0  0
 15 98  1  0  0  0
 16 17  2  0  0  0
 16 21  1  0  0  0
 16 31  1  0  0  0
 17 18  1  0  0  0
 17 99  1  0  0  0
 18 19  2  0  0  0
 18100  1  0  0  0
 19 20  1  0  0  0
 19 24  1  0  0  0
 20 21  2  0  0  0
 20101  1  0  0  0
 21 23  1  0  0  0
 22 28  1  0  0  0
 22 32  2  0  0  0
 26 27  1  0  0  0
 28102  1  0  0  0
 28103  1  0  0  0
 29104  1  0  0  0
 29105  1  0  0  0
 33 34  1  0  0  0
 33 66  1  0  0  0
 33 70  2  0  0  0
 34 36  1  0  0  0
 34 59  1  0  0  0
 34106  1  0  0  0
 35 44  2  0  0  0
 35 45  1  0  0  0
 35 68  1  0  0  0
 36 56  1  0  0  0
 36107  1  0  0  0
 37 39  1  0  0  0
 37 47  1  0  0  0
 37 66  1  0  0  0
 37108  1  0  0  0
 38 43  2  0  0  0
 38 46  1  0  0  0
 38 47  1  0  0  0
 39 64  1  0  0  0
 39 67  2  0  0  0
 40 52  1  0  0  0
 40 53  2  0  0  0
 40 58  1  0  0  0
 41109  1  0  0  0
 41110  1  0  0  0
 41111  1  0  0  0
 41 48  1  0  0  0
 42 43  1  0  0  0
 42 66  1  0  0  0
 42112  1  0  0  0
 42113  1  0  0  0
 43 44  1  0  0  0
 44114  1  0  0  0
 45 46  2  0  0  0
 45115  1  0  0  0
 46116  1  0  0  0
 47117  1  0  0  0
 47118  1  0  0  0
 48 56  1  0  0  0
 48 65  1  0  0  0
 48119  1  0  0  0
 49 50  1  0  0  0
 49 53  1  0  0  0
 49 64  1  0  0  0
 49120  1  0  0  0
 50 51  1  0  0  0
 50121  1  0  0  0
 50122  1  0  0  0
 51 52  1  0  0  0
 51123  1  0  0  0
 51124  1  0  0  0
 52125  1  0  0  0
 52126  1  0  0  0
 53 54  1  0  0  0
 54 55  2  0  0  0
 54127  1  0  0  0
 55 57  1  0  0  0
 55128  1  0  0  0
 56 69  2  0  0  0
 57 58  2  0  0  0
 57129  1  0  0  0
 58130  1  0  0  0
 59 60  1  0  0  0
 59 61  1  0  0  0
 59 62  1  0  0  0
 60131  1  0  0  0
 60132  1  0  0  0
 60133  1  0  0  0
 61134  1  0  0  0
 61135  1  0  0  0
 61136  1  0  0  0
 62137  1  0  0  0
 62138  1  0  0  0
 62139  1  0  0  0
 63 65  1  0  0  0
 63140  1  0  0  0
 63141  1  0  0  0
 63142  1  0  0  0
 64143  1  0  0  0
 65144  1  0  0  0
 68 80  1  0  0  0
 71 72  2  0  0  0
 71 74  1  0  0  0
 71145  1  0  0  0
 72 75  1  0  0  0
 72146  1  0  0  0
 73 74  2  0  0  0
 73 76  1  0  0  0
 73147  1  0  0  0
 74 83  1  0  0  0
 75 76  2  0  0  0
 75 80  1  0  0  0
 76 79  1  0  0  0
 77148  1  0  0  0
 77149  1  0  0  0
 77150  1  0  0  0
 77 83  1  0  0  0
 78 83  1  0  0  0
 78151  1  0  0  0
 78152  1  0  0  0
 78153  1  0  0  0
 79 85  1  0  0  0
 79154  1  0  0  0
 79155  1  0  0  0
 80156  1  0  0  0
 80157  1  0  0  0
 81 82  1  0  0  0
 81 84  1  0  0  0
 81158  1  0  0  0
 81159  1  0  0  0
 82 85  1  0  0  0
 82160  1  0  0  0
 82161  1  0  0  0
 83162  1  0  0  0
 84163  1  0  0  0
 85164  1  0  0  0
 85165  1  0  0  0
M  CHG  1  85   1
M  ISO  4   1 100  68 101  80 101  84 100
M  END
> <chiral flag>
0

> <version>
0

> <s_m_source_file>
/data/baiqing/PycharmProjects/Reinvent-master-3.2/result/LINK_invent/BTK/process_docking_weight1_custom_sum_contain_oxygen_bond_distance_aromatic_linkinvent_7_9_3/rearranged_h_0131.sdf

> <i_m_source_file_index>
80

> <r_mmod_Potential_Energy-OPLS-2005>
250.584289550781

> <r_mmod_Stretch_Energy-OPLS-2005>
133.327194213867

> <r_mmod_Bend_Energy-OPLS-2005>
228.110412597656

> <r_mmod_Torsional_Energy-OPLS-2005>
437.478271484375

> <r_mmod_Improper_Torsional_Energy-OPLS-2005>
43.8591232299805

> <r_mmod_Van_der_Waal_Energy-OPLS-2005>
144.127685546875

> <r_mmod_Electrostatic_Energy-OPLS-2005>
-353.440460205078

> <r_mmod_Solvation_Energy-OPLS-2005>
-481.78955078125

> <b_mmod_Minimization_Converged-OPLS-2005>
0

> <r_mmod_RMS_Derivative-OPLS-2005>
7.98432922363281

$$$$
80
                    3D
 Structure written by MMmdl.
157166  0  0  1  0            999 V2000
  -30.4968  -15.0872   20.3941 C   0  0  0  0  0  0
  -30.4390  -12.6832   19.5093 C   0  0  0  0  0  0
  -29.5267  -12.5495   18.2668 C   0  0  0  0  0  0
  -28.0651  -12.3100   18.6872 C   0  0  0  0  0  0
  -27.6202  -13.2607   19.8286 C   0  0  2  0  0  0
  -28.6597  -13.3549   20.9648 C   0  0  0  0  0  0
  -25.2424  -13.8231   20.5724 C   0  0  0  0  0  0
  -24.1758  -13.0437   20.9239 C   0  0  0  0  0  0
  -24.6395  -11.6928   20.8752 C   0  0  0  0  0  0
  -23.9083  -10.4293   21.0403 C   0  0  0  0  0  0
  -24.3630   -9.4209   21.9182 C   0  0  0  0  0  0
  -23.6302   -8.2245   22.0751 C   0  0  0  0  0  0
  -22.4283   -8.0281   21.3543 C   0  0  0  0  0  0
  -21.9922   -9.0254   20.4646 C   0  0  0  0  0  0
  -22.7251  -10.2132   20.3054 C   0  0  0  0  0  0
  -21.6858   -6.0736   22.5281 C   0  0  0  0  0  0
  -21.4019   -6.5640   23.8214 C   0  0  0  0  0  0
  -21.3658   -5.6791   24.9174 C   0  0  0  0  0  0
  -21.6045   -4.3053   24.7224 C   0  0  0  0  0  0
  -21.8818   -3.8146   23.4347 C   0  0  0  0  0  0
  -21.9194   -4.6964   22.3401 C   0  0  0  0  0  0
  -22.7779  -13.5198   21.1889 C   0  0  0  0  0  0
  -22.1664   -4.2148   21.0981 F   0  0  0  0  0  0
  -21.5624   -3.4537   25.7737 F   0  0  0  0  0  0
  -29.9157  -13.8071   20.3516 N   0  0  0  0  0  0
  -26.2846  -12.9486   20.3217 N   0  0  0  0  0  0
  -25.9328  -11.6601   20.5717 N   0  0  0  0  0  0
  -22.0436  -12.8183   22.0447 N   0  0  0  0  0  0
  -25.4056  -15.1964   20.4161 N   0  0  0  0  0  0
  -31.7119  -15.1210   20.1649 O   0  0  0  0  0  0
  -21.6645   -6.8881   21.4243 O   0  0  0  0  0  0
  -22.3458  -14.5498   20.6724 O   0  0  0  0  0  0
  -24.6521  -31.8339   23.1786 C   0  0  0  0  0  0
  -25.9250  -32.4641   23.8214 C   0  0  1  0  0  0
  -27.2186  -27.0379   20.1744 C   0  0  0  0  0  0
  -25.5959  -33.8451   24.2125 N   0  0  0  0  0  0
  -23.4609  -30.4483   21.5258 C   0  0  2  0  0  0
  -24.9120  -28.8525   20.1126 C   0  0  0  0  0  0
  -22.7608  -29.4492   22.4822 C   0  0  0  0  0  0
  -18.0313  -28.1397   22.8472 C   0  0  0  0  0  0
  -24.1494  -36.7234   23.2643 C   0  0  0  0  0  0
  -26.0223  -30.6765   21.3909 C   0  0  0  0  0  0
  -26.0917  -29.2765   20.7370 C   0  0  0  0  0  0
  -27.2432  -28.3882   20.7437 C   0  0  0  0  0  0
  -26.0134  -26.7367   19.5040 C   0  0  0  0  0  0
  -24.8914  -27.6001   19.4773 C   0  0  0  0  0  0
  -23.6930  -29.7670   20.1496 C   0  0  0  0  0  0
  -25.4130  -36.2998   24.0304 C   0  0  1  0  0  0
  -20.5929  -28.3731   23.1214 C   0  0  2  0  0  0
  -20.6791  -26.9424   22.5403 C   0  0  0  0  0  0
  -19.5768  -26.6377   21.5210 C   0  0  0  0  0  0
  -18.1949  -26.7935   22.1621 C   0  0  0  0  0  0
  -19.1571  -28.8885   23.2834 C   0  0  0  0  0  0
  -18.9483  -30.1477   23.8864 C   0  0  0  0  0  0
  -17.6478  -30.6592   24.0554 C   0  0  0  0  0  0
  -25.9086  -34.9378   23.5031 C   0  0  0  0  0  0
  -16.5369  -29.9081   23.6339 C   0  0  0  0  0  0
  -16.7295  -28.6500   23.0361 C   0  0  0  0  0  0
  -26.4540  -31.6551   25.0701 C   0  0  0  0  0  0
  -25.3694  -31.3772   26.1376 C   0  0  0  0  0  0
  -27.0420  -30.2934   24.6353 C   0  0  0  0  0  0
  -27.6049  -32.4339   25.7499 C   0  0  0  0  0  0
  -27.5575  -37.1770   24.8461 C   0  0  0  0  0  0
  -21.4289  -29.3040   22.3573 N   0  0  0  0  0  0
  -26.4282  -37.3725   23.9407 N   0  0  0  0  0  0
  -24.7323  -31.0104   22.0864 N   0  0  0  0  0  0
  -23.4207  -28.8054   23.3019 O   0  0  0  0  0  0
  -28.2680  -26.0189   20.2357 O   0  0  0  0  0  0
  -26.5686  -34.8895   22.4620 O   0  0  0  0  0  0
  -23.5617  -32.1258   23.6949 O   0  0  0  0  0  0
  -29.2878  -21.9746   19.2291 C   0  0  0  0  0  0
  -28.3105  -21.9078   21.4537 C   0  0  0  0  0  0
  -28.5400  -23.5329   21.5120 C   0  0  0  0  0  0
  -29.4861  -24.0566   18.0530 C   0  0  0  0  0  0
  -30.0753  -22.8378   17.3224 C   0  0  0  0  0  0
  -28.5448  -23.4220   19.0585 C   0  0  2  0  0  0
  -29.2160  -20.9936   20.4917 C   0  0  1  0  0  0
  -28.0863  -24.4212   20.2622 C   0  0  2  0  0  0
  -28.9714  -19.2603   20.3605 C   0  0  0  0  0  0
  -30.0621  -17.9030   20.4318 C   0  0  0  0  0  0
  -30.0674  -21.7233   18.2596 N   0  0  0  0  0  0
  -29.7249  -16.3135   20.4877 N   0  0  0  0  0  0
  -31.4671  -12.8612   19.1906 H   0  0  0  0  0  0
  -30.4624  -11.7515   20.0769 H   0  0  0  0  0  0
  -29.8728  -11.7380   17.6252 H   0  0  0  0  0  0
  -29.5896  -13.4599   17.6689 H   0  0  0  0  0  0
  -27.9838  -11.2745   19.0194 H   0  0  0  0  0  0
  -27.4004  -12.4069   17.8278 H   0  0  0  0  0  0
  -27.5607  -14.2483   19.3696 H   0  0  0  0  0  0
  -28.7823  -12.3977   21.4740 H   0  0  0  0  0  0
  -28.3343  -14.0704   21.7213 H   0  0  0  0  0  0
  -25.2774   -9.5684   22.4756 H   0  0  0  0  0  0
  -24.0008   -7.4638   22.7471 H   0  0  0  0  0  0
  -21.0849   -8.8777   19.8955 H   0  0  0  0  0  0
  -22.3711  -10.9669   19.6162 H   0  0  0  0  0  0
  -21.2019   -7.6148   23.9717 H   0  0  0  0  0  0
  -21.1480   -6.0522   25.9077 H   0  0  0  0  0  0
  -22.0597   -2.7607   23.2846 H   0  0  0  0  0  0
  -22.4068  -11.9858   22.4847 H   0  0  0  0  0  0
  -21.1047  -13.1195   22.2647 H   0  0  0  0  0  0
  -24.6312  -15.8421   20.5265 H   0  0  0  0  0  0
  -26.2423  -15.6414   20.0626 H   0  0  0  0  0  0
  -26.7316  -32.5215   23.0934 H   0  0  0  0  0  0
  -25.0066  -33.9547   25.0246 H   0  0  0  0  0  0
  -22.7685  -31.2767   21.3619 H   0  0  0  0  0  0
  -23.3763  -35.9556   23.3277 H   0  0  0  0  0  0
  -24.3577  -36.8904   22.2064 H   0  0  0  0  0  0
  -23.7243  -37.6413   23.6712 H   0  0  0  0  0  0
  -26.1870  -31.4224   20.6124 H   0  0  0  0  0  0
  -26.8891  -30.7327   22.0378 H   0  0  0  0  0  0
  -28.1421  -28.7095   21.2511 H   0  0  0  0  0  0
  -25.9140  -25.7820   19.0080 H   0  0  0  0  0  0
  -23.9938  -27.2720   18.9713 H   0  0  0  0  0  0
  -23.8364  -30.5358   19.3896 H   0  0  0  0  0  0
  -22.8059  -29.2124   19.8392 H   0  0  0  0  0  0
  -25.1324  -36.1806   25.0795 H   0  0  0  0  0  0
  -21.0022  -28.3329   24.1336 H   0  0  0  0  0  0
  -20.5675  -26.2344   23.3630 H   0  0  0  0  0  0
  -21.6657  -26.7413   22.1208 H   0  0  0  0  0  0
  -19.6926  -25.6278   21.1263 H   0  0  0  0  0  0
  -19.6709  -27.3166   20.6723 H   0  0  0  0  0  0
  -17.4217  -26.6674   21.4027 H   0  0  0  0  0  0
  -18.0351  -26.0085   22.9028 H   0  0  0  0  0  0
  -19.7958  -30.7302   24.2220 H   0  0  0  0  0  0
  -17.5030  -31.6270   24.5158 H   0  0  0  0  0  0
  -15.5367  -30.2971   23.7683 H   0  0  0  0  0  0
  -15.8696  -28.0804   22.7100 H   0  0  0  0  0  0
  -24.5877  -30.7122   25.7686 H   0  0  0  0  0  0
  -24.8880  -32.2965   26.4720 H   0  0  0  0  0  0
  -25.7946  -30.8989   27.0208 H   0  0  0  0  0  0
  -26.3061  -29.6634   24.1345 H   0  0  0  0  0  0
  -27.3979  -29.7266   25.4968 H   0  0  0  0  0  0
  -27.8989  -30.4145   23.9724 H   0  0  0  0  0  0
  -27.2628  -33.3666   26.1995 H   0  0  0  0  0  0
  -28.3907  -32.6858   25.0366 H   0  0  0  0  0  0
  -28.0667  -31.8520   26.5486 H   0  0  0  0  0  0
  -28.2565  -38.0091   24.7522 H   0  0  0  0  0  0
  -28.1096  -36.2618   24.6270 H   0  0  0  0  0  0
  -27.2292  -37.1391   25.8862 H   0  0  0  0  0  0
  -20.9517  -29.8731   21.6720 H   0  0  0  0  0  0
  -26.0137  -38.2783   24.1424 H   0  0  0  0  0  0
  -27.2640  -21.7315   21.2007 H   0  0  0  0  0  0
  -28.4204  -21.5193   22.4667 H   0  0  0  0  0  0
  -29.5968  -23.7225   21.7040 H   0  0  0  0  0  0
  -28.0211  -23.9171   22.3909 H   0  0  0  0  0  0
  -28.9827  -24.7523   17.3806 H   0  0  0  0  0  0
  -30.2756  -24.6029   18.5721 H   0  0  0  0  0  0
  -31.0856  -23.0511   16.9687 H   0  0  0  0  0  0
  -29.4737  -22.5891   16.4457 H   0  0  0  0  0  0
  -27.6272  -23.1953   18.5132 H   0  0  0  0  0  0
  -30.2095  -21.0579   20.9376 H   0  0  0  0  0  0
  -27.0026  -24.3129   20.2916 H   0  0  0  0  0  0
  -28.3811  -19.1208   19.4549 H   0  0  0  0  0  0
  -28.2591  -19.0480   21.1578 H   0  0  0  0  0  0
  -30.6932  -18.0733   21.3048 H   0  0  0  0  0  0
  -30.7438  -18.0164   19.5879 H   0  0  0  0  0  0
  -28.7415  -16.1241   20.6151 H   0  0  0  0  0  0
  1 25  1  0  0  0
  1 30  2  0  0  0
  1 82  1  0  0  0
  2  3  1  0  0  0
  2 25  1  0  0  0
  2 83  1  0  0  0
  2 84  1  0  0  0
  3  4  1  0  0  0
  3 85  1  0  0  0
  3 86  1  0  0  0
  4  5  1  0  0  0
  4 87  1  0  0  0
  4 88  1  0  0  0
  5  6  1  0  0  0
  5 26  1  0  0  0
  5 89  1  0  0  0
  6 25  1  0  0  0
  6 90  1  0  0  0
  6 91  1  0  0  0
  7  8  2  0  0  0
  7 26  1  0  0  0
  7 29  1  0  0  0
  8  9  1  0  0  0
  8 22  1  0  0  0
  9 10  1  0  0  0
  9 27  2  0  0  0
 10 11  2  0  0  0
 10 15  1  0  0  0
 11 12  1  0  0  0
 11 92  1  0  0  0
 12 13  2  0  0  0
 12 93  1  0  0  0
 13 14  1  0  0  0
 13 31  1  0  0  0
 14 15  2  0  0  0
 14 94  1  0  0  0
 15 95  1  0  0  0
 16 17  2  0  0  0
 16 21  1  0  0  0
 16 31  1  0  0  0
 17 18  1  0  0  0
 17 96  1  0  0  0
 18 19  2  0  0  0
 18 97  1  0  0  0
 19 20  1  0  0  0
 19 24  1  0  0  0
 20 21  2  0  0  0
 20 98  1  0  0  0
 21 23  1  0  0  0
 22 28  1  0  0  0
 22 32  2  0  0  0
 26 27  1  0  0  0
 28 99  1  0  0  0
 28100  1  0  0  0
 29101  1  0  0  0
 29102  1  0  0  0
 33 34  1  0  0  0
 33 66  1  0  0  0
 33 70  2  0  0  0
 34 36  1  0  0  0
 34 59  1  0  0  0
 34103  1  0  0  0
 35 44  2  0  0  0
 35 45  1  0  0  0
 35 68  1  0  0  0
 36 56  1  0  0  0
 36104  1  0  0  0
 37 39  1  0  0  0
 37 47  1  0  0  0
 37 66  1  0  0  0
 37105  1  0  0  0
 38 43  2  0  0  0
 38 46  1  0  0  0
 38 47  1  0  0  0
 39 64  1  0  0  0
 39 67  2  0  0  0
 40 52  1  0  0  0
 40 53  2  0  0  0
 40 58  1  0  0  0
 41106  1  0  0  0
 41107  1  0  0  0
 41108  1  0  0  0
 41 48  1  0  0  0
 42 43  1  0  0  0
 42 66  1  0  0  0
 42109  1  0  0  0
 42110  1  0  0  0
 43 44  1  0  0  0
 44111  1  0  0  0
 45 46  2  0  0  0
 45112  1  0  0  0
 46113  1  0  0  0
 47114  1  0  0  0
 47115  1  0  0  0
 48 56  1  0  0  0
 48 65  1  0  0  0
 48116  1  0  0  0
 49 50  1  0  0  0
 49 53  1  0  0  0
 49 64  1  0  0  0
 49117  1  0  0  0
 50 51  1  0  0  0
 50118  1  0  0  0
 50119  1  0  0  0
 51 52  1  0  0  0
 51120  1  0  0  0
 51121  1  0  0  0
 52122  1  0  0  0
 52123  1  0  0  0
 53 54  1  0  0  0
 54 55  2  0  0  0
 54124  1  0  0  0
 55 57  1  0  0  0
 55125  1  0  0  0
 56 69  2  0  0  0
 57 58  2  0  0  0
 57126  1  0  0  0
 58127  1  0  0  0
 59 60  1  0  0  0
 59 61  1  0  0  0
 59 62  1  0  0  0
 60128  1  0  0  0
 60129  1  0  0  0
 60130  1  0  0  0
 61131  1  0  0  0
 61132  1  0  0  0
 61133  1  0  0  0
 62134  1  0  0  0
 62135  1  0  0  0
 62136  1  0  0  0
 63 65  1  0  0  0
 63137  1  0  0  0
 63138  1  0  0  0
 63139  1  0  0  0
 64140  1  0  0  0
 65141  1  0  0  0
 68 78  1  0  0  0
 71 76  1  0  0  0
 71 77  1  0  0  0
 71 81  2  0  0  0
 72 73  1  0  0  0
 72 77  1  0  0  0
 72142  1  0  0  0
 72143  1  0  0  0
 73 78  1  0  0  0
 73144  1  0  0  0
 73145  1  0  0  0
 74 75  1  0  0  0
 74146  1  0  0  0
 74147  1  0  0  0
 74 76  1  0  0  0
 75 81  1  0  0  0
 75148  1  0  0  0
 75149  1  0  0  0
 76 78  1  0  0  0
 76150  1  0  0  0
 77 79  1  0  0  0
 77151  1  0  0  0
 78152  1  0  0  0
 79 80  1  0  0  0
 79153  1  0  0  0
 79154  1  0  0  0
 80 82  1  0  0  0
 80155  1  0  0  0
 80156  1  0  0  0
 82157  1  0  0  0
M  ISO  4   1 100  68 101  78 101  82 100
M  END
> <chiral flag>
0

> <version>
0

> <s_m_source_file>
/data/baiqing/PycharmProjects/Reinvent-master-3.2/result/LINK_invent/BTK/process_docking_weight1_custom_sum_contain_oxygen_bond_distance_aromatic_linkinvent_7_9_3/rearranged_h_0131.sdf

> <i_m_source_file_index>
81

> <r_mmod_Potential_Energy-OPLS-2005>
888.725891113281

> <r_mmod_Stretch_Energy-OPLS-2005>
380.642669677734

> <r_mmod_Bend_Energy-OPLS-2005>
403.201599121094

> <r_mmod_Torsional_Energy-OPLS-2005>
274.737579345703

> <r_mmod_Improper_Torsional_Energy-OPLS-2005>
5.11676073074341

> <r_mmod_Van_der_Waal_Energy-OPLS-2005>
113.881141662598

> <r_mmod_Electrostatic_Energy-OPLS-2005>
-356.764739990234

> <r_mmod_Solvation_Energy-OPLS-2005>
-226.545593261719

> <b_mmod_Minimization_Converged-OPLS-2005>
0

> <r_mmod_RMS_Derivative-OPLS-2005>
0.584208607673645

$$$$
81
                    3D
 Structure written by MMmdl.
158166  0  0  1  0            999 V2000
  -30.4964  -14.9894   20.3846 C   0  0  0  0  0  0
  -30.3864  -12.6041   19.5058 C   0  0  0  0  0  0
  -29.4862  -12.5522   18.2478 C   0  0  0  0  0  0
  -28.0213  -12.3392   18.6551 C   0  0  0  0  0  0
  -27.5873  -13.2794   19.7987 C   0  0  2  0  0  0
  -28.6121  -13.3358   20.9471 C   0  0  0  0  0  0
  -25.2387  -13.8255   20.6120 C   0  0  0  0  0  0
  -24.1679  -13.0483   20.9382 C   0  0  0  0  0  0
  -24.6314  -11.6989   20.8657 C   0  0  0  0  0  0
  -23.9014  -10.4376   21.0265 C   0  0  0  0  0  0
  -24.3623   -9.4293   21.9023 C   0  0  0  0  0  0
  -23.6369   -8.2298   22.0570 C   0  0  0  0  0  0
  -22.4317   -8.0320   21.3415 C   0  0  0  0  0  0
  -21.9814   -9.0347   20.4564 C   0  0  0  0  0  0
  -22.7131  -10.2263   20.2995 C   0  0  0  0  0  0
  -21.6968   -6.0738   22.5224 C   0  0  0  0  0  0
  -21.4132   -6.5637   23.8183 C   0  0  0  0  0  0
  -21.3712   -5.6767   24.9119 C   0  0  0  0  0  0
  -21.6023   -4.3013   24.7183 C   0  0  0  0  0  0
  -21.8824   -3.8124   23.4285 C   0  0  0  0  0  0
  -21.9265   -4.6939   22.3374 C   0  0  0  0  0  0
  -22.7692  -13.5229   21.1985 C   0  0  0  0  0  0
  -22.1667   -4.2119   21.0929 F   0  0  0  0  0  0
  -21.5559   -3.4498   25.7692 F   0  0  0  0  0  0
  -29.8985  -13.7263   20.3639 N   0  0  0  0  0  0
  -26.2638  -12.9638   20.2951 N   0  0  0  0  0  0
  -25.9172  -11.6688   20.5325 N   0  0  0  0  0  0
  -22.0105  -12.8216   22.0262 N   0  0  0  0  0  0
  -25.4090  -15.2043   20.5256 N   0  0  0  0  0  0
  -31.6783  -15.0338   20.0402 O   0  0  0  0  0  0
  -21.6716   -6.8878   21.4171 O   0  0  0  0  0  0
  -22.3415  -14.5563   20.6775 O   0  0  0  0  0  0
  -24.6443  -31.8407   23.1841 C   0  0  0  0  0  0
  -25.9165  -32.4716   23.8257 C   0  0  1  0  0  0
  -27.2437  -27.1447   20.1190 C   0  0  0  0  0  0
  -25.5910  -33.8517   24.2162 N   0  0  0  0  0  0
  -23.4454  -30.4561   21.5408 C   0  0  2  0  0  0
  -24.8902  -28.8643   20.0937 C   0  0  0  0  0  0
  -22.7524  -29.4553   22.4937 C   0  0  0  0  0  0
  -18.0304  -28.1424   22.8469 C   0  0  0  0  0  0
  -24.1447  -36.7317   23.2656 C   0  0  0  0  0  0
  -25.9916  -30.7146   21.3588 C   0  0  0  0  0  0
  -26.0625  -29.3191   20.7141 C   0  0  0  0  0  0
  -27.2295  -28.4729   20.7087 C   0  0  0  0  0  0
  -26.0428  -26.7730   19.4781 C   0  0  0  0  0  0
  -24.8920  -27.6061   19.4565 C   0  0  0  0  0  0
  -23.6557  -29.7632   20.1647 C   0  0  0  0  0  0
  -25.4072  -36.3086   24.0323 C   0  0  1  0  0  0
  -20.5894  -28.3687   23.1295 C   0  0  2  0  0  0
  -20.6746  -26.9407   22.5430 C   0  0  0  0  0  0
  -19.5736  -26.6384   21.5217 C   0  0  0  0  0  0
  -18.1934  -26.7961   22.1624 C   0  0  0  0  0  0
  -19.1552  -28.8890   23.2869 C   0  0  0  0  0  0
  -18.9452  -30.1491   23.8903 C   0  0  0  0  0  0
  -17.6444  -30.6607   24.0565 C   0  0  0  0  0  0
  -25.9049  -34.9437   23.5079 C   0  0  0  0  0  0
  -16.5345  -29.9089   23.6344 C   0  0  0  0  0  0
  -16.7283  -28.6520   23.0330 C   0  0  0  0  0  0
  -26.4473  -31.6597   25.0681 C   0  0  0  0  0  0
  -25.3623  -31.3724   26.1333 C   0  0  0  0  0  0
  -27.0254  -30.3038   24.6072 C   0  0  0  0  0  0
  -27.6034  -32.4285   25.7455 C   0  0  0  0  0  0
  -27.5541  -37.1826   24.8457 C   0  0  0  0  0  0
  -21.4222  -29.3014   22.3644 N   0  0  0  0  0  0
  -26.4250  -37.3790   23.9442 N   0  0  0  0  0  0
  -24.7215  -31.0167   22.0938 N   0  0  0  0  0  0
  -23.4135  -28.8074   23.3080 O   0  0  0  0  0  0
  -28.3564  -26.2461   20.2392 O   0  0  0  0  0  0
  -26.5649  -34.8957   22.4678 O   0  0  0  0  0  0
  -23.5565  -32.1314   23.7044 O   0  0  0  0  0  0
  -28.3567  -21.9081   21.9686 C   0  0  0  0  0  0
  -28.8553  -21.8668   20.5078 C   0  0  2  0  0  0
  -26.8856  -22.3301   21.8081 C   0  0  1  0  0  0
  -28.0350  -23.2648   19.9725 C   0  0  2  0  0  0
  -26.0900  -22.7127   23.0608 C   0  0  0  0  0  0
  -28.6629  -24.8058   19.7112 C   0  0  0  0  0  0
  -29.1188  -17.4498   20.0998 C   0  0  0  0  0  0
  -29.4449  -19.0970   20.4535 C   0  0  0  0  0  0
  -26.9635  -23.4814   20.9310 N   0  0  0  0  0  0
  -29.8561  -16.2082   20.7785 N   0  0  0  0  0  0
  -28.6082  -20.3768   19.9680 N   0  3  0  0  0  0
  -31.4323  -12.7302   19.2179 H   0  0  0  0  0  0
  -30.3428  -11.6521   20.0408 H   0  0  0  0  0  0
  -29.7905  -11.7485   17.5796 H   0  0  0  0  0  0
  -29.5683  -13.4837   17.6773 H   0  0  0  0  0  0
  -27.9159  -11.3050   18.9772 H   0  0  0  0  0  0
  -27.3588  -12.4432   17.7949 H   0  0  0  0  0  0
  -27.5385  -14.2743   19.3562 H   0  0  0  0  0  0
  -28.6561  -12.3697   21.4428 H   0  0  0  0  0  0
  -28.2944  -14.0633   21.6950 H   0  0  0  0  0  0
  -25.2784   -9.5921   22.4520 H   0  0  0  0  0  0
  -24.0212   -7.4693   22.7190 H   0  0  0  0  0  0
  -21.0692   -8.9009   19.8913 H   0  0  0  0  0  0
  -22.3511  -10.9956   19.6249 H   0  0  0  0  0  0
  -21.2162   -7.6141   23.9760 H   0  0  0  0  0  0
  -21.1463   -6.0383   25.9039 H   0  0  0  0  0  0
  -22.0527   -2.7549   23.2797 H   0  0  0  0  0  0
  -22.3508  -11.9855   22.4698 H   0  0  0  0  0  0
  -21.0595  -13.1100   22.2189 H   0  0  0  0  0  0
  -26.2108  -15.6846   20.1508 H   0  0  0  0  0  0
  -24.7844  -15.8160   21.0315 H   0  0  0  0  0  0
  -26.7192  -32.5307   23.0972 H   0  0  0  0  0  0
  -24.9966  -33.9607   25.0207 H   0  0  0  0  0  0
  -22.7525  -31.2895   21.3889 H   0  0  0  0  0  0
  -23.3738  -35.9644   23.3319 H   0  0  0  0  0  0
  -24.3535  -36.8951   22.2092 H   0  0  0  0  0  0
  -23.7150  -37.6487   23.6675 H   0  0  0  0  0  0
  -26.0707  -31.4450   20.5541 H   0  0  0  0  0  0
  -26.8969  -30.8391   21.9469 H   0  0  0  0  0  0
  -28.1217  -28.7993   21.2162 H   0  0  0  0  0  0
  -25.9762  -25.7892   19.0360 H   0  0  0  0  0  0
  -23.9982  -27.2336   18.9752 H   0  0  0  0  0  0
  -23.7513  -30.5371   19.4021 H   0  0  0  0  0  0
  -22.7745  -29.1880   19.8751 H   0  0  0  0  0  0
  -25.1256  -36.2000   25.0818 H   0  0  0  0  0  0
  -21.0001  -28.3326   24.1396 H   0  0  0  0  0  0
  -20.5623  -26.2353   23.3634 H   0  0  0  0  0  0
  -21.6640  -26.7388   22.1276 H   0  0  0  0  0  0
  -19.6903  -25.6281   21.1280 H   0  0  0  0  0  0
  -19.6732  -27.3181   20.6743 H   0  0  0  0  0  0
  -17.4204  -26.6732   21.4016 H   0  0  0  0  0  0
  -18.0327  -26.0096   22.9028 H   0  0  0  0  0  0
  -19.7925  -30.7323   24.2263 H   0  0  0  0  0  0
  -17.4975  -31.6278   24.5184 H   0  0  0  0  0  0
  -15.5338  -30.2962   23.7645 H   0  0  0  0  0  0
  -15.8680  -28.0817   22.6991 H   0  0  0  0  0  0
  -24.5983  -30.6867   25.7666 H   0  0  0  0  0  0
  -24.8548  -32.2831   26.4531 H   0  0  0  0  0  0
  -25.7893  -30.9130   27.0251 H   0  0  0  0  0  0
  -26.2820  -29.6886   24.1016 H   0  0  0  0  0  0
  -27.3918  -29.7203   25.4524 H   0  0  0  0  0  0
  -27.8671  -30.4371   23.9275 H   0  0  0  0  0  0
  -27.2780  -33.3734   26.1800 H   0  0  0  0  0  0
  -28.3976  -32.6580   25.0340 H   0  0  0  0  0  0
  -28.0519  -31.8511   26.5534 H   0  0  0  0  0  0
  -28.2583  -38.0093   24.7504 H   0  0  0  0  0  0
  -28.1017  -36.2654   24.6300 H   0  0  0  0  0  0
  -27.2285  -37.1478   25.8853 H   0  0  0  0  0  0
  -20.9460  -29.8735   21.6784 H   0  0  0  0  0  0
  -26.0173  -38.2898   24.1426 H   0  0  0  0  0  0
  -28.9071  -22.6621   22.5393 H   0  0  0  0  0  0
  -28.4690  -20.9651   22.5049 H   0  0  0  0  0  0
  -29.9243  -22.0466   20.4590 H   0  0  0  0  0  0
  -26.3653  -21.5120   21.3136 H   0  0  0  0  0  0
  -27.5373  -23.0049   19.0337 H   0  0  0  0  0  0
  -26.4022  -23.6754   23.4791 H   0  0  0  0  0  0
  -26.1775  -21.9490   23.8390 H   0  0  0  0  0  0
  -25.0282  -22.8031   22.8108 H   0  0  0  0  0  0
  -28.8749  -24.8949   18.6425 H   0  0  0  0  0  0
  -29.6562  -24.6847   20.1350 H   0  0  0  0  0  0
  -28.0523  -17.2832   20.3069 H   0  0  0  0  0  0
  -29.1988  -17.3170   19.0170 H   0  0  0  0  0  0
  -30.4483  -19.3034   20.0771 H   0  0  0  0  0  0
  -29.5477  -19.1817   21.5338 H   0  0  0  0  0  0
  -26.0931  -23.6691   20.4493 H   0  0  0  0  0  0
  -30.5273  -16.6324   21.4248 H   0  0  0  0  0  0
  -28.6708  -20.4100   18.9600 H   0  0  0  0  0  0
  -27.6424  -20.1996   20.1851 H   0  0  0  0  0  0
  1 25  1  0  0  0
  1 30  2  0  0  0
  1 80  1  0  0  0
  2  3  1  0  0  0
  2 25  1  0  0  0
  2 82  1  0  0  0
  2 83  1  0  0  0
  3  4  1  0  0  0
  3 84  1  0  0  0
  3 85  1  0  0  0
  4  5  1  0  0  0
  4 86  1  0  0  0
  4 87  1  0  0  0
  5  6  1  0  0  0
  5 26  1  0  0  0
  5 88  1  0  0  0
  6 25  1  0  0  0
  6 89  1  0  0  0
  6 90  1  0  0  0
  7  8  2  0  0  0
  7 26  1  0  0  0
  7 29  1  0  0  0
  8  9  1  0  0  0
  8 22  1  0  0  0
  9 10  1  0  0  0
  9 27  2  0  0  0
 10 11  2  0  0  0
 10 15  1  0  0  0
 11 12  1  0  0  0
 11 91  1  0  0  0
 12 13  2  0  0  0
 12 92  1  0  0  0
 13 14  1  0  0  0
 13 31  1  0  0  0
 14 15  2  0  0  0
 14 93  1  0  0  0
 15 94  1  0  0  0
 16 17  2  0  0  0
 16 21  1  0  0  0
 16 31  1  0  0  0
 17 18  1  0  0  0
 17 95  1  0  0  0
 18 19  2  0  0  0
 18 96  1  0  0  0
 19 20  1  0  0  0
 19 24  1  0  0  0
 20 21  2  0  0  0
 20 97  1  0  0  0
 21 23  1  0  0  0
 22 28  1  0  0  0
 22 32  2  0  0  0
 26 27  1  0  0  0
 28 98  1  0  0  0
 28 99  1  0  0  0
 29100  1  0  0  0
 29101  1  0  0  0
 33 34  1  0  0  0
 33 66  1  0  0  0
 33 70  2  0  0  0
 34 36  1  0  0  0
 34 59  1  0  0  0
 34102  1  0  0  0
 35 44  2  0  0  0
 35 45  1  0  0  0
 35 68  1  0  0  0
 36 56  1  0  0  0
 36103  1  0  0  0
 37 39  1  0  0  0
 37 47  1  0  0  0
 37 66  1  0  0  0
 37104  1  0  0  0
 38 43  2  0  0  0
 38 46  1  0  0  0
 38 47  1  0  0  0
 39 64  1  0  0  0
 39 67  2  0  0  0
 40 52  1  0  0  0
 40 53  2  0  0  0
 40 58  1  0  0  0
 41105  1  0  0  0
 41106  1  0  0  0
 41107  1  0  0  0
 41 48  1  0  0  0
 42 43  1  0  0  0
 42 66  1  0  0  0
 42108  1  0  0  0
 42109  1  0  0  0
 43 44  1  0  0  0
 44110  1  0  0  0
 45 46  2  0  0  0
 45111  1  0  0  0
 46112  1  0  0  0
 47113  1  0  0  0
 47114  1  0  0  0
 48 56  1  0  0  0
 48 65  1  0  0  0
 48115  1  0  0  0
 49 50  1  0  0  0
 49 53  1  0  0  0
 49 64  1  0  0  0
 49116  1  0  0  0
 50 51  1  0  0  0
 50117  1  0  0  0
 50118  1  0  0  0
 51 52  1  0  0  0
 51119  1  0  0  0
 51120  1  0  0  0
 52121  1  0  0  0
 52122  1  0  0  0
 53 54  1  0  0  0
 54 55  2  0  0  0
 54123  1  0  0  0
 55 57  1  0  0  0
 55124  1  0  0  0
 56 69  2  0  0  0
 57 58  2  0  0  0
 57125  1  0  0  0
 58126  1  0  0  0
 59 60  1  0  0  0
 59 61  1  0  0  0
 59 62  1  0  0  0
 60127  1  0  0  0
 60128  1  0  0  0
 60129  1  0  0  0
 61130  1  0  0  0
 61131  1  0  0  0
 61132  1  0  0  0
 62133  1  0  0  0
 62134  1  0  0  0
 62135  1  0  0  0
 63 65  1  0  0  0
 63136  1  0  0  0
 63137  1  0  0  0
 63138  1  0  0  0
 64139  1  0  0  0
 65140  1  0  0  0
 68 76  1  0  0  0
 71 72  1  0  0  0
 71 73  1  0  0  0
 71141  1  0  0  0
 71142  1  0  0  0
 72 74  1  0  0  0
 72 81  1  0  0  0
 72143  1  0  0  0
 73 75  1  0  0  0
 73 79  1  0  0  0
 73144  1  0  0  0
 74 76  1  0  0  0
 74 79  1  0  0  0
 74145  1  0  0  0
 75146  1  0  0  0
 75147  1  0  0  0
 75148  1  0  0  0
 76149  1  0  0  0
 76150  1  0  0  0
 77 78  1  0  0  0
 77 80  1  0  0  0
 77151  1  0  0  0
 77152  1  0  0  0
 78 81  1  0  0  0
 78153  1  0  0  0
 78154  1  0  0  0
 79155  1  0  0  0
 80156  1  0  0  0
 81157  1  0  0  0
 81158  1  0  0  0
M  CHG  1  81   1
M  ISO  4   1 100  68 101  76 101  80 100
M  END
> <chiral flag>
0

> <version>
0

> <s_m_source_file>
/data/baiqing/PycharmProjects/Reinvent-master-3.2/result/LINK_invent/BTK/process_docking_weight1_custom_sum_contain_oxygen_bond_distance_aromatic_linkinvent_7_9_3/rearranged_h_0131.sdf

> <i_m_source_file_index>
82

> <r_mmod_Potential_Energy-OPLS-2005>
569.35498046875

> <r_mmod_Stretch_Energy-OPLS-2005>
299.356018066406

> <r_mmod_Bend_Energy-OPLS-2005>
414.121032714844

> <r_mmod_Torsional_Energy-OPLS-2005>
340.132904052734

> <r_mmod_Improper_Torsional_Energy-OPLS-2005>
6.86954355239868

> <r_mmod_Van_der_Waal_Energy-OPLS-2005>
102.331382751465

> <r_mmod_Electrostatic_Energy-OPLS-2005>
-285.899169921875

> <r_mmod_Solvation_Energy-OPLS-2005>
-515.609802246094

> <b_mmod_Minimization_Converged-OPLS-2005>
0

> <r_mmod_RMS_Derivative-OPLS-2005>
13.9983205795288

$$$$
82
                    3D
 Structure written by MMmdl.
165173  0  0  1  0            999 V2000
  -31.1776  -14.1797   20.8434 C   0  0  0  0  0  0
  -31.1134  -12.6085   18.9231 C   0  0  0  0  0  0
  -30.0971  -13.0463   17.8773 C   0  0  0  0  0  0
  -28.6596  -13.0942   18.3360 C   0  0  0  0  0  0
  -28.1705  -13.7030   19.8709 C   0  0  2  0  0  0
  -29.4173  -12.6870   20.3984 C   0  0  0  0  0  0
  -24.7627  -14.2845   20.7337 C   0  0  0  0  0  0
  -23.7884  -13.3172   20.8769 C   0  0  0  0  0  0
  -24.3339  -12.0424   20.9526 C   0  0  0  0  0  0
  -23.8127  -10.6192   21.0804 C   0  0  0  0  0  0
  -24.3234   -9.5949   21.9340 C   0  0  0  0  0  0
  -23.6591   -8.3400   22.0713 C   0  0  0  0  0  0
  -22.4671   -8.0753   21.3510 C   0  0  0  0  0  0
  -22.0123   -9.0502   20.4481 C   0  0  0  0  0  0
  -22.6797  -10.2826   20.3070 C   0  0  0  0  0  0
  -21.7233   -6.0924   22.5235 C   0  0  0  0  0  0
  -21.4283   -6.5788   23.8164 C   0  0  0  0  0  0
  -21.3725   -5.6901   24.9103 C   0  0  0  0  0  0
  -21.6020   -4.3145   24.7163 C   0  0  0  0  0  0
  -21.8784   -3.8244   23.4283 C   0  0  0  0  0  0
  -21.9314   -4.7091   22.3361 C   0  0  0  0  0  0
  -22.3911  -13.6179   21.1192 C   0  0  0  0  0  0
  -22.1729   -4.2231   21.0946 F   0  0  0  0  0  0
  -21.5543   -3.4618   25.7670 F   0  0  0  0  0  0
  -30.6897  -13.1501   20.1832 N   0  0  0  0  0  0
  -26.0008  -13.7018   20.7885 N   0  0  0  0  0  0
  -25.3482  -12.5750   21.5419 N   0  0  0  0  0  0
  -21.7729  -12.8560   22.0119 N   0  0  0  0  0  0
  -24.6214  -15.6372   20.6313 N   0  0  0  0  0  0
  -31.8087  -15.0741   20.2981 O   0  0  0  0  0  0
  -21.7316   -6.9086   21.4167 O   0  0  0  0  0  0
  -21.8994  -14.6130   20.6104 O   0  0  0  0  0  0
  -24.7003  -31.7846   23.1462 C   0  0  0  0  0  0
  -25.9538  -32.4364   23.8017 C   0  0  1  0  0  0
  -26.9422  -26.4525   20.2182 C   0  0  0  0  0  0
  -25.6068  -33.8208   24.1883 N   0  0  0  0  0  0
  -23.5153  -30.4051   21.5099 C   0  0  2  0  0  0
  -24.9133  -28.7234   20.0993 C   0  0  0  0  0  0
  -22.7784  -29.4275   22.4669 C   0  0  0  0  0  0
  -18.0339  -28.1419   22.8456 C   0  0  0  0  0  0
  -24.1498  -36.7095   23.2657 C   0  0  0  0  0  0
  -26.1033  -30.4266   21.4408 C   0  0  0  0  0  0
  -26.1092  -28.9768   20.7794 C   0  0  0  0  0  0
  -27.1298  -27.8654   20.8009 C   0  0  0  0  0  0
  -25.7724  -26.4831   19.4439 C   0  0  0  0  0  0
  -24.8024  -27.5168   19.3983 C   0  0  0  0  0  0
  -23.7582  -29.7318   20.1325 C   0  0  0  0  0  0
  -25.4157  -36.2836   24.0272 C   0  0  1  0  0  0
  -20.5980  -28.3780   23.1124 C   0  0  2  0  0  0
  -20.6797  -26.9431   22.5398 C   0  0  0  0  0  0
  -19.5769  -26.6363   21.5216 C   0  0  0  0  0  0
  -18.1954  -26.7947   22.1620 C   0  0  0  0  0  0
  -19.1608  -28.8926   23.2772 C   0  0  0  0  0  0
  -18.9509  -30.1507   23.8821 C   0  0  0  0  0  0
  -17.6498  -30.6600   24.0548 C   0  0  0  0  0  0
  -25.9159  -34.9231   23.4916 C   0  0  0  0  0  0
  -16.5388  -29.9081   23.6349 C   0  0  0  0  0  0
  -16.7318  -28.6504   23.0370 C   0  0  0  0  0  0
  -26.4638  -31.6482   25.0724 C   0  0  0  0  0  0
  -25.3652  -31.3864   26.1309 C   0  0  0  0  0  0
  -27.0595  -30.2797   24.6778 C   0  0  0  0  0  0
  -27.6057  -32.4384   25.7537 C   0  0  0  0  0  0
  -27.5558  -37.1712   24.8470 C   0  0  0  0  0  0
  -21.4425  -29.3026   22.3437 N   0  0  0  0  0  0
  -26.4266  -37.3618   23.9410 N   0  0  0  0  0  0
  -24.8026  -30.9124   22.0815 N   0  0  0  0  0  0
  -23.4204  -28.7850   23.3015 O   0  0  0  0  0  0
  -27.6584  -25.0387   20.2386 O   0  0  0  0  0  0
  -26.5796  -34.8836   22.4534 O   0  0  0  0  0  0
  -23.6009  -32.1048   23.6336 O   0  0  0  0  0  0
  -27.0056  -18.0201   19.7033 C   0  0  0  0  0  0
  -27.6405  -15.1625   21.7274 C   0  0  0  0  0  0
  -26.3584  -14.6029   18.6037 C   0  0  0  0  0  0
  -27.0939  -11.7143   20.2290 C   0  0  0  0  0  0
  -27.0965  -16.0610   19.9976 C   0  0  1  0  0  0
  -27.7406  -13.0916   22.1076 C   0  0  2  0  0  0
  -30.6273  -14.5924   23.2623 C   0  0  0  0  0  0
  -27.4667  -21.3015   19.8738 C   0  0  0  0  0  0
  -29.4037  -13.8521   23.9233 C   0  0  0  0  0  0
  -27.1147  -23.2657   20.3503 C   0  0  0  0  0  0
  -26.2858  -12.6796   18.7563 N   0  0  0  0  0  0
  -27.2014  -19.4999   20.3068 N   0  0  0  0  0  0
  -31.2268  -13.8692   22.1472 N   0  0  0  0  0  0
  -28.7488  -12.7318   23.1685 N   0  3  0  0  0  0
  -26.7009  -18.1670   18.5201 O   0  0  0  0  0  0
  -32.0980  -12.9965   18.6541 H   0  0  0  0  0  0
  -31.2462  -11.5238   18.9509 H   0  0  0  0  0  0
  -30.1997  -12.4408   16.9746 H   0  0  0  0  0  0
  -30.3732  -14.0577   17.5721 H   0  0  0  0  0  0
  -28.4118  -12.0502   18.1316 H   0  0  0  0  0  0
  -28.2414  -13.6192   17.4865 H   0  0  0  0  0  0
  -28.7776  -14.5821   19.8649 H   0  0  0  0  0  0
  -29.4385  -11.7170   19.9126 H   0  0  0  0  0  0
  -29.5145  -12.0221   21.2340 H   0  0  0  0  0  0
  -25.2041   -9.7942   22.5284 H   0  0  0  0  0  0
  -24.0615   -7.5988   22.7473 H   0  0  0  0  0  0
  -21.1261   -8.8577   19.8594 H   0  0  0  0  0  0
  -22.2740  -11.0115   19.6196 H   0  0  0  0  0  0
  -21.2408   -7.6316   23.9692 H   0  0  0  0  0  0
  -21.1520   -6.0636   25.8999 H   0  0  0  0  0  0
  -22.0449   -2.7692   23.2760 H   0  0  0  0  0  0
  -22.2496  -12.0825   22.4517 H   0  0  0  0  0  0
  -20.8146  -13.0508   22.2658 H   0  0  0  0  0  0
  -23.7137  -16.0882   20.6176 H   0  0  0  0  0  0
  -25.4053  -16.2716   20.6163 H   0  0  0  0  0  0
  -26.7616  -32.4722   23.0704 H   0  0  0  0  0  0
  -25.0144  -33.9223   24.9992 H   0  0  0  0  0  0
  -22.8507  -31.2540   21.3370 H   0  0  0  0  0  0
  -23.3796  -35.9387   23.3252 H   0  0  0  0  0  0
  -24.3564  -36.8831   22.2086 H   0  0  0  0  0  0
  -23.7222  -37.6234   23.6787 H   0  0  0  0  0  0
  -26.3498  -31.1380   20.6518 H   0  0  0  0  0  0
  -26.9475  -30.4696   22.1156 H   0  0  0  0  0  0
  -28.0317  -28.0412   21.3700 H   0  0  0  0  0  0
  -25.5301  -25.5814   18.8996 H   0  0  0  0  0  0
  -23.9061  -27.3342   18.8217 H   0  0  0  0  0  0
  -23.9807  -30.5036   19.3949 H   0  0  0  0  0  0
  -22.8424  -29.2515   19.7835 H   0  0  0  0  0  0
  -25.1372  -36.1578   25.0762 H   0  0  0  0  0  0
  -21.0062  -28.3404   24.1250 H   0  0  0  0  0  0
  -20.5656  -26.2399   23.3663 H   0  0  0  0  0  0
  -21.6654  -26.7359   22.1214 H   0  0  0  0  0  0
  -19.6915  -25.6255   21.1291 H   0  0  0  0  0  0
  -19.6710  -27.3133   20.6715 H   0  0  0  0  0  0
  -17.4222  -26.6700   21.4024 H   0  0  0  0  0  0
  -18.0332  -26.0106   22.9029 H   0  0  0  0  0  0
  -19.7983  -30.7345   24.2156 H   0  0  0  0  0  0
  -17.5045  -31.6270   24.5165 H   0  0  0  0  0  0
  -15.5384  -30.2957   23.7714 H   0  0  0  0  0  0
  -15.8719  -28.0794   22.7130 H   0  0  0  0  0  0
  -24.5882  -30.7158   25.7620 H   0  0  0  0  0  0
  -24.8792  -32.3101   26.4457 H   0  0  0  0  0  0
  -25.7788  -30.9222   27.0271 H   0  0  0  0  0  0
  -26.3332  -29.6331   24.1846 H   0  0  0  0  0  0
  -27.4007  -29.7348   25.5592 H   0  0  0  0  0  0
  -27.9327  -30.3881   24.0343 H   0  0  0  0  0  0
  -27.2591  -33.3790   26.1829 H   0  0  0  0  0  0
  -28.4000  -32.6773   25.0454 H   0  0  0  0  0  0
  -28.0576  -31.8710   26.5684 H   0  0  0  0  0  0
  -28.2536  -38.0041   24.7517 H   0  0  0  0  0  0
  -28.1090  -36.2562   24.6303 H   0  0  0  0  0  0
  -27.2268  -37.1348   25.8869 H   0  0  0  0  0  0
  -20.9727  -29.8721   21.6537 H   0  0  0  0  0  0
  -26.0075  -38.2657   24.1425 H   0  0  0  0  0  0
  -26.9874  -15.5739   22.4986 H   0  0  0  0  0  0
  -28.5896  -15.6230   21.9599 H   0  0  0  0  0  0
  -26.7755  -14.8856   17.6395 H   0  0  0  0  0  0
  -25.3309  -14.8803   18.3646 H   0  0  0  0  0  0
  -26.4605  -10.8831   20.5425 H   0  0  0  0  0  0
  -27.7740  -10.9686   19.8380 H   0  0  0  0  0  0
  -28.0550  -16.2746   19.5287 H   0  0  0  0  0  0
  -27.0365  -12.9842   22.9373 H   0  0  0  0  0  0
  -30.3868  -15.6132   22.9689 H   0  0  0  0  0  0
  -31.4013  -14.7228   24.0195 H   0  0  0  0  0  0
  -28.5563  -21.2989   19.9065 H   0  0  0  0  0  0
  -27.2538  -21.2862   18.8053 H   0  0  0  0  0  0
  -28.6556  -14.5720   24.2586 H   0  0  0  0  0  0
  -29.7713  -13.3992   24.8451 H   0  0  0  0  0  0
  -27.0599  -23.1914   21.4356 H   0  0  0  0  0  0
  -26.0688  -23.3700   20.0597 H   0  0  0  0  0  0
  -26.3204  -12.1889   17.8680 H   0  0  0  0  0  0
  -27.3619  -19.3985   21.3022 H   0  0  0  0  0  0
  -31.3194  -12.8775   22.3055 H   0  0  0  0  0  0
  -29.4457  -12.1160   22.7881 H   0  0  0  0  0  0
  -28.2414  -12.1814   23.8442 H   0  0  0  0  0  0
  1 25  1  0  0  0
  1 30  2  0  0  0
  1 83  1  0  0  0
  2  3  1  0  0  0
  2 25  1  0  0  0
  2 86  1  0  0  0
  2 87  1  0  0  0
  3  4  1  0  0  0
  3 88  1  0  0  0
  3 89  1  0  0  0
  4  5  1  0  0  0
  4 90  1  0  0  0
  4 91  1  0  0  0
  5  6  1  0  0  0
  5 26  1  0  0  0
  5 92  1  0  0  0
  6 25  1  0  0  0
  6 93  1  0  0  0
  6 94  1  0  0  0
  7  8  2  0  0  0
  7 26  1  0  0  0
  7 29  1  0  0  0
  8  9  1  0  0  0
  8 22  1  0  0  0
  9 10  1  0  0  0
  9 27  2  0  0  0
 10 11  2  0  0  0
 10 15  1  0  0  0
 11 12  1  0  0  0
 11 95  1  0  0  0
 12 13  2  0  0  0
 12 96  1  0  0  0
 13 14  1  0  0  0
 13 31  1  0  0  0
 14 15  2  0  0  0
 14 97  1  0  0  0
 15 98  1  0  0  0
 16 17  2  0  0  0
 16 21  1  0  0  0
 16 31  1  0  0  0
 17 18  1  0  0  0
 17 99  1  0  0  0
 18 19  2  0  0  0
 18100  1  0  0  0
 19 20  1  0  0  0
 19 24  1  0  0  0
 20 21  2  0  0  0
 20101  1  0  0  0
 21 23  1  0  0  0
 22 28  1  0  0  0
 22 32  2  0  0  0
 26 27  1  0  0  0
 28102  1  0  0  0
 28103  1  0  0  0
 29104  1  0  0  0
 29105  1  0  0  0
 33 34  1  0  0  0
 33 66  1  0  0  0
 33 70  2  0  0  0
 34 36  1  0  0  0
 34 59  1  0  0  0
 34106  1  0  0  0
 35 44  2  0  0  0
 35 45  1  0  0  0
 35 68  1  0  0  0
 36 56  1  0  0  0
 36107  1  0  0  0
 37 39  1  0  0  0
 37 47  1  0  0  0
 37 66  1  0  0  0
 37108  1  0  0  0
 38 43  2  0  0  0
 38 46  1  0  0  0
 38 47  1  0  0  0
 39 64  1  0  0  0
 39 67  2  0  0  0
 40 52  1  0  0  0
 40 53  2  0  0  0
 40 58  1  0  0  0
 41109  1  0  0  0
 41110  1  0  0  0
 41111  1  0  0  0
 41 48  1  0  0  0
 42 43  1  0  0  0
 42 66  1  0  0  0
 42112  1  0  0  0
 42113  1  0  0  0
 43 44  1  0  0  0
 44114  1  0  0  0
 45 46  2  0  0  0
 45115  1  0  0  0
 46116  1  0  0  0
 47117  1  0  0  0
 47118  1  0  0  0
 48 56  1  0  0  0
 48 65  1  0  0  0
 48119  1  0  0  0
 49 50  1  0  0  0
 49 53  1  0  0  0
 49 64  1  0  0  0
 49120  1  0  0  0
 50 51  1  0  0  0
 50121  1  0  0  0
 50122  1  0  0  0
 51 52  1  0  0  0
 51123  1  0  0  0
 51124  1  0  0  0
 52125  1  0  0  0
 52126  1  0  0  0
 53 54  1  0  0  0
 54 55  2  0  0  0
 54127  1  0  0  0
 55 57  1  0  0  0
 55128  1  0  0  0
 56 69  2  0  0  0
 57 58  2  0  0  0
 57129  1  0  0  0
 58130  1  0  0  0
 59 60  1  0  0  0
 59 61  1  0  0  0
 59 62  1  0  0  0
 60131  1  0  0  0
 60132  1  0  0  0
 60133  1  0  0  0
 61134  1  0  0  0
 61135  1  0  0  0
 61136  1  0  0  0
 62137  1  0  0  0
 62138  1  0  0  0
 62139  1  0  0  0
 63 65  1  0  0  0
 63140  1  0  0  0
 63141  1  0  0  0
 63142  1  0  0  0
 64143  1  0  0  0
 65144  1  0  0  0
 68 80  1  0  0  0
 71 82  1  0  0  0
 71 85  2  0  0  0
 71 75  1  0  0  0
 72 75  1  0  0  0
 72 76  1  0  0  0
 72145  1  0  0  0
 72146  1  0  0  0
 73 75  1  0  0  0
 73 81  1  0  0  0
 73147  1  0  0  0
 73148  1  0  0  0
 74 76  1  0  0  0
 74 81  1  0  0  0
 74149  1  0  0  0
 74150  1  0  0  0
 75151  1  0  0  0
 76 84  1  0  0  0
 76152  1  0  0  0
 77 79  1  0  0  0
 77 83  1  0  0  0
 77153  1  0  0  0
 77154  1  0  0  0
 78 80  1  0  0  0
 78 82  1  0  0  0
 78155  1  0  0  0
 78156  1  0  0  0
 79 84  1  0  0  0
 79157  1  0  0  0
 79158  1  0  0  0
 80159  1  0  0  0
 80160  1  0  0  0
 81161  1  0  0  0
 82162  1  0  0  0
 83163  1  0  0  0
 84164  1  0  0  0
 84165  1  0  0  0
M  CHG  1  84   1
M  ISO  4   1 100  68 101  80 101  83 100
M  END
> <chiral flag>
0

> <version>
0

> <s_m_source_file>
/data/baiqing/PycharmProjects/Reinvent-master-3.2/result/LINK_invent/BTK/process_docking_weight1_custom_sum_contain_oxygen_bond_distance_aromatic_linkinvent_7_9_3/rearranged_h_0131.sdf

> <i_m_source_file_index>
83

> <r_mmod_Potential_Energy-OPLS-2005>
10344.09375

> <r_mmod_Stretch_Energy-OPLS-2005>
5446.46240234375

> <r_mmod_Bend_Energy-OPLS-2005>
1330.98046875

> <r_mmod_Torsional_Energy-OPLS-2005>
553.891174316406

> <r_mmod_Improper_Torsional_Energy-OPLS-2005>
24.9664402008057

> <r_mmod_Van_der_Waal_Energy-OPLS-2005>
2130.21826171875

> <r_mmod_Electrostatic_Energy-OPLS-2005>
-318.601379394531

> <r_mmod_Solvation_Energy-OPLS-2005>
-540.47509765625

> <b_mmod_Minimization_Converged-OPLS-2005>
0

> <r_mmod_RMS_Derivative-OPLS-2005>
1.23116016387939

$$$$
83
                    3D
 Structure written by MMmdl.
165174  0  0  1  0            999 V2000
  -30.7070  -14.4400   20.4854 C   0  0  0  0  0  0
  -30.4070  -12.2518   19.4247 C   0  0  0  0  0  0
  -29.4800  -12.4594   18.2090 C   0  0  0  0  0  0
  -28.0030  -12.3302   18.6270 C   0  0  0  0  0  0
  -27.6563  -13.1971   19.8676 C   0  0  2  0  0  0
  -28.7010  -13.0039   20.9920 C   0  0  0  0  0  0
  -25.2564  -13.8145   20.5673 C   0  0  0  0  0  0
  -24.1828  -13.0433   20.9177 C   0  0  0  0  0  0
  -24.6379  -11.6908   20.8763 C   0  0  0  0  0  0
  -23.9056  -10.4299   21.0431 C   0  0  0  0  0  0
  -24.3609   -9.4196   21.9193 C   0  0  0  0  0  0
  -23.6283   -8.2230   22.0763 C   0  0  0  0  0  0
  -22.4259   -8.0282   21.3554 C   0  0  0  0  0  0
  -21.9902   -9.0261   20.4656 C   0  0  0  0  0  0
  -22.7233  -10.2139   20.3075 C   0  0  0  0  0  0
  -21.6847   -6.0737   22.5281 C   0  0  0  0  0  0
  -21.4016   -6.5657   23.8215 C   0  0  0  0  0  0
  -21.3645   -5.6804   24.9176 C   0  0  0  0  0  0
  -21.6036   -4.3067   24.7227 C   0  0  0  0  0  0
  -21.8807   -3.8159   23.4351 C   0  0  0  0  0  0
  -21.9183   -4.6964   22.3407 C   0  0  0  0  0  0
  -22.7850  -13.5235   21.1848 C   0  0  0  0  0  0
  -22.1652   -4.2164   21.0980 F   0  0  0  0  0  0
  -21.5618   -3.4551   25.7734 F   0  0  0  0  0  0
  -30.0365  -13.2617   20.4284 N   0  0  0  0  0  0
  -26.2989  -12.9306   20.3356 N   0  0  0  0  0  0
  -25.9291  -11.6474   20.5812 N   0  0  0  0  0  0
  -22.0498  -12.8234   22.0420 N   0  0  0  0  0  0
  -25.4303  -15.1858   20.4042 N   0  0  0  0  0  0
  -31.8839  -14.5583   20.1345 O   0  0  0  0  0  0
  -21.6615   -6.8884   21.4256 O   0  0  0  0  0  0
  -22.3532  -14.5562   20.6730 O   0  0  0  0  0  0
  -24.6107  -31.8740   23.2172 C   0  0  0  0  0  0
  -25.9031  -32.4841   23.8452 C   0  0  1  0  0  0
  -27.2316  -27.4695   20.0922 C   0  0  0  0  0  0
  -25.5918  -33.8643   24.2390 N   0  0  0  0  0  0
  -23.3988  -30.4963   21.5576 C   0  0  2  0  0  0
  -24.8440  -28.9585   20.1303 C   0  0  0  0  0  0
  -22.7391  -29.4701   22.5051 C   0  0  0  0  0  0
  -18.0279  -28.1372   22.8486 C   0  0  0  0  0  0
  -24.1487  -36.7317   23.2641 C   0  0  0  0  0  0
  -25.9241  -30.8416   21.3693 C   0  0  0  0  0  0
  -26.0015  -29.4739   20.7290 C   0  0  0  0  0  0
  -27.1998  -28.7310   20.7216 C   0  0  0  0  0  0
  -26.0663  -26.9608   19.4860 C   0  0  0  0  0  0
  -24.8671  -27.6954   19.5135 C   0  0  0  0  0  0
  -23.6064  -29.8245   20.1745 C   0  0  0  0  0  0
  -25.4103  -36.3123   24.0354 C   0  0  1  0  0  0
  -20.5861  -28.3672   23.1331 C   0  0  2  0  0  0
  -20.6783  -26.9419   22.5412 C   0  0  0  0  0  0
  -19.5756  -26.6394   21.5211 C   0  0  0  0  0  0
  -18.1933  -26.7922   22.1612 C   0  0  0  0  0  0
  -19.1522  -28.8842   23.2902 C   0  0  0  0  0  0
  -18.9438  -30.1449   23.8910 C   0  0  0  0  0  0
  -17.6438  -30.6584   24.0560 C   0  0  0  0  0  0
  -25.9026  -34.9485   23.5159 C   0  0  0  0  0  0
  -16.5335  -29.9078   23.6323 C   0  0  0  0  0  0
  -16.7266  -28.6490   23.0353 C   0  0  0  0  0  0
  -26.4475  -31.6583   25.0741 C   0  0  0  0  0  0
  -25.3776  -31.3645   26.1507 C   0  0  0  0  0  0
  -27.0299  -30.3040   24.6067 C   0  0  0  0  0  0
  -27.6079  -32.4286   25.7468 C   0  0  0  0  0  0
  -27.5584  -37.1820   24.8476 C   0  0  0  0  0  0
  -21.4128  -29.3040   22.3742 N   0  0  0  0  0  0
  -26.4288  -37.3798   23.9414 N   0  0  0  0  0  0
  -24.6628  -31.0851   22.1064 N   0  0  0  0  0  0
  -23.4163  -28.8261   23.3107 O   0  0  0  0  0  0
  -28.3840  -26.7455   19.9661 O   0  0  0  0  0  0
  -26.5554  -34.8916   22.4699 O   0  0  0  0  0  0
  -23.5301  -32.1488   23.7581 O   0  0  0  0  0  0
  -31.0891  -18.5934   18.8990 C   0  0  0  0  0  0
  -29.1615  -19.1348   20.2782 C   0  0  0  0  0  0
  -31.0420  -17.2622   19.3515 C   0  0  0  0  0  0
  -29.1095  -17.7956   20.7270 C   0  0  0  0  0  0
  -30.1522  -19.5374   19.3587 C   0  0  0  0  0  0
  -30.0566  -16.8458   20.2832 C   0  0  0  0  0  0
  -32.3858  -23.7667   19.8384 C   0  0  0  0  0  0
  -31.6309  -22.9548   18.7845 C   0  0  0  0  0  0
  -30.9305  -22.1114   20.8588 C   0  0  0  0  0  0
  -31.6737  -23.4305   21.1575 C   0  0  2  0  0  0
  -30.2359  -20.9624   18.8399 C   0  0  0  0  0  0
  -29.7630  -25.0102   20.6612 C   0  0  0  0  0  0
  -28.9412  -26.2104   21.1569 C   0  0  0  0  0  0
  -31.3006  -21.7236   19.4944 N   0  0  0  0  0  0
  -29.9361  -15.5051   20.7686 N   0  0  0  0  0  0
  -30.7656  -24.5127   21.6372 N   0  3  0  0  0  0
  -31.4522  -12.3257   19.1195 H   0  0  0  0  0  0
  -30.2787  -11.2475   19.8343 H   0  0  0  0  0  0
  -29.7099  -11.7281   17.4338 H   0  0  0  0  0  0
  -29.6488  -13.4408   17.7623 H   0  0  0  0  0  0
  -27.8184  -11.2771   18.8483 H   0  0  0  0  0  0
  -27.3464  -12.5862   17.7951 H   0  0  0  0  0  0
  -27.6962  -14.2353   19.5425 H   0  0  0  0  0  0
  -28.6569  -11.9869   21.3808 H   0  0  0  0  0  0
  -28.4816  -13.6538   21.8404 H   0  0  0  0  0  0
  -25.2746   -9.5659   22.4762 H   0  0  0  0  0  0
  -23.9978   -7.4626   22.7483 H   0  0  0  0  0  0
  -21.0827   -8.8793   19.8969 H   0  0  0  0  0  0
  -22.3691  -10.9687   19.6198 H   0  0  0  0  0  0
  -21.2028   -7.6168   23.9733 H   0  0  0  0  0  0
  -21.1474   -6.0537   25.9085 H   0  0  0  0  0  0
  -22.0597   -2.7627   23.2850 H   0  0  0  0  0  0
  -22.4141  -11.9873   22.4741 H   0  0  0  0  0  0
  -21.1149  -13.1318   22.2728 H   0  0  0  0  0  0
  -24.6647  -15.8396   20.5182 H   0  0  0  0  0  0
  -26.2773  -15.6228   20.0650 H   0  0  0  0  0  0
  -26.7097  -32.5578   23.1217 H   0  0  0  0  0  0
  -25.0167  -33.9807   25.0601 H   0  0  0  0  0  0
  -22.6869  -31.3118   21.4201 H   0  0  0  0  0  0
  -23.3733  -35.9666   23.3322 H   0  0  0  0  0  0
  -24.3603  -36.8901   22.2054 H   0  0  0  0  0  0
  -23.7223  -37.6533   23.6616 H   0  0  0  0  0  0
  -26.0300  -31.6017   20.5948 H   0  0  0  0  0  0
  -26.8147  -30.9046   21.9824 H   0  0  0  0  0  0
  -28.0987  -29.1345   21.1667 H   0  0  0  0  0  0
  -26.0919  -26.0013   18.9881 H   0  0  0  0  0  0
  -23.9775  -27.2968   19.0470 H   0  0  0  0  0  0
  -23.7149  -30.5988   19.4140 H   0  0  0  0  0  0
  -22.7288  -29.2454   19.8785 H   0  0  0  0  0  0
  -25.1258  -36.2023   25.0840 H   0  0  0  0  0  0
  -20.9943  -28.3233   24.1452 H   0  0  0  0  0  0
  -20.5731  -26.2266   23.3584 H   0  0  0  0  0  0
  -21.6650  -26.7495   22.1173 H   0  0  0  0  0  0
  -19.6934  -25.6315   21.1226 H   0  0  0  0  0  0
  -19.6698  -27.3213   20.6756 H   0  0  0  0  0  0
  -17.4211  -26.6684   21.4007 H   0  0  0  0  0  0
  -18.0328  -26.0055   22.8996 H   0  0  0  0  0  0
  -19.7919  -30.7273   24.2268 H   0  0  0  0  0  0
  -17.4994  -31.6263   24.5160 H   0  0  0  0  0  0
  -15.5335  -30.2974   23.7665 H   0  0  0  0  0  0
  -15.8661  -28.0817   22.7060 H   0  0  0  0  0  0
  -24.5943  -30.6995   25.7833 H   0  0  0  0  0  0
  -24.8966  -32.2779   26.5025 H   0  0  0  0  0  0
  -25.8170  -30.8757   27.0217 H   0  0  0  0  0  0
  -26.2819  -29.6794   24.1163 H   0  0  0  0  0  0
  -27.4137  -29.7261   25.4485 H   0  0  0  0  0  0
  -27.8621  -30.4364   23.9150 H   0  0  0  0  0  0
  -27.2730  -33.3562   26.2112 H   0  0  0  0  0  0
  -28.3833  -32.6896   25.0253 H   0  0  0  0  0  0
  -28.0814  -31.8380   26.5320 H   0  0  0  0  0  0
  -28.2614  -38.0108   24.7507 H   0  0  0  0  0  0
  -28.1062  -36.2639   24.6305 H   0  0  0  0  0  0
  -27.2312  -37.1485   25.8884 H   0  0  0  0  0  0
  -20.9320  -29.8646   21.6845 H   0  0  0  0  0  0
  -26.0198  -38.2881   24.1400 H   0  0  0  0  0  0
  -31.8482  -18.8913   18.1895 H   0  0  0  0  0  0
  -28.4362  -19.8500   20.6372 H   0  0  0  0  0  0
  -31.7721  -16.5839   18.9404 H   0  0  0  0  0  0
  -28.3304  -17.5025   21.4164 H   0  0  0  0  0  0
  -32.4343  -24.8323   19.6093 H   0  0  0  0  0  0
  -33.4193  -23.4221   19.8840 H   0  0  0  0  0  0
  -32.2410  -22.7693   17.8977 H   0  0  0  0  0  0
  -30.7275  -23.4752   18.4641 H   0  0  0  0  0  0
  -29.8517  -22.2504   20.9349 H   0  0  0  0  0  0
  -31.1915  -21.3232   21.5648 H   0  0  0  0  0  0
  -32.4193  -23.2528   21.9323 H   0  0  0  0  0  0
  -29.2713  -21.4641   18.9408 H   0  0  0  0  0  0
  -30.4290  -20.9057   17.7686 H   0  0  0  0  0  0
  -29.0785  -24.2149   20.3675 H   0  0  0  0  0  0
  -30.2746  -25.3326   19.7563 H   0  0  0  0  0  0
  -29.5677  -26.9640   21.6353 H   0  0  0  0  0  0
  -28.1755  -25.8913   21.8678 H   0  0  0  0  0  0
  -29.0550  -15.2703   21.1973 H   0  0  0  0  0  0
  -31.3393  -25.2860   21.9455 H   0  0  0  0  0  0
  -30.2914  -24.1707   22.4588 H   0  0  0  0  0  0
  1 25  1  0  0  0
  1 30  2  0  0  0
  1 85  1  0  0  0
  2  3  1  0  0  0
  2 25  1  0  0  0
  2 87  1  0  0  0
  2 88  1  0  0  0
  3  4  1  0  0  0
  3 89  1  0  0  0
  3 90  1  0  0  0
  4  5  1  0  0  0
  4 91  1  0  0  0
  4 92  1  0  0  0
  5  6  1  0  0  0
  5 26  1  0  0  0
  5 93  1  0  0  0
  6 25  1  0  0  0
  6 94  1  0  0  0
  6 95  1  0  0  0
  7  8  2  0  0  0
  7 26  1  0  0  0
  7 29  1  0  0  0
  8  9  1  0  0  0
  8 22  1  0  0  0
  9 10  1  0  0  0
  9 27  2  0  0  0
 10 11  2  0  0  0
 10 15  1  0  0  0
 11 12  1  0  0  0
 11 96  1  0  0  0
 12 13  2  0  0  0
 12 97  1  0  0  0
 13 14  1  0  0  0
 13 31  1  0  0  0
 14 15  2  0  0  0
 14 98  1  0  0  0
 15 99  1  0  0  0
 16 17  2  0  0  0
 16 21  1  0  0  0
 16 31  1  0  0  0
 17 18  1  0  0  0
 17100  1  0  0  0
 18 19  2  0  0  0
 18101  1  0  0  0
 19 20  1  0  0  0
 19 24  1  0  0  0
 20 21  2  0  0  0
 20102  1  0  0  0
 21 23  1  0  0  0
 22 28  1  0  0  0
 22 32  2  0  0  0
 26 27  1  0  0  0
 28103  1  0  0  0
 28104  1  0  0  0
 29105  1  0  0  0
 29106  1  0  0  0
 33 34  1  0  0  0
 33 66  1  0  0  0
 33 70  2  0  0  0
 34 36  1  0  0  0
 34 59  1  0  0  0
 34107  1  0  0  0
 35 44  2  0  0  0
 35 45  1  0  0  0
 35 68  1  0  0  0
 36 56  1  0  0  0
 36108  1  0  0  0
 37 39  1  0  0  0
 37 47  1  0  0  0
 37 66  1  0  0  0
 37109  1  0  0  0
 38 43  2  0  0  0
 38 46  1  0  0  0
 38 47  1  0  0  0
 39 64  1  0  0  0
 39 67  2  0  0  0
 40 52  1  0  0  0
 40 53  2  0  0  0
 40 58  1  0  0  0
 41110  1  0  0  0
 41111  1  0  0  0
 41112  1  0  0  0
 41 48  1  0  0  0
 42 43  1  0  0  0
 42 66  1  0  0  0
 42113  1  0  0  0
 42114  1  0  0  0
 43 44  1  0  0  0
 44115  1  0  0  0
 45 46  2  0  0  0
 45116  1  0  0  0
 46117  1  0  0  0
 47118  1  0  0  0
 47119  1  0  0  0
 48 56  1  0  0  0
 48 65  1  0  0  0
 48120  1  0  0  0
 49 50  1  0  0  0
 49 53  1  0  0  0
 49 64  1  0  0  0
 49121  1  0  0  0
 50 51  1  0  0  0
 50122  1  0  0  0
 50123  1  0  0  0
 51 52  1  0  0  0
 51124  1  0  0  0
 51125  1  0  0  0
 52126  1  0  0  0
 52127  1  0  0  0
 53 54  1  0  0  0
 54 55  2  0  0  0
 54128  1  0  0  0
 55 57  1  0  0  0
 55129  1  0  0  0
 56 69  2  0  0  0
 57 58  2  0  0  0
 57130  1  0  0  0
 58131  1  0  0  0
 59 60  1  0  0  0
 59 61  1  0  0  0
 59 62  1  0  0  0
 60132  1  0  0  0
 60133  1  0  0  0
 60134  1  0  0  0
 61135  1  0  0  0
 61136  1  0  0  0
 61137  1  0  0  0
 62138  1  0  0  0
 62139  1  0  0  0
 62140  1  0  0  0
 63 65  1  0  0  0
 63141  1  0  0  0
 63142  1  0  0  0
 63143  1  0  0  0
 64144  1  0  0  0
 65145  1  0  0  0
 68 83  1  0  0  0
 71 73  2  0  0  0
 71 75  1  0  0  0
 71146  1  0  0  0
 72 74  1  0  0  0
 72 75  2  0  0  0
 72147  1  0  0  0
 73 76  1  0  0  0
 73148  1  0  0  0
 74 76  2  0  0  0
 74149  1  0  0  0
 75 81  1  0  0  0
 76 85  1  0  0  0
 77 78  1  0  0  0
 77 80  1  0  0  0
 77150  1  0  0  0
 77151  1  0  0  0
 78 84  1  0  0  0
 78152  1  0  0  0
 78153  1  0  0  0
 79 80  1  0  0  0
 79 84  1  0  0  0
 79154  1  0  0  0
 79155  1  0  0  0
 80 86  1  0  0  0
 80156  1  0  0  0
 81 84  1  0  0  0
 81157  1  0  0  0
 81158  1  0  0  0
 82 83  1  0  0  0
 82 86  1  0  0  0
 82159  1  0  0  0
 82160  1  0  0  0
 83161  1  0  0  0
 83162  1  0  0  0
 85163  1  0  0  0
 86164  1  0  0  0
 86165  1  0  0  0
M  CHG  1  86   1
M  ISO  4   1 100  68 101  83 101  85 100
M  END
> <chiral flag>
0

> <version>
0

> <s_m_source_file>
/data/baiqing/PycharmProjects/Reinvent-master-3.2/result/LINK_invent/BTK/process_docking_weight1_custom_sum_contain_oxygen_bond_distance_aromatic_linkinvent_7_9_3/rearranged_h_0131.sdf

> <i_m_source_file_index>
84

> <r_mmod_Potential_Energy-OPLS-2005>
-78.1455307006836

> <r_mmod_Stretch_Energy-OPLS-2005>
33.4037055969238

> <r_mmod_Bend_Energy-OPLS-2005>
116.135681152344

> <r_mmod_Torsional_Energy-OPLS-2005>
316.766662597656

> <r_mmod_Improper_Torsional_Energy-OPLS-2005>
5.25633096694946

> <r_mmod_Van_der_Waal_Energy-OPLS-2005>
157.545150756836

> <r_mmod_Electrostatic_Energy-OPLS-2005>
-257.913391113281

> <r_mmod_Solvation_Energy-OPLS-2005>
-464.473999023438

> <b_mmod_Minimization_Converged-OPLS-2005>
0

> <r_mmod_RMS_Derivative-OPLS-2005>
3.57380986213684

$$$$
84
                    3D
 Structure written by MMmdl.
177186  0  0  1  0            999 V2000
  -30.6907  -14.4111   20.6315 C   0  0  0  0  0  0
  -30.4332  -12.2912   19.3981 C   0  0  0  0  0  0
  -29.4914  -12.5122   18.1951 C   0  0  0  0  0  0
  -28.0123  -12.3700   18.6098 C   0  0  0  0  0  0
  -27.6678  -13.1890   19.8812 C   0  0  2  0  0  0
  -28.7061  -12.9074   20.9905 C   0  0  0  0  0  0
  -25.2629  -13.8118   20.5664 C   0  0  0  0  0  0
  -24.1856  -13.0433   20.9170 C   0  0  0  0  0  0
  -24.6380  -11.6891   20.8736 C   0  0  0  0  0  0
  -23.9041  -10.4290   21.0415 C   0  0  0  0  0  0
  -24.3599   -9.4209   21.9190 C   0  0  0  0  0  0
  -23.6285   -8.2239   22.0754 C   0  0  0  0  0  0
  -22.4270   -8.0277   21.3544 C   0  0  0  0  0  0
  -21.9900   -9.0253   20.4646 C   0  0  0  0  0  0
  -22.7220  -10.2133   20.3061 C   0  0  0  0  0  0
  -21.6852   -6.0737   22.5278 C   0  0  0  0  0  0
  -21.4011   -6.5639   23.8213 C   0  0  0  0  0  0
  -21.3657   -5.6788   24.9175 C   0  0  0  0  0  0
  -21.6044   -4.3056   24.7222 C   0  0  0  0  0  0
  -21.8820   -3.8150   23.4343 C   0  0  0  0  0  0
  -21.9192   -4.6964   22.3402 C   0  0  0  0  0  0
  -22.7886  -13.5257   21.1835 C   0  0  0  0  0  0
  -22.1665   -4.2156   21.0979 F   0  0  0  0  0  0
  -21.5625   -3.4537   25.7735 F   0  0  0  0  0  0
  -30.0442  -13.2314   20.4566 N   0  0  0  0  0  0
  -26.3049  -12.9255   20.3374 N   0  0  0  0  0  0
  -25.9295  -11.6437   20.5762 N   0  0  0  0  0  0
  -22.0510  -12.8254   22.0383 N   0  0  0  0  0  0
  -25.4400  -15.1831   20.4064 N   0  0  0  0  0  0
  -31.7709  -14.6947   20.1069 O   0  0  0  0  0  0
  -21.6639   -6.8875   21.4239 O   0  0  0  0  0  0
  -22.3590  -14.5578   20.6694 O   0  0  0  0  0  0
  -24.6129  -31.8721   23.2103 C   0  0  0  0  0  0
  -25.9023  -32.4853   23.8395 C   0  0  1  0  0  0
  -27.2283  -27.4485   20.1002 C   0  0  0  0  0  0
  -25.5895  -33.8642   24.2337 N   0  0  0  0  0  0
  -23.3988  -30.4971   21.5495 C   0  0  2  0  0  0
  -24.8445  -28.9620   20.1145 C   0  0  0  0  0  0
  -22.7390  -29.4705   22.4987 C   0  0  0  0  0  0
  -18.0286  -28.1373   22.8509 C   0  0  0  0  0  0
  -24.1492  -36.7298   23.2633 C   0  0  0  0  0  0
  -25.9270  -30.8395   21.3620 C   0  0  0  0  0  0
  -26.0041  -29.4752   20.7110 C   0  0  0  0  0  0
  -27.2018  -28.7261   20.7015 C   0  0  0  0  0  0
  -26.0563  -26.9495   19.4915 C   0  0  0  0  0  0
  -24.8638  -27.6968   19.5018 C   0  0  0  0  0  0
  -23.6058  -29.8280   20.1643 C   0  0  0  0  0  0
  -25.4118  -36.3133   24.0347 C   0  0  1  0  0  0
  -20.5875  -28.3667   23.1318 C   0  0  2  0  0  0
  -20.6803  -26.9410   22.5421 C   0  0  0  0  0  0
  -19.5786  -26.6396   21.5215 C   0  0  0  0  0  0
  -18.1947  -26.7929   22.1614 C   0  0  0  0  0  0
  -19.1536  -28.8835   23.2921 C   0  0  0  0  0  0
  -18.9465  -30.1438   23.8936 C   0  0  0  0  0  0
  -17.6479  -30.6590   24.0572 C   0  0  0  0  0  0
  -25.9053  -34.9499   23.5147 C   0  0  0  0  0  0
  -16.5366  -29.9098   23.6326 C   0  0  0  0  0  0
  -16.7279  -28.6501   23.0378 C   0  0  0  0  0  0
  -26.4454  -31.6621   25.0708 C   0  0  0  0  0  0
  -25.3717  -31.3728   26.1458 C   0  0  0  0  0  0
  -27.0271  -30.3075   24.6043 C   0  0  0  0  0  0
  -27.6043  -32.4329   25.7457 C   0  0  0  0  0  0
  -27.5593  -37.1819   24.8469 C   0  0  0  0  0  0
  -21.4129  -29.3045   22.3714 N   0  0  0  0  0  0
  -26.4306  -37.3817   23.9410 N   0  0  0  0  0  0
  -24.6635  -31.0837   22.0979 N   0  0  0  0  0  0
  -23.4169  -28.8266   23.3043 O   0  0  0  0  0  0
  -28.3792  -26.6953   20.1093 O   0  0  0  0  0  0
  -26.5604  -34.8942   22.4703 O   0  0  0  0  0  0
  -23.5326  -32.1469   23.7508 O   0  0  0  0  0  0
  -34.6435  -18.0541   20.6737 C   0  0  0  0  0  0
  -33.4556  -18.8930   20.1775 C   0  0  0  0  0  0
  -34.4980  -18.7195   22.0524 C   0  0  0  0  0  0
  -31.1726  -18.8376   24.3257 C   0  0  0  0  0  0
  -30.7800  -17.4478   24.8377 C   0  0  0  0  0  0
  -30.7537  -18.7831   22.8499 C   0  0  2  0  0  0
  -33.7287  -19.8512   21.3544 C   0  0  0  0  0  0
  -31.0567  -17.3139   22.4454 C   0  0  2  0  0  0
  -30.1444  -16.7621   21.3237 C   0  0  0  0  0  0
  -29.4226  -24.5087   20.6177 C   0  0  0  0  0  0
  -29.2774  -23.2281   21.4664 C   0  0  0  0  0  0
  -30.2567  -21.1966   22.2372 C   0  0  0  0  0  0
  -28.2469  -25.4756   20.8504 C   0  0  0  0  0  0
  -31.1864  -19.9863   21.9349 C   0  0  1  0  0  0
  -29.9863  -15.3066   21.3378 N   0  0  0  0  0  0
  -30.4349  -22.3396   21.3312 N   0  0  0  0  0  0
  -30.9437  -16.5275   23.6957 N   0  3  0  0  0  0
  -32.5908  -20.4465   22.1129 N   0  3  0  0  0  0
  -31.4741  -12.4185   19.0933 H   0  0  0  0  0  0
  -30.3538  -11.2666   19.7645 H   0  0  0  0  0  0
  -29.7251  -11.8018   17.4007 H   0  0  0  0  0  0
  -29.6593  -13.5047   17.7739 H   0  0  0  0  0  0
  -27.8166  -11.3114   18.7889 H   0  0  0  0  0  0
  -27.3602  -12.6614   17.7857 H   0  0  0  0  0  0
  -27.7319  -14.2438   19.6141 H   0  0  0  0  0  0
  -28.6778  -11.8531   21.2692 H   0  0  0  0  0  0
  -28.4557  -13.4425   21.9077 H   0  0  0  0  0  0
  -25.2743   -9.5692   22.4766 H   0  0  0  0  0  0
  -24.0003   -7.4630   22.7467 H   0  0  0  0  0  0
  -21.0834   -8.8765   19.8953 H   0  0  0  0  0  0
  -22.3678  -10.9672   19.6170 H   0  0  0  0  0  0
  -21.2004   -7.6149   23.9716 H   0  0  0  0  0  0
  -21.1475   -6.0523   25.9078 H   0  0  0  0  0  0
  -22.0599   -2.7615   23.2839 H   0  0  0  0  0  0
  -22.4089  -11.9894   22.4760 H   0  0  0  0  0  0
  -21.1136  -13.1298   22.2583 H   0  0  0  0  0  0
  -24.6749  -15.8420   20.5059 H   0  0  0  0  0  0
  -26.2913  -15.6147   20.0686 H   0  0  0  0  0  0
  -26.7074  -32.5571   23.1147 H   0  0  0  0  0  0
  -25.0096  -33.9807   25.0515 H   0  0  0  0  0  0
  -22.6883  -31.3149   21.4128 H   0  0  0  0  0  0
  -23.3785  -35.9599   23.3327 H   0  0  0  0  0  0
  -24.3588  -36.8880   22.2039 H   0  0  0  0  0  0
  -23.7210  -37.6497   23.6625 H   0  0  0  0  0  0
  -26.0428  -31.6041   20.5921 H   0  0  0  0  0  0
  -26.8135  -30.8921   21.9807 H   0  0  0  0  0  0
  -28.0948  -29.1147   21.1704 H   0  0  0  0  0  0
  -26.0621  -25.9827   19.0072 H   0  0  0  0  0  0
  -23.9726  -27.2992   19.0347 H   0  0  0  0  0  0
  -23.7100  -30.6011   19.4018 H   0  0  0  0  0  0
  -22.7303  -29.2461   19.8723 H   0  0  0  0  0  0
  -25.1313  -36.2007   25.0846 H   0  0  0  0  0  0
  -20.9994  -28.3241   24.1432 H   0  0  0  0  0  0
  -20.5730  -26.2272   23.3601 H   0  0  0  0  0  0
  -21.6669  -26.7494   22.1200 H   0  0  0  0  0  0
  -19.6948  -25.6308   21.1238 H   0  0  0  0  0  0
  -19.6721  -27.3214   20.6751 H   0  0  0  0  0  0
  -17.4239  -26.6708   21.3985 H   0  0  0  0  0  0
  -18.0333  -26.0047   22.8986 H   0  0  0  0  0  0
  -19.7950  -30.7243   24.2320 H   0  0  0  0  0  0
  -17.5044  -31.6278   24.5169 H   0  0  0  0  0  0
  -15.5376  -30.3035   23.7611 H   0  0  0  0  0  0
  -15.8681  -28.0822   22.7102 H   0  0  0  0  0  0
  -24.5886  -30.7082   25.7797 H   0  0  0  0  0  0
  -24.8896  -32.2884   26.4901 H   0  0  0  0  0  0
  -25.8069  -30.8900   27.0216 H   0  0  0  0  0  0
  -26.2789  -29.6858   24.1105 H   0  0  0  0  0  0
  -27.4089  -29.7300   25.4471 H   0  0  0  0  0  0
  -27.8616  -30.4445   23.9156 H   0  0  0  0  0  0
  -27.2683  -33.3629   26.2060 H   0  0  0  0  0  0
  -28.3822  -32.6895   25.0252 H   0  0  0  0  0  0
  -28.0735  -31.8429   26.5343 H   0  0  0  0  0  0
  -28.2655  -38.0084   24.7550 H   0  0  0  0  0  0
  -28.1071  -36.2639   24.6297 H   0  0  0  0  0  0
  -27.2319  -37.1460   25.8874 H   0  0  0  0  0  0
  -20.9277  -29.8702   21.6887 H   0  0  0  0  0  0
  -26.0220  -38.2907   24.1405 H   0  0  0  0  0  0
  -35.5793  -18.3087   20.1715 H   0  0  0  0  0  0
  -34.4687  -16.9768   20.6677 H   0  0  0  0  0  0
  -32.5313  -18.3222   20.2122 H   0  0  0  0  0  0
  -33.6039  -19.3405   19.1932 H   0  0  0  0  0  0
  -35.4436  -19.0324   22.4979 H   0  0  0  0  0  0
  -33.9145  -18.1326   22.7590 H   0  0  0  0  0  0
  -32.2489  -18.9696   24.4340 H   0  0  0  0  0  0
  -30.6754  -19.6318   24.8847 H   0  0  0  0  0  0
  -29.7293  -17.4441   25.1336 H   0  0  0  0  0  0
  -31.3668  -17.1335   25.7022 H   0  0  0  0  0  0
  -29.6628  -18.8255   22.8738 H   0  0  0  0  0  0
  -34.4281  -20.6397   21.0646 H   0  0  0  0  0  0
  -32.0892  -17.2003   22.1292 H   0  0  0  0  0  0
  -30.4969  -17.0971   20.3466 H   0  0  0  0  0  0
  -29.1393  -17.1741   21.4266 H   0  0  0  0  0  0
  -29.4684  -24.2469   19.5597 H   0  0  0  0  0  0
  -30.3562  -25.0174   20.8586 H   0  0  0  0  0  0
  -28.3656  -22.7013   21.1744 H   0  0  0  0  0  0
  -29.1579  -23.5077   22.5151 H   0  0  0  0  0  0
  -30.3734  -21.5282   23.2715 H   0  0  0  0  0  0
  -29.2242  -20.8519   22.1498 H   0  0  0  0  0  0
  -28.1875  -25.7276   21.9105 H   0  0  0  0  0  0
  -27.3215  -24.9509   20.6096 H   0  0  0  0  0  0
  -31.0044  -19.7269   20.8919 H   0  0  0  0  0  0
  -29.1065  -14.9512   21.6855 H   0  0  0  0  0  0
  -31.2429  -22.8973   21.5963 H   0  0  0  0  0  0
  -30.1568  -15.9010   23.6468 H   0  0  0  0  0  0
  -31.7740  -15.9703   23.8220 H   0  0  0  0  0  0
  -32.5296  -21.3835   21.7444 H   0  0  0  0  0  0
  -32.8278  -20.5645   23.0854 H   0  0  0  0  0  0
  1 25  1  0  0  0
  1 30  2  0  0  0
  1 85  1  0  0  0
  2  3  1  0  0  0
  2 25  1  0  0  0
  2 89  1  0  0  0
  2 90  1  0  0  0
  3  4  1  0  0  0
  3 91  1  0  0  0
  3 92  1  0  0  0
  4  5  1  0  0  0
  4 93  1  0  0  0
  4 94  1  0  0  0
  5  6  1  0  0  0
  5 26  1  0  0  0
  5 95  1  0  0  0
  6 25  1  0  0  0
  6 96  1  0  0  0
  6 97  1  0  0  0
  7  8  2  0  0  0
  7 26  1  0  0  0
  7 29  1  0  0  0
  8  9  1  0  0  0
  8 22  1  0  0  0
  9 10  1  0  0  0
  9 27  2  0  0  0
 10 11  2  0  0  0
 10 15  1  0  0  0
 11 12  1  0  0  0
 11 98  1  0  0  0
 12 13  2  0  0  0
 12 99  1  0  0  0
 13 14  1  0  0  0
 13 31  1  0  0  0
 14 15  2  0  0  0
 14100  1  0  0  0
 15101  1  0  0  0
 16 17  2  0  0  0
 16 21  1  0  0  0
 16 31  1  0  0  0
 17 18  1  0  0  0
 17102  1  0  0  0
 18 19  2  0  0  0
 18103  1  0  0  0
 19 20  1  0  0  0
 19 24  1  0  0  0
 20 21  2  0  0  0
 20104  1  0  0  0
 21 23  1  0  0  0
 22 28  1  0  0  0
 22 32  2  0  0  0
 26 27  1  0  0  0
 28105  1  0  0  0
 28106  1  0  0  0
 29107  1  0  0  0
 29108  1  0  0  0
 33 34  1  0  0  0
 33 66  1  0  0  0
 33 70  2  0  0  0
 34 36  1  0  0  0
 34 59  1  0  0  0
 34109  1  0  0  0
 35 44  2  0  0  0
 35 45  1  0  0  0
 35 68  1  0  0  0
 36 56  1  0  0  0
 36110  1  0  0  0
 37 39  1  0  0  0
 37 47  1  0  0  0
 37 66  1  0  0  0
 37111  1  0  0  0
 38 43  2  0  0  0
 38 46  1  0  0  0
 38 47  1  0  0  0
 39 64  1  0  0  0
 39 67  2  0  0  0
 40 52  1  0  0  0
 40 53  2  0  0  0
 40 58  1  0  0  0
 41112  1  0  0  0
 41113  1  0  0  0
 41114  1  0  0  0
 41 48  1  0  0  0
 42 43  1  0  0  0
 42 66  1  0  0  0
 42115  1  0  0  0
 42116  1  0  0  0
 43 44  1  0  0  0
 44117  1  0  0  0
 45 46  2  0  0  0
 45118  1  0  0  0
 46119  1  0  0  0
 47120  1  0  0  0
 47121  1  0  0  0
 48 56  1  0  0  0
 48 65  1  0  0  0
 48122  1  0  0  0
 49 50  1  0  0  0
 49 53  1  0  0  0
 49 64  1  0  0  0
 49123  1  0  0  0
 50 51  1  0  0  0
 50124  1  0  0  0
 50125  1  0  0  0
 51 52  1  0  0  0
 51126  1  0  0  0
 51127  1  0  0  0
 52128  1  0  0  0
 52129  1  0  0  0
 53 54  1  0  0  0
 54 55  2  0  0  0
 54130  1  0  0  0
 55 57  1  0  0  0
 55131  1  0  0  0
 56 69  2  0  0  0
 57 58  2  0  0  0
 57132  1  0  0  0
 58133  1  0  0  0
 59 60  1  0  0  0
 59 61  1  0  0  0
 59 62  1  0  0  0
 60134  1  0  0  0
 60135  1  0  0  0
 60136  1  0  0  0
 61137  1  0  0  0
 61138  1  0  0  0
 61139  1  0  0  0
 62140  1  0  0  0
 62141  1  0  0  0
 62142  1  0  0  0
 63 65  1  0  0  0
 63143  1  0  0  0
 63144  1  0  0  0
 63145  1  0  0  0
 64146  1  0  0  0
 65147  1  0  0  0
 68 83  1  0  0  0
 71 72  1  0  0  0
 71 73  1  0  0  0
 71148  1  0  0  0
 71149  1  0  0  0
 72 77  1  0  0  0
 72150  1  0  0  0
 72151  1  0  0  0
 73 77  1  0  0  0
 73152  1  0  0  0
 73153  1  0  0  0
 74 75  1  0  0  0
 74154  1  0  0  0
 74155  1  0  0  0
 74 76  1  0  0  0
 75 87  1  0  0  0
 75156  1  0  0  0
 75157  1  0  0  0
 76 78  1  0  0  0
 76 84  1  0  0  0
 76158  1  0  0  0
 77 88  1  0  0  0
 77159  1  0  0  0
 78 79  1  0  0  0
 78 87  1  0  0  0
 78160  1  0  0  0
 79 85  1  0  0  0
 79161  1  0  0  0
 79162  1  0  0  0
 80 81  1  0  0  0
 80 83  1  0  0  0
 80163  1  0  0  0
 80164  1  0  0  0
 81 86  1  0  0  0
 81165  1  0  0  0
 81166  1  0  0  0
 82 86  1  0  0  0
 82167  1  0  0  0
 82168  1  0  0  0
 82 84  1  0  0  0
 83169  1  0  0  0
 83170  1  0  0  0
 84 88  1  0  0  0
 84171  1  0  0  0
 85172  1  0  0  0
 86173  1  0  0  0
 87174  1  0  0  0
 87175  1  0  0  0
 88176  1  0  0  0
 88177  1  0  0  0
M  CHG  2  87   1  88   1
M  ISO  4   1 100  68 101  83 101  85 100
M  END
> <chiral flag>
0

> <version>
0

> <s_m_source_file>
/data/baiqing/PycharmProjects/Reinvent-master-3.2/result/LINK_invent/BTK/process_docking_weight1_custom_sum_contain_oxygen_bond_distance_aromatic_linkinvent_7_9_3/rearranged_h_0131.sdf

> <i_m_source_file_index>
85

> <r_mmod_Potential_Energy-OPLS-2005>
-212.776840209961

> <r_mmod_Stretch_Energy-OPLS-2005>
37.2599296569824

> <r_mmod_Bend_Energy-OPLS-2005>
167.413101196289

> <r_mmod_Torsional_Energy-OPLS-2005>
374.125274658203

> <r_mmod_Improper_Torsional_Energy-OPLS-2005>
3.80350780487061

> <r_mmod_Van_der_Waal_Energy-OPLS-2005>
131.366256713867

> <r_mmod_Electrostatic_Energy-OPLS-2005>
66.2284317016602

> <r_mmod_Solvation_Energy-OPLS-2005>
-1002.63372802734

> <b_mmod_Minimization_Converged-OPLS-2005>
0

> <r_mmod_RMS_Derivative-OPLS-2005>
2.1747841835022

$$$$
85
                    3D
 Structure written by MMmdl.
159167  0  0  1  0            999 V2000
  -30.7254  -14.5509   20.5281 C   0  0  0  0  0  0
  -30.4046  -12.3477   19.4504 C   0  0  0  0  0  0
  -29.4902  -12.5027   18.2206 C   0  0  0  0  0  0
  -28.0112  -12.3663   18.6264 C   0  0  0  0  0  0
  -27.6488  -13.2314   19.8650 C   0  0  2  0  0  0
  -28.6940  -13.0948   20.9948 C   0  0  0  0  0  0
  -25.2524  -13.8228   20.5744 C   0  0  0  0  0  0
  -24.1796  -13.0469   20.9201 C   0  0  0  0  0  0
  -24.6385  -11.6953   20.8755 C   0  0  0  0  0  0
  -23.9067  -10.4321   21.0410 C   0  0  0  0  0  0
  -24.3623   -9.4229   21.9182 C   0  0  0  0  0  0
  -23.6302   -8.2265   22.0748 C   0  0  0  0  0  0
  -22.4283   -8.0308   21.3543 C   0  0  0  0  0  0
  -21.9915   -9.0276   20.4640 C   0  0  0  0  0  0
  -22.7238  -10.2159   20.3049 C   0  0  0  0  0  0
  -21.6851   -6.0755   22.5290 C   0  0  0  0  0  0
  -21.4022   -6.5654   23.8225 C   0  0  0  0  0  0
  -21.3655   -5.6800   24.9181 C   0  0  0  0  0  0
  -21.6037   -4.3062   24.7225 C   0  0  0  0  0  0
  -21.8814   -3.8163   23.4343 C   0  0  0  0  0  0
  -21.9190   -4.6984   22.3405 C   0  0  0  0  0  0
  -22.7821  -13.5259   21.1860 C   0  0  0  0  0  0
  -22.1662   -4.2183   21.0979 F   0  0  0  0  0  0
  -21.5616   -3.4540   25.7724 F   0  0  0  0  0  0
  -30.0132  -13.3907   20.4204 N   0  0  0  0  0  0
  -26.2960  -12.9443   20.3368 N   0  0  0  0  0  0
  -25.9311  -11.6573   20.5758 N   0  0  0  0  0  0
  -22.0458  -12.8255   22.0416 N   0  0  0  0  0  0
  -25.4237  -15.1956   20.4209 N   0  0  0  0  0  0
  -31.8597  -14.6288   20.0527 O   0  0  0  0  0  0
  -21.6642   -6.8908   21.4248 O   0  0  0  0  0  0
  -22.3509  -14.5548   20.6679 O   0  0  0  0  0  0
  -24.6216  -31.8640   23.2047 C   0  0  0  0  0  0
  -25.9070  -32.4797   23.8366 C   0  0  1  0  0  0
  -27.2161  -27.3639   20.1183 C   0  0  0  0  0  0
  -25.5912  -33.8592   24.2296 N   0  0  0  0  0  0
  -23.4126  -30.4862   21.5470 C   0  0  2  0  0  0
  -24.8569  -28.9433   20.1131 C   0  0  0  0  0  0
  -22.7421  -29.4668   22.4980 C   0  0  0  0  0  0
  -18.0277  -28.1377   22.8409 C   0  0  0  0  0  0
  -24.1491  -36.7301   23.2639 C   0  0  0  0  0  0
  -25.9474  -30.8071   21.3674 C   0  0  0  0  0  0
  -26.0224  -29.4375   20.7126 C   0  0  0  0  0  0
  -27.2115  -28.6594   20.7035 C   0  0  0  0  0  0
  -26.0352  -26.9004   19.5038 C   0  0  0  0  0  0
  -24.8622  -27.6775   19.5023 C   0  0  0  0  0  0
  -23.6230  -29.8160   20.1630 C   0  0  0  0  0  0
  -25.4111  -36.3088   24.0339 C   0  0  1  0  0  0
  -20.5851  -28.3700   23.1297 C   0  0  2  0  0  0
  -20.6787  -26.9422   22.5467 C   0  0  0  0  0  0
  -19.5823  -26.6380   21.5193 C   0  0  0  0  0  0
  -18.1962  -26.7920   22.1530 C   0  0  0  0  0  0
  -19.1508  -28.8868   23.2843 C   0  0  0  0  0  0
  -18.9405  -30.1446   23.8897 C   0  0  0  0  0  0
  -17.6406  -30.6546   24.0592 C   0  0  0  0  0  0
  -25.9044  -34.9459   23.5110 C   0  0  0  0  0  0
  -16.5308  -29.9036   23.6324 C   0  0  0  0  0  0
  -16.7267  -28.6490   23.0273 C   0  0  0  0  0  0
  -26.4483  -31.6592   25.0719 C   0  0  0  0  0  0
  -25.3739  -31.3720   26.1469 C   0  0  0  0  0  0
  -27.0321  -30.3024   24.6124 C   0  0  0  0  0  0
  -27.6039  -32.4332   25.7496 C   0  0  0  0  0  0
  -27.5577  -37.1810   24.8468 C   0  0  0  0  0  0
  -21.4146  -29.3063   22.3729 N   0  0  0  0  0  0
  -26.4286  -37.3786   23.9408 N   0  0  0  0  0  0
  -24.6797  -31.0693   22.0975 N   0  0  0  0  0  0
  -23.4149  -28.8202   23.3040 O   0  0  0  0  0  0
  -28.3335  -26.5423   20.1349 O   0  0  0  0  0  0
  -26.5596  -34.8919   22.4675 O   0  0  0  0  0  0
  -23.5381  -32.1413   23.7422 O   0  0  0  0  0  0
  -32.5662  -19.0814   21.9840 C   0  0  0  0  0  0
  -32.9233  -17.7821   22.3614 C   0  0  0  0  0  0
  -31.3313  -19.3019   21.3579 C   0  0  0  0  0  0
  -32.0664  -16.7139   22.0606 C   0  0  0  0  0  0
  -30.4248  -18.2494   21.0743 C   0  0  0  0  0  0
  -30.8366  -16.8925   21.3674 C   0  0  0  0  0  0
  -29.0766  -18.6802   20.4471 C   0  0  0  0  0  0
  -28.4889  -20.0716   20.9395 C   0  0  0  0  0  0
  -28.6908  -21.3667   20.0544 C   0  0  0  0  0  0
  -28.3794  -23.9328   19.9086 C   0  0  0  0  0  0
  -28.1573  -25.2343   20.7726 C   0  0  0  0  0  0
  -30.1192  -15.6764   21.0186 N   0  0  0  0  0  0
  -28.1801  -22.6428   20.6750 N   0  3  0  0  0  0
  -31.4506  -12.4112   19.1461 H   0  0  0  0  0  0
  -30.2951  -11.3587   19.8975 H   0  0  0  0  0  0
  -29.7420  -11.7590   17.4621 H   0  0  0  0  0  0
  -29.6544  -13.4791   17.7609 H   0  0  0  0  0  0
  -27.8164  -11.3135   18.8348 H   0  0  0  0  0  0
  -27.3709  -12.6348   17.7853 H   0  0  0  0  0  0
  -27.6662  -14.2672   19.5267 H   0  0  0  0  0  0
  -28.6865  -12.0851   21.4055 H   0  0  0  0  0  0
  -28.4631  -13.7614   21.8273 H   0  0  0  0  0  0
  -25.2761   -9.5716   22.4753 H   0  0  0  0  0  0
  -24.0014   -7.4658   22.7463 H   0  0  0  0  0  0
  -21.0848   -8.8790   19.8946 H   0  0  0  0  0  0
  -22.3690  -10.9698   19.6166 H   0  0  0  0  0  0
  -21.2022   -7.6167   23.9748 H   0  0  0  0  0  0
  -21.1473   -6.0525   25.9092 H   0  0  0  0  0  0
  -22.0590   -2.7630   23.2827 H   0  0  0  0  0  0
  -22.4068  -11.9919   22.4794 H   0  0  0  0  0  0
  -21.1071  -13.1287   22.2610 H   0  0  0  0  0  0
  -24.6588  -15.8525   20.5339 H   0  0  0  0  0  0
  -26.2782  -15.6338   20.0984 H   0  0  0  0  0  0
  -26.7127  -32.5470   23.1107 H   0  0  0  0  0  0
  -25.0107  -33.9750   25.0473 H   0  0  0  0  0  0
  -22.7064  -31.3074   21.4042 H   0  0  0  0  0  0
  -23.3745  -35.9645   23.3312 H   0  0  0  0  0  0
  -24.3579  -36.8900   22.2047 H   0  0  0  0  0  0
  -23.7237  -37.6513   23.6646 H   0  0  0  0  0  0
  -26.0683  -31.5671   20.5945 H   0  0  0  0  0  0
  -26.8346  -30.8617   21.9870 H   0  0  0  0  0  0
  -28.1085  -29.0301   21.1790 H   0  0  0  0  0  0
  -26.0114  -25.9256   19.0381 H   0  0  0  0  0  0
  -23.9658  -27.2929   19.0365 H   0  0  0  0  0  0
  -23.7358  -30.5880   19.4006 H   0  0  0  0  0  0
  -22.7441  -29.2397   19.8659 H   0  0  0  0  0  0
  -25.1292  -36.1958   25.0830 H   0  0  0  0  0  0
  -20.9859  -28.3317   24.1443 H   0  0  0  0  0  0
  -20.5647  -26.2290   23.3636 H   0  0  0  0  0  0
  -21.6659  -26.7458   22.1281 H   0  0  0  0  0  0
  -19.7024  -25.6292   21.1247 H   0  0  0  0  0  0
  -19.6863  -27.3185   20.6708 H   0  0  0  0  0  0
  -17.4273  -26.6683   21.3876 H   0  0  0  0  0  0
  -18.0283  -26.0066   22.8906 H   0  0  0  0  0  0
  -19.7862  -30.7263   24.2285 H   0  0  0  0  0  0
  -17.4947  -31.6184   24.5302 H   0  0  0  0  0  0
  -15.5292  -30.2891   23.7695 H   0  0  0  0  0  0
  -15.8687  -28.0831   22.6914 H   0  0  0  0  0  0
  -24.5911  -30.7057   25.7827 H   0  0  0  0  0  0
  -24.8939  -32.2891   26.4900 H   0  0  0  0  0  0
  -25.8097  -30.8908   27.0237 H   0  0  0  0  0  0
  -26.2879  -29.6779   24.1167 H   0  0  0  0  0  0
  -27.4066  -29.7261   25.4596 H   0  0  0  0  0  0
  -27.8728  -30.4333   23.9301 H   0  0  0  0  0  0
  -27.2632  -33.3622   26.2087 H   0  0  0  0  0  0
  -28.3857  -32.6911   25.0338 H   0  0  0  0  0  0
  -28.0708  -31.8454   26.5412 H   0  0  0  0  0  0
  -28.2620  -38.0087   24.7516 H   0  0  0  0  0  0
  -28.1050  -36.2623   24.6305 H   0  0  0  0  0  0
  -27.2303  -37.1486   25.8874 H   0  0  0  0  0  0
  -20.9325  -29.8723   21.6882 H   0  0  0  0  0  0
  -26.0173  -38.2877   24.1373 H   0  0  0  0  0  0
  -33.2332  -19.9076   22.1904 H   0  0  0  0  0  0
  -33.8643  -17.5986   22.8618 H   0  0  0  0  0  0
  -31.0935  -20.3216   21.1040 H   0  0  0  0  0  0
  -32.3961  -15.7260   22.3471 H   0  0  0  0  0  0
  -28.3554  -17.8995   20.6916 H   0  0  0  0  0  0
  -29.1618  -18.6655   19.3600 H   0  0  0  0  0  0
  -27.4118  -19.9333   21.0424 H   0  0  0  0  0  0
  -28.8283  -20.2604   21.9584 H   0  0  0  0  0  0
  -28.1939  -21.2209   19.0936 H   0  0  0  0  0  0
  -29.7483  -21.5031   19.8259 H   0  0  0  0  0  0
  -29.3933  -23.9479   19.5102 H   0  0  0  0  0  0
  -27.7087  -23.9362   19.0473 H   0  0  0  0  0  0
  -28.8780  -25.2108   21.5891 H   0  0  0  0  0  0
  -27.1819  -25.1793   21.2598 H   0  0  0  0  0  0
  -29.1291  -15.6359   21.2131 H   0  0  0  0  0  0
  -28.6276  -22.7426   21.5713 H   0  0  0  0  0  0
  -27.1944  -22.5373   20.8577 H   0  0  0  0  0  0
  1 25  1  0  0  0
  1 30  2  0  0  0
  1 82  1  0  0  0
  2  3  1  0  0  0
  2 25  1  0  0  0
  2 84  1  0  0  0
  2 85  1  0  0  0
  3  4  1  0  0  0
  3 86  1  0  0  0
  3 87  1  0  0  0
  4  5  1  0  0  0
  4 88  1  0  0  0
  4 89  1  0  0  0
  5  6  1  0  0  0
  5 26  1  0  0  0
  5 90  1  0  0  0
  6 25  1  0  0  0
  6 91  1  0  0  0
  6 92  1  0  0  0
  7  8  2  0  0  0
  7 26  1  0  0  0
  7 29  1  0  0  0
  8  9  1  0  0  0
  8 22  1  0  0  0
  9 10  1  0  0  0
  9 27  2  0  0  0
 10 11  2  0  0  0
 10 15  1  0  0  0
 11 12  1  0  0  0
 11 93  1  0  0  0
 12 13  2  0  0  0
 12 94  1  0  0  0
 13 14  1  0  0  0
 13 31  1  0  0  0
 14 15  2  0  0  0
 14 95  1  0  0  0
 15 96  1  0  0  0
 16 17  2  0  0  0
 16 21  1  0  0  0
 16 31  1  0  0  0
 17 18  1  0  0  0
 17 97  1  0  0  0
 18 19  2  0  0  0
 18 98  1  0  0  0
 19 20  1  0  0  0
 19 24  1  0  0  0
 20 21  2  0  0  0
 20 99  1  0  0  0
 21 23  1  0  0  0
 22 28  1  0  0  0
 22 32  2  0  0  0
 26 27  1  0  0  0
 28100  1  0  0  0
 28101  1  0  0  0
 29102  1  0  0  0
 29103  1  0  0  0
 33 34  1  0  0  0
 33 66  1  0  0  0
 33 70  2  0  0  0
 34 36  1  0  0  0
 34 59  1  0  0  0
 34104  1  0  0  0
 35 44  2  0  0  0
 35 45  1  0  0  0
 35 68  1  0  0  0
 36 56  1  0  0  0
 36105  1  0  0  0
 37 39  1  0  0  0
 37 47  1  0  0  0
 37 66  1  0  0  0
 37106  1  0  0  0
 38 43  2  0  0  0
 38 46  1  0  0  0
 38 47  1  0  0  0
 39 64  1  0  0  0
 39 67  2  0  0  0
 40 52  1  0  0  0
 40 53  2  0  0  0
 40 58  1  0  0  0
 41107  1  0  0  0
 41108  1  0  0  0
 41109  1  0  0  0
 41 48  1  0  0  0
 42 43  1  0  0  0
 42 66  1  0  0  0
 42110  1  0  0  0
 42111  1  0  0  0
 43 44  1  0  0  0
 44112  1  0  0  0
 45 46  2  0  0  0
 45113  1  0  0  0
 46114  1  0  0  0
 47115  1  0  0  0
 47116  1  0  0  0
 48 56  1  0  0  0
 48 65  1  0  0  0
 48117  1  0  0  0
 49 50  1  0  0  0
 49 53  1  0  0  0
 49 64  1  0  0  0
 49118  1  0  0  0
 50 51  1  0  0  0
 50119  1  0  0  0
 50120  1  0  0  0
 51 52  1  0  0  0
 51121  1  0  0  0
 51122  1  0  0  0
 52123  1  0  0  0
 52124  1  0  0  0
 53 54  1  0  0  0
 54 55  2  0  0  0
 54125  1  0  0  0
 55 57  1  0  0  0
 55126  1  0  0  0
 56 69  2  0  0  0
 57 58  2  0  0  0
 57127  1  0  0  0
 58128  1  0  0  0
 59 60  1  0  0  0
 59 61  1  0  0  0
 59 62  1  0  0  0
 60129  1  0  0  0
 60130  1  0  0  0
 60131  1  0  0  0
 61132  1  0  0  0
 61133  1  0  0  0
 61134  1  0  0  0
 62135  1  0  0  0
 62136  1  0  0  0
 62137  1  0  0  0
 63 65  1  0  0  0
 63138  1  0  0  0
 63139  1  0  0  0
 63140  1  0  0  0
 64141  1  0  0  0
 65142  1  0  0  0
 68 81  1  0  0  0
 71 72  2  0  0  0
 71 73  1  0  0  0
 71143  1  0  0  0
 72 74  1  0  0  0
 72144  1  0  0  0
 73 75  2  0  0  0
 73145  1  0  0  0
 74 76  2  0  0  0
 74146  1  0  0  0
 75 76  1  0  0  0
 75 77  1  0  0  0
 76 82  1  0  0  0
 77 78  1  0  0  0
 77147  1  0  0  0
 77148  1  0  0  0
 78 79  1  0  0  0
 78149  1  0  0  0
 78150  1  0  0  0
 79 83  1  0  0  0
 79151  1  0  0  0
 79152  1  0  0  0
 80 81  1  0  0  0
 80 83  1  0  0  0
 80153  1  0  0  0
 80154  1  0  0  0
 81155  1  0  0  0
 81156  1  0  0  0
 82157  1  0  0  0
 83158  1  0  0  0
 83159  1  0  0  0
M  CHG  1  83   1
M  ISO  4   1 100  68 101  81 101  82 100
M  END
> <chiral flag>
0

> <version>
0

> <s_m_source_file>
/data/baiqing/PycharmProjects/Reinvent-master-3.2/result/LINK_invent/BTK/process_docking_weight1_custom_sum_contain_oxygen_bond_distance_aromatic_linkinvent_7_9_3/rearranged_h_0131.sdf

> <i_m_source_file_index>
86

> <r_mmod_Potential_Energy-OPLS-2005>
-86.2049102783203

> <r_mmod_Stretch_Energy-OPLS-2005>
65.687614440918

> <r_mmod_Bend_Energy-OPLS-2005>
124.238655090332

> <r_mmod_Torsional_Energy-OPLS-2005>
249.141036987305

> <r_mmod_Improper_Torsional_Energy-OPLS-2005>
3.30504083633423

> <r_mmod_Van_der_Waal_Energy-OPLS-2005>
153.083511352539

> <r_mmod_Electrostatic_Energy-OPLS-2005>
-243.665298461914

> <r_mmod_Solvation_Energy-OPLS-2005>
-468.886840820312

> <b_mmod_Minimization_Converged-OPLS-2005>
0

> <r_mmod_RMS_Derivative-OPLS-2005>
3.71562528610229

$$$$
86
                    3D
 Structure written by MMmdl.
156165  0  0  1  0            999 V2000
  -30.6315  -14.7451   20.4866 C   0  0  0  0  0  0
  -30.4249  -12.4582   19.4800 C   0  0  0  0  0  0
  -29.5058  -12.5155   18.2404 C   0  0  0  0  0  0
  -28.0349  -12.3267   18.6564 C   0  0  0  0  0  0
  -27.6397  -13.2244   19.8594 C   0  0  2  0  0  0
  -28.6861  -13.1696   20.9943 C   0  0  0  0  0  0
  -25.2512  -13.8192   20.5717 C   0  0  0  0  0  0
  -24.1790  -13.0429   20.9213 C   0  0  0  0  0  0
  -24.6379  -11.6905   20.8777 C   0  0  0  0  0  0
  -23.9066  -10.4283   21.0411 C   0  0  0  0  0  0
  -24.3623   -9.4200   21.9182 C   0  0  0  0  0  0
  -23.6287   -8.2245   22.0760 C   0  0  0  0  0  0
  -22.4269   -8.0279   21.3559 C   0  0  0  0  0  0
  -21.9910   -9.0250   20.4662 C   0  0  0  0  0  0
  -22.7242  -10.2122   20.3062 C   0  0  0  0  0  0
  -21.6848   -6.0734   22.5277 C   0  0  0  0  0  0
  -21.4008   -6.5643   23.8208 C   0  0  0  0  0  0
  -21.3659   -5.6802   24.9173 C   0  0  0  0  0  0
  -21.6041   -4.3065   24.7231 C   0  0  0  0  0  0
  -21.8819   -3.8153   23.4354 C   0  0  0  0  0  0
  -21.9186   -4.6963   22.3404 C   0  0  0  0  0  0
  -22.7820  -13.5211   21.1862 C   0  0  0  0  0  0
  -22.1648   -4.2143   21.0982 F   0  0  0  0  0  0
  -21.5633   -3.4546   25.7747 F   0  0  0  0  0  0
  -29.9872  -13.5253   20.4137 N   0  0  0  0  0  0
  -26.2927  -12.9365   20.3349 N   0  0  0  0  0  0
  -25.9313  -11.6522   20.5824 N   0  0  0  0  0  0
  -22.0466  -12.8195   22.0429 N   0  0  0  0  0  0
  -25.4248  -15.1917   20.4160 N   0  0  0  0  0  0
  -31.7955  -14.8331   20.0803 O   0  0  0  0  0  0
  -21.6640   -6.8874   21.4239 O   0  0  0  0  0  0
  -22.3506  -14.5496   20.6676 O   0  0  0  0  0  0
  -24.6332  -31.8566   23.1984 C   0  0  0  0  0  0
  -25.9150  -32.4757   23.8330 C   0  0  1  0  0  0
  -27.2113  -27.2466   20.1215 C   0  0  0  0  0  0
  -25.5928  -33.8555   24.2256 N   0  0  0  0  0  0
  -23.4286  -30.4812   21.5444 C   0  0  2  0  0  0
  -24.8727  -28.9296   20.1076 C   0  0  0  0  0  0
  -22.7520  -29.4622   22.4937 C   0  0  0  0  0  0
  -18.0328  -28.1360   22.8512 C   0  0  0  0  0  0
  -24.1490  -36.7286   23.2646 C   0  0  0  0  0  0
  -25.9774  -30.7607   21.3846 C   0  0  0  0  0  0
  -26.0444  -29.3830   20.7256 C   0  0  0  0  0  0
  -27.2123  -28.5522   20.7271 C   0  0  0  0  0  0
  -26.0208  -26.8819   19.4488 C   0  0  0  0  0  0
  -24.8675  -27.6889   19.4565 C   0  0  0  0  0  0
  -23.6469  -29.8187   20.1590 C   0  0  0  0  0  0
  -25.4113  -36.3077   24.0342 C   0  0  1  0  0  0
  -20.5920  -28.3714   23.1311 C   0  0  2  0  0  0
  -20.6837  -26.9415   22.5483 C   0  0  0  0  0  0
  -19.5833  -26.6326   21.5286 C   0  0  0  0  0  0
  -18.1999  -26.7883   22.1685 C   0  0  0  0  0  0
  -19.1560  -28.8858   23.2897 C   0  0  0  0  0  0
  -18.9457  -30.1465   23.8871 C   0  0  0  0  0  0
  -17.6442  -30.6583   24.0503 C   0  0  0  0  0  0
  -25.9054  -34.9442   23.5106 C   0  0  0  0  0  0
  -16.5343  -29.9061   23.6285 C   0  0  0  0  0  0
  -16.7300  -28.6472   23.0337 C   0  0  0  0  0  0
  -26.4489  -31.6583   25.0736 C   0  0  0  0  0  0
  -25.3712  -31.3731   26.1461 C   0  0  0  0  0  0
  -27.0354  -30.3006   24.6227 C   0  0  0  0  0  0
  -27.6049  -32.4325   25.7500 C   0  0  0  0  0  0
  -27.5581  -37.1805   24.8470 C   0  0  0  0  0  0
  -21.4223  -29.3086   22.3715 N   0  0  0  0  0  0
  -26.4289  -37.3774   23.9419 N   0  0  0  0  0  0
  -24.6994  -31.0511   22.0981 N   0  0  0  0  0  0
  -23.4233  -28.8144   23.3016 O   0  0  0  0  0  0
  -28.2926  -26.3311   20.2056 O   0  0  0  0  0  0
  -26.5636  -34.8914   22.4677 O   0  0  0  0  0  0
  -23.5473  -32.1375   23.7263 O   0  0  0  0  0  0
  -28.0569  -18.0934   18.6398 C   0  0  0  0  0  0
  -28.7131  -16.9814   19.2031 C   0  0  0  0  0  0
  -28.2401  -19.3798   19.1844 C   0  0  0  0  0  0
  -29.1204  -19.5406   20.2712 C   0  0  0  0  0  0
  -29.5279  -17.1169   20.3449 C   0  0  0  0  0  0
  -27.5009  -20.5780   18.5867 C   0  0  0  0  0  0
  -29.3516  -21.0207   20.8207 C   0  0  0  0  0  0
  -27.4262  -21.8184   19.5113 C   0  0  0  0  0  0
  -28.9325  -23.6467   20.5323 C   0  0  0  0  0  0
  -28.0727  -24.8681   19.8849 C   0  0  0  0  0  0
  -29.7132  -18.4109   20.8451 N   0  0  0  0  0  0
  -29.9856  -15.8641   20.9940 N   0  0  0  0  0  0
  -28.7779  -22.1913   19.9961 N   0  3  1  0  0  0
  -31.4668  -12.5727   19.1798 H   0  0  0  0  0  0
  -30.3655  -11.4824   19.9633 H   0  0  0  0  0  0
  -29.7867  -11.7506   17.5164 H   0  0  0  0  0  0
  -29.6260  -13.4773   17.7380 H   0  0  0  0  0  0
  -27.9024  -11.2770   18.9212 H   0  0  0  0  0  0
  -27.3719  -12.5137   17.8103 H   0  0  0  0  0  0
  -27.6246  -14.2416   19.4806 H   0  0  0  0  0  0
  -28.7275  -12.1742   21.4374 H   0  0  0  0  0  0
  -28.4167  -13.8516   21.8023 H   0  0  0  0  0  0
  -25.2759   -9.5675   22.4774 H   0  0  0  0  0  0
  -23.9986   -7.4636   22.7479 H   0  0  0  0  0  0
  -21.0844   -8.8764   19.8974 H   0  0  0  0  0  0
  -22.3682  -10.9663   19.6188 H   0  0  0  0  0  0
  -21.1994   -7.6149   23.9706 H   0  0  0  0  0  0
  -21.1489   -6.0534   25.9073 H   0  0  0  0  0  0
  -22.0601   -2.7614   23.2848 H   0  0  0  0  0  0
  -22.4051  -11.9814   22.4785 H   0  0  0  0  0  0
  -21.1103  -13.1258   22.2670 H   0  0  0  0  0  0
  -24.6642  -15.8529   20.5261 H   0  0  0  0  0  0
  -26.2882  -15.6300   20.1207 H   0  0  0  0  0  0
  -26.7232  -32.5376   23.1072 H   0  0  0  0  0  0
  -25.0047  -33.9662   25.0383 H   0  0  0  0  0  0
  -22.7293  -31.3076   21.4012 H   0  0  0  0  0  0
  -23.3751  -35.9621   23.3302 H   0  0  0  0  0  0
  -24.3591  -36.8896   22.2061 H   0  0  0  0  0  0
  -23.7223  -37.6482   23.6667 H   0  0  0  0  0  0
  -26.1214  -31.5207   20.6160 H   0  0  0  0  0  0
  -26.8523  -30.8052   22.0198 H   0  0  0  0  0  0
  -28.1023  -28.8888   21.2410 H   0  0  0  0  0  0
  -25.9407  -25.9508   18.9112 H   0  0  0  0  0  0
  -23.9764  -27.3456   18.9491 H   0  0  0  0  0  0
  -23.7721  -30.5995   19.4084 H   0  0  0  0  0  0
  -22.7638  -29.2590   19.8485 H   0  0  0  0  0  0
  -25.1294  -36.1929   25.0840 H   0  0  0  0  0  0
  -21.0049  -28.3308   24.1430 H   0  0  0  0  0  0
  -20.5774  -26.2307   23.3694 H   0  0  0  0  0  0
  -21.6710  -26.7487   22.1262 H   0  0  0  0  0  0
  -19.7038  -25.6196   21.1438 H   0  0  0  0  0  0
  -19.6802  -27.3095   20.6781 H   0  0  0  0  0  0
  -17.4271  -26.6597   21.4084 H   0  0  0  0  0  0
  -18.0410  -26.0043   22.9125 H   0  0  0  0  0  0
  -19.7930  -30.7303   24.2233 H   0  0  0  0  0  0
  -17.4978  -31.6287   24.5064 H   0  0  0  0  0  0
  -15.5329  -30.2946   23.7583 H   0  0  0  0  0  0
  -15.8710  -28.0774   22.7063 H   0  0  0  0  0  0
  -24.5893  -30.7071   25.7783 H   0  0  0  0  0  0
  -24.8893  -32.2903   26.4874 H   0  0  0  0  0  0
  -25.8024  -30.8914   27.0245 H   0  0  0  0  0  0
  -26.2951  -29.6741   24.1246 H   0  0  0  0  0  0
  -27.4038  -29.7276   25.4742 H   0  0  0  0  0  0
  -27.8823  -30.4294   23.9486 H   0  0  0  0  0  0
  -27.2673  -33.3636   26.2054 H   0  0  0  0  0  0
  -28.3859  -32.6848   25.0322 H   0  0  0  0  0  0
  -28.0720  -31.8458   26.5414 H   0  0  0  0  0  0
  -28.2604  -38.0098   24.7518 H   0  0  0  0  0  0
  -28.1067  -36.2628   24.6302 H   0  0  0  0  0  0
  -27.2313  -37.1471   25.8876 H   0  0  0  0  0  0
  -20.9389  -29.8901   21.7009 H   0  0  0  0  0  0
  -26.0167  -38.2854   24.1393 H   0  0  0  0  0  0
  -27.4035  -17.9518   17.7889 H   0  0  0  0  0  0
  -28.5447  -16.0151   18.7568 H   0  0  0  0  0  0
  -26.4846  -20.2760   18.3266 H   0  0  0  0  0  0
  -27.9869  -20.8447   17.6479 H   0  0  0  0  0  0
  -30.4204  -21.1807   20.9613 H   0  0  0  0  0  0
  -28.9037  -21.0589   21.8157 H   0  0  0  0  0  0
  -26.7695  -21.6266   20.3626 H   0  0  0  0  0  0
  -26.9730  -22.6299   18.9421 H   0  0  0  0  0  0
  -28.7301  -23.6392   21.6031 H   0  0  0  0  0  0
  -29.9888  -23.8982   20.4351 H   0  0  0  0  0  0
  -27.0452  -24.6219   20.1486 H   0  0  0  0  0  0
  -28.1390  -24.7868   18.7998 H   0  0  0  0  0  0
  -30.2883  -16.0244   21.9417 H   0  0  0  0  0  0
  -29.3332  -22.1680   19.1529 H   0  0  0  0  0  0
  1 25  1  0  0  0
  1 30  2  0  0  0
  1 82  1  0  0  0
  2  3  1  0  0  0
  2 25  1  0  0  0
  2 84  1  0  0  0
  2 85  1  0  0  0
  3  4  1  0  0  0
  3 86  1  0  0  0
  3 87  1  0  0  0
  4  5  1  0  0  0
  4 88  1  0  0  0
  4 89  1  0  0  0
  5  6  1  0  0  0
  5 26  1  0  0  0
  5 90  1  0  0  0
  6 25  1  0  0  0
  6 91  1  0  0  0
  6 92  1  0  0  0
  7  8  2  0  0  0
  7 26  1  0  0  0
  7 29  1  0  0  0
  8  9  1  0  0  0
  8 22  1  0  0  0
  9 10  1  0  0  0
  9 27  2  0  0  0
 10 11  2  0  0  0
 10 15  1  0  0  0
 11 12  1  0  0  0
 11 93  1  0  0  0
 12 13  2  0  0  0
 12 94  1  0  0  0
 13 14  1  0  0  0
 13 31  1  0  0  0
 14 15  2  0  0  0
 14 95  1  0  0  0
 15 96  1  0  0  0
 16 17  2  0  0  0
 16 21  1  0  0  0
 16 31  1  0  0  0
 17 18  1  0  0  0
 17 97  1  0  0  0
 18 19  2  0  0  0
 18 98  1  0  0  0
 19 20  1  0  0  0
 19 24  1  0  0  0
 20 21  2  0  0  0
 20 99  1  0  0  0
 21 23  1  0  0  0
 22 28  1  0  0  0
 22 32  2  0  0  0
 26 27  1  0  0  0
 28100  1  0  0  0
 28101  1  0  0  0
 29102  1  0  0  0
 29103  1  0  0  0
 33 34  1  0  0  0
 33 66  1  0  0  0
 33 70  2  0  0  0
 34 36  1  0  0  0
 34 59  1  0  0  0
 34104  1  0  0  0
 35 44  2  0  0  0
 35 45  1  0  0  0
 35 68  1  0  0  0
 36 56  1  0  0  0
 36105  1  0  0  0
 37 39  1  0  0  0
 37 47  1  0  0  0
 37 66  1  0  0  0
 37106  1  0  0  0
 38 43  2  0  0  0
 38 46  1  0  0  0
 38 47  1  0  0  0
 39 64  1  0  0  0
 39 67  2  0  0  0
 40 52  1  0  0  0
 40 53  2  0  0  0
 40 58  1  0  0  0
 41107  1  0  0  0
 41108  1  0  0  0
 41109  1  0  0  0
 41 48  1  0  0  0
 42 43  1  0  0  0
 42 66  1  0  0  0
 42110  1  0  0  0
 42111  1  0  0  0
 43 44  1  0  0  0
 44112  1  0  0  0
 45 46  2  0  0  0
 45113  1  0  0  0
 46114  1  0  0  0
 47115  1  0  0  0
 47116  1  0  0  0
 48 56  1  0  0  0
 48 65  1  0  0  0
 48117  1  0  0  0
 49 50  1  0  0  0
 49 53  1  0  0  0
 49 64  1  0  0  0
 49118  1  0  0  0
 50 51  1  0  0  0
 50119  1  0  0  0
 50120  1  0  0  0
 51 52  1  0  0  0
 51121  1  0  0  0
 51122  1  0  0  0
 52123  1  0  0  0
 52124  1  0  0  0
 53 54  1  0  0  0
 54 55  2  0  0  0
 54125  1  0  0  0
 55 57  1  0  0  0
 55126  1  0  0  0
 56 69  2  0  0  0
 57 58  2  0  0  0
 57127  1  0  0  0
 58128  1  0  0  0
 59 60  1  0  0  0
 59 61  1  0  0  0
 59 62  1  0  0  0
 60129  1  0  0  0
 60130  1  0  0  0
 60131  1  0  0  0
 61132  1  0  0  0
 61133  1  0  0  0
 61134  1  0  0  0
 62135  1  0  0  0
 62136  1  0  0  0
 62137  1  0  0  0
 63 65  1  0  0  0
 63138  1  0  0  0
 63139  1  0  0  0
 63140  1  0  0  0
 64141  1  0  0  0
 65142  1  0  0  0
 68 80  1  0  0  0
 71 72  2  0  0  0
 71 73  1  0  0  0
 71143  1  0  0  0
 72 75  1  0  0  0
 72144  1  0  0  0
 73 74  2  0  0  0
 73 76  1  0  0  0
 74 77  1  0  0  0
 74 81  1  0  0  0
 75 81  2  0  0  0
 75 82  1  0  0  0
 76 78  1  0  0  0
 76145  1  0  0  0
 76146  1  0  0  0
 77 83  1  0  0  0
 77147  1  0  0  0
 77148  1  0  0  0
 78 83  1  0  0  0
 78149  1  0  0  0
 78150  1  0  0  0
 79 80  1  0  0  0
 79151  1  0  0  0
 79152  1  0  0  0
 79 83  1  0  0  0
 80153  1  0  0  0
 80154  1  0  0  0
 82155  1  0  0  0
 83156  1  0  0  0
M  CHG  1  83   1
M  ISO  4   1 100  68 101  80 101  82 100
M  END
> <chiral flag>
0

> <version>
0

> <s_m_source_file>
/data/baiqing/PycharmProjects/Reinvent-master-3.2/result/LINK_invent/BTK/process_docking_weight1_custom_sum_contain_oxygen_bond_distance_aromatic_linkinvent_7_9_3/rearranged_h_0131.sdf

> <i_m_source_file_index>
87

> <r_mmod_Potential_Energy-OPLS-2005>
-41.0662384033203

> <r_mmod_Stretch_Energy-OPLS-2005>
131.498458862305

> <r_mmod_Bend_Energy-OPLS-2005>
179.926834106445

> <r_mmod_Torsional_Energy-OPLS-2005>
289.760833740234

> <r_mmod_Improper_Torsional_Energy-OPLS-2005>
4.67782068252563

> <r_mmod_Van_der_Waal_Energy-OPLS-2005>
144.08219909668

> <r_mmod_Electrostatic_Energy-OPLS-2005>
-417.559661865234

> <r_mmod_Solvation_Energy-OPLS-2005>
-463.439636230469

> <b_mmod_Minimization_Converged-OPLS-2005>
0

> <r_mmod_RMS_Derivative-OPLS-2005>
2.98548746109009

$$$$
87
                    3D
 Structure written by MMmdl.
155163  0  0  1  0            999 V2000
  -30.6229  -14.6511   20.4933 C   0  0  0  0  0  0
  -30.4293  -12.3986   19.4530 C   0  0  0  0  0  0
  -29.5009  -12.5054   18.2235 C   0  0  0  0  0  0
  -28.0266  -12.3354   18.6414 C   0  0  0  0  0  0
  -27.6459  -13.2191   19.8589 C   0  0  2  0  0  0
  -28.6896  -13.0962   20.9892 C   0  0  0  0  0  0
  -25.2516  -13.8166   20.5664 C   0  0  0  0  0  0
  -24.1801  -13.0420   20.9175 C   0  0  0  0  0  0
  -24.6381  -11.6895   20.8740 C   0  0  0  0  0  0
  -23.9045  -10.4279   21.0416 C   0  0  0  0  0  0
  -24.3605   -9.4204   21.9197 C   0  0  0  0  0  0
  -23.6288   -8.2237   22.0762 C   0  0  0  0  0  0
  -22.4277   -8.0265   21.3546 C   0  0  0  0  0  0
  -21.9902   -9.0233   20.4648 C   0  0  0  0  0  0
  -22.7222  -10.2119   20.3062 C   0  0  0  0  0  0
  -21.6848   -6.0724   22.5277 C   0  0  0  0  0  0
  -21.4012   -6.5633   23.8208 C   0  0  0  0  0  0
  -21.3660   -5.6792   24.9174 C   0  0  0  0  0  0
  -21.6055   -4.3056   24.7230 C   0  0  0  0  0  0
  -21.8812   -3.8145   23.4347 C   0  0  0  0  0  0
  -21.9190   -4.6957   22.3400 C   0  0  0  0  0  0
  -22.7831  -13.5219   21.1861 C   0  0  0  0  0  0
  -22.1661   -4.2139   21.0977 F   0  0  0  0  0  0
  -21.5632   -3.4543   25.7741 F   0  0  0  0  0  0
  -29.9984  -13.4340   20.4123 N   0  0  0  0  0  0
  -26.2951  -12.9360   20.3323 N   0  0  0  0  0  0
  -25.9313  -11.6508   20.5760 N   0  0  0  0  0  0
  -22.0489  -12.8196   22.0413 N   0  0  0  0  0  0
  -25.4188  -15.1888   20.4029 N   0  0  0  0  0  0
  -31.8063  -14.7851   20.1705 O   0  0  0  0  0  0
  -21.6638   -6.8873   21.4244 O   0  0  0  0  0  0
  -22.3514  -14.5532   20.6727 O   0  0  0  0  0  0
  -24.6291  -31.8574   23.2026 C   0  0  0  0  0  0
  -25.9136  -32.4755   23.8352 C   0  0  1  0  0  0
  -27.2146  -27.2981   20.1087 C   0  0  0  0  0  0
  -25.5959  -33.8554   24.2283 N   0  0  0  0  0  0
  -23.4208  -30.4864   21.5425 C   0  0  2  0  0  0
  -24.8641  -28.9405   20.1074 C   0  0  0  0  0  0
  -22.7473  -29.4612   22.4886 C   0  0  0  0  0  0
  -18.0290  -28.1392   22.8468 C   0  0  0  0  0  0
  -24.1477  -36.7255   23.2618 C   0  0  0  0  0  0
  -25.9641  -30.7831   21.3738 C   0  0  0  0  0  0
  -26.0346  -29.4083   20.7160 C   0  0  0  0  0  0
  -27.2081  -28.5965   20.7114 C   0  0  0  0  0  0
  -26.0089  -26.8769   19.4997 C   0  0  0  0  0  0
  -24.8547  -27.6800   19.4920 C   0  0  0  0  0  0
  -23.6375  -29.8283   20.1554 C   0  0  0  0  0  0
  -25.4087  -36.3039   24.0331 C   0  0  1  0  0  0
  -20.5888  -28.3678   23.1268 C   0  0  2  0  0  0
  -20.6773  -26.9395   22.5393 C   0  0  0  0  0  0
  -19.5750  -26.6384   21.5196 C   0  0  0  0  0  0
  -18.1929  -26.7940   22.1604 C   0  0  0  0  0  0
  -19.1545  -28.8863   23.2870 C   0  0  0  0  0  0
  -18.9480  -30.1467   23.8885 C   0  0  0  0  0  0
  -17.6474  -30.6594   24.0563 C   0  0  0  0  0  0
  -25.9058  -34.9430   23.5099 C   0  0  0  0  0  0
  -16.5365  -29.9084   23.6355 C   0  0  0  0  0  0
  -16.7278  -28.6516   23.0344 C   0  0  0  0  0  0
  -26.4539  -31.6562   25.0727 C   0  0  0  0  0  0
  -25.3776  -31.3634   26.1465 C   0  0  0  0  0  0
  -27.0397  -30.3008   24.6150 C   0  0  0  0  0  0
  -27.6137  -32.4281   25.7474 C   0  0  0  0  0  0
  -27.5632  -37.1678   24.8400 C   0  0  0  0  0  0
  -21.4187  -29.3043   22.3676 N   0  0  0  0  0  0
  -26.4205  -37.3805   23.9547 N   0  0  0  0  0  0
  -24.6908  -31.0581   22.0972 N   0  0  0  0  0  0
  -23.4201  -28.8144   23.2956 O   0  0  0  0  0  0
  -28.3319  -26.4463   20.1876 O   0  0  0  0  0  0
  -26.5607  -34.8914   22.4653 O   0  0  0  0  0  0
  -23.5461  -32.1379   23.7342 O   0  0  0  0  0  0
  -29.2264  -22.8194   18.9448 C   0  0  0  0  0  0
  -29.4044  -21.4464   19.2939 C   0  0  0  0  0  0
  -28.2845  -23.2938   21.0964 C   0  0  0  0  0  0
  -28.6813  -23.7919   19.8294 C   0  0  0  0  0  0
  -28.4428  -21.9115   21.4519 C   0  0  0  0  0  0
  -29.0341  -20.9509   20.5688 C   0  0  0  0  0  0
  -27.9433  -21.4579   22.8124 C   0  0  0  0  0  0
  -28.4841  -25.2697   19.3016 C   0  0  0  0  0  0
  -29.5590  -18.3665   20.2071 C   0  0  0  0  0  0
  -30.2271  -17.1711   21.0412 C   0  0  0  0  0  0
  -29.2393  -19.5937   21.0058 N   0  0  0  0  0  0
  -29.8354  -15.7404   20.7677 N   0  0  0  0  0  0
  -31.4730  -12.5166   19.1557 H   0  0  0  0  0  0
  -30.3550  -11.4076   19.9055 H   0  0  0  0  0  0
  -29.7683  -11.7540   17.4792 H   0  0  0  0  0  0
  -29.6364  -13.4760   17.7435 H   0  0  0  0  0  0
  -27.8768  -11.2844   18.8913 H   0  0  0  0  0  0
  -27.3651  -12.5455   17.7994 H   0  0  0  0  0  0
  -27.6568  -14.2498   19.5054 H   0  0  0  0  0  0
  -28.7045  -12.0816   21.3916 H   0  0  0  0  0  0
  -28.4384  -13.7465   21.8293 H   0  0  0  0  0  0
  -25.2751   -9.5678   22.4769 H   0  0  0  0  0  0
  -23.9990   -7.4636   22.7498 H   0  0  0  0  0  0
  -21.0830   -8.8755   19.8960 H   0  0  0  0  0  0
  -22.3687  -10.9658   19.6165 H   0  0  0  0  0  0
  -21.2000   -7.6142   23.9704 H   0  0  0  0  0  0
  -21.1498   -6.0528   25.9072 H   0  0  0  0  0  0
  -22.0591   -2.7603   23.2853 H   0  0  0  0  0  0
  -22.4107  -11.9823   22.4734 H   0  0  0  0  0  0
  -21.1130  -13.1238   22.2693 H   0  0  0  0  0  0
  -24.6391  -15.8324   20.4813 H   0  0  0  0  0  0
  -26.2569  -15.6281   20.0448 H   0  0  0  0  0  0
  -26.7199  -32.5421   23.1087 H   0  0  0  0  0  0
  -25.0213  -33.9698   25.0494 H   0  0  0  0  0  0
  -22.7152  -31.3086   21.4023 H   0  0  0  0  0  0
  -23.3807  -35.9500   23.3080 H   0  0  0  0  0  0
  -24.3630  -36.9071   22.2078 H   0  0  0  0  0  0
  -23.7117  -37.6347   23.6759 H   0  0  0  0  0  0
  -26.0950  -31.5408   20.6009 H   0  0  0  0  0  0
  -26.8467  -30.8340   21.9991 H   0  0  0  0  0  0
  -28.1067  -28.9470   21.2007 H   0  0  0  0  0  0
  -25.9041  -25.8977   19.0598 H   0  0  0  0  0  0
  -23.9500  -27.3129   19.0272 H   0  0  0  0  0  0
  -23.7653  -30.6129   19.4089 H   0  0  0  0  0  0
  -22.7529  -29.2694   19.8438 H   0  0  0  0  0  0
  -25.1198  -36.1820   25.0790 H   0  0  0  0  0  0
  -20.9991  -28.3249   24.1377 H   0  0  0  0  0  0
  -20.5670  -26.2257   23.3576 H   0  0  0  0  0  0
  -21.6640  -26.7407   22.1187 H   0  0  0  0  0  0
  -19.6901  -25.6292   21.1231 H   0  0  0  0  0  0
  -19.6723  -27.3187   20.6724 H   0  0  0  0  0  0
  -17.4184  -26.6697   21.4014 H   0  0  0  0  0  0
  -18.0347  -26.0068   22.9002 H   0  0  0  0  0  0
  -19.7949  -30.7315   24.2211 H   0  0  0  0  0  0
  -17.5020  -31.6273   24.5167 H   0  0  0  0  0  0
  -15.5365  -30.2978   23.7700 H   0  0  0  0  0  0
  -15.8672  -28.0860   22.7023 H   0  0  0  0  0  0
  -24.6062  -30.6823   25.7822 H   0  0  0  0  0  0
  -24.8826  -32.2732   26.4859 H   0  0  0  0  0  0
  -25.8163  -30.8909   27.0260 H   0  0  0  0  0  0
  -26.2954  -29.6706   24.1268 H   0  0  0  0  0  0
  -27.4244  -29.7304   25.4612 H   0  0  0  0  0  0
  -27.8736  -30.4330   23.9252 H   0  0  0  0  0  0
  -27.2859  -33.3662   26.1940 H   0  0  0  0  0  0
  -28.4008  -32.6670   25.0305 H   0  0  0  0  0  0
  -28.0712  -31.8428   26.5458 H   0  0  0  0  0  0
  -28.2285  -38.0310   24.7997 H   0  0  0  0  0  0
  -28.1475  -36.2934   24.5512 H   0  0  0  0  0  0
  -27.2468  -37.0435   25.8766 H   0  0  0  0  0  0
  -20.9340  -29.8796   21.6929 H   0  0  0  0  0  0
  -26.0044  -38.2757   24.1925 H   0  0  0  0  0  0
  -29.5231  -23.1338   17.9537 H   0  0  0  0  0  0
  -29.8394  -20.7823   18.5596 H   0  0  0  0  0  0
  -27.8369  -23.9787   21.8015 H   0  0  0  0  0  0
  -27.3581  -22.2340   23.3079 H   0  0  0  0  0  0
  -28.7842  -21.1959   23.4551 H   0  0  0  0  0  0
  -27.3023  -20.5804   22.7071 H   0  0  0  0  0  0
  -27.7492  -25.2338   18.5009 H   0  0  0  0  0  0
  -29.4089  -25.4834   18.7668 H   0  0  0  0  0  0
  -28.6314  -18.0205   19.7497 H   0  0  0  0  0  0
  -30.2177  -18.6318   19.3785 H   0  0  0  0  0  0
  -29.9850  -17.3164   22.0947 H   0  0  0  0  0  0
  -31.3143  -17.2651   20.9963 H   0  0  0  0  0  0
  -28.9166  -19.3971   21.9484 H   0  0  0  0  0  0
  -28.8660  -15.5206   20.9378 H   0  0  0  0  0  0
  1 25  1  0  0  0
  1 30  2  0  0  0
  1 82  1  0  0  0
  2  3  1  0  0  0
  2 25  1  0  0  0
  2 83  1  0  0  0
  2 84  1  0  0  0
  3  4  1  0  0  0
  3 85  1  0  0  0
  3 86  1  0  0  0
  4  5  1  0  0  0
  4 87  1  0  0  0
  4 88  1  0  0  0
  5  6  1  0  0  0
  5 26  1  0  0  0
  5 89  1  0  0  0
  6 25  1  0  0  0
  6 90  1  0  0  0
  6 91  1  0  0  0
  7  8  2  0  0  0
  7 26  1  0  0  0
  7 29  1  0  0  0
  8  9  1  0  0  0
  8 22  1  0  0  0
  9 10  1  0  0  0
  9 27  2  0  0  0
 10 11  2  0  0  0
 10 15  1  0  0  0
 11 12  1  0  0  0
 11 92  1  0  0  0
 12 13  2  0  0  0
 12 93  1  0  0  0
 13 14  1  0  0  0
 13 31  1  0  0  0
 14 15  2  0  0  0
 14 94  1  0  0  0
 15 95  1  0  0  0
 16 17  2  0  0  0
 16 21  1  0  0  0
 16 31  1  0  0  0
 17 18  1  0  0  0
 17 96  1  0  0  0
 18 19  2  0  0  0
 18 97  1  0  0  0
 19 20  1  0  0  0
 19 24  1  0  0  0
 20 21  2  0  0  0
 20 98  1  0  0  0
 21 23  1  0  0  0
 22 28  1  0  0  0
 22 32  2  0  0  0
 26 27  1  0  0  0
 28 99  1  0  0  0
 28100  1  0  0  0
 29101  1  0  0  0
 29102  1  0  0  0
 33 34  1  0  0  0
 33 66  1  0  0  0
 33 70  2  0  0  0
 34 36  1  0  0  0
 34 59  1  0  0  0
 34103  1  0  0  0
 35 44  2  0  0  0
 35 45  1  0  0  0
 35 68  1  0  0  0
 36 56  1  0  0  0
 36104  1  0  0  0
 37 39  1  0  0  0
 37 47  1  0  0  0
 37 66  1  0  0  0
 37105  1  0  0  0
 38 43  2  0  0  0
 38 46  1  0  0  0
 38 47  1  0  0  0
 39 64  1  0  0  0
 39 67  2  0  0  0
 40 52  1  0  0  0
 40 53  2  0  0  0
 40 58  1  0  0  0
 41106  1  0  0  0
 41107  1  0  0  0
 41108  1  0  0  0
 41 48  1  0  0  0
 42 43  1  0  0  0
 42 66  1  0  0  0
 42109  1  0  0  0
 42110  1  0  0  0
 43 44  1  0  0  0
 44111  1  0  0  0
 45 46  2  0  0  0
 45112  1  0  0  0
 46113  1  0  0  0
 47114  1  0  0  0
 47115  1  0  0  0
 48 56  1  0  0  0
 48 65  1  0  0  0
 48116  1  0  0  0
 49 50  1  0  0  0
 49 53  1  0  0  0
 49 64  1  0  0  0
 49117  1  0  0  0
 50 51  1  0  0  0
 50118  1  0  0  0
 50119  1  0  0  0
 51 52  1  0  0  0
 51120  1  0  0  0
 51121  1  0  0  0
 52122  1  0  0  0
 52123  1  0  0  0
 53 54  1  0  0  0
 54 55  2  0  0  0
 54124  1  0  0  0
 55 57  1  0  0  0
 55125  1  0  0  0
 56 69  2  0  0  0
 57 58  2  0  0  0
 57126  1  0  0  0
 58127  1  0  0  0
 59 60  1  0  0  0
 59 61  1  0  0  0
 59 62  1  0  0  0
 60128  1  0  0  0
 60129  1  0  0  0
 60130  1  0  0  0
 61131  1  0  0  0
 61132  1  0  0  0
 61133  1  0  0  0
 62134  1  0  0  0
 62135  1  0  0  0
 62136  1  0  0  0
 63 65  1  0  0  0
 63137  1  0  0  0
 63138  1  0  0  0
 63139  1  0  0  0
 64140  1  0  0  0
 65141  1  0  0  0
 68 78  1  0  0  0
 71 72  2  0  0  0
 71 74  1  0  0  0
 71142  1  0  0  0
 72 76  1  0  0  0
 72143  1  0  0  0
 73 74  2  0  0  0
 73 75  1  0  0  0
 73144  1  0  0  0
 74 78  1  0  0  0
 75 76  2  0  0  0
 75 77  1  0  0  0
 76 81  1  0  0  0
 77145  1  0  0  0
 77146  1  0  0  0
 77147  1  0  0  0
 78148  1  0  0  0
 78149  1  0  0  0
 79 80  1  0  0  0
 79 81  1  0  0  0
 79150  1  0  0  0
 79151  1  0  0  0
 80 82  1  0  0  0
 80152  1  0  0  0
 80153  1  0  0  0
 81154  1  0  0  0
 82155  1  0  0  0
M  ISO  4   1 100  68 101  78 101  82 100
M  END
> <chiral flag>
0

> <version>
0

> <s_m_source_file>
/data/baiqing/PycharmProjects/Reinvent-master-3.2/result/LINK_invent/BTK/process_docking_weight1_custom_sum_contain_oxygen_bond_distance_aromatic_linkinvent_7_9_3/rearranged_h_0131.sdf

> <i_m_source_file_index>
88

> <r_mmod_Potential_Energy-OPLS-2005>
2.75107836723328

> <r_mmod_Stretch_Energy-OPLS-2005>
82.9481582641602

> <r_mmod_Bend_Energy-OPLS-2005>
169.712844848633

> <r_mmod_Torsional_Energy-OPLS-2005>
206.219131469727

> <r_mmod_Improper_Torsional_Energy-OPLS-2005>
5.20110940933228

> <r_mmod_Van_der_Waal_Energy-OPLS-2005>
144.788864135742

> <r_mmod_Electrostatic_Energy-OPLS-2005>
-444.659606933594

> <r_mmod_Solvation_Energy-OPLS-2005>
-218.855834960938

> <b_mmod_Minimization_Converged-OPLS-2005>
0

> <r_mmod_RMS_Derivative-OPLS-2005>
3.17561507225037

$$$$
88
                    3D
 Structure written by MMmdl.
157166  0  0  1  0            999 V2000
  -30.6342  -14.7423   20.4770 C   0  0  0  0  0  0
  -30.4406  -12.4540   19.4776 C   0  0  0  0  0  0
  -29.5187  -12.5106   18.2403 C   0  0  0  0  0  0
  -28.0414  -12.3432   18.6473 C   0  0  0  0  0  0
  -27.6495  -13.2333   19.8582 C   0  0  2  0  0  0
  -28.6974  -13.1611   20.9913 C   0  0  0  0  0  0
  -25.2557  -13.8201   20.5683 C   0  0  0  0  0  0
  -24.1839  -13.0453   20.9188 C   0  0  0  0  0  0
  -24.6434  -11.6927   20.8736 C   0  0  0  0  0  0
  -23.9107  -10.4292   21.0402 C   0  0  0  0  0  0
  -24.3635   -9.4213   21.9198 C   0  0  0  0  0  0
  -23.6298   -8.2259   22.0781 C   0  0  0  0  0  0
  -22.4292   -8.0290   21.3556 C   0  0  0  0  0  0
  -21.9921   -9.0274   20.4666 C   0  0  0  0  0  0
  -22.7261  -10.2148   20.3064 C   0  0  0  0  0  0
  -21.6860   -6.0748   22.5281 C   0  0  0  0  0  0
  -21.4017   -6.5651   23.8219 C   0  0  0  0  0  0
  -21.3646   -5.6795   24.9173 C   0  0  0  0  0  0
  -21.6040   -4.3060   24.7217 C   0  0  0  0  0  0
  -21.8823   -3.8162   23.4344 C   0  0  0  0  0  0
  -21.9198   -4.6982   22.3403 C   0  0  0  0  0  0
  -22.7855  -13.5254   21.1830 C   0  0  0  0  0  0
  -22.1664   -4.2177   21.0974 F   0  0  0  0  0  0
  -21.5623   -3.4546   25.7730 F   0  0  0  0  0  0
  -29.9969  -13.5204   20.4072 N   0  0  0  0  0  0
  -26.2992  -12.9410   20.3304 N   0  0  0  0  0  0
  -25.9376  -11.6548   20.5775 N   0  0  0  0  0  0
  -22.0467  -12.8257   22.0364 N   0  0  0  0  0  0
  -25.4197  -15.1923   20.4087 N   0  0  0  0  0  0
  -31.8186  -14.8190   20.1392 O   0  0  0  0  0  0
  -21.6637   -6.8899   21.4252 O   0  0  0  0  0  0
  -22.3552  -14.5564   20.6678 O   0  0  0  0  0  0
  -24.6320  -31.8490   23.1929 C   0  0  0  0  0  0
  -25.9122  -32.4742   23.8299 C   0  0  1  0  0  0
  -27.2386  -27.2546   20.1451 C   0  0  0  0  0  0
  -25.5897  -33.8543   24.2197 N   0  0  0  0  0  0
  -23.4302  -30.4619   21.5385 C   0  0  2  0  0  0
  -24.8795  -28.9018   20.1077 C   0  0  0  0  0  0
  -22.7515  -29.4515   22.4952 C   0  0  0  0  0  0
  -18.0261  -28.1392   22.8486 C   0  0  0  0  0  0
  -24.1478  -36.7271   23.2654 C   0  0  0  0  0  0
  -25.9720  -30.7601   21.3721 C   0  0  0  0  0  0
  -26.0441  -29.3826   20.7141 C   0  0  0  0  0  0
  -27.2183  -28.5690   20.7200 C   0  0  0  0  0  0
  -26.0501  -26.8274   19.5126 C   0  0  0  0  0  0
  -24.8874  -27.6331   19.4971 C   0  0  0  0  0  0
  -23.6452  -29.7837   20.1581 C   0  0  0  0  0  0
  -25.4112  -36.3068   24.0346 C   0  0  1  0  0  0
  -20.5871  -28.3665   23.1325 C   0  0  2  0  0  0
  -20.6753  -26.9392   22.5451 C   0  0  0  0  0  0
  -19.5725  -26.6367   21.5255 C   0  0  0  0  0  0
  -18.1885  -26.7938   22.1621 C   0  0  0  0  0  0
  -19.1527  -28.8846   23.2878 C   0  0  0  0  0  0
  -18.9462  -30.1442   23.8904 C   0  0  0  0  0  0
  -17.6465  -30.6590   24.0556 C   0  0  0  0  0  0
  -25.9069  -34.9444   23.5090 C   0  0  0  0  0  0
  -16.5341  -29.9095   23.6351 C   0  0  0  0  0  0
  -16.7261  -28.6518   23.0372 C   0  0  0  0  0  0
  -26.4470  -31.6615   25.0742 C   0  0  0  0  0  0
  -25.3683  -31.3817   26.1475 C   0  0  0  0  0  0
  -27.0345  -30.3038   24.6267 C   0  0  0  0  0  0
  -27.5983  -32.4420   25.7513 C   0  0  0  0  0  0
  -27.5563  -37.1768   24.8461 C   0  0  0  0  0  0
  -21.4220  -29.2984   22.3710 N   0  0  0  0  0  0
  -26.4268  -37.3775   23.9426 N   0  0  0  0  0  0
  -24.6972  -31.0427   22.0915 N   0  0  0  0  0  0
  -23.4205  -28.8088   23.3072 O   0  0  0  0  0  0
  -28.3781  -26.4252   20.2576 O   0  0  0  0  0  0
  -26.5647  -34.8917   22.4666 O   0  0  0  0  0  0
  -23.5463  -32.1332   23.7191 O   0  0  0  0  0  0
  -31.9379  -19.0736   21.2052 C   0  0  0  0  0  0
  -31.5606  -17.7186   21.0740 C   0  0  0  0  0  0
  -28.7986  -20.9989   20.4639 C   0  0  0  0  0  0
  -29.3159  -18.4473   20.5408 C   0  0  0  0  0  0
  -30.5616  -22.5721   21.0040 C   0  0  0  0  0  0
  -31.0283  -20.1443   21.0057 C   0  0  0  0  0  0
  -29.6858  -19.8560   20.6502 C   0  0  0  0  0  0
  -29.2114  -22.3830   20.6381 C   0  0  0  0  0  0
  -30.2402  -17.3361   20.7497 C   0  0  0  0  0  0
  -31.4639  -21.4868   21.1905 C   0  0  0  0  0  0
  -33.1614  -22.9396   22.1127 C   0  0  0  0  0  0
  -28.2515  -23.6701   20.6427 C   0  0  0  0  0  0
  -28.5429  -25.0110   19.7636 C   0  0  0  0  0  0
  -29.8730  -15.8865   20.7093 N   0  0  0  0  0  0
  -32.7786  -21.6771   21.5792 O   0  0  0  0  0  0
  -31.4838  -12.5666   19.1767 H   0  0  0  0  0  0
  -30.3795  -11.4785   19.9632 H   0  0  0  0  0  0
  -29.8011  -11.7369   17.5269 H   0  0  0  0  0  0
  -29.6507  -13.4632   17.7268 H   0  0  0  0  0  0
  -27.8838  -11.2918   18.8892 H   0  0  0  0  0  0
  -27.3937  -12.5587   17.7959 H   0  0  0  0  0  0
  -27.6461  -14.2586   19.4896 H   0  0  0  0  0  0
  -28.7371  -12.1541   21.4127 H   0  0  0  0  0  0
  -28.4405  -13.8295   21.8147 H   0  0  0  0  0  0
  -25.2785   -9.5714   22.4774 H   0  0  0  0  0  0
  -24.0016   -7.4665   22.7509 H   0  0  0  0  0  0
  -21.0855   -8.8794   19.8969 H   0  0  0  0  0  0
  -22.3719  -10.9692   19.6171 H   0  0  0  0  0  0
  -21.1999   -7.6155   23.9738 H   0  0  0  0  0  0
  -21.1459   -6.0512   25.9075 H   0  0  0  0  0  0
  -22.0614   -2.7628   23.2827 H   0  0  0  0  0  0
  -22.4044  -11.9905   22.4750 H   0  0  0  0  0  0
  -21.1110  -13.1341   22.2587 H   0  0  0  0  0  0
  -24.6449  -15.8377   20.5158 H   0  0  0  0  0  0
  -26.2545  -15.6353   20.0498 H   0  0  0  0  0  0
  -26.7181  -32.5387   23.1039 H   0  0  0  0  0  0
  -25.0020  -33.9667   25.0319 H   0  0  0  0  0  0
  -22.7281  -31.2838   21.3872 H   0  0  0  0  0  0
  -23.3765  -35.9574   23.3322 H   0  0  0  0  0  0
  -24.3533  -36.8914   22.2060 H   0  0  0  0  0  0
  -23.7192  -37.6461   23.6674 H   0  0  0  0  0  0
  -26.1119  -31.5246   20.6056 H   0  0  0  0  0  0
  -26.8475  -30.8066   22.0090 H   0  0  0  0  0  0
  -28.1098  -28.9324   21.2106 H   0  0  0  0  0  0
  -25.9980  -25.8457   19.0632 H   0  0  0  0  0  0
  -23.9888  -27.2553   19.0275 H   0  0  0  0  0  0
  -23.7484  -30.5538   19.3931 H   0  0  0  0  0  0
  -22.7693  -29.2032   19.8650 H   0  0  0  0  0  0
  -25.1278  -36.1908   25.0839 H   0  0  0  0  0  0
  -20.9897  -28.3207   24.1473 H   0  0  0  0  0  0
  -20.5680  -26.2264   23.3649 H   0  0  0  0  0  0
  -21.6608  -26.7427   22.1215 H   0  0  0  0  0  0
  -19.6916  -25.6289   21.1275 H   0  0  0  0  0  0
  -19.6696  -27.3180   20.6800 H   0  0  0  0  0  0
  -17.4182  -26.6720   21.4000 H   0  0  0  0  0  0
  -18.0220  -26.0087   22.9017 H   0  0  0  0  0  0
  -19.7930  -30.7230   24.2285 H   0  0  0  0  0  0
  -17.5022  -31.6286   24.5114 H   0  0  0  0  0  0
  -15.5338  -30.2985   23.7701 H   0  0  0  0  0  0
  -15.8654  -28.0818   22.7127 H   0  0  0  0  0  0
  -24.5786  -30.7261   25.7791 H   0  0  0  0  0  0
  -24.8988  -32.3045   26.4911 H   0  0  0  0  0  0
  -25.7990  -30.8950   27.0237 H   0  0  0  0  0  0
  -26.2948  -29.6810   24.1230 H   0  0  0  0  0  0
  -27.3966  -29.7304   25.4805 H   0  0  0  0  0  0
  -27.8852  -30.4365   23.9579 H   0  0  0  0  0  0
  -27.2502  -33.3701   26.2067 H   0  0  0  0  0  0
  -28.3771  -32.7042   25.0337 H   0  0  0  0  0  0
  -28.0676  -31.8613   26.5465 H   0  0  0  0  0  0
  -28.2560  -38.0074   24.7504 H   0  0  0  0  0  0
  -28.1073  -36.2606   24.6279 H   0  0  0  0  0  0
  -27.2284  -37.1414   25.8862 H   0  0  0  0  0  0
  -20.9431  -29.8685   21.6889 H   0  0  0  0  0  0
  -26.0179  -38.2863   24.1445 H   0  0  0  0  0  0
  -32.9592  -19.2819   21.4910 H   0  0  0  0  0  0
  -32.3136  -16.9673   21.2651 H   0  0  0  0  0  0
  -27.7653  -20.8031   20.2152 H   0  0  0  0  0  0
  -28.2910  -18.2112   20.2940 H   0  0  0  0  0  0
  -30.8840  -23.5884   21.1776 H   0  0  0  0  0  0
  -34.1879  -22.8723   22.4760 H   0  0  0  0  0  0
  -32.5339  -23.2249   22.9602 H   0  0  0  0  0  0
  -33.1339  -23.7249   21.3556 H   0  0  0  0  0  0
  -28.2122  -23.9819   21.6864 H   0  0  0  0  0  0
  -27.2403  -23.3276   20.4243 H   0  0  0  0  0  0
  -28.0960  -24.9064   18.7739 H   0  0  0  0  0  0
  -29.6144  -24.9781   19.5601 H   0  0  0  0  0  0
  -28.8989  -15.6854   20.8659 H   0  0  0  0  0  0
  1 25  1  0  0  0
  1 30  2  0  0  0
  1 84  1  0  0  0
  2  3  1  0  0  0
  2 25  1  0  0  0
  2 86  1  0  0  0
  2 87  1  0  0  0
  3  4  1  0  0  0
  3 88  1  0  0  0
  3 89  1  0  0  0
  4  5  1  0  0  0
  4 90  1  0  0  0
  4 91  1  0  0  0
  5  6  1  0  0  0
  5 26  1  0  0  0
  5 92  1  0  0  0
  6 25  1  0  0  0
  6 93  1  0  0  0
  6 94  1  0  0  0
  7  8  2  0  0  0
  7 26  1  0  0  0
  7 29  1  0  0  0
  8  9  1  0  0  0
  8 22  1  0  0  0
  9 10  1  0  0  0
  9 27  2  0  0  0
 10 11  2  0  0  0
 10 15  1  0  0  0
 11 12  1  0  0  0
 11 95  1  0  0  0
 12 13  2  0  0  0
 12 96  1  0  0  0
 13 14  1  0  0  0
 13 31  1  0  0  0
 14 15  2  0  0  0
 14 97  1  0  0  0
 15 98  1  0  0  0
 16 17  2  0  0  0
 16 21  1  0  0  0
 16 31  1  0  0  0
 17 18  1  0  0  0
 17 99  1  0  0  0
 18 19  2  0  0  0
 18100  1  0  0  0
 19 20  1  0  0  0
 19 24  1  0  0  0
 20 21  2  0  0  0
 20101  1  0  0  0
 21 23  1  0  0  0
 22 28  1  0  0  0
 22 32  2  0  0  0
 26 27  1  0  0  0
 28102  1  0  0  0
 28103  1  0  0  0
 29104  1  0  0  0
 29105  1  0  0  0
 33 34  1  0  0  0
 33 66  1  0  0  0
 33 70  2  0  0  0
 34 36  1  0  0  0
 34 59  1  0  0  0
 34106  1  0  0  0
 35 44  2  0  0  0
 35 45  1  0  0  0
 35 68  1  0  0  0
 36 56  1  0  0  0
 36107  1  0  0  0
 37 39  1  0  0  0
 37 47  1  0  0  0
 37 66  1  0  0  0
 37108  1  0  0  0
 38 43  2  0  0  0
 38 46  1  0  0  0
 38 47  1  0  0  0
 39 64  1  0  0  0
 39 67  2  0  0  0
 40 52  1  0  0  0
 40 53  2  0  0  0
 40 58  1  0  0  0
 41109  1  0  0  0
 41110  1  0  0  0
 41111  1  0  0  0
 41 48  1  0  0  0
 42 43  1  0  0  0
 42 66  1  0  0  0
 42112  1  0  0  0
 42113  1  0  0  0
 43 44  1  0  0  0
 44114  1  0  0  0
 45 46  2  0  0  0
 45115  1  0  0  0
 46116  1  0  0  0
 47117  1  0  0  0
 47118  1  0  0  0
 48 56  1  0  0  0
 48 65  1  0  0  0
 48119  1  0  0  0
 49 50  1  0  0  0
 49 53  1  0  0  0
 49 64  1  0  0  0
 49120  1  0  0  0
 50 51  1  0  0  0
 50121  1  0  0  0
 50122  1  0  0  0
 51 52  1  0  0  0
 51123  1  0  0  0
 51124  1  0  0  0
 52125  1  0  0  0
 52126  1  0  0  0
 53 54  1  0  0  0
 54 55  2  0  0  0
 54127  1  0  0  0
 55 57  1  0  0  0
 55128  1  0  0  0
 56 69  2  0  0  0
 57 58  2  0  0  0
 57129  1  0  0  0
 58130  1  0  0  0
 59 60  1  0  0  0
 59 61  1  0  0  0
 59 62  1  0  0  0
 60131  1  0  0  0
 60132  1  0  0  0
 60133  1  0  0  0
 61134  1  0  0  0
 61135  1  0  0  0
 61136  1  0  0  0
 62137  1  0  0  0
 62138  1  0  0  0
 62139  1  0  0  0
 63 65  1  0  0  0
 63140  1  0  0  0
 63141  1  0  0  0
 63142  1  0  0  0
 64143  1  0  0  0
 65144  1  0  0  0
 68 83  1  0  0  0
 71 72  2  0  0  0
 71 76  1  0  0  0
 71145  1  0  0  0
 72 79  1  0  0  0
 72146  1  0  0  0
 73 77  1  0  0  0
 73 78  2  0  0  0
 73147  1  0  0  0
 74 77  1  0  0  0
 74 79  2  0  0  0
 74148  1  0  0  0
 75 78  1  0  0  0
 75 80  2  0  0  0
 75149  1  0  0  0
 76 77  2  0  0  0
 76 80  1  0  0  0
 78 82  1  0  0  0
 79 84  1  0  0  0
 80 85  1  0  0  0
 81 85  1  0  0  0
 81150  1  0  0  0
 81151  1  0  0  0
 81152  1  0  0  0
 82 83  1  0  0  0
 82153  1  0  0  0
 82154  1  0  0  0
 83155  1  0  0  0
 83156  1  0  0  0
 84157  1  0  0  0
M  ISO  4   1 100  68 101  83 101  84 100
M  END
> <chiral flag>
0

> <version>
0

> <s_m_source_file>
/data/baiqing/PycharmProjects/Reinvent-master-3.2/result/LINK_invent/BTK/process_docking_weight1_custom_sum_contain_oxygen_bond_distance_aromatic_linkinvent_7_9_3/rearranged_h_0131.sdf

> <i_m_source_file_index>
89

> <r_mmod_Potential_Energy-OPLS-2005>
219.136672973633

> <r_mmod_Stretch_Energy-OPLS-2005>
131.72526550293

> <r_mmod_Bend_Energy-OPLS-2005>
190.035705566406

> <r_mmod_Torsional_Energy-OPLS-2005>
217.793884277344

> <r_mmod_Improper_Torsional_Energy-OPLS-2005>
5.89501905441284

> <r_mmod_Van_der_Waal_Energy-OPLS-2005>
157.506286621094

> <r_mmod_Electrostatic_Energy-OPLS-2005>
-350.785552978516

> <r_mmod_Solvation_Energy-OPLS-2005>
-216.648635864258

> <b_mmod_Minimization_Converged-OPLS-2005>
0

> <r_mmod_RMS_Derivative-OPLS-2005>
3.64988851547241

$$$$
89
                    3D
 Structure written by MMmdl.
159168  0  0  1  0            999 V2000
  -30.6031  -14.6084   20.5206 C   0  0  0  0  0  0
  -30.4440  -12.3743   19.4381 C   0  0  0  0  0  0
  -29.5028  -12.5019   18.2176 C   0  0  0  0  0  0
  -28.0252  -12.3429   18.6319 C   0  0  0  0  0  0
  -27.6566  -13.2034   19.8691 C   0  0  2  0  0  0
  -28.7011  -13.0122   20.9922 C   0  0  0  0  0  0
  -25.2592  -13.8143   20.5699 C   0  0  0  0  0  0
  -24.1836  -13.0431   20.9195 C   0  0  0  0  0  0
  -24.6384  -11.6893   20.8740 C   0  0  0  0  0  0
  -23.9056  -10.4282   21.0406 C   0  0  0  0  0  0
  -24.3608   -9.4198   21.9181 C   0  0  0  0  0  0
  -23.6294   -8.2230   22.0749 C   0  0  0  0  0  0
  -22.4270   -8.0270   21.3545 C   0  0  0  0  0  0
  -21.9903   -9.0240   20.4646 C   0  0  0  0  0  0
  -22.7228  -10.2124   20.3058 C   0  0  0  0  0  0
  -21.6849   -6.0736   22.5282 C   0  0  0  0  0  0
  -21.4010   -6.5640   23.8216 C   0  0  0  0  0  0
  -21.3656   -5.6794   24.9180 C   0  0  0  0  0  0
  -21.6043   -4.3059   24.7225 C   0  0  0  0  0  0
  -21.8819   -3.8148   23.4351 C   0  0  0  0  0  0
  -21.9192   -4.6966   22.3410 C   0  0  0  0  0  0
  -22.7864  -13.5233   21.1869 C   0  0  0  0  0  0
  -22.1658   -4.2152   21.0993 F   0  0  0  0  0  0
  -21.5631   -3.4547   25.7740 F   0  0  0  0  0  0
  -30.0200  -13.3708   20.4403 N   0  0  0  0  0  0
  -26.3000  -12.9296   20.3332 N   0  0  0  0  0  0
  -25.9310  -11.6464   20.5759 N   0  0  0  0  0  0
  -22.0513  -12.8201   22.0415 N   0  0  0  0  0  0
  -25.4347  -15.1869   20.4146 N   0  0  0  0  0  0
  -31.7484  -14.8084   20.0986 O   0  0  0  0  0  0
  -21.6637   -6.8867   21.4241 O   0  0  0  0  0  0
  -22.3543  -14.5537   20.6731 O   0  0  0  0  0  0
  -24.6222  -31.8606   23.2022 C   0  0  0  0  0  0
  -25.9069  -32.4800   23.8342 C   0  0  1  0  0  0
  -27.2344  -27.3446   20.1262 C   0  0  0  0  0  0
  -25.5890  -33.8610   24.2266 N   0  0  0  0  0  0
  -23.4151  -30.4795   21.5455 C   0  0  2  0  0  0
  -24.8655  -28.9272   20.1193 C   0  0  0  0  0  0
  -22.7461  -29.4613   22.4980 C   0  0  0  0  0  0
  -18.0279  -28.1392   22.8458 C   0  0  0  0  0  0
  -24.1495  -36.7296   23.2634 C   0  0  0  0  0  0
  -25.9525  -30.7994   21.3685 C   0  0  0  0  0  0
  -26.0302  -29.4248   20.7171 C   0  0  0  0  0  0
  -27.2202  -28.6449   20.7073 C   0  0  0  0  0  0
  -26.0510  -26.8787   19.5196 C   0  0  0  0  0  0
  -24.8754  -27.6577   19.5134 C   0  0  0  0  0  0
  -23.6304  -29.8040   20.1639 C   0  0  0  0  0  0
  -25.4113  -36.3101   24.0336 C   0  0  1  0  0  0
  -20.5868  -28.3664   23.1310 C   0  0  2  0  0  0
  -20.6769  -26.9394   22.5428 C   0  0  0  0  0  0
  -19.5766  -26.6364   21.5218 C   0  0  0  0  0  0
  -18.1932  -26.7928   22.1598 C   0  0  0  0  0  0
  -19.1532  -28.8844   23.2878 C   0  0  0  0  0  0
  -18.9461  -30.1432   23.8904 C   0  0  0  0  0  0
  -17.6471  -30.6583   24.0551 C   0  0  0  0  0  0
  -25.9054  -34.9470   23.5109 C   0  0  0  0  0  0
  -16.5355  -29.9079   23.6339 C   0  0  0  0  0  0
  -16.7273  -28.6508   23.0345 C   0  0  0  0  0  0
  -26.4450  -31.6617   25.0719 C   0  0  0  0  0  0
  -25.3668  -31.3774   26.1442 C   0  0  0  0  0  0
  -27.0274  -30.3054   24.6121 C   0  0  0  0  0  0
  -27.6032  -32.4322   25.7474 C   0  0  0  0  0  0
  -27.5592  -37.1766   24.8440 C   0  0  0  0  0  0
  -21.4181  -29.3030   22.3727 N   0  0  0  0  0  0
  -26.4281  -37.3795   23.9428 N   0  0  0  0  0  0
  -24.6823  -31.0618   22.0970 N   0  0  0  0  0  0
  -23.4205  -28.8153   23.3057 O   0  0  0  0  0  0
  -28.3786  -26.5485   20.0950 O   0  0  0  0  0  0
  -26.5630  -34.8927   22.4686 O   0  0  0  0  0  0
  -23.5382  -32.1390   23.7362 O   0  0  0  0  0  0
  -28.1454  -18.9642   20.9883 C   0  0  0  0  0  0
  -28.4389  -17.5935   21.2012 C   0  0  0  0  0  0
  -30.2930  -19.1650   19.9757 C   0  0  0  0  0  0
  -29.0817  -19.8065   20.3480 C   0  0  0  0  0  0
  -29.6583  -17.0188   20.7701 C   0  0  0  0  0  0
  -30.0223  -22.5421   21.8134 C   0  0  0  0  0  0
  -29.0563  -21.9993   22.8539 C   0  0  0  0  0  0
  -28.8522  -22.5458   20.8149 C   0  0  2  0  0  0
  -28.7087  -21.2649   19.8803 C   0  0  0  0  0  0
  -28.5403  -23.9062   20.0237 C   0  0  0  0  0  0
  -28.3700  -25.2733   20.8249 C   0  0  0  0  0  0
  -30.5698  -17.8374   20.1775 N   0  0  0  0  0  0
  -29.7794  -15.5880   20.9980 N   0  0  0  0  0  0
  -27.9615  -22.4135   21.9850 N   0  3  0  0  0  0
  -31.4816  -12.5157   19.1319 H   0  0  0  0  0  0
  -30.3933  -11.3690   19.8605 H   0  0  0  0  0  0
  -29.7585  -11.7531   17.4672 H   0  0  0  0  0  0
  -29.6457  -13.4724   17.7408 H   0  0  0  0  0  0
  -27.8564  -11.2885   18.8540 H   0  0  0  0  0  0
  -27.3689  -12.5820   17.7938 H   0  0  0  0  0  0
  -27.6868  -14.2441   19.5461 H   0  0  0  0  0  0
  -28.7107  -11.9727   21.3244 H   0  0  0  0  0  0
  -28.4449  -13.5942   21.8788 H   0  0  0  0  0  0
  -25.2756   -9.5677   22.4754 H   0  0  0  0  0  0
  -24.0011   -7.4616   22.7462 H   0  0  0  0  0  0
  -21.0834   -8.8750   19.8950 H   0  0  0  0  0  0
  -22.3678  -10.9661   19.6167 H   0  0  0  0  0  0
  -21.1993   -7.6141   23.9720 H   0  0  0  0  0  0
  -21.1479   -6.0524   25.9082 H   0  0  0  0  0  0
  -22.0600   -2.7610   23.2855 H   0  0  0  0  0  0
  -22.4134  -11.9845   22.4767 H   0  0  0  0  0  0
  -21.1138  -13.1215   22.2657 H   0  0  0  0  0  0
  -24.6720  -15.8432   20.5395 H   0  0  0  0  0  0
  -26.2748  -15.6226   20.0571 H   0  0  0  0  0  0
  -26.7146  -32.5466   23.1092 H   0  0  0  0  0  0
  -25.0010  -33.9789   25.0379 H   0  0  0  0  0  0
  -22.7065  -31.2978   21.3969 H   0  0  0  0  0  0
  -23.3795  -35.9591   23.3268 H   0  0  0  0  0  0
  -24.3579  -36.8959   22.2055 H   0  0  0  0  0  0
  -23.7224  -37.6472   23.6682 H   0  0  0  0  0  0
  -26.0724  -31.5608   20.5966 H   0  0  0  0  0  0
  -26.8382  -30.8534   21.9906 H   0  0  0  0  0  0
  -28.1228  -29.0238   21.1631 H   0  0  0  0  0  0
  -26.0371  -25.9070   19.0455 H   0  0  0  0  0  0
  -23.9809  -27.2718   19.0451 H   0  0  0  0  0  0
  -23.7476  -30.5769   19.4037 H   0  0  0  0  0  0
  -22.7528  -29.2307   19.8626 H   0  0  0  0  0  0
  -25.1295  -36.1932   25.0830 H   0  0  0  0  0  0
  -20.9916  -28.3209   24.1449 H   0  0  0  0  0  0
  -20.5670  -26.2266   23.3610 H   0  0  0  0  0  0
  -21.6639  -26.7423   22.1228 H   0  0  0  0  0  0
  -19.6951  -25.6283   21.1249 H   0  0  0  0  0  0
  -19.6747  -27.3173   20.6760 H   0  0  0  0  0  0
  -17.4214  -26.6687   21.3991 H   0  0  0  0  0  0
  -18.0302  -26.0070   22.8989 H   0  0  0  0  0  0
  -19.7953  -30.7221   24.2287 H   0  0  0  0  0  0
  -17.5047  -31.6280   24.5122 H   0  0  0  0  0  0
  -15.5366  -30.2989   23.7676 H   0  0  0  0  0  0
  -15.8665  -28.0830   22.7072 H   0  0  0  0  0  0
  -24.5870  -30.7089   25.7772 H   0  0  0  0  0  0
  -24.8809  -32.2952   26.4770 H   0  0  0  0  0  0
  -25.7958  -30.9022   27.0271 H   0  0  0  0  0  0
  -26.2833  -29.6846   24.1114 H   0  0  0  0  0  0
  -27.3997  -29.7264   25.4577 H   0  0  0  0  0  0
  -27.8684  -30.4402   23.9315 H   0  0  0  0  0  0
  -27.2687  -33.3645   26.2026 H   0  0  0  0  0  0
  -28.3833  -32.6835   25.0283 H   0  0  0  0  0  0
  -28.0691  -31.8455   26.5394 H   0  0  0  0  0  0
  -28.2532  -38.0135   24.7569 H   0  0  0  0  0  0
  -28.1165  -36.2668   24.6142 H   0  0  0  0  0  0
  -27.2320  -37.1253   25.8839 H   0  0  0  0  0  0
  -20.9363  -29.8755   21.6933 H   0  0  0  0  0  0
  -26.0177  -38.2855   24.1511 H   0  0  0  0  0  0
  -27.1779  -19.3453   21.2807 H   0  0  0  0  0  0
  -27.6843  -16.9785   21.6747 H   0  0  0  0  0  0
  -31.0521  -19.7206   19.4454 H   0  0  0  0  0  0
  -30.8377  -21.8594   21.5662 H   0  0  0  0  0  0
  -30.4086  -23.5308   22.0630 H   0  0  0  0  0  0
  -29.0789  -22.5202   23.8126 H   0  0  0  0  0  0
  -29.1112  -20.9167   22.9786 H   0  0  0  0  0  0
  -27.6818  -21.2108   19.5153 H   0  0  0  0  0  0
  -29.2909  -21.4385   18.9747 H   0  0  0  0  0  0
  -27.6429  -23.7739   19.4173 H   0  0  0  0  0  0
  -29.3378  -24.0586   19.2963 H   0  0  0  0  0  0
  -29.1965  -25.3588   21.5292 H   0  0  0  0  0  0
  -27.4748  -25.2149   21.4463 H   0  0  0  0  0  0
  -28.9584  -15.1867   21.4189 H   0  0  0  0  0  0
  -27.5796  -23.2917   22.2952 H   0  0  0  0  0  0
  -27.2362  -21.7193   21.8958 H   0  0  0  0  0  0
  1 25  1  0  0  0
  1 30  2  0  0  0
  1 83  1  0  0  0
  2  3  1  0  0  0
  2 25  1  0  0  0
  2 85  1  0  0  0
  2 86  1  0  0  0
  3  4  1  0  0  0
  3 87  1  0  0  0
  3 88  1  0  0  0
  4  5  1  0  0  0
  4 89  1  0  0  0
  4 90  1  0  0  0
  5  6  1  0  0  0
  5 26  1  0  0  0
  5 91  1  0  0  0
  6 25  1  0  0  0
  6 92  1  0  0  0
  6 93  1  0  0  0
  7  8  2  0  0  0
  7 26  1  0  0  0
  7 29  1  0  0  0
  8  9  1  0  0  0
  8 22  1  0  0  0
  9 10  1  0  0  0
  9 27  2  0  0  0
 10 11  2  0  0  0
 10 15  1  0  0  0
 11 12  1  0  0  0
 11 94  1  0  0  0
 12 13  2  0  0  0
 12 95  1  0  0  0
 13 14  1  0  0  0
 13 31  1  0  0  0
 14 15  2  0  0  0
 14 96  1  0  0  0
 15 97  1  0  0  0
 16 17  2  0  0  0
 16 21  1  0  0  0
 16 31  1  0  0  0
 17 18  1  0  0  0
 17 98  1  0  0  0
 18 19  2  0  0  0
 18 99  1  0  0  0
 19 20  1  0  0  0
 19 24  1  0  0  0
 20 21  2  0  0  0
 20100  1  0  0  0
 21 23  1  0  0  0
 22 28  1  0  0  0
 22 32  2  0  0  0
 26 27  1  0  0  0
 28101  1  0  0  0
 28102  1  0  0  0
 29103  1  0  0  0
 29104  1  0  0  0
 33 34  1  0  0  0
 33 66  1  0  0  0
 33 70  2  0  0  0
 34 36  1  0  0  0
 34 59  1  0  0  0
 34105  1  0  0  0
 35 44  2  0  0  0
 35 45  1  0  0  0
 35 68  1  0  0  0
 36 56  1  0  0  0
 36106  1  0  0  0
 37 39  1  0  0  0
 37 47  1  0  0  0
 37 66  1  0  0  0
 37107  1  0  0  0
 38 43  2  0  0  0
 38 46  1  0  0  0
 38 47  1  0  0  0
 39 64  1  0  0  0
 39 67  2  0  0  0
 40 52  1  0  0  0
 40 53  2  0  0  0
 40 58  1  0  0  0
 41108  1  0  0  0
 41109  1  0  0  0
 41110  1  0  0  0
 41 48  1  0  0  0
 42 43  1  0  0  0
 42 66  1  0  0  0
 42111  1  0  0  0
 42112  1  0  0  0
 43 44  1  0  0  0
 44113  1  0  0  0
 45 46  2  0  0  0
 45114  1  0  0  0
 46115  1  0  0  0
 47116  1  0  0  0
 47117  1  0  0  0
 48 56  1  0  0  0
 48 65  1  0  0  0
 48118  1  0  0  0
 49 50  1  0  0  0
 49 53  1  0  0  0
 49 64  1  0  0  0
 49119  1  0  0  0
 50 51  1  0  0  0
 50120  1  0  0  0
 50121  1  0  0  0
 51 52  1  0  0  0
 51122  1  0  0  0
 51123  1  0  0  0
 52124  1  0  0  0
 52125  1  0  0  0
 53 54  1  0  0  0
 54 55  2  0  0  0
 54126  1  0  0  0
 55 57  1  0  0  0
 55127  1  0  0  0
 56 69  2  0  0  0
 57 58  2  0  0  0
 57128  1  0  0  0
 58129  1  0  0  0
 59 60  1  0  0  0
 59 61  1  0  0  0
 59 62  1  0  0  0
 60130  1  0  0  0
 60131  1  0  0  0
 60132  1  0  0  0
 61133  1  0  0  0
 61134  1  0  0  0
 61135  1  0  0  0
 62136  1  0  0  0
 62137  1  0  0  0
 62138  1  0  0  0
 63 65  1  0  0  0
 63139  1  0  0  0
 63140  1  0  0  0
 63141  1  0  0  0
 64142  1  0  0  0
 65143  1  0  0  0
 68 81  1  0  0  0
 71 72  2  0  0  0
 71 74  1  0  0  0
 71144  1  0  0  0
 72 75  1  0  0  0
 72145  1  0  0  0
 73 74  2  0  0  0
 73 82  1  0  0  0
 73146  1  0  0  0
 74 79  1  0  0  0
 75 82  2  0  0  0
 75 83  1  0  0  0
 76 77  1  0  0  0
 76 78  1  0  0  0
 76147  1  0  0  0
 76148  1  0  0  0
 77 84  1  0  0  0
 77149  1  0  0  0
 77150  1  0  0  0
 78 79  1  0  0  0
 78 80  1  0  0  0
 78 84  1  0  0  0
 79151  1  0  0  0
 79152  1  0  0  0
 80 81  1  0  0  0
 80153  1  0  0  0
 80154  1  0  0  0
 81155  1  0  0  0
 81156  1  0  0  0
 83157  1  0  0  0
 84158  1  0  0  0
 84159  1  0  0  0
M  CHG  1  84   1
M  ISO  4   1 100  68 101  81 101  83 100
M  END
> <chiral flag>
0

> <version>
0

> <s_m_source_file>
/data/baiqing/PycharmProjects/Reinvent-master-3.2/result/LINK_invent/BTK/process_docking_weight1_custom_sum_contain_oxygen_bond_distance_aromatic_linkinvent_7_9_3/rearranged_h_0131.sdf

> <i_m_source_file_index>
90

> <r_mmod_Potential_Energy-OPLS-2005>
-215.20100402832

> <r_mmod_Stretch_Energy-OPLS-2005>
76.3886260986328

> <r_mmod_Bend_Energy-OPLS-2005>
155.448150634766

> <r_mmod_Torsional_Energy-OPLS-2005>
284.202575683594

> <r_mmod_Improper_Torsional_Energy-OPLS-2005>
4.81698846817017

> <r_mmod_Van_der_Waal_Energy-OPLS-2005>
134.387344360352

> <r_mmod_Electrostatic_Energy-OPLS-2005>
-391.316314697266

> <r_mmod_Solvation_Energy-OPLS-2005>
-515.121765136719

> <b_mmod_Minimization_Converged-OPLS-2005>
0

> <r_mmod_RMS_Derivative-OPLS-2005>
2.40337061882019

$$$$
90
                    3D
 Structure written by MMmdl.
199210  0  0  1  0            999 V2000
  -30.6455  -14.5821   20.3984 C   0  0  0  0  0  0
  -30.4313  -12.3152   19.4590 C   0  0  0  0  0  0
  -29.4943  -12.2844   18.2311 C   0  0  0  0  0  0
  -28.0018  -12.2771   18.6345 C   0  0  0  0  0  0
  -27.6373  -13.1923   19.8387 C   0  0  2  0  0  0
  -28.6854  -13.1111   20.9632 C   0  0  0  0  0  0
  -25.2562  -13.8130   20.5730 C   0  0  0  0  0  0
  -24.1800  -13.0425   20.9242 C   0  0  0  0  0  0
  -24.6337  -11.6894   20.8795 C   0  0  0  0  0  0
  -23.9025  -10.4271   21.0455 C   0  0  0  0  0  0
  -24.3597   -9.4189   21.9217 C   0  0  0  0  0  0
  -23.6297   -8.2214   22.0765 C   0  0  0  0  0  0
  -22.4274   -8.0266   21.3552 C   0  0  0  0  0  0
  -21.9898   -9.0245   20.4654 C   0  0  0  0  0  0
  -22.7215  -10.2136   20.3073 C   0  0  0  0  0  0
  -21.6839   -6.0733   22.5293 C   0  0  0  0  0  0
  -21.4016   -6.5649   23.8232 C   0  0  0  0  0  0
  -21.3648   -5.6798   24.9190 C   0  0  0  0  0  0
  -21.6047   -4.3069   24.7235 C   0  0  0  0  0  0
  -21.8815   -3.8151   23.4348 C   0  0  0  0  0  0
  -21.9215   -4.6970   22.3412 C   0  0  0  0  0  0
  -22.7829  -13.5281   21.1889 C   0  0  0  0  0  0
  -22.1668   -4.2161   21.0983 F   0  0  0  0  0  0
  -21.5633   -3.4547   25.7746 F   0  0  0  0  0  0
  -29.9904  -13.3904   20.3601 N   0  0  0  0  0  0
  -26.2913  -12.9260   20.3303 N   0  0  0  0  0  0
  -25.9247  -11.6441   20.5810 N   0  0  0  0  0  0
  -22.0449  -12.8238   22.0397 N   0  0  0  0  0  0
  -25.4306  -15.1836   20.4106 N   0  0  0  0  0  0
  -31.8684  -14.6490   20.2788 O   0  0  0  0  0  0
  -21.6642   -6.8871   21.4246 O   0  0  0  0  0  0
  -22.3523  -14.5595   20.6770 O   0  0  0  0  0  0
  -24.6164  -31.8661   23.2084 C   0  0  0  0  0  0
  -25.9034  -32.4823   23.8394 C   0  0  1  0  0  0
  -27.2368  -27.4168   20.1136 C   0  0  0  0  0  0
  -25.5896  -33.8624   24.2337 N   0  0  0  0  0  0
  -23.4066  -30.4887   21.5479 C   0  0  2  0  0  0
  -24.8579  -28.9581   20.1116 C   0  0  0  0  0  0
  -22.7414  -29.4636   22.4959 C   0  0  0  0  0  0
  -18.0272  -28.1361   22.8500 C   0  0  0  0  0  0
  -24.1491  -36.7314   23.2643 C   0  0  0  0  0  0
  -25.9365  -30.8336   21.3621 C   0  0  0  0  0  0
  -26.0177  -29.4659   20.7098 C   0  0  0  0  0  0
  -27.2090  -28.7039   20.7056 C   0  0  0  0  0  0
  -26.0619  -26.9433   19.4821 C   0  0  0  0  0  0
  -24.8762  -27.6987   19.4923 C   0  0  0  0  0  0
  -23.6179  -29.8202   20.1624 C   0  0  0  0  0  0
  -25.4107  -36.3119   24.0348 C   0  0  1  0  0  0
  -20.5874  -28.3654   23.1304 C   0  0  2  0  0  0
  -20.6761  -26.9385   22.5411 C   0  0  0  0  0  0
  -19.5733  -26.6374   21.5210 C   0  0  0  0  0  0
  -18.1913  -26.7914   22.1625 C   0  0  0  0  0  0
  -19.1533  -28.8818   23.2906 C   0  0  0  0  0  0
  -18.9450  -30.1431   23.8908 C   0  0  0  0  0  0
  -17.6463  -30.6585   24.0562 C   0  0  0  0  0  0
  -25.9019  -34.9477   23.5142 C   0  0  0  0  0  0
  -16.5344  -29.9084   23.6325 C   0  0  0  0  0  0
  -16.7264  -28.6502   23.0357 C   0  0  0  0  0  0
  -26.4468  -31.6600   25.0719 C   0  0  0  0  0  0
  -25.3743  -31.3695   26.1474 C   0  0  0  0  0  0
  -27.0284  -30.3034   24.6084 C   0  0  0  0  0  0
  -27.6056  -32.4292   25.7484 C   0  0  0  0  0  0
  -27.5580  -37.1814   24.8457 C   0  0  0  0  0  0
  -21.4143  -29.3040   22.3716 N   0  0  0  0  0  0
  -26.4286  -37.3797   23.9414 N   0  0  0  0  0  0
  -24.6713  -31.0768   22.0983 N   0  0  0  0  0  0
  -23.4181  -28.8183   23.3011 O   0  0  0  0  0  0
  -28.3850  -26.6448   20.2003 O   0  0  0  0  0  0
  -26.5596  -34.8926   22.4712 O   0  0  0  0  0  0
  -23.5345  -32.1407   23.7463 O   0  0  0  0  0  0
  -31.8834  -19.0069   20.6332 C   0  0  0  0  0  0
  -30.0320  -17.0805   24.6101 C   0  0  0  0  0  0
  -29.1947  -18.3383   24.8757 C   0  0  0  0  0  0
  -30.6766  -17.1283   23.2198 C   0  0  0  0  0  0
  -29.4453  -22.9518   20.5805 C   0  0  0  0  0  0
  -27.1654  -23.2761   21.6156 C   0  0  0  0  0  0
  -28.0988  -18.5157   23.8106 C   0  0  0  0  0  0
  -29.5895  -24.5010   20.5034 C   0  0  0  0  0  0
  -27.3681  -24.8026   21.5454 C   0  0  0  0  0  0
  -33.3414  -20.3071   23.6254 C   0  0  0  0  0  0
  -29.6027  -15.8922   18.6769 C   0  0  0  0  0  0
  -34.7416  -20.6020   24.2004 C   0  0  0  0  0  0
  -30.8203  -16.5162   17.9351 C   0  0  0  0  0  0
  -35.0638  -20.1335   21.9267 C   0  0  0  0  0  0
  -31.4475  -17.6420   20.0880 C   0  0  1  0  0  0
  -29.6159  -17.3383   22.1161 C   0  0  2  0  0  0
  -28.4817  -22.4595   21.6964 C   0  0  1  0  0  0
  -30.0796  -17.0946   20.6370 C   0  0  2  0  0  0
  -33.5437  -20.1902   22.1035 C   0  0  1  0  0  0
  -28.6604  -18.5857   22.3690 C   0  0  2  0  0  0
  -28.2284  -25.2078   20.3263 C   0  0  1  0  0  0
  -28.1299  -20.9325   21.6417 C   0  0  0  0  0  0
  -29.8792  -15.6942   20.1183 N   0  0  0  0  0  0
  -32.9177  -19.0222   21.4843 N   0  0  0  0  0  0
  -35.6025  -20.9151   23.0453 N   0  3  0  0  0  0
  -31.3499  -17.7266   18.6115 N   0  3  0  0  0  0
  -29.1821  -19.9688   22.0904 N   0  3  0  0  0  0
  -31.2569  -20.0184   20.3145 O   0  0  0  0  0  0
  -31.4646  -12.4461   19.1300 H   0  0  0  0  0  0
  -30.3991  -11.3579   19.9856 H   0  0  0  0  0  0
  -29.6952  -11.3655   17.6800 H   0  0  0  0  0  0
  -29.7266  -13.0669   17.5156 H   0  0  0  0  0  0
  -27.7664  -11.2423   18.8846 H   0  0  0  0  0  0
  -27.3780  -12.5139   17.7720 H   0  0  0  0  0  0
  -27.6239  -14.2084   19.4579 H   0  0  0  0  0  0
  -28.6790  -12.1263   21.4293 H   0  0  0  0  0  0
  -28.4538  -13.8335   21.7474 H   0  0  0  0  0  0
  -25.2731   -9.5689   22.4802 H   0  0  0  0  0  0
  -24.0043   -7.4585   22.7443 H   0  0  0  0  0  0
  -21.0855   -8.8723   19.8917 H   0  0  0  0  0  0
  -22.3666  -10.9683   19.6173 H   0  0  0  0  0  0
  -21.1972   -7.6142   23.9744 H   0  0  0  0  0  0
  -21.1482   -6.0519   25.9107 H   0  0  0  0  0  0
  -22.0605   -2.7617   23.2860 H   0  0  0  0  0  0
  -22.4079  -11.9929   22.4819 H   0  0  0  0  0  0
  -21.1037  -13.1221   22.2546 H   0  0  0  0  0  0
  -24.6645  -15.8372   20.5218 H   0  0  0  0  0  0
  -26.2861  -15.6253   20.1001 H   0  0  0  0  0  0
  -26.7116  -32.5558   23.1174 H   0  0  0  0  0  0
  -25.0061  -33.9776   25.0494 H   0  0  0  0  0  0
  -22.6961  -31.3067   21.4039 H   0  0  0  0  0  0
  -23.3751  -35.9637   23.3280 H   0  0  0  0  0  0
  -24.3580  -36.8946   22.2054 H   0  0  0  0  0  0
  -23.7214  -37.6510   23.6658 H   0  0  0  0  0  0
  -26.0435  -31.5972   20.5906 H   0  0  0  0  0  0
  -26.8269  -30.8928   21.9768 H   0  0  0  0  0  0
  -28.1025  -29.0840   21.1857 H   0  0  0  0  0  0
  -26.0402  -25.9817   18.9962 H   0  0  0  0  0  0
  -23.9866  -27.3022   19.0258 H   0  0  0  0  0  0
  -23.7231  -30.5941   19.4002 H   0  0  0  0  0  0
  -22.7440  -29.2357   19.8672 H   0  0  0  0  0  0
  -25.1273  -36.2002   25.0834 H   0  0  0  0  0  0
  -20.9972  -28.3230   24.1423 H   0  0  0  0  0  0
  -20.5659  -26.2258   23.3603 H   0  0  0  0  0  0
  -21.6631  -26.7414   22.1215 H   0  0  0  0  0  0
  -19.6890  -25.6292   21.1225 H   0  0  0  0  0  0
  -19.6675  -27.3202   20.6760 H   0  0  0  0  0  0
  -17.4184  -26.6680   21.4026 H   0  0  0  0  0  0
  -18.0302  -26.0047   22.9013 H   0  0  0  0  0  0
  -19.7926  -30.7253   24.2294 H   0  0  0  0  0  0
  -17.5001  -31.6261   24.5158 H   0  0  0  0  0  0
  -15.5347  -30.2987   23.7626 H   0  0  0  0  0  0
  -15.8662  -28.0814   22.7054 H   0  0  0  0  0  0
  -24.5879  -30.7086   25.7806 H   0  0  0  0  0  0
  -24.8986  -32.2857   26.4981 H   0  0  0  0  0  0
  -25.8100  -30.8803   27.0197 H   0  0  0  0  0  0
  -26.2814  -29.6795   24.1145 H   0  0  0  0  0  0
  -27.4070  -29.7257   25.4537 H   0  0  0  0  0  0
  -27.8654  -30.4353   23.9211 H   0  0  0  0  0  0
  -27.2705  -33.3608   26.2045 H   0  0  0  0  0  0
  -28.3882  -32.6800   25.0316 H   0  0  0  0  0  0
  -28.0685  -31.8403   26.5409 H   0  0  0  0  0  0
  -28.2594  -38.0123   24.7528 H   0  0  0  0  0  0
  -28.1095  -36.2652   24.6268 H   0  0  0  0  0  0
  -27.2296  -37.1444   25.8860 H   0  0  0  0  0  0
  -20.9282  -29.8797   21.6981 H   0  0  0  0  0  0
  -26.0189  -38.2881   24.1411 H   0  0  0  0  0  0
  -29.4026  -16.1930   24.7002 H   0  0  0  0  0  0
  -30.8044  -16.9877   25.3738 H   0  0  0  0  0  0
  -29.8444  -19.2148   24.9087 H   0  0  0  0  0  0
  -28.7357  -18.2599   25.8634 H   0  0  0  0  0  0
  -31.2256  -16.2016   23.0439 H   0  0  0  0  0  0
  -31.4015  -17.9323   23.2192 H   0  0  0  0  0  0
  -30.4324  -22.5145   20.7271 H   0  0  0  0  0  0
  -29.0960  -22.5891   19.6141 H   0  0  0  0  0  0
  -26.5972  -22.9624   20.7385 H   0  0  0  0  0  0
  -26.5370  -23.0467   22.4772 H   0  0  0  0  0  0
  -27.4999  -19.3941   24.0487 H   0  0  0  0  0  0
  -27.4092  -17.6734   23.8795 H   0  0  0  0  0  0
  -30.2547  -24.7676   19.6816 H   0  0  0  0  0  0
  -30.0731  -24.8669   21.4112 H   0  0  0  0  0  0
  -27.8414  -25.1589   22.4603 H   0  0  0  0  0  0
  -26.3872  -25.2725   21.5116 H   0  0  0  0  0  0
  -32.6555  -21.1240   23.8545 H   0  0  0  0  0  0
  -32.9315  -19.4045   24.0781 H   0  0  0  0  0  0
  -29.3403  -14.9651   18.1898 H   0  0  0  0  0  0
  -28.7060  -16.4951   18.5337 H   0  0  0  0  0  0
  -35.1382  -19.7068   24.6857 H   0  0  0  0  0  0
  -34.7416  -21.4045   24.9407 H   0  0  0  0  0  0
  -30.5454  -16.7706   16.9106 H   0  0  0  0  0  0
  -31.6261  -15.7848   17.8528 H   0  0  0  0  0  0
  -35.3759  -20.5127   20.9532 H   0  0  0  0  0  0
  -35.4257  -19.1073   22.0160 H   0  0  0  0  0  0
  -32.2643  -16.9686   20.3336 H   0  0  0  0  0  0
  -28.9259  -16.5079   22.2782 H   0  0  0  0  0  0
  -28.9350  -22.6746   22.6656 H   0  0  0  0  0  0
  -29.3365  -17.7109   20.1247 H   0  0  0  0  0  0
  -33.1812  -21.1101   21.6372 H   0  0  0  0  0  0
  -27.8142  -18.4462   21.6922 H   0  0  0  0  0  0
  -27.7883  -24.8196   19.4056 H   0  0  0  0  0  0
  -27.8036  -20.6654   20.6366 H   0  0  0  0  0  0
  -27.2546  -20.7761   22.2740 H   0  0  0  0  0  0
  -33.3474  -18.1288   21.6922 H   0  0  0  0  0  0
  -36.5670  -20.6864   23.2279 H   0  0  0  0  0  0
  -35.5424  -21.8955   22.8299 H   0  0  0  0  0  0
  -30.7532  -18.5123   18.3978 H   0  0  0  0  0  0
  -32.2525  -17.9595   18.2321 H   0  0  0  0  0  0
  -29.8959  -19.9657   21.3661 H   0  0  0  0  0  0
  -29.6086  -20.3224   22.9308 H   0  0  0  0  0  0
  1 25  1  0  0  0
  1 30  2  0  0  0
  1 93  1  0  0  0
  2  3  1  0  0  0
  2 25  1  0  0  0
  2 99  1  0  0  0
  2100  1  0  0  0
  3  4  1  0  0  0
  3101  1  0  0  0
  3102  1  0  0  0
  4  5  1  0  0  0
  4103  1  0  0  0
  4104  1  0  0  0
  5  6  1  0  0  0
  5 26  1  0  0  0
  5105  1  0  0  0
  6 25  1  0  0  0
  6106  1  0  0  0
  6107  1  0  0  0
  7  8  2  0  0  0
  7 26  1  0  0  0
  7 29  1  0  0  0
  8  9  1  0  0  0
  8 22  1  0  0  0
  9 10  1  0  0  0
  9 27  2  0  0  0
 10 11  2  0  0  0
 10 15  1  0  0  0
 11 12  1  0  0  0
 11108  1  0  0  0
 12 13  2  0  0  0
 12109  1  0  0  0
 13 14  1  0  0  0
 13 31  1  0  0  0
 14 15  2  0  0  0
 14110  1  0  0  0
 15111  1  0  0  0
 16 17  2  0  0  0
 16 21  1  0  0  0
 16 31  1  0  0  0
 17 18  1  0  0  0
 17112  1  0  0  0
 18 19  2  0  0  0
 18113  1  0  0  0
 19 20  1  0  0  0
 19 24  1  0  0  0
 20 21  2  0  0  0
 20114  1  0  0  0
 21 23  1  0  0  0
 22 28  1  0  0  0
 22 32  2  0  0  0
 26 27  1  0  0  0
 28115  1  0  0  0
 28116  1  0  0  0
 29117  1  0  0  0
 29118  1  0  0  0
 33 34  1  0  0  0
 33 66  1  0  0  0
 33 70  2  0  0  0
 34 36  1  0  0  0
 34 59  1  0  0  0
 34119  1  0  0  0
 35 44  2  0  0  0
 35 45  1  0  0  0
 35 68  1  0  0  0
 36 56  1  0  0  0
 36120  1  0  0  0
 37 39  1  0  0  0
 37 47  1  0  0  0
 37 66  1  0  0  0
 37121  1  0  0  0
 38 43  2  0  0  0
 38 46  1  0  0  0
 38 47  1  0  0  0
 39 64  1  0  0  0
 39 67  2  0  0  0
 40 52  1  0  0  0
 40 53  2  0  0  0
 40 58  1  0  0  0
 41122  1  0  0  0
 41123  1  0  0  0
 41124  1  0  0  0
 41 48  1  0  0  0
 42 43  1  0  0  0
 42 66  1  0  0  0
 42125  1  0  0  0
 42126  1  0  0  0
 43 44  1  0  0  0
 44127  1  0  0  0
 45 46  2  0  0  0
 45128  1  0  0  0
 46129  1  0  0  0
 47130  1  0  0  0
 47131  1  0  0  0
 48 56  1  0  0  0
 48 65  1  0  0  0
 48132  1  0  0  0
 49 50  1  0  0  0
 49 53  1  0  0  0
 49 64  1  0  0  0
 49133  1  0  0  0
 50 51  1  0  0  0
 50134  1  0  0  0
 50135  1  0  0  0
 51 52  1  0  0  0
 51136  1  0  0  0
 51137  1  0  0  0
 52138  1  0  0  0
 52139  1  0  0  0
 53 54  1  0  0  0
 54 55  2  0  0  0
 54140  1  0  0  0
 55 57  1  0  0  0
 55141  1  0  0  0
 56 69  2  0  0  0
 57 58  2  0  0  0
 57142  1  0  0  0
 58143  1  0  0  0
 59 60  1  0  0  0
 59 61  1  0  0  0
 59 62  1  0  0  0
 60144  1  0  0  0
 60145  1  0  0  0
 60146  1  0  0  0
 61147  1  0  0  0
 61148  1  0  0  0
 61149  1  0  0  0
 62150  1  0  0  0
 62151  1  0  0  0
 62152  1  0  0  0
 63 65  1  0  0  0
 63153  1  0  0  0
 63154  1  0  0  0
 63155  1  0  0  0
 64156  1  0  0  0
 65157  1  0  0  0
 68 91  1  0  0  0
 71 94  1  0  0  0
 71 98  2  0  0  0
 71 85  1  0  0  0
 72 73  1  0  0  0
 72 74  1  0  0  0
 72158  1  0  0  0
 72159  1  0  0  0
 73 77  1  0  0  0
 73160  1  0  0  0
 73161  1  0  0  0
 74162  1  0  0  0
 74163  1  0  0  0
 74 86  1  0  0  0
 75 78  1  0  0  0
 75 87  1  0  0  0
 75164  1  0  0  0
 75165  1  0  0  0
 76 79  1  0  0  0
 76 87  1  0  0  0
 76166  1  0  0  0
 76167  1  0  0  0
 77 90  1  0  0  0
 77168  1  0  0  0
 77169  1  0  0  0
 78 91  1  0  0  0
 78170  1  0  0  0
 78171  1  0  0  0
 79 91  1  0  0  0
 79172  1  0  0  0
 79173  1  0  0  0
 80 82  1  0  0  0
 80 89  1  0  0  0
 80174  1  0  0  0
 80175  1  0  0  0
 81 83  1  0  0  0
 81 93  1  0  0  0
 81176  1  0  0  0
 81177  1  0  0  0
 82 95  1  0  0  0
 82178  1  0  0  0
 82179  1  0  0  0
 83 96  1  0  0  0
 83180  1  0  0  0
 83181  1  0  0  0
 84 89  1  0  0  0
 84 95  1  0  0  0
 84182  1  0  0  0
 84183  1  0  0  0
 85 88  1  0  0  0
 85 96  1  0  0  0
 85184  1  0  0  0
 86 88  1  0  0  0
 86 90  1  0  0  0
 86185  1  0  0  0
 87 92  1  0  0  0
 87186  1  0  0  0
 88 93  1  0  0  0
 88187  1  0  0  0
 89 94  1  0  0  0
 89188  1  0  0  0
 90 97  1  0  0  0
 90189  1  0  0  0
 91190  1  0  0  0
 92 97  1  0  0  0
 92191  1  0  0  0
 92192  1  0  0  0
 94193  1  0  0  0
 95194  1  0  0  0
 95195  1  0  0  0
 96196  1  0  0  0
 96197  1  0  0  0
 97198  1  0  0  0
 97199  1  0  0  0
M  CHG  3  95   1  96   1  97   1
M  ISO  4   1 100  68 101  91 101  93 100
M  END
> <chiral flag>
0

> <version>
0

> <s_m_source_file>
/data/baiqing/PycharmProjects/Reinvent-master-3.2/result/LINK_invent/BTK/process_docking_weight1_custom_sum_contain_oxygen_bond_distance_aromatic_linkinvent_7_9_3/rearranged_h_0131.sdf

> <i_m_source_file_index>
91

> <r_mmod_Potential_Energy-OPLS-2005>
-140.555969238281

> <r_mmod_Stretch_Energy-OPLS-2005>
61.6443099975586

> <r_mmod_Bend_Energy-OPLS-2005>
201.409164428711

> <r_mmod_Torsional_Energy-OPLS-2005>
553.534729003906

> <r_mmod_Improper_Torsional_Energy-OPLS-2005>
17.5433216094971

> <r_mmod_Van_der_Waal_Energy-OPLS-2005>
149.489318847656

> <r_mmod_Electrostatic_Energy-OPLS-2005>
415.288299560547

> <r_mmod_Solvation_Energy-OPLS-2005>
-1586.93432617188

> <b_mmod_Minimization_Converged-OPLS-2005>
0

> <r_mmod_RMS_Derivative-OPLS-2005>
4.5515251159668

$$$$
91
                    3D
 Structure written by MMmdl.
167176  0  0  1  0            999 V2000
  -30.7022  -14.4522   20.5506 C   0  0  0  0  0  0
  -30.4209  -12.2891   19.4137 C   0  0  0  0  0  0
  -29.4960  -12.4986   18.1968 C   0  0  0  0  0  0
  -28.0151  -12.3684   18.6087 C   0  0  0  0  0  0
  -27.6625  -13.2047   19.8698 C   0  0  2  0  0  0
  -28.7049  -12.9812   20.9889 C   0  0  0  0  0  0
  -25.2595  -13.8173   20.5647 C   0  0  0  0  0  0
  -24.1846  -13.0455   20.9177 C   0  0  0  0  0  0
  -24.6389  -11.6922   20.8722 C   0  0  0  0  0  0
  -23.9050  -10.4302   21.0400 C   0  0  0  0  0  0
  -24.3615   -9.4214   21.9162 C   0  0  0  0  0  0
  -23.6299   -8.2247   22.0740 C   0  0  0  0  0  0
  -22.4273   -8.0284   21.3536 C   0  0  0  0  0  0
  -21.9903   -9.0254   20.4639 C   0  0  0  0  0  0
  -22.7234  -10.2136   20.3045 C   0  0  0  0  0  0
  -21.6849   -6.0733   22.5275 C   0  0  0  0  0  0
  -21.4013   -6.5629   23.8206 C   0  0  0  0  0  0
  -21.3670   -5.6779   24.9166 C   0  0  0  0  0  0
  -21.6049   -4.3042   24.7214 C   0  0  0  0  0  0
  -21.8822   -3.8138   23.4325 C   0  0  0  0  0  0
  -21.9195   -4.6957   22.3394 C   0  0  0  0  0  0
  -22.7856  -13.5249   21.1842 C   0  0  0  0  0  0
  -22.1650   -4.2143   21.0964 F   0  0  0  0  0  0
  -21.5649   -3.4525   25.7721 F   0  0  0  0  0  0
  -30.0369  -13.2735   20.4348 N   0  0  0  0  0  0
  -26.3028  -12.9329   20.3334 N   0  0  0  0  0  0
  -25.9312  -11.6490   20.5737 N   0  0  0  0  0  0
  -22.0486  -12.8250   22.0407 N   0  0  0  0  0  0
  -25.4324  -15.1890   20.4033 N   0  0  0  0  0  0
  -31.8366  -14.6325   20.0989 O   0  0  0  0  0  0
  -21.6642   -6.8876   21.4232 O   0  0  0  0  0  0
  -22.3533  -14.5554   20.6696 O   0  0  0  0  0  0
  -24.6117  -31.8706   23.2112 C   0  0  0  0  0  0
  -25.9020  -32.4839   23.8408 C   0  0  1  0  0  0
  -27.2342  -27.4602   20.1006 C   0  0  0  0  0  0
  -25.5887  -33.8640   24.2344 N   0  0  0  0  0  0
  -23.3986  -30.4929   21.5510 C   0  0  2  0  0  0
  -24.8450  -28.9624   20.1133 C   0  0  0  0  0  0
  -22.7396  -29.4675   22.5007 C   0  0  0  0  0  0
  -18.0272  -28.1387   22.8492 C   0  0  0  0  0  0
  -24.1488  -36.7323   23.2639 C   0  0  0  0  0  0
  -25.9233  -30.8470   21.3564 C   0  0  0  0  0  0
  -26.0032  -29.4834   20.7033 C   0  0  0  0  0  0
  -27.2045  -28.7432   20.6854 C   0  0  0  0  0  0
  -26.0619  -26.9456   19.5039 C   0  0  0  0  0  0
  -24.8689  -27.6936   19.5069 C   0  0  0  0  0  0
  -23.6039  -29.8239   20.1650 C   0  0  0  0  0  0
  -25.4105  -36.3127   24.0343 C   0  0  1  0  0  0
  -20.5861  -28.3672   23.1334 C   0  0  2  0  0  0
  -20.6767  -26.9417   22.5421 C   0  0  0  0  0  0
  -19.5746  -26.6395   21.5215 C   0  0  0  0  0  0
  -18.1923  -26.7934   22.1624 C   0  0  0  0  0  0
  -19.1521  -28.8845   23.2907 C   0  0  0  0  0  0
  -18.9447  -30.1449   23.8914 C   0  0  0  0  0  0
  -17.6453  -30.6592   24.0574 C   0  0  0  0  0  0
  -25.9029  -34.9487   23.5144 C   0  0  0  0  0  0
  -16.5343  -29.9095   23.6326 C   0  0  0  0  0  0
  -16.7262  -28.6513   23.0344 C   0  0  0  0  0  0
  -26.4451  -31.6609   25.0726 C   0  0  0  0  0  0
  -25.3724  -31.3702   26.1480 C   0  0  0  0  0  0
  -27.0278  -30.3062   24.6073 C   0  0  0  0  0  0
  -27.6045  -32.4318   25.7473 C   0  0  0  0  0  0
  -27.5582  -37.1816   24.8466 C   0  0  0  0  0  0
  -21.4131  -29.3036   22.3734 N   0  0  0  0  0  0
  -26.4299  -37.3799   23.9407 N   0  0  0  0  0  0
  -24.6627  -31.0843   22.0986 N   0  0  0  0  0  0
  -23.4182  -28.8239   23.3055 O   0  0  0  0  0  0
  -28.3988  -26.7309   20.1245 O   0  0  0  0  0  0
  -26.5594  -34.8932   22.4707 O   0  0  0  0  0  0
  -23.5318  -32.1442   23.7528 O   0  0  0  0  0  0
  -28.7533  -20.7290   20.0633 C   0  0  0  0  0  0
  -28.3631  -21.9545   19.4435 C   0  0  0  0  0  0
  -28.4168  -21.7670   18.0785 C   0  0  0  0  0  0
  -29.0946  -19.8656   19.0616 C   0  0  0  0  0  0
  -26.7203  -23.3968   16.9272 C   0  0  0  0  0  0
  -27.0025  -22.3192   15.9150 C   0  0  0  0  0  0
  -28.0548  -22.6800   16.9412 C   0  0  0  0  0  0
  -30.6882  -17.4703   22.2824 C   0  0  0  0  0  0
  -29.2309  -19.9245   16.5312 C   0  0  0  0  0  0
  -29.1322  -17.6848   20.2769 C   0  0  0  0  0  0
  -28.2887  -25.4280   20.7136 C   0  0  0  0  0  0
  -28.5255  -24.3209   19.6747 C   0  0  0  0  0  0
  -30.3039  -16.8974   20.9121 C   0  0  2  0  0  0
  -28.9279  -20.4931   17.8393 N   0  0  0  0  0  0
  -29.5908  -18.5661   19.2083 N   0  0  0  0  0  0
  -29.9684  -15.4722   21.0239 N   0  0  0  0  0  0
  -27.9780  -23.0827   20.1326 O   0  0  0  0  0  0
  -31.4669  -12.3802   19.1155 H   0  0  0  0  0  0
  -30.3101  -11.2778   19.8078 H   0  0  0  0  0  0
  -29.7311  -11.7736   17.4159 H   0  0  0  0  0  0
  -29.6711  -13.4832   17.7598 H   0  0  0  0  0  0
  -27.8195  -11.3130   18.7985 H   0  0  0  0  0  0
  -27.3698  -12.6487   17.7759 H   0  0  0  0  0  0
  -27.7096  -14.2533   19.5749 H   0  0  0  0  0  0
  -28.6750  -11.9483   21.3377 H   0  0  0  0  0  0
  -28.4739  -13.5879   21.8648 H   0  0  0  0  0  0
  -25.2777   -9.5691   22.4711 H   0  0  0  0  0  0
  -24.0019   -7.4635   22.7455 H   0  0  0  0  0  0
  -21.0837   -8.8786   19.8944 H   0  0  0  0  0  0
  -22.3712  -10.9665   19.6140 H   0  0  0  0  0  0
  -21.1998   -7.6132   23.9708 H   0  0  0  0  0  0
  -21.1493   -6.0499   25.9068 H   0  0  0  0  0  0
  -22.0598   -2.7596   23.2822 H   0  0  0  0  0  0
  -22.4095  -11.9933   22.4855 H   0  0  0  0  0  0
  -21.1090  -13.1260   22.2568 H   0  0  0  0  0  0
  -24.6676  -15.8478   20.5023 H   0  0  0  0  0  0
  -26.2827  -15.6215   20.0675 H   0  0  0  0  0  0
  -26.7105  -32.5558   23.1191 H   0  0  0  0  0  0
  -25.0043  -33.9809   25.0493 H   0  0  0  0  0  0
  -22.6853  -31.3080   21.4135 H   0  0  0  0  0  0
  -23.3744  -35.9662   23.3322 H   0  0  0  0  0  0
  -24.3578  -36.8909   22.2048 H   0  0  0  0  0  0
  -23.7243  -37.6540   23.6630 H   0  0  0  0  0  0
  -26.0311  -31.6157   20.5895 H   0  0  0  0  0  0
  -26.8127  -30.9024   21.9718 H   0  0  0  0  0  0
  -28.1009  -29.1431   21.1395 H   0  0  0  0  0  0
  -26.0643  -25.9684   19.0439 H   0  0  0  0  0  0
  -23.9798  -27.2874   19.0454 H   0  0  0  0  0  0
  -23.7067  -30.5974   19.4031 H   0  0  0  0  0  0
  -22.7283  -29.2398   19.8755 H   0  0  0  0  0  0
  -25.1281  -36.2002   25.0836 H   0  0  0  0  0  0
  -20.9954  -28.3237   24.1456 H   0  0  0  0  0  0
  -20.5690  -26.2279   23.3600 H   0  0  0  0  0  0
  -21.6638  -26.7479   22.1205 H   0  0  0  0  0  0
  -19.6916  -25.6308   21.1233 H   0  0  0  0  0  0
  -19.6688  -27.3212   20.6749 H   0  0  0  0  0  0
  -17.4199  -26.6692   21.4020 H   0  0  0  0  0  0
  -18.0324  -26.0070   22.9016 H   0  0  0  0  0  0
  -19.7922  -30.7264   24.2293 H   0  0  0  0  0  0
  -17.5007  -31.6271   24.5184 H   0  0  0  0  0  0
  -15.5348  -30.3012   23.7634 H   0  0  0  0  0  0
  -15.8659  -28.0841   22.7053 H   0  0  0  0  0  0
  -24.5895  -30.7055   25.7808 H   0  0  0  0  0  0
  -24.8916  -32.2856   26.4945 H   0  0  0  0  0  0
  -25.8082  -30.8853   27.0226 H   0  0  0  0  0  0
  -26.2815  -29.6832   24.1129 H   0  0  0  0  0  0
  -27.4072  -29.7283   25.4510 H   0  0  0  0  0  0
  -27.8635  -30.4404   23.9201 H   0  0  0  0  0  0
  -27.2684  -33.3610   26.2089 H   0  0  0  0  0  0
  -28.3820  -32.6893   25.0268 H   0  0  0  0  0  0
  -28.0751  -31.8419   26.5348 H   0  0  0  0  0  0
  -28.2621  -38.0094   24.7502 H   0  0  0  0  0  0
  -28.1062  -36.2631   24.6311 H   0  0  0  0  0  0
  -27.2305  -37.1487   25.8872 H   0  0  0  0  0  0
  -20.9295  -29.8727   21.6927 H   0  0  0  0  0  0
  -26.0200  -38.2889   24.1383 H   0  0  0  0  0  0
  -28.8078  -20.5308   21.1238 H   0  0  0  0  0  0
  -26.0182  -23.1659   17.7271 H   0  0  0  0  0  0
  -26.7107  -24.4299   16.5837 H   0  0  0  0  0  0
  -27.1753  -22.6343   14.8873 H   0  0  0  0  0  0
  -26.4673  -21.3791   16.0319 H   0  0  0  0  0  0
  -28.9253  -23.2341   16.5902 H   0  0  0  0  0  0
  -31.5387  -16.9386   22.7073 H   0  0  0  0  0  0
  -29.8618  -17.4159   22.9923 H   0  0  0  0  0  0
  -30.9746  -18.5184   22.1881 H   0  0  0  0  0  0
  -28.3443  -19.9229   15.8991 H   0  0  0  0  0  0
  -29.5836  -18.8982   16.6191 H   0  0  0  0  0  0
  -30.0117  -20.5123   16.0505 H   0  0  0  0  0  0
  -28.5686  -18.2285   21.0364 H   0  0  0  0  0  0
  -28.4212  -16.9925   19.8236 H   0  0  0  0  0  0
  -29.0211  -25.3442   21.5158 H   0  0  0  0  0  0
  -27.3179  -25.2873   21.1916 H   0  0  0  0  0  0
  -29.5907  -24.2299   19.4566 H   0  0  0  0  0  0
  -28.0293  -24.6216   18.7582 H   0  0  0  0  0  0
  -31.1754  -17.0045   20.2630 H   0  0  0  0  0  0
  -29.8646  -18.0773   18.3611 H   0  0  0  0  0  0
  -29.0416  -15.2376   21.3462 H   0  0  0  0  0  0
  1 25  1  0  0  0
  1 30  2  0  0  0
  1 86  1  0  0  0
  2  3  1  0  0  0
  2 25  1  0  0  0
  2 88  1  0  0  0
  2 89  1  0  0  0
  3  4  1  0  0  0
  3 90  1  0  0  0
  3 91  1  0  0  0
  4  5  1  0  0  0
  4 92  1  0  0  0
  4 93  1  0  0  0
  5  6  1  0  0  0
  5 26  1  0  0  0
  5 94  1  0  0  0
  6 25  1  0  0  0
  6 95  1  0  0  0
  6 96  1  0  0  0
  7  8  2  0  0  0
  7 26  1  0  0  0
  7 29  1  0  0  0
  8  9  1  0  0  0
  8 22  1  0  0  0
  9 10  1  0  0  0
  9 27  2  0  0  0
 10 11  2  0  0  0
 10 15  1  0  0  0
 11 12  1  0  0  0
 11 97  1  0  0  0
 12 13  2  0  0  0
 12 98  1  0  0  0
 13 14  1  0  0  0
 13 31  1  0  0  0
 14 15  2  0  0  0
 14 99  1  0  0  0
 15100  1  0  0  0
 16 17  2  0  0  0
 16 21  1  0  0  0
 16 31  1  0  0  0
 17 18  1  0  0  0
 17101  1  0  0  0
 18 19  2  0  0  0
 18102  1  0  0  0
 19 20  1  0  0  0
 19 24  1  0  0  0
 20 21  2  0  0  0
 20103  1  0  0  0
 21 23  1  0  0  0
 22 28  1  0  0  0
 22 32  2  0  0  0
 26 27  1  0  0  0
 28104  1  0  0  0
 28105  1  0  0  0
 29106  1  0  0  0
 29107  1  0  0  0
 33 34  1  0  0  0
 33 66  1  0  0  0
 33 70  2  0  0  0
 34 36  1  0  0  0
 34 59  1  0  0  0
 34108  1  0  0  0
 35 44  2  0  0  0
 35 45  1  0  0  0
 35 68  1  0  0  0
 36 56  1  0  0  0
 36109  1  0  0  0
 37 39  1  0  0  0
 37 47  1  0  0  0
 37 66  1  0  0  0
 37110  1  0  0  0
 38 43  2  0  0  0
 38 46  1  0  0  0
 38 47  1  0  0  0
 39 64  1  0  0  0
 39 67  2  0  0  0
 40 52  1  0  0  0
 40 53  2  0  0  0
 40 58  1  0  0  0
 41111  1  0  0  0
 41112  1  0  0  0
 41113  1  0  0  0
 41 48  1  0  0  0
 42 43  1  0  0  0
 42 66  1  0  0  0
 42114  1  0  0  0
 42115  1  0  0  0
 43 44  1  0  0  0
 44116  1  0  0  0
 45 46  2  0  0  0
 45117  1  0  0  0
 46118  1  0  0  0
 47119  1  0  0  0
 47120  1  0  0  0
 48 56  1  0  0  0
 48 65  1  0  0  0
 48121  1  0  0  0
 49 50  1  0  0  0
 49 53  1  0  0  0
 49 64  1  0  0  0
 49122  1  0  0  0
 50 51  1  0  0  0
 50123  1  0  0  0
 50124  1  0  0  0
 51 52  1  0  0  0
 51125  1  0  0  0
 51126  1  0  0  0
 52127  1  0  0  0
 52128  1  0  0  0
 53 54  1  0  0  0
 54 55  2  0  0  0
 54129  1  0  0  0
 55 57  1  0  0  0
 55130  1  0  0  0
 56 69  2  0  0  0
 57 58  2  0  0  0
 57131  1  0  0  0
 58132  1  0  0  0
 59 60  1  0  0  0
 59 61  1  0  0  0
 59 62  1  0  0  0
 60133  1  0  0  0
 60134  1  0  0  0
 60135  1  0  0  0
 61136  1  0  0  0
 61137  1  0  0  0
 61138  1  0  0  0
 62139  1  0  0  0
 62140  1  0  0  0
 62141  1  0  0  0
 63 65  1  0  0  0
 63142  1  0  0  0
 63143  1  0  0  0
 63144  1  0  0  0
 64145  1  0  0  0
 65146  1  0  0  0
 68 81  1  0  0  0
 71 72  1  0  0  0
 71 74  2  0  0  0
 71147  1  0  0  0
 72 73  2  0  0  0
 72 87  1  0  0  0
 73 84  1  0  0  0
 73 77  1  0  0  0
 74 84  1  0  0  0
 74 85  1  0  0  0
 75 76  1  0  0  0
 75 77  1  0  0  0
 75148  1  0  0  0
 75149  1  0  0  0
 76 77  1  0  0  0
 76150  1  0  0  0
 76151  1  0  0  0
 77152  1  0  0  0
 78153  1  0  0  0
 78154  1  0  0  0
 78155  1  0  0  0
 78 83  1  0  0  0
 79 84  1  0  0  0
 79156  1  0  0  0
 79157  1  0  0  0
 79158  1  0  0  0
 80 83  1  0  0  0
 80 85  1  0  0  0
 80159  1  0  0  0
 80160  1  0  0  0
 81 82  1  0  0  0
 81161  1  0  0  0
 81162  1  0  0  0
 82 87  1  0  0  0
 82163  1  0  0  0
 82164  1  0  0  0
 83 86  1  0  0  0
 83165  1  0  0  0
 85166  1  0  0  0
 86167  1  0  0  0
M  ISO  4   1 100  68 101  81 101  86 100
M  END
> <chiral flag>
0

> <version>
0

> <s_m_source_file>
/data/baiqing/PycharmProjects/Reinvent-master-3.2/result/LINK_invent/BTK/process_docking_weight1_custom_sum_contain_oxygen_bond_distance_aromatic_linkinvent_7_9_3/rearranged_h_0131.sdf

> <i_m_source_file_index>
92

> <r_mmod_Potential_Energy-OPLS-2005>
-129.25048828125

> <r_mmod_Stretch_Energy-OPLS-2005>
33.3399353027344

> <r_mmod_Bend_Energy-OPLS-2005>
99.1789855957031

> <r_mmod_Torsional_Energy-OPLS-2005>
270.089172363281

> <r_mmod_Improper_Torsional_Energy-OPLS-2005>
6.906418800354

> <r_mmod_Van_der_Waal_Energy-OPLS-2005>
131.464111328125

> <r_mmod_Electrostatic_Energy-OPLS-2005>
-458.735656738281

> <r_mmod_Solvation_Energy-OPLS-2005>
-223.194000244141

> <b_mmod_Minimization_Converged-OPLS-2005>
0

> <r_mmod_RMS_Derivative-OPLS-2005>
2.12109422683716

$$$$
92
                    3D
 Structure written by MMmdl.
164173  0  0  1  0            999 V2000
  -30.7448  -14.3723   20.6369 C   0  0  0  0  0  0
  -30.4126  -12.2665   19.4005 C   0  0  0  0  0  0
  -29.4855  -12.5034   18.1929 C   0  0  0  0  0  0
  -28.0049  -12.3817   18.6056 C   0  0  0  0  0  0
  -27.6650  -13.2000   19.8808 C   0  0  2  0  0  0
  -28.7028  -12.9324   20.9935 C   0  0  0  0  0  0
  -25.2592  -13.8125   20.5731 C   0  0  0  0  0  0
  -24.1843  -13.0403   20.9184 C   0  0  0  0  0  0
  -24.6396  -11.6868   20.8734 C   0  0  0  0  0  0
  -23.9069  -10.4273   21.0411 C   0  0  0  0  0  0
  -24.3620   -9.4192   21.9184 C   0  0  0  0  0  0
  -23.6294   -8.2229   22.0750 C   0  0  0  0  0  0
  -22.4267   -8.0278   21.3549 C   0  0  0  0  0  0
  -21.9906   -9.0255   20.4652 C   0  0  0  0  0  0
  -22.7238  -10.2131   20.3065 C   0  0  0  0  0  0
  -21.6847   -6.0735   22.5280 C   0  0  0  0  0  0
  -21.4014   -6.5639   23.8216 C   0  0  0  0  0  0
  -21.3661   -5.6795   24.9177 C   0  0  0  0  0  0
  -21.6042   -4.3053   24.7230 C   0  0  0  0  0  0
  -21.8821   -3.8146   23.4347 C   0  0  0  0  0  0
  -21.9193   -4.6964   22.3410 C   0  0  0  0  0  0
  -22.7874  -13.5218   21.1849 C   0  0  0  0  0  0
  -22.1660   -4.2150   21.0986 F   0  0  0  0  0  0
  -21.5630   -3.4540   25.7742 F   0  0  0  0  0  0
  -30.0425  -13.2245   20.4529 N   0  0  0  0  0  0
  -26.3030  -12.9296   20.3384 N   0  0  0  0  0  0
  -25.9313  -11.6454   20.5753 N   0  0  0  0  0  0
  -22.0512  -12.8241   22.0415 N   0  0  0  0  0  0
  -25.4319  -15.1832   20.4214 N   0  0  0  0  0  0
  -31.8113  -14.6065   20.0597 O   0  0  0  0  0  0
  -21.6630   -6.8870   21.4240 O   0  0  0  0  0  0
  -22.3562  -14.5540   20.6697 O   0  0  0  0  0  0
  -24.6130  -31.8724   23.2144 C   0  0  0  0  0  0
  -25.9032  -32.4855   23.8445 C   0  0  1  0  0  0
  -27.2348  -27.4632   20.0905 C   0  0  0  0  0  0
  -25.5883  -33.8644   24.2375 N   0  0  0  0  0  0
  -23.4002  -30.4972   21.5531 C   0  0  2  0  0  0
  -24.8439  -28.9654   20.1137 C   0  0  0  0  0  0
  -22.7430  -29.4659   22.5000 C   0  0  0  0  0  0
  -18.0261  -28.1384   22.8483 C   0  0  0  0  0  0
  -24.1483  -36.7334   23.2640 C   0  0  0  0  0  0
  -25.9294  -30.8416   21.3689 C   0  0  0  0  0  0
  -26.0001  -29.4816   20.7102 C   0  0  0  0  0  0
  -27.1971  -28.7381   20.6903 C   0  0  0  0  0  0
  -26.0600  -26.9551   19.4837 C   0  0  0  0  0  0
  -24.8687  -27.7034   19.4955 C   0  0  0  0  0  0
  -23.6078  -29.8317   20.1659 C   0  0  0  0  0  0
  -25.4098  -36.3148   24.0360 C   0  0  1  0  0  0
  -20.5865  -28.3658   23.1322 C   0  0  2  0  0  0
  -20.6755  -26.9390   22.5428 C   0  0  0  0  0  0
  -19.5736  -26.6375   21.5223 C   0  0  0  0  0  0
  -18.1906  -26.7935   22.1621 C   0  0  0  0  0  0
  -19.1518  -28.8835   23.2905 C   0  0  0  0  0  0
  -18.9457  -30.1442   23.8916 C   0  0  0  0  0  0
  -17.6459  -30.6583   24.0568 C   0  0  0  0  0  0
  -25.9015  -34.9498   23.5160 C   0  0  0  0  0  0
  -16.5345  -29.9089   23.6322 C   0  0  0  0  0  0
  -16.7253  -28.6514   23.0337 C   0  0  0  0  0  0
  -26.4423  -31.6641   25.0788 C   0  0  0  0  0  0
  -25.3710  -31.3800   26.1587 C   0  0  0  0  0  0
  -27.0193  -30.3068   24.6178 C   0  0  0  0  0  0
  -27.6039  -32.4325   25.7509 C   0  0  0  0  0  0
  -27.5593  -37.1817   24.8464 C   0  0  0  0  0  0
  -21.4171  -29.3042   22.3756 N   0  0  0  0  0  0
  -26.4297  -37.3825   23.9418 N   0  0  0  0  0  0
  -24.6645  -31.0850   22.1032 N   0  0  0  0  0  0
  -23.4215  -28.8181   23.3014 O   0  0  0  0  0  0
  -28.4350  -26.7937   20.1119 O   0  0  0  0  0  0
  -26.5585  -34.8934   22.4729 O   0  0  0  0  0  0
  -23.5311  -32.1414   23.7560 O   0  0  0  0  0  0
  -31.8964  -16.9338   21.9186 C   0  0  0  0  0  0
  -32.3121  -18.2691   22.0310 C   0  0  0  0  0  0
  -30.0378  -18.9998   21.5901 C   0  0  0  0  0  0
  -29.5923  -17.6617   21.4762 C   0  0  0  0  0  0
  -30.5530  -16.6213   21.6111 C   0  0  0  0  0  0
  -31.3951  -19.3127   21.8343 C   0  0  0  0  0  0
  -27.3100  -18.2567   20.2655 C   0  0  0  0  0  0
  -27.0297  -18.2614   21.7503 C   0  0  0  0  0  0
  -28.1293  -17.3817   21.1929 C   0  0  0  0  0  0
  -29.4764  -24.8087   20.9399 C   0  0  0  0  0  0
  -30.6737  -22.7003   21.5577 C   0  0  0  0  0  0
  -28.4319  -25.3784   19.9685 C   0  0  0  0  0  0
  -31.3876  -21.5037   20.9040 C   0  0  0  0  0  0
  -30.1715  -15.2630   21.4616 N   0  0  0  0  0  0
  -29.8589  -23.4307   20.5602 N   0  3  0  0  0  0
  -31.8687  -20.6007   21.8993 O   0  0  0  0  0  0
  -31.4575  -12.3510   19.0968 H   0  0  0  0  0  0
  -30.2975  -11.2462   19.7704 H   0  0  0  0  0  0
  -29.7067  -11.7854   17.4012 H   0  0  0  0  0  0
  -29.6712  -13.4925   17.7705 H   0  0  0  0  0  0
  -27.7938  -11.3244   18.7769 H   0  0  0  0  0  0
  -27.3583  -12.6879   17.7813 H   0  0  0  0  0  0
  -27.7253  -14.2551   19.6116 H   0  0  0  0  0  0
  -28.6636  -11.8862   21.2979 H   0  0  0  0  0  0
  -28.4620  -13.4964   21.8931 H   0  0  0  0  0  0
  -25.2767   -9.5659   22.4745 H   0  0  0  0  0  0
  -24.0007   -7.4612   22.7465 H   0  0  0  0  0  0
  -21.0825   -8.8773   19.8965 H   0  0  0  0  0  0
  -22.3694  -10.9670   19.6174 H   0  0  0  0  0  0
  -21.2002   -7.6144   23.9722 H   0  0  0  0  0  0
  -21.1482   -6.0521   25.9084 H   0  0  0  0  0  0
  -22.0600   -2.7606   23.2851 H   0  0  0  0  0  0
  -22.4120  -11.9905   22.4818 H   0  0  0  0  0  0
  -21.1136  -13.1283   22.2633 H   0  0  0  0  0  0
  -24.6793  -15.8418   20.5871 H   0  0  0  0  0  0
  -26.2932  -15.6252   20.1315 H   0  0  0  0  0  0
  -26.7128  -32.5546   23.1224 H   0  0  0  0  0  0
  -25.0066  -33.9815   25.0546 H   0  0  0  0  0  0
  -22.6849  -31.3119   21.4145 H   0  0  0  0  0  0
  -23.3765  -35.9644   23.3279 H   0  0  0  0  0  0
  -24.3583  -36.8962   22.2057 H   0  0  0  0  0  0
  -23.7187  -37.6520   23.6643 H   0  0  0  0  0  0
  -26.0569  -31.6067   20.6009 H   0  0  0  0  0  0
  -26.8127  -30.8830   21.9950 H   0  0  0  0  0  0
  -28.0963  -29.1371   21.1408 H   0  0  0  0  0  0
  -26.0428  -25.9942   18.9891 H   0  0  0  0  0  0
  -23.9828  -27.3069   19.0203 H   0  0  0  0  0  0
  -23.7230  -30.6067   19.4063 H   0  0  0  0  0  0
  -22.7306  -29.2545   19.8667 H   0  0  0  0  0  0
  -25.1260  -36.2046   25.0853 H   0  0  0  0  0  0
  -20.9938  -28.3217   24.1454 H   0  0  0  0  0  0
  -20.5616  -26.2280   23.3629 H   0  0  0  0  0  0
  -21.6630  -26.7399   22.1255 H   0  0  0  0  0  0
  -19.6894  -25.6281   21.1251 H   0  0  0  0  0  0
  -19.6695  -27.3189   20.6759 H   0  0  0  0  0  0
  -17.4190  -26.6700   21.4006 H   0  0  0  0  0  0
  -18.0279  -26.0064   22.8998 H   0  0  0  0  0  0
  -19.7931  -30.7250   24.2314 H   0  0  0  0  0  0
  -17.5007  -31.6265   24.5175 H   0  0  0  0  0  0
  -15.5343  -30.3006   23.7630 H   0  0  0  0  0  0
  -15.8659  -28.0837   22.7053 H   0  0  0  0  0  0
  -24.5826  -30.7184   25.7983 H   0  0  0  0  0  0
  -24.8957  -32.2977   26.5077 H   0  0  0  0  0  0
  -25.8076  -30.8956   27.0343 H   0  0  0  0  0  0
  -26.2727  -29.6918   24.1149 H   0  0  0  0  0  0
  -27.3838  -29.7240   25.4648 H   0  0  0  0  0  0
  -27.8630  -30.4360   23.9399 H   0  0  0  0  0  0
  -27.2757  -33.3708   26.2001 H   0  0  0  0  0  0
  -28.3887  -32.6751   25.0329 H   0  0  0  0  0  0
  -28.0657  -31.8491   26.5492 H   0  0  0  0  0  0
  -28.2636  -38.0103   24.7514 H   0  0  0  0  0  0
  -28.1075  -36.2631   24.6271 H   0  0  0  0  0  0
  -27.2326  -37.1466   25.8880 H   0  0  0  0  0  0
  -20.9337  -29.8815   21.7024 H   0  0  0  0  0  0
  -26.0215  -38.2921   24.1409 H   0  0  0  0  0  0
  -32.6289  -16.1493   22.0493 H   0  0  0  0  0  0
  -33.3480  -18.4917   22.2380 H   0  0  0  0  0  0
  -29.3257  -19.8021   21.4802 H   0  0  0  0  0  0
  -27.7883  -19.1304   19.8290 H   0  0  0  0  0  0
  -26.5508  -17.7917   19.6418 H   0  0  0  0  0  0
  -26.1160  -17.7736   22.0798 H   0  0  0  0  0  0
  -27.2998  -19.1537   22.3086 H   0  0  0  0  0  0
  -27.9136  -16.3173   21.1566 H   0  0  0  0  0  0
  -29.0810  -24.8390   21.9581 H   0  0  0  0  0  0
  -30.3709  -25.4332   20.9251 H   0  0  0  0  0  0
  -31.4173  -23.3646   22.0030 H   0  0  0  0  0  0
  -30.0313  -22.3588   22.3724 H   0  0  0  0  0  0
  -27.4763  -24.9126   20.1986 H   0  0  0  0  0  0
  -28.6784  -25.1344   18.9340 H   0  0  0  0  0  0
  -32.2475  -21.8626   20.3406 H   0  0  0  0  0  0
  -30.7444  -21.0194   20.1671 H   0  0  0  0  0  0
  -29.2710  -14.9906   21.8237 H   0  0  0  0  0  0
  -30.3786  -23.4839   19.6943 H   0  0  0  0  0  0
  -29.0257  -22.8934   20.3697 H   0  0  0  0  0  0
  1 25  1  0  0  0
  1 30  2  0  0  0
  1 84  1  0  0  0
  2  3  1  0  0  0
  2 25  1  0  0  0
  2 87  1  0  0  0
  2 88  1  0  0  0
  3  4  1  0  0  0
  3 89  1  0  0  0
  3 90  1  0  0  0
  4  5  1  0  0  0
  4 91  1  0  0  0
  4 92  1  0  0  0
  5  6  1  0  0  0
  5 26  1  0  0  0
  5 93  1  0  0  0
  6 25  1  0  0  0
  6 94  1  0  0  0
  6 95  1  0  0  0
  7  8  2  0  0  0
  7 26  1  0  0  0
  7 29  1  0  0  0
  8  9  1  0  0  0
  8 22  1  0  0  0
  9 10  1  0  0  0
  9 27  2  0  0  0
 10 11  2  0  0  0
 10 15  1  0  0  0
 11 12  1  0  0  0
 11 96  1  0  0  0
 12 13  2  0  0  0
 12 97  1  0  0  0
 13 14  1  0  0  0
 13 31  1  0  0  0
 14 15  2  0  0  0
 14 98  1  0  0  0
 15 99  1  0  0  0
 16 17  2  0  0  0
 16 21  1  0  0  0
 16 31  1  0  0  0
 17 18  1  0  0  0
 17100  1  0  0  0
 18 19  2  0  0  0
 18101  1  0  0  0
 19 20  1  0  0  0
 19 24  1  0  0  0
 20 21  2  0  0  0
 20102  1  0  0  0
 21 23  1  0  0  0
 22 28  1  0  0  0
 22 32  2  0  0  0
 26 27  1  0  0  0
 28103  1  0  0  0
 28104  1  0  0  0
 29105  1  0  0  0
 29106  1  0  0  0
 33 34  1  0  0  0
 33 66  1  0  0  0
 33 70  2  0  0  0
 34 36  1  0  0  0
 34 59  1  0  0  0
 34107  1  0  0  0
 35 44  2  0  0  0
 35 45  1  0  0  0
 35 68  1  0  0  0
 36 56  1  0  0  0
 36108  1  0  0  0
 37 39  1  0  0  0
 37 47  1  0  0  0
 37 66  1  0  0  0
 37109  1  0  0  0
 38 43  2  0  0  0
 38 46  1  0  0  0
 38 47  1  0  0  0
 39 64  1  0  0  0
 39 67  2  0  0  0
 40 52  1  0  0  0
 40 53  2  0  0  0
 40 58  1  0  0  0
 41110  1  0  0  0
 41111  1  0  0  0
 41112  1  0  0  0
 41 48  1  0  0  0
 42 43  1  0  0  0
 42 66  1  0  0  0
 42113  1  0  0  0
 42114  1  0  0  0
 43 44  1  0  0  0
 44115  1  0  0  0
 45 46  2  0  0  0
 45116  1  0  0  0
 46117  1  0  0  0
 47118  1  0  0  0
 47119  1  0  0  0
 48 56  1  0  0  0
 48 65  1  0  0  0
 48120  1  0  0  0
 49 50  1  0  0  0
 49 53  1  0  0  0
 49 64  1  0  0  0
 49121  1  0  0  0
 50 51  1  0  0  0
 50122  1  0  0  0
 50123  1  0  0  0
 51 52  1  0  0  0
 51124  1  0  0  0
 51125  1  0  0  0
 52126  1  0  0  0
 52127  1  0  0  0
 53 54  1  0  0  0
 54 55  2  0  0  0
 54128  1  0  0  0
 55 57  1  0  0  0
 55129  1  0  0  0
 56 69  2  0  0  0
 57 58  2  0  0  0
 57130  1  0  0  0
 58131  1  0  0  0
 59 60  1  0  0  0
 59 61  1  0  0  0
 59 62  1  0  0  0
 60132  1  0  0  0
 60133  1  0  0  0
 60134  1  0  0  0
 61135  1  0  0  0
 61136  1  0  0  0
 61137  1  0  0  0
 62138  1  0  0  0
 62139  1  0  0  0
 62140  1  0  0  0
 63 65  1  0  0  0
 63141  1  0  0  0
 63142  1  0  0  0
 63143  1  0  0  0
 64144  1  0  0  0
 65145  1  0  0  0
 68 82  1  0  0  0
 71 72  2  0  0  0
 71 75  1  0  0  0
 71146  1  0  0  0
 72 76  1  0  0  0
 72147  1  0  0  0
 73 74  1  0  0  0
 73 76  2  0  0  0
 73148  1  0  0  0
 74 75  2  0  0  0
 74 79  1  0  0  0
 75 84  1  0  0  0
 76 86  1  0  0  0
 77 78  1  0  0  0
 77 79  1  0  0  0
 77149  1  0  0  0
 77150  1  0  0  0
 78 79  1  0  0  0
 78151  1  0  0  0
 78152  1  0  0  0
 79153  1  0  0  0
 80 82  1  0  0  0
 80 85  1  0  0  0
 80154  1  0  0  0
 80155  1  0  0  0
 81 83  1  0  0  0
 81 85  1  0  0  0
 81156  1  0  0  0
 81157  1  0  0  0
 82158  1  0  0  0
 82159  1  0  0  0
 83 86  1  0  0  0
 83160  1  0  0  0
 83161  1  0  0  0
 84162  1  0  0  0
 85163  1  0  0  0
 85164  1  0  0  0
M  CHG  1  85   1
M  ISO  4   1 100  68 101  82 101  84 100
M  END
> <chiral flag>
0

> <version>
0

> <s_m_source_file>
/data/baiqing/PycharmProjects/Reinvent-master-3.2/result/LINK_invent/BTK/process_docking_weight1_custom_sum_contain_oxygen_bond_distance_aromatic_linkinvent_7_9_3/rearranged_h_0131.sdf

> <i_m_source_file_index>
93

> <r_mmod_Potential_Energy-OPLS-2005>
-116.055702209473

> <r_mmod_Stretch_Energy-OPLS-2005>
33.6551284790039

> <r_mmod_Bend_Energy-OPLS-2005>
97.6201019287109

> <r_mmod_Torsional_Energy-OPLS-2005>
266.589508056641

> <r_mmod_Improper_Torsional_Energy-OPLS-2005>
2.42451524734497

> <r_mmod_Van_der_Waal_Energy-OPLS-2005>
161.412551879883

> <r_mmod_Electrostatic_Energy-OPLS-2005>
-233.556762695312

> <r_mmod_Solvation_Energy-OPLS-2005>
-453.244781494141

> <b_mmod_Minimization_Converged-OPLS-2005>
0

> <r_mmod_RMS_Derivative-OPLS-2005>
4.15485286712646

$$$$
93
                    3D
 Structure written by MMmdl.
155163  0  0  1  0            999 V2000
  -30.5202  -14.9608   20.4009 C   0  0  0  0  0  0
  -30.4459  -12.5905   19.5142 C   0  0  0  0  0  0
  -29.5262  -12.5302   18.2695 C   0  0  0  0  0  0
  -28.0558  -12.3263   18.6824 C   0  0  0  0  0  0
  -27.6344  -13.2522   19.8539 C   0  0  2  0  0  0
  -28.6771  -13.2656   20.9936 C   0  0  0  0  0  0
  -25.2465  -13.8211   20.5767 C   0  0  0  0  0  0
  -24.1786  -13.0444   20.9264 C   0  0  0  0  0  0
  -24.6393  -11.6937   20.8790 C   0  0  0  0  0  0
  -23.9048  -10.4294   21.0420 C   0  0  0  0  0  0
  -24.3598   -9.4195   21.9201 C   0  0  0  0  0  0
  -23.6283   -8.2230   22.0753 C   0  0  0  0  0  0
  -22.4266   -8.0261   21.3543 C   0  0  0  0  0  0
  -21.9905   -9.0237   20.4644 C   0  0  0  0  0  0
  -22.7223  -10.2124   20.3067 C   0  0  0  0  0  0
  -21.6858   -6.0726   22.5262 C   0  0  0  0  0  0
  -21.4018   -6.5635   23.8196 C   0  0  0  0  0  0
  -21.3652   -5.6795   24.9155 C   0  0  0  0  0  0
  -21.6030   -4.3044   24.7217 C   0  0  0  0  0  0
  -21.8821   -3.8140   23.4346 C   0  0  0  0  0  0
  -21.9187   -4.6954   22.3404 C   0  0  0  0  0  0
  -22.7798  -13.5204   21.1919 C   0  0  0  0  0  0
  -22.1683   -4.2139   21.0977 F   0  0  0  0  0  0
  -21.5614   -3.4539   25.7736 F   0  0  0  0  0  0
  -29.9562  -13.6851   20.4043 N   0  0  0  0  0  0
  -26.2909  -12.9461   20.3337 N   0  0  0  0  0  0
  -25.9338  -11.6592   20.5798 N   0  0  0  0  0  0
  -22.0460  -12.8178   22.0471 N   0  0  0  0  0  0
  -25.4117  -15.1937   20.4153 N   0  0  0  0  0  0
  -31.6976  -15.0572   20.0349 O   0  0  0  0  0  0
  -21.6639   -6.8862   21.4230 O   0  0  0  0  0  0
  -22.3472  -14.5495   20.6733 O   0  0  0  0  0  0
  -24.6382  -31.8442   23.1842 C   0  0  0  0  0  0
  -25.9154  -32.4706   23.8256 C   0  0  1  0  0  0
  -27.2221  -27.1389   20.1513 C   0  0  0  0  0  0
  -25.5898  -33.8513   24.2196 N   0  0  0  0  0  0
  -23.4435  -30.4577   21.5293 C   0  0  2  0  0  0
  -24.8973  -28.8828   20.0976 C   0  0  0  0  0  0
  -22.7549  -29.4528   22.4855 C   0  0  0  0  0  0
  -18.0294  -28.1380   22.8473 C   0  0  0  0  0  0
  -24.1493  -36.7291   23.2649 C   0  0  0  0  0  0
  -25.9949  -30.7172   21.3810 C   0  0  0  0  0  0
  -26.0657  -29.3246   20.7300 C   0  0  0  0  0  0
  -27.2219  -28.4621   20.7496 C   0  0  0  0  0  0
  -26.0361  -26.7980   19.4691 C   0  0  0  0  0  0
  -24.8975  -27.6367   19.4477 C   0  0  0  0  0  0
  -23.6672  -29.7785   20.1483 C   0  0  0  0  0  0
  -25.4116  -36.3065   24.0334 C   0  0  1  0  0  0
  -20.5905  -28.3712   23.1231 C   0  0  2  0  0  0
  -20.6774  -26.9415   22.5394 C   0  0  0  0  0  0
  -19.5760  -26.6368   21.5197 C   0  0  0  0  0  0
  -18.1948  -26.7914   22.1628 C   0  0  0  0  0  0
  -19.1547  -28.8863   23.2844 C   0  0  0  0  0  0
  -18.9474  -30.1458   23.8878 C   0  0  0  0  0  0
  -17.6476  -30.6582   24.0552 C   0  0  0  0  0  0
  -25.9059  -34.9431   23.5090 C   0  0  0  0  0  0
  -16.5365  -29.9083   23.6319 C   0  0  0  0  0  0
  -16.7282  -28.6489   23.0355 C   0  0  0  0  0  0
  -26.4489  -31.6561   25.0689 C   0  0  0  0  0  0
  -25.3674  -31.3729   26.1383 C   0  0  0  0  0  0
  -27.0350  -30.2966   24.6236 C   0  0  0  0  0  0
  -27.6033  -32.4319   25.7469 C   0  0  0  0  0  0
  -27.5589  -37.1803   24.8463 C   0  0  0  0  0  0
  -21.4239  -29.3045   22.3616 N   0  0  0  0  0  0
  -26.4300  -37.3764   23.9399 N   0  0  0  0  0  0
  -24.7124  -31.0284   22.0875 N   0  0  0  0  0  0
  -23.4200  -28.8079   23.2999 O   0  0  0  0  0  0
  -28.2925  -26.1872   20.2804 O   0  0  0  0  0  0
  -26.5681  -34.8935   22.4689 O   0  0  0  0  0  0
  -23.5496  -32.1331   23.7042 O   0  0  0  0  0  0
  -27.6659  -23.3212   21.7679 C   0  0  0  0  0  0
  -29.5839  -21.9760   21.9644 C   0  0  0  0  0  0
  -28.1415  -23.1967   20.3225 C   0  0  2  0  0  0
  -29.2223  -21.9010   20.4635 C   0  0  2  0  0  0
  -28.4166  -24.7500   19.6907 C   0  0  0  0  0  0
  -29.6704  -17.5815   19.9743 C   0  0  0  0  0  0
  -29.4595  -19.0654   20.7661 C   0  0  0  0  0  0
  -28.8612  -23.0953   22.5649 N   0  0  0  0  0  0
  -29.7160  -16.1191   20.6030 N   0  0  0  0  0  0
  -28.9077  -20.3872   20.0521 N   0  3  0  0  0  0
  -31.4794  -12.7468   19.2007 H   0  0  0  0  0  0
  -30.4435  -11.6405   20.0505 H   0  0  0  0  0  0
  -29.8420  -11.7233   17.6057 H   0  0  0  0  0  0
  -29.6224  -13.4535   17.6963 H   0  0  0  0  0  0
  -27.9441  -11.2835   18.9757 H   0  0  0  0  0  0
  -27.3953  -12.4727   17.8267 H   0  0  0  0  0  0
  -27.6020  -14.2579   19.4348 H   0  0  0  0  0  0
  -28.7612  -12.2838   21.4587 H   0  0  0  0  0  0
  -28.3761  -13.9521   21.7864 H   0  0  0  0  0  0
  -25.2726   -9.5686   22.4797 H   0  0  0  0  0  0
  -23.9977   -7.4627   22.7457 H   0  0  0  0  0  0
  -21.0836   -8.8733   19.8959 H   0  0  0  0  0  0
  -22.3640  -10.9672   19.6181 H   0  0  0  0  0  0
  -21.2057   -7.6152   23.9699 H   0  0  0  0  0  0
  -21.1470   -6.0523   25.9050 H   0  0  0  0  0  0
  -22.0618   -2.7617   23.2835 H   0  0  0  0  0  0
  -22.4073  -11.9807   22.4805 H   0  0  0  0  0  0
  -21.1076  -13.1182   22.2709 H   0  0  0  0  0  0
  -24.6351  -15.8391   20.5120 H   0  0  0  0  0  0
  -26.2363  -15.6289   20.0266 H   0  0  0  0  0  0
  -26.7215  -32.5331   23.0984 H   0  0  0  0  0  0
  -24.9936  -33.9627   25.0270 H   0  0  0  0  0  0
  -22.7461  -31.2816   21.3705 H   0  0  0  0  0  0
  -23.3767  -35.9612   23.3295 H   0  0  0  0  0  0
  -24.3576  -36.8938   22.2065 H   0  0  0  0  0  0
  -23.7244  -37.6489   23.6678 H   0  0  0  0  0  0
  -26.1388  -31.4665   20.6009 H   0  0  0  0  0  0
  -26.8693  -30.7766   22.0168 H   0  0  0  0  0  0
  -28.1051  -28.7890   21.2819 H   0  0  0  0  0  0
  -25.9604  -25.8396   18.9771 H   0  0  0  0  0  0
  -24.0102  -27.3000   18.9294 H   0  0  0  0  0  0
  -23.7893  -30.5479   19.3851 H   0  0  0  0  0  0
  -22.7840  -29.2092   19.8515 H   0  0  0  0  0  0
  -25.1298  -36.1920   25.0830 H   0  0  0  0  0  0
  -20.9986  -28.3298   24.1355 H   0  0  0  0  0  0
  -20.5629  -26.2342   23.3612 H   0  0  0  0  0  0
  -21.6648  -26.7399   22.1221 H   0  0  0  0  0  0
  -19.6924  -25.6266   21.1258 H   0  0  0  0  0  0
  -19.6687  -27.3147   20.6696 H   0  0  0  0  0  0
  -17.4190  -26.6619   21.4058 H   0  0  0  0  0  0
  -18.0389  -26.0064   22.9044 H   0  0  0  0  0  0
  -19.7952  -30.7266   24.2251 H   0  0  0  0  0  0
  -17.5031  -31.6256   24.5163 H   0  0  0  0  0  0
  -15.5366  -30.2985   23.7632 H   0  0  0  0  0  0
  -15.8687  -28.0791   22.7098 H   0  0  0  0  0  0
  -24.5847  -30.7095   25.7686 H   0  0  0  0  0  0
  -24.8868  -32.2900   26.4788 H   0  0  0  0  0  0
  -25.7952  -30.8894   27.0172 H   0  0  0  0  0  0
  -26.2956  -29.6706   24.1227 H   0  0  0  0  0  0
  -27.3970  -29.7241   25.4787 H   0  0  0  0  0  0
  -27.8853  -30.4239   23.9537 H   0  0  0  0  0  0
  -27.2621  -33.3600   26.2061 H   0  0  0  0  0  0
  -28.3817  -32.6911   25.0285 H   0  0  0  0  0  0
  -28.0730  -31.8439   26.5361 H   0  0  0  0  0  0
  -28.2591  -38.0119   24.7506 H   0  0  0  0  0  0
  -28.1107  -36.2643   24.6278 H   0  0  0  0  0  0
  -27.2308  -37.1438   25.8872 H   0  0  0  0  0  0
  -20.9430  -29.8807   21.6848 H   0  0  0  0  0  0
  -26.0193  -38.2853   24.1363 H   0  0  0  0  0  0
  -26.9332  -22.5422   21.9904 H   0  0  0  0  0  0
  -27.2025  -24.2845   21.9868 H   0  0  0  0  0  0
  -30.6600  -22.0825   22.1158 H   0  0  0  0  0  0
  -29.2691  -21.0729   22.4870 H   0  0  0  0  0  0
  -27.2899  -22.8294   19.7470 H   0  0  0  0  0  0
  -30.1111  -22.1684   19.8896 H   0  0  0  0  0  0
  -27.8959  -24.7840   18.7357 H   0  0  0  0  0  0
  -29.4615  -24.7270   19.3842 H   0  0  0  0  0  0
  -28.8574  -17.5180   19.2504 H   0  0  0  0  0  0
  -30.5667  -17.6770   19.3624 H   0  0  0  0  0  0
  -30.4265  -19.3273   21.1976 H   0  0  0  0  0  0
  -28.8141  -18.8880   21.6283 H   0  0  0  0  0  0
  -28.6161  -22.8819   23.5333 H   0  0  0  0  0  0
  -28.8321  -15.8664   21.0207 H   0  0  0  0  0  0
  -29.1748  -20.3126   19.0837 H   0  0  0  0  0  0
  -27.9061  -20.2850   20.0523 H   0  0  0  0  0  0
  1 25  1  0  0  0
  1 30  2  0  0  0
  1 79  1  0  0  0
  2  3  1  0  0  0
  2 25  1  0  0  0
  2 81  1  0  0  0
  2 82  1  0  0  0
  3  4  1  0  0  0
  3 83  1  0  0  0
  3 84  1  0  0  0
  4  5  1  0  0  0
  4 85  1  0  0  0
  4 86  1  0  0  0
  5  6  1  0  0  0
  5 26  1  0  0  0
  5 87  1  0  0  0
  6 25  1  0  0  0
  6 88  1  0  0  0
  6 89  1  0  0  0
  7  8  2  0  0  0
  7 26  1  0  0  0
  7 29  1  0  0  0
  8  9  1  0  0  0
  8 22  1  0  0  0
  9 10  1  0  0  0
  9 27  2  0  0  0
 10 11  2  0  0  0
 10 15  1  0  0  0
 11 12  1  0  0  0
 11 90  1  0  0  0
 12 13  2  0  0  0
 12 91  1  0  0  0
 13 14  1  0  0  0
 13 31  1  0  0  0
 14 15  2  0  0  0
 14 92  1  0  0  0
 15 93  1  0  0  0
 16 17  2  0  0  0
 16 21  1  0  0  0
 16 31  1  0  0  0
 17 18  1  0  0  0
 17 94  1  0  0  0
 18 19  2  0  0  0
 18 95  1  0  0  0
 19 20  1  0  0  0
 19 24  1  0  0  0
 20 21  2  0  0  0
 20 96  1  0  0  0
 21 23  1  0  0  0
 22 28  1  0  0  0
 22 32  2  0  0  0
 26 27  1  0  0  0
 28 97  1  0  0  0
 28 98  1  0  0  0
 29 99  1  0  0  0
 29100  1  0  0  0
 33 34  1  0  0  0
 33 66  1  0  0  0
 33 70  2  0  0  0
 34 36  1  0  0  0
 34 59  1  0  0  0
 34101  1  0  0  0
 35 44  2  0  0  0
 35 45  1  0  0  0
 35 68  1  0  0  0
 36 56  1  0  0  0
 36102  1  0  0  0
 37 39  1  0  0  0
 37 47  1  0  0  0
 37 66  1  0  0  0
 37103  1  0  0  0
 38 43  2  0  0  0
 38 46  1  0  0  0
 38 47  1  0  0  0
 39 64  1  0  0  0
 39 67  2  0  0  0
 40 52  1  0  0  0
 40 53  2  0  0  0
 40 58  1  0  0  0
 41104  1  0  0  0
 41105  1  0  0  0
 41106  1  0  0  0
 41 48  1  0  0  0
 42 43  1  0  0  0
 42 66  1  0  0  0
 42107  1  0  0  0
 42108  1  0  0  0
 43 44  1  0  0  0
 44109  1  0  0  0
 45 46  2  0  0  0
 45110  1  0  0  0
 46111  1  0  0  0
 47112  1  0  0  0
 47113  1  0  0  0
 48 56  1  0  0  0
 48 65  1  0  0  0
 48114  1  0  0  0
 49 50  1  0  0  0
 49 53  1  0  0  0
 49 64  1  0  0  0
 49115  1  0  0  0
 50 51  1  0  0  0
 50116  1  0  0  0
 50117  1  0  0  0
 51 52  1  0  0  0
 51118  1  0  0  0
 51119  1  0  0  0
 52120  1  0  0  0
 52121  1  0  0  0
 53 54  1  0  0  0
 54 55  2  0  0  0
 54122  1  0  0  0
 55 57  1  0  0  0
 55123  1  0  0  0
 56 69  2  0  0  0
 57 58  2  0  0  0
 57124  1  0  0  0
 58125  1  0  0  0
 59 60  1  0  0  0
 59 61  1  0  0  0
 59 62  1  0  0  0
 60126  1  0  0  0
 60127  1  0  0  0
 60128  1  0  0  0
 61129  1  0  0  0
 61130  1  0  0  0
 61131  1  0  0  0
 62132  1  0  0  0
 62133  1  0  0  0
 62134  1  0  0  0
 63 65  1  0  0  0
 63135  1  0  0  0
 63136  1  0  0  0
 63137  1  0  0  0
 64138  1  0  0  0
 65139  1  0  0  0
 68 75  1  0  0  0
 71 73  1  0  0  0
 71 78  1  0  0  0
 71140  1  0  0  0
 71141  1  0  0  0
 72 74  1  0  0  0
 72 78  1  0  0  0
 72142  1  0  0  0
 72143  1  0  0  0
 73 74  1  0  0  0
 73 75  1  0  0  0
 73144  1  0  0  0
 74 80  1  0  0  0
 74145  1  0  0  0
 75146  1  0  0  0
 75147  1  0  0  0
 76 77  1  0  0  0
 76 79  1  0  0  0
 76148  1  0  0  0
 76149  1  0  0  0
 77 80  1  0  0  0
 77150  1  0  0  0
 77151  1  0  0  0
 78152  1  0  0  0
 79153  1  0  0  0
 80154  1  0  0  0
 80155  1  0  0  0
M  CHG  1  80   1
M  ISO  4   1 100  68 101  75 101  79 100
M  END
> <chiral flag>
0

> <version>
0

> <s_m_source_file>
/data/baiqing/PycharmProjects/Reinvent-master-3.2/result/LINK_invent/BTK/process_docking_weight1_custom_sum_contain_oxygen_bond_distance_aromatic_linkinvent_7_9_3/rearranged_h_0131.sdf

> <i_m_source_file_index>
94

> <r_mmod_Potential_Energy-OPLS-2005>
474.510864257812

> <r_mmod_Stretch_Energy-OPLS-2005>
281.530395507812

> <r_mmod_Bend_Energy-OPLS-2005>
337.944183349609

> <r_mmod_Torsional_Energy-OPLS-2005>
315.266296386719

> <r_mmod_Improper_Torsional_Energy-OPLS-2005>
6.07446670532227

> <r_mmod_Van_der_Waal_Energy-OPLS-2005>
109.046447753906

> <r_mmod_Electrostatic_Energy-OPLS-2005>
-247.864639282227

> <r_mmod_Solvation_Energy-OPLS-2005>
-524.020141601562

> <b_mmod_Minimization_Converged-OPLS-2005>
0

> <r_mmod_RMS_Derivative-OPLS-2005>
3.52040791511536

$$$$
94
                    3D
 Structure written by MMmdl.
176185  0  0  1  0            999 V2000
  -30.7029  -14.4435   20.5620 C   0  0  0  0  0  0
  -30.4306  -12.2861   19.4127 C   0  0  0  0  0  0
  -29.4947  -12.4924   18.2022 C   0  0  0  0  0  0
  -28.0130  -12.3718   18.6178 C   0  0  0  0  0  0
  -27.6657  -13.1909   19.8911 C   0  0  2  0  0  0
  -28.7169  -12.9536   21.0021 C   0  0  0  0  0  0
  -25.2611  -13.8109   20.5717 C   0  0  0  0  0  0
  -24.1846  -13.0409   20.9205 C   0  0  0  0  0  0
  -24.6387  -11.6873   20.8777 C   0  0  0  0  0  0
  -23.9046  -10.4272   21.0426 C   0  0  0  0  0  0
  -24.3603   -9.4192   21.9201 C   0  0  0  0  0  0
  -23.6281   -8.2233   22.0767 C   0  0  0  0  0  0
  -22.4265   -8.0273   21.3554 C   0  0  0  0  0  0
  -21.9900   -9.0250   20.4661 C   0  0  0  0  0  0
  -22.7222  -10.2127   20.3071 C   0  0  0  0  0  0
  -21.6849   -6.0738   22.5286 C   0  0  0  0  0  0
  -21.4007   -6.5641   23.8218 C   0  0  0  0  0  0
  -21.3659   -5.6792   24.9182 C   0  0  0  0  0  0
  -21.6044   -4.3056   24.7232 C   0  0  0  0  0  0
  -21.8814   -3.8153   23.4350 C   0  0  0  0  0  0
  -21.9190   -4.6970   22.3408 C   0  0  0  0  0  0
  -22.7867  -13.5229   21.1843 C   0  0  0  0  0  0
  -22.1649   -4.2155   21.0987 F   0  0  0  0  0  0
  -21.5648   -3.4539   25.7744 F   0  0  0  0  0  0
  -30.0485  -13.2589   20.4455 N   0  0  0  0  0  0
  -26.3052  -12.9241   20.3484 N   0  0  0  0  0  0
  -25.9316  -11.6425   20.5853 N   0  0  0  0  0  0
  -22.0477  -12.8250   22.0400 N   0  0  0  0  0  0
  -25.4322  -15.1828   20.4081 N   0  0  0  0  0  0
  -31.8271  -14.6559   20.1019 O   0  0  0  0  0  0
  -21.6628   -6.8872   21.4244 O   0  0  0  0  0  0
  -22.3568  -14.5538   20.6677 O   0  0  0  0  0  0
  -24.6128  -31.8693   23.2109 C   0  0  0  0  0  0
  -25.9032  -32.4831   23.8392 C   0  0  1  0  0  0
  -27.2368  -27.4492   20.0865 C   0  0  0  0  0  0
  -25.5898  -33.8627   24.2331 N   0  0  0  0  0  0
  -23.3993  -30.4939   21.5507 C   0  0  2  0  0  0
  -24.8434  -28.9625   20.1121 C   0  0  0  0  0  0
  -22.7401  -29.4670   22.4991 C   0  0  0  0  0  0
  -18.0275  -28.1385   22.8496 C   0  0  0  0  0  0
  -24.1484  -36.7313   23.2637 C   0  0  0  0  0  0
  -25.9259  -30.8385   21.3605 C   0  0  0  0  0  0
  -26.0009  -29.4732   20.7093 C   0  0  0  0  0  0
  -27.1962  -28.7224   20.6968 C   0  0  0  0  0  0
  -26.0591  -26.9540   19.4754 C   0  0  0  0  0  0
  -24.8667  -27.7015   19.4932 C   0  0  0  0  0  0
  -23.6048  -29.8270   20.1641 C   0  0  0  0  0  0
  -25.4106  -36.3115   24.0341 C   0  0  1  0  0  0
  -20.5864  -28.3666   23.1328 C   0  0  2  0  0  0
  -20.6770  -26.9406   22.5421 C   0  0  0  0  0  0
  -19.5748  -26.6390   21.5220 C   0  0  0  0  0  0
  -18.1925  -26.7933   22.1625 C   0  0  0  0  0  0
  -19.1524  -28.8841   23.2911 C   0  0  0  0  0  0
  -18.9455  -30.1449   23.8918 C   0  0  0  0  0  0
  -17.6458  -30.6589   24.0572 C   0  0  0  0  0  0
  -25.9034  -34.9482   23.5131 C   0  0  0  0  0  0
  -16.5350  -29.9095   23.6325 C   0  0  0  0  0  0
  -16.7265  -28.6513   23.0341 C   0  0  0  0  0  0
  -26.4467  -31.6606   25.0710 C   0  0  0  0  0  0
  -25.3748  -31.3708   26.1467 C   0  0  0  0  0  0
  -27.0290  -30.3058   24.6053 C   0  0  0  0  0  0
  -27.6049  -32.4321   25.7469 C   0  0  0  0  0  0
  -27.5583  -37.1808   24.8466 C   0  0  0  0  0  0
  -21.4130  -29.3036   22.3736 N   0  0  0  0  0  0
  -26.4294  -37.3799   23.9416 N   0  0  0  0  0  0
  -24.6644  -31.0812   22.0998 N   0  0  0  0  0  0
  -23.4189  -28.8207   23.3018 O   0  0  0  0  0  0
  -28.4332  -26.7583   20.1199 O   0  0  0  0  0  0
  -26.5589  -34.8935   22.4687 O   0  0  0  0  0  0
  -23.5327  -32.1435   23.7517 O   0  0  0  0  0  0
  -30.1931  -19.8905   15.3656 C   0  0  0  0  0  0
  -30.7158  -21.3197   15.5402 C   0  0  0  0  0  0
  -29.5657  -19.3701   16.6670 C   0  0  0  0  0  0
  -31.6512  -21.4387   16.7584 C   0  0  0  0  0  0
  -28.8162  -25.2211   18.2907 C   0  0  0  0  0  0
  -29.5256  -24.6629   20.6382 C   0  0  0  0  0  0
  -28.9373  -23.7408   17.9001 C   0  0  0  0  0  0
  -29.6343  -23.1698   20.2662 C   0  0  0  0  0  0
  -30.5935  -19.4042   17.8348 C   0  0  1  0  0  0
  -28.4646  -25.3715   19.7782 C   0  0  1  0  0  0
  -29.9561  -22.9783   18.7727 C   0  0  1  0  0  0
  -31.0203  -20.8823   18.0603 C   0  0  2  0  0  0
  -29.1234  -16.5764   18.3942 C   0  0  0  0  0  0
  -30.1298  -16.8909   20.7559 C   0  0  0  0  0  0
  -30.1825  -17.3052   19.2501 C   0  0  2  0  0  0
  -29.9350  -15.4522   20.9976 N   0  0  0  0  0  0
  -30.1012  -18.7920   19.1047 N   0  3  0  0  0  0
  -29.8358  -21.5944   18.4450 O   0  0  0  0  0  0
  -31.4733  -12.3886   19.1063 H   0  0  0  0  0  0
  -30.3365  -11.2710   19.8002 H   0  0  0  0  0  0
  -29.7222  -11.7597   17.4267 H   0  0  0  0  0  0
  -29.6785  -13.4680   17.7518 H   0  0  0  0  0  0
  -27.8109  -11.3162   18.7990 H   0  0  0  0  0  0
  -27.3640  -12.6658   17.7920 H   0  0  0  0  0  0
  -27.6984  -14.2410   19.6209 H   0  0  0  0  0  0
  -28.6913  -11.9120   21.3283 H   0  0  0  0  0  0
  -28.4940  -13.5416   21.8936 H   0  0  0  0  0  0
  -25.2746   -9.5675   22.4772 H   0  0  0  0  0  0
  -24.0005   -7.4621   22.7472 H   0  0  0  0  0  0
  -21.0846   -8.8755   19.8952 H   0  0  0  0  0  0
  -22.3685  -10.9672   19.6181 H   0  0  0  0  0  0
  -21.1977   -7.6143   23.9725 H   0  0  0  0  0  0
  -21.1492   -6.0524   25.9086 H   0  0  0  0  0  0
  -22.0594   -2.7621   23.2848 H   0  0  0  0  0  0
  -22.4046  -11.9899   22.4807 H   0  0  0  0  0  0
  -21.1097  -13.1306   22.2571 H   0  0  0  0  0  0
  -24.6631  -15.8348   20.5128 H   0  0  0  0  0  0
  -26.2829  -15.6235   20.0823 H   0  0  0  0  0  0
  -26.7100  -32.5545   23.1154 H   0  0  0  0  0  0
  -25.0086  -33.9795   25.0499 H   0  0  0  0  0  0
  -22.6870  -31.3104   21.4137 H   0  0  0  0  0  0
  -23.3753  -35.9640   23.3302 H   0  0  0  0  0  0
  -24.3585  -36.8917   22.2053 H   0  0  0  0  0  0
  -23.7227  -37.6517   23.6644 H   0  0  0  0  0  0
  -26.0340  -31.6034   20.5897 H   0  0  0  0  0  0
  -26.8166  -30.8936   21.9747 H   0  0  0  0  0  0
  -28.0897  -29.1154   21.1612 H   0  0  0  0  0  0
  -26.0356  -26.0014   18.9676 H   0  0  0  0  0  0
  -23.9781  -27.3065   19.0198 H   0  0  0  0  0  0
  -23.7108  -30.6025   19.4046 H   0  0  0  0  0  0
  -22.7289  -29.2458   19.8703 H   0  0  0  0  0  0
  -25.1281  -36.1977   25.0835 H   0  0  0  0  0  0
  -20.9965  -28.3228   24.1444 H   0  0  0  0  0  0
  -20.5688  -26.2273   23.3604 H   0  0  0  0  0  0
  -21.6639  -26.7459   22.1201 H   0  0  0  0  0  0
  -19.6912  -25.6304   21.1239 H   0  0  0  0  0  0
  -19.6694  -27.3213   20.6763 H   0  0  0  0  0  0
  -17.4200  -26.6695   21.4017 H   0  0  0  0  0  0
  -18.0314  -26.0069   22.9014 H   0  0  0  0  0  0
  -19.7933  -30.7263   24.2290 H   0  0  0  0  0  0
  -17.5016  -31.6271   24.5171 H   0  0  0  0  0  0
  -15.5352  -30.3009   23.7634 H   0  0  0  0  0  0
  -15.8665  -28.0848   22.7033 H   0  0  0  0  0  0
  -24.5907  -30.7067   25.7807 H   0  0  0  0  0  0
  -24.8957  -32.2866   26.4942 H   0  0  0  0  0  0
  -25.8108  -30.8857   27.0207 H   0  0  0  0  0  0
  -26.2814  -29.6827   24.1126 H   0  0  0  0  0  0
  -27.4106  -29.7278   25.4479 H   0  0  0  0  0  0
  -27.8628  -30.4400   23.9158 H   0  0  0  0  0  0
  -27.2676  -33.3617   26.2066 H   0  0  0  0  0  0
  -28.3847  -32.6884   25.0285 H   0  0  0  0  0  0
  -28.0726  -31.8433   26.5367 H   0  0  0  0  0  0
  -28.2596  -38.0112   24.7527 H   0  0  0  0  0  0
  -28.1083  -36.2643   24.6267 H   0  0  0  0  0  0
  -27.2307  -37.1426   25.8872 H   0  0  0  0  0  0
  -20.9283  -29.8767   21.6969 H   0  0  0  0  0  0
  -26.0181  -38.2875   24.1430 H   0  0  0  0  0  0
  -31.0067  -19.2312   15.0583 H   0  0  0  0  0  0
  -29.4569  -19.8626   14.5605 H   0  0  0  0  0  0
  -29.8662  -21.9908   15.6495 H   0  0  0  0  0  0
  -31.2374  -21.6383   14.6367 H   0  0  0  0  0  0
  -29.1819  -18.3826   16.4539 H   0  0  0  0  0  0
  -28.6885  -19.9697   16.9150 H   0  0  0  0  0  0
  -31.9708  -22.4726   16.8763 H   0  0  0  0  0  0
  -32.5654  -20.8813   16.5529 H   0  0  0  0  0  0
  -28.0622  -25.7055   17.6696 H   0  0  0  0  0  0
  -29.7573  -25.7320   18.0840 H   0  0  0  0  0  0
  -30.4941  -25.1472   20.5078 H   0  0  0  0  0  0
  -29.2696  -24.7610   21.6938 H   0  0  0  0  0  0
  -29.2186  -23.6807   16.8512 H   0  0  0  0  0  0
  -27.9582  -23.2672   17.9848 H   0  0  0  0  0  0
  -28.6933  -22.6710   20.5038 H   0  0  0  0  0  0
  -30.3991  -22.6893   20.8774 H   0  0  0  0  0  0
  -31.4842  -18.8493   17.5348 H   0  0  0  0  0  0
  -27.5170  -24.8792   19.9988 H   0  0  0  0  0  0
  -30.9576  -23.3667   18.5855 H   0  0  0  0  0  0
  -31.7511  -20.9440   18.8683 H   0  0  0  0  0  0
  -29.0701  -15.5193   18.6155 H   0  0  0  0  0  0
  -29.3887  -16.5806   17.3426 H   0  0  0  0  0  0
  -28.1242  -16.9920   18.5227 H   0  0  0  0  0  0
  -29.3090  -17.4090   21.2538 H   0  0  0  0  0  0
  -31.0434  -17.2092   21.2606 H   0  0  0  0  0  0
  -31.1617  -16.9954   18.8821 H   0  0  0  0  0  0
  -29.0384  -15.1802   21.3728 H   0  0  0  0  0  0
  -29.1699  -19.1266   19.3000 H   0  0  0  0  0  0
  -30.6859  -19.1701   19.8350 H   0  0  0  0  0  0
  1 25  1  0  0  0
  1 30  2  0  0  0
  1 86  1  0  0  0
  2  3  1  0  0  0
  2 25  1  0  0  0
  2 89  1  0  0  0
  2 90  1  0  0  0
  3  4  1  0  0  0
  3 91  1  0  0  0
  3 92  1  0  0  0
  4  5  1  0  0  0
  4 93  1  0  0  0
  4 94  1  0  0  0
  5  6  1  0  0  0
  5 26  1  0  0  0
  5 95  1  0  0  0
  6 25  1  0  0  0
  6 96  1  0  0  0
  6 97  1  0  0  0
  7  8  2  0  0  0
  7 26  1  0  0  0
  7 29  1  0  0  0
  8  9  1  0  0  0
  8 22  1  0  0  0
  9 10  1  0  0  0
  9 27  2  0  0  0
 10 11  2  0  0  0
 10 15  1  0  0  0
 11 12  1  0  0  0
 11 98  1  0  0  0
 12 13  2  0  0  0
 12 99  1  0  0  0
 13 14  1  0  0  0
 13 31  1  0  0  0
 14 15  2  0  0  0
 14100  1  0  0  0
 15101  1  0  0  0
 16 17  2  0  0  0
 16 21  1  0  0  0
 16 31  1  0  0  0
 17 18  1  0  0  0
 17102  1  0  0  0
 18 19  2  0  0  0
 18103  1  0  0  0
 19 20  1  0  0  0
 19 24  1  0  0  0
 20 21  2  0  0  0
 20104  1  0  0  0
 21 23  1  0  0  0
 22 28  1  0  0  0
 22 32  2  0  0  0
 26 27  1  0  0  0
 28105  1  0  0  0
 28106  1  0  0  0
 29107  1  0  0  0
 29108  1  0  0  0
 33 34  1  0  0  0
 33 66  1  0  0  0
 33 70  2  0  0  0
 34 36  1  0  0  0
 34 59  1  0  0  0
 34109  1  0  0  0
 35 44  2  0  0  0
 35 45  1  0  0  0
 35 68  1  0  0  0
 36 56  1  0  0  0
 36110  1  0  0  0
 37 39  1  0  0  0
 37 47  1  0  0  0
 37 66  1  0  0  0
 37111  1  0  0  0
 38 43  2  0  0  0
 38 46  1  0  0  0
 38 47  1  0  0  0
 39 64  1  0  0  0
 39 67  2  0  0  0
 40 52  1  0  0  0
 40 53  2  0  0  0
 40 58  1  0  0  0
 41112  1  0  0  0
 41113  1  0  0  0
 41114  1  0  0  0
 41 48  1  0  0  0
 42 43  1  0  0  0
 42 66  1  0  0  0
 42115  1  0  0  0
 42116  1  0  0  0
 43 44  1  0  0  0
 44117  1  0  0  0
 45 46  2  0  0  0
 45118  1  0  0  0
 46119  1  0  0  0
 47120  1  0  0  0
 47121  1  0  0  0
 48 56  1  0  0  0
 48 65  1  0  0  0
 48122  1  0  0  0
 49 50  1  0  0  0
 49 53  1  0  0  0
 49 64  1  0  0  0
 49123  1  0  0  0
 50 51  1  0  0  0
 50124  1  0  0  0
 50125  1  0  0  0
 51 52  1  0  0  0
 51126  1  0  0  0
 51127  1  0  0  0
 52128  1  0  0  0
 52129  1  0  0  0
 53 54  1  0  0  0
 54 55  2  0  0  0
 54130  1  0  0  0
 55 57  1  0  0  0
 55131  1  0  0  0
 56 69  2  0  0  0
 57 58  2  0  0  0
 57132  1  0  0  0
 58133  1  0  0  0
 59 60  1  0  0  0
 59 61  1  0  0  0
 59 62  1  0  0  0
 60134  1  0  0  0
 60135  1  0  0  0
 60136  1  0  0  0
 61137  1  0  0  0
 61138  1  0  0  0
 61139  1  0  0  0
 62140  1  0  0  0
 62141  1  0  0  0
 62142  1  0  0  0
 63 65  1  0  0  0
 63143  1  0  0  0
 63144  1  0  0  0
 63145  1  0  0  0
 64146  1  0  0  0
 65147  1  0  0  0
 68 80  1  0  0  0
 71 72  1  0  0  0
 71 73  1  0  0  0
 71148  1  0  0  0
 71149  1  0  0  0
 72 74  1  0  0  0
 72150  1  0  0  0
 72151  1  0  0  0
 73 79  1  0  0  0
 73152  1  0  0  0
 73153  1  0  0  0
 74 82  1  0  0  0
 74154  1  0  0  0
 74155  1  0  0  0
 75 77  1  0  0  0
 75 80  1  0  0  0
 75156  1  0  0  0
 75157  1  0  0  0
 76 78  1  0  0  0
 76 80  1  0  0  0
 76158  1  0  0  0
 76159  1  0  0  0
 77 81  1  0  0  0
 77160  1  0  0  0
 77161  1  0  0  0
 78 81  1  0  0  0
 78162  1  0  0  0
 78163  1  0  0  0
 79 82  1  0  0  0
 79 87  1  0  0  0
 79164  1  0  0  0
 80165  1  0  0  0
 81 88  1  0  0  0
 81166  1  0  0  0
 82 88  1  0  0  0
 82167  1  0  0  0
 83168  1  0  0  0
 83169  1  0  0  0
 83170  1  0  0  0
 83 85  1  0  0  0
 84 85  1  0  0  0
 84 86  1  0  0  0
 84171  1  0  0  0
 84172  1  0  0  0
 85 87  1  0  0  0
 85173  1  0  0  0
 86174  1  0  0  0
 87175  1  0  0  0
 87176  1  0  0  0
M  CHG  1  87   1
M  ISO  4   1 100  68 101  80 101  86 100
M  END
> <chiral flag>
0

> <version>
0

> <s_m_source_file>
/data/baiqing/PycharmProjects/Reinvent-master-3.2/result/LINK_invent/BTK/process_docking_weight1_custom_sum_contain_oxygen_bond_distance_aromatic_linkinvent_7_9_3/rearranged_h_0131.sdf

> <i_m_source_file_index>
95

> <r_mmod_Potential_Energy-OPLS-2005>
-203.087631225586

> <r_mmod_Stretch_Energy-OPLS-2005>
38.4396476745605

> <r_mmod_Bend_Energy-OPLS-2005>
118.453811645508

> <r_mmod_Torsional_Energy-OPLS-2005>
266.160858154297

> <r_mmod_Improper_Torsional_Energy-OPLS-2005>
6.02101945877075

> <r_mmod_Van_der_Waal_Energy-OPLS-2005>
148.636672973633

> <r_mmod_Electrostatic_Energy-OPLS-2005>
-364.90673828125

> <r_mmod_Solvation_Energy-OPLS-2005>
-427.343963623047

> <b_mmod_Minimization_Converged-OPLS-2005>
0

> <r_mmod_RMS_Derivative-OPLS-2005>
1.38218867778778

$$$$
95
                    3D
 Structure written by MMmdl.
159167  0  0  1  0            999 V2000
  -30.7616  -14.5290   20.5239 C   0  0  0  0  0  0
  -30.4015  -12.3325   19.4600 C   0  0  0  0  0  0
  -29.5214  -12.4682   18.1934 C   0  0  0  0  0  0
  -28.0370  -12.7946   18.4925 C   0  0  0  0  0  0
  -27.7087  -12.7385   19.9847 C   0  0  2  0  0  0
  -28.7113  -13.1981   21.0401 C   0  0  0  0  0  0
  -25.3101  -13.7499   20.5495 C   0  0  0  0  0  0
  -24.1874  -13.0392   20.9096 C   0  0  0  0  0  0
  -24.5720  -11.6692   20.8875 C   0  0  0  0  0  0
  -23.8393  -10.4247   21.0620 C   0  0  0  0  0  0
  -24.3192   -9.4190   21.9290 C   0  0  0  0  0  0
  -23.6083   -8.2124   22.0750 C   0  0  0  0  0  0
  -22.4085   -8.0126   21.3525 C   0  0  0  0  0  0
  -21.9555   -9.0080   20.4683 C   0  0  0  0  0  0
  -22.6667  -10.2073   20.3187 C   0  0  0  0  0  0
  -21.6776   -6.0629   22.5268 C   0  0  0  0  0  0
  -21.3943   -6.5577   23.8180 C   0  0  0  0  0  0
  -21.3665   -5.6767   24.9178 C   0  0  0  0  0  0
  -21.6058   -4.3027   24.7270 C   0  0  0  0  0  0
  -21.8825   -3.8083   23.4404 C   0  0  0  0  0  0
  -21.9181   -4.6876   22.3434 C   0  0  0  0  0  0
  -22.8028  -13.5567   21.1787 C   0  0  0  0  0  0
  -22.1680   -4.2056   21.1013 F   0  0  0  0  0  0
  -21.5650   -3.4518   25.7791 F   0  0  0  0  0  0
  -30.0349  -13.3900   20.4209 N   0  0  0  0  0  0
  -26.3034  -12.7808   20.3644 N   0  0  0  0  0  0
  -25.8338  -11.5493   20.5982 N   0  0  0  0  0  0
  -22.0533  -12.8667   22.0359 N   0  0  0  0  0  0
  -25.5537  -15.1090   20.3673 N   0  0  0  0  0  0
  -31.8937  -14.6544   20.0589 O   0  0  0  0  0  0
  -21.6552   -6.8682   21.4190 O   0  0  0  0  0  0
  -22.3887  -14.5900   20.6584 O   0  0  0  0  0  0
  -24.6120  -31.8686   23.2105 C   0  0  0  0  0  0
  -25.9020  -32.4823   23.8404 C   0  0  1  0  0  0
  -27.2373  -27.4549   20.0926 C   0  0  0  0  0  0
  -25.5861  -33.8618   24.2324 N   0  0  0  0  0  0
  -23.4018  -30.4899   21.5515 C   0  0  2  0  0  0
  -24.8502  -28.9574   20.1168 C   0  0  0  0  0  0
  -22.7413  -29.4649   22.5008 C   0  0  0  0  0  0
  -18.0264  -28.1385   22.8486 C   0  0  0  0  0  0
  -24.1500  -36.7325   23.2640 C   0  0  0  0  0  0
  -25.9293  -30.8377   21.3651 C   0  0  0  0  0  0
  -26.0084  -29.4738   20.7127 C   0  0  0  0  0  0
  -27.2067  -28.7286   20.7003 C   0  0  0  0  0  0
  -26.0690  -26.9419   19.4953 C   0  0  0  0  0  0
  -24.8739  -27.6890   19.5068 C   0  0  0  0  0  0
  -23.6104  -29.8218   20.1661 C   0  0  0  0  0  0
  -25.4114  -36.3115   24.0342 C   0  0  1  0  0  0
  -20.5853  -28.3663   23.1331 C   0  0  2  0  0  0
  -20.6765  -26.9399   22.5442 C   0  0  0  0  0  0
  -19.5752  -26.6383   21.5227 C   0  0  0  0  0  0
  -18.1920  -26.7928   22.1625 C   0  0  0  0  0  0
  -19.1512  -28.8839   23.2899 C   0  0  0  0  0  0
  -18.9442  -30.1444   23.8906 C   0  0  0  0  0  0
  -17.6445  -30.6587   24.0562 C   0  0  0  0  0  0
  -25.9032  -34.9479   23.5138 C   0  0  0  0  0  0
  -16.5335  -29.9093   23.6320 C   0  0  0  0  0  0
  -16.7252  -28.6515   23.0333 C   0  0  0  0  0  0
  -26.4457  -31.6596   25.0724 C   0  0  0  0  0  0
  -25.3729  -31.3703   26.1468 C   0  0  0  0  0  0
  -27.0276  -30.3043   24.6084 C   0  0  0  0  0  0
  -27.6055  -32.4310   25.7445 C   0  0  0  0  0  0
  -27.5593  -37.1823   24.8457 C   0  0  0  0  0  0
  -21.4143  -29.3013   22.3734 N   0  0  0  0  0  0
  -26.4301  -37.3803   23.9400 N   0  0  0  0  0  0
  -24.6658  -31.0795   22.1005 N   0  0  0  0  0  0
  -23.4197  -28.8201   23.3052 O   0  0  0  0  0  0
  -28.3934  -26.7162   20.0632 O   0  0  0  0  0  0
  -26.5632  -34.8927   22.4721 O   0  0  0  0  0  0
  -23.5311  -32.1421   23.7509 O   0  0  0  0  0  0
  -29.0091  -22.5691   19.1063 C   0  0  0  0  0  0
  -28.9672  -23.9302   19.4795 C   0  0  0  0  0  0
  -28.1267  -21.9567   21.2867 C   0  0  0  0  0  0
  -28.5873  -21.5700   20.0109 C   0  0  0  0  0  0
  -28.5045  -24.3223   20.7561 C   0  0  0  0  0  0
  -28.0889  -23.3166   21.6687 C   0  0  0  0  0  0
  -27.5956  -23.6587   23.0656 C   0  0  0  0  0  0
  -28.5642  -20.0946   19.6134 C   0  0  0  0  0  0
  -28.5321  -25.8024   21.1561 C   0  0  0  0  0  0
  -30.4846  -17.0033   20.9454 C   0  0  0  0  0  0
  -29.3750  -17.8417   20.2646 C   0  0  0  0  0  0
  -30.0988  -15.5898   21.0082 N   0  0  0  0  0  0
  -29.6413  -19.3022   20.2510 N   0  3  0  0  0  0
  -31.4595  -12.3502   19.1919 H   0  0  0  0  0  0
  -30.2429  -11.3624   19.9339 H   0  0  0  0  0  0
  -29.5856  -11.5405   17.6213 H   0  0  0  0  0  0
  -29.9291  -13.2396   17.5378 H   0  0  0  0  0  0
  -27.3848  -12.1179   17.9372 H   0  0  0  0  0  0
  -27.8092  -13.7941   18.1224 H   0  0  0  0  0  0
  -27.9580  -11.6761   20.0711 H   0  0  0  0  0  0
  -28.8010  -12.4586   21.8376 H   0  0  0  0  0  0
  -28.3018  -14.0803   21.5307 H   0  0  0  0  0  0
  -25.2351   -9.5748   22.4835 H   0  0  0  0  0  0
  -23.9899   -7.4487   22.7382 H   0  0  0  0  0  0
  -21.0504   -8.8505   19.9001 H   0  0  0  0  0  0
  -22.3065  -10.9624   19.6328 H   0  0  0  0  0  0
  -21.1866   -7.6084   23.9653 H   0  0  0  0  0  0
  -21.1490   -6.0509   25.9078 H   0  0  0  0  0  0
  -22.0600   -2.7543   23.2922 H   0  0  0  0  0  0
  -22.3999  -12.0292   22.4796 H   0  0  0  0  0  0
  -21.1176  -13.1826   22.2539 H   0  0  0  0  0  0
  -26.4219  -15.4715   19.9938 H   0  0  0  0  0  0
  -24.8177  -15.8044   20.4148 H   0  0  0  0  0  0
  -26.7098  -32.5540   23.1178 H   0  0  0  0  0  0
  -24.9927  -33.9781   25.0413 H   0  0  0  0  0  0
  -22.6900  -31.3058   21.4127 H   0  0  0  0  0  0
  -23.3752  -35.9667   23.3308 H   0  0  0  0  0  0
  -24.3594  -36.8932   22.2053 H   0  0  0  0  0  0
  -23.7272  -37.6546   23.6644 H   0  0  0  0  0  0
  -26.0472  -31.6053   20.5995 H   0  0  0  0  0  0
  -26.8165  -30.8864   21.9845 H   0  0  0  0  0  0
  -28.1053  -29.1247   21.1529 H   0  0  0  0  0  0
  -26.0877  -25.9685   19.0244 H   0  0  0  0  0  0
  -23.9831  -27.2863   19.0442 H   0  0  0  0  0  0
  -23.7184  -30.5976   19.4074 H   0  0  0  0  0  0
  -22.7361  -29.2395   19.8696 H   0  0  0  0  0  0
  -25.1299  -36.1991   25.0841 H   0  0  0  0  0  0
  -20.9926  -28.3231   24.1459 H   0  0  0  0  0  0
  -20.5664  -26.2268   23.3629 H   0  0  0  0  0  0
  -21.6641  -26.7441   22.1243 H   0  0  0  0  0  0
  -19.6918  -25.6296   21.1254 H   0  0  0  0  0  0
  -19.6712  -27.3203   20.6769 H   0  0  0  0  0  0
  -17.4200  -26.6658   21.4018 H   0  0  0  0  0  0
  -18.0311  -26.0075   22.9027 H   0  0  0  0  0  0
  -19.7911  -30.7252   24.2305 H   0  0  0  0  0  0
  -17.4994  -31.6266   24.5165 H   0  0  0  0  0  0
  -15.5335  -30.3002   23.7638 H   0  0  0  0  0  0
  -15.8650  -28.0845   22.7041 H   0  0  0  0  0  0
  -24.5911  -30.7028   25.7821 H   0  0  0  0  0  0
  -24.8880  -32.2845   26.4902 H   0  0  0  0  0  0
  -25.8060  -30.8896   27.0249 H   0  0  0  0  0  0
  -26.2811  -29.6809   24.1132 H   0  0  0  0  0  0
  -27.4069  -29.7254   25.4521 H   0  0  0  0  0  0
  -27.8646  -30.4377   23.9220 H   0  0  0  0  0  0
  -27.2717  -33.3629   26.2018 H   0  0  0  0  0  0
  -28.3830  -32.6836   25.0226 H   0  0  0  0  0  0
  -28.0756  -31.8435   26.5338 H   0  0  0  0  0  0
  -28.2620  -38.0119   24.7495 H   0  0  0  0  0  0
  -28.1084  -36.2643   24.6286 H   0  0  0  0  0  0
  -27.2305  -37.1487   25.8864 H   0  0  0  0  0  0
  -20.9316  -29.8687   21.6907 H   0  0  0  0  0  0
  -26.0193  -38.2892   24.1366 H   0  0  0  0  0  0
  -29.3594  -22.3018   18.1180 H   0  0  0  0  0  0
  -29.3019  -24.6814   18.7772 H   0  0  0  0  0  0
  -27.7916  -21.1993   21.9822 H   0  0  0  0  0  0
  -27.4771  -22.7614   23.6750 H   0  0  0  0  0  0
  -26.6271  -24.1599   23.0203 H   0  0  0  0  0  0
  -28.3016  -24.3120   23.5793 H   0  0  0  0  0  0
  -28.6237  -19.9900   18.5292 H   0  0  0  0  0  0
  -27.5920  -19.6933   19.9011 H   0  0  0  0  0  0
  -29.4960  -25.9960   21.6266 H   0  0  0  0  0  0
  -27.7799  -26.0032   21.9206 H   0  0  0  0  0  0
  -30.6525  -17.3488   21.9661 H   0  0  0  0  0  0
  -31.4280  -17.1313   20.4116 H   0  0  0  0  0  0
  -28.4337  -17.6696   20.7893 H   0  0  0  0  0  0
  -29.2322  -17.4989   19.2390 H   0  0  0  0  0  0
  -29.1674  -15.3911   21.3449 H   0  0  0  0  0  0
  -30.5021  -19.4925   19.7642 H   0  0  0  0  0  0
  -29.7484  -19.6217   21.1996 H   0  0  0  0  0  0
  1 25  1  0  0  0
  1 30  2  0  0  0
  1 82  1  0  0  0
  2  3  1  0  0  0
  2 25  1  0  0  0
  2 84  1  0  0  0
  2 85  1  0  0  0
  3  4  1  0  0  0
  3 86  1  0  0  0
  3 87  1  0  0  0
  4  5  1  0  0  0
  4 88  1  0  0  0
  4 89  1  0  0  0
  5  6  1  0  0  0
  5 26  1  0  0  0
  5 90  1  0  0  0
  6 25  1  0  0  0
  6 91  1  0  0  0
  6 92  1  0  0  0
  7  8  2  0  0  0
  7 26  1  0  0  0
  7 29  1  0  0  0
  8  9  1  0  0  0
  8 22  1  0  0  0
  9 10  1  0  0  0
  9 27  2  0  0  0
 10 11  2  0  0  0
 10 15  1  0  0  0
 11 12  1  0  0  0
 11 93  1  0  0  0
 12 13  2  0  0  0
 12 94  1  0  0  0
 13 14  1  0  0  0
 13 31  1  0  0  0
 14 15  2  0  0  0
 14 95  1  0  0  0
 15 96  1  0  0  0
 16 17  2  0  0  0
 16 21  1  0  0  0
 16 31  1  0  0  0
 17 18  1  0  0  0
 17 97  1  0  0  0
 18 19  2  0  0  0
 18 98  1  0  0  0
 19 20  1  0  0  0
 19 24  1  0  0  0
 20 21  2  0  0  0
 20 99  1  0  0  0
 21 23  1  0  0  0
 22 28  1  0  0  0
 22 32  2  0  0  0
 26 27  1  0  0  0
 28100  1  0  0  0
 28101  1  0  0  0
 29102  1  0  0  0
 29103  1  0  0  0
 33 34  1  0  0  0
 33 66  1  0  0  0
 33 70  2  0  0  0
 34 36  1  0  0  0
 34 59  1  0  0  0
 34104  1  0  0  0
 35 44  2  0  0  0
 35 45  1  0  0  0
 35 68  1  0  0  0
 36 56  1  0  0  0
 36105  1  0  0  0
 37 39  1  0  0  0
 37 47  1  0  0  0
 37 66  1  0  0  0
 37106  1  0  0  0
 38 43  2  0  0  0
 38 46  1  0  0  0
 38 47  1  0  0  0
 39 64  1  0  0  0
 39 67  2  0  0  0
 40 52  1  0  0  0
 40 53  2  0  0  0
 40 58  1  0  0  0
 41107  1  0  0  0
 41108  1  0  0  0
 41109  1  0  0  0
 41 48  1  0  0  0
 42 43  1  0  0  0
 42 66  1  0  0  0
 42110  1  0  0  0
 42111  1  0  0  0
 43 44  1  0  0  0
 44112  1  0  0  0
 45 46  2  0  0  0
 45113  1  0  0  0
 46114  1  0  0  0
 47115  1  0  0  0
 47116  1  0  0  0
 48 56  1  0  0  0
 48 65  1  0  0  0
 48117  1  0  0  0
 49 50  1  0  0  0
 49 53  1  0  0  0
 49 64  1  0  0  0
 49118  1  0  0  0
 50 51  1  0  0  0
 50119  1  0  0  0
 50120  1  0  0  0
 51 52  1  0  0  0
 51121  1  0  0  0
 51122  1  0  0  0
 52123  1  0  0  0
 52124  1  0  0  0
 53 54  1  0  0  0
 54 55  2  0  0  0
 54125  1  0  0  0
 55 57  1  0  0  0
 55126  1  0  0  0
 56 69  2  0  0  0
 57 58  2  0  0  0
 57127  1  0  0  0
 58128  1  0  0  0
 59 60  1  0  0  0
 59 61  1  0  0  0
 59 62  1  0  0  0
 60129  1  0  0  0
 60130  1  0  0  0
 60131  1  0  0  0
 61132  1  0  0  0
 61133  1  0  0  0
 61134  1  0  0  0
 62135  1  0  0  0
 62136  1  0  0  0
 62137  1  0  0  0
 63 65  1  0  0  0
 63138  1  0  0  0
 63139  1  0  0  0
 63140  1  0  0  0
 64141  1  0  0  0
 65142  1  0  0  0
 68 79  1  0  0  0
 71 72  2  0  0  0
 71 74  1  0  0  0
 71143  1  0  0  0
 72 75  1  0  0  0
 72144  1  0  0  0
 73 74  2  0  0  0
 73 76  1  0  0  0
 73145  1  0  0  0
 74 78  1  0  0  0
 75 76  2  0  0  0
 75 79  1  0  0  0
 76 77  1  0  0  0
 77146  1  0  0  0
 77147  1  0  0  0
 77148  1  0  0  0
 78 83  1  0  0  0
 78149  1  0  0  0
 78150  1  0  0  0
 79151  1  0  0  0
 79152  1  0  0  0
 80 81  1  0  0  0
 80 82  1  0  0  0
 80153  1  0  0  0
 80154  1  0  0  0
 81 83  1  0  0  0
 81155  1  0  0  0
 81156  1  0  0  0
 82157  1  0  0  0
 83158  1  0  0  0
 83159  1  0  0  0
M  CHG  1  83   1
M  ISO  4   1 100  68 101  79 101  82 100
M  END
> <chiral flag>
0

> <version>
0

> <s_m_source_file>
/data/baiqing/PycharmProjects/Reinvent-master-3.2/result/LINK_invent/BTK/process_docking_weight1_custom_sum_contain_oxygen_bond_distance_aromatic_linkinvent_7_9_3/rearranged_h_0131.sdf

> <i_m_source_file_index>
96

> <r_mmod_Potential_Energy-OPLS-2005>
-144.548263549805

> <r_mmod_Stretch_Energy-OPLS-2005>
34.0746421813965

> <r_mmod_Bend_Energy-OPLS-2005>
140.502182006836

> <r_mmod_Torsional_Energy-OPLS-2005>
249.630966186523

> <r_mmod_Improper_Torsional_Energy-OPLS-2005>
4.08829307556152

> <r_mmod_Van_der_Waal_Energy-OPLS-2005>
162.043167114258

> <r_mmod_Electrostatic_Energy-OPLS-2005>
-326.664245605469

> <r_mmod_Solvation_Energy-OPLS-2005>
-484.42138671875

> <b_mmod_Minimization_Converged-OPLS-2005>
0

> <r_mmod_RMS_Derivative-OPLS-2005>
2.91202330589294

$$$$
96
                    3D
 Structure written by MMmdl.
159167  0  0  1  0            999 V2000
  -30.7118  -14.4191   20.6181 C   0  0  0  0  0  0
  -30.4259  -12.2899   19.4030 C   0  0  0  0  0  0
  -29.4944  -12.5304   18.1967 C   0  0  0  0  0  0
  -28.0147  -12.3838   18.6062 C   0  0  0  0  0  0
  -27.6678  -13.1988   19.8806 C   0  0  2  0  0  0
  -28.7071  -12.9304   20.9927 C   0  0  0  0  0  0
  -25.2627  -13.8143   20.5684 C   0  0  0  0  0  0
  -24.1857  -13.0435   20.9165 C   0  0  0  0  0  0
  -24.6391  -11.6896   20.8709 C   0  0  0  0  0  0
  -23.9045  -10.4288   21.0393 C   0  0  0  0  0  0
  -24.3601   -9.4210   21.9171 C   0  0  0  0  0  0
  -23.6284   -8.2240   22.0745 C   0  0  0  0  0  0
  -22.4267   -8.0275   21.3540 C   0  0  0  0  0  0
  -21.9888   -9.0249   20.4647 C   0  0  0  0  0  0
  -22.7210  -10.2133   20.3051 C   0  0  0  0  0  0
  -21.6853   -6.0734   22.5285 C   0  0  0  0  0  0
  -21.4015   -6.5640   23.8219 C   0  0  0  0  0  0
  -21.3659   -5.6789   24.9179 C   0  0  0  0  0  0
  -21.6043   -4.3054   24.7230 C   0  0  0  0  0  0
  -21.8819   -3.8143   23.4352 C   0  0  0  0  0  0
  -21.9194   -4.6961   22.3405 C   0  0  0  0  0  0
  -22.7885  -13.5253   21.1835 C   0  0  0  0  0  0
  -22.1660   -4.2145   21.0985 F   0  0  0  0  0  0
  -21.5624   -3.4533   25.7741 F   0  0  0  0  0  0
  -30.0483  -13.2414   20.4578 N   0  0  0  0  0  0
  -26.3052  -12.9293   20.3366 N   0  0  0  0  0  0
  -25.9313  -11.6458   20.5732 N   0  0  0  0  0  0
  -22.0512  -12.8264   22.0392 N   0  0  0  0  0  0
  -25.4397  -15.1863   20.4144 N   0  0  0  0  0  0
  -31.8007  -14.6504   20.0785 O   0  0  0  0  0  0
  -21.6634   -6.8873   21.4242 O   0  0  0  0  0  0
  -22.3576  -14.5562   20.6683 O   0  0  0  0  0  0
  -24.6090  -31.8705   23.2128 C   0  0  0  0  0  0
  -25.9001  -32.4835   23.8408 C   0  0  1  0  0  0
  -27.2524  -27.4881   20.0838 C   0  0  0  0  0  0
  -25.5877  -33.8631   24.2347 N   0  0  0  0  0  0
  -23.3951  -30.4945   21.5512 C   0  0  2  0  0  0
  -24.8455  -28.9644   20.1181 C   0  0  0  0  0  0
  -22.7380  -29.4674   22.4995 C   0  0  0  0  0  0
  -18.0273  -28.1395   22.8490 C   0  0  0  0  0  0
  -24.1487  -36.7334   23.2636 C   0  0  0  0  0  0
  -25.9159  -30.8574   21.3525 C   0  0  0  0  0  0
  -26.0014  -29.4936   20.7049 C   0  0  0  0  0  0
  -27.2087  -28.7654   20.6884 C   0  0  0  0  0  0
  -26.0753  -26.9559   19.5191 C   0  0  0  0  0  0
  -24.8739  -27.6907   19.5243 C   0  0  0  0  0  0
  -23.6026  -29.8230   20.1666 C   0  0  0  0  0  0
  -25.4098  -36.3110   24.0344 C   0  0  1  0  0  0
  -20.5858  -28.3661   23.1335 C   0  0  2  0  0  0
  -20.6760  -26.9403   22.5422 C   0  0  0  0  0  0
  -19.5750  -26.6399   21.5209 C   0  0  0  0  0  0
  -18.1923  -26.7949   22.1608 C   0  0  0  0  0  0
  -19.1521  -28.8841   23.2915 C   0  0  0  0  0  0
  -18.9453  -30.1446   23.8927 C   0  0  0  0  0  0
  -17.6457  -30.6599   24.0571 C   0  0  0  0  0  0
  -25.9012  -34.9476   23.5134 C   0  0  0  0  0  0
  -16.5346  -29.9109   23.6323 C   0  0  0  0  0  0
  -16.7263  -28.6526   23.0343 C   0  0  0  0  0  0
  -26.4465  -31.6602   25.0709 C   0  0  0  0  0  0
  -25.3772  -31.3767   26.1510 C   0  0  0  0  0  0
  -27.0225  -30.3022   24.6045 C   0  0  0  0  0  0
  -27.6098  -32.4285   25.7418 C   0  0  0  0  0  0
  -27.5587  -37.1804   24.8465 C   0  0  0  0  0  0
  -21.4115  -29.3031   22.3739 N   0  0  0  0  0  0
  -26.4294  -37.3782   23.9417 N   0  0  0  0  0  0
  -24.6586  -31.0861   22.0997 N   0  0  0  0  0  0
  -23.4180  -28.8215   23.3011 O   0  0  0  0  0  0
  -28.3811  -26.7055   20.0297 O   0  0  0  0  0  0
  -26.5567  -34.8915   22.4686 O   0  0  0  0  0  0
  -23.5296  -32.1421   23.7564 O   0  0  0  0  0  0
  -28.7576  -18.7419   21.7120 C   0  0  0  0  0  0
  -28.8755  -17.3421   21.7522 C   0  0  0  0  0  0
  -31.0031  -18.8197   20.8576 C   0  0  0  0  0  0
  -29.8360  -19.5165   21.2504 C   0  0  0  0  0  0
  -30.0637  -16.7256   21.3174 C   0  0  0  0  0  0
  -30.3156  -23.1713   20.9764 C   0  0  0  0  0  0
  -31.4671  -24.1967   20.9755 C   0  0  0  0  0  0
  -30.6817  -26.2390   19.7580 C   0  0  0  0  0  0
  -30.7843  -21.7089   20.8935 C   0  0  0  0  0  0
  -29.6420  -27.3557   19.9201 C   0  0  0  0  0  0
  -31.1116  -17.4708   20.8900 N   0  0  0  0  0  0
  -30.0515  -15.3108   21.3756 N   0  0  0  0  0  0
  -30.9637  -25.5857   21.0583 N   0  3  0  0  0  0
  -29.6666  -20.8854   21.2088 O   0  0  0  0  0  0
  -31.4710  -12.3907   19.1032 H   0  0  0  0  0  0
  -30.3212  -11.2670   19.7678 H   0  0  0  0  0  0
  -29.7319  -11.8370   17.3892 H   0  0  0  0  0  0
  -29.6632  -13.5319   17.7971 H   0  0  0  0  0  0
  -27.8196  -11.3252   18.7776 H   0  0  0  0  0  0
  -27.3654  -12.6811   17.7823 H   0  0  0  0  0  0
  -27.7261  -14.2545   19.6134 H   0  0  0  0  0  0
  -28.6744  -11.8796   21.2852 H   0  0  0  0  0  0
  -28.4571  -13.4793   21.9014 H   0  0  0  0  0  0
  -25.2754   -9.5691   22.4734 H   0  0  0  0  0  0
  -24.0003   -7.4630   22.7459 H   0  0  0  0  0  0
  -21.0814   -8.8766   19.8965 H   0  0  0  0  0  0
  -22.3659  -10.9667   19.6161 H   0  0  0  0  0  0
  -21.2007   -7.6150   23.9724 H   0  0  0  0  0  0
  -21.1480   -6.0520   25.9086 H   0  0  0  0  0  0
  -22.0598   -2.7607   23.2850 H   0  0  0  0  0  0
  -22.4105  -11.9926   22.4795 H   0  0  0  0  0  0
  -21.1138  -13.1323   22.2596 H   0  0  0  0  0  0
  -24.6801  -15.8472   20.5382 H   0  0  0  0  0  0
  -26.2981  -15.6231   20.1023 H   0  0  0  0  0  0
  -26.7075  -32.5569   23.1186 H   0  0  0  0  0  0
  -25.0055  -33.9793   25.0514 H   0  0  0  0  0  0
  -22.6810  -31.3093   21.4127 H   0  0  0  0  0  0
  -23.3738  -35.9678   23.3276 H   0  0  0  0  0  0
  -24.3600  -36.8960   22.2055 H   0  0  0  0  0  0
  -23.7246  -37.6540   23.6652 H   0  0  0  0  0  0
  -26.0086  -31.6214   20.5793 H   0  0  0  0  0  0
  -26.8107  -30.9223   21.9595 H   0  0  0  0  0  0
  -28.0849  -29.1938   21.1523 H   0  0  0  0  0  0
  -26.0946  -25.9752   19.0647 H   0  0  0  0  0  0
  -23.9814  -27.2761   19.0758 H   0  0  0  0  0  0
  -23.7047  -30.5965   19.4044 H   0  0  0  0  0  0
  -22.7287  -29.2374   19.8756 H   0  0  0  0  0  0
  -25.1274  -36.1967   25.0841 H   0  0  0  0  0  0
  -20.9960  -28.3229   24.1450 H   0  0  0  0  0  0
  -20.5660  -26.2270   23.3603 H   0  0  0  0  0  0
  -21.6634  -26.7458   22.1210 H   0  0  0  0  0  0
  -19.6909  -25.6317   21.1217 H   0  0  0  0  0  0
  -19.6712  -27.3221   20.6755 H   0  0  0  0  0  0
  -17.4203  -26.6716   21.3997 H   0  0  0  0  0  0
  -18.0320  -26.0090   22.8999 H   0  0  0  0  0  0
  -19.7931  -30.7250   24.2315 H   0  0  0  0  0  0
  -17.5019  -31.6272   24.5187 H   0  0  0  0  0  0
  -15.5347  -30.3021   23.7637 H   0  0  0  0  0  0
  -15.8666  -28.0854   22.7041 H   0  0  0  0  0  0
  -24.5892  -30.7152   25.7899 H   0  0  0  0  0  0
  -24.9038  -32.2960   26.4971 H   0  0  0  0  0  0
  -25.8162  -30.8937   27.0249 H   0  0  0  0  0  0
  -26.2695  -29.6789   24.1205 H   0  0  0  0  0  0
  -27.4090  -29.7269   25.4468 H   0  0  0  0  0  0
  -27.8507  -30.4312   23.9074 H   0  0  0  0  0  0
  -27.2801  -33.3630   26.1969 H   0  0  0  0  0  0
  -28.3909  -32.6754   25.0213 H   0  0  0  0  0  0
  -28.0748  -31.8399   26.5338 H   0  0  0  0  0  0
  -28.2618  -38.0083   24.7463 H   0  0  0  0  0  0
  -28.1060  -36.2613   24.6322 H   0  0  0  0  0  0
  -27.2318  -37.1493   25.8871 H   0  0  0  0  0  0
  -20.9266  -29.8750   21.6971 H   0  0  0  0  0  0
  -26.0190  -38.2860   24.1419 H   0  0  0  0  0  0
  -27.8412  -19.2176   22.0290 H   0  0  0  0  0  0
  -28.0358  -16.7574   22.1028 H   0  0  0  0  0  0
  -31.8763  -19.3406   20.4946 H   0  0  0  0  0  0
  -29.6286  -23.3722   20.1529 H   0  0  0  0  0  0
  -29.7377  -23.2986   21.8928 H   0  0  0  0  0  0
  -32.1125  -24.0749   20.1047 H   0  0  0  0  0  0
  -32.0946  -24.0214   21.8502 H   0  0  0  0  0  0
  -31.6122  -26.6486   19.3637 H   0  0  0  0  0  0
  -30.3227  -25.5157   19.0237 H   0  0  0  0  0  0
  -31.5932  -21.5296   21.6040 H   0  0  0  0  0  0
  -31.1550  -21.4944   19.8898 H   0  0  0  0  0  0
  -29.6424  -28.0028   19.0413 H   0  0  0  0  0  0
  -29.8737  -27.9709   20.7901 H   0  0  0  0  0  0
  -29.2372  -14.9184   21.8176 H   0  0  0  0  0  0
  -31.6473  -26.1435   21.5482 H   0  0  0  0  0  0
  -30.1254  -25.5893   21.6184 H   0  0  0  0  0  0
  1 25  1  0  0  0
  1 30  2  0  0  0
  1 82  1  0  0  0
  2  3  1  0  0  0
  2 25  1  0  0  0
  2 85  1  0  0  0
  2 86  1  0  0  0
  3  4  1  0  0  0
  3 87  1  0  0  0
  3 88  1  0  0  0
  4  5  1  0  0  0
  4 89  1  0  0  0
  4 90  1  0  0  0
  5  6  1  0  0  0
  5 26  1  0  0  0
  5 91  1  0  0  0
  6 25  1  0  0  0
  6 92  1  0  0  0
  6 93  1  0  0  0
  7  8  2  0  0  0
  7 26  1  0  0  0
  7 29  1  0  0  0
  8  9  1  0  0  0
  8 22  1  0  0  0
  9 10  1  0  0  0
  9 27  2  0  0  0
 10 11  2  0  0  0
 10 15  1  0  0  0
 11 12  1  0  0  0
 11 94  1  0  0  0
 12 13  2  0  0  0
 12 95  1  0  0  0
 13 14  1  0  0  0
 13 31  1  0  0  0
 14 15  2  0  0  0
 14 96  1  0  0  0
 15 97  1  0  0  0
 16 17  2  0  0  0
 16 21  1  0  0  0
 16 31  1  0  0  0
 17 18  1  0  0  0
 17 98  1  0  0  0
 18 19  2  0  0  0
 18 99  1  0  0  0
 19 20  1  0  0  0
 19 24  1  0  0  0
 20 21  2  0  0  0
 20100  1  0  0  0
 21 23  1  0  0  0
 22 28  1  0  0  0
 22 32  2  0  0  0
 26 27  1  0  0  0
 28101  1  0  0  0
 28102  1  0  0  0
 29103  1  0  0  0
 29104  1  0  0  0
 33 34  1  0  0  0
 33 66  1  0  0  0
 33 70  2  0  0  0
 34 36  1  0  0  0
 34 59  1  0  0  0
 34105  1  0  0  0
 35 44  2  0  0  0
 35 45  1  0  0  0
 35 68  1  0  0  0
 36 56  1  0  0  0
 36106  1  0  0  0
 37 39  1  0  0  0
 37 47  1  0  0  0
 37 66  1  0  0  0
 37107  1  0  0  0
 38 43  2  0  0  0
 38 46  1  0  0  0
 38 47  1  0  0  0
 39 64  1  0  0  0
 39 67  2  0  0  0
 40 52  1  0  0  0
 40 53  2  0  0  0
 40 58  1  0  0  0
 41108  1  0  0  0
 41109  1  0  0  0
 41110  1  0  0  0
 41 48  1  0  0  0
 42 43  1  0  0  0
 42 66  1  0  0  0
 42111  1  0  0  0
 42112  1  0  0  0
 43 44  1  0  0  0
 44113  1  0  0  0
 45 46  2  0  0  0
 45114  1  0  0  0
 46115  1  0  0  0
 47116  1  0  0  0
 47117  1  0  0  0
 48 56  1  0  0  0
 48 65  1  0  0  0
 48118  1  0  0  0
 49 50  1  0  0  0
 49 53  1  0  0  0
 49 64  1  0  0  0
 49119  1  0  0  0
 50 51  1  0  0  0
 50120  1  0  0  0
 50121  1  0  0  0
 51 52  1  0  0  0
 51122  1  0  0  0
 51123  1  0  0  0
 52124  1  0  0  0
 52125  1  0  0  0
 53 54  1  0  0  0
 54 55  2  0  0  0
 54126  1  0  0  0
 55 57  1  0  0  0
 55127  1  0  0  0
 56 69  2  0  0  0
 57 58  2  0  0  0
 57128  1  0  0  0
 58129  1  0  0  0
 59 60  1  0  0  0
 59 61  1  0  0  0
 59 62  1  0  0  0
 60130  1  0  0  0
 60131  1  0  0  0
 60132  1  0  0  0
 61133  1  0  0  0
 61134  1  0  0  0
 61135  1  0  0  0
 62136  1  0  0  0
 62137  1  0  0  0
 62138  1  0  0  0
 63 65  1  0  0  0
 63139  1  0  0  0
 63140  1  0  0  0
 63141  1  0  0  0
 64142  1  0  0  0
 65143  1  0  0  0
 68 80  1  0  0  0
 71 72  2  0  0  0
 71 74  1  0  0  0
 71144  1  0  0  0
 72 75  1  0  0  0
 72145  1  0  0  0
 73 74  2  0  0  0
 73 81  1  0  0  0
 73146  1  0  0  0
 74 84  1  0  0  0
 75 81  2  0  0  0
 75 82  1  0  0  0
 76 77  1  0  0  0
 76 79  1  0  0  0
 76147  1  0  0  0
 76148  1  0  0  0
 77 83  1  0  0  0
 77149  1  0  0  0
 77150  1  0  0  0
 78 80  1  0  0  0
 78 83  1  0  0  0
 78151  1  0  0  0
 78152  1  0  0  0
 79 84  1  0  0  0
 79153  1  0  0  0
 79154  1  0  0  0
 80155  1  0  0  0
 80156  1  0  0  0
 82157  1  0  0  0
 83158  1  0  0  0
 83159  1  0  0  0
M  CHG  1  83   1
M  ISO  4   1 100  68 101  80 101  82 100
M  END
> <chiral flag>
0

> <version>
0

> <s_m_source_file>
/data/baiqing/PycharmProjects/Reinvent-master-3.2/result/LINK_invent/BTK/process_docking_weight1_custom_sum_contain_oxygen_bond_distance_aromatic_linkinvent_7_9_3/rearranged_h_0131.sdf

> <i_m_source_file_index>
97

> <r_mmod_Potential_Energy-OPLS-2005>
-324.200805664062

> <r_mmod_Stretch_Energy-OPLS-2005>
32.5978965759277

> <r_mmod_Bend_Energy-OPLS-2005>
108.228034973145

> <r_mmod_Torsional_Energy-OPLS-2005>
219.588195800781

> <r_mmod_Improper_Torsional_Energy-OPLS-2005>
3.2741539478302

> <r_mmod_Van_der_Waal_Energy-OPLS-2005>
157.076248168945

> <r_mmod_Electrostatic_Energy-OPLS-2005>
-372.680541992188

> <r_mmod_Solvation_Energy-OPLS-2005>
-479.488983154297

> <b_mmod_Minimization_Converged-OPLS-2005>
0

> <r_mmod_RMS_Derivative-OPLS-2005>
1.44031941890717

$$$$
97
                    3D
 Structure written by MMmdl.
173182  0  0  1  0            999 V2000
  -30.6976  -14.4561   20.6081 C   0  0  0  0  0  0
  -30.4413  -12.3156   19.4016 C   0  0  0  0  0  0
  -29.4956  -12.5145   18.1980 C   0  0  0  0  0  0
  -28.0175  -12.3701   18.6127 C   0  0  0  0  0  0
  -27.6687  -13.1946   19.8796 C   0  0  2  0  0  0
  -28.7155  -12.9419   20.9906 C   0  0  0  0  0  0
  -25.2617  -13.8083   20.5647 C   0  0  0  0  0  0
  -24.1855  -13.0402   20.9169 C   0  0  0  0  0  0
  -24.6403  -11.6861   20.8728 C   0  0  0  0  0  0
  -23.9051  -10.4272   21.0405 C   0  0  0  0  0  0
  -24.3600   -9.4193   21.9195 C   0  0  0  0  0  0
  -23.6278   -8.2232   22.0768 C   0  0  0  0  0  0
  -22.4264   -8.0270   21.3544 C   0  0  0  0  0  0
  -21.9893   -9.0244   20.4649 C   0  0  0  0  0  0
  -22.7219  -10.2127   20.3055 C   0  0  0  0  0  0
  -21.6856   -6.0721   22.5273 C   0  0  0  0  0  0
  -21.4005   -6.5630   23.8210 C   0  0  0  0  0  0
  -21.3649   -5.6786   24.9167 C   0  0  0  0  0  0
  -21.6048   -4.3049   24.7228 C   0  0  0  0  0  0
  -21.8826   -3.8133   23.4340 C   0  0  0  0  0  0
  -21.9197   -4.6950   22.3399 C   0  0  0  0  0  0
  -22.7891  -13.5239   21.1819 C   0  0  0  0  0  0
  -22.1672   -4.2136   21.0972 F   0  0  0  0  0  0
  -21.5632   -3.4537   25.7738 F   0  0  0  0  0  0
  -30.0493  -13.2708   20.4462 N   0  0  0  0  0  0
  -26.3066  -12.9247   20.3375 N   0  0  0  0  0  0
  -25.9334  -11.6422   20.5773 N   0  0  0  0  0  0
  -22.0504  -12.8250   22.0355 N   0  0  0  0  0  0
  -25.4322  -15.1770   20.3987 N   0  0  0  0  0  0
  -31.7984  -14.7138   20.1146 O   0  0  0  0  0  0
  -21.6637   -6.8858   21.4238 O   0  0  0  0  0  0
  -22.3601  -14.5564   20.6675 O   0  0  0  0  0  0
  -24.6141  -31.8703   23.2125 C   0  0  0  0  0  0
  -25.9052  -32.4832   23.8430 C   0  0  1  0  0  0
  -27.2401  -27.4411   20.1078 C   0  0  0  0  0  0
  -25.5956  -33.8637   24.2371 N   0  0  0  0  0  0
  -23.4038  -30.4926   21.5494 C   0  0  2  0  0  0
  -24.8548  -28.9605   20.1155 C   0  0  0  0  0  0
  -22.7411  -29.4657   22.4962 C   0  0  0  0  0  0
  -18.0278  -28.1383   22.8453 C   0  0  0  0  0  0
  -24.1504  -36.7298   23.2641 C   0  0  0  0  0  0
  -25.9306  -30.8377   21.3663 C   0  0  0  0  0  0
  -26.0125  -29.4711   20.7172 C   0  0  0  0  0  0
  -27.2102  -28.7190   20.7129 C   0  0  0  0  0  0
  -26.0709  -26.9465   19.4934 C   0  0  0  0  0  0
  -24.8779  -27.6942   19.5034 C   0  0  0  0  0  0
  -23.6168  -29.8290   20.1627 C   0  0  0  0  0  0
  -25.4124  -36.3110   24.0350 C   0  0  1  0  0  0
  -20.5867  -28.3674   23.1318 C   0  0  2  0  0  0
  -20.6787  -26.9410   22.5422 C   0  0  0  0  0  0
  -19.5780  -26.6376   21.5206 C   0  0  0  0  0  0
  -18.1935  -26.7925   22.1592 C   0  0  0  0  0  0
  -19.1525  -28.8833   23.2883 C   0  0  0  0  0  0
  -18.9466  -30.1426   23.8913 C   0  0  0  0  0  0
  -17.6479  -30.6579   24.0558 C   0  0  0  0  0  0
  -25.9052  -34.9480   23.5142 C   0  0  0  0  0  0
  -16.5361  -29.9087   23.6329 C   0  0  0  0  0  0
  -16.7273  -28.6516   23.0325 C   0  0  0  0  0  0
  -26.4493  -31.6614   25.0744 C   0  0  0  0  0  0
  -25.3761  -31.3743   26.1500 C   0  0  0  0  0  0
  -27.0366  -30.3085   24.6091 C   0  0  0  0  0  0
  -27.6075  -32.4333   25.7505 C   0  0  0  0  0  0
  -27.5593  -37.1790   24.8457 C   0  0  0  0  0  0
  -21.4136  -29.3049   22.3732 N   0  0  0  0  0  0
  -26.4304  -37.3792   23.9412 N   0  0  0  0  0  0
  -24.6668  -31.0820   22.1019 N   0  0  0  0  0  0
  -23.4176  -28.8181   23.2978 O   0  0  0  0  0  0
  -28.3881  -26.6805   20.0743 O   0  0  0  0  0  0
  -26.5552  -34.8916   22.4664 O   0  0  0  0  0  0
  -23.5335  -32.1473   23.7517 O   0  0  0  0  0  0
  -27.8454  -17.5295   19.1807 C   0  0  0  0  0  0
  -27.5343  -24.6611   21.2546 C   0  0  0  0  0  0
  -29.2845  -17.1266   18.9382 C   0  0  0  0  0  0
  -28.0536  -23.4894   22.1128 C   0  0  0  0  0  0
  -28.0064  -18.9579   19.6802 C   0  0  0  0  0  0
  -30.0275  -25.2289   21.1989 C   0  0  0  0  0  0
  -28.5809  -25.8004   21.1952 C   0  0  1  0  0  0
  -30.0341  -17.7504   20.1336 C   0  0  2  0  0  0
  -29.3346  -22.8161   21.5190 C   0  0  1  0  0  0
  -31.1479  -20.3145   21.4993 C   0  0  0  0  0  0
  -30.1637  -16.8366   21.4036 C   0  0  0  0  0  0
  -28.9856  -21.5531   20.6489 C   0  0  2  0  0  0
  -29.9902  -20.3291   20.4734 C   0  0  2  0  0  0
  -29.9573  -15.3902   21.2260 N   0  0  0  0  0  0
  -30.1168  -23.8142   20.7341 N   0  3  0  0  0  0
  -29.2668  -19.0005   20.4772 N   0  3  1  0  0  0
  -28.6008  -22.0586   19.3696 O   0  0  0  0  0  0
  -31.4801  -12.4460   19.0903 H   0  0  0  0  0  0
  -30.3721  -11.2966   19.7851 H   0  0  0  0  0  0
  -29.7338  -11.7969   17.4119 H   0  0  0  0  0  0
  -29.6559  -13.5031   17.7647 H   0  0  0  0  0  0
  -27.8220  -11.3120   18.7915 H   0  0  0  0  0  0
  -27.3682  -12.6607   17.7848 H   0  0  0  0  0  0
  -27.7203  -14.2472   19.6006 H   0  0  0  0  0  0
  -28.7001  -11.8928   21.2904 H   0  0  0  0  0  0
  -28.4710  -13.4987   21.8974 H   0  0  0  0  0  0
  -25.2748   -9.5685   22.4765 H   0  0  0  0  0  0
  -23.9993   -7.4629   22.7489 H   0  0  0  0  0  0
  -21.0829   -8.8755   19.8948 H   0  0  0  0  0  0
  -22.3680  -10.9667   19.6158 H   0  0  0  0  0  0
  -21.1993   -7.6140   23.9701 H   0  0  0  0  0  0
  -21.1463   -6.0517   25.9073 H   0  0  0  0  0  0
  -22.0609   -2.7599   23.2853 H   0  0  0  0  0  0
  -22.4109  -11.9914   22.4761 H   0  0  0  0  0  0
  -21.1129  -13.1285   22.2531 H   0  0  0  0  0  0
  -24.6622  -15.8302   20.4832 H   0  0  0  0  0  0
  -26.2651  -15.5881   20.0003 H   0  0  0  0  0  0
  -26.7115  -32.5580   23.1198 H   0  0  0  0  0  0
  -25.0254  -33.9835   25.0608 H   0  0  0  0  0  0
  -22.6928  -31.3097   21.4098 H   0  0  0  0  0  0
  -23.3781  -35.9614   23.3297 H   0  0  0  0  0  0
  -24.3614  -36.8912   22.2057 H   0  0  0  0  0  0
  -23.7232  -37.6498   23.6645 H   0  0  0  0  0  0
  -26.0438  -31.6018   20.5974 H   0  0  0  0  0  0
  -26.8177  -30.8937   21.9854 H   0  0  0  0  0  0
  -28.1059  -29.1121   21.1748 H   0  0  0  0  0  0
  -26.0849  -25.9785   19.0120 H   0  0  0  0  0  0
  -23.9888  -27.2956   19.0345 H   0  0  0  0  0  0
  -23.7304  -30.6116   19.4106 H   0  0  0  0  0  0
  -22.7404  -29.2544   19.8588 H   0  0  0  0  0  0
  -25.1289  -36.1977   25.0841 H   0  0  0  0  0  0
  -20.9965  -28.3238   24.1438 H   0  0  0  0  0  0
  -20.5731  -26.2277   23.3613 H   0  0  0  0  0  0
  -21.6654  -26.7468   22.1194 H   0  0  0  0  0  0
  -19.6973  -25.6282   21.1255 H   0  0  0  0  0  0
  -19.6759  -27.3176   20.6730 H   0  0  0  0  0  0
  -17.4236  -26.6693   21.3955 H   0  0  0  0  0  0
  -18.0286  -26.0057   22.8982 H   0  0  0  0  0  0
  -19.7948  -30.7205   24.2320 H   0  0  0  0  0  0
  -17.5043  -31.6263   24.5150 H   0  0  0  0  0  0
  -15.5374  -30.3001   23.7640 H   0  0  0  0  0  0
  -15.8670  -28.0853   22.7028 H   0  0  0  0  0  0
  -24.5965  -30.7041   25.7865 H   0  0  0  0  0  0
  -24.8919  -32.2915   26.4868 H   0  0  0  0  0  0
  -25.8120  -30.9007   27.0306 H   0  0  0  0  0  0
  -26.2926  -29.6807   24.1181 H   0  0  0  0  0  0
  -27.4250  -29.7348   25.4516 H   0  0  0  0  0  0
  -27.8692  -30.4478   23.9192 H   0  0  0  0  0  0
  -27.2723  -33.3650   26.2066 H   0  0  0  0  0  0
  -28.3897  -32.6861   25.0338 H   0  0  0  0  0  0
  -28.0722  -31.8473   26.5442 H   0  0  0  0  0  0
  -28.2567  -38.0122   24.7538 H   0  0  0  0  0  0
  -28.1133  -36.2659   24.6233 H   0  0  0  0  0  0
  -27.2322  -37.1361   25.8859 H   0  0  0  0  0  0
  -20.9281  -29.8849   21.7034 H   0  0  0  0  0  0
  -26.0206  -38.2872   24.1429 H   0  0  0  0  0  0
  -27.4142  -16.9070   19.9620 H   0  0  0  0  0  0
  -27.2194  -17.4530   18.2903 H   0  0  0  0  0  0
  -26.5917  -25.0412   21.6501 H   0  0  0  0  0  0
  -27.3167  -24.2984   20.2499 H   0  0  0  0  0  0
  -29.6335  -17.5937   18.0150 H   0  0  0  0  0  0
  -29.4076  -16.0569   18.7946 H   0  0  0  0  0  0
  -27.2573  -22.7647   22.2824 H   0  0  0  0  0  0
  -28.2852  -23.8789   23.1050 H   0  0  0  0  0  0
  -27.1376  -19.2723   20.2606 H   0  0  0  0  0  0
  -28.0754  -19.6071   18.8069 H   0  0  0  0  0  0
  -30.4168  -25.2638   22.2170 H   0  0  0  0  0  0
  -30.6903  -25.8585   20.6042 H   0  0  0  0  0  0
  -28.4792  -26.4027   22.0996 H   0  0  0  0  0  0
  -31.0409  -17.9954   19.7892 H   0  0  0  0  0  0
  -29.9251  -22.5047   22.3815 H   0  0  0  0  0  0
  -31.6661  -21.2721   21.5451 H   0  0  0  0  0  0
  -31.9129  -19.5867   21.2304 H   0  0  0  0  0  0
  -30.8079  -20.0721   22.5062 H   0  0  0  0  0  0
  -29.4232  -17.1362   22.1461 H   0  0  0  0  0  0
  -31.1302  -17.0067   21.8808 H   0  0  0  0  0  0
  -28.0940  -21.1400   21.1153 H   0  0  0  0  0  0
  -30.4686  -20.4271   19.4966 H   0  0  0  0  0  0
  -29.0920  -15.0306   21.6015 H   0  0  0  0  0  0
  -31.0814  -23.5262   20.6885 H   0  0  0  0  0  0
  -29.7380  -23.7586   19.7976 H   0  0  0  0  0  0
  -28.9685  -18.8529   21.4305 H   0  0  0  0  0  0
  -29.1160  -21.6305   18.6917 H   0  0  0  0  0  0
  1 25  1  0  0  0
  1 30  2  0  0  0
  1 84  1  0  0  0
  2  3  1  0  0  0
  2 25  1  0  0  0
  2 88  1  0  0  0
  2 89  1  0  0  0
  3  4  1  0  0  0
  3 90  1  0  0  0
  3 91  1  0  0  0
  4  5  1  0  0  0
  4 92  1  0  0  0
  4 93  1  0  0  0
  5  6  1  0  0  0
  5 26  1  0  0  0
  5 94  1  0  0  0
  6 25  1  0  0  0
  6 95  1  0  0  0
  6 96  1  0  0  0
  7  8  2  0  0  0
  7 26  1  0  0  0
  7 29  1  0  0  0
  8  9  1  0  0  0
  8 22  1  0  0  0
  9 10  1  0  0  0
  9 27  2  0  0  0
 10 11  2  0  0  0
 10 15  1  0  0  0
 11 12  1  0  0  0
 11 97  1  0  0  0
 12 13  2  0  0  0
 12 98  1  0  0  0
 13 14  1  0  0  0
 13 31  1  0  0  0
 14 15  2  0  0  0
 14 99  1  0  0  0
 15100  1  0  0  0
 16 17  2  0  0  0
 16 21  1  0  0  0
 16 31  1  0  0  0
 17 18  1  0  0  0
 17101  1  0  0  0
 18 19  2  0  0  0
 18102  1  0  0  0
 19 20  1  0  0  0
 19 24  1  0  0  0
 20 21  2  0  0  0
 20103  1  0  0  0
 21 23  1  0  0  0
 22 28  1  0  0  0
 22 32  2  0  0  0
 26 27  1  0  0  0
 28104  1  0  0  0
 28105  1  0  0  0
 29106  1  0  0  0
 29107  1  0  0  0
 33 34  1  0  0  0
 33 66  1  0  0  0
 33 70  2  0  0  0
 34 36  1  0  0  0
 34 59  1  0  0  0
 34108  1  0  0  0
 35 44  2  0  0  0
 35 45  1  0  0  0
 35 68  1  0  0  0
 36 56  1  0  0  0
 36109  1  0  0  0
 37 39  1  0  0  0
 37 47  1  0  0  0
 37 66  1  0  0  0
 37110  1  0  0  0
 38 43  2  0  0  0
 38 46  1  0  0  0
 38 47  1  0  0  0
 39 64  1  0  0  0
 39 67  2  0  0  0
 40 52  1  0  0  0
 40 53  2  0  0  0
 40 58  1  0  0  0
 41111  1  0  0  0
 41112  1  0  0  0
 41113  1  0  0  0
 41 48  1  0  0  0
 42 43  1  0  0  0
 42 66  1  0  0  0
 42114  1  0  0  0
 42115  1  0  0  0
 43 44  1  0  0  0
 44116  1  0  0  0
 45 46  2  0  0  0
 45117  1  0  0  0
 46118  1  0  0  0
 47119  1  0  0  0
 47120  1  0  0  0
 48 56  1  0  0  0
 48 65  1  0  0  0
 48121  1  0  0  0
 49 50  1  0  0  0
 49 53  1  0  0  0
 49 64  1  0  0  0
 49122  1  0  0  0
 50 51  1  0  0  0
 50123  1  0  0  0
 50124  1  0  0  0
 51 52  1  0  0  0
 51125  1  0  0  0
 51126  1  0  0  0
 52127  1  0  0  0
 52128  1  0  0  0
 53 54  1  0  0  0
 54 55  2  0  0  0
 54129  1  0  0  0
 55 57  1  0  0  0
 55130  1  0  0  0
 56 69  2  0  0  0
 57 58  2  0  0  0
 57131  1  0  0  0
 58132  1  0  0  0
 59 60  1  0  0  0
 59 61  1  0  0  0
 59 62  1  0  0  0
 60133  1  0  0  0
 60134  1  0  0  0
 60135  1  0  0  0
 61136  1  0  0  0
 61137  1  0  0  0
 61138  1  0  0  0
 62139  1  0  0  0
 62140  1  0  0  0
 62141  1  0  0  0
 63 65  1  0  0  0
 63142  1  0  0  0
 63143  1  0  0  0
 63144  1  0  0  0
 64145  1  0  0  0
 65146  1  0  0  0
 68 77  1  0  0  0
 71 73  1  0  0  0
 71 75  1  0  0  0
 71147  1  0  0  0
 71148  1  0  0  0
 72 74  1  0  0  0
 72 77  1  0  0  0
 72149  1  0  0  0
 72150  1  0  0  0
 73 78  1  0  0  0
 73151  1  0  0  0
 73152  1  0  0  0
 74153  1  0  0  0
 74154  1  0  0  0
 74 79  1  0  0  0
 75155  1  0  0  0
 75156  1  0  0  0
 75 86  1  0  0  0
 76 77  1  0  0  0
 76 85  1  0  0  0
 76157  1  0  0  0
 76158  1  0  0  0
 77159  1  0  0  0
 78 81  1  0  0  0
 78 86  1  0  0  0
 78160  1  0  0  0
 79 82  1  0  0  0
 79 85  1  0  0  0
 79161  1  0  0  0
 80162  1  0  0  0
 80163  1  0  0  0
 80164  1  0  0  0
 80 83  1  0  0  0
 81 84  1  0  0  0
 81165  1  0  0  0
 81166  1  0  0  0
 82 83  1  0  0  0
 82 87  1  0  0  0
 82167  1  0  0  0
 83 86  1  0  0  0
 83168  1  0  0  0
 84169  1  0  0  0
 85170  1  0  0  0
 85171  1  0  0  0
 86172  1  0  0  0
 87173  1  0  0  0
M  CHG  2  85   1  86   1
M  ISO  4   1 100  68 101  77 101  84 100
M  END
> <chiral flag>
0

> <version>
0

> <s_m_source_file>
/data/baiqing/PycharmProjects/Reinvent-master-3.2/result/LINK_invent/BTK/process_docking_weight1_custom_sum_contain_oxygen_bond_distance_aromatic_linkinvent_7_9_3/rearranged_h_0131.sdf

> <i_m_source_file_index>
98

> <r_mmod_Potential_Energy-OPLS-2005>
-132.372955322266

> <r_mmod_Stretch_Energy-OPLS-2005>
51.1026840209961

> <r_mmod_Bend_Energy-OPLS-2005>
150.799179077148

> <r_mmod_Torsional_Energy-OPLS-2005>
413.717254638672

> <r_mmod_Improper_Torsional_Energy-OPLS-2005>
3.75750589370728

> <r_mmod_Van_der_Waal_Energy-OPLS-2005>
144.329879760742

> <r_mmod_Electrostatic_Energy-OPLS-2005>
36.4185333251953

> <r_mmod_Solvation_Energy-OPLS-2005>
-943.274780273438

> <b_mmod_Minimization_Converged-OPLS-2005>
0

> <r_mmod_RMS_Derivative-OPLS-2005>
2.98822045326233

$$$$
98
                    3D
 Structure written by MMmdl.
168176  0  0  1  0            999 V2000
  -30.6592  -14.3618   20.6185 C   0  0  0  0  0  0
  -30.4086  -12.2497   19.3940 C   0  0  0  0  0  0
  -29.4800  -12.5198   18.1915 C   0  0  0  0  0  0
  -27.9956  -12.4016   18.5920 C   0  0  0  0  0  0
  -27.6616  -13.1838   19.8915 C   0  0  2  0  0  0
  -28.6896  -12.8552   20.9974 C   0  0  0  0  0  0
  -25.2554  -13.8127   20.5663 C   0  0  0  0  0  0
  -24.1800  -13.0424   20.9151 C   0  0  0  0  0  0
  -24.6326  -11.6876   20.8703 C   0  0  0  0  0  0
  -23.8993  -10.4280   21.0408 C   0  0  0  0  0  0
  -24.3583   -9.4209   21.9204 C   0  0  0  0  0  0
  -23.6276   -8.2235   22.0771 C   0  0  0  0  0  0
  -22.4254   -8.0260   21.3552 C   0  0  0  0  0  0
  -21.9875   -9.0220   20.4650 C   0  0  0  0  0  0
  -22.7175  -10.2124   20.3062 C   0  0  0  0  0  0
  -21.6837   -6.0731   22.5282 C   0  0  0  0  0  0
  -21.4010   -6.5639   23.8217 C   0  0  0  0  0  0
  -21.3648   -5.6802   24.9189 C   0  0  0  0  0  0
  -21.6032   -4.3062   24.7231 C   0  0  0  0  0  0
  -21.8814   -3.8146   23.4348 C   0  0  0  0  0  0
  -21.9188   -4.6955   22.3405 C   0  0  0  0  0  0
  -22.7823  -13.5233   21.1865 C   0  0  0  0  0  0
  -22.1655   -4.2152   21.0983 F   0  0  0  0  0  0
  -21.5639   -3.4550   25.7749 F   0  0  0  0  0  0
  -30.0313  -13.1711   20.4723 N   0  0  0  0  0  0
  -26.2984  -12.9248   20.3402 N   0  0  0  0  0  0
  -25.9244  -11.6431   20.5762 N   0  0  0  0  0  0
  -22.0449  -12.8212   22.0401 N   0  0  0  0  0  0
  -25.4304  -15.1854   20.4118 N   0  0  0  0  0  0
  -31.7392  -14.6432   20.0878 O   0  0  0  0  0  0
  -21.6621   -6.8855   21.4242 O   0  0  0  0  0  0
  -22.3509  -14.5555   20.6757 O   0  0  0  0  0  0
  -24.6068  -31.8718   23.2102 C   0  0  0  0  0  0
  -25.8972  -32.4848   23.8397 C   0  0  1  0  0  0
  -27.2691  -27.4907   20.1175 C   0  0  0  0  0  0
  -25.5857  -33.8641   24.2340 N   0  0  0  0  0  0
  -23.3931  -30.4902   21.5474 C   0  0  2  0  0  0
  -24.8491  -28.9557   20.1193 C   0  0  0  0  0  0
  -22.7362  -29.4663   22.4998 C   0  0  0  0  0  0
  -18.0270  -28.1370   22.8499 C   0  0  0  0  0  0
  -24.1487  -36.7330   23.2632 C   0  0  0  0  0  0
  -25.9092  -30.8612   21.3476 C   0  0  0  0  0  0
  -25.9963  -29.4941   20.7102 C   0  0  0  0  0  0
  -27.2032  -28.7738   20.7098 C   0  0  0  0  0  0
  -26.1053  -26.9599   19.5191 C   0  0  0  0  0  0
  -24.8944  -27.6835   19.5208 C   0  0  0  0  0  0
  -23.6018  -29.8098   20.1652 C   0  0  0  0  0  0
  -25.4099  -36.3127   24.0350 C   0  0  1  0  0  0
  -20.5859  -28.3651   23.1346 C   0  0  2  0  0  0
  -20.6760  -26.9395   22.5427 C   0  0  0  0  0  0
  -19.5742  -26.6391   21.5217 C   0  0  0  0  0  0
  -18.1919  -26.7923   22.1615 C   0  0  0  0  0  0
  -19.1515  -28.8828   23.2926 C   0  0  0  0  0  0
  -18.9446  -30.1442   23.8926 C   0  0  0  0  0  0
  -17.6445  -30.6588   24.0581 C   0  0  0  0  0  0
  -25.9031  -34.9493   23.5145 C   0  0  0  0  0  0
  -16.5347  -29.9092   23.6323 C   0  0  0  0  0  0
  -16.7259  -28.6511   23.0348 C   0  0  0  0  0  0
  -26.4446  -31.6597   25.0679 C   0  0  0  0  0  0
  -25.3762  -31.3652   26.1457 C   0  0  0  0  0  0
  -27.0268  -30.3064   24.5969 C   0  0  0  0  0  0
  -27.6040  -32.4283   25.7448 C   0  0  0  0  0  0
  -27.5607  -37.1789   24.8443 C   0  0  0  0  0  0
  -21.4097  -29.3021   22.3744 N   0  0  0  0  0  0
  -26.4284  -37.3823   23.9441 N   0  0  0  0  0  0
  -24.6536  -31.0880   22.0955 N   0  0  0  0  0  0
  -23.4161  -28.8222   23.3029 O   0  0  0  0  0  0
  -28.4144  -26.7232   20.0973 O   0  0  0  0  0  0
  -26.5598  -34.8942   22.4714 O   0  0  0  0  0  0
  -23.5274  -32.1416   23.7554 O   0  0  0  0  0  0
  -32.4808  -22.0405   20.8717 C   0  0  0  0  0  0
  -30.1354  -21.0558   21.0724 C   0  0  0  0  0  0
  -31.9588  -23.3565   21.4674 C   0  0  0  0  0  0
  -29.6698  -22.3613   21.7368 C   0  0  0  0  0  0
  -31.6559  -20.7960   21.2706 C   0  0  1  0  0  0
  -30.4590  -23.5461   21.1590 C   0  0  1  0  0  0
  -30.9885  -17.5347   21.1582 C   0  0  0  0  0  0
  -29.8013  -16.6550   20.7433 C   0  0  0  0  0  0
  -31.2733  -18.5744   20.0684 C   0  0  0  0  0  0
  -30.5314  -26.0236   20.9960 C   0  0  0  0  0  0
  -29.5144  -27.1590   20.9025 C   0  0  0  0  0  0
  -29.8944  -15.2858   21.2180 N   0  0  0  0  0  0
  -32.1979  -19.6376   20.5114 N   0  3  0  0  0  0
  -29.9381  -24.8368   21.6532 N   0  3  0  0  0  0
  -31.4556  -12.3570   19.1009 H   0  0  0  0  0  0
  -30.2942  -11.2177   19.7275 H   0  0  0  0  0  0
  -29.7019  -11.8258   17.3801 H   0  0  0  0  0  0
  -29.6723  -13.5196   17.7991 H   0  0  0  0  0  0
  -27.7617  -11.3450   18.7219 H   0  0  0  0  0  0
  -27.3625  -12.7510   17.7748 H   0  0  0  0  0  0
  -27.7356  -14.2460   19.6601 H   0  0  0  0  0  0
  -28.6424  -11.7945   21.2473 H   0  0  0  0  0  0
  -28.4507  -13.3715   21.9285 H   0  0  0  0  0  0
  -25.2738   -9.5714   22.4753 H   0  0  0  0  0  0
  -23.9999   -7.4637   22.7495 H   0  0  0  0  0  0
  -21.0813   -8.8710   19.8942 H   0  0  0  0  0  0
  -22.3619  -10.9659   19.6161 H   0  0  0  0  0  0
  -21.1985   -7.6147   23.9713 H   0  0  0  0  0  0
  -21.1486   -6.0548   25.9093 H   0  0  0  0  0  0
  -22.0591   -2.7609   23.2864 H   0  0  0  0  0  0
  -22.4061  -11.9842   22.4751 H   0  0  0  0  0  0
  -21.1079  -13.1261   22.2659 H   0  0  0  0  0  0
  -24.6630  -15.8386   20.5317 H   0  0  0  0  0  0
  -26.2926  -15.6356   20.1313 H   0  0  0  0  0  0
  -26.7047  -32.5622   23.1179 H   0  0  0  0  0  0
  -25.0012  -33.9801   25.0491 H   0  0  0  0  0  0
  -22.6776  -31.3029   21.4021 H   0  0  0  0  0  0
  -23.3768  -35.9634   23.3231 H   0  0  0  0  0  0
  -24.3605  -36.9001   22.2061 H   0  0  0  0  0  0
  -23.7195  -37.6498   23.6682 H   0  0  0  0  0  0
  -25.9952  -31.6193   20.5673 H   0  0  0  0  0  0
  -26.8054  -30.9374   21.9506 H   0  0  0  0  0  0
  -28.0681  -29.2324   21.1645 H   0  0  0  0  0  0
  -26.1365  -25.9825   19.0614 H   0  0  0  0  0  0
  -24.0102  -27.2566   19.0671 H   0  0  0  0  0  0
  -23.7012  -30.5769   19.3956 H   0  0  0  0  0  0
  -22.7312  -29.2168   19.8776 H   0  0  0  0  0  0
  -25.1262  -36.1993   25.0836 H   0  0  0  0  0  0
  -20.9961  -28.3223   24.1465 H   0  0  0  0  0  0
  -20.5686  -26.2251   23.3611 H   0  0  0  0  0  0
  -21.6635  -26.7447   22.1224 H   0  0  0  0  0  0
  -19.6911  -25.6309   21.1231 H   0  0  0  0  0  0
  -19.6702  -27.3221   20.6773 H   0  0  0  0  0  0
  -17.4206  -26.6713   21.3998 H   0  0  0  0  0  0
  -18.0285  -26.0049   22.8986 H   0  0  0  0  0  0
  -19.7925  -30.7258   24.2298 H   0  0  0  0  0  0
  -17.5007  -31.6262   24.5181 H   0  0  0  0  0  0
  -15.5348  -30.3013   23.7616 H   0  0  0  0  0  0
  -15.8659  -28.0848   22.7028 H   0  0  0  0  0  0
  -24.5913  -30.7023   25.7791 H   0  0  0  0  0  0
  -24.8993  -32.2799   26.4987 H   0  0  0  0  0  0
  -25.8171  -30.8758   27.0154 H   0  0  0  0  0  0
  -26.2767  -29.6809   24.1112 H   0  0  0  0  0  0
  -27.4174  -29.7292   25.4361 H   0  0  0  0  0  0
  -27.8535  -30.4414   23.8989 H   0  0  0  0  0  0
  -27.2669  -33.3549   26.2105 H   0  0  0  0  0  0
  -28.3826  -32.6890   25.0265 H   0  0  0  0  0  0
  -28.0732  -31.8351   26.5303 H   0  0  0  0  0  0
  -28.2530  -38.0186   24.7648 H   0  0  0  0  0  0
  -28.1204  -36.2729   24.6066 H   0  0  0  0  0  0
  -27.2357  -37.1193   25.8845 H   0  0  0  0  0  0
  -20.9243  -29.8744   21.6982 H   0  0  0  0  0  0
  -26.0175  -38.2873   24.1536 H   0  0  0  0  0  0
  -33.5242  -21.9076   21.1625 H   0  0  0  0  0  0
  -32.4772  -22.1371   19.7845 H   0  0  0  0  0  0
  -29.8996  -21.1190   20.0097 H   0  0  0  0  0  0
  -29.5506  -20.2294   21.4803 H   0  0  0  0  0  0
  -32.5449  -24.1769   21.0496 H   0  0  0  0  0  0
  -32.1318  -23.3730   22.5443 H   0  0  0  0  0  0
  -29.8019  -22.3027   22.8183 H   0  0  0  0  0  0
  -28.6014  -22.4943   21.5629 H   0  0  0  0  0  0
  -31.8119  -20.5866   22.3304 H   0  0  0  0  0  0
  -30.3169  -23.5390   20.0764 H   0  0  0  0  0  0
  -31.8897  -16.9386   21.2951 H   0  0  0  0  0  0
  -30.7805  -17.9986   22.1231 H   0  0  0  0  0  0
  -29.7059  -16.6165   19.6555 H   0  0  0  0  0  0
  -28.8660  -17.0905   21.0996 H   0  0  0  0  0  0
  -30.3541  -18.9728   19.6404 H   0  0  0  0  0  0
  -31.7475  -18.0589   19.2321 H   0  0  0  0  0  0
  -31.4055  -26.3452   21.5640 H   0  0  0  0  0  0
  -30.8787  -25.7860   19.9908 H   0  0  0  0  0  0
  -29.9869  -28.0284   20.4434 H   0  0  0  0  0  0
  -29.1986  -27.4385   21.9098 H   0  0  0  0  0  0
  -29.0613  -14.9184   21.6537 H   0  0  0  0  0  0
  -32.9491  -19.2184   21.0360 H   0  0  0  0  0  0
  -32.6121  -20.0089   19.6717 H   0  0  0  0  0  0
  -30.0402  -24.9027   22.6544 H   0  0  0  0  0  0
  -28.9487  -24.8571   21.4508 H   0  0  0  0  0  0
  1 25  1  0  0  0
  1 30  2  0  0  0
  1 82  1  0  0  0
  2  3  1  0  0  0
  2 25  1  0  0  0
  2 85  1  0  0  0
  2 86  1  0  0  0
  3  4  1  0  0  0
  3 87  1  0  0  0
  3 88  1  0  0  0
  4  5  1  0  0  0
  4 89  1  0  0  0
  4 90  1  0  0  0
  5  6  1  0  0  0
  5 26  1  0  0  0
  5 91  1  0  0  0
  6 25  1  0  0  0
  6 92  1  0  0  0
  6 93  1  0  0  0
  7  8  2  0  0  0
  7 26  1  0  0  0
  7 29  1  0  0  0
  8  9  1  0  0  0
  8 22  1  0  0  0
  9 10  1  0  0  0
  9 27  2  0  0  0
 10 11  2  0  0  0
 10 15  1  0  0  0
 11 12  1  0  0  0
 11 94  1  0  0  0
 12 13  2  0  0  0
 12 95  1  0  0  0
 13 14  1  0  0  0
 13 31  1  0  0  0
 14 15  2  0  0  0
 14 96  1  0  0  0
 15 97  1  0  0  0
 16 17  2  0  0  0
 16 21  1  0  0  0
 16 31  1  0  0  0
 17 18  1  0  0  0
 17 98  1  0  0  0
 18 19  2  0  0  0
 18 99  1  0  0  0
 19 20  1  0  0  0
 19 24  1  0  0  0
 20 21  2  0  0  0
 20100  1  0  0  0
 21 23  1  0  0  0
 22 28  1  0  0  0
 22 32  2  0  0  0
 26 27  1  0  0  0
 28101  1  0  0  0
 28102  1  0  0  0
 29103  1  0  0  0
 29104  1  0  0  0
 33 34  1  0  0  0
 33 66  1  0  0  0
 33 70  2  0  0  0
 34 36  1  0  0  0
 34 59  1  0  0  0
 34105  1  0  0  0
 35 44  2  0  0  0
 35 45  1  0  0  0
 35 68  1  0  0  0
 36 56  1  0  0  0
 36106  1  0  0  0
 37 39  1  0  0  0
 37 47  1  0  0  0
 37 66  1  0  0  0
 37107  1  0  0  0
 38 43  2  0  0  0
 38 46  1  0  0  0
 38 47  1  0  0  0
 39 64  1  0  0  0
 39 67  2  0  0  0
 40 52  1  0  0  0
 40 53  2  0  0  0
 40 58  1  0  0  0
 41108  1  0  0  0
 41109  1  0  0  0
 41110  1  0  0  0
 41 48  1  0  0  0
 42 43  1  0  0  0
 42 66  1  0  0  0
 42111  1  0  0  0
 42112  1  0  0  0
 43 44  1  0  0  0
 44113  1  0  0  0
 45 46  2  0  0  0
 45114  1  0  0  0
 46115  1  0  0  0
 47116  1  0  0  0
 47117  1  0  0  0
 48 56  1  0  0  0
 48 65  1  0  0  0
 48118  1  0  0  0
 49 50  1  0  0  0
 49 53  1  0  0  0
 49 64  1  0  0  0
 49119  1  0  0  0
 50 51  1  0  0  0
 50120  1  0  0  0
 50121  1  0  0  0
 51 52  1  0  0  0
 51122  1  0  0  0
 51123  1  0  0  0
 52124  1  0  0  0
 52125  1  0  0  0
 53 54  1  0  0  0
 54 55  2  0  0  0
 54126  1  0  0  0
 55 57  1  0  0  0
 55127  1  0  0  0
 56 69  2  0  0  0
 57 58  2  0  0  0
 57128  1  0  0  0
 58129  1  0  0  0
 59 60  1  0  0  0
 59 61  1  0  0  0
 59 62  1  0  0  0
 60130  1  0  0  0
 60131  1  0  0  0
 60132  1  0  0  0
 61133  1  0  0  0
 61134  1  0  0  0
 61135  1  0  0  0
 62136  1  0  0  0
 62137  1  0  0  0
 62138  1  0  0  0
 63 65  1  0  0  0
 63139  1  0  0  0
 63140  1  0  0  0
 63141  1  0  0  0
 64142  1  0  0  0
 65143  1  0  0  0
 68 81  1  0  0  0
 71 73  1  0  0  0
 71 75  1  0  0  0
 71144  1  0  0  0
 71145  1  0  0  0
 72 74  1  0  0  0
 72 75  1  0  0  0
 72146  1  0  0  0
 72147  1  0  0  0
 73 76  1  0  0  0
 73148  1  0  0  0
 73149  1  0  0  0
 74 76  1  0  0  0
 74150  1  0  0  0
 74151  1  0  0  0
 75 83  1  0  0  0
 75152  1  0  0  0
 76 84  1  0  0  0
 76153  1  0  0  0
 77 78  1  0  0  0
 77 79  1  0  0  0
 77154  1  0  0  0
 77155  1  0  0  0
 78 82  1  0  0  0
 78156  1  0  0  0
 78157  1  0  0  0
 79 83  1  0  0  0
 79158  1  0  0  0
 79159  1  0  0  0
 80 81  1  0  0  0
 80 84  1  0  0  0
 80160  1  0  0  0
 80161  1  0  0  0
 81162  1  0  0  0
 81163  1  0  0  0
 82164  1  0  0  0
 83165  1  0  0  0
 83166  1  0  0  0
 84167  1  0  0  0
 84168  1  0  0  0
M  CHG  2  83   1  84   1
M  ISO  4   1 100  68 101  81 101  82 100
M  END
> <chiral flag>
0

> <version>
0

> <s_m_source_file>
/data/baiqing/PycharmProjects/Reinvent-master-3.2/result/LINK_invent/BTK/process_docking_weight1_custom_sum_contain_oxygen_bond_distance_aromatic_linkinvent_7_9_3/rearranged_h_0131.sdf

> <i_m_source_file_index>
99

> <r_mmod_Potential_Energy-OPLS-2005>
-299.110076904297

> <r_mmod_Stretch_Energy-OPLS-2005>
31.4519100189209

> <r_mmod_Bend_Energy-OPLS-2005>
103.258590698242

> <r_mmod_Torsional_Energy-OPLS-2005>
260.022674560547

> <r_mmod_Improper_Torsional_Energy-OPLS-2005>
7.11483097076416

> <r_mmod_Van_der_Waal_Energy-OPLS-2005>
152.180892944336

> <r_mmod_Electrostatic_Energy-OPLS-2005>
43.6392707824707

> <r_mmod_Solvation_Energy-OPLS-2005>
-905.534790039062

> <b_mmod_Minimization_Converged-OPLS-2005>
0

> <r_mmod_RMS_Derivative-OPLS-2005>
3.27167868614197

$$$$
