0
                    3D
 Structure written by MMmdl.
160168  0  0  1  0            999 V2000
  -30.5247  -15.0068   20.4136 C   0  0  0  0  0  0
  -30.4334  -12.6244   19.5206 C   0  0  0  0  0  0
  -29.5247  -12.5398   18.2712 C   0  0  0  0  0  0
  -28.0588  -12.3145   18.6826 C   0  0  0  0  0  0
  -27.6237  -13.2548   19.8370 C   0  0  2  0  0  0
  -28.6594  -13.3122   20.9807 C   0  0  0  0  0  0
  -25.2415  -13.8220   20.5703 C   0  0  0  0  0  0
  -24.1752  -13.0438   20.9232 C   0  0  0  0  0  0
  -24.6381  -11.6925   20.8750 C   0  0  0  0  0  0
  -23.9071  -10.4297   21.0396 C   0  0  0  0  0  0
  -24.3623   -9.4213   21.9178 C   0  0  0  0  0  0
  -23.6301   -8.2241   22.0746 C   0  0  0  0  0  0
  -22.4282   -8.0268   21.3531 C   0  0  0  0  0  0
  -21.9918   -9.0242   20.4633 C   0  0  0  0  0  0
  -22.7239  -10.2131   20.3046 C   0  0  0  0  0  0
  -21.6854   -6.0737   22.5280 C   0  0  0  0  0  0
  -21.4014   -6.5638   23.8213 C   0  0  0  0  0  0
  -21.3662   -5.6790   24.9173 C   0  0  0  0  0  0
  -21.6052   -4.3055   24.7222 C   0  0  0  0  0  0
  -21.8816   -3.8144   23.4339 C   0  0  0  0  0  0
  -21.9192   -4.6963   22.3401 C   0  0  0  0  0  0
  -22.7765  -13.5192   21.1901 C   0  0  0  0  0  0
  -22.1661   -4.2143   21.0980 F   0  0  0  0  0  0
  -21.5633   -3.4539   25.7737 F   0  0  0  0  0  0
  -29.9324  -13.7375   20.3862 N   0  0  0  0  0  0
  -26.2841  -12.9467   20.3222 N   0  0  0  0  0  0
  -25.9309  -11.6591   20.5727 N   0  0  0  0  0  0
  -22.0431  -12.8165   22.0452 N   0  0  0  0  0  0
  -25.4067  -15.1952   20.4112 N   0  0  0  0  0  0
  -31.7232  -15.0499   20.1139 O   0  0  0  0  0  0
  -21.6637   -6.8866   21.4236 O   0  0  0  0  0  0
  -22.3444  -14.5503   20.6746 O   0  0  0  0  0  0
  -24.6462  -31.8424   23.1837 C   0  0  0  0  0  0
  -25.9217  -32.4677   23.8252 C   0  0  1  0  0  0
  -27.2078  -27.0906   20.1702 C   0  0  0  0  0  0
  -25.5959  -33.8486   24.2163 N   0  0  0  0  0  0
  -23.4508  -30.4617   21.5290 C   0  0  2  0  0  0
  -24.9010  -28.8799   20.1082 C   0  0  0  0  0  0
  -22.7573  -29.4566   22.4832 C   0  0  0  0  0  0
  -18.0318  -28.1416   22.8491 C   0  0  0  0  0  0
  -24.1487  -36.7246   23.2641 C   0  0  0  0  0  0
  -26.0099  -30.7003   21.3904 C   0  0  0  0  0  0
  -26.0787  -29.3072   20.7348 C   0  0  0  0  0  0
  -27.2332  -28.4305   20.7469 C   0  0  0  0  0  0
  -26.0115  -26.7858   19.4837 C   0  0  0  0  0  0
  -24.8834  -27.6347   19.4636 C   0  0  0  0  0  0
  -23.6808  -29.7895   20.1492 C   0  0  0  0  0  0
  -25.4118  -36.3016   24.0311 C   0  0  1  0  0  0
  -20.5932  -28.3754   23.1221 C   0  0  2  0  0  0
  -20.6813  -26.9460   22.5393 C   0  0  0  0  0  0
  -19.5778  -26.6401   21.5215 C   0  0  0  0  0  0
  -18.1959  -26.7956   22.1629 C   0  0  0  0  0  0
  -19.1576  -28.8904   23.2848 C   0  0  0  0  0  0
  -18.9489  -30.1501   23.8873 C   0  0  0  0  0  0
  -17.6485  -30.6612   24.0582 C   0  0  0  0  0  0
  -25.9077  -34.9397   23.5047 C   0  0  0  0  0  0
  -16.5374  -29.9111   23.6346 C   0  0  0  0  0  0
  -16.7302  -28.6528   23.0365 C   0  0  0  0  0  0
  -26.4534  -31.6554   25.0704 C   0  0  0  0  0  0
  -25.3715  -31.3763   26.1399 C   0  0  0  0  0  0
  -27.0396  -30.2943   24.6303 C   0  0  0  0  0  0
  -27.6059  -32.4332   25.7495 C   0  0  0  0  0  0
  -27.5571  -37.1782   24.8456 C   0  0  0  0  0  0
  -21.4261  -29.3072   22.3577 N   0  0  0  0  0  0
  -26.4267  -37.3739   23.9419 N   0  0  0  0  0  0
  -24.7218  -31.0250   22.0883 N   0  0  0  0  0  0
  -23.4200  -28.8130   23.3009 O   0  0  0  0  0  0
  -28.2376  -26.0660   20.2610 O   0  0  0  0  0  0
  -26.5664  -34.8910   22.4628 O   0  0  0  0  0  0
  -23.5570  -32.1307   23.7037 O   0  0  0  0  0  0
  -29.0493  -19.6736   21.8371 C   0  0  0  0  0  0
  -29.4122  -20.4808   19.8613 C   0  0  0  0  0  0
  -29.4870  -19.2268   20.5493 C   0  0  0  0  0  0
  -28.8678  -21.0554   21.9018 C   0  0  0  0  0  0
  -29.9168  -21.8066   24.0506 C   0  0  0  0  0  0
  -27.4065  -21.4179   23.9222 C   0  0  0  0  0  0
  -26.9409  -24.2935   21.4534 C   0  0  0  0  0  0
  -30.0861  -17.7161   20.0903 C   0  0  0  0  0  0
  -29.1154  -23.2419   20.2801 C   0  0  0  0  0  0
  -28.6668  -21.8563   23.1563 C   0  0  0  0  0  0
  -27.9489  -24.5048   20.3097 C   0  0  2  0  0  0
  -29.0360  -21.6595   20.6409 N   0  0  0  0  0  0
  -29.7691  -16.2200   20.5538 N   0  0  0  0  0  0
  -31.4689  -12.7789   19.2133 H   0  0  0  0  0  0
  -30.4269  -11.6807   20.0690 H   0  0  0  0  0  0
  -29.8594  -11.7362   17.6141 H   0  0  0  0  0  0
  -29.6069  -13.4631   17.6950 H   0  0  0  0  0  0
  -27.9635  -11.2757   19.0007 H   0  0  0  0  0  0
  -27.3980  -12.4320   17.8223 H   0  0  0  0  0  0
  -27.5784  -14.2507   19.3964 H   0  0  0  0  0  0
  -28.7564  -12.3452   21.4743 H   0  0  0  0  0  0
  -28.3419  -14.0203   21.7475 H   0  0  0  0  0  0
  -25.2765   -9.5697   22.4756 H   0  0  0  0  0  0
  -24.0013   -7.4630   22.7471 H   0  0  0  0  0  0
  -21.0843   -8.8749   19.8939 H   0  0  0  0  0  0
  -22.3681  -10.9661   19.6154 H   0  0  0  0  0  0
  -21.2004   -7.6143   23.9711 H   0  0  0  0  0  0
  -21.1496   -6.0524   25.9081 H   0  0  0  0  0  0
  -22.0598   -2.7602   23.2843 H   0  0  0  0  0  0
  -22.4066  -11.9822   22.4819 H   0  0  0  0  0  0
  -21.1050  -13.1163   22.2682 H   0  0  0  0  0  0
  -24.6353  -15.8449   20.5183 H   0  0  0  0  0  0
  -26.2441  -15.6336   20.0496 H   0  0  0  0  0  0
  -26.7293  -32.5268   23.0988 H   0  0  0  0  0  0
  -25.0117  -33.9607   25.0318 H   0  0  0  0  0  0
  -22.7547  -31.2894   21.3734 H   0  0  0  0  0  0
  -23.3744  -35.9581   23.3279 H   0  0  0  0  0  0
  -24.3577  -36.8889   22.2061 H   0  0  0  0  0  0
  -23.7256  -37.6440   23.6696 H   0  0  0  0  0  0
  -26.1727  -31.4482   20.6135 H   0  0  0  0  0  0
  -26.8781  -30.7526   22.0351 H   0  0  0  0  0  0
  -28.1251  -28.7524   21.2664 H   0  0  0  0  0  0
  -25.9109  -25.8360   18.9831 H   0  0  0  0  0  0
  -23.9882  -27.3046   18.9545 H   0  0  0  0  0  0
  -23.8251  -30.5633   19.3941 H   0  0  0  0  0  0
  -22.7930  -29.2373   19.8352 H   0  0  0  0  0  0
  -25.1313  -36.1821   25.0801 H   0  0  0  0  0  0
  -21.0045  -28.3356   24.1333 H   0  0  0  0  0  0
  -20.5718  -26.2385   23.3617 H   0  0  0  0  0  0
  -21.6684  -26.7480   22.1188 H   0  0  0  0  0  0
  -19.6939  -25.6300   21.1273 H   0  0  0  0  0  0
  -19.6705  -27.3193   20.6725 H   0  0  0  0  0  0
  -17.4231  -26.6708   21.4023 H   0  0  0  0  0  0
  -18.0366  -26.0092   22.9025 H   0  0  0  0  0  0
  -19.7956  -30.7350   24.2201 H   0  0  0  0  0  0
  -17.5029  -31.6282   24.5211 H   0  0  0  0  0  0
  -15.5375  -30.3023   23.7661 H   0  0  0  0  0  0
  -15.8697  -28.0845   22.7088 H   0  0  0  0  0  0
  -24.5862  -30.7156   25.7713 H   0  0  0  0  0  0
  -24.8954  -32.2964   26.4796 H   0  0  0  0  0  0
  -25.7988  -30.8933   27.0194 H   0  0  0  0  0  0
  -26.3014  -29.6668   24.1296 H   0  0  0  0  0  0
  -27.3985  -29.7242   25.4881 H   0  0  0  0  0  0
  -27.8944  -30.4168   23.9647 H   0  0  0  0  0  0
  -27.2624  -33.3622   26.2059 H   0  0  0  0  0  0
  -28.3880  -32.6904   25.0344 H   0  0  0  0  0  0
  -28.0724  -31.8472   26.5417 H   0  0  0  0  0  0
  -28.2566  -38.0103   24.7536 H   0  0  0  0  0  0
  -28.1090  -36.2640   24.6228 H   0  0  0  0  0  0
  -27.2301  -37.1356   25.8858 H   0  0  0  0  0  0
  -20.9461  -29.8752   21.6736 H   0  0  0  0  0  0
  -26.0106  -38.2788   24.1446 H   0  0  0  0  0  0
  -28.9888  -19.0404   22.7131 H   0  0  0  0  0  0
  -29.6929  -20.6661   18.8323 H   0  0  0  0  0  0
  -30.7946  -22.1676   23.5105 H   0  0  0  0  0  0
  -30.1316  -20.7938   24.3946 H   0  0  0  0  0  0
  -29.7971  -22.4381   24.9320 H   0  0  0  0  0  0
  -26.5165  -21.4946   23.2959 H   0  0  0  0  0  0
  -27.2397  -22.0437   24.7988 H   0  0  0  0  0  0
  -27.4777  -20.3844   24.2650 H   0  0  0  0  0  0
  -26.6713  -23.2434   21.5562 H   0  0  0  0  0  0
  -26.0095  -24.8313   21.2891 H   0  0  0  0  0  0
  -27.3435  -24.6490   22.4008 H   0  0  0  0  0  0
  -31.1625  -17.8173   20.2326 H   0  0  0  0  0  0
  -29.9720  -17.6958   19.0059 H   0  0  0  0  0  0
  -29.9168  -23.6111   20.9196 H   0  0  0  0  0  0
  -29.5545  -23.2831   19.2841 H   0  0  0  0  0  0
  -28.5524  -22.9036   22.9035 H   0  0  0  0  0  0
  -27.3931  -24.3082   19.3936 H   0  0  0  0  0  0
  -28.8046  -16.0669   20.8095 H   0  0  0  0  0  0
  1 25  1  0  0  0
  1 30  2  0  0  0
  1 83  1  0  0  0
  2  3  1  0  0  0
  2 25  1  0  0  0
  2 84  1  0  0  0
  2 85  1  0  0  0
  3  4  1  0  0  0
  3 86  1  0  0  0
  3 87  1  0  0  0
  4  5  1  0  0  0
  4 88  1  0  0  0
  4 89  1  0  0  0
  5  6  1  0  0  0
  5 26  1  0  0  0
  5 90  1  0  0  0
  6 25  1  0  0  0
  6 91  1  0  0  0
  6 92  1  0  0  0
  7  8  2  0  0  0
  7 26  1  0  0  0
  7 29  1  0  0  0
  8  9  1  0  0  0
  8 22  1  0  0  0
  9 10  1  0  0  0
  9 27  2  0  0  0
 10 11  2  0  0  0
 10 15  1  0  0  0
 11 12  1  0  0  0
 11 93  1  0  0  0
 12 13  2  0  0  0
 12 94  1  0  0  0
 13 14  1  0  0  0
 13 31  1  0  0  0
 14 15  2  0  0  0
 14 95  1  0  0  0
 15 96  1  0  0  0
 16 17  2  0  0  0
 16 21  1  0  0  0
 16 31  1  0  0  0
 17 18  1  0  0  0
 17 97  1  0  0  0
 18 19  2  0  0  0
 18 98  1  0  0  0
 19 20  1  0  0  0
 19 24  1  0  0  0
 20 21  2  0  0  0
 20 99  1  0  0  0
 21 23  1  0  0  0
 22 28  1  0  0  0
 22 32  2  0  0  0
 26 27  1  0  0  0
 28100  1  0  0  0
 28101  1  0  0  0
 29102  1  0  0  0
 29103  1  0  0  0
 33 34  1  0  0  0
 33 66  1  0  0  0
 33 70  2  0  0  0
 34 36  1  0  0  0
 34 59  1  0  0  0
 34104  1  0  0  0
 35 44  2  0  0  0
 35 45  1  0  0  0
 35 68  1  0  0  0
 36 56  1  0  0  0
 36105  1  0  0  0
 37 39  1  0  0  0
 37 47  1  0  0  0
 37 66  1  0  0  0
 37106  1  0  0  0
 38 43  2  0  0  0
 38 46  1  0  0  0
 38 47  1  0  0  0
 39 64  1  0  0  0
 39 67  2  0  0  0
 40 52  1  0  0  0
 40 53  2  0  0  0
 40 58  1  0  0  0
 41107  1  0  0  0
 41108  1  0  0  0
 41109  1  0  0  0
 41 48  1  0  0  0
 42 43  1  0  0  0
 42 66  1  0  0  0
 42110  1  0  0  0
 42111  1  0  0  0
 43 44  1  0  0  0
 44112  1  0  0  0
 45 46  2  0  0  0
 45113  1  0  0  0
 46114  1  0  0  0
 47115  1  0  0  0
 47116  1  0  0  0
 48 56  1  0  0  0
 48 65  1  0  0  0
 48117  1  0  0  0
 49 50  1  0  0  0
 49 53  1  0  0  0
 49 64  1  0  0  0
 49118  1  0  0  0
 50 51  1  0  0  0
 50119  1  0  0  0
 50120  1  0  0  0
 51 52  1  0  0  0
 51121  1  0  0  0
 51122  1  0  0  0
 52123  1  0  0  0
 52124  1  0  0  0
 53 54  1  0  0  0
 54 55  2  0  0  0
 54125  1  0  0  0
 55 57  1  0  0  0
 55126  1  0  0  0
 56 69  2  0  0  0
 57 58  2  0  0  0
 57127  1  0  0  0
 58128  1  0  0  0
 59 60  1  0  0  0
 59 61  1  0  0  0
 59 62  1  0  0  0
 60129  1  0  0  0
 60130  1  0  0  0
 60131  1  0  0  0
 61132  1  0  0  0
 61133  1  0  0  0
 61134  1  0  0  0
 62135  1  0  0  0
 62136  1  0  0  0
 62137  1  0  0  0
 63 65  1  0  0  0
 63138  1  0  0  0
 63139  1  0  0  0
 63140  1  0  0  0
 64141  1  0  0  0
 65142  1  0  0  0
 68 81  1  0  0  0
 71 73  1  0  0  0
 71 74  2  0  0  0
 71143  1  0  0  0
 72 73  2  0  0  0
 72 82  1  0  0  0
 72144  1  0  0  0
 73 78  1  0  0  0
 74 80  1  0  0  0
 74 82  1  0  0  0
 75145  1  0  0  0
 75146  1  0  0  0
 75147  1  0  0  0
 75 80  1  0  0  0
 76 80  1  0  0  0
 76148  1  0  0  0
 76149  1  0  0  0
 76150  1  0  0  0
 77151  1  0  0  0
 77152  1  0  0  0
 77153  1  0  0  0
 77 81  1  0  0  0
 78 83  1  0  0  0
 78154  1  0  0  0
 78155  1  0  0  0
 79 81  1  0  0  0
 79 82  1  0  0  0
 79156  1  0  0  0
 79157  1  0  0  0
 80158  1  0  0  0
 81159  1  0  0  0
 83160  1  0  0  0
M  ISO  4   1 100  68 101  81 101  83 100
M  END
> <chiral flag>
0

> <version>
0

> <s_m_source_file>
/data/baiqing/PycharmProjects/Reinvent-master-3.2/result/LINK_invent/BTK/process_docking_weight1_custom_sum_contain_oxygen_bond_distance_aromatic_linkinvent_7_9_3/rearranged_h_0107.sdf

> <i_m_source_file_index>
1

> <r_mmod_Potential_Energy-OPLS-2005>
585.782348632812

> <r_mmod_Stretch_Energy-OPLS-2005>
317.592163085938

> <r_mmod_Bend_Energy-OPLS-2005>
309.400268554688

> <r_mmod_Torsional_Energy-OPLS-2005>
232.296279907227

> <r_mmod_Improper_Torsional_Energy-OPLS-2005>
9.30679893493652

> <r_mmod_Van_der_Waal_Energy-OPLS-2005>
109.709259033203

> <r_mmod_Electrostatic_Energy-OPLS-2005>
-421.376800537109

> <r_mmod_Solvation_Energy-OPLS-2005>
-208.902114868164

> <b_mmod_Minimization_Converged-OPLS-2005>
0

> <r_mmod_RMS_Derivative-OPLS-2005>
2.30428671836853

$$$$
1
                    3D
 Structure written by MMmdl.
165172  0  0  1  0            999 V2000
  -30.6459  -14.5055   20.5853 C   0  0  0  0  0  0
  -30.4352  -12.3320   19.4181 C   0  0  0  0  0  0
  -29.4968  -12.5264   18.2045 C   0  0  0  0  0  0
  -28.0180  -12.3746   18.6132 C   0  0  0  0  0  0
  -27.6650  -13.1983   19.8802 C   0  0  2  0  0  0
  -28.7054  -12.9490   20.9992 C   0  0  0  0  0  0
  -25.2613  -13.8142   20.5645 C   0  0  0  0  0  0
  -24.1840  -13.0431   20.9148 C   0  0  0  0  0  0
  -24.6382  -11.6897   20.8750 C   0  0  0  0  0  0
  -23.9050  -10.4282   21.0446 C   0  0  0  0  0  0
  -24.3616   -9.4193   21.9200 C   0  0  0  0  0  0
  -23.6297   -8.2223   22.0764 C   0  0  0  0  0  0
  -22.4275   -8.0276   21.3556 C   0  0  0  0  0  0
  -21.9911   -9.0245   20.4648 C   0  0  0  0  0  0
  -22.7238  -10.2124   20.3075 C   0  0  0  0  0  0
  -21.6831   -6.0744   22.5285 C   0  0  0  0  0  0
  -21.4000   -6.5653   23.8217 C   0  0  0  0  0  0
  -21.3651   -5.6802   24.9184 C   0  0  0  0  0  0
  -21.6043   -4.3067   24.7231 C   0  0  0  0  0  0
  -21.8825   -3.8150   23.4353 C   0  0  0  0  0  0
  -21.9196   -4.6965   22.3414 C   0  0  0  0  0  0
  -22.7875  -13.5240   21.1838 C   0  0  0  0  0  0
  -22.1670   -4.2150   21.0997 F   0  0  0  0  0  0
  -21.5637   -3.4551   25.7740 F   0  0  0  0  0  0
  -30.0358  -13.2911   20.4644 N   0  0  0  0  0  0
  -26.3035  -12.9279   20.3369 N   0  0  0  0  0  0
  -25.9305  -11.6454   20.5752 N   0  0  0  0  0  0
  -22.0523  -12.8222   22.0398 N   0  0  0  0  0  0
  -25.4371  -15.1839   20.4018 N   0  0  0  0  0  0
  -31.7327  -14.7522   20.0606 O   0  0  0  0  0  0
  -21.6635   -6.8881   21.4247 O   0  0  0  0  0  0
  -22.3558  -14.5559   20.6712 O   0  0  0  0  0  0
  -24.6170  -31.8649   23.2080 C   0  0  0  0  0  0
  -25.9050  -32.4794   23.8377 C   0  0  1  0  0  0
  -27.2108  -27.3776   20.1110 C   0  0  0  0  0  0
  -25.5903  -33.8589   24.2286 N   0  0  0  0  0  0
  -23.4054  -30.4937   21.5488 C   0  0  2  0  0  0
  -24.8521  -28.9709   20.0974 C   0  0  0  0  0  0
  -22.7422  -29.4649   22.4938 C   0  0  0  0  0  0
  -18.0282  -28.1366   22.8487 C   0  0  0  0  0  0
  -24.1497  -36.7302   23.2639 C   0  0  0  0  0  0
  -25.9431  -30.8164   21.3725 C   0  0  0  0  0  0
  -26.0177  -29.4544   20.7061 C   0  0  0  0  0  0
  -27.2018  -28.6681   20.7067 C   0  0  0  0  0  0
  -26.0347  -26.9528   19.4481 C   0  0  0  0  0  0
  -24.8615  -27.7245   19.4580 C   0  0  0  0  0  0
  -23.6144  -29.8393   20.1587 C   0  0  0  0  0  0
  -25.4112  -36.3073   24.0336 C   0  0  1  0  0  0
  -20.5870  -28.3663   23.1301 C   0  0  2  0  0  0
  -20.6756  -26.9392   22.5419 C   0  0  0  0  0  0
  -19.5751  -26.6366   21.5202 C   0  0  0  0  0  0
  -18.1923  -26.7918   22.1604 C   0  0  0  0  0  0
  -19.1527  -28.8831   23.2898 C   0  0  0  0  0  0
  -18.9454  -30.1435   23.8921 C   0  0  0  0  0  0
  -17.6459  -30.6584   24.0554 C   0  0  0  0  0  0
  -25.9051  -34.9451   23.5104 C   0  0  0  0  0  0
  -16.5350  -29.9089   23.6307 C   0  0  0  0  0  0
  -16.7273  -28.6494   23.0350 C   0  0  0  0  0  0
  -26.4458  -31.6589   25.0721 C   0  0  0  0  0  0
  -25.3702  -31.3750   26.1459 C   0  0  0  0  0  0
  -27.0266  -30.3005   24.6134 C   0  0  0  0  0  0
  -27.6003  -32.4330   25.7502 C   0  0  0  0  0  0
  -27.5591  -37.1792   24.8449 C   0  0  0  0  0  0
  -21.4142  -29.3038   22.3697 N   0  0  0  0  0  0
  -26.4282  -37.3774   23.9423 N   0  0  0  0  0  0
  -24.6734  -31.0726   22.0996 N   0  0  0  0  0  0
  -23.4183  -28.8191   23.2988 O   0  0  0  0  0  0
  -28.3082  -26.5245   20.2293 O   0  0  0  0  0  0
  -26.5628  -34.8919   22.4671 O   0  0  0  0  0  0
  -23.5354  -32.1422   23.7462 O   0  0  0  0  0  0
  -27.1083  -24.9016   21.6673 C   0  0  0  0  0  0
  -28.0965  -19.8426   20.4329 C   0  0  0  0  0  0
  -31.2281  -17.3573   22.9399 C   0  0  0  0  0  0
  -32.0175  -18.0195   20.6605 C   0  0  0  0  0  0
  -29.2435  -24.1389   20.5458 C   0  0  0  0  0  0
  -30.2138  -19.3731   21.8129 C   0  0  0  0  0  0
  -29.7372  -16.9078   20.9485 C   0  0  0  0  0  0
  -28.9073  -22.6260   20.2797 C   0  0  0  0  0  0
  -28.0100  -25.0965   20.4203 C   0  0  2  0  0  0
  -29.5665  -20.2500   20.6761 C   0  0  2  0  0  0
  -30.7755  -17.9088   21.5655 C   0  0  0  0  0  0
  -29.8816  -15.4462   21.1852 N   0  0  0  0  0  0
  -29.6634  -21.6567   21.0487 O   0  0  0  0  0  0
  -31.4766  -12.4544   19.1154 H   0  0  0  0  0  0
  -30.3565  -11.3098   19.7919 H   0  0  0  0  0  0
  -29.7415  -11.8167   17.4131 H   0  0  0  0  0  0
  -29.6541  -13.5181   17.7756 H   0  0  0  0  0  0
  -27.8248  -11.3151   18.7908 H   0  0  0  0  0  0
  -27.3693  -12.6663   17.7859 H   0  0  0  0  0  0
  -27.7182  -14.2495   19.5964 H   0  0  0  0  0  0
  -28.6895  -11.8985   21.2946 H   0  0  0  0  0  0
  -28.4521  -13.5006   21.9062 H   0  0  0  0  0  0
  -25.2770   -9.5666   22.4753 H   0  0  0  0  0  0
  -24.0011   -7.4604   22.7482 H   0  0  0  0  0  0
  -21.0846   -8.8773   19.8933 H   0  0  0  0  0  0
  -22.3723  -10.9674   19.6177 H   0  0  0  0  0  0
  -21.1984   -7.6157   23.9720 H   0  0  0  0  0  0
  -21.1470   -6.0541   25.9087 H   0  0  0  0  0  0
  -22.0608   -2.7613   23.2860 H   0  0  0  0  0  0
  -22.4134  -11.9890   22.4796 H   0  0  0  0  0  0
  -21.1137  -13.1228   22.2604 H   0  0  0  0  0  0
  -24.6703  -15.8425   20.4888 H   0  0  0  0  0  0
  -26.2915  -15.6132   20.0709 H   0  0  0  0  0  0
  -26.7119  -32.5495   23.1140 H   0  0  0  0  0  0
  -25.0022  -33.9748   25.0406 H   0  0  0  0  0  0
  -22.6939  -31.3115   21.4160 H   0  0  0  0  0  0
  -23.3762  -35.9629   23.3252 H   0  0  0  0  0  0
  -24.3616  -36.8964   22.2065 H   0  0  0  0  0  0
  -23.7252  -37.6487   23.6700 H   0  0  0  0  0  0
  -26.0720  -31.5912   20.6138 H   0  0  0  0  0  0
  -26.8236  -30.8549   22.0018 H   0  0  0  0  0  0
  -28.0873  -29.0301   21.2085 H   0  0  0  0  0  0
  -25.9798  -26.0041   18.9378 H   0  0  0  0  0  0
  -23.9735  -27.3485   18.9704 H   0  0  0  0  0  0
  -23.7194  -30.6219   19.4065 H   0  0  0  0  0  0
  -22.7341  -29.2658   19.8607 H   0  0  0  0  0  0
  -25.1285  -36.1905   25.0832 H   0  0  0  0  0  0
  -20.9975  -28.3234   24.1407 H   0  0  0  0  0  0
  -20.5604  -26.2275   23.3612 H   0  0  0  0  0  0
  -21.6630  -26.7392   22.1247 H   0  0  0  0  0  0
  -19.6909  -25.6272   21.1240 H   0  0  0  0  0  0
  -19.6709  -27.3156   20.6720 H   0  0  0  0  0  0
  -17.4189  -26.6676   21.3998 H   0  0  0  0  0  0
  -18.0336  -26.0059   22.8993 H   0  0  0  0  0  0
  -19.7934  -30.7234   24.2299 H   0  0  0  0  0  0
  -17.5024  -31.6267   24.5147 H   0  0  0  0  0  0
  -15.5355  -30.3006   23.7623 H   0  0  0  0  0  0
  -15.8665  -28.0827   22.7061 H   0  0  0  0  0  0
  -24.5841  -30.7134   25.7818 H   0  0  0  0  0  0
  -24.8939  -32.2935   26.4899 H   0  0  0  0  0  0
  -25.8032  -30.8917   27.0221 H   0  0  0  0  0  0
  -26.2815  -29.6814   24.1116 H   0  0  0  0  0  0
  -27.3920  -29.7215   25.4631 H   0  0  0  0  0  0
  -27.8719  -30.4300   23.9365 H   0  0  0  0  0  0
  -27.2551  -33.3578   26.2153 H   0  0  0  0  0  0
  -28.3773  -32.6989   25.0318 H   0  0  0  0  0  0
  -28.0713  -31.8415   26.5366 H   0  0  0  0  0  0
  -28.2547  -38.0145   24.7525 H   0  0  0  0  0  0
  -28.1139  -36.2667   24.6202 H   0  0  0  0  0  0
  -27.2328  -37.1347   25.8856 H   0  0  0  0  0  0
  -20.9278  -29.8789   21.6957 H   0  0  0  0  0  0
  -26.0148  -38.2833   24.1458 H   0  0  0  0  0  0
  -26.8641  -23.8534   21.8384 H   0  0  0  0  0  0
  -26.1496  -25.4103   21.5819 H   0  0  0  0  0  0
  -27.5922  -25.2705   22.5713 H   0  0  0  0  0  0
  -27.9980  -18.7967   20.1575 H   0  0  0  0  0  0
  -27.6401  -20.3918   19.6090 H   0  0  0  0  0  0
  -27.4906  -20.0006   21.3243 H   0  0  0  0  0  0
  -31.9246  -18.0321   23.4388 H   0  0  0  0  0  0
  -31.7338  -16.3951   22.8507 H   0  0  0  0  0  0
  -30.3826  -17.2120   23.6148 H   0  0  0  0  0  0
  -32.7965  -18.6259   21.1241 H   0  0  0  0  0  0
  -31.7790  -18.4793   19.7019 H   0  0  0  0  0  0
  -32.4686  -17.0529   20.4543 H   0  0  0  0  0  0
  -30.0121  -24.4504   19.8377 H   0  0  0  0  0  0
  -29.6856  -24.2525   21.5351 H   0  0  0  0  0  0
  -29.5025  -19.3387   22.6383 H   0  0  0  0  0  0
  -31.0508  -19.9551   22.2020 H   0  0  0  0  0  0
  -29.6112  -17.0884   19.8776 H   0  0  0  0  0  0
  -28.7697  -17.1279   21.3991 H   0  0  0  0  0  0
  -29.0167  -22.4228   19.2143 H   0  0  0  0  0  0
  -27.8544  -22.4625   20.4985 H   0  0  0  0  0  0
  -27.4882  -24.7365   19.5354 H   0  0  0  0  0  0
  -30.1251  -20.1250   19.7476 H   0  0  0  0  0  0
  -29.0748  -15.0358   21.6304 H   0  0  0  0  0  0
  1 25  1  0  0  0
  1 30  2  0  0  0
  1 82  1  0  0  0
  2  3  1  0  0  0
  2 25  1  0  0  0
  2 84  1  0  0  0
  2 85  1  0  0  0
  3  4  1  0  0  0
  3 86  1  0  0  0
  3 87  1  0  0  0
  4  5  1  0  0  0
  4 88  1  0  0  0
  4 89  1  0  0  0
  5  6  1  0  0  0
  5 26  1  0  0  0
  5 90  1  0  0  0
  6 25  1  0  0  0
  6 91  1  0  0  0
  6 92  1  0  0  0
  7  8  2  0  0  0
  7 26  1  0  0  0
  7 29  1  0  0  0
  8  9  1  0  0  0
  8 22  1  0  0  0
  9 10  1  0  0  0
  9 27  2  0  0  0
 10 11  2  0  0  0
 10 15  1  0  0  0
 11 12  1  0  0  0
 11 93  1  0  0  0
 12 13  2  0  0  0
 12 94  1  0  0  0
 13 14  1  0  0  0
 13 31  1  0  0  0
 14 15  2  0  0  0
 14 95  1  0  0  0
 15 96  1  0  0  0
 16 17  2  0  0  0
 16 21  1  0  0  0
 16 31  1  0  0  0
 17 18  1  0  0  0
 17 97  1  0  0  0
 18 19  2  0  0  0
 18 98  1  0  0  0
 19 20  1  0  0  0
 19 24  1  0  0  0
 20 21  2  0  0  0
 20 99  1  0  0  0
 21 23  1  0  0  0
 22 28  1  0  0  0
 22 32  2  0  0  0
 26 27  1  0  0  0
 28100  1  0  0  0
 28101  1  0  0  0
 29102  1  0  0  0
 29103  1  0  0  0
 33 34  1  0  0  0
 33 66  1  0  0  0
 33 70  2  0  0  0
 34 36  1  0  0  0
 34 59  1  0  0  0
 34104  1  0  0  0
 35 44  2  0  0  0
 35 45  1  0  0  0
 35 68  1  0  0  0
 36 56  1  0  0  0
 36105  1  0  0  0
 37 39  1  0  0  0
 37 47  1  0  0  0
 37 66  1  0  0  0
 37106  1  0  0  0
 38 43  2  0  0  0
 38 46  1  0  0  0
 38 47  1  0  0  0
 39 64  1  0  0  0
 39 67  2  0  0  0
 40 52  1  0  0  0
 40 53  2  0  0  0
 40 58  1  0  0  0
 41107  1  0  0  0
 41108  1  0  0  0
 41109  1  0  0  0
 41 48  1  0  0  0
 42 43  1  0  0  0
 42 66  1  0  0  0
 42110  1  0  0  0
 42111  1  0  0  0
 43 44  1  0  0  0
 44112  1  0  0  0
 45 46  2  0  0  0
 45113  1  0  0  0
 46114  1  0  0  0
 47115  1  0  0  0
 47116  1  0  0  0
 48 56  1  0  0  0
 48 65  1  0  0  0
 48117  1  0  0  0
 49 50  1  0  0  0
 49 53  1  0  0  0
 49 64  1  0  0  0
 49118  1  0  0  0
 50 51  1  0  0  0
 50119  1  0  0  0
 50120  1  0  0  0
 51 52  1  0  0  0
 51121  1  0  0  0
 51122  1  0  0  0
 52123  1  0  0  0
 52124  1  0  0  0
 53 54  1  0  0  0
 54 55  2  0  0  0
 54125  1  0  0  0
 55 57  1  0  0  0
 55126  1  0  0  0
 56 69  2  0  0  0
 57 58  2  0  0  0
 57127  1  0  0  0
 58128  1  0  0  0
 59 60  1  0  0  0
 59 61  1  0  0  0
 59 62  1  0  0  0
 60129  1  0  0  0
 60130  1  0  0  0
 60131  1  0  0  0
 61132  1  0  0  0
 61133  1  0  0  0
 61134  1  0  0  0
 62135  1  0  0  0
 62136  1  0  0  0
 62137  1  0  0  0
 63 65  1  0  0  0
 63138  1  0  0  0
 63139  1  0  0  0
 63140  1  0  0  0
 64141  1  0  0  0
 65142  1  0  0  0
 68 79  1  0  0  0
 71143  1  0  0  0
 71144  1  0  0  0
 71145  1  0  0  0
 71 79  1  0  0  0
 72146  1  0  0  0
 72147  1  0  0  0
 72148  1  0  0  0
 72 80  1  0  0  0
 73149  1  0  0  0
 73150  1  0  0  0
 73151  1  0  0  0
 73 81  1  0  0  0
 74 81  1  0  0  0
 74152  1  0  0  0
 74153  1  0  0  0
 74154  1  0  0  0
 75 78  1  0  0  0
 75 79  1  0  0  0
 75155  1  0  0  0
 75156  1  0  0  0
 76 80  1  0  0  0
 76 81  1  0  0  0
 76157  1  0  0  0
 76158  1  0  0  0
 77 81  1  0  0  0
 77 82  1  0  0  0
 77159  1  0  0  0
 77160  1  0  0  0
 78 83  1  0  0  0
 78161  1  0  0  0
 78162  1  0  0  0
 79163  1  0  0  0
 80 83  1  0  0  0
 80164  1  0  0  0
 82165  1  0  0  0
M  ISO  4   1 100  68 101  79 101  82 100
M  END
> <chiral flag>
0

> <version>
0

> <s_m_source_file>
/data/baiqing/PycharmProjects/Reinvent-master-3.2/result/LINK_invent/BTK/process_docking_weight1_custom_sum_contain_oxygen_bond_distance_aromatic_linkinvent_7_9_3/rearranged_h_0107.sdf

> <i_m_source_file_index>
2

> <r_mmod_Potential_Energy-OPLS-2005>
4.24712419509888

> <r_mmod_Stretch_Energy-OPLS-2005>
59.3143653869629

> <r_mmod_Bend_Energy-OPLS-2005>
139.672943115234

> <r_mmod_Torsional_Energy-OPLS-2005>
246.491897583008

> <r_mmod_Improper_Torsional_Energy-OPLS-2005>
5.31110000610352

> <r_mmod_Van_der_Waal_Energy-OPLS-2005>
146.344528198242

> <r_mmod_Electrostatic_Energy-OPLS-2005>
-419.989685058594

> <r_mmod_Solvation_Energy-OPLS-2005>
-200.469863891602

> <b_mmod_Minimization_Converged-OPLS-2005>
0

> <r_mmod_RMS_Derivative-OPLS-2005>
3.57158851623535

$$$$
2
                    3D
 Structure written by MMmdl.
158165  0  0  1  0            999 V2000
  -30.4151  -15.2455   20.3564 C   0  0  0  0  0  0
  -30.4332  -12.7972   19.4830 C   0  0  0  0  0  0
  -29.5158  -12.5556   18.2584 C   0  0  0  0  0  0
  -28.0655  -12.2881   18.6963 C   0  0  0  0  0  0
  -27.6027  -13.2612   19.8083 C   0  0  2  0  0  0
  -28.6479  -13.4284   20.9294 C   0  0  0  0  0  0
  -25.2357  -13.8217   20.5757 C   0  0  0  0  0  0
  -24.1724  -13.0425   20.9284 C   0  0  0  0  0  0
  -24.6362  -11.6915   20.8770 C   0  0  0  0  0  0
  -23.9056  -10.4300   21.0418 C   0  0  0  0  0  0
  -24.3620   -9.4224   21.9198 C   0  0  0  0  0  0
  -23.6294   -8.2258   22.0755 C   0  0  0  0  0  0
  -22.4273   -8.0282   21.3557 C   0  0  0  0  0  0
  -21.9914   -9.0240   20.4656 C   0  0  0  0  0  0
  -22.7227  -10.2126   20.3076 C   0  0  0  0  0  0
  -21.6867   -6.0741   22.5304 C   0  0  0  0  0  0
  -21.4004   -6.5654   23.8229 C   0  0  0  0  0  0
  -21.3661   -5.6808   24.9191 C   0  0  0  0  0  0
  -21.6044   -4.3071   24.7242 C   0  0  0  0  0  0
  -21.8818   -3.8167   23.4364 C   0  0  0  0  0  0
  -21.9197   -4.6973   22.3415 C   0  0  0  0  0  0
  -22.7747  -13.5156   21.1953 C   0  0  0  0  0  0
  -22.1661   -4.2158   21.0991 F   0  0  0  0  0  0
  -21.5628   -3.4556   25.7749 F   0  0  0  0  0  0
  -29.8663  -13.9387   20.2814 N   0  0  0  0  0  0
  -26.2776  -12.9455   20.3204 N   0  0  0  0  0  0
  -25.9285  -11.6576   20.5699 N   0  0  0  0  0  0
  -22.0440  -12.8118   22.0512 N   0  0  0  0  0  0
  -25.3997  -15.1952   20.4148 N   0  0  0  0  0  0
  -31.6502  -15.2644   20.2707 O   0  0  0  0  0  0
  -21.6644   -6.8878   21.4266 O   0  0  0  0  0  0
  -22.3419  -14.5468   20.6814 O   0  0  0  0  0  0
  -24.6621  -31.8308   23.1743 C   0  0  0  0  0  0
  -25.9310  -32.4623   23.8203 C   0  0  1  0  0  0
  -27.2132  -26.9377   20.1522 C   0  0  0  0  0  0
  -25.5983  -33.8446   24.2108 N   0  0  0  0  0  0
  -23.4766  -30.4450   21.5274 C   0  0  2  0  0  0
  -24.9264  -28.8425   20.1184 C   0  0  0  0  0  0
  -22.7671  -29.4478   22.4817 C   0  0  0  0  0  0
  -18.0315  -28.1408   22.8507 C   0  0  0  0  0  0
  -24.1505  -36.7202   23.2652 C   0  0  0  0  0  0
  -26.0510  -30.6382   21.4060 C   0  0  0  0  0  0
  -26.1177  -29.2316   20.7415 C   0  0  0  0  0  0
  -27.2595  -28.3062   20.7280 C   0  0  0  0  0  0
  -25.9722  -26.6991   19.5171 C   0  0  0  0  0  0
  -24.8767  -27.5937   19.4891 C   0  0  0  0  0  0
  -23.7155  -29.7715   20.1526 C   0  0  0  0  0  0
  -25.4149  -36.2986   24.0301 C   0  0  1  0  0  0
  -20.5946  -28.3760   23.1217 C   0  0  2  0  0  0
  -20.6798  -26.9450   22.5426 C   0  0  0  0  0  0
  -19.5761  -26.6395   21.5242 C   0  0  0  0  0  0
  -18.1940  -26.7949   22.1645 C   0  0  0  0  0  0
  -19.1576  -28.8905   23.2862 C   0  0  0  0  0  0
  -18.9476  -30.1499   23.8897 C   0  0  0  0  0  0
  -17.6461  -30.6608   24.0544 C   0  0  0  0  0  0
  -25.9112  -34.9368   23.5021 C   0  0  0  0  0  0
  -16.5356  -29.9088   23.6339 C   0  0  0  0  0  0
  -16.7296  -28.6500   23.0387 C   0  0  0  0  0  0
  -26.4568  -31.6553   25.0725 C   0  0  0  0  0  0
  -25.3674  -31.3756   26.1351 C   0  0  0  0  0  0
  -27.0443  -30.2918   24.6446 C   0  0  0  0  0  0
  -27.6067  -32.4353   25.7504 C   0  0  0  0  0  0
  -27.5571  -37.1759   24.8455 C   0  0  0  0  0  0
  -21.4343  -29.3043   22.3550 N   0  0  0  0  0  0
  -26.4283  -37.3724   23.9400 N   0  0  0  0  0  0
  -24.7515  -30.9985   22.0872 N   0  0  0  0  0  0
  -23.4235  -28.8010   23.3021 O   0  0  0  0  0  0
  -28.2230  -25.8307   20.1899 O   0  0  0  0  0  0
  -26.5718  -34.8876   22.4618 O   0  0  0  0  0  0
  -23.5698  -32.1238   23.6895 O   0  0  0  0  0  0
  -26.5037  -19.8551   21.2138 C   0  0  0  0  0  0
  -26.5794  -20.8167   18.8632 C   0  0  0  0  0  0
  -27.5977  -24.1588   18.4376 C   0  0  0  0  0  0
  -29.6034  -18.1047   20.7340 C   0  0  0  0  0  0
  -29.3001  -19.6679   19.8812 C   0  0  0  0  0  0
  -28.9890  -22.6989   20.1488 C   0  0  0  0  0  0
  -27.0792  -20.9649   20.3155 C   0  0  0  0  0  0
  -27.9932  -24.2050   19.9324 C   0  0  1  0  0  0
  -29.6008  -16.4829   20.3119 N   0  0  0  0  0  0
  -28.5680  -21.0896   20.4037 N   0  3  1  0  0  0
  -31.4413  -13.0298   19.1373 H   0  0  0  0  0  0
  -30.5178  -11.8932   20.0873 H   0  0  0  0  0  0
  -29.8815  -11.7174   17.6633 H   0  0  0  0  0  0
  -29.5433  -13.4308   17.6086 H   0  0  0  0  0  0
  -28.0223  -11.2635   19.0704 H   0  0  0  0  0  0
  -27.3923  -12.3381   17.8392 H   0  0  0  0  0  0
  -27.5150  -14.2261   19.3094 H   0  0  0  0  0  0
  -28.8258  -12.4886   21.4534 H   0  0  0  0  0  0
  -28.2966  -14.1392   21.6777 H   0  0  0  0  0  0
  -25.2772   -9.5698   22.4773 H   0  0  0  0  0  0
  -24.0027   -7.4639   22.7438 H   0  0  0  0  0  0
  -21.0885   -8.8738   19.8916 H   0  0  0  0  0  0
  -22.3693  -10.9659   19.6184 H   0  0  0  0  0  0
  -21.1979   -7.6162   23.9723 H   0  0  0  0  0  0
  -21.1471   -6.0552   25.9084 H   0  0  0  0  0  0
  -22.0583   -2.7636   23.2878 H   0  0  0  0  0  0
  -22.4067  -11.9741   22.4833 H   0  0  0  0  0  0
  -21.1044  -13.1097   22.2708 H   0  0  0  0  0  0
  -24.6282  -15.8443   20.5231 H   0  0  0  0  0  0
  -26.2362  -15.6370   20.0630 H   0  0  0  0  0  0
  -26.7378  -32.5163   23.0918 H   0  0  0  0  0  0
  -25.0011  -33.9552   25.0168 H   0  0  0  0  0  0
  -22.7897  -31.2786   21.3635 H   0  0  0  0  0  0
  -23.3789  -35.9505   23.3276 H   0  0  0  0  0  0
  -24.3583  -36.8892   22.2073 H   0  0  0  0  0  0
  -23.7248  -37.6370   23.6736 H   0  0  0  0  0  0
  -26.2411  -31.3856   20.6340 H   0  0  0  0  0  0
  -26.9105  -30.6834   22.0636 H   0  0  0  0  0  0
  -28.1662  -28.6131   21.2328 H   0  0  0  0  0  0
  -25.7787  -25.7494   19.0550 H   0  0  0  0  0  0
  -23.9657  -27.2833   18.9963 H   0  0  0  0  0  0
  -23.8723  -30.5462   19.4009 H   0  0  0  0  0  0
  -22.8224  -29.2346   19.8318 H   0  0  0  0  0  0
  -25.1365  -36.1768   25.0791 H   0  0  0  0  0  0
  -21.0046  -28.3354   24.1334 H   0  0  0  0  0  0
  -20.5723  -26.2369   23.3661 H   0  0  0  0  0  0
  -21.6647  -26.7460   22.1194 H   0  0  0  0  0  0
  -19.6916  -25.6302   21.1277 H   0  0  0  0  0  0
  -19.6672  -27.3203   20.6768 H   0  0  0  0  0  0
  -17.4214  -26.6741   21.4023 H   0  0  0  0  0  0
  -18.0307  -26.0102   22.9051 H   0  0  0  0  0  0
  -19.7940  -30.7339   24.2268 H   0  0  0  0  0  0
  -17.4992  -31.6276   24.5155 H   0  0  0  0  0  0
  -15.5347  -30.2964   23.7691 H   0  0  0  0  0  0
  -15.8705  -28.0801   22.7129 H   0  0  0  0  0  0
  -24.5893  -30.7098   25.7605 H   0  0  0  0  0  0
  -24.8809  -32.2930   26.4668 H   0  0  0  0  0  0
  -25.7882  -30.8958   27.0197 H   0  0  0  0  0  0
  -26.3090  -29.6602   24.1457 H   0  0  0  0  0  0
  -27.3961  -29.7280   25.5093 H   0  0  0  0  0  0
  -27.9053  -30.4082   23.9864 H   0  0  0  0  0  0
  -27.2664  -33.3705   26.1957 H   0  0  0  0  0  0
  -28.3933  -32.6849   25.0368 H   0  0  0  0  0  0
  -28.0679  -31.8560   26.5511 H   0  0  0  0  0  0
  -28.2572  -38.0071   24.7537 H   0  0  0  0  0  0
  -28.1092  -36.2604   24.6261 H   0  0  0  0  0  0
  -27.2278  -37.1377   25.8853 H   0  0  0  0  0  0
  -20.9590  -29.8725   21.6682 H   0  0  0  0  0  0
  -26.0120  -38.2772   24.1416 H   0  0  0  0  0  0
  -25.4123  -19.9007   21.2270 H   0  0  0  0  0  0
  -26.8384  -19.9569   22.2470 H   0  0  0  0  0  0
  -26.7645  -18.8584   20.8561 H   0  0  0  0  0  0
  -26.6735  -19.7946   18.4924 H   0  0  0  0  0  0
  -27.1291  -21.4562   18.1765 H   0  0  0  0  0  0
  -25.5237  -21.0808   18.7826 H   0  0  0  0  0  0
  -26.5990  -23.7454   18.3032 H   0  0  0  0  0  0
  -28.2781  -23.5454   17.8497 H   0  0  0  0  0  0
  -27.6185  -25.1407   17.9687 H   0  0  0  0  0  0
  -28.9126  -18.1183   21.5770 H   0  0  0  0  0  0
  -30.5776  -18.2378   21.2048 H   0  0  0  0  0  0
  -28.8314  -19.3960   18.9391 H   0  0  0  0  0  0
  -30.2867  -19.9933   19.5498 H   0  0  0  0  0  0
  -29.6126  -22.9177   21.0147 H   0  0  0  0  0  0
  -29.7141  -22.6789   19.3349 H   0  0  0  0  0  0
  -26.6572  -21.8888   20.7046 H   0  0  0  0  0  0
  -27.0959  -24.0375   20.5281 H   0  0  0  0  0  0
  -28.6496  -16.1963   20.1296 H   0  0  0  0  0  0
  -28.7339  -21.0346   21.3983 H   0  0  0  0  0  0
  1 25  1  0  0  0
  1 30  2  0  0  0
  1 79  1  0  0  0
  2  3  1  0  0  0
  2 25  1  0  0  0
  2 81  1  0  0  0
  2 82  1  0  0  0
  3  4  1  0  0  0
  3 83  1  0  0  0
  3 84  1  0  0  0
  4  5  1  0  0  0
  4 85  1  0  0  0
  4 86  1  0  0  0
  5  6  1  0  0  0
  5 26  1  0  0  0
  5 87  1  0  0  0
  6 25  1  0  0  0
  6 88  1  0  0  0
  6 89  1  0  0  0
  7  8  2  0  0  0
  7 26  1  0  0  0
  7 29  1  0  0  0
  8  9  1  0  0  0
  8 22  1  0  0  0
  9 10  1  0  0  0
  9 27  2  0  0  0
 10 11  2  0  0  0
 10 15  1  0  0  0
 11 12  1  0  0  0
 11 90  1  0  0  0
 12 13  2  0  0  0
 12 91  1  0  0  0
 13 14  1  0  0  0
 13 31  1  0  0  0
 14 15  2  0  0  0
 14 92  1  0  0  0
 15 93  1  0  0  0
 16 17  2  0  0  0
 16 21  1  0  0  0
 16 31  1  0  0  0
 17 18  1  0  0  0
 17 94  1  0  0  0
 18 19  2  0  0  0
 18 95  1  0  0  0
 19 20  1  0  0  0
 19 24  1  0  0  0
 20 21  2  0  0  0
 20 96  1  0  0  0
 21 23  1  0  0  0
 22 28  1  0  0  0
 22 32  2  0  0  0
 26 27  1  0  0  0
 28 97  1  0  0  0
 28 98  1  0  0  0
 29 99  1  0  0  0
 29100  1  0  0  0
 33 34  1  0  0  0
 33 66  1  0  0  0
 33 70  2  0  0  0
 34 36  1  0  0  0
 34 59  1  0  0  0
 34101  1  0  0  0
 35 44  2  0  0  0
 35 45  1  0  0  0
 35 68  1  0  0  0
 36 56  1  0  0  0
 36102  1  0  0  0
 37 39  1  0  0  0
 37 47  1  0  0  0
 37 66  1  0  0  0
 37103  1  0  0  0
 38 43  2  0  0  0
 38 46  1  0  0  0
 38 47  1  0  0  0
 39 64  1  0  0  0
 39 67  2  0  0  0
 40 52  1  0  0  0
 40 53  2  0  0  0
 40 58  1  0  0  0
 41104  1  0  0  0
 41105  1  0  0  0
 41106  1  0  0  0
 41 48  1  0  0  0
 42 43  1  0  0  0
 42 66  1  0  0  0
 42107  1  0  0  0
 42108  1  0  0  0
 43 44  1  0  0  0
 44109  1  0  0  0
 45 46  2  0  0  0
 45110  1  0  0  0
 46111  1  0  0  0
 47112  1  0  0  0
 47113  1  0  0  0
 48 56  1  0  0  0
 48 65  1  0  0  0
 48114  1  0  0  0
 49 50  1  0  0  0
 49 53  1  0  0  0
 49 64  1  0  0  0
 49115  1  0  0  0
 50 51  1  0  0  0
 50116  1  0  0  0
 50117  1  0  0  0
 51 52  1  0  0  0
 51118  1  0  0  0
 51119  1  0  0  0
 52120  1  0  0  0
 52121  1  0  0  0
 53 54  1  0  0  0
 54 55  2  0  0  0
 54122  1  0  0  0
 55 57  1  0  0  0
 55123  1  0  0  0
 56 69  2  0  0  0
 57 58  2  0  0  0
 57124  1  0  0  0
 58125  1  0  0  0
 59 60  1  0  0  0
 59 61  1  0  0  0
 59 62  1  0  0  0
 60126  1  0  0  0
 60127  1  0  0  0
 60128  1  0  0  0
 61129  1  0  0  0
 61130  1  0  0  0
 61131  1  0  0  0
 62132  1  0  0  0
 62133  1  0  0  0
 62134  1  0  0  0
 63 65  1  0  0  0
 63135  1  0  0  0
 63136  1  0  0  0
 63137  1  0  0  0
 64138  1  0  0  0
 65139  1  0  0  0
 68 78  1  0  0  0
 71140  1  0  0  0
 71141  1  0  0  0
 71142  1  0  0  0
 71 77  1  0  0  0
 72 77  1  0  0  0
 72143  1  0  0  0
 72144  1  0  0  0
 72145  1  0  0  0
 73146  1  0  0  0
 73147  1  0  0  0
 73148  1  0  0  0
 73 78  1  0  0  0
 74 75  1  0  0  0
 74 79  1  0  0  0
 74149  1  0  0  0
 74150  1  0  0  0
 75151  1  0  0  0
 75152  1  0  0  0
 75 80  1  0  0  0
 76 78  1  0  0  0
 76 80  1  0  0  0
 76153  1  0  0  0
 76154  1  0  0  0
 77 80  1  0  0  0
 77155  1  0  0  0
 78156  1  0  0  0
 79157  1  0  0  0
 80158  1  0  0  0
M  CHG  1  80   1
M  ISO  4   1 100  68 101  78 101  79 100
M  END
> <chiral flag>
0

> <version>
0

> <s_m_source_file>
/data/baiqing/PycharmProjects/Reinvent-master-3.2/result/LINK_invent/BTK/process_docking_weight1_custom_sum_contain_oxygen_bond_distance_aromatic_linkinvent_7_9_3/rearranged_h_0107.sdf

> <i_m_source_file_index>
3

> <r_mmod_Potential_Energy-OPLS-2005>
1260.03295898438

> <r_mmod_Stretch_Energy-OPLS-2005>
633.935241699219

> <r_mmod_Bend_Energy-OPLS-2005>
481.595550537109

> <r_mmod_Torsional_Energy-OPLS-2005>
280.358276367188

> <r_mmod_Improper_Torsional_Energy-OPLS-2005>
5.23201847076416

> <r_mmod_Van_der_Waal_Energy-OPLS-2005>
116.86986541748

> <r_mmod_Electrostatic_Energy-OPLS-2005>
-255.27099609375

> <r_mmod_Solvation_Energy-OPLS-2005>
-447.163360595703

> <b_mmod_Minimization_Converged-OPLS-2005>
0

> <r_mmod_RMS_Derivative-OPLS-2005>
4.11148309707642

$$$$
3
                    3D
 Structure written by MMmdl.
162170  0  0  1  0            999 V2000
  -30.5890  -14.7741   20.3948 C   0  0  0  0  0  0
  -30.4413  -12.4542   19.4828 C   0  0  0  0  0  0
  -29.5212  -12.4488   18.2433 C   0  0  0  0  0  0
  -28.0402  -12.3036   18.6548 C   0  0  0  0  0  0
  -27.6343  -13.2246   19.8391 C   0  0  2  0  0  0
  -28.6816  -13.1878   20.9675 C   0  0  0  0  0  0
  -25.2487  -13.8201   20.5673 C   0  0  0  0  0  0
  -24.1776  -13.0473   20.9194 C   0  0  0  0  0  0
  -24.6362  -11.6942   20.8761 C   0  0  0  0  0  0
  -23.9044  -10.4325   21.0416 C   0  0  0  0  0  0
  -24.3601   -9.4238   21.9188 C   0  0  0  0  0  0
  -23.6283   -8.2270   22.0766 C   0  0  0  0  0  0
  -22.4271   -8.0291   21.3552 C   0  0  0  0  0  0
  -21.9896   -9.0259   20.4646 C   0  0  0  0  0  0
  -22.7223  -10.2151   20.3050 C   0  0  0  0  0  0
  -21.6843   -6.0749   22.5296 C   0  0  0  0  0  0
  -21.4015   -6.5649   23.8229 C   0  0  0  0  0  0
  -21.3650   -5.6797   24.9184 C   0  0  0  0  0  0
  -21.6034   -4.3058   24.7229 C   0  0  0  0  0  0
  -21.8816   -3.8162   23.4344 C   0  0  0  0  0  0
  -21.9198   -4.6983   22.3408 C   0  0  0  0  0  0
  -22.7781  -13.5245   21.1835 C   0  0  0  0  0  0
  -22.1655   -4.2171   21.0980 F   0  0  0  0  0  0
  -21.5619   -3.4539   25.7734 F   0  0  0  0  0  0
  -29.9695  -13.5433   20.3637 N   0  0  0  0  0  0
  -26.2894  -12.9382   20.3257 N   0  0  0  0  0  0
  -25.9289  -11.6546   20.5772 N   0  0  0  0  0  0
  -22.0417  -12.8268   22.0392 N   0  0  0  0  0  0
  -25.4213  -15.1929   20.4071 N   0  0  0  0  0  0
  -31.8183  -14.8278   20.2798 O   0  0  0  0  0  0
  -21.6635   -6.8894   21.4253 O   0  0  0  0  0  0
  -22.3471  -14.5543   20.6650 O   0  0  0  0  0  0
  -24.6284  -31.8494   23.1941 C   0  0  0  0  0  0
  -25.9140  -32.4677   23.8258 C   0  0  1  0  0  0
  -27.2266  -27.2727   20.1048 C   0  0  0  0  0  0
  -25.5934  -33.8482   24.2161 N   0  0  0  0  0  0
  -23.4241  -30.4764   21.5321 C   0  0  2  0  0  0
  -24.8719  -28.9220   20.0987 C   0  0  0  0  0  0
  -22.7478  -29.4582   22.4817 C   0  0  0  0  0  0
  -18.0289  -28.1369   22.8420 C   0  0  0  0  0  0
  -24.1523  -36.7298   23.2637 C   0  0  0  0  0  0
  -25.9659  -30.7683   21.3713 C   0  0  0  0  0  0
  -26.0374  -29.3898   20.7142 C   0  0  0  0  0  0
  -27.2096  -28.5707   20.7158 C   0  0  0  0  0  0
  -26.0332  -26.8630   19.4703 C   0  0  0  0  0  0
  -24.8728  -27.6664   19.4692 C   0  0  0  0  0  0
  -23.6435  -29.8102   20.1448 C   0  0  0  0  0  0
  -25.4129  -36.2993   24.0283 C   0  0  1  0  0  0
  -20.5888  -28.3677   23.1206 C   0  0  2  0  0  0
  -20.6777  -26.9393   22.5375 C   0  0  0  0  0  0
  -19.5783  -26.6360   21.5149 C   0  0  0  0  0  0
  -18.1957  -26.7902   22.1562 C   0  0  0  0  0  0
  -19.1545  -28.8843   23.2804 C   0  0  0  0  0  0
  -18.9483  -30.1434   23.8837 C   0  0  0  0  0  0
  -17.6497  -30.6564   24.0566 C   0  0  0  0  0  0
  -25.9072  -34.9380   23.5030 C   0  0  0  0  0  0
  -16.5376  -29.9079   23.6320 C   0  0  0  0  0  0
  -16.7285  -28.6516   23.0278 C   0  0  0  0  0  0
  -26.4574  -31.6500   25.0643 C   0  0  0  0  0  0
  -25.3832  -31.3627   26.1390 C   0  0  0  0  0  0
  -27.0419  -30.2910   24.6084 C   0  0  0  0  0  0
  -27.6082  -32.4267   25.7446 C   0  0  0  0  0  0
  -27.5572  -37.1792   24.8446 C   0  0  0  0  0  0
  -21.4175  -29.3029   22.3590 N   0  0  0  0  0  0
  -26.4279  -37.3701   23.9391 N   0  0  0  0  0  0
  -24.6908  -31.0491   22.0894 N   0  0  0  0  0  0
  -23.4191  -28.8102   23.2905 O   0  0  0  0  0  0
  -28.3627  -26.4373   20.1809 O   0  0  0  0  0  0
  -26.5657  -34.8866   22.4603 O   0  0  0  0  0  0
  -23.5448  -32.1319   23.7263 O   0  0  0  0  0  0
  -29.5313  -22.3627   18.4434 C   0  0  0  0  0  0
  -30.1151  -21.2300   17.8491 C   0  0  0  0  0  0
  -29.3039  -21.0819   20.4977 C   0  0  0  0  0  0
  -29.1524  -22.3559   19.8007 C   0  0  0  0  0  0
  -30.3433  -20.0332   18.5646 C   0  0  0  0  0  0
  -29.8739  -19.8769   19.9019 C   0  0  0  0  0  0
  -31.1939  -18.9970   17.8514 C   0  0  0  0  0  0
  -28.7707  -16.8031   22.0157 C   0  0  0  0  0  0
  -29.7770  -16.0047   18.4846 C   0  0  0  0  0  0
  -28.6482  -23.7225   20.4599 C   0  0  0  0  0  0
  -30.1874  -18.5224   20.7078 C   0  0  0  0  0  0
  -28.4802  -25.0715   19.5708 C   0  0  0  0  0  0
  -29.3025  -17.1585   20.6141 C   0  0  1  0  0  0
  -29.8421  -15.8737   19.9481 N   0  0  0  0  0  0
  -31.4797  -12.5961   19.1785 H   0  0  0  0  0  0
  -30.4080  -11.4950   20.0039 H   0  0  0  0  0  0
  -29.8022  -11.6322   17.5770 H   0  0  0  0  0  0
  -29.6718  -13.3588   17.6675 H   0  0  0  0  0  0
  -27.8943  -11.2631   18.9437 H   0  0  0  0  0  0
  -27.3852  -12.4684   17.7991 H   0  0  0  0  0  0
  -27.6111  -14.2394   19.4474 H   0  0  0  0  0  0
  -28.7250  -12.1966   21.4229 H   0  0  0  0  0  0
  -28.4158  -13.8815   21.7648 H   0  0  0  0  0  0
  -25.2747   -9.5734   22.4756 H   0  0  0  0  0  0
  -24.0002   -7.4671   22.7491 H   0  0  0  0  0  0
  -21.0833   -8.8772   19.8937 H   0  0  0  0  0  0
  -22.3678  -10.9679   19.6149 H   0  0  0  0  0  0
  -21.2010   -7.6158   23.9743 H   0  0  0  0  0  0
  -21.1452   -6.0518   25.9089 H   0  0  0  0  0  0
  -22.0600   -2.7626   23.2839 H   0  0  0  0  0  0
  -22.3985  -11.9935   22.4830 H   0  0  0  0  0  0
  -21.1025  -13.1299   22.2560 H   0  0  0  0  0  0
  -24.6603  -15.8552   20.5130 H   0  0  0  0  0  0
  -26.2888  -15.6299   20.1223 H   0  0  0  0  0  0
  -26.7181  -32.5375   23.0977 H   0  0  0  0  0  0
  -25.0036  -33.9615   25.0262 H   0  0  0  0  0  0
  -22.7183  -31.2964   21.3841 H   0  0  0  0  0  0
  -23.3705  -35.9720   23.3258 H   0  0  0  0  0  0
  -24.3623  -36.8995   22.2070 H   0  0  0  0  0  0
  -23.7380  -37.6512   23.6726 H   0  0  0  0  0  0
  -26.0925  -31.5294   20.6001 H   0  0  0  0  0  0
  -26.8479  -30.8229   21.9970 H   0  0  0  0  0  0
  -28.0990  -28.9158   21.2225 H   0  0  0  0  0  0
  -25.9526  -25.9063   18.9809 H   0  0  0  0  0  0
  -23.9802  -27.3033   18.9803 H   0  0  0  0  0  0
  -23.7711  -30.5884   19.3895 H   0  0  0  0  0  0
  -22.7647  -29.2411   19.8358 H   0  0  0  0  0  0
  -25.1322  -36.1798   25.0765 H   0  0  0  0  0  0
  -20.9957  -28.3293   24.1328 H   0  0  0  0  0  0
  -20.5620  -26.2316   23.3595 H   0  0  0  0  0  0
  -21.6665  -26.7399   22.1230 H   0  0  0  0  0  0
  -19.6965  -25.6258   21.1203 H   0  0  0  0  0  0
  -19.6743  -27.3145   20.6663 H   0  0  0  0  0  0
  -17.4212  -26.6562   21.3981 H   0  0  0  0  0  0
  -18.0422  -26.0069   22.8998 H   0  0  0  0  0  0
  -19.7994  -30.7217   24.2183 H   0  0  0  0  0  0
  -17.5091  -31.6253   24.5167 H   0  0  0  0  0  0
  -15.5379  -30.2980   23.7687 H   0  0  0  0  0  0
  -15.8674  -28.0873   22.6930 H   0  0  0  0  0  0
  -24.6031  -30.6930   25.7753 H   0  0  0  0  0  0
  -24.9037  -32.2806   26.4791 H   0  0  0  0  0  0
  -25.8246  -30.8862   27.0148 H   0  0  0  0  0  0
  -26.2959  -29.6591   24.1253 H   0  0  0  0  0  0
  -27.4258  -29.7235   25.4566 H   0  0  0  0  0  0
  -27.8771  -30.4141   23.9181 H   0  0  0  0  0  0
  -27.2610  -33.3554   26.1959 H   0  0  0  0  0  0
  -28.3955  -32.6808   25.0339 H   0  0  0  0  0  0
  -28.0650  -31.8420   26.5433 H   0  0  0  0  0  0
  -28.2522  -38.0150   24.7465 H   0  0  0  0  0  0
  -28.1127  -36.2657   24.6268 H   0  0  0  0  0  0
  -27.2299  -37.1430   25.8855 H   0  0  0  0  0  0
  -20.9305  -29.8826   21.6879 H   0  0  0  0  0  0
  -26.0123  -38.2741   24.1416 H   0  0  0  0  0  0
  -29.4346  -23.2558   17.8397 H   0  0  0  0  0  0
  -30.4494  -21.3015   16.8222 H   0  0  0  0  0  0
  -29.0234  -21.0395   21.5424 H   0  0  0  0  0  0
  -30.6909  -18.6533   16.9450 H   0  0  0  0  0  0
  -31.4523  -18.1343   18.4607 H   0  0  0  0  0  0
  -32.1425  -19.4455   17.5518 H   0  0  0  0  0  0
  -28.3605  -17.6769   22.5245 H   0  0  0  0  0  0
  -29.5597  -16.3962   22.6488 H   0  0  0  0  0  0
  -27.9612  -16.0754   21.9578 H   0  0  0  0  0  0
  -29.5360  -17.0129   18.1646 H   0  0  0  0  0  0
  -28.9797  -15.3909   18.0754 H   0  0  0  0  0  0
  -30.7108  -15.7107   17.9970 H   0  0  0  0  0  0
  -29.3426  -23.9479   21.2699 H   0  0  0  0  0  0
  -27.6936  -23.5122   20.9404 H   0  0  0  0  0  0
  -30.1528  -18.8544   21.7463 H   0  0  0  0  0  0
  -31.2381  -18.2581   20.5910 H   0  0  0  0  0  0
  -27.7341  -24.8914   18.7989 H   0  0  0  0  0  0
  -29.4028  -25.1722   18.9992 H   0  0  0  0  0  0
  -28.4089  -17.4413   20.0526 H   0  0  0  0  0  0
  1 25  1  0  0  0
  1 30  2  0  0  0
  1 84  1  0  0  0
  2  3  1  0  0  0
  2 25  1  0  0  0
  2 85  1  0  0  0
  2 86  1  0  0  0
  3  4  1  0  0  0
  3 87  1  0  0  0
  3 88  1  0  0  0
  4  5  1  0  0  0
  4 89  1  0  0  0
  4 90  1  0  0  0
  5  6  1  0  0  0
  5 26  1  0  0  0
  5 91  1  0  0  0
  6 25  1  0  0  0
  6 92  1  0  0  0
  6 93  1  0  0  0
  7  8  2  0  0  0
  7 26  1  0  0  0
  7 29  1  0  0  0
  8  9  1  0  0  0
  8 22  1  0  0  0
  9 10  1  0  0  0
  9 27  2  0  0  0
 10 11  2  0  0  0
 10 15  1  0  0  0
 11 12  1  0  0  0
 11 94  1  0  0  0
 12 13  2  0  0  0
 12 95  1  0  0  0
 13 14  1  0  0  0
 13 31  1  0  0  0
 14 15  2  0  0  0
 14 96  1  0  0  0
 15 97  1  0  0  0
 16 17  2  0  0  0
 16 21  1  0  0  0
 16 31  1  0  0  0
 17 18  1  0  0  0
 17 98  1  0  0  0
 18 19  2  0  0  0
 18 99  1  0  0  0
 19 20  1  0  0  0
 19 24  1  0  0  0
 20 21  2  0  0  0
 20100  1  0  0  0
 21 23  1  0  0  0
 22 28  1  0  0  0
 22 32  2  0  0  0
 26 27  1  0  0  0
 28101  1  0  0  0
 28102  1  0  0  0
 29103  1  0  0  0
 29104  1  0  0  0
 33 34  1  0  0  0
 33 66  1  0  0  0
 33 70  2  0  0  0
 34 36  1  0  0  0
 34 59  1  0  0  0
 34105  1  0  0  0
 35 44  2  0  0  0
 35 45  1  0  0  0
 35 68  1  0  0  0
 36 56  1  0  0  0
 36106  1  0  0  0
 37 39  1  0  0  0
 37 47  1  0  0  0
 37 66  1  0  0  0
 37107  1  0  0  0
 38 43  2  0  0  0
 38 46  1  0  0  0
 38 47  1  0  0  0
 39 64  1  0  0  0
 39 67  2  0  0  0
 40 52  1  0  0  0
 40 53  2  0  0  0
 40 58  1  0  0  0
 41108  1  0  0  0
 41109  1  0  0  0
 41110  1  0  0  0
 41 48  1  0  0  0
 42 43  1  0  0  0
 42 66  1  0  0  0
 42111  1  0  0  0
 42112  1  0  0  0
 43 44  1  0  0  0
 44113  1  0  0  0
 45 46  2  0  0  0
 45114  1  0  0  0
 46115  1  0  0  0
 47116  1  0  0  0
 47117  1  0  0  0
 48 56  1  0  0  0
 48 65  1  0  0  0
 48118  1  0  0  0
 49 50  1  0  0  0
 49 53  1  0  0  0
 49 64  1  0  0  0
 49119  1  0  0  0
 50 51  1  0  0  0
 50120  1  0  0  0
 50121  1  0  0  0
 51 52  1  0  0  0
 51122  1  0  0  0
 51123  1  0  0  0
 52124  1  0  0  0
 52125  1  0  0  0
 53 54  1  0  0  0
 54 55  2  0  0  0
 54126  1  0  0  0
 55 57  1  0  0  0
 55127  1  0  0  0
 56 69  2  0  0  0
 57 58  2  0  0  0
 57128  1  0  0  0
 58129  1  0  0  0
 59 60  1  0  0  0
 59 61  1  0  0  0
 59 62  1  0  0  0
 60130  1  0  0  0
 60131  1  0  0  0
 60132  1  0  0  0
 61133  1  0  0  0
 61134  1  0  0  0
 61135  1  0  0  0
 62136  1  0  0  0
 62137  1  0  0  0
 62138  1  0  0  0
 63 65  1  0  0  0
 63139  1  0  0  0
 63140  1  0  0  0
 63141  1  0  0  0
 64142  1  0  0  0
 65143  1  0  0  0
 68 82  1  0  0  0
 71 72  2  0  0  0
 71 74  1  0  0  0
 71144  1  0  0  0
 72 75  1  0  0  0
 72145  1  0  0  0
 73 74  2  0  0  0
 73 76  1  0  0  0
 73146  1  0  0  0
 74 80  1  0  0  0
 75 76  2  0  0  0
 75 77  1  0  0  0
 76 81  1  0  0  0
 77147  1  0  0  0
 77148  1  0  0  0
 77149  1  0  0  0
 78150  1  0  0  0
 78151  1  0  0  0
 78152  1  0  0  0
 78 83  1  0  0  0
 79 84  1  0  0  0
 79153  1  0  0  0
 79154  1  0  0  0
 79155  1  0  0  0
 80 82  1  0  0  0
 80156  1  0  0  0
 80157  1  0  0  0
 81 83  1  0  0  0
 81158  1  0  0  0
 81159  1  0  0  0
 82160  1  0  0  0
 82161  1  0  0  0
 83 84  1  0  0  0
 83162  1  0  0  0
M  ISO  4   1 100  68 101  82 101  84 100
M  END
> <chiral flag>
0

> <version>
0

> <s_m_source_file>
/data/baiqing/PycharmProjects/Reinvent-master-3.2/result/LINK_invent/BTK/process_docking_weight1_custom_sum_contain_oxygen_bond_distance_aromatic_linkinvent_7_9_3/rearranged_h_0107.sdf

> <i_m_source_file_index>
4

> <r_mmod_Potential_Energy-OPLS-2005>
451.613006591797

> <r_mmod_Stretch_Energy-OPLS-2005>
136.085433959961

> <r_mmod_Bend_Energy-OPLS-2005>
205.191497802734

> <r_mmod_Torsional_Energy-OPLS-2005>
321.660888671875

> <r_mmod_Improper_Torsional_Energy-OPLS-2005>
22.9835948944092

> <r_mmod_Van_der_Waal_Energy-OPLS-2005>
139.581619262695

> <r_mmod_Electrostatic_Energy-OPLS-2005>
-279.871276855469

> <r_mmod_Solvation_Energy-OPLS-2005>
-188.889297485352

> <b_mmod_Minimization_Converged-OPLS-2005>
0

> <r_mmod_RMS_Derivative-OPLS-2005>
4.16780424118042

$$$$
4
                    3D
 Structure written by MMmdl.
167176  0  0  1  0            999 V2000
  -30.7147  -14.4138   20.5565 C   0  0  0  0  0  0
  -30.4213  -12.2642   19.4102 C   0  0  0  0  0  0
  -29.4899  -12.4836   18.1997 C   0  0  0  0  0  0
  -28.0101  -12.3683   18.6140 C   0  0  0  0  0  0
  -27.6681  -13.2007   19.8794 C   0  0  2  0  0  0
  -28.7097  -12.9512   20.9946 C   0  0  0  0  0  0
  -25.2629  -13.8159   20.5690 C   0  0  0  0  0  0
  -24.1863  -13.0439   20.9156 C   0  0  0  0  0  0
  -24.6395  -11.6902   20.8729 C   0  0  0  0  0  0
  -23.9047  -10.4303   21.0406 C   0  0  0  0  0  0
  -24.3606   -9.4221   21.9185 C   0  0  0  0  0  0
  -23.6309   -8.2242   22.0740 C   0  0  0  0  0  0
  -22.4305   -8.0270   21.3518 C   0  0  0  0  0  0
  -21.9923   -9.0249   20.4630 C   0  0  0  0  0  0
  -22.7218  -10.2146   20.3050 C   0  0  0  0  0  0
  -21.6862   -6.0723   22.5275 C   0  0  0  0  0  0
  -21.4013   -6.5630   23.8206 C   0  0  0  0  0  0
  -21.3660   -5.6783   24.9174 C   0  0  0  0  0  0
  -21.6065   -4.3048   24.7222 C   0  0  0  0  0  0
  -21.8827   -3.8129   23.4341 C   0  0  0  0  0  0
  -21.9192   -4.6948   22.3398 C   0  0  0  0  0  0
  -22.7891  -13.5244   21.1823 C   0  0  0  0  0  0
  -22.1663   -4.2140   21.0970 F   0  0  0  0  0  0
  -21.5650   -3.4536   25.7736 F   0  0  0  0  0  0
  -30.0493  -13.2362   20.4466 N   0  0  0  0  0  0
  -26.3068  -12.9312   20.3401 N   0  0  0  0  0  0
  -25.9325  -11.6473   20.5771 N   0  0  0  0  0  0
  -22.0507  -12.8254   22.0373 N   0  0  0  0  0  0
  -25.4369  -15.1882   20.4157 N   0  0  0  0  0  0
  -31.8517  -14.5982   20.1117 O   0  0  0  0  0  0
  -21.6666   -6.8868   21.4230 O   0  0  0  0  0  0
  -22.3596  -14.5561   20.6680 O   0  0  0  0  0  0
  -24.6134  -31.8718   23.2151 C   0  0  0  0  0  0
  -25.9044  -32.4843   23.8432 C   0  0  1  0  0  0
  -27.2256  -27.4617   20.0786 C   0  0  0  0  0  0
  -25.5926  -33.8641   24.2364 N   0  0  0  0  0  0
  -23.3983  -30.5000   21.5553 C   0  0  2  0  0  0
  -24.8425  -28.9807   20.1102 C   0  0  0  0  0  0
  -22.7403  -29.4685   22.5001 C   0  0  0  0  0  0
  -18.0279  -28.1357   22.8491 C   0  0  0  0  0  0
  -24.1488  -36.7306   23.2635 C   0  0  0  0  0  0
  -25.9284  -30.8459   21.3666 C   0  0  0  0  0  0
  -26.0060  -29.4883   20.7026 C   0  0  0  0  0  0
  -27.2043  -28.7378   20.6816 C   0  0  0  0  0  0
  -26.0414  -26.9730   19.4769 C   0  0  0  0  0  0
  -24.8540  -27.7196   19.4957 C   0  0  0  0  0  0
  -23.6033  -29.8424   20.1667 C   0  0  0  0  0  0
  -25.4108  -36.3114   24.0339 C   0  0  1  0  0  0
  -20.5868  -28.3653   23.1307 C   0  0  2  0  0  0
  -20.6772  -26.9389   22.5400 C   0  0  0  0  0  0
  -19.5753  -26.6376   21.5191 C   0  0  0  0  0  0
  -18.1923  -26.7915   22.1592 C   0  0  0  0  0  0
  -19.1521  -28.8821   23.2903 C   0  0  0  0  0  0
  -18.9454  -30.1431   23.8909 C   0  0  0  0  0  0
  -17.6456  -30.6565   24.0561 C   0  0  0  0  0  0
  -25.9036  -34.9484   23.5138 C   0  0  0  0  0  0
  -16.5351  -29.9063   23.6322 C   0  0  0  0  0  0
  -16.7268  -28.6477   23.0347 C   0  0  0  0  0  0
  -26.4485  -31.6609   25.0748 C   0  0  0  0  0  0
  -25.3772  -31.3703   26.1510 C   0  0  0  0  0  0
  -27.0310  -30.3053   24.6110 C   0  0  0  0  0  0
  -27.6071  -32.4324   25.7506 C   0  0  0  0  0  0
  -27.5581  -37.1811   24.8469 C   0  0  0  0  0  0
  -21.4133  -29.3034   22.3725 N   0  0  0  0  0  0
  -26.4294  -37.3799   23.9408 N   0  0  0  0  0  0
  -24.6645  -31.0846   22.1042 N   0  0  0  0  0  0
  -23.4192  -28.8219   23.3019 O   0  0  0  0  0  0
  -28.3722  -26.6927   20.1201 O   0  0  0  0  0  0
  -26.5575  -34.8927   22.4687 O   0  0  0  0  0  0
  -23.5332  -32.1463   23.7561 O   0  0  0  0  0  0
  -29.1347  -17.6087   21.3526 C   0  0  0  0  0  0
  -29.6241  -18.4970   19.3536 C   0  0  0  0  0  0
  -28.9707  -18.7635   20.5292 C   0  0  0  0  0  0
  -29.8145  -16.6757   20.6252 C   0  0  0  0  0  0
  -29.1530  -24.8367   21.5585 C   0  0  0  0  0  0
  -28.1581  -24.3274   19.3817 C   0  0  0  0  0  0
  -28.6704  -23.4888   22.1425 C   0  0  0  0  0  0
  -27.5662  -23.0005   19.8877 C   0  0  0  0  0  0
  -28.1389  -25.3377   20.5325 C   0  0  2  0  0  0
  -27.2689  -19.8153   22.0714 C   0  0  0  0  0  0
  -30.7688  -16.5948   18.2214 C   0  0  0  0  0  0
  -29.0563  -21.2815   20.9484 C   0  0  0  0  0  0
  -28.1712  -20.0137   20.8344 C   0  0  1  0  0  0
  -30.1206  -17.2057   19.3711 N   0  0  0  0  0  0
  -29.9929  -15.4081   21.0891 N   0  0  0  0  0  0
  -28.2013  -22.4812   21.1378 N   0  3  1  0  0  0
  -31.4669  -12.3486   19.1090 H   0  0  0  0  0  0
  -30.3089  -11.2515   19.7983 H   0  0  0  0  0  0
  -29.7136  -11.7571   17.4173 H   0  0  0  0  0  0
  -29.6692  -13.4629   17.7590 H   0  0  0  0  0  0
  -27.7984  -11.3135   18.7949 H   0  0  0  0  0  0
  -27.3680  -12.6647   17.7842 H   0  0  0  0  0  0
  -27.7199  -14.2526   19.5972 H   0  0  0  0  0  0
  -28.6674  -11.9116   21.3218 H   0  0  0  0  0  0
  -28.4819  -13.5427   21.8831 H   0  0  0  0  0  0
  -25.2734   -9.5734   22.4787 H   0  0  0  0  0  0
  -24.0012   -7.4645   22.7479 H   0  0  0  0  0  0
  -21.0832   -8.8750   19.8962 H   0  0  0  0  0  0
  -22.3629  -10.9686   19.6185 H   0  0  0  0  0  0
  -21.2003   -7.6137   23.9720 H   0  0  0  0  0  0
  -21.1474   -6.0498   25.9082 H   0  0  0  0  0  0
  -22.0603   -2.7588   23.2833 H   0  0  0  0  0  0
  -22.4110  -11.9923   22.4784 H   0  0  0  0  0  0
  -21.1132  -13.1301   22.2579 H   0  0  0  0  0  0
  -24.6752  -15.8470   20.5337 H   0  0  0  0  0  0
  -26.3051  -15.6300   20.1372 H   0  0  0  0  0  0
  -26.7123  -32.5568   23.1205 H   0  0  0  0  0  0
  -25.0142  -33.9820   25.0553 H   0  0  0  0  0  0
  -22.6858  -31.3176   21.4230 H   0  0  0  0  0  0
  -23.3753  -35.9639   23.3317 H   0  0  0  0  0  0
  -24.3584  -36.8893   22.2045 H   0  0  0  0  0  0
  -23.7239  -37.6521   23.6631 H   0  0  0  0  0  0
  -26.0465  -31.6200   20.6070 H   0  0  0  0  0  0
  -26.8141  -30.8892   21.9884 H   0  0  0  0  0  0
  -28.1010  -29.1211   21.1491 H   0  0  0  0  0  0
  -26.0075  -26.0098   18.9952 H   0  0  0  0  0  0
  -23.9593  -27.3219   19.0365 H   0  0  0  0  0  0
  -23.7093  -30.6229   19.4117 H   0  0  0  0  0  0
  -22.7278  -29.2620   19.8708 H   0  0  0  0  0  0
  -25.1281  -36.1987   25.0831 H   0  0  0  0  0  0
  -20.9977  -28.3203   24.1420 H   0  0  0  0  0  0
  -20.5654  -26.2253   23.3578 H   0  0  0  0  0  0
  -21.6644  -26.7412   22.1200 H   0  0  0  0  0  0
  -19.6903  -25.6290   21.1203 H   0  0  0  0  0  0
  -19.6695  -27.3197   20.6730 H   0  0  0  0  0  0
  -17.4206  -26.6711   21.3974 H   0  0  0  0  0  0
  -18.0299  -26.0028   22.8950 H   0  0  0  0  0  0
  -19.7931  -30.7246   24.2273 H   0  0  0  0  0  0
  -17.5007  -31.6246   24.5152 H   0  0  0  0  0  0
  -15.5349  -30.2964   23.7623 H   0  0  0  0  0  0
  -15.8677  -28.0794   22.7045 H   0  0  0  0  0  0
  -24.5948  -30.7039   25.7856 H   0  0  0  0  0  0
  -24.8962  -32.2853   26.4984 H   0  0  0  0  0  0
  -25.8146  -30.8867   27.0253 H   0  0  0  0  0  0
  -26.2847  -29.6829   24.1150 H   0  0  0  0  0  0
  -27.4075  -29.7273   25.4560 H   0  0  0  0  0  0
  -27.8692  -30.4373   23.9262 H   0  0  0  0  0  0
  -27.2702  -33.3614   26.2121 H   0  0  0  0  0  0
  -28.3863  -32.6901   25.0319 H   0  0  0  0  0  0
  -28.0767  -31.8431   26.5392 H   0  0  0  0  0  0
  -28.2607  -38.0099   24.7508 H   0  0  0  0  0  0
  -28.1066  -36.2632   24.6302 H   0  0  0  0  0  0
  -27.2300  -37.1471   25.8873 H   0  0  0  0  0  0
  -20.9275  -29.8795   21.6997 H   0  0  0  0  0  0
  -26.0186  -38.2881   24.1407 H   0  0  0  0  0  0
  -28.7411  -17.4572   22.3482 H   0  0  0  0  0  0
  -29.7299  -19.1023   18.4627 H   0  0  0  0  0  0
  -30.1407  -24.7350   21.1084 H   0  0  0  0  0  0
  -29.2541  -25.5619   22.3665 H   0  0  0  0  0  0
  -27.5859  -24.6750   18.5232 H   0  0  0  0  0  0
  -29.1748  -24.1813   19.0142 H   0  0  0  0  0  0
  -27.8157  -23.6945   22.7874 H   0  0  0  0  0  0
  -29.4297  -23.0751   22.8053 H   0  0  0  0  0  0
  -27.6046  -22.2587   19.0902 H   0  0  0  0  0  0
  -26.5053  -23.1481   20.0948 H   0  0  0  0  0  0
  -27.1705  -25.2834   21.0373 H   0  0  0  0  0  0
  -26.6344  -18.9356   21.9498 H   0  0  0  0  0  0
  -26.5963  -20.6567   22.2357 H   0  0  0  0  0  0
  -27.8537  -19.6777   22.9820 H   0  0  0  0  0  0
  -30.6091  -17.1997   17.3278 H   0  0  0  0  0  0
  -30.3488  -15.6098   18.0321 H   0  0  0  0  0  0
  -31.8424  -16.5104   18.3894 H   0  0  0  0  0  0
  -29.6837  -21.4114   20.0647 H   0  0  0  0  0  0
  -29.7355  -21.1487   21.7904 H   0  0  0  0  0  0
  -27.5069  -20.1312   19.9771 H   0  0  0  0  0  0
  -29.2532  -15.0800   21.6921 H   0  0  0  0  0  0
  -27.4286  -22.0518   21.6280 H   0  0  0  0  0  0
  1 25  1  0  0  0
  1 30  2  0  0  0
  1 85  1  0  0  0
  2  3  1  0  0  0
  2 25  1  0  0  0
  2 87  1  0  0  0
  2 88  1  0  0  0
  3  4  1  0  0  0
  3 89  1  0  0  0
  3 90  1  0  0  0
  4  5  1  0  0  0
  4 91  1  0  0  0
  4 92  1  0  0  0
  5  6  1  0  0  0
  5 26  1  0  0  0
  5 93  1  0  0  0
  6 25  1  0  0  0
  6 94  1  0  0  0
  6 95  1  0  0  0
  7  8  2  0  0  0
  7 26  1  0  0  0
  7 29  1  0  0  0
  8  9  1  0  0  0
  8 22  1  0  0  0
  9 10  1  0  0  0
  9 27  2  0  0  0
 10 11  2  0  0  0
 10 15  1  0  0  0
 11 12  1  0  0  0
 11 96  1  0  0  0
 12 13  2  0  0  0
 12 97  1  0  0  0
 13 14  1  0  0  0
 13 31  1  0  0  0
 14 15  2  0  0  0
 14 98  1  0  0  0
 15 99  1  0  0  0
 16 17  2  0  0  0
 16 21  1  0  0  0
 16 31  1  0  0  0
 17 18  1  0  0  0
 17100  1  0  0  0
 18 19  2  0  0  0
 18101  1  0  0  0
 19 20  1  0  0  0
 19 24  1  0  0  0
 20 21  2  0  0  0
 20102  1  0  0  0
 21 23  1  0  0  0
 22 28  1  0  0  0
 22 32  2  0  0  0
 26 27  1  0  0  0
 28103  1  0  0  0
 28104  1  0  0  0
 29105  1  0  0  0
 29106  1  0  0  0
 33 34  1  0  0  0
 33 66  1  0  0  0
 33 70  2  0  0  0
 34 36  1  0  0  0
 34 59  1  0  0  0
 34107  1  0  0  0
 35 44  2  0  0  0
 35 45  1  0  0  0
 35 68  1  0  0  0
 36 56  1  0  0  0
 36108  1  0  0  0
 37 39  1  0  0  0
 37 47  1  0  0  0
 37 66  1  0  0  0
 37109  1  0  0  0
 38 43  2  0  0  0
 38 46  1  0  0  0
 38 47  1  0  0  0
 39 64  1  0  0  0
 39 67  2  0  0  0
 40 52  1  0  0  0
 40 53  2  0  0  0
 40 58  1  0  0  0
 41110  1  0  0  0
 41111  1  0  0  0
 41112  1  0  0  0
 41 48  1  0  0  0
 42 43  1  0  0  0
 42 66  1  0  0  0
 42113  1  0  0  0
 42114  1  0  0  0
 43 44  1  0  0  0
 44115  1  0  0  0
 45 46  2  0  0  0
 45116  1  0  0  0
 46117  1  0  0  0
 47118  1  0  0  0
 47119  1  0  0  0
 48 56  1  0  0  0
 48 65  1  0  0  0
 48120  1  0  0  0
 49 50  1  0  0  0
 49 53  1  0  0  0
 49 64  1  0  0  0
 49121  1  0  0  0
 50 51  1  0  0  0
 50122  1  0  0  0
 50123  1  0  0  0
 51 52  1  0  0  0
 51124  1  0  0  0
 51125  1  0  0  0
 52126  1  0  0  0
 52127  1  0  0  0
 53 54  1  0  0  0
 54 55  2  0  0  0
 54128  1  0  0  0
 55 57  1  0  0  0
 55129  1  0  0  0
 56 69  2  0  0  0
 57 58  2  0  0  0
 57130  1  0  0  0
 58131  1  0  0  0
 59 60  1  0  0  0
 59 61  1  0  0  0
 59 62  1  0  0  0
 60132  1  0  0  0
 60133  1  0  0  0
 60134  1  0  0  0
 61135  1  0  0  0
 61136  1  0  0  0
 61137  1  0  0  0
 62138  1  0  0  0
 62139  1  0  0  0
 62140  1  0  0  0
 63 65  1  0  0  0
 63141  1  0  0  0
 63142  1  0  0  0
 63143  1  0  0  0
 64144  1  0  0  0
 65145  1  0  0  0
 68 79  1  0  0  0
 71 73  1  0  0  0
 71 74  2  0  0  0
 71146  1  0  0  0
 72 73  2  0  0  0
 72 84  1  0  0  0
 72147  1  0  0  0
 73 83  1  0  0  0
 74 84  1  0  0  0
 74 85  1  0  0  0
 75 77  1  0  0  0
 75 79  1  0  0  0
 75148  1  0  0  0
 75149  1  0  0  0
 76 78  1  0  0  0
 76 79  1  0  0  0
 76150  1  0  0  0
 76151  1  0  0  0
 77 86  1  0  0  0
 77152  1  0  0  0
 77153  1  0  0  0
 78 86  1  0  0  0
 78154  1  0  0  0
 78155  1  0  0  0
 79156  1  0  0  0
 80157  1  0  0  0
 80158  1  0  0  0
 80159  1  0  0  0
 80 83  1  0  0  0
 81 84  1  0  0  0
 81160  1  0  0  0
 81161  1  0  0  0
 81162  1  0  0  0
 82 83  1  0  0  0
 82163  1  0  0  0
 82164  1  0  0  0
 82 86  1  0  0  0
 83165  1  0  0  0
 85166  1  0  0  0
 86167  1  0  0  0
M  CHG  1  86   1
M  ISO  4   1 100  68 101  79 101  85 100
M  END
> <chiral flag>
0

> <version>
0

> <s_m_source_file>
/data/baiqing/PycharmProjects/Reinvent-master-3.2/result/LINK_invent/BTK/process_docking_weight1_custom_sum_contain_oxygen_bond_distance_aromatic_linkinvent_7_9_3/rearranged_h_0107.sdf

> <i_m_source_file_index>
5

> <r_mmod_Potential_Energy-OPLS-2005>
-122.949363708496

> <r_mmod_Stretch_Energy-OPLS-2005>
34.9964561462402

> <r_mmod_Bend_Energy-OPLS-2005>
133.489624023438

> <r_mmod_Torsional_Energy-OPLS-2005>
291.692687988281

> <r_mmod_Improper_Torsional_Energy-OPLS-2005>
5.14581727981567

> <r_mmod_Van_der_Waal_Energy-OPLS-2005>
146.514892578125

> <r_mmod_Electrostatic_Energy-OPLS-2005>
-308.0537109375

> <r_mmod_Solvation_Energy-OPLS-2005>
-438.725738525391

> <b_mmod_Minimization_Converged-OPLS-2005>
0

> <r_mmod_RMS_Derivative-OPLS-2005>
2.17920875549316

$$$$
5
                    3D
 Structure written by MMmdl.
169177  0  0  1  0            999 V2000
  -30.6113  -14.7492   20.4591 C   0  0  0  0  0  0
  -30.4354  -12.4570   19.4860 C   0  0  0  0  0  0
  -29.5155  -12.5164   18.2453 C   0  0  0  0  0  0
  -28.0436  -12.3388   18.6568 C   0  0  0  0  0  0
  -27.6461  -13.2306   19.8616 C   0  0  2  0  0  0
  -28.6899  -13.1634   20.9985 C   0  0  0  0  0  0
  -25.2496  -13.8153   20.5663 C   0  0  0  0  0  0
  -24.1785  -13.0400   20.9156 C   0  0  0  0  0  0
  -24.6396  -11.6902   20.8772 C   0  0  0  0  0  0
  -23.9079  -10.4267   21.0408 C   0  0  0  0  0  0
  -24.3640   -9.4194   21.9187 C   0  0  0  0  0  0
  -23.6295   -8.2221   22.0735 C   0  0  0  0  0  0
  -22.4253   -8.0268   21.3528 C   0  0  0  0  0  0
  -21.9921   -9.0253   20.4634 C   0  0  0  0  0  0
  -22.7260  -10.2121   20.3063 C   0  0  0  0  0  0
  -21.6833   -6.0750   22.5263 C   0  0  0  0  0  0
  -21.3984   -6.5652   23.8203 C   0  0  0  0  0  0
  -21.3663   -5.6789   24.9168 C   0  0  0  0  0  0
  -21.6063   -4.3068   24.7213 C   0  0  0  0  0  0
  -21.8829   -3.8161   23.4311 C   0  0  0  0  0  0
  -21.9142   -4.6979   22.3377 C   0  0  0  0  0  0
  -22.7787  -13.5227   21.1854 C   0  0  0  0  0  0
  -22.1652   -4.2180   21.0947 F   0  0  0  0  0  0
  -21.5637   -3.4577   25.7749 F   0  0  0  0  0  0
  -29.9934  -13.5161   20.4253 N   0  0  0  0  0  0
  -26.2970  -12.9399   20.3349 N   0  0  0  0  0  0
  -25.9319  -11.6518   20.5790 N   0  0  0  0  0  0
  -22.0474  -12.8184   22.0436 N   0  0  0  0  0  0
  -25.4221  -15.1864   20.4056 N   0  0  0  0  0  0
  -31.7800  -14.8563   20.0804 O   0  0  0  0  0  0
  -21.6597   -6.8880   21.4225 O   0  0  0  0  0  0
  -22.3502  -14.5544   20.6748 O   0  0  0  0  0  0
  -24.6352  -31.8521   23.1959 C   0  0  0  0  0  0
  -25.9176  -32.4750   23.8277 C   0  0  1  0  0  0
  -27.2154  -27.2385   20.1578 C   0  0  0  0  0  0
  -25.5969  -33.8534   24.2244 N   0  0  0  0  0  0
  -23.4290  -30.4769   21.5395 C   0  0  2  0  0  0
  -24.8762  -28.9112   20.1206 C   0  0  0  0  0  0
  -22.7504  -29.4603   22.4901 C   0  0  0  0  0  0
  -18.0279  -28.1385   22.8469 C   0  0  0  0  0  0
  -24.1487  -36.7264   23.2624 C   0  0  0  0  0  0
  -25.9756  -30.7648   21.3741 C   0  0  0  0  0  0
  -26.0516  -29.3803   20.7272 C   0  0  0  0  0  0
  -27.2278  -28.5597   20.7246 C   0  0  0  0  0  0
  -26.0208  -26.8327   19.5380 C   0  0  0  0  0  0
  -24.8676  -27.6460   19.5118 C   0  0  0  0  0  0
  -23.6498  -29.8063   20.1584 C   0  0  0  0  0  0
  -25.4110  -36.3060   24.0325 C   0  0  1  0  0  0
  -20.5900  -28.3694   23.1276 C   0  0  2  0  0  0
  -20.6793  -26.9406   22.5433 C   0  0  0  0  0  0
  -19.5774  -26.6392   21.5209 C   0  0  0  0  0  0
  -18.1942  -26.7940   22.1588 C   0  0  0  0  0  0
  -19.1554  -28.8840   23.2877 C   0  0  0  0  0  0
  -18.9458  -30.1447   23.8903 C   0  0  0  0  0  0
  -17.6466  -30.6586   24.0548 C   0  0  0  0  0  0
  -25.9054  -34.9432   23.5073 C   0  0  0  0  0  0
  -16.5350  -29.9083   23.6330 C   0  0  0  0  0  0
  -16.7284  -28.6493   23.0349 C   0  0  0  0  0  0
  -26.4521  -31.6562   25.0661 C   0  0  0  0  0  0
  -25.3746  -31.3765   26.1401 C   0  0  0  0  0  0
  -27.0327  -30.2951   24.6183 C   0  0  0  0  0  0
  -27.6092  -32.4263   25.7452 C   0  0  0  0  0  0
  -27.5599  -37.1785   24.8446 C   0  0  0  0  0  0
  -21.4215  -29.3039   22.3652 N   0  0  0  0  0  0
  -26.4299  -37.3767   23.9411 N   0  0  0  0  0  0
  -24.6984  -31.0487   22.0924 N   0  0  0  0  0  0
  -23.4208  -28.8144   23.3005 O   0  0  0  0  0  0
  -28.3151  -26.3461   20.1202 O   0  0  0  0  0  0
  -26.5611  -34.8915   22.4640 O   0  0  0  0  0  0
  -23.5510  -32.1340   23.7266 O   0  0  0  0  0  0
  -29.4305  -19.8809   20.0632 C   0  0  0  0  0  0
  -29.8096  -20.4536   22.1549 C   0  0  0  0  0  0
  -29.7661  -18.6799   20.7101 C   0  0  0  0  0  0
  -29.9930  -19.0832   22.0711 C   0  0  0  0  0  0
  -31.9940  -18.2165   23.3466 C   0  0  0  0  0  0
  -27.0957  -22.8296   21.2222 C   0  0  0  0  0  0
  -29.9992  -17.2509   20.0226 C   0  0  0  0  0  0
  -29.5315  -22.5307   20.6344 C   0  0  0  0  0  0
  -27.7920  -23.4446   18.9292 C   0  0  0  0  0  0
  -28.3240  -25.0758   20.9315 C   0  0  0  0  0  0
  -30.4644  -18.1904   23.2171 C   0  0  1  0  0  0
  -28.2329  -23.5030   20.4169 C   0  0  1  0  0  0
  -29.5078  -21.0123   20.9165 N   0  0  0  0  0  0
  -29.8370  -15.8815   20.6830 N   0  0  0  0  0  0
  -28.6557  -24.2037   18.0059 N   0  3  0  0  0  0
  -29.8213  -18.5596   24.4912 N   0  3  0  0  0  0
  -31.4763  -12.5826   19.1861 H   0  0  0  0  0  0
  -30.3788  -11.4790   19.9662 H   0  0  0  0  0  0
  -29.7929  -11.7458   17.5260 H   0  0  0  0  0  0
  -29.6411  -13.4699   17.7353 H   0  0  0  0  0  0
  -27.8968  -11.2845   18.9048 H   0  0  0  0  0  0
  -27.3918  -12.5563   17.8133 H   0  0  0  0  0  0
  -27.6477  -14.2522   19.4809 H   0  0  0  0  0  0
  -28.7191  -12.1677   21.4442 H   0  0  0  0  0  0
  -28.4251  -13.8434   21.8093 H   0  0  0  0  0  0
  -25.2821   -9.5639   22.4774 H   0  0  0  0  0  0
  -23.9978   -7.4609   22.7443 H   0  0  0  0  0  0
  -21.0847   -8.8787   19.8970 H   0  0  0  0  0  0
  -22.3714  -10.9662   19.6182 H   0  0  0  0  0  0
  -21.2015   -7.6164   23.9722 H   0  0  0  0  0  0
  -21.1480   -6.0521   25.9059 H   0  0  0  0  0  0
  -22.0607   -2.7619   23.2791 H   0  0  0  0  0  0
  -22.4065  -11.9762   22.4732 H   0  0  0  0  0  0
  -21.1146  -13.1184   22.2780 H   0  0  0  0  0  0
  -24.6653  -15.8451   20.5368 H   0  0  0  0  0  0
  -26.2770  -15.6384   20.1056 H   0  0  0  0  0  0
  -26.7225  -32.5408   23.1004 H   0  0  0  0  0  0
  -25.0185  -33.9620   25.0436 H   0  0  0  0  0  0
  -22.7264  -31.2990   21.3946 H   0  0  0  0  0  0
  -23.3776  -35.9572   23.3257 H   0  0  0  0  0  0
  -24.3599  -36.8905   22.2048 H   0  0  0  0  0  0
  -23.7212  -37.6442   23.6654 H   0  0  0  0  0  0
  -26.1095  -31.5167   20.5948 H   0  0  0  0  0  0
  -26.8566  -30.8206   22.0046 H   0  0  0  0  0  0
  -28.1378  -28.9208   21.1860 H   0  0  0  0  0  0
  -25.9652  -25.8618   19.0754 H   0  0  0  0  0  0
  -23.9719  -27.2799   19.0314 H   0  0  0  0  0  0
  -23.7743  -30.5769   19.3961 H   0  0  0  0  0  0
  -22.7659  -29.2409   19.8582 H   0  0  0  0  0  0
  -25.1288  -36.1898   25.0821 H   0  0  0  0  0  0
  -20.9987  -28.3280   24.1389 H   0  0  0  0  0  0
  -20.5665  -26.2270   23.3617 H   0  0  0  0  0  0
  -21.6666  -26.7420   22.1241 H   0  0  0  0  0  0
  -19.6910  -25.6292   21.1247 H   0  0  0  0  0  0
  -19.6743  -27.3199   20.6730 H   0  0  0  0  0  0
  -17.4226  -26.6700   21.3978 H   0  0  0  0  0  0
  -18.0303  -26.0093   22.8975 H   0  0  0  0  0  0
  -19.7939  -30.7263   24.2292 H   0  0  0  0  0  0
  -17.5007  -31.6278   24.5136 H   0  0  0  0  0  0
  -15.5354  -30.2961   23.7660 H   0  0  0  0  0  0
  -15.8681  -28.0803   22.7087 H   0  0  0  0  0  0
  -24.5980  -30.7018   25.7787 H   0  0  0  0  0  0
  -24.8869  -32.2946   26.4685 H   0  0  0  0  0  0
  -25.8080  -30.9090   27.0261 H   0  0  0  0  0  0
  -26.2892  -29.6732   24.1207 H   0  0  0  0  0  0
  -27.3953  -29.7207   25.4720 H   0  0  0  0  0  0
  -27.8797  -30.4170   23.9440 H   0  0  0  0  0  0
  -27.2746  -33.3598   26.2019 H   0  0  0  0  0  0
  -28.3951  -32.6779   25.0300 H   0  0  0  0  0  0
  -28.0725  -31.8372   26.5399 H   0  0  0  0  0  0
  -28.2593  -38.0102   24.7542 H   0  0  0  0  0  0
  -28.1114  -36.2644   24.6206 H   0  0  0  0  0  0
  -27.2318  -37.1383   25.8844 H   0  0  0  0  0  0
  -20.9371  -29.8727   21.6859 H   0  0  0  0  0  0
  -26.0171  -38.2830   24.1455 H   0  0  0  0  0  0
  -29.2276  -20.0381   19.0128 H   0  0  0  0  0  0
  -29.9532  -21.1166   23.0015 H   0  0  0  0  0  0
  -32.4813  -17.8911   22.4281 H   0  0  0  0  0  0
  -32.3317  -17.5513   24.1435 H   0  0  0  0  0  0
  -32.3515  -19.2225   23.5659 H   0  0  0  0  0  0
  -26.8964  -21.8147   20.8693 H   0  0  0  0  0  0
  -26.1525  -23.3762   21.1490 H   0  0  0  0  0  0
  -27.3457  -22.7571   22.2819 H   0  0  0  0  0  0
  -30.9805  -17.2902   19.5488 H   0  0  0  0  0  0
  -29.2987  -17.2282   19.1850 H   0  0  0  0  0  0
  -30.0743  -22.9587   21.4754 H   0  0  0  0  0  0
  -30.2255  -22.6670   19.8051 H   0  0  0  0  0  0
  -26.7759  -23.8234   18.8214 H   0  0  0  0  0  0
  -27.7532  -22.4042   18.5941 H   0  0  0  0  0  0
  -29.2651  -25.1520   21.4746 H   0  0  0  0  0  0
  -27.5896  -25.2254   21.7217 H   0  0  0  0  0  0
  -30.1592  -17.1666   23.0041 H   0  0  0  0  0  0
  -28.8946  -15.6856   20.9857 H   0  0  0  0  0  0
  -28.7222  -25.1686   18.2832 H   0  0  0  0  0  0
  -28.2579  -24.1751   17.0824 H   0  0  0  0  0  0
  -29.5784  -23.8206   17.9479 H   0  0  0  0  0  0
  -30.0667  -19.4954   24.7675 H   0  0  0  0  0  0
  -30.1094  -17.9331   25.2177 H   0  0  0  0  0  0
  -28.8267  -18.4997   24.3975 H   0  0  0  0  0  0
  1 25  1  0  0  0
  1 30  2  0  0  0
  1 84  1  0  0  0
  2  3  1  0  0  0
  2 25  1  0  0  0
  2 87  1  0  0  0
  2 88  1  0  0  0
  3  4  1  0  0  0
  3 89  1  0  0  0
  3 90  1  0  0  0
  4  5  1  0  0  0
  4 91  1  0  0  0
  4 92  1  0  0  0
  5  6  1  0  0  0
  5 26  1  0  0  0
  5 93  1  0  0  0
  6 25  1  0  0  0
  6 94  1  0  0  0
  6 95  1  0  0  0
  7  8  2  0  0  0
  7 26  1  0  0  0
  7 29  1  0  0  0
  8  9  1  0  0  0
  8 22  1  0  0  0
  9 10  1  0  0  0
  9 27  2  0  0  0
 10 11  2  0  0  0
 10 15  1  0  0  0
 11 12  1  0  0  0
 11 96  1  0  0  0
 12 13  2  0  0  0
 12 97  1  0  0  0
 13 14  1  0  0  0
 13 31  1  0  0  0
 14 15  2  0  0  0
 14 98  1  0  0  0
 15 99  1  0  0  0
 16 17  2  0  0  0
 16 21  1  0  0  0
 16 31  1  0  0  0
 17 18  1  0  0  0
 17100  1  0  0  0
 18 19  2  0  0  0
 18101  1  0  0  0
 19 20  1  0  0  0
 19 24  1  0  0  0
 20 21  2  0  0  0
 20102  1  0  0  0
 21 23  1  0  0  0
 22 28  1  0  0  0
 22 32  2  0  0  0
 26 27  1  0  0  0
 28103  1  0  0  0
 28104  1  0  0  0
 29105  1  0  0  0
 29106  1  0  0  0
 33 34  1  0  0  0
 33 66  1  0  0  0
 33 70  2  0  0  0
 34 36  1  0  0  0
 34 59  1  0  0  0
 34107  1  0  0  0
 35 44  2  0  0  0
 35 45  1  0  0  0
 35 68  1  0  0  0
 36 56  1  0  0  0
 36108  1  0  0  0
 37 39  1  0  0  0
 37 47  1  0  0  0
 37 66  1  0  0  0
 37109  1  0  0  0
 38 43  2  0  0  0
 38 46  1  0  0  0
 38 47  1  0  0  0
 39 64  1  0  0  0
 39 67  2  0  0  0
 40 52  1  0  0  0
 40 53  2  0  0  0
 40 58  1  0  0  0
 41110  1  0  0  0
 41111  1  0  0  0
 41112  1  0  0  0
 41 48  1  0  0  0
 42 43  1  0  0  0
 42 66  1  0  0  0
 42113  1  0  0  0
 42114  1  0  0  0
 43 44  1  0  0  0
 44115  1  0  0  0
 45 46  2  0  0  0
 45116  1  0  0  0
 46117  1  0  0  0
 47118  1  0  0  0
 47119  1  0  0  0
 48 56  1  0  0  0
 48 65  1  0  0  0
 48120  1  0  0  0
 49 50  1  0  0  0
 49 53  1  0  0  0
 49 64  1  0  0  0
 49121  1  0  0  0
 50 51  1  0  0  0
 50122  1  0  0  0
 50123  1  0  0  0
 51 52  1  0  0  0
 51124  1  0  0  0
 51125  1  0  0  0
 52126  1  0  0  0
 52127  1  0  0  0
 53 54  1  0  0  0
 54 55  2  0  0  0
 54128  1  0  0  0
 55 57  1  0  0  0
 55129  1  0  0  0
 56 69  2  0  0  0
 57 58  2  0  0  0
 57130  1  0  0  0
 58131  1  0  0  0
 59 60  1  0  0  0
 59 61  1  0  0  0
 59 62  1  0  0  0
 60132  1  0  0  0
 60133  1  0  0  0
 60134  1  0  0  0
 61135  1  0  0  0
 61136  1  0  0  0
 61137  1  0  0  0
 62138  1  0  0  0
 62139  1  0  0  0
 62140  1  0  0  0
 63 65  1  0  0  0
 63141  1  0  0  0
 63142  1  0  0  0
 63143  1  0  0  0
 64144  1  0  0  0
 65145  1  0  0  0
 68 80  1  0  0  0
 71 73  2  0  0  0
 71 83  1  0  0  0
 71146  1  0  0  0
 72 74  2  0  0  0
 72 83  1  0  0  0
 72147  1  0  0  0
 73 74  1  0  0  0
 73 77  1  0  0  0
 74 81  1  0  0  0
 75148  1  0  0  0
 75149  1  0  0  0
 75150  1  0  0  0
 75 81  1  0  0  0
 76151  1  0  0  0
 76152  1  0  0  0
 76153  1  0  0  0
 76 82  1  0  0  0
 77 84  1  0  0  0
 77154  1  0  0  0
 77155  1  0  0  0
 78 82  1  0  0  0
 78 83  1  0  0  0
 78156  1  0  0  0
 78157  1  0  0  0
 79 82  1  0  0  0
 79 85  1  0  0  0
 79158  1  0  0  0
 79159  1  0  0  0
 80 82  1  0  0  0
 80160  1  0  0  0
 80161  1  0  0  0
 81 86  1  0  0  0
 81162  1  0  0  0
 84163  1  0  0  0
 85164  1  0  0  0
 85165  1  0  0  0
 85166  1  0  0  0
 86167  1  0  0  0
 86168  1  0  0  0
 86169  1  0  0  0
M  CHG  2  85   1  86   1
M  ISO  4   1 100  68 101  80 101  84 100
M  END
> <chiral flag>
0

> <version>
0

> <s_m_source_file>
/data/baiqing/PycharmProjects/Reinvent-master-3.2/result/LINK_invent/BTK/process_docking_weight1_custom_sum_contain_oxygen_bond_distance_aromatic_linkinvent_7_9_3/rearranged_h_0107.sdf

> <i_m_source_file_index>
6

> <r_mmod_Potential_Energy-OPLS-2005>
-299.672332763672

> <r_mmod_Stretch_Energy-OPLS-2005>
139.357284545898

> <r_mmod_Bend_Energy-OPLS-2005>
221.810607910156

> <r_mmod_Torsional_Energy-OPLS-2005>
281.466064453125

> <r_mmod_Improper_Torsional_Energy-OPLS-2005>
9.95765209197998

> <r_mmod_Van_der_Waal_Energy-OPLS-2005>
105.461074829102

> <r_mmod_Electrostatic_Energy-OPLS-2005>
-205.049255371094

> <r_mmod_Solvation_Energy-OPLS-2005>
-941.399169921875

> <b_mmod_Minimization_Converged-OPLS-2005>
0

> <r_mmod_RMS_Derivative-OPLS-2005>
7.8079719543457

$$$$
6
                    3D
 Structure written by MMmdl.
147154  0  0  1  0            999 V2000
  -30.1893  -15.8817   20.3158 C   0  0  0  0  0  0
  -30.4153  -13.2534   19.5661 C   0  0  0  0  0  0
  -29.5661  -12.7342   18.3598 C   0  0  0  0  0  0
  -28.1543  -12.3227   18.7986 C   0  0  0  0  0  0
  -27.5930  -13.3359   19.8168 C   0  0  2  0  0  0
  -28.5939  -13.7335   20.9320 C   0  0  0  0  0  0
  -25.2276  -13.8301   20.5814 C   0  0  0  0  0  0
  -24.1695  -13.0417   20.9283 C   0  0  0  0  0  0
  -24.6445  -11.6947   20.8745 C   0  0  0  0  0  0
  -23.9151  -10.4286   21.0377 C   0  0  0  0  0  0
  -24.3673   -9.4202   21.9170 C   0  0  0  0  0  0
  -23.6324   -8.2250   22.0752 C   0  0  0  0  0  0
  -22.4302   -8.0291   21.3545 C   0  0  0  0  0  0
  -21.9954   -9.0267   20.4641 C   0  0  0  0  0  0
  -22.7309  -10.2131   20.3038 C   0  0  0  0  0  0
  -21.6861   -6.0744   22.5280 C   0  0  0  0  0  0
  -21.4020   -6.5644   23.8214 C   0  0  0  0  0  0
  -21.3661   -5.6795   24.9174 C   0  0  0  0  0  0
  -21.6044   -4.3057   24.7223 C   0  0  0  0  0  0
  -21.8818   -3.8151   23.4343 C   0  0  0  0  0  0
  -21.9195   -4.6970   22.3400 C   0  0  0  0  0  0
  -22.7702  -13.5131   21.1920 C   0  0  0  0  0  0
  -22.1663   -4.2156   21.0978 F   0  0  0  0  0  0
  -21.5627   -3.4539   25.7734 F   0  0  0  0  0  0
  -29.7422  -14.4491   20.2972 N   0  0  0  0  0  0
  -26.2778  -12.9705   20.3264 N   0  0  0  0  0  0
  -25.9409  -11.6743   20.5679 N   0  0  0  0  0  0
  -22.0380  -12.8104   22.0479 N   0  0  0  0  0  0
  -25.3791  -15.2039   20.4285 N   0  0  0  0  0  0
  -31.4106  -15.7812   20.0599 O   0  0  0  0  0  0
  -21.6652   -6.8895   21.4246 O   0  0  0  0  0  0
  -22.3364  -14.5428   20.6762 O   0  0  0  0  0  0
  -24.6992  -31.7797   23.1366 C   0  0  0  0  0  0
  -25.9494  -32.4365   23.7977 C   0  0  1  0  0  0
  -27.2396  -26.5347   20.2277 C   0  0  0  0  0  0
  -25.6003  -33.8200   24.1847 N   0  0  0  0  0  0
  -23.5340  -30.3727   21.4936 C   0  0  2  0  0  0
  -24.9956  -28.6785   20.1179 C   0  0  0  0  0  0
  -22.7839  -29.4203   22.4655 C   0  0  0  0  0  0
  -18.0349  -28.1431   22.8445 C   0  0  0  0  0  0
  -24.1497  -36.7109   23.2658 C   0  0  0  0  0  0
  -26.1206  -30.4558   21.4280 C   0  0  0  0  0  0
  -26.1846  -29.0023   20.7805 C   0  0  0  0  0  0
  -27.2790  -27.9617   20.8020 C   0  0  0  0  0  0
  -26.0194  -26.4654   19.4953 C   0  0  0  0  0  0
  -24.9625  -27.4386   19.4509 C   0  0  0  0  0  0
  -23.7979  -29.6531   20.1358 C   0  0  0  0  0  0
  -25.4154  -36.2835   24.0269 C   0  0  1  0  0  0
  -20.5992  -28.3798   23.1110 C   0  0  2  0  0  0
  -20.6805  -26.9441   22.5408 C   0  0  0  0  0  0
  -19.5785  -26.6365   21.5219 C   0  0  0  0  0  0
  -18.1967  -26.7955   22.1616 C   0  0  0  0  0  0
  -19.1619  -28.8943   23.2753 C   0  0  0  0  0  0
  -18.9522  -30.1522   23.8807 C   0  0  0  0  0  0
  -17.6509  -30.6608   24.0547 C   0  0  0  0  0  0
  -25.9144  -34.9230   23.4909 C   0  0  0  0  0  0
  -16.5398  -29.9087   23.6355 C   0  0  0  0  0  0
  -16.7327  -28.6511   23.0369 C   0  0  0  0  0  0
  -26.4620  -31.6475   25.0673 C   0  0  0  0  0  0
  -25.3641  -31.3843   26.1257 C   0  0  0  0  0  0
  -27.0581  -30.2794   24.6701 C   0  0  0  0  0  0
  -27.6035  -32.4379   25.7500 C   0  0  0  0  0  0
  -27.5559  -37.1711   24.8467 C   0  0  0  0  0  0
  -21.4470  -29.3009   22.3407 N   0  0  0  0  0  0
  -26.4264  -37.3616   23.9407 N   0  0  0  0  0  0
  -24.8098  -30.9072   22.0713 N   0  0  0  0  0  0
  -23.4203  -28.7835   23.3083 O   0  0  0  0  0  0
  -28.1813  -25.2430   20.3527 O   0  0  0  0  0  0
  -26.5811  -34.8843   22.4545 O   0  0  0  0  0  0
  -23.5976  -32.0951   23.6212 O   0  0  0  0  0  0
  -27.9701  -17.3663   20.9780 C   0  0  0  0  0  0
  -30.1586  -17.9855   21.9952 C   0  0  0  0  0  0
  -28.8178  -21.5490   20.5696 C   0  0  0  0  0  0
  -29.2351  -19.6140   20.0185 C   0  0  0  0  0  0
  -28.2041  -23.4253   20.0005 C   0  0  0  0  0  0
  -29.4391  -17.6818   20.6691 C   0  0  0  0  0  0
  -31.3932  -13.5415   19.1802 H   0  0  0  0  0  0
  -30.6317  -12.4391   20.2598 H   0  0  0  0  0  0
  -30.0675  -11.8992   17.8689 H   0  0  0  0  0  0
  -29.4928  -13.5281   17.6152 H   0  0  0  0  0  0
  -28.2171  -11.3378   19.2629 H   0  0  0  0  0  0
  -27.4922  -12.2209   17.9378 H   0  0  0  0  0  0
  -27.4337  -14.2390   19.2257 H   0  0  0  0  0  0
  -28.9035  -12.8657   21.5165 H   0  0  0  0  0  0
  -28.1114  -14.3958   21.6470 H   0  0  0  0  0  0
  -25.2812   -9.5674   22.4756 H   0  0  0  0  0  0
  -24.0018   -7.4644   22.7483 H   0  0  0  0  0  0
  -21.0881   -8.8799   19.8950 H   0  0  0  0  0  0
  -22.3769  -10.9671   19.6148 H   0  0  0  0  0  0
  -21.2017   -7.6153   23.9720 H   0  0  0  0  0  0
  -21.1483   -6.0523   25.9077 H   0  0  0  0  0  0
  -22.0595   -2.7613   23.2840 H   0  0  0  0  0  0
  -22.4034  -11.9786   22.4874 H   0  0  0  0  0  0
  -21.0986  -13.1092   22.2684 H   0  0  0  0  0  0
  -24.6078  -15.8495   20.5571 H   0  0  0  0  0  0
  -26.2323  -15.6574   20.1315 H   0  0  0  0  0  0
  -26.7591  -32.4794   23.0696 H   0  0  0  0  0  0
  -25.0031  -33.9208   24.9921 H   0  0  0  0  0  0
  -22.8690  -31.2142   21.2883 H   0  0  0  0  0  0
  -23.3781  -35.9415   23.3254 H   0  0  0  0  0  0
  -24.3558  -36.8849   22.2085 H   0  0  0  0  0  0
  -23.7237  -37.6255   23.6793 H   0  0  0  0  0  0
  -26.3420  -31.1692   20.6332 H   0  0  0  0  0  0
  -26.9647  -30.5297   22.1009 H   0  0  0  0  0  0
  -28.1646  -28.2186   21.3660 H   0  0  0  0  0  0
  -25.8276  -25.5362   18.9775 H   0  0  0  0  0  0
  -24.0706  -27.1798   18.8968 H   0  0  0  0  0  0
  -23.9848  -30.4059   19.3693 H   0  0  0  0  0  0
  -22.8999  -29.1263   19.8088 H   0  0  0  0  0  0
  -25.1372  -36.1572   25.0758 H   0  0  0  0  0  0
  -21.0069  -28.3439   24.1239 H   0  0  0  0  0  0
  -20.5651  -26.2428   23.3686 H   0  0  0  0  0  0
  -21.6666  -26.7355   22.1238 H   0  0  0  0  0  0
  -19.6938  -25.6251   21.1308 H   0  0  0  0  0  0
  -19.6735  -27.3125   20.6710 H   0  0  0  0  0  0
  -17.4238  -26.6699   21.4018 H   0  0  0  0  0  0
  -18.0348  -26.0119   22.9032 H   0  0  0  0  0  0
  -19.7997  -30.7361   24.2138 H   0  0  0  0  0  0
  -17.5058  -31.6278   24.5168 H   0  0  0  0  0  0
  -15.5394  -30.2960   23.7731 H   0  0  0  0  0  0
  -15.8728  -28.0799   22.7135 H   0  0  0  0  0  0
  -24.5862  -30.7158   25.7550 H   0  0  0  0  0  0
  -24.8794  -32.3079   26.4427 H   0  0  0  0  0  0
  -25.7778  -30.9170   27.0202 H   0  0  0  0  0  0
  -26.3332  -29.6353   24.1716 H   0  0  0  0  0  0
  -27.3961  -29.7312   25.5506 H   0  0  0  0  0  0
  -27.9330  -30.3879   24.0289 H   0  0  0  0  0  0
  -27.2554  -33.3773   26.1806 H   0  0  0  0  0  0
  -28.3982  -32.6792   25.0428 H   0  0  0  0  0  0
  -28.0554  -31.8694   26.5638 H   0  0  0  0  0  0
  -28.2534  -38.0044   24.7514 H   0  0  0  0  0  0
  -28.1096  -36.2563   24.6296 H   0  0  0  0  0  0
  -27.2272  -37.1344   25.8867 H   0  0  0  0  0  0
  -20.9815  -29.8635   21.6421 H   0  0  0  0  0  0
  -26.0075  -38.2655   24.1423 H   0  0  0  0  0  0
  -27.4689  -18.2188   21.4369 H   0  0  0  0  0  0
  -27.8620  -16.5347   21.6700 H   0  0  0  0  0  0
  -27.4327  -17.1278   20.0609 H   0  0  0  0  0  0
  -29.6387  -18.7553   22.5663 H   0  0  0  0  0  0
  -31.1705  -18.3456   21.8076 H   0  0  0  0  0  0
  -30.2363  -17.1063   22.6364 H   0  0  0  0  0  0
  -29.7518  -21.8009   21.0719 H   0  0  0  0  0  0
  -28.1360  -21.3727   21.4015 H   0  0  0  0  0  0
  -30.1609  -19.7483   19.4585 H   0  0  0  0  0  0
  -28.4996  -19.4746   19.2258 H   0  0  0  0  0  0
  -27.1450  -23.2573   19.8051 H   0  0  0  0  0  0
  -28.6334  -23.4704   18.9996 H   0  0  0  0  0  0
  1 25  1  0  0  0
  1 30  2  0  0  0
  1 76  1  0  0  0
  2  3  1  0  0  0
  2 25  1  0  0  0
  2 77  1  0  0  0
  2 78  1  0  0  0
  3  4  1  0  0  0
  3 79  1  0  0  0
  3 80  1  0  0  0
  4  5  1  0  0  0
  4 81  1  0  0  0
  4 82  1  0  0  0
  5  6  1  0  0  0
  5 26  1  0  0  0
  5 83  1  0  0  0
  6 25  1  0  0  0
  6 84  1  0  0  0
  6 85  1  0  0  0
  7  8  2  0  0  0
  7 26  1  0  0  0
  7 29  1  0  0  0
  8  9  1  0  0  0
  8 22  1  0  0  0
  9 10  1  0  0  0
  9 27  2  0  0  0
 10 11  2  0  0  0
 10 15  1  0  0  0
 11 12  1  0  0  0
 11 86  1  0  0  0
 12 13  2  0  0  0
 12 87  1  0  0  0
 13 14  1  0  0  0
 13 31  1  0  0  0
 14 15  2  0  0  0
 14 88  1  0  0  0
 15 89  1  0  0  0
 16 17  2  0  0  0
 16 21  1  0  0  0
 16 31  1  0  0  0
 17 18  1  0  0  0
 17 90  1  0  0  0
 18 19  2  0  0  0
 18 91  1  0  0  0
 19 20  1  0  0  0
 19 24  1  0  0  0
 20 21  2  0  0  0
 20 92  1  0  0  0
 21 23  1  0  0  0
 22 28  1  0  0  0
 22 32  2  0  0  0
 26 27  1  0  0  0
 28 93  1  0  0  0
 28 94  1  0  0  0
 29 95  1  0  0  0
 29 96  1  0  0  0
 33 34  1  0  0  0
 33 66  1  0  0  0
 33 70  2  0  0  0
 34 36  1  0  0  0
 34 59  1  0  0  0
 34 97  1  0  0  0
 35 44  2  0  0  0
 35 45  1  0  0  0
 35 68  1  0  0  0
 36 56  1  0  0  0
 36 98  1  0  0  0
 37 39  1  0  0  0
 37 47  1  0  0  0
 37 66  1  0  0  0
 37 99  1  0  0  0
 38 43  2  0  0  0
 38 46  1  0  0  0
 38 47  1  0  0  0
 39 64  1  0  0  0
 39 67  2  0  0  0
 40 52  1  0  0  0
 40 53  2  0  0  0
 40 58  1  0  0  0
 41100  1  0  0  0
 41101  1  0  0  0
 41102  1  0  0  0
 41 48  1  0  0  0
 42 43  1  0  0  0
 42 66  1  0  0  0
 42103  1  0  0  0
 42104  1  0  0  0
 43 44  1  0  0  0
 44105  1  0  0  0
 45 46  2  0  0  0
 45106  1  0  0  0
 46107  1  0  0  0
 47108  1  0  0  0
 47109  1  0  0  0
 48 56  1  0  0  0
 48 65  1  0  0  0
 48110  1  0  0  0
 49 50  1  0  0  0
 49 53  1  0  0  0
 49 64  1  0  0  0
 49111  1  0  0  0
 50 51  1  0  0  0
 50112  1  0  0  0
 50113  1  0  0  0
 51 52  1  0  0  0
 51114  1  0  0  0
 51115  1  0  0  0
 52116  1  0  0  0
 52117  1  0  0  0
 53 54  1  0  0  0
 54 55  2  0  0  0
 54118  1  0  0  0
 55 57  1  0  0  0
 55119  1  0  0  0
 56 69  2  0  0  0
 57 58  2  0  0  0
 57120  1  0  0  0
 58121  1  0  0  0
 59 60  1  0  0  0
 59 61  1  0  0  0
 59 62  1  0  0  0
 60122  1  0  0  0
 60123  1  0  0  0
 60124  1  0  0  0
 61125  1  0  0  0
 61126  1  0  0  0
 61127  1  0  0  0
 62128  1  0  0  0
 62129  1  0  0  0
 62130  1  0  0  0
 63 65  1  0  0  0
 63131  1  0  0  0
 63132  1  0  0  0
 63133  1  0  0  0
 64134  1  0  0  0
 65135  1  0  0  0
 68 75  1  0  0  0
 71136  1  0  0  0
 71137  1  0  0  0
 71138  1  0  0  0
 71 76  1  0  0  0
 72 76  1  0  0  0
 72139  1  0  0  0
 72140  1  0  0  0
 72141  1  0  0  0
 73 74  1  0  0  0
 73 75  1  0  0  0
 73142  1  0  0  0
 73143  1  0  0  0
 74 76  1  0  0  0
 74144  1  0  0  0
 74145  1  0  0  0
 75146  1  0  0  0
 75147  1  0  0  0
M  ISO  4   1 100  68 101  75 101  76 100
M  END
> <chiral flag>
0

> <version>
0

> <s_m_source_file>
/data/baiqing/PycharmProjects/Reinvent-master-3.2/result/LINK_invent/BTK/process_docking_weight1_custom_sum_contain_oxygen_bond_distance_aromatic_linkinvent_7_9_3/rearranged_h_0107.sdf

> <i_m_source_file_index>
7

> <r_mmod_Potential_Energy-OPLS-2005>
3733.28369140625

> <r_mmod_Stretch_Energy-OPLS-2005>
1764.31896972656

> <r_mmod_Bend_Energy-OPLS-2005>
840.589172363281

> <r_mmod_Torsional_Energy-OPLS-2005>
208.097305297852

> <r_mmod_Improper_Torsional_Energy-OPLS-2005>
1.71055269241333

> <r_mmod_Van_der_Waal_Energy-OPLS-2005>
111.315200805664

> <r_mmod_Electrostatic_Energy-OPLS-2005>
-297.558471679688

> <r_mmod_Solvation_Energy-OPLS-2005>
-186.266830444336

> <b_mmod_Minimization_Converged-OPLS-2005>
0

> <r_mmod_RMS_Derivative-OPLS-2005>
0.0959039181470871

$$$$
7
                    3D
 Structure written by MMmdl.
160168  0  0  1  0            999 V2000
  -30.6577  -14.6773   20.4546 C   0  0  0  0  0  0
  -30.4226  -12.4035   19.4893 C   0  0  0  0  0  0
  -29.5126  -12.4966   18.2442 C   0  0  0  0  0  0
  -28.0370  -12.3255   18.6531 C   0  0  0  0  0  0
  -27.6449  -13.2282   19.8535 C   0  0  2  0  0  0
  -28.6852  -13.1604   20.9939 C   0  0  0  0  0  0
  -25.2536  -13.8182   20.5703 C   0  0  0  0  0  0
  -24.1800  -13.0443   20.9184 C   0  0  0  0  0  0
  -24.6370  -11.6926   20.8717 C   0  0  0  0  0  0
  -23.9041  -10.4298   21.0380 C   0  0  0  0  0  0
  -24.3589   -9.4220   21.9165 C   0  0  0  0  0  0
  -23.6274   -8.2252   22.0750 C   0  0  0  0  0  0
  -22.4267   -8.0269   21.3532 C   0  0  0  0  0  0
  -21.9885   -9.0245   20.4641 C   0  0  0  0  0  0
  -22.7207  -10.2126   20.3045 C   0  0  0  0  0  0
  -21.6861   -6.0712   22.5268 C   0  0  0  0  0  0
  -21.4022   -6.5624   23.8198 C   0  0  0  0  0  0
  -21.3658   -5.6772   24.9153 C   0  0  0  0  0  0
  -21.6053   -4.3041   24.7213 C   0  0  0  0  0  0
  -21.8820   -3.8134   23.4335 C   0  0  0  0  0  0
  -21.9198   -4.6940   22.3386 C   0  0  0  0  0  0
  -22.7820  -13.5239   21.1836 C   0  0  0  0  0  0
  -22.1672   -4.2135   21.0953 F   0  0  0  0  0  0
  -21.5622   -3.4526   25.7720 F   0  0  0  0  0  0
  -29.9972  -13.4730   20.4179 N   0  0  0  0  0  0
  -26.2951  -12.9387   20.3290 N   0  0  0  0  0  0
  -25.9304  -11.6539   20.5746 N   0  0  0  0  0  0
  -22.0464  -12.8258   22.0405 N   0  0  0  0  0  0
  -25.4265  -15.1886   20.4109 N   0  0  0  0  0  0
  -31.8447  -14.7366   20.1282 O   0  0  0  0  0  0
  -21.6644   -6.8858   21.4230 O   0  0  0  0  0  0
  -22.3516  -14.5544   20.6658 O   0  0  0  0  0  0
  -24.6283  -31.8594   23.2033 C   0  0  0  0  0  0
  -25.9114  -32.4795   23.8386 C   0  0  1  0  0  0
  -27.2119  -27.2797   20.1045 C   0  0  0  0  0  0
  -25.5910  -33.8587   24.2317 N   0  0  0  0  0  0
  -23.4262  -30.4814   21.5475 C   0  0  2  0  0  0
  -24.8717  -28.9406   20.1083 C   0  0  0  0  0  0
  -22.7514  -29.4593   22.4936 C   0  0  0  0  0  0
  -18.0286  -28.1338   22.8519 C   0  0  0  0  0  0
  -24.1474  -36.7270   23.2643 C   0  0  0  0  0  0
  -25.9746  -30.7700   21.3920 C   0  0  0  0  0  0
  -26.0436  -29.3992   20.7214 C   0  0  0  0  0  0
  -27.2151  -28.5771   20.7183 C   0  0  0  0  0  0
  -26.0217  -26.9065   19.4353 C   0  0  0  0  0  0
  -24.8653  -27.7025   19.4527 C   0  0  0  0  0  0
  -23.6450  -29.8240   20.1609 C   0  0  0  0  0  0
  -25.4104  -36.3091   24.0353 C   0  0  1  0  0  0
  -20.5891  -28.3638   23.1286 C   0  0  2  0  0  0
  -20.6745  -26.9360   22.5402 C   0  0  0  0  0  0
  -19.5712  -26.6359   21.5197 C   0  0  0  0  0  0
  -18.1907  -26.7898   22.1631 C   0  0  0  0  0  0
  -19.1547  -28.8816   23.2897 C   0  0  0  0  0  0
  -18.9462  -30.1413   23.8914 C   0  0  0  0  0  0
  -17.6459  -30.6561   24.0539 C   0  0  0  0  0  0
  -25.9048  -34.9459   23.5141 C   0  0  0  0  0  0
  -16.5349  -29.9051   23.6307 C   0  0  0  0  0  0
  -16.7278  -28.6441   23.0406 C   0  0  0  0  0  0
  -26.4468  -31.6626   25.0781 C   0  0  0  0  0  0
  -25.3691  -31.3791   26.1510 C   0  0  0  0  0  0
  -27.0319  -30.3047   24.6273 C   0  0  0  0  0  0
  -27.6032  -32.4374   25.7538 C   0  0  0  0  0  0
  -27.5578  -37.1800   24.8476 C   0  0  0  0  0  0
  -21.4226  -29.3009   22.3701 N   0  0  0  0  0  0
  -26.4289  -37.3780   23.9425 N   0  0  0  0  0  0
  -24.6952  -31.0560   22.1018 N   0  0  0  0  0  0
  -23.4227  -28.8114   23.3010 O   0  0  0  0  0  0
  -28.2962  -26.3767   20.1723 O   0  0  0  0  0  0
  -26.5597  -34.8914   22.4706 O   0  0  0  0  0  0
  -23.5433  -32.1429   23.7297 O   0  0  0  0  0  0
  -29.4520  -19.6379   19.5837 C   0  0  0  0  0  0
  -29.1978  -20.8735   20.3045 C   0  0  0  0  0  0
  -29.7846  -18.5749   20.4066 C   0  0  0  0  0  0
  -29.3524  -20.4851   21.6177 C   0  0  0  0  0  0
  -29.2722  -21.3400   22.8475 C   0  0  0  0  0  0
  -29.5591  -22.4042   18.3007 C   0  0  0  0  0  0
  -29.9228  -18.3279   22.8951 C   0  0  0  0  0  0
  -30.4051  -17.1759   20.0544 C   0  0  0  0  0  0
  -28.9711  -23.7227   20.3821 C   0  0  0  0  0  0
  -28.0450  -24.9339   19.8539 C   0  0  0  0  0  0
  -28.8192  -22.2862   19.6486 C   0  0  2  0  0  0
  -29.6708  -19.1061   21.6879 N   0  0  0  0  0  0
  -29.9309  -15.8401   20.5925 N   0  0  0  0  0  0
  -31.4738  -12.4855   19.2036 H   0  0  0  0  0  0
  -30.3207  -11.4300   19.9695 H   0  0  0  0  0  0
  -29.7928  -11.7346   17.5165 H   0  0  0  0  0  0
  -29.6501  -13.4603   17.7519 H   0  0  0  0  0  0
  -27.8899  -11.2770   18.9178 H   0  0  0  0  0  0
  -27.3811  -12.5171   17.8044 H   0  0  0  0  0  0
  -27.6483  -14.2488   19.4734 H   0  0  0  0  0  0
  -28.6973  -12.1707   21.4517 H   0  0  0  0  0  0
  -28.4312  -13.8598   21.7908 H   0  0  0  0  0  0
  -25.2723   -9.5706   22.4752 H   0  0  0  0  0  0
  -23.9984   -7.4644   22.7472 H   0  0  0  0  0  0
  -21.0820   -8.8743   19.8961 H   0  0  0  0  0  0
  -22.3639  -10.9650   19.6168 H   0  0  0  0  0  0
  -21.2037   -7.6141   23.9694 H   0  0  0  0  0  0
  -21.1482   -6.0503   25.9044 H   0  0  0  0  0  0
  -22.0614   -2.7609   23.2824 H   0  0  0  0  0  0
  -22.4076  -11.9926   22.4812 H   0  0  0  0  0  0
  -21.1080  -13.1303   22.2599 H   0  0  0  0  0  0
  -24.6636  -15.8484   20.5118 H   0  0  0  0  0  0
  -26.2808  -15.6223   20.0851 H   0  0  0  0  0  0
  -26.7179  -32.5426   23.1127 H   0  0  0  0  0  0
  -25.0096  -33.9741   25.0479 H   0  0  0  0  0  0
  -22.7205  -31.3012   21.4012 H   0  0  0  0  0  0
  -23.3765  -35.9576   23.3327 H   0  0  0  0  0  0
  -24.3564  -36.8849   22.2053 H   0  0  0  0  0  0
  -23.7185  -37.6468   23.6630 H   0  0  0  0  0  0
  -26.1285  -31.5379   20.6321 H   0  0  0  0  0  0
  -26.8456  -30.8066   22.0334 H   0  0  0  0  0  0
  -28.1065  -28.9149   21.2283 H   0  0  0  0  0  0
  -25.9442  -25.9763   18.8929 H   0  0  0  0  0  0
  -23.9701  -27.3611   18.9513 H   0  0  0  0  0  0
  -23.7702  -30.6006   19.4060 H   0  0  0  0  0  0
  -22.7667  -29.2544   19.8525 H   0  0  0  0  0  0
  -25.1277  -36.1975   25.0847 H   0  0  0  0  0  0
  -20.9974  -28.3162   24.1405 H   0  0  0  0  0  0
  -20.5563  -26.2258   23.3604 H   0  0  0  0  0  0
  -21.6624  -26.7332   22.1225 H   0  0  0  0  0  0
  -19.6852  -25.6266   21.1218 H   0  0  0  0  0  0
  -19.6623  -27.3168   20.6721 H   0  0  0  0  0  0
  -17.4170  -26.6673   21.4039 H   0  0  0  0  0  0
  -18.0293  -26.0022   22.9002 H   0  0  0  0  0  0
  -19.7942  -30.7213   24.2320 H   0  0  0  0  0  0
  -17.5017  -31.6253   24.5113 H   0  0  0  0  0  0
  -15.5351  -30.2957   23.7610 H   0  0  0  0  0  0
  -15.8683  -28.0709   22.7201 H   0  0  0  0  0  0
  -24.5860  -30.7128   25.7856 H   0  0  0  0  0  0
  -24.8872  -32.2963   26.4917 H   0  0  0  0  0  0
  -25.8006  -30.9004   27.0314 H   0  0  0  0  0  0
  -26.2918  -29.6831   24.1223 H   0  0  0  0  0  0
  -27.3913  -29.7269   25.4797 H   0  0  0  0  0  0
  -27.8835  -30.4335   23.9593 H   0  0  0  0  0  0
  -27.2649  -33.3684   26.2106 H   0  0  0  0  0  0
  -28.3836  -32.6944   25.0358 H   0  0  0  0  0  0
  -28.0716  -31.8532   26.5466 H   0  0  0  0  0  0
  -28.2625  -38.0067   24.7533 H   0  0  0  0  0  0
  -28.1052  -36.2622   24.6315 H   0  0  0  0  0  0
  -27.2313  -37.1460   25.8877 H   0  0  0  0  0  0
  -20.9413  -29.8826   21.6986 H   0  0  0  0  0  0
  -26.0198  -38.2872   24.1399 H   0  0  0  0  0  0
  -29.4556  -19.5455   18.5063 H   0  0  0  0  0  0
  -30.1749  -21.9451   22.9388 H   0  0  0  0  0  0
  -29.1767  -20.7794   23.7715 H   0  0  0  0  0  0
  -28.4105  -22.0038   22.8099 H   0  0  0  0  0  0
  -30.6394  -22.4208   18.4515 H   0  0  0  0  0  0
  -29.2941  -23.3136   17.7638 H   0  0  0  0  0  0
  -29.3388  -21.5762   17.6306 H   0  0  0  0  0  0
  -29.3734  -18.7064   23.7526 H   0  0  0  0  0  0
  -30.9905  -18.3215   23.1167 H   0  0  0  0  0  0
  -29.5923  -17.3002   22.7613 H   0  0  0  0  0  0
  -31.4710  -17.2510   20.2778 H   0  0  0  0  0  0
  -30.3718  -17.0745   18.9691 H   0  0  0  0  0  0
  -28.7499  -23.6277   21.4410 H   0  0  0  0  0  0
  -30.0174  -24.0280   20.3336 H   0  0  0  0  0  0
  -27.0521  -24.6769   20.2258 H   0  0  0  0  0  0
  -27.9708  -24.8663   18.7684 H   0  0  0  0  0  0
  -27.7551  -22.1848   19.4292 H   0  0  0  0  0  0
  -28.9581  -15.7588   20.8428 H   0  0  0  0  0  0
  1 25  1  0  0  0
  1 30  2  0  0  0
  1 83  1  0  0  0
  2  3  1  0  0  0
  2 25  1  0  0  0
  2 84  1  0  0  0
  2 85  1  0  0  0
  3  4  1  0  0  0
  3 86  1  0  0  0
  3 87  1  0  0  0
  4  5  1  0  0  0
  4 88  1  0  0  0
  4 89  1  0  0  0
  5  6  1  0  0  0
  5 26  1  0  0  0
  5 90  1  0  0  0
  6 25  1  0  0  0
  6 91  1  0  0  0
  6 92  1  0  0  0
  7  8  2  0  0  0
  7 26  1  0  0  0
  7 29  1  0  0  0
  8  9  1  0  0  0
  8 22  1  0  0  0
  9 10  1  0  0  0
  9 27  2  0  0  0
 10 11  2  0  0  0
 10 15  1  0  0  0
 11 12  1  0  0  0
 11 93  1  0  0  0
 12 13  2  0  0  0
 12 94  1  0  0  0
 13 14  1  0  0  0
 13 31  1  0  0  0
 14 15  2  0  0  0
 14 95  1  0  0  0
 15 96  1  0  0  0
 16 17  2  0  0  0
 16 21  1  0  0  0
 16 31  1  0  0  0
 17 18  1  0  0  0
 17 97  1  0  0  0
 18 19  2  0  0  0
 18 98  1  0  0  0
 19 20  1  0  0  0
 19 24  1  0  0  0
 20 21  2  0  0  0
 20 99  1  0  0  0
 21 23  1  0  0  0
 22 28  1  0  0  0
 22 32  2  0  0  0
 26 27  1  0  0  0
 28100  1  0  0  0
 28101  1  0  0  0
 29102  1  0  0  0
 29103  1  0  0  0
 33 34  1  0  0  0
 33 66  1  0  0  0
 33 70  2  0  0  0
 34 36  1  0  0  0
 34 59  1  0  0  0
 34104  1  0  0  0
 35 44  2  0  0  0
 35 45  1  0  0  0
 35 68  1  0  0  0
 36 56  1  0  0  0
 36105  1  0  0  0
 37 39  1  0  0  0
 37 47  1  0  0  0
 37 66  1  0  0  0
 37106  1  0  0  0
 38 43  2  0  0  0
 38 46  1  0  0  0
 38 47  1  0  0  0
 39 64  1  0  0  0
 39 67  2  0  0  0
 40 52  1  0  0  0
 40 53  2  0  0  0
 40 58  1  0  0  0
 41107  1  0  0  0
 41108  1  0  0  0
 41109  1  0  0  0
 41 48  1  0  0  0
 42 43  1  0  0  0
 42 66  1  0  0  0
 42110  1  0  0  0
 42111  1  0  0  0
 43 44  1  0  0  0
 44112  1  0  0  0
 45 46  2  0  0  0
 45113  1  0  0  0
 46114  1  0  0  0
 47115  1  0  0  0
 47116  1  0  0  0
 48 56  1  0  0  0
 48 65  1  0  0  0
 48117  1  0  0  0
 49 50  1  0  0  0
 49 53  1  0  0  0
 49 64  1  0  0  0
 49118  1  0  0  0
 50 51  1  0  0  0
 50119  1  0  0  0
 50120  1  0  0  0
 51 52  1  0  0  0
 51121  1  0  0  0
 51122  1  0  0  0
 52123  1  0  0  0
 52124  1  0  0  0
 53 54  1  0  0  0
 54 55  2  0  0  0
 54125  1  0  0  0
 55 57  1  0  0  0
 55126  1  0  0  0
 56 69  2  0  0  0
 57 58  2  0  0  0
 57127  1  0  0  0
 58128  1  0  0  0
 59 60  1  0  0  0
 59 61  1  0  0  0
 59 62  1  0  0  0
 60129  1  0  0  0
 60130  1  0  0  0
 60131  1  0  0  0
 61132  1  0  0  0
 61133  1  0  0  0
 61134  1  0  0  0
 62135  1  0  0  0
 62136  1  0  0  0
 62137  1  0  0  0
 63 65  1  0  0  0
 63138  1  0  0  0
 63139  1  0  0  0
 63140  1  0  0  0
 64141  1  0  0  0
 65142  1  0  0  0
 68 80  1  0  0  0
 71 72  1  0  0  0
 71 73  2  0  0  0
 71143  1  0  0  0
 72 74  2  0  0  0
 72 81  1  0  0  0
 73 78  1  0  0  0
 73 82  1  0  0  0
 74 75  1  0  0  0
 74 82  1  0  0  0
 75144  1  0  0  0
 75145  1  0  0  0
 75146  1  0  0  0
 76147  1  0  0  0
 76148  1  0  0  0
 76149  1  0  0  0
 76 81  1  0  0  0
 77 82  1  0  0  0
 77150  1  0  0  0
 77151  1  0  0  0
 77152  1  0  0  0
 78 83  1  0  0  0
 78153  1  0  0  0
 78154  1  0  0  0
 79 80  1  0  0  0
 79 81  1  0  0  0
 79155  1  0  0  0
 79156  1  0  0  0
 80157  1  0  0  0
 80158  1  0  0  0
 81159  1  0  0  0
 83160  1  0  0  0
M  ISO  4   1 100  68 101  80 101  83 100
M  END
> <chiral flag>
0

> <version>
0

> <s_m_source_file>
/data/baiqing/PycharmProjects/Reinvent-master-3.2/result/LINK_invent/BTK/process_docking_weight1_custom_sum_contain_oxygen_bond_distance_aromatic_linkinvent_7_9_3/rearranged_h_0107.sdf

> <i_m_source_file_index>
8

> <r_mmod_Potential_Energy-OPLS-2005>
53.4572525024414

> <r_mmod_Stretch_Energy-OPLS-2005>
105.114631652832

> <r_mmod_Bend_Energy-OPLS-2005>
178.061981201172

> <r_mmod_Torsional_Energy-OPLS-2005>
217.945404052734

> <r_mmod_Improper_Torsional_Energy-OPLS-2005>
8.08017730712891

> <r_mmod_Van_der_Waal_Energy-OPLS-2005>
134.115768432617

> <r_mmod_Electrostatic_Energy-OPLS-2005>
-452.036529541016

> <r_mmod_Solvation_Energy-OPLS-2005>
-208.894165039062

> <b_mmod_Minimization_Converged-OPLS-2005>
0

> <r_mmod_RMS_Derivative-OPLS-2005>
3.85559034347534

$$$$
8
                    3D
 Structure written by MMmdl.
170179  0  0  1  0            999 V2000
  -30.5689  -14.7780   20.3934 C   0  0  0  0  0  0
  -30.4557  -12.4753   19.4115 C   0  0  0  0  0  0
  -29.5132  -12.4989   18.1878 C   0  0  0  0  0  0
  -28.0314  -12.3589   18.6076 C   0  0  0  0  0  0
  -27.6411  -13.2378   19.8330 C   0  0  2  0  0  0
  -28.7061  -13.1520   20.9423 C   0  0  0  0  0  0
  -25.2520  -13.8211   20.5768 C   0  0  0  0  0  0
  -24.1798  -13.0449   20.9278 C   0  0  0  0  0  0
  -24.6398  -11.6926   20.8772 C   0  0  0  0  0  0
  -23.9078  -10.4284   21.0410 C   0  0  0  0  0  0
  -24.3617   -9.4204   21.9220 C   0  0  0  0  0  0
  -23.6279   -8.2238   22.0799 C   0  0  0  0  0  0
  -22.4259   -8.0289   21.3580 C   0  0  0  0  0  0
  -21.9889   -9.0287   20.4682 C   0  0  0  0  0  0
  -22.7254  -10.2149   20.3052 C   0  0  0  0  0  0
  -21.6850   -6.0707   22.5294 C   0  0  0  0  0  0
  -21.4033   -6.5598   23.8238 C   0  0  0  0  0  0
  -21.3664   -5.6762   24.9203 C   0  0  0  0  0  0
  -21.6007   -4.3017   24.7265 C   0  0  0  0  0  0
  -21.8825   -3.8106   23.4399 C   0  0  0  0  0  0
  -21.9194   -4.6919   22.3453 C   0  0  0  0  0  0
  -22.7810  -13.5256   21.1813 C   0  0  0  0  0  0
  -22.1666   -4.2084   21.1048 F   0  0  0  0  0  0
  -21.5585   -3.4508   25.7800 F   0  0  0  0  0  0
  -29.9873  -13.5370   20.3285 N   0  0  0  0  0  0
  -26.2972  -12.9434   20.3248 N   0  0  0  0  0  0
  -25.9325  -11.6572   20.5643 N   0  0  0  0  0  0
  -22.0272  -12.8424   22.0329 N   0  0  0  0  0  0
  -25.3998  -15.1979   20.4266 N   0  0  0  0  0  0
  -31.7891  -14.8979   20.2343 O   0  0  0  0  0  0
  -21.6628   -6.8884   21.4264 O   0  0  0  0  0  0
  -22.3576  -14.5551   20.6582 O   0  0  0  0  0  0
  -24.6288  -31.8620   23.1909 C   0  0  0  0  0  0
  -25.9096  -32.4803   23.8256 C   0  0  1  0  0  0
  -27.1909  -27.2620   20.0818 C   0  0  0  0  0  0
  -25.5849  -33.8597   24.2105 N   0  0  0  0  0  0
  -23.4204  -30.4957   21.5390 C   0  0  2  0  0  0
  -24.8599  -28.9464   20.1029 C   0  0  0  0  0  0
  -22.7477  -29.4665   22.4832 C   0  0  0  0  0  0
  -18.0281  -28.1458   22.8455 C   0  0  0  0  0  0
  -24.1486  -36.7401   23.2624 C   0  0  0  0  0  0
  -25.9700  -30.7770   21.3615 C   0  0  0  0  0  0
  -26.0407  -29.3976   20.7045 C   0  0  0  0  0  0
  -27.2120  -28.5694   20.6788 C   0  0  0  0  0  0
  -25.9751  -26.8781   19.4716 C   0  0  0  0  0  0
  -24.8288  -27.6951   19.4750 C   0  0  0  0  0  0
  -23.6412  -29.8502   20.1493 C   0  0  0  0  0  0
  -25.4089  -36.3090   24.0264 C   0  0  1  0  0  0
  -20.5891  -28.3726   23.1286 C   0  0  2  0  0  0
  -20.6783  -26.9427   22.5460 C   0  0  0  0  0  0
  -19.5777  -26.6395   21.5237 C   0  0  0  0  0  0
  -18.1946  -26.7995   22.1632 C   0  0  0  0  0  0
  -19.1546  -28.8902   23.2910 C   0  0  0  0  0  0
  -18.9465  -30.1473   23.8946 C   0  0  0  0  0  0
  -17.6475  -30.6629   24.0608 C   0  0  0  0  0  0
  -25.9032  -34.9463   23.5002 C   0  0  0  0  0  0
  -16.5361  -29.9162   23.6317 C   0  0  0  0  0  0
  -16.7269  -28.6627   23.0264 C   0  0  0  0  0  0
  -26.4357  -31.6622   25.0669 C   0  0  0  0  0  0
  -25.3500  -31.3928   26.1351 C   0  0  0  0  0  0
  -27.0081  -30.2985   24.6168 C   0  0  0  0  0  0
  -27.5882  -32.4325   25.7561 C   0  0  0  0  0  0
  -27.5559  -37.1855   24.8392 C   0  0  0  0  0  0
  -21.4158  -29.3084   22.3648 N   0  0  0  0  0  0
  -26.4249  -37.3793   23.9389 N   0  0  0  0  0  0
  -24.6943  -31.0617   22.0887 N   0  0  0  0  0  0
  -23.4226  -28.8125   23.2836 O   0  0  0  0  0  0
  -28.2805  -26.3562   20.0895 O   0  0  0  0  0  0
  -26.5683  -34.8939   22.4603 O   0  0  0  0  0  0
  -23.5430  -32.1433   23.7221 O   0  0  0  0  0  0
  -28.1832  -20.9220   23.1181 C   0  0  0  0  0  0
  -28.0671  -21.7989   22.0327 C   0  0  0  0  0  0
  -28.9754  -19.8756   22.7369 C   0  0  0  0  0  0
  -28.7629  -21.2835   20.9742 C   0  0  0  0  0  0
  -30.0641  -17.7604   26.4762 C   0  0  0  0  0  0
  -29.1878  -17.0355   25.4387 C   0  0  0  0  0  0
  -31.0515  -18.7351   25.8116 C   0  0  0  0  0  0
  -28.5354  -18.0150   24.4437 C   0  0  0  0  0  0
  -30.3442  -19.6891   24.8388 C   0  0  0  0  0  0
  -29.5758  -18.9187   23.7460 C   0  0  0  0  0  0
  -28.9781  -22.1913   19.7297 C   0  0  0  0  0  0
  -29.1895  -23.7915   19.9695 C   0  0  0  0  0  0
  -29.7932  -18.7636   20.4859 C   0  0  0  0  0  0
  -29.8844  -17.2434   21.1061 C   0  0  0  0  0  0
  -28.0143  -24.8883   19.8581 C   0  0  0  0  0  0
  -29.1719  -19.9168   21.3289 N   0  0  0  0  0  0
  -29.7358  -15.8970   20.3944 N   0  0  0  0  0  0
  -31.4835  -12.6352   19.0814 H   0  0  0  0  0  0
  -30.4459  -11.4984   19.8944 H   0  0  0  0  0  0
  -29.7670  -11.6879   17.5012 H   0  0  0  0  0  0
  -29.6657  -13.4232   17.6239 H   0  0  0  0  0  0
  -27.8482  -11.3109   18.8393 H   0  0  0  0  0  0
  -27.3854  -12.5780   17.7556 H   0  0  0  0  0  0
  -27.6251  -14.2647   19.4705 H   0  0  0  0  0  0
  -28.7649  -12.1369   21.3268 H   0  0  0  0  0  0
  -28.4565  -13.7992   21.7891 H   0  0  0  0  0  0
  -25.2753   -9.5602   22.4845 H   0  0  0  0  0  0
  -23.9893   -7.4581   22.7572 H   0  0  0  0  0  0
  -21.0755   -8.8887   19.9029 H   0  0  0  0  0  0
  -22.3757  -10.9712   19.6140 H   0  0  0  0  0  0
  -21.2063   -7.6114   23.9754 H   0  0  0  0  0  0
  -21.1435   -6.0471   25.9099 H   0  0  0  0  0  0
  -22.0574   -2.7556   23.2948 H   0  0  0  0  0  0
  -22.3709  -12.0313   22.5221 H   0  0  0  0  0  0
  -21.0825  -13.1530   22.2107 H   0  0  0  0  0  0
  -24.6048  -15.8167   20.5521 H   0  0  0  0  0  0
  -26.1972  -15.6674   20.0225 H   0  0  0  0  0  0
  -26.7175  -32.5437   23.1013 H   0  0  0  0  0  0
  -24.9711  -33.9710   25.0050 H   0  0  0  0  0  0
  -22.7106  -31.3191   21.4031 H   0  0  0  0  0  0
  -23.3672  -35.9822   23.3229 H   0  0  0  0  0  0
  -24.3609  -36.9137   22.2067 H   0  0  0  0  0  0
  -23.7347  -37.6601   23.6744 H   0  0  0  0  0  0
  -26.0769  -31.5282   20.5780 H   0  0  0  0  0  0
  -26.8639  -30.8581   21.9707 H   0  0  0  0  0  0
  -28.1214  -28.9168   21.1451 H   0  0  0  0  0  0
  -25.8618  -25.9281   18.9769 H   0  0  0  0  0  0
  -23.9222  -27.3488   19.0010 H   0  0  0  0  0  0
  -23.7918  -30.6473   19.4182 H   0  0  0  0  0  0
  -22.7498  -29.3178   19.8162 H   0  0  0  0  0  0
  -25.1288  -36.1888   25.0761 H   0  0  0  0  0  0
  -21.0005  -28.3339   24.1400 H   0  0  0  0  0  0
  -20.5658  -26.2309   23.3666 H   0  0  0  0  0  0
  -21.6655  -26.7466   22.1263 H   0  0  0  0  0  0
  -19.6914  -25.6276   21.1329 H   0  0  0  0  0  0
  -19.6748  -27.3159   20.6731 H   0  0  0  0  0  0
  -17.4195  -26.6669   21.4069 H   0  0  0  0  0  0
  -18.0356  -26.0205   22.9093 H   0  0  0  0  0  0
  -19.7936  -30.7295   24.2344 H   0  0  0  0  0  0
  -17.5028  -31.6307   24.5214 H   0  0  0  0  0  0
  -15.5358  -30.3105   23.7615 H   0  0  0  0  0  0
  -15.8666  -28.1020   22.6834 H   0  0  0  0  0  0
  -24.5635  -30.7309   25.7691 H   0  0  0  0  0  0
  -24.8696  -32.3170   26.4590 H   0  0  0  0  0  0
  -25.7698  -30.9215   27.0240 H   0  0  0  0  0  0
  -26.2586  -29.6915   24.1064 H   0  0  0  0  0  0
  -27.3502  -29.7148   25.4714 H   0  0  0  0  0  0
  -27.8604  -30.4160   23.9489 H   0  0  0  0  0  0
  -27.2399  -33.3582   26.2182 H   0  0  0  0  0  0
  -28.3762  -32.6972   25.0495 H   0  0  0  0  0  0
  -28.0443  -31.8393   26.5501 H   0  0  0  0  0  0
  -28.2493  -38.0216   24.7433 H   0  0  0  0  0  0
  -28.1122  -36.2733   24.6157 H   0  0  0  0  0  0
  -27.2319  -37.1473   25.8806 H   0  0  0  0  0  0
  -20.9226  -29.8955   21.7053 H   0  0  0  0  0  0
  -26.0083  -38.2848   24.1437 H   0  0  0  0  0  0
  -27.8296  -21.1037   24.1256 H   0  0  0  0  0  0
  -27.5951  -22.7739   22.0642 H   0  0  0  0  0  0
  -30.6086  -17.0251   27.0696 H   0  0  0  0  0  0
  -29.4195  -18.3117   27.1646 H   0  0  0  0  0  0
  -28.4047  -16.4837   25.9611 H   0  0  0  0  0  0
  -29.7792  -16.2908   24.9002 H   0  0  0  0  0  0
  -31.8233  -18.1827   25.2765 H   0  0  0  0  0  0
  -31.5695  -19.3110   26.5805 H   0  0  0  0  0  0
  -27.8095  -18.6326   24.9759 H   0  0  0  0  0  0
  -27.9586  -17.4429   23.7200 H   0  0  0  0  0  0
  -31.0823  -20.3401   24.3678 H   0  0  0  0  0  0
  -29.6693  -20.3397   25.4018 H   0  0  0  0  0  0
  -30.3477  -18.3179   23.2886 H   0  0  0  0  0  0
  -28.1542  -22.0551   19.0244 H   0  0  0  0  0  0
  -29.8647  -21.8195   19.2087 H   0  0  0  0  0  0
  -29.9053  -24.1084   19.2081 H   0  0  0  0  0  0
  -29.7269  -23.9449   20.9052 H   0  0  0  0  0  0
  -29.3242  -18.7578   19.5039 H   0  0  0  0  0  0
  -30.8206  -19.0700   20.2867 H   0  0  0  0  0  0
  -29.0770  -17.1748   21.8256 H   0  0  0  0  0  0
  -30.8340  -17.1696   21.6314 H   0  0  0  0  0  0
  -27.2170  -24.5743   20.5370 H   0  0  0  0  0  0
  -27.6236  -24.7672   18.8434 H   0  0  0  0  0  0
  -28.7738  -15.6648   20.1916 H   0  0  0  0  0  0
  1 25  1  0  0  0
  1 30  2  0  0  0
  1 87  1  0  0  0
  2  3  1  0  0  0
  2 25  1  0  0  0
  2 88  1  0  0  0
  2 89  1  0  0  0
  3  4  1  0  0  0
  3 90  1  0  0  0
  3 91  1  0  0  0
  4  5  1  0  0  0
  4 92  1  0  0  0
  4 93  1  0  0  0
  5  6  1  0  0  0
  5 26  1  0  0  0
  5 94  1  0  0  0
  6 25  1  0  0  0
  6 95  1  0  0  0
  6 96  1  0  0  0
  7  8  2  0  0  0
  7 26  1  0  0  0
  7 29  1  0  0  0
  8  9  1  0  0  0
  8 22  1  0  0  0
  9 10  1  0  0  0
  9 27  2  0  0  0
 10 11  2  0  0  0
 10 15  1  0  0  0
 11 12  1  0  0  0
 11 97  1  0  0  0
 12 13  2  0  0  0
 12 98  1  0  0  0
 13 14  1  0  0  0
 13 31  1  0  0  0
 14 15  2  0  0  0
 14 99  1  0  0  0
 15100  1  0  0  0
 16 17  2  0  0  0
 16 21  1  0  0  0
 16 31  1  0  0  0
 17 18  1  0  0  0
 17101  1  0  0  0
 18 19  2  0  0  0
 18102  1  0  0  0
 19 20  1  0  0  0
 19 24  1  0  0  0
 20 21  2  0  0  0
 20103  1  0  0  0
 21 23  1  0  0  0
 22 28  1  0  0  0
 22 32  2  0  0  0
 26 27  1  0  0  0
 28104  1  0  0  0
 28105  1  0  0  0
 29106  1  0  0  0
 29107  1  0  0  0
 33 34  1  0  0  0
 33 66  1  0  0  0
 33 70  2  0  0  0
 34 36  1  0  0  0
 34 59  1  0  0  0
 34108  1  0  0  0
 35 44  2  0  0  0
 35 45  1  0  0  0
 35 68  1  0  0  0
 36 56  1  0  0  0
 36109  1  0  0  0
 37 39  1  0  0  0
 37 47  1  0  0  0
 37 66  1  0  0  0
 37110  1  0  0  0
 38 43  2  0  0  0
 38 46  1  0  0  0
 38 47  1  0  0  0
 39 64  1  0  0  0
 39 67  2  0  0  0
 40 52  1  0  0  0
 40 53  2  0  0  0
 40 58  1  0  0  0
 41111  1  0  0  0
 41112  1  0  0  0
 41113  1  0  0  0
 41 48  1  0  0  0
 42 43  1  0  0  0
 42 66  1  0  0  0
 42114  1  0  0  0
 42115  1  0  0  0
 43 44  1  0  0  0
 44116  1  0  0  0
 45 46  2  0  0  0
 45117  1  0  0  0
 46118  1  0  0  0
 47119  1  0  0  0
 47120  1  0  0  0
 48 56  1  0  0  0
 48 65  1  0  0  0
 48121  1  0  0  0
 49 50  1  0  0  0
 49 53  1  0  0  0
 49 64  1  0  0  0
 49122  1  0  0  0
 50 51  1  0  0  0
 50123  1  0  0  0
 50124  1  0  0  0
 51 52  1  0  0  0
 51125  1  0  0  0
 51126  1  0  0  0
 52127  1  0  0  0
 52128  1  0  0  0
 53 54  1  0  0  0
 54 55  2  0  0  0
 54129  1  0  0  0
 55 57  1  0  0  0
 55130  1  0  0  0
 56 69  2  0  0  0
 57 58  2  0  0  0
 57131  1  0  0  0
 58132  1  0  0  0
 59 60  1  0  0  0
 59 61  1  0  0  0
 59 62  1  0  0  0
 60133  1  0  0  0
 60134  1  0  0  0
 60135  1  0  0  0
 61136  1  0  0  0
 61137  1  0  0  0
 61138  1  0  0  0
 62139  1  0  0  0
 62140  1  0  0  0
 62141  1  0  0  0
 63 65  1  0  0  0
 63142  1  0  0  0
 63143  1  0  0  0
 63144  1  0  0  0
 64145  1  0  0  0
 65146  1  0  0  0
 68 85  1  0  0  0
 71 72  1  0  0  0
 71 73  2  0  0  0
 71147  1  0  0  0
 72 74  2  0  0  0
 72148  1  0  0  0
 73 86  1  0  0  0
 73 80  1  0  0  0
 74 81  1  0  0  0
 74 86  1  0  0  0
 75 76  1  0  0  0
 75 77  1  0  0  0
 75149  1  0  0  0
 75150  1  0  0  0
 76 78  1  0  0  0
 76151  1  0  0  0
 76152  1  0  0  0
 77 79  1  0  0  0
 77153  1  0  0  0
 77154  1  0  0  0
 78 80  1  0  0  0
 78155  1  0  0  0
 78156  1  0  0  0
 79 80  1  0  0  0
 79157  1  0  0  0
 79158  1  0  0  0
 80159  1  0  0  0
 81 82  1  0  0  0
 81160  1  0  0  0
 81161  1  0  0  0
 82 85  1  0  0  0
 82162  1  0  0  0
 82163  1  0  0  0
 83 84  1  0  0  0
 83 86  1  0  0  0
 83164  1  0  0  0
 83165  1  0  0  0
 84 87  1  0  0  0
 84166  1  0  0  0
 84167  1  0  0  0
 85168  1  0  0  0
 85169  1  0  0  0
 87170  1  0  0  0
M  ISO  4   1 100  68 101  85 101  87 100
M  END
> <chiral flag>
0

> <version>
0

> <s_m_source_file>
/data/baiqing/PycharmProjects/Reinvent-master-3.2/result/LINK_invent/BTK/process_docking_weight1_custom_sum_contain_oxygen_bond_distance_aromatic_linkinvent_7_9_3/rearranged_h_0107.sdf

> <i_m_source_file_index>
9

> <r_mmod_Potential_Energy-OPLS-2005>
323.197692871094

> <r_mmod_Stretch_Energy-OPLS-2005>
151.805709838867

> <r_mmod_Bend_Energy-OPLS-2005>
235.97492980957

> <r_mmod_Torsional_Energy-OPLS-2005>
305.463195800781

> <r_mmod_Improper_Torsional_Energy-OPLS-2005>
8.0910177230835

> <r_mmod_Van_der_Waal_Energy-OPLS-2005>
126.028221130371

> <r_mmod_Electrostatic_Energy-OPLS-2005>
-395.002990722656

> <r_mmod_Solvation_Energy-OPLS-2005>
-210.531524658203

> <b_mmod_Minimization_Converged-OPLS-2005>
0

> <r_mmod_RMS_Derivative-OPLS-2005>
9.43209552764893

$$$$
9
                    3D
 Structure written by MMmdl.
159167  0  0  1  0            999 V2000
  -30.6011  -14.7886   20.4582 C   0  0  0  0  0  0
  -30.4333  -12.4866   19.4698 C   0  0  0  0  0  0
  -29.5082  -12.5093   18.2327 C   0  0  0  0  0  0
  -28.0364  -12.3249   18.6508 C   0  0  0  0  0  0
  -27.6371  -13.2348   19.8431 C   0  0  2  0  0  0
  -28.6839  -13.1923   20.9764 C   0  0  0  0  0  0
  -25.2487  -13.8202   20.5696 C   0  0  0  0  0  0
  -24.1787  -13.0439   20.9214 C   0  0  0  0  0  0
  -24.6386  -11.6923   20.8753 C   0  0  0  0  0  0
  -23.9064  -10.4296   21.0407 C   0  0  0  0  0  0
  -24.3618   -9.4209   21.9185 C   0  0  0  0  0  0
  -23.6296   -8.2242   22.0754 C   0  0  0  0  0  0
  -22.4276   -8.0276   21.3546 C   0  0  0  0  0  0
  -21.9909   -9.0249   20.4647 C   0  0  0  0  0  0
  -22.7235  -10.2129   20.3055 C   0  0  0  0  0  0
  -21.6851   -6.0730   22.5280 C   0  0  0  0  0  0
  -21.4014   -6.5636   23.8211 C   0  0  0  0  0  0
  -21.3662   -5.6792   24.9176 C   0  0  0  0  0  0
  -21.6044   -4.3057   24.7230 C   0  0  0  0  0  0
  -21.8819   -3.8143   23.4355 C   0  0  0  0  0  0
  -21.9195   -4.6959   22.3405 C   0  0  0  0  0  0
  -22.7805  -13.5213   21.1884 C   0  0  0  0  0  0
  -22.1662   -4.2138   21.0986 F   0  0  0  0  0  0
  -21.5633   -3.4543   25.7745 F   0  0  0  0  0  0
  -29.9754  -13.5602   20.3845 N   0  0  0  0  0  0
  -26.2913  -12.9417   20.3258 N   0  0  0  0  0  0
  -25.9316  -11.6559   20.5741 N   0  0  0  0  0  0
  -22.0460  -12.8194   22.0440 N   0  0  0  0  0  0
  -25.4159  -15.1929   20.4112 N   0  0  0  0  0  0
  -31.8013  -14.8709   20.1861 O   0  0  0  0  0  0
  -21.6646   -6.8870   21.4239 O   0  0  0  0  0  0
  -22.3487  -14.5518   20.6732 O   0  0  0  0  0  0
  -24.6335  -31.8519   23.1941 C   0  0  0  0  0  0
  -25.9143  -32.4739   23.8312 C   0  0  1  0  0  0
  -27.2241  -27.2255   20.1412 C   0  0  0  0  0  0
  -25.5929  -33.8544   24.2237 N   0  0  0  0  0  0
  -23.4325  -30.4713   21.5382 C   0  0  2  0  0  0
  -24.8809  -28.9095   20.1123 C   0  0  0  0  0  0
  -22.7516  -29.4576   22.4900 C   0  0  0  0  0  0
  -18.0295  -28.1379   22.8486 C   0  0  0  0  0  0
  -24.1494  -36.7278   23.2642 C   0  0  0  0  0  0
  -25.9798  -30.7554   21.3772 C   0  0  0  0  0  0
  -26.0523  -29.3730   20.7223 C   0  0  0  0  0  0
  -27.2239  -28.5453   20.7210 C   0  0  0  0  0  0
  -26.0233  -26.8312   19.5104 C   0  0  0  0  0  0
  -24.8739  -27.6489   19.4943 C   0  0  0  0  0  0
  -23.6530  -29.8001   20.1563 C   0  0  0  0  0  0
  -25.4123  -36.3062   24.0323 C   0  0  1  0  0  0
  -20.5897  -28.3691   23.1270 C   0  0  2  0  0  0
  -20.6776  -26.9405   22.5410 C   0  0  0  0  0  0
  -19.5753  -26.6374   21.5212 C   0  0  0  0  0  0
  -18.1933  -26.7920   22.1622 C   0  0  0  0  0  0
  -19.1546  -28.8851   23.2873 C   0  0  0  0  0  0
  -18.9466  -30.1452   23.8890 C   0  0  0  0  0  0
  -17.6462  -30.6578   24.0556 C   0  0  0  0  0  0
  -25.9063  -34.9433   23.5085 C   0  0  0  0  0  0
  -16.5355  -29.9072   23.6329 C   0  0  0  0  0  0
  -16.7279  -28.6489   23.0354 C   0  0  0  0  0  0
  -26.4499  -31.6574   25.0710 C   0  0  0  0  0  0
  -25.3716  -31.3722   26.1423 C   0  0  0  0  0  0
  -27.0353  -30.2992   24.6206 C   0  0  0  0  0  0
  -27.6048  -32.4324   25.7488 C   0  0  0  0  0  0
  -27.5580  -37.1798   24.8466 C   0  0  0  0  0  0
  -21.4216  -29.3033   22.3652 N   0  0  0  0  0  0
  -26.4295  -37.3762   23.9405 N   0  0  0  0  0  0
  -24.7011  -31.0457   22.0927 N   0  0  0  0  0  0
  -23.4203  -28.8123   23.3018 O   0  0  0  0  0  0
  -28.3415  -26.3479   20.2023 O   0  0  0  0  0  0
  -26.5637  -34.8913   22.4657 O   0  0  0  0  0  0
  -23.5479  -32.1349   23.7214 O   0  0  0  0  0  0
  -27.8760  -22.2812   20.7439 C   0  0  0  0  0  0
  -30.1918  -22.8915   20.1298 C   0  0  0  0  0  0
  -27.7972  -23.8611   21.0476 C   0  0  0  0  0  0
  -29.6867  -24.2591   19.4914 C   0  0  0  0  0  0
  -29.2157  -21.6487   20.1759 C   0  0  1  0  0  0
  -28.2978  -24.8495   19.9291 C   0  0  2  0  0  0
  -31.3363  -20.3134   20.9842 C   0  0  0  0  0  0
  -29.4182  -18.7241   20.3355 C   0  0  0  0  0  0
  -30.2751  -17.4082   20.8420 C   0  0  0  0  0  0
  -29.7989  -20.2428   20.8565 C   0  0  2  0  0  0
  -29.8337  -15.9411   20.6431 N   0  0  0  0  0  0
  -31.4718  -12.6208   19.1626 H   0  0  0  0  0  0
  -30.3919  -11.5170   19.9689 H   0  0  0  0  0  0
  -29.7974  -11.7283   17.5280 H   0  0  0  0  0  0
  -29.6235  -13.4569   17.7036 H   0  0  0  0  0  0
  -27.9018  -11.2779   18.9262 H   0  0  0  0  0  0
  -27.3757  -12.5028   17.8006 H   0  0  0  0  0  0
  -27.6228  -14.2515   19.4499 H   0  0  0  0  0  0
  -28.7342  -12.1991   21.4249 H   0  0  0  0  0  0
  -28.4135  -13.8784   21.7806 H   0  0  0  0  0  0
  -25.2756   -9.5690   22.4771 H   0  0  0  0  0  0
  -24.0005   -7.4630   22.7472 H   0  0  0  0  0  0
  -21.0842   -8.8765   19.8953 H   0  0  0  0  0  0
  -22.3688  -10.9670   19.6175 H   0  0  0  0  0  0
  -21.2002   -7.6142   23.9709 H   0  0  0  0  0  0
  -21.1485   -6.0526   25.9076 H   0  0  0  0  0  0
  -22.0598   -2.7604   23.2860 H   0  0  0  0  0  0
  -22.4082  -11.9849   22.4814 H   0  0  0  0  0  0
  -21.1078  -13.1210   22.2658 H   0  0  0  0  0  0
  -24.6450  -15.8436   20.5172 H   0  0  0  0  0  0
  -26.2570  -15.6337   20.0625 H   0  0  0  0  0  0
  -26.7204  -32.5379   23.1049 H   0  0  0  0  0  0
  -25.0074  -33.9680   25.0378 H   0  0  0  0  0  0
  -22.7301  -31.2937   21.3881 H   0  0  0  0  0  0
  -23.3758  -35.9609   23.3300 H   0  0  0  0  0  0
  -24.3587  -36.8905   22.2059 H   0  0  0  0  0  0
  -23.7245  -37.6474   23.6675 H   0  0  0  0  0  0
  -26.1198  -31.5139   20.6059 H   0  0  0  0  0  0
  -26.8563  -30.8083   22.0111 H   0  0  0  0  0  0
  -28.1218  -28.8976   21.2085 H   0  0  0  0  0  0
  -25.9346  -25.8665   19.0376 H   0  0  0  0  0  0
  -23.9754  -27.2849   19.0149 H   0  0  0  0  0  0
  -23.7805  -30.5736   19.3985 H   0  0  0  0  0  0
  -22.7710  -29.2339   19.8517 H   0  0  0  0  0  0
  -25.1309  -36.1908   25.0816 H   0  0  0  0  0  0
  -20.9994  -28.3265   24.1391 H   0  0  0  0  0  0
  -20.5667  -26.2298   23.3616 H   0  0  0  0  0  0
  -21.6644  -26.7418   22.1211 H   0  0  0  0  0  0
  -19.6912  -25.6283   21.1246 H   0  0  0  0  0  0
  -19.6691  -27.3179   20.6740 H   0  0  0  0  0  0
  -17.4204  -26.6673   21.4023 H   0  0  0  0  0  0
  -18.0331  -26.0061   22.9019 H   0  0  0  0  0  0
  -19.7940  -30.7272   24.2258 H   0  0  0  0  0  0
  -17.5013  -31.6261   24.5152 H   0  0  0  0  0  0
  -15.5351  -30.2967   23.7656 H   0  0  0  0  0  0
  -15.8684  -28.0801   22.7078 H   0  0  0  0  0  0
  -24.5900  -30.7063   25.7740 H   0  0  0  0  0  0
  -24.8892  -32.2887   26.4837 H   0  0  0  0  0  0
  -25.8027  -30.8904   27.0207 H   0  0  0  0  0  0
  -26.2940  -29.6730   24.1226 H   0  0  0  0  0  0
  -27.4024  -29.7268   25.4733 H   0  0  0  0  0  0
  -27.8824  -30.4264   23.9461 H   0  0  0  0  0  0
  -27.2654  -33.3633   26.2046 H   0  0  0  0  0  0
  -28.3870  -32.6869   25.0323 H   0  0  0  0  0  0
  -28.0704  -31.8460   26.5418 H   0  0  0  0  0  0
  -28.2596  -38.0095   24.7509 H   0  0  0  0  0  0
  -28.1078  -36.2626   24.6303 H   0  0  0  0  0  0
  -27.2299  -37.1457   25.8868 H   0  0  0  0  0  0
  -20.9402  -29.8762   21.6861 H   0  0  0  0  0  0
  -26.0171  -38.2837   24.1393 H   0  0  0  0  0  0
  -27.0786  -22.0387   20.0407 H   0  0  0  0  0  0
  -27.6048  -21.7540   21.6593 H   0  0  0  0  0  0
  -30.5064  -23.1139   21.1508 H   0  0  0  0  0  0
  -31.1040  -22.6122   19.6014 H   0  0  0  0  0  0
  -26.7694  -24.1157   21.3077 H   0  0  0  0  0  0
  -28.3725  -24.0631   21.9522 H   0  0  0  0  0  0
  -29.6833  -24.1516   18.4062 H   0  0  0  0  0  0
  -30.4513  -25.0109   19.6910 H   0  0  0  0  0  0
  -29.0286  -21.4022   19.1298 H   0  0  0  0  0  0
  -27.6508  -24.6889   19.0688 H   0  0  0  0  0  0
  -31.6673  -21.2126   21.5012 H   0  0  0  0  0  0
  -31.8236  -20.2827   20.0093 H   0  0  0  0  0  0
  -31.7352  -19.4926   21.5785 H   0  0  0  0  0  0
  -28.3679  -18.5574   20.5753 H   0  0  0  0  0  0
  -29.4589  -18.7316   19.2458 H   0  0  0  0  0  0
  -30.4064  -17.5119   21.9198 H   0  0  0  0  0  0
  -31.2805  -17.4936   20.4269 H   0  0  0  0  0  0
  -29.4529  -20.2714   21.8908 H   0  0  0  0  0  0
  -28.8474  -15.7685   20.7652 H   0  0  0  0  0  0
  1 25  1  0  0  0
  1 30  2  0  0  0
  1 81  1  0  0  0
  2  3  1  0  0  0
  2 25  1  0  0  0
  2 82  1  0  0  0
  2 83  1  0  0  0
  3  4  1  0  0  0
  3 84  1  0  0  0
  3 85  1  0  0  0
  4  5  1  0  0  0
  4 86  1  0  0  0
  4 87  1  0  0  0
  5  6  1  0  0  0
  5 26  1  0  0  0
  5 88  1  0  0  0
  6 25  1  0  0  0
  6 89  1  0  0  0
  6 90  1  0  0  0
  7  8  2  0  0  0
  7 26  1  0  0  0
  7 29  1  0  0  0
  8  9  1  0  0  0
  8 22  1  0  0  0
  9 10  1  0  0  0
  9 27  2  0  0  0
 10 11  2  0  0  0
 10 15  1  0  0  0
 11 12  1  0  0  0
 11 91  1  0  0  0
 12 13  2  0  0  0
 12 92  1  0  0  0
 13 14  1  0  0  0
 13 31  1  0  0  0
 14 15  2  0  0  0
 14 93  1  0  0  0
 15 94  1  0  0  0
 16 17  2  0  0  0
 16 21  1  0  0  0
 16 31  1  0  0  0
 17 18  1  0  0  0
 17 95  1  0  0  0
 18 19  2  0  0  0
 18 96  1  0  0  0
 19 20  1  0  0  0
 19 24  1  0  0  0
 20 21  2  0  0  0
 20 97  1  0  0  0
 21 23  1  0  0  0
 22 28  1  0  0  0
 22 32  2  0  0  0
 26 27  1  0  0  0
 28 98  1  0  0  0
 28 99  1  0  0  0
 29100  1  0  0  0
 29101  1  0  0  0
 33 34  1  0  0  0
 33 66  1  0  0  0
 33 70  2  0  0  0
 34 36  1  0  0  0
 34 59  1  0  0  0
 34102  1  0  0  0
 35 44  2  0  0  0
 35 45  1  0  0  0
 35 68  1  0  0  0
 36 56  1  0  0  0
 36103  1  0  0  0
 37 39  1  0  0  0
 37 47  1  0  0  0
 37 66  1  0  0  0
 37104  1  0  0  0
 38 43  2  0  0  0
 38 46  1  0  0  0
 38 47  1  0  0  0
 39 64  1  0  0  0
 39 67  2  0  0  0
 40 52  1  0  0  0
 40 53  2  0  0  0
 40 58  1  0  0  0
 41105  1  0  0  0
 41106  1  0  0  0
 41107  1  0  0  0
 41 48  1  0  0  0
 42 43  1  0  0  0
 42 66  1  0  0  0
 42108  1  0  0  0
 42109  1  0  0  0
 43 44  1  0  0  0
 44110  1  0  0  0
 45 46  2  0  0  0
 45111  1  0  0  0
 46112  1  0  0  0
 47113  1  0  0  0
 47114  1  0  0  0
 48 56  1  0  0  0
 48 65  1  0  0  0
 48115  1  0  0  0
 49 50  1  0  0  0
 49 53  1  0  0  0
 49 64  1  0  0  0
 49116  1  0  0  0
 50 51  1  0  0  0
 50117  1  0  0  0
 50118  1  0  0  0
 51 52  1  0  0  0
 51119  1  0  0  0
 51120  1  0  0  0
 52121  1  0  0  0
 52122  1  0  0  0
 53 54  1  0  0  0
 54 55  2  0  0  0
 54123  1  0  0  0
 55 57  1  0  0  0
 55124  1  0  0  0
 56 69  2  0  0  0
 57 58  2  0  0  0
 57125  1  0  0  0
 58126  1  0  0  0
 59 60  1  0  0  0
 59 61  1  0  0  0
 59 62  1  0  0  0
 60127  1  0  0  0
 60128  1  0  0  0
 60129  1  0  0  0
 61130  1  0  0  0
 61131  1  0  0  0
 61132  1  0  0  0
 62133  1  0  0  0
 62134  1  0  0  0
 62135  1  0  0  0
 63 65  1  0  0  0
 63136  1  0  0  0
 63137  1  0  0  0
 63138  1  0  0  0
 64139  1  0  0  0
 65140  1  0  0  0
 68 76  1  0  0  0
 71 73  1  0  0  0
 71141  1  0  0  0
 71142  1  0  0  0
 71 75  1  0  0  0
 72 74  1  0  0  0
 72 75  1  0  0  0
 72143  1  0  0  0
 72144  1  0  0  0
 73 76  1  0  0  0
 73145  1  0  0  0
 73146  1  0  0  0
 74 76  1  0  0  0
 74147  1  0  0  0
 74148  1  0  0  0
 75 80  1  0  0  0
 75149  1  0  0  0
 76150  1  0  0  0
 77151  1  0  0  0
 77152  1  0  0  0
 77153  1  0  0  0
 77 80  1  0  0  0
 78 79  1  0  0  0
 78 80  1  0  0  0
 78154  1  0  0  0
 78155  1  0  0  0
 79 81  1  0  0  0
 79156  1  0  0  0
 79157  1  0  0  0
 80158  1  0  0  0
 81159  1  0  0  0
M  ISO  4   1 100  68 101  76 101  81 100
M  END
> <chiral flag>
0

> <version>
0

> <s_m_source_file>
/data/baiqing/PycharmProjects/Reinvent-master-3.2/result/LINK_invent/BTK/process_docking_weight1_custom_sum_contain_oxygen_bond_distance_aromatic_linkinvent_7_9_3/rearranged_h_0107.sdf

> <i_m_source_file_index>
10

> <r_mmod_Potential_Energy-OPLS-2005>
311.962493896484

> <r_mmod_Stretch_Energy-OPLS-2005>
162.346496582031

> <r_mmod_Bend_Energy-OPLS-2005>
215.328277587891

> <r_mmod_Torsional_Energy-OPLS-2005>
266.434295654297

> <r_mmod_Improper_Torsional_Energy-OPLS-2005>
4.20260953903198

> <r_mmod_Van_der_Waal_Energy-OPLS-2005>
130.034866333008

> <r_mmod_Electrostatic_Energy-OPLS-2005>
-372.449523925781

> <r_mmod_Solvation_Energy-OPLS-2005>
-198.290710449219

> <b_mmod_Minimization_Converged-OPLS-2005>
0

> <r_mmod_RMS_Derivative-OPLS-2005>
1.23356127738953

$$$$
10
                    3D
 Structure written by MMmdl.
161169  0  0  1  0            999 V2000
  -30.6552  -14.4779   20.5212 C   0  0  0  0  0  0
  -30.4240  -12.2818   19.4203 C   0  0  0  0  0  0
  -29.5061  -12.5026   18.1955 C   0  0  0  0  0  0
  -28.0223  -12.3463   18.5976 C   0  0  0  0  0  0
  -27.6576  -13.1901   19.8479 C   0  0  2  0  0  0
  -28.6947  -12.9700   20.9734 C   0  0  0  0  0  0
  -25.2607  -13.8140   20.5554 C   0  0  0  0  0  0
  -24.1830  -13.0444   20.9110 C   0  0  0  0  0  0
  -24.6369  -11.6889   20.8603 C   0  0  0  0  0  0
  -23.9027  -10.4278   21.0320 C   0  0  0  0  0  0
  -24.3614   -9.4215   21.9087 C   0  0  0  0  0  0
  -23.6354   -8.2206   22.0684 C   0  0  0  0  0  0
  -22.4311   -8.0230   21.3496 C   0  0  0  0  0  0
  -21.9902   -9.0185   20.4595 C   0  0  0  0  0  0
  -22.7198  -10.2085   20.2983 C   0  0  0  0  0  0
  -21.6838   -6.0713   22.5311 C   0  0  0  0  0  0
  -21.4004   -6.5640   23.8244 C   0  0  0  0  0  0
  -21.3644   -5.6792   24.9199 C   0  0  0  0  0  0
  -21.6060   -4.3059   24.7222 C   0  0  0  0  0  0
  -21.8827   -3.8136   23.4357 C   0  0  0  0  0  0
  -21.9184   -4.6945   22.3403 C   0  0  0  0  0  0
  -22.7873  -13.5225   21.1865 C   0  0  0  0  0  0
  -22.1661   -4.2151   21.0978 F   0  0  0  0  0  0
  -21.5668   -3.4533   25.7730 F   0  0  0  0  0  0
  -30.0332  -13.2704   20.4328 N   0  0  0  0  0  0
  -26.2990  -12.9276   20.3128 N   0  0  0  0  0  0
  -25.9279  -11.6439   20.5575 N   0  0  0  0  0  0
  -22.0502  -12.8214   22.0445 N   0  0  0  0  0  0
  -25.4428  -15.1837   20.4002 N   0  0  0  0  0  0
  -31.7843  -14.6845   20.0641 O   0  0  0  0  0  0
  -21.6680   -6.8840   21.4248 O   0  0  0  0  0  0
  -22.3528  -14.5513   20.6680 O   0  0  0  0  0  0
  -24.6185  -31.8699   23.2173 C   0  0  0  0  0  0
  -25.9085  -32.4837   23.8419 C   0  0  1  0  0  0
  -27.1960  -27.4081   20.0470 C   0  0  0  0  0  0
  -25.5948  -33.8634   24.2332 N   0  0  0  0  0  0
  -23.3990  -30.5055   21.5668 C   0  0  2  0  0  0
  -24.8260  -28.9802   20.1253 C   0  0  0  0  0  0
  -22.7424  -29.4690   22.5053 C   0  0  0  0  0  0
  -18.0270  -28.1418   22.8490 C   0  0  0  0  0  0
  -24.1485  -36.7315   23.2640 C   0  0  0  0  0  0
  -25.9361  -30.8336   21.3625 C   0  0  0  0  0  0
  -26.0038  -29.4660   20.7042 C   0  0  0  0  0  0
  -27.1938  -28.6894   20.6670 C   0  0  0  0  0  0
  -25.9751  -26.9610   19.4715 C   0  0  0  0  0  0
  -24.8048  -27.7224   19.5216 C   0  0  0  0  0  0
  -23.5975  -29.8571   20.1783 C   0  0  0  0  0  0
  -25.4114  -36.3119   24.0330 C   0  0  1  0  0  0
  -20.5860  -28.3674   23.1375 C   0  0  2  0  0  0
  -20.6773  -26.9417   22.5466 C   0  0  0  0  0  0
  -19.5770  -26.6400   21.5251 C   0  0  0  0  0  0
  -18.1921  -26.7988   22.1595 C   0  0  0  0  0  0
  -19.1515  -28.8871   23.2925 C   0  0  0  0  0  0
  -18.9429  -30.1488   23.8895 C   0  0  0  0  0  0
  -17.6428  -30.6620   24.0574 C   0  0  0  0  0  0
  -25.9042  -34.9481   23.5122 C   0  0  0  0  0  0
  -16.5318  -29.9106   23.6351 C   0  0  0  0  0  0
  -16.7251  -28.6548   23.0321 C   0  0  0  0  0  0
  -26.4498  -31.6632   25.0744 C   0  0  0  0  0  0
  -25.3768  -31.3738   26.1507 C   0  0  0  0  0  0
  -27.0295  -30.3080   24.6085 C   0  0  0  0  0  0
  -27.6095  -32.4347   25.7477 C   0  0  0  0  0  0
  -27.5602  -37.1806   24.8455 C   0  0  0  0  0  0
  -21.4151  -29.3015   22.3785 N   0  0  0  0  0  0
  -26.4286  -37.3813   23.9424 N   0  0  0  0  0  0
  -24.6721  -31.0813   22.1079 N   0  0  0  0  0  0
  -23.4218  -28.8194   23.3064 O   0  0  0  0  0  0
  -28.3464  -26.6238   20.0108 O   0  0  0  0  0  0
  -26.5587  -34.8937   22.4672 O   0  0  0  0  0  0
  -23.5388  -32.1438   23.7599 O   0  0  0  0  0  0
  -30.3225  -19.0040   21.2227 C   0  0  0  0  0  0
  -29.2938  -19.1813   20.3156 C   0  0  0  0  0  0
  -29.9194  -16.8208   20.7353 C   0  0  0  0  0  0
  -31.0205  -20.0596   22.0239 C   0  0  0  0  0  0
  -27.3651  -20.5906   21.0287 C   0  0  0  0  0  0
  -30.6403  -24.6010   18.9718 C   0  0  0  0  0  0
  -28.7573  -22.8360   19.1667 C   0  0  0  0  0  0
  -28.1988  -25.3214   19.3835 C   0  0  0  0  0  0
  -28.5067  -20.4428   19.9883 C   0  0  1  0  0  0
  -29.2834  -24.2418   19.6342 C   0  0  2  0  0  0
  -30.6759  -17.6633   21.4367 N   0  0  0  0  0  0
  -29.8862  -15.4431   21.0476 N   0  0  0  0  0  0
  -29.3437  -21.6813   19.9049 N   0  3  0  0  0  0
  -28.7579  -17.6286   19.6862 S   0  0  0  0  0  0
  -31.4826  -12.3569   19.1544 H   0  0  0  0  0  0
  -30.2886  -11.2753   19.8186 H   0  0  0  0  0  0
  -29.7676  -11.8019   17.4003 H   0  0  0  0  0  0
  -29.6697  -13.4998   17.7876 H   0  0  0  0  0  0
  -27.8532  -11.2870   18.8008 H   0  0  0  0  0  0
  -27.3736  -12.6019   17.7583 H   0  0  0  0  0  0
  -27.6932  -14.2330   19.5319 H   0  0  0  0  0  0
  -28.6723  -11.9330   21.3076 H   0  0  0  0  0  0
  -28.4514  -13.5606   21.8534 H   0  0  0  0  0  0
  -25.2763   -9.5778   22.4613 H   0  0  0  0  0  0
  -24.0141   -7.4606   22.7380 H   0  0  0  0  0  0
  -21.0821   -8.8617   19.8902 H   0  0  0  0  0  0
  -22.3572  -10.9590   19.6084 H   0  0  0  0  0  0
  -21.1972   -7.6140   23.9754 H   0  0  0  0  0  0
  -21.1488   -6.0504   25.9135 H   0  0  0  0  0  0
  -22.0604   -2.7589   23.2814 H   0  0  0  0  0  0
  -22.4153  -11.9942   22.4956 H   0  0  0  0  0  0
  -21.1059  -13.1167   22.2538 H   0  0  0  0  0  0
  -24.6763  -15.8460   20.4837 H   0  0  0  0  0  0
  -26.3025  -15.6147   20.0874 H   0  0  0  0  0  0
  -26.7137  -32.5526   23.1165 H   0  0  0  0  0  0
  -25.0121  -33.9790   25.0490 H   0  0  0  0  0  0
  -22.6860  -31.3243   21.4450 H   0  0  0  0  0  0
  -23.3756  -35.9643   23.3293 H   0  0  0  0  0  0
  -24.3572  -36.8938   22.2057 H   0  0  0  0  0  0
  -23.7223  -37.6514   23.6649 H   0  0  0  0  0  0
  -26.0362  -31.5977   20.5905 H   0  0  0  0  0  0
  -26.8314  -30.8926   21.9688 H   0  0  0  0  0  0
  -28.1041  -29.0714   21.1049 H   0  0  0  0  0  0
  -25.8471  -26.0164   18.9670 H   0  0  0  0  0  0
  -23.8908  -27.3310   19.0923 H   0  0  0  0  0  0
  -23.7136  -30.6413   19.4293 H   0  0  0  0  0  0
  -22.7128  -29.2932   19.8765 H   0  0  0  0  0  0
  -25.1289  -36.1979   25.0821 H   0  0  0  0  0  0
  -20.9934  -28.3232   24.1509 H   0  0  0  0  0  0
  -20.5726  -26.2260   23.3635 H   0  0  0  0  0  0
  -21.6643  -26.7510   22.1233 H   0  0  0  0  0  0
  -19.6929  -25.6317   21.1270 H   0  0  0  0  0  0
  -19.6780  -27.3208   20.6786 H   0  0  0  0  0  0
  -17.4256  -26.6825   21.3923 H   0  0  0  0  0  0
  -18.0226  -26.0117   22.8957 H   0  0  0  0  0  0
  -19.7901  -30.7323   24.2244 H   0  0  0  0  0  0
  -17.4972  -31.6292   24.5192 H   0  0  0  0  0  0
  -15.5317  -30.2969   23.7723 H   0  0  0  0  0  0
  -15.8668  -28.0885   22.6971 H   0  0  0  0  0  0
  -24.5947  -30.7072   25.7865 H   0  0  0  0  0  0
  -24.8942  -32.2880   26.4965 H   0  0  0  0  0  0
  -25.8129  -30.8919   27.0261 H   0  0  0  0  0  0
  -26.2798  -29.6862   24.1171 H   0  0  0  0  0  0
  -27.4118  -29.7314   25.4518 H   0  0  0  0  0  0
  -27.8625  -30.4424   23.9178 H   0  0  0  0  0  0
  -27.2721  -33.3584   26.2195 H   0  0  0  0  0  0
  -28.3812  -32.7026   25.0243 H   0  0  0  0  0  0
  -28.0889  -31.8400   26.5264 H   0  0  0  0  0  0
  -28.2625  -38.0097   24.7497 H   0  0  0  0  0  0
  -28.1074  -36.2631   24.6243 H   0  0  0  0  0  0
  -27.2330  -37.1438   25.8858 H   0  0  0  0  0  0
  -20.9335  -29.8702   21.6963 H   0  0  0  0  0  0
  -26.0178  -38.2886   24.1452 H   0  0  0  0  0  0
  -31.8843  -19.6859   22.5771 H   0  0  0  0  0  0
  -30.3363  -20.5122   22.7438 H   0  0  0  0  0  0
  -31.3976  -20.8387   21.3663 H   0  0  0  0  0  0
  -26.7213  -19.7083   21.0500 H   0  0  0  0  0  0
  -26.7057  -21.4389   20.8460 H   0  0  0  0  0  0
  -27.7639  -20.6883   22.0380 H   0  0  0  0  0  0
  -31.3226  -23.7497   18.9487 H   0  0  0  0  0  0
  -31.1576  -25.4023   19.5039 H   0  0  0  0  0  0
  -30.5249  -24.9345   17.9365 H   0  0  0  0  0  0
  -28.9443  -22.6963   18.0990 H   0  0  0  0  0  0
  -27.6720  -22.7815   19.2631 H   0  0  0  0  0  0
  -27.2943  -24.8627   19.7833 H   0  0  0  0  0  0
  -28.0532  -25.4572   18.3077 H   0  0  0  0  0  0
  -28.0542  -20.3009   19.0021 H   0  0  0  0  0  0
  -29.4107  -24.2070   20.7172 H   0  0  0  0  0  0
  -28.9933  -15.1110   21.3702 H   0  0  0  0  0  0
  -29.5736  -21.9669   20.8419 H   0  0  0  0  0  0
  -30.2098  -21.4575   19.4406 H   0  0  0  0  0  0
  1 25  1  0  0  0
  1 30  2  0  0  0
  1 82  1  0  0  0
  2  3  1  0  0  0
  2 25  1  0  0  0
  2 85  1  0  0  0
  2 86  1  0  0  0
  3  4  1  0  0  0
  3 87  1  0  0  0
  3 88  1  0  0  0
  4  5  1  0  0  0
  4 89  1  0  0  0
  4 90  1  0  0  0
  5  6  1  0  0  0
  5 26  1  0  0  0
  5 91  1  0  0  0
  6 25  1  0  0  0
  6 92  1  0  0  0
  6 93  1  0  0  0
  7  8  2  0  0  0
  7 26  1  0  0  0
  7 29  1  0  0  0
  8  9  1  0  0  0
  8 22  1  0  0  0
  9 10  1  0  0  0
  9 27  2  0  0  0
 10 11  2  0  0  0
 10 15  1  0  0  0
 11 12  1  0  0  0
 11 94  1  0  0  0
 12 13  2  0  0  0
 12 95  1  0  0  0
 13 14  1  0  0  0
 13 31  1  0  0  0
 14 15  2  0  0  0
 14 96  1  0  0  0
 15 97  1  0  0  0
 16 17  2  0  0  0
 16 21  1  0  0  0
 16 31  1  0  0  0
 17 18  1  0  0  0
 17 98  1  0  0  0
 18 19  2  0  0  0
 18 99  1  0  0  0
 19 20  1  0  0  0
 19 24  1  0  0  0
 20 21  2  0  0  0
 20100  1  0  0  0
 21 23  1  0  0  0
 22 28  1  0  0  0
 22 32  2  0  0  0
 26 27  1  0  0  0
 28101  1  0  0  0
 28102  1  0  0  0
 29103  1  0  0  0
 29104  1  0  0  0
 33 34  1  0  0  0
 33 66  1  0  0  0
 33 70  2  0  0  0
 34 36  1  0  0  0
 34 59  1  0  0  0
 34105  1  0  0  0
 35 44  2  0  0  0
 35 45  1  0  0  0
 35 68  1  0  0  0
 36 56  1  0  0  0
 36106  1  0  0  0
 37 39  1  0  0  0
 37 47  1  0  0  0
 37 66  1  0  0  0
 37107  1  0  0  0
 38 43  2  0  0  0
 38 46  1  0  0  0
 38 47  1  0  0  0
 39 64  1  0  0  0
 39 67  2  0  0  0
 40 52  1  0  0  0
 40 53  2  0  0  0
 40 58  1  0  0  0
 41108  1  0  0  0
 41109  1  0  0  0
 41110  1  0  0  0
 41 48  1  0  0  0
 42 43  1  0  0  0
 42 66  1  0  0  0
 42111  1  0  0  0
 42112  1  0  0  0
 43 44  1  0  0  0
 44113  1  0  0  0
 45 46  2  0  0  0
 45114  1  0  0  0
 46115  1  0  0  0
 47116  1  0  0  0
 47117  1  0  0  0
 48 56  1  0  0  0
 48 65  1  0  0  0
 48118  1  0  0  0
 49 50  1  0  0  0
 49 53  1  0  0  0
 49 64  1  0  0  0
 49119  1  0  0  0
 50 51  1  0  0  0
 50120  1  0  0  0
 50121  1  0  0  0
 51 52  1  0  0  0
 51122  1  0  0  0
 51123  1  0  0  0
 52124  1  0  0  0
 52125  1  0  0  0
 53 54  1  0  0  0
 54 55  2  0  0  0
 54126  1  0  0  0
 55 57  1  0  0  0
 55127  1  0  0  0
 56 69  2  0  0  0
 57 58  2  0  0  0
 57128  1  0  0  0
 58129  1  0  0  0
 59 60  1  0  0  0
 59 61  1  0  0  0
 59 62  1  0  0  0
 60130  1  0  0  0
 60131  1  0  0  0
 60132  1  0  0  0
 61133  1  0  0  0
 61134  1  0  0  0
 61135  1  0  0  0
 62136  1  0  0  0
 62137  1  0  0  0
 62138  1  0  0  0
 63 65  1  0  0  0
 63139  1  0  0  0
 63140  1  0  0  0
 63141  1  0  0  0
 64142  1  0  0  0
 65143  1  0  0  0
 68 78  1  0  0  0
 71 72  2  0  0  0
 71 74  1  0  0  0
 71 81  1  0  0  0
 72 79  1  0  0  0
 72 84  1  0  0  0
 73 81  2  0  0  0
 73 82  1  0  0  0
 73 84  1  0  0  0
 74144  1  0  0  0
 74145  1  0  0  0
 74146  1  0  0  0
 75147  1  0  0  0
 75148  1  0  0  0
 75149  1  0  0  0
 75 79  1  0  0  0
 76150  1  0  0  0
 76151  1  0  0  0
 76152  1  0  0  0
 76 80  1  0  0  0
 77 80  1  0  0  0
 77 83  1  0  0  0
 77153  1  0  0  0
 77154  1  0  0  0
 78 80  1  0  0  0
 78155  1  0  0  0
 78156  1  0  0  0
 79 83  1  0  0  0
 79157  1  0  0  0
 80158  1  0  0  0
 82159  1  0  0  0
 83160  1  0  0  0
 83161  1  0  0  0
M  CHG  1  83   1
M  ISO  4   1 100  68 101  78 101  82 100
M  END
> <chiral flag>
0

> <version>
0

> <s_m_source_file>
/data/baiqing/PycharmProjects/Reinvent-master-3.2/result/LINK_invent/BTK/process_docking_weight1_custom_sum_contain_oxygen_bond_distance_aromatic_linkinvent_7_9_3/rearranged_h_0107.sdf

> <i_m_source_file_index>
11

> <r_mmod_Potential_Energy-OPLS-2005>
-252.773422241211

> <r_mmod_Stretch_Energy-OPLS-2005>
43.061164855957

> <r_mmod_Bend_Energy-OPLS-2005>
111.177154541016

> <r_mmod_Torsional_Energy-OPLS-2005>
235.263748168945

> <r_mmod_Improper_Torsional_Energy-OPLS-2005>
7.21508169174194

> <r_mmod_Van_der_Waal_Energy-OPLS-2005>
137.484039306641

> <r_mmod_Electrostatic_Energy-OPLS-2005>
-323.265167236328

> <r_mmod_Solvation_Energy-OPLS-2005>
-483.413299560547

> <b_mmod_Minimization_Converged-OPLS-2005>
0

> <r_mmod_RMS_Derivative-OPLS-2005>
8.41933631896973

$$$$
11
                    3D
 Structure written by MMmdl.
163171  0  0  1  0            999 V2000
  -30.4001  -15.2994   20.3345 C   0  0  0  0  0  0
  -30.4390  -12.8327   19.5115 C   0  0  0  0  0  0
  -29.5333  -12.5816   18.2815 C   0  0  0  0  0  0
  -28.0844  -12.2968   18.7168 C   0  0  0  0  0  0
  -27.6064  -13.2774   19.8131 C   0  0  2  0  0  0
  -28.6414  -13.4624   20.9411 C   0  0  0  0  0  0
  -25.2396  -13.8184   20.5835 C   0  0  0  0  0  0
  -24.1735  -13.0403   20.9298 C   0  0  0  0  0  0
  -24.6405  -11.6900   20.8787 C   0  0  0  0  0  0
  -23.9099  -10.4262   21.0407 C   0  0  0  0  0  0
  -24.3626   -9.4167   21.9188 C   0  0  0  0  0  0
  -23.6277   -8.2222   22.0761 C   0  0  0  0  0  0
  -22.4265   -8.0266   21.3538 C   0  0  0  0  0  0
  -21.9914   -9.0249   20.4651 C   0  0  0  0  0  0
  -22.7260  -10.2117   20.3049 C   0  0  0  0  0  0
  -21.6837   -6.0741   22.5278 C   0  0  0  0  0  0
  -21.4009   -6.5650   23.8214 C   0  0  0  0  0  0
  -21.3664   -5.6799   24.9181 C   0  0  0  0  0  0
  -21.6055   -4.3067   24.7221 C   0  0  0  0  0  0
  -21.8809   -3.8153   23.4344 C   0  0  0  0  0  0
  -21.9190   -4.6976   22.3404 C   0  0  0  0  0  0
  -22.7747  -13.5165   21.1924 C   0  0  0  0  0  0
  -22.1645   -4.2170   21.0984 F   0  0  0  0  0  0
  -21.5624   -3.4551   25.7736 F   0  0  0  0  0  0
  -29.8628  -13.9798   20.3044 N   0  0  0  0  0  0
  -26.2797  -12.9490   20.3174 N   0  0  0  0  0  0
  -25.9338  -11.6601   20.5722 N   0  0  0  0  0  0
  -22.0380  -12.8170   22.0475 N   0  0  0  0  0  0
  -25.4100  -15.1908   20.4384 N   0  0  0  0  0  0
  -31.6282  -15.3106   20.1614 O   0  0  0  0  0  0
  -21.6613   -6.8882   21.4232 O   0  0  0  0  0  0
  -22.3458  -14.5470   20.6754 O   0  0  0  0  0  0
  -24.6645  -31.8201   23.1700 C   0  0  0  0  0  0
  -25.9315  -32.4584   23.8167 C   0  0  1  0  0  0
  -27.2216  -26.9158   20.1654 C   0  0  0  0  0  0
  -25.5965  -33.8395   24.2075 N   0  0  0  0  0  0
  -23.4807  -30.4307   21.5213 C   0  0  2  0  0  0
  -24.9322  -28.8151   20.1108 C   0  0  0  0  0  0
  -22.7672  -29.4414   22.4805 C   0  0  0  0  0  0
  -18.0307  -28.1378   22.8472 C   0  0  0  0  0  0
  -24.1498  -36.7197   23.2655 C   0  0  0  0  0  0
  -26.0512  -30.6221   21.3991 C   0  0  0  0  0  0
  -26.1186  -29.2108   20.7414 C   0  0  0  0  0  0
  -27.2555  -28.2801   20.7465 C   0  0  0  0  0  0
  -26.0060  -26.6754   19.4877 C   0  0  0  0  0  0
  -24.9010  -27.5675   19.4662 C   0  0  0  0  0  0
  -23.7176  -29.7441   20.1488 C   0  0  0  0  0  0
  -25.4139  -36.2967   24.0306 C   0  0  1  0  0  0
  -20.5939  -28.3722   23.1195 C   0  0  2  0  0  0
  -20.6770  -26.9401   22.5402 C   0  0  0  0  0  0
  -19.5752  -26.6354   21.5202 C   0  0  0  0  0  0
  -18.1941  -26.7920   22.1615 C   0  0  0  0  0  0
  -19.1576  -28.8879   23.2814 C   0  0  0  0  0  0
  -18.9489  -30.1470   23.8839 C   0  0  0  0  0  0
  -17.6482  -30.6574   24.0547 C   0  0  0  0  0  0
  -25.9105  -34.9349   23.5016 C   0  0  0  0  0  0
  -16.5365  -29.9059   23.6339 C   0  0  0  0  0  0
  -16.7291  -28.6474   23.0370 C   0  0  0  0  0  0
  -26.4541  -31.6543   25.0712 C   0  0  0  0  0  0
  -25.3670  -31.3778   26.1378 C   0  0  0  0  0  0
  -27.0458  -30.2924   24.6465 C   0  0  0  0  0  0
  -27.6047  -32.4345   25.7498 C   0  0  0  0  0  0
  -27.5569  -37.1756   24.8463 C   0  0  0  0  0  0
  -21.4340  -29.3022   22.3557 N   0  0  0  0  0  0
  -26.4276  -37.3708   23.9415 N   0  0  0  0  0  0
  -24.7542  -30.9853   22.0832 N   0  0  0  0  0  0
  -23.4213  -28.7960   23.3042 O   0  0  0  0  0  0
  -28.2205  -25.8050   20.2503 O   0  0  0  0  0  0
  -26.5720  -34.8887   22.4620 O   0  0  0  0  0  0
  -23.5710  -32.1170   23.6798 O   0  0  0  0  0  0
  -27.3392  -20.1494   17.9790 C   0  0  0  0  0  0
  -27.6568  -21.2957   18.6030 C   0  0  0  0  0  0
  -27.9231  -19.0499   18.6506 C   0  0  0  0  0  0
  -28.7752  -19.5042   19.6596 C   0  0  0  0  0  0
  -23.9259  -18.5423   17.3464 C   0  0  0  0  0  0
  -28.7387  -17.1152   17.2647 C   0  0  0  0  0  0
  -29.7450  -18.2367   20.3847 C   0  0  0  0  0  0
  -25.0070  -17.9141   18.2343 C   0  0  0  0  0  0
  -26.2629  -17.4825   17.4432 C   0  0  0  0  0  0
  -28.8297  -22.5999   20.3194 C   0  0  0  0  0  0
  -28.0271  -24.1923   19.9091 C   0  0  0  0  0  0
  -27.6204  -17.6252   18.1872 C   0  0  2  0  0  0
  -28.5153  -21.0862   19.6654 N   0  0  0  0  0  0
  -29.5937  -16.5526   20.3699 N   0  0  0  0  0  0
  -31.4505  -13.0553   19.1699 H   0  0  0  0  0  0
  -30.5253  -11.9335   20.1236 H   0  0  0  0  0  0
  -29.9171  -11.7536   17.6848 H   0  0  0  0  0  0
  -29.5566  -13.4615   17.6381 H   0  0  0  0  0  0
  -28.0456  -11.2760   19.1021 H   0  0  0  0  0  0
  -27.4143  -12.3228   17.8570 H   0  0  0  0  0  0
  -27.5172  -14.2385   19.3034 H   0  0  0  0  0  0
  -28.8175  -12.5290   21.4764 H   0  0  0  0  0  0
  -28.2795  -14.1802   21.6800 H   0  0  0  0  0  0
  -25.2780   -9.5634   22.4748 H   0  0  0  0  0  0
  -23.9976   -7.4612   22.7475 H   0  0  0  0  0  0
  -21.0845   -8.8755   19.8971 H   0  0  0  0  0  0
  -22.3716  -10.9633   19.6135 H   0  0  0  0  0  0
  -21.1979   -7.6153   23.9730 H   0  0  0  0  0  0
  -21.1498   -6.0525   25.9094 H   0  0  0  0  0  0
  -22.0592   -2.7620   23.2825 H   0  0  0  0  0  0
  -22.3958  -11.9847   22.4901 H   0  0  0  0  0  0
  -21.0980  -13.1161   22.2635 H   0  0  0  0  0  0
  -24.6468  -15.8397   20.5899 H   0  0  0  0  0  0
  -26.2400  -15.6321   20.0706 H   0  0  0  0  0  0
  -26.7402  -32.5112   23.0889 H   0  0  0  0  0  0
  -25.0064  -33.9464   25.0198 H   0  0  0  0  0  0
  -22.7975  -31.2651   21.3500 H   0  0  0  0  0  0
  -23.3775  -35.9507   23.3276 H   0  0  0  0  0  0
  -24.3583  -36.8883   22.2077 H   0  0  0  0  0  0
  -23.7221  -37.6364   23.6728 H   0  0  0  0  0  0
  -26.2353  -31.3635   20.6197 H   0  0  0  0  0  0
  -26.9091  -30.6776   22.0581 H   0  0  0  0  0  0
  -28.1526  -28.5765   21.2710 H   0  0  0  0  0  0
  -25.8732  -25.7206   19.0005 H   0  0  0  0  0  0
  -23.9999  -27.2549   18.9547 H   0  0  0  0  0  0
  -23.8719  -30.5102   19.3886 H   0  0  0  0  0  0
  -22.8253  -29.2011   19.8331 H   0  0  0  0  0  0
  -25.1343  -36.1771   25.0793 H   0  0  0  0  0  0
  -21.0025  -28.3313   24.1321 H   0  0  0  0  0  0
  -20.5627  -26.2340   23.3642 H   0  0  0  0  0  0
  -21.6640  -26.7359   22.1233 H   0  0  0  0  0  0
  -19.6910  -25.6259   21.1255 H   0  0  0  0  0  0
  -19.6689  -27.3145   20.6719 H   0  0  0  0  0  0
  -17.4207  -26.6662   21.4017 H   0  0  0  0  0  0
  -18.0331  -26.0068   22.9019 H   0  0  0  0  0  0
  -19.7963  -30.7289   24.2196 H   0  0  0  0  0  0
  -17.5028  -31.6262   24.5129 H   0  0  0  0  0  0
  -15.5366  -30.2934   23.7691 H   0  0  0  0  0  0
  -15.8692  -28.0755   22.7138 H   0  0  0  0  0  0
  -24.5871  -30.7109   25.7676 H   0  0  0  0  0  0
  -24.8826  -32.2967   26.4704 H   0  0  0  0  0  0
  -25.7911  -30.9009   27.0232 H   0  0  0  0  0  0
  -26.3151  -29.6588   24.1439 H   0  0  0  0  0  0
  -27.3959  -29.7296   25.5125 H   0  0  0  0  0  0
  -27.9089  -30.4124   23.9917 H   0  0  0  0  0  0
  -27.2651  -33.3704   26.1954 H   0  0  0  0  0  0
  -28.3913  -32.6820   25.0351 H   0  0  0  0  0  0
  -28.0661  -31.8551   26.5509 H   0  0  0  0  0  0
  -28.2567  -38.0072   24.7546 H   0  0  0  0  0  0
  -28.1086  -36.2605   24.6260 H   0  0  0  0  0  0
  -27.2291  -37.1373   25.8865 H   0  0  0  0  0  0
  -20.9585  -29.8726   21.6697 H   0  0  0  0  0  0
  -26.0125  -38.2766   24.1428 H   0  0  0  0  0  0
  -26.6814  -20.1185   17.1226 H   0  0  0  0  0  0
  -27.3075  -22.2782   18.3266 H   0  0  0  0  0  0
  -23.0122  -18.7080   17.9189 H   0  0  0  0  0  0
  -23.6761  -17.8961   16.5040 H   0  0  0  0  0  0
  -24.2497  -19.5059   16.9491 H   0  0  0  0  0  0
  -29.7211  -17.2204   17.7236 H   0  0  0  0  0  0
  -28.7630  -17.6725   16.3277 H   0  0  0  0  0  0
  -28.5921  -16.0625   17.0213 H   0  0  0  0  0  0
  -29.8327  -18.4857   21.4418 H   0  0  0  0  0  0
  -30.7534  -18.4003   20.0047 H   0  0  0  0  0  0
  -24.5786  -17.0430   18.7272 H   0  0  0  0  0  0
  -25.2570  -18.6160   19.0325 H   0  0  0  0  0  0
  -26.3140  -18.0380   16.5060 H   0  0  0  0  0  0
  -26.1308  -16.4437   17.1338 H   0  0  0  0  0  0
  -29.8962  -22.7555   20.1623 H   0  0  0  0  0  0
  -28.7370  -22.4838   21.3987 H   0  0  0  0  0  0
  -26.9745  -24.0081   20.1265 H   0  0  0  0  0  0
  -28.0741  -24.2329   18.8203 H   0  0  0  0  0  0
  -27.5415  -16.9973   19.0714 H   0  0  0  0  0  0
  -28.6246  -16.3019   20.4812 H   0  0  0  0  0  0
  1 25  1  0  0  0
  1 30  2  0  0  0
  1 84  1  0  0  0
  2  3  1  0  0  0
  2 25  1  0  0  0
  2 85  1  0  0  0
  2 86  1  0  0  0
  3  4  1  0  0  0
  3 87  1  0  0  0
  3 88  1  0  0  0
  4  5  1  0  0  0
  4 89  1  0  0  0
  4 90  1  0  0  0
  5  6  1  0  0  0
  5 26  1  0  0  0
  5 91  1  0  0  0
  6 25  1  0  0  0
  6 92  1  0  0  0
  6 93  1  0  0  0
  7  8  2  0  0  0
  7 26  1  0  0  0
  7 29  1  0  0  0
  8  9  1  0  0  0
  8 22  1  0  0  0
  9 10  1  0  0  0
  9 27  2  0  0  0
 10 11  2  0  0  0
 10 15  1  0  0  0
 11 12  1  0  0  0
 11 94  1  0  0  0
 12 13  2  0  0  0
 12 95  1  0  0  0
 13 14  1  0  0  0
 13 31  1  0  0  0
 14 15  2  0  0  0
 14 96  1  0  0  0
 15 97  1  0  0  0
 16 17  2  0  0  0
 16 21  1  0  0  0
 16 31  1  0  0  0
 17 18  1  0  0  0
 17 98  1  0  0  0
 18 19  2  0  0  0
 18 99  1  0  0  0
 19 20  1  0  0  0
 19 24  1  0  0  0
 20 21  2  0  0  0
 20100  1  0  0  0
 21 23  1  0  0  0
 22 28  1  0  0  0
 22 32  2  0  0  0
 26 27  1  0  0  0
 28101  1  0  0  0
 28102  1  0  0  0
 29103  1  0  0  0
 29104  1  0  0  0
 33 34  1  0  0  0
 33 66  1  0  0  0
 33 70  2  0  0  0
 34 36  1  0  0  0
 34 59  1  0  0  0
 34105  1  0  0  0
 35 44  2  0  0  0
 35 45  1  0  0  0
 35 68  1  0  0  0
 36 56  1  0  0  0
 36106  1  0  0  0
 37 39  1  0  0  0
 37 47  1  0  0  0
 37 66  1  0  0  0
 37107  1  0  0  0
 38 43  2  0  0  0
 38 46  1  0  0  0
 38 47  1  0  0  0
 39 64  1  0  0  0
 39 67  2  0  0  0
 40 52  1  0  0  0
 40 53  2  0  0  0
 40 58  1  0  0  0
 41108  1  0  0  0
 41109  1  0  0  0
 41110  1  0  0  0
 41 48  1  0  0  0
 42 43  1  0  0  0
 42 66  1  0  0  0
 42111  1  0  0  0
 42112  1  0  0  0
 43 44  1  0  0  0
 44113  1  0  0  0
 45 46  2  0  0  0
 45114  1  0  0  0
 46115  1  0  0  0
 47116  1  0  0  0
 47117  1  0  0  0
 48 56  1  0  0  0
 48 65  1  0  0  0
 48118  1  0  0  0
 49 50  1  0  0  0
 49 53  1  0  0  0
 49 64  1  0  0  0
 49119  1  0  0  0
 50 51  1  0  0  0
 50120  1  0  0  0
 50121  1  0  0  0
 51 52  1  0  0  0
 51122  1  0  0  0
 51123  1  0  0  0
 52124  1  0  0  0
 52125  1  0  0  0
 53 54  1  0  0  0
 54 55  2  0  0  0
 54126  1  0  0  0
 55 57  1  0  0  0
 55127  1  0  0  0
 56 69  2  0  0  0
 57 58  2  0  0  0
 57128  1  0  0  0
 58129  1  0  0  0
 59 60  1  0  0  0
 59 61  1  0  0  0
 59 62  1  0  0  0
 60130  1  0  0  0
 60131  1  0  0  0
 60132  1  0  0  0
 61133  1  0  0  0
 61134  1  0  0  0
 61135  1  0  0  0
 62136  1  0  0  0
 62137  1  0  0  0
 62138  1  0  0  0
 63 65  1  0  0  0
 63139  1  0  0  0
 63140  1  0  0  0
 63141  1  0  0  0
 64142  1  0  0  0
 65143  1  0  0  0
 68 81  1  0  0  0
 71 72  2  0  0  0
 71 73  1  0  0  0
 71144  1  0  0  0
 72 83  1  0  0  0
 72145  1  0  0  0
 73 74  2  0  0  0
 73 82  1  0  0  0
 74 77  1  0  0  0
 74 83  1  0  0  0
 75 78  1  0  0  0
 75146  1  0  0  0
 75147  1  0  0  0
 75148  1  0  0  0
 76149  1  0  0  0
 76150  1  0  0  0
 76151  1  0  0  0
 76 82  1  0  0  0
 77 84  1  0  0  0
 77152  1  0  0  0
 77153  1  0  0  0
 78 79  1  0  0  0
 78154  1  0  0  0
 78155  1  0  0  0
 79 82  1  0  0  0
 79156  1  0  0  0
 79157  1  0  0  0
 80 81  1  0  0  0
 80 83  1  0  0  0
 80158  1  0  0  0
 80159  1  0  0  0
 81160  1  0  0  0
 81161  1  0  0  0
 82162  1  0  0  0
 84163  1  0  0  0
M  ISO  4   1 100  68 101  81 101  84 100
M  END
> <chiral flag>
0

> <version>
0

> <s_m_source_file>
/data/baiqing/PycharmProjects/Reinvent-master-3.2/result/LINK_invent/BTK/process_docking_weight1_custom_sum_contain_oxygen_bond_distance_aromatic_linkinvent_7_9_3/rearranged_h_0107.sdf

> <i_m_source_file_index>
12

> <r_mmod_Potential_Energy-OPLS-2005>
1422.013671875

> <r_mmod_Stretch_Energy-OPLS-2005>
685.9013671875

> <r_mmod_Bend_Energy-OPLS-2005>
516.384216308594

> <r_mmod_Torsional_Energy-OPLS-2005>
226.718643188477

> <r_mmod_Improper_Torsional_Energy-OPLS-2005>
4.17445611953735

> <r_mmod_Van_der_Waal_Energy-OPLS-2005>
107.330490112305

> <r_mmod_Electrostatic_Energy-OPLS-2005>
-400.153900146484

> <r_mmod_Solvation_Energy-OPLS-2005>
-210.618026733398

> <b_mmod_Minimization_Converged-OPLS-2005>
0

> <r_mmod_RMS_Derivative-OPLS-2005>
3.47478890419006

$$$$
12
                    3D
 Structure written by MMmdl.
158165  0  0  1  0            999 V2000
  -30.4289  -15.2586   20.3773 C   0  0  0  0  0  0
  -30.4407  -12.8078   19.5152 C   0  0  0  0  0  0
  -29.5341  -12.5707   18.2813 C   0  0  0  0  0  0
  -28.0831  -12.2922   18.7126 C   0  0  0  0  0  0
  -27.6102  -13.2692   19.8179 C   0  0  2  0  0  0
  -28.6445  -13.4423   20.9494 C   0  0  0  0  0  0
  -25.2395  -13.8235   20.5738 C   0  0  0  0  0  0
  -24.1744  -13.0437   20.9257 C   0  0  0  0  0  0
  -24.6383  -11.6926   20.8759 C   0  0  0  0  0  0
  -23.9069  -10.4295   21.0413 C   0  0  0  0  0  0
  -24.3620   -9.4215   21.9187 C   0  0  0  0  0  0
  -23.6296   -8.2249   22.0753 C   0  0  0  0  0  0
  -22.4280   -8.0285   21.3547 C   0  0  0  0  0  0
  -21.9920   -9.0256   20.4649 C   0  0  0  0  0  0
  -22.7242  -10.2134   20.3059 C   0  0  0  0  0  0
  -21.6856   -6.0740   22.5277 C   0  0  0  0  0  0
  -21.4017   -6.5638   23.8213 C   0  0  0  0  0  0
  -21.3659   -5.6787   24.9172 C   0  0  0  0  0  0
  -21.6043   -4.3050   24.7220 C   0  0  0  0  0  0
  -21.8820   -3.8145   23.4339 C   0  0  0  0  0  0
  -21.9197   -4.6966   22.3398 C   0  0  0  0  0  0
  -22.7767  -13.5207   21.1899 C   0  0  0  0  0  0
  -22.1665   -4.2156   21.0976 F   0  0  0  0  0  0
  -21.5627   -3.4530   25.7731 F   0  0  0  0  0  0
  -29.8723  -13.9513   20.3171 N   0  0  0  0  0  0
  -26.2809  -12.9489   20.3189 N   0  0  0  0  0  0
  -25.9316  -11.6601   20.5706 N   0  0  0  0  0  0
  -22.0408  -12.8202   22.0449 N   0  0  0  0  0  0
  -25.4030  -15.1966   20.4176 N   0  0  0  0  0  0
  -31.6569  -15.2679   20.2100 O   0  0  0  0  0  0
  -21.6641   -6.8884   21.4243 O   0  0  0  0  0  0
  -22.3457  -14.5509   20.6730 O   0  0  0  0  0  0
  -24.6629  -31.8234   23.1695 C   0  0  0  0  0  0
  -25.9313  -32.4584   23.8158 C   0  0  1  0  0  0
  -27.2132  -26.9242   20.1958 C   0  0  0  0  0  0
  -25.5978  -33.8395   24.2065 N   0  0  0  0  0  0
  -23.4763  -30.4359   21.5186 C   0  0  2  0  0  0
  -24.9264  -28.8144   20.1208 C   0  0  0  0  0  0
  -22.7654  -29.4460   22.4783 C   0  0  0  0  0  0
  -18.0325  -28.1422   22.8464 C   0  0  0  0  0  0
  -24.1487  -36.7199   23.2649 C   0  0  0  0  0  0
  -26.0448  -30.6304   21.3974 C   0  0  0  0  0  0
  -26.1125  -29.2174   20.7480 C   0  0  0  0  0  0
  -27.2538  -28.2962   20.7530 C   0  0  0  0  0  0
  -25.9950  -26.6678   19.5292 C   0  0  0  0  0  0
  -24.8918  -27.5593   19.4915 C   0  0  0  0  0  0
  -23.7155  -29.7461   20.1478 C   0  0  0  0  0  0
  -25.4129  -36.2962   24.0301 C   0  0  1  0  0  0
  -20.5948  -28.3766   23.1186 C   0  0  2  0  0  0
  -20.6800  -26.9447   22.5406 C   0  0  0  0  0  0
  -19.5780  -26.6391   21.5210 C   0  0  0  0  0  0
  -18.1956  -26.7959   22.1613 C   0  0  0  0  0  0
  -19.1586  -28.8913   23.2812 C   0  0  0  0  0  0
  -18.9496  -30.1503   23.8852 C   0  0  0  0  0  0
  -17.6491  -30.6605   24.0564 C   0  0  0  0  0  0
  -25.9097  -34.9347   23.5004 C   0  0  0  0  0  0
  -16.5380  -29.9093   23.6353 C   0  0  0  0  0  0
  -16.7307  -28.6521   23.0362 C   0  0  0  0  0  0
  -26.4563  -31.6533   25.0687 C   0  0  0  0  0  0
  -25.3687  -31.3805   26.1348 C   0  0  0  0  0  0
  -27.0450  -30.2892   24.6432 C   0  0  0  0  0  0
  -27.6060  -32.4338   25.7482 C   0  0  0  0  0  0
  -27.5565  -37.1757   24.8464 C   0  0  0  0  0  0
  -21.4329  -29.3052   22.3522 N   0  0  0  0  0  0
  -26.4272  -37.3700   23.9408 N   0  0  0  0  0  0
  -24.7497  -30.9903   22.0823 N   0  0  0  0  0  0
  -23.4198  -28.8040   23.3036 O   0  0  0  0  0  0
  -28.2427  -25.8463   20.1852 O   0  0  0  0  0  0
  -26.5704  -34.8889   22.4599 O   0  0  0  0  0  0
  -23.5708  -32.1202   23.6800 O   0  0  0  0  0  0
  -26.9045  -18.9726   21.6121 C   0  0  0  0  0  0
  -26.4459  -19.9976   19.3407 C   0  0  0  0  0  0
  -29.8766  -22.9891   18.9912 C   0  0  0  0  0  0
  -29.8672  -18.1690   20.6122 C   0  0  0  0  0  0
  -28.1119  -24.2406   20.5706 C   0  0  0  0  0  0
  -27.4172  -19.1410   20.1701 C   0  0  0  0  0  0
  -28.6654  -22.6633   19.8777 C   0  0  2  0  0  0
  -28.8970  -19.6076   20.1055 C   0  0  1  0  0  0
  -29.6431  -16.5163   20.4298 N   0  0  0  0  0  0
  -28.9877  -21.1979   20.6336 N   0  3  0  0  0  0
  -31.4569  -13.0237   19.1806 H   0  0  0  0  0  0
  -30.5158  -11.9048   20.1229 H   0  0  0  0  0  0
  -29.9161  -11.7437   17.6812 H   0  0  0  0  0  0
  -29.5596  -13.4528   17.6401 H   0  0  0  0  0  0
  -28.0423  -11.2695   19.0891 H   0  0  0  0  0  0
  -27.4143  -12.3288   17.8515 H   0  0  0  0  0  0
  -27.5256  -14.2348   19.3177 H   0  0  0  0  0  0
  -28.8158  -12.5073   21.4849 H   0  0  0  0  0  0
  -28.2831  -14.1619   21.6864 H   0  0  0  0  0  0
  -25.2763   -9.5695   22.4766 H   0  0  0  0  0  0
  -24.0009   -7.4640   22.7469 H   0  0  0  0  0  0
  -21.0852   -8.8772   19.8954 H   0  0  0  0  0  0
  -22.3697  -10.9674   19.6172 H   0  0  0  0  0  0
  -21.2009   -7.6147   23.9717 H   0  0  0  0  0  0
  -21.1478   -6.0515   25.9077 H   0  0  0  0  0  0
  -22.0600   -2.7609   23.2829 H   0  0  0  0  0  0
  -22.4023  -11.9870   22.4845 H   0  0  0  0  0  0
  -21.1026  -13.1238   22.2638 H   0  0  0  0  0  0
  -24.6270  -15.8405   20.5282 H   0  0  0  0  0  0
  -26.2328  -15.6383   20.0467 H   0  0  0  0  0  0
  -26.7375  -32.5120   23.0864 H   0  0  0  0  0  0
  -25.0071  -33.9460   25.0181 H   0  0  0  0  0  0
  -22.7904  -31.2682   21.3459 H   0  0  0  0  0  0
  -23.3757  -35.9520   23.3288 H   0  0  0  0  0  0
  -24.3572  -36.8869   22.2069 H   0  0  0  0  0  0
  -23.7236  -37.6381   23.6718 H   0  0  0  0  0  0
  -26.2224  -31.3690   20.6148 H   0  0  0  0  0  0
  -26.9060  -30.6903   22.0512 H   0  0  0  0  0  0
  -28.1602  -28.6109   21.2509 H   0  0  0  0  0  0
  -25.8754  -25.7121   19.0388 H   0  0  0  0  0  0
  -23.9900  -27.2433   18.9845 H   0  0  0  0  0  0
  -23.8750  -30.5101   19.3861 H   0  0  0  0  0  0
  -22.8235  -29.2028   19.8316 H   0  0  0  0  0  0
  -25.1332  -36.1753   25.0794 H   0  0  0  0  0  0
  -21.0046  -28.3383   24.1306 H   0  0  0  0  0  0
  -20.5669  -26.2391   23.3648 H   0  0  0  0  0  0
  -21.6666  -26.7416   22.1226 H   0  0  0  0  0  0
  -19.6934  -25.6287   21.1273 H   0  0  0  0  0  0
  -19.6726  -27.3170   20.6713 H   0  0  0  0  0  0
  -17.4233  -26.6715   21.4005 H   0  0  0  0  0  0
  -18.0344  -26.0108   22.9017 H   0  0  0  0  0  0
  -19.7972  -30.7335   24.2195 H   0  0  0  0  0  0
  -17.5045  -31.6279   24.5181 H   0  0  0  0  0  0
  -15.5382  -30.2981   23.7707 H   0  0  0  0  0  0
  -15.8712  -28.0825   22.7094 H   0  0  0  0  0  0
  -24.5904  -30.7098   25.7691 H   0  0  0  0  0  0
  -24.8825  -32.3008   26.4592 H   0  0  0  0  0  0
  -25.7932  -30.9125   27.0236 H   0  0  0  0  0  0
  -26.3114  -29.6566   24.1419 H   0  0  0  0  0  0
  -27.3946  -29.7274   25.5103 H   0  0  0  0  0  0
  -27.9076  -30.4062   23.9867 H   0  0  0  0  0  0
  -27.2635  -33.3688   26.1926 H   0  0  0  0  0  0
  -28.3941  -32.6813   25.0357 H   0  0  0  0  0  0
  -28.0641  -31.8542   26.5506 H   0  0  0  0  0  0
  -28.2576  -38.0056   24.7500 H   0  0  0  0  0  0
  -28.1067  -36.2587   24.6299 H   0  0  0  0  0  0
  -27.2289  -37.1414   25.8869 H   0  0  0  0  0  0
  -20.9581  -29.8719   21.6632 H   0  0  0  0  0  0
  -26.0118  -38.2759   24.1420 H   0  0  0  0  0  0
  -25.9018  -18.5430   21.6186 H   0  0  0  0  0  0
  -26.8502  -19.9240   22.1413 H   0  0  0  0  0  0
  -27.5381  -18.3020   22.1933 H   0  0  0  0  0  0
  -25.4756  -19.5061   19.2557 H   0  0  0  0  0  0
  -26.8177  -20.1589   18.3279 H   0  0  0  0  0  0
  -26.2651  -20.9685   19.7993 H   0  0  0  0  0  0
  -29.6564  -23.8267   18.3282 H   0  0  0  0  0  0
  -30.1544  -22.1428   18.3621 H   0  0  0  0  0  0
  -30.7445  -23.2646   19.5909 H   0  0  0  0  0  0
  -29.9733  -18.2768   21.6916 H   0  0  0  0  0  0
  -30.8750  -18.3501   20.2376 H   0  0  0  0  0  0
  -28.5598  -24.2415   21.5637 H   0  0  0  0  0  0
  -27.0512  -24.0989   20.7789 H   0  0  0  0  0  0
  -27.3913  -18.1506   19.7131 H   0  0  0  0  0  0
  -27.8698  -22.4168   19.1765 H   0  0  0  0  0  0
  -29.1424  -19.7018   19.0467 H   0  0  0  0  0  0
  -28.6601  -16.2893   20.4477 H   0  0  0  0  0  0
  -28.4167  -21.2012   21.4641 H   0  0  0  0  0  0
  -29.9286  -21.2924   20.9799 H   0  0  0  0  0  0
  1 25  1  0  0  0
  1 30  2  0  0  0
  1 79  1  0  0  0
  2  3  1  0  0  0
  2 25  1  0  0  0
  2 81  1  0  0  0
  2 82  1  0  0  0
  3  4  1  0  0  0
  3 83  1  0  0  0
  3 84  1  0  0  0
  4  5  1  0  0  0
  4 85  1  0  0  0
  4 86  1  0  0  0
  5  6  1  0  0  0
  5 26  1  0  0  0
  5 87  1  0  0  0
  6 25  1  0  0  0
  6 88  1  0  0  0
  6 89  1  0  0  0
  7  8  2  0  0  0
  7 26  1  0  0  0
  7 29  1  0  0  0
  8  9  1  0  0  0
  8 22  1  0  0  0
  9 10  1  0  0  0
  9 27  2  0  0  0
 10 11  2  0  0  0
 10 15  1  0  0  0
 11 12  1  0  0  0
 11 90  1  0  0  0
 12 13  2  0  0  0
 12 91  1  0  0  0
 13 14  1  0  0  0
 13 31  1  0  0  0
 14 15  2  0  0  0
 14 92  1  0  0  0
 15 93  1  0  0  0
 16 17  2  0  0  0
 16 21  1  0  0  0
 16 31  1  0  0  0
 17 18  1  0  0  0
 17 94  1  0  0  0
 18 19  2  0  0  0
 18 95  1  0  0  0
 19 20  1  0  0  0
 19 24  1  0  0  0
 20 21  2  0  0  0
 20 96  1  0  0  0
 21 23  1  0  0  0
 22 28  1  0  0  0
 22 32  2  0  0  0
 26 27  1  0  0  0
 28 97  1  0  0  0
 28 98  1  0  0  0
 29 99  1  0  0  0
 29100  1  0  0  0
 33 34  1  0  0  0
 33 66  1  0  0  0
 33 70  2  0  0  0
 34 36  1  0  0  0
 34 59  1  0  0  0
 34101  1  0  0  0
 35 44  2  0  0  0
 35 45  1  0  0  0
 35 68  1  0  0  0
 36 56  1  0  0  0
 36102  1  0  0  0
 37 39  1  0  0  0
 37 47  1  0  0  0
 37 66  1  0  0  0
 37103  1  0  0  0
 38 43  2  0  0  0
 38 46  1  0  0  0
 38 47  1  0  0  0
 39 64  1  0  0  0
 39 67  2  0  0  0
 40 52  1  0  0  0
 40 53  2  0  0  0
 40 58  1  0  0  0
 41104  1  0  0  0
 41105  1  0  0  0
 41106  1  0  0  0
 41 48  1  0  0  0
 42 43  1  0  0  0
 42 66  1  0  0  0
 42107  1  0  0  0
 42108  1  0  0  0
 43 44  1  0  0  0
 44109  1  0  0  0
 45 46  2  0  0  0
 45110  1  0  0  0
 46111  1  0  0  0
 47112  1  0  0  0
 47113  1  0  0  0
 48 56  1  0  0  0
 48 65  1  0  0  0
 48114  1  0  0  0
 49 50  1  0  0  0
 49 53  1  0  0  0
 49 64  1  0  0  0
 49115  1  0  0  0
 50 51  1  0  0  0
 50116  1  0  0  0
 50117  1  0  0  0
 51 52  1  0  0  0
 51118  1  0  0  0
 51119  1  0  0  0
 52120  1  0  0  0
 52121  1  0  0  0
 53 54  1  0  0  0
 54 55  2  0  0  0
 54122  1  0  0  0
 55 57  1  0  0  0
 55123  1  0  0  0
 56 69  2  0  0  0
 57 58  2  0  0  0
 57124  1  0  0  0
 58125  1  0  0  0
 59 60  1  0  0  0
 59 61  1  0  0  0
 59 62  1  0  0  0
 60126  1  0  0  0
 60127  1  0  0  0
 60128  1  0  0  0
 61129  1  0  0  0
 61130  1  0  0  0
 61131  1  0  0  0
 62132  1  0  0  0
 62133  1  0  0  0
 62134  1  0  0  0
 63 65  1  0  0  0
 63135  1  0  0  0
 63136  1  0  0  0
 63137  1  0  0  0
 64138  1  0  0  0
 65139  1  0  0  0
 68 75  1  0  0  0
 71140  1  0  0  0
 71141  1  0  0  0
 71142  1  0  0  0
 71 76  1  0  0  0
 72 76  1  0  0  0
 72143  1  0  0  0
 72144  1  0  0  0
 72145  1  0  0  0
 73146  1  0  0  0
 73147  1  0  0  0
 73148  1  0  0  0
 73 77  1  0  0  0
 74 79  1  0  0  0
 74149  1  0  0  0
 74150  1  0  0  0
 74 78  1  0  0  0
 75 77  1  0  0  0
 75151  1  0  0  0
 75152  1  0  0  0
 76 78  1  0  0  0
 76153  1  0  0  0
 77 80  1  0  0  0
 77154  1  0  0  0
 78 80  1  0  0  0
 78155  1  0  0  0
 79156  1  0  0  0
 80157  1  0  0  0
 80158  1  0  0  0
M  CHG  1  80   1
M  ISO  4   1 100  68 101  75 101  79 100
M  END
> <chiral flag>
0

> <version>
0

> <s_m_source_file>
/data/baiqing/PycharmProjects/Reinvent-master-3.2/result/LINK_invent/BTK/process_docking_weight1_custom_sum_contain_oxygen_bond_distance_aromatic_linkinvent_7_9_3/rearranged_h_0107.sdf

> <i_m_source_file_index>
13

> <r_mmod_Potential_Energy-OPLS-2005>
1180.08813476562

> <r_mmod_Stretch_Energy-OPLS-2005>
618.151306152344

> <r_mmod_Bend_Energy-OPLS-2005>
456.474456787109

> <r_mmod_Torsional_Energy-OPLS-2005>
271.220703125

> <r_mmod_Improper_Torsional_Energy-OPLS-2005>
4.04205369949341

> <r_mmod_Van_der_Waal_Energy-OPLS-2005>
100.822547912598

> <r_mmod_Electrostatic_Energy-OPLS-2005>
-262.753387451172

> <r_mmod_Solvation_Energy-OPLS-2005>
-458.772125244141

> <b_mmod_Minimization_Converged-OPLS-2005>
0

> <r_mmod_RMS_Derivative-OPLS-2005>
1.12660074234009

$$$$
13
                    3D
 Structure written by MMmdl.
159167  0  0  1  0            999 V2000
  -30.5975  -14.8199   20.4333 C   0  0  0  0  0  0
  -30.4296  -12.4998   19.4928 C   0  0  0  0  0  0
  -29.5146  -12.5126   18.2483 C   0  0  0  0  0  0
  -28.0427  -12.3251   18.6607 C   0  0  0  0  0  0
  -27.6357  -13.2410   19.8459 C   0  0  2  0  0  0
  -28.6781  -13.2214   20.9855 C   0  0  0  0  0  0
  -25.2484  -13.8213   20.5705 C   0  0  0  0  0  0
  -24.1791  -13.0443   20.9219 C   0  0  0  0  0  0
  -24.6394  -11.6924   20.8751 C   0  0  0  0  0  0
  -23.9076  -10.4296   21.0407 C   0  0  0  0  0  0
  -24.3626   -9.4211   21.9184 C   0  0  0  0  0  0
  -23.6300   -8.2244   22.0754 C   0  0  0  0  0  0
  -22.4280   -8.0281   21.3544 C   0  0  0  0  0  0
  -21.9919   -9.0256   20.4647 C   0  0  0  0  0  0
  -22.7248  -10.2135   20.3057 C   0  0  0  0  0  0
  -21.6854   -6.0738   22.5281 C   0  0  0  0  0  0
  -21.4016   -6.5642   23.8214 C   0  0  0  0  0  0
  -21.3660   -5.6793   24.9175 C   0  0  0  0  0  0
  -21.6042   -4.3057   24.7224 C   0  0  0  0  0  0
  -21.8819   -3.8148   23.4347 C   0  0  0  0  0  0
  -21.9194   -4.6965   22.3402 C   0  0  0  0  0  0
  -22.7810  -13.5216   21.1870 C   0  0  0  0  0  0
  -22.1661   -4.2151   21.0979 F   0  0  0  0  0  0
  -21.5628   -3.4539   25.7737 F   0  0  0  0  0  0
  -29.9719  -13.5862   20.3979 N   0  0  0  0  0  0
  -26.2910  -12.9435   20.3267 N   0  0  0  0  0  0
  -25.9326  -11.6569   20.5752 N   0  0  0  0  0  0
  -22.0458  -12.8208   22.0428 N   0  0  0  0  0  0
  -25.4158  -15.1942   20.4129 N   0  0  0  0  0  0
  -31.7899  -14.8821   20.1204 O   0  0  0  0  0  0
  -21.6641   -6.8881   21.4243 O   0  0  0  0  0  0
  -22.3493  -14.5519   20.6712 O   0  0  0  0  0  0
  -24.6366  -31.8500   23.1943 C   0  0  0  0  0  0
  -25.9172  -32.4722   23.8304 C   0  0  1  0  0  0
  -27.2145  -27.2025   20.1345 C   0  0  0  0  0  0
  -25.5948  -33.8528   24.2223 N   0  0  0  0  0  0
  -23.4355  -30.4723   21.5380 C   0  0  2  0  0  0
  -24.8830  -28.9127   20.1059 C   0  0  0  0  0  0
  -22.7526  -29.4577   22.4879 C   0  0  0  0  0  0
  -18.0296  -28.1393   22.8478 C   0  0  0  0  0  0
  -24.1492  -36.7269   23.2639 C   0  0  0  0  0  0
  -25.9865  -30.7433   21.3848 C   0  0  0  0  0  0
  -26.0557  -29.3616   20.7248 C   0  0  0  0  0  0
  -27.2204  -28.5190   20.7289 C   0  0  0  0  0  0
  -26.0207  -26.8462   19.4659 C   0  0  0  0  0  0
  -24.8747  -27.6665   19.4631 C   0  0  0  0  0  0
  -23.6567  -29.8064   20.1542 C   0  0  0  0  0  0
  -25.4121  -36.3050   24.0318 C   0  0  1  0  0  0
  -20.5902  -28.3710   23.1251 C   0  0  2  0  0  0
  -20.6781  -26.9420   22.5406 C   0  0  0  0  0  0
  -19.5759  -26.6383   21.5209 C   0  0  0  0  0  0
  -18.1939  -26.7933   22.1620 C   0  0  0  0  0  0
  -19.1549  -28.8869   23.2858 C   0  0  0  0  0  0
  -18.9471  -30.1468   23.8880 C   0  0  0  0  0  0
  -17.6469  -30.6590   24.0560 C   0  0  0  0  0  0
  -25.9068  -34.9422   23.5077 C   0  0  0  0  0  0
  -16.5360  -29.9083   23.6334 C   0  0  0  0  0  0
  -16.7281  -28.6502   23.0352 C   0  0  0  0  0  0
  -26.4521  -31.6569   25.0719 C   0  0  0  0  0  0
  -25.3728  -31.3739   26.1427 C   0  0  0  0  0  0
  -27.0378  -30.2972   24.6264 C   0  0  0  0  0  0
  -27.6059  -32.4329   25.7498 C   0  0  0  0  0  0
  -27.5576  -37.1789   24.8464 C   0  0  0  0  0  0
  -21.4226  -29.3046   22.3628 N   0  0  0  0  0  0
  -26.4288  -37.3756   23.9408 N   0  0  0  0  0  0
  -24.7054  -31.0416   22.0946 N   0  0  0  0  0  0
  -23.4204  -28.8119   23.3000 O   0  0  0  0  0  0
  -28.2939  -26.2718   20.2371 O   0  0  0  0  0  0
  -26.5642  -34.8908   22.4648 O   0  0  0  0  0  0
  -23.5504  -32.1350   23.7207 O   0  0  0  0  0  0
  -28.4707  -19.5979   19.9508 C   0  0  0  0  0  0
  -30.7526  -20.0287   20.5656 C   0  0  0  0  0  0
  -28.0886  -21.1155   20.3666 C   0  0  0  0  0  0
  -30.3555  -21.5022   21.0075 C   0  0  0  0  0  0
  -29.6792  -18.8859   20.6895 C   0  0  2  0  0  0
  -28.6255  -24.7104   18.4057 C   0  0  0  0  0  0
  -30.2763  -17.4311   20.1530 C   0  0  0  0  0  0
  -28.9392  -23.6269   20.7563 C   0  0  0  0  0  0
  -28.1787  -24.7860   19.8711 C   0  0  1  0  0  0
  -29.8528  -16.0015   20.5798 N   0  0  0  0  0  0
  -29.1976  -22.1442   20.2841 N   0  3  2  0  0  0
  -31.4707  -12.6221   19.1904 H   0  0  0  0  0  0
  -30.3800  -11.5348   19.9996 H   0  0  0  0  0  0
  -29.8122  -11.7286   17.5504 H   0  0  0  0  0  0
  -29.6301  -13.4579   17.7157 H   0  0  0  0  0  0
  -27.9134  -11.2794   18.9423 H   0  0  0  0  0  0
  -27.3847  -12.4929   17.8073 H   0  0  0  0  0  0
  -27.6160  -14.2537   19.4423 H   0  0  0  0  0  0
  -28.7294  -12.2377   21.4540 H   0  0  0  0  0  0
  -28.4010  -13.9249   21.7722 H   0  0  0  0  0  0
  -25.2770   -9.5685   22.4761 H   0  0  0  0  0  0
  -24.0007   -7.4637   22.7475 H   0  0  0  0  0  0
  -21.0847   -8.8778   19.8956 H   0  0  0  0  0  0
  -22.3706  -10.9674   19.6167 H   0  0  0  0  0  0
  -21.2009   -7.6150   23.9719 H   0  0  0  0  0  0
  -21.1482   -6.0523   25.9079 H   0  0  0  0  0  0
  -22.0598   -2.7610   23.2846 H   0  0  0  0  0  0
  -22.4077  -11.9873   22.4820 H   0  0  0  0  0  0
  -21.1074  -13.1232   22.2627 H   0  0  0  0  0  0
  -24.6450  -15.8447   20.5208 H   0  0  0  0  0  0
  -26.2586  -15.6349   20.0678 H   0  0  0  0  0  0
  -26.7230  -32.5349   23.1031 H   0  0  0  0  0  0
  -25.0088  -33.9656   25.0366 H   0  0  0  0  0  0
  -22.7345  -31.2965   21.3892 H   0  0  0  0  0  0
  -23.3756  -35.9599   23.3293 H   0  0  0  0  0  0
  -24.3580  -36.8908   22.2055 H   0  0  0  0  0  0
  -23.7248  -37.6464   23.6679 H   0  0  0  0  0  0
  -26.1364  -31.5017   20.6152 H   0  0  0  0  0  0
  -26.8595  -30.7892   22.0243 H   0  0  0  0  0  0
  -28.1127  -28.8544   21.2386 H   0  0  0  0  0  0
  -25.9293  -25.9063   18.9452 H   0  0  0  0  0  0
  -23.9808  -27.3229   18.9611 H   0  0  0  0  0  0
  -23.7858  -30.5828   19.3993 H   0  0  0  0  0  0
  -22.7738  -29.2434   19.8469 H   0  0  0  0  0  0
  -25.1308  -36.1881   25.0810 H   0  0  0  0  0  0
  -20.9995  -28.3297   24.1372 H   0  0  0  0  0  0
  -20.5675  -26.2322   23.3617 H   0  0  0  0  0  0
  -21.6650  -26.7433   22.1205 H   0  0  0  0  0  0
  -19.6920  -25.6290   21.1249 H   0  0  0  0  0  0
  -19.6700  -27.3183   20.6731 H   0  0  0  0  0  0
  -17.4207  -26.6675   21.4023 H   0  0  0  0  0  0
  -18.0342  -26.0079   22.9023 H   0  0  0  0  0  0
  -19.7948  -30.7288   24.2240 H   0  0  0  0  0  0
  -17.5022  -31.6269   24.5167 H   0  0  0  0  0  0
  -15.5359  -30.2980   23.7671 H   0  0  0  0  0  0
  -15.8681  -28.0819   22.7073 H   0  0  0  0  0  0
  -24.5915  -30.7073   25.7755 H   0  0  0  0  0  0
  -24.8906  -32.2912   26.4813 H   0  0  0  0  0  0
  -25.8032  -30.8944   27.0228 H   0  0  0  0  0  0
  -26.2980  -29.6699   24.1274 H   0  0  0  0  0  0
  -27.4007  -29.7263   25.4822 H   0  0  0  0  0  0
  -27.8886  -30.4214   23.9561 H   0  0  0  0  0  0
  -27.2652  -33.3641   26.2037 H   0  0  0  0  0  0
  -28.3889  -32.6869   25.0341 H   0  0  0  0  0  0
  -28.0706  -31.8481   26.5447 H   0  0  0  0  0  0
  -28.2584  -38.0092   24.7511 H   0  0  0  0  0  0
  -28.1080  -36.2622   24.6292 H   0  0  0  0  0  0
  -27.2292  -37.1437   25.8865 H   0  0  0  0  0  0
  -20.9418  -29.8767   21.6826 H   0  0  0  0  0  0
  -26.0158  -38.2825   24.1411 H   0  0  0  0  0  0
  -28.6730  -19.5886   18.8788 H   0  0  0  0  0  0
  -27.5831  -18.9762   20.0726 H   0  0  0  0  0  0
  -31.6261  -19.7369   21.1499 H   0  0  0  0  0  0
  -31.1047  -20.0670   19.5337 H   0  0  0  0  0  0
  -27.7055  -21.1100   21.3879 H   0  0  0  0  0  0
  -27.2618  -21.4580   19.7434 H   0  0  0  0  0  0
  -31.2325  -22.1396   20.8892 H   0  0  0  0  0  0
  -30.1343  -21.4985   22.0759 H   0  0  0  0  0  0
  -29.4277  -18.7783   21.7455 H   0  0  0  0  0  0
  -28.0721  -25.4170   17.7877 H   0  0  0  0  0  0
  -28.4601  -23.7182   17.9881 H   0  0  0  0  0  0
  -29.6848  -24.9483   18.3083 H   0  0  0  0  0  0
  -31.3446  -17.4612   20.3732 H   0  0  0  0  0  0
  -30.2351  -17.4458   19.0630 H   0  0  0  0  0  0
  -28.4667  -23.5850   21.7381 H   0  0  0  0  0  0
  -29.9270  -24.0466   20.9475 H   0  0  0  0  0  0
  -27.1309  -24.4957   19.9189 H   0  0  0  0  0  0
  -28.8816  -15.8769   20.8257 H   0  0  0  0  0  0
  -29.4752  -22.1982   19.3147 H   0  0  0  0  0  0
  1 25  1  0  0  0
  1 30  2  0  0  0
  1 80  1  0  0  0
  2  3  1  0  0  0
  2 25  1  0  0  0
  2 82  1  0  0  0
  2 83  1  0  0  0
  3  4  1  0  0  0
  3 84  1  0  0  0
  3 85  1  0  0  0
  4  5  1  0  0  0
  4 86  1  0  0  0
  4 87  1  0  0  0
  5  6  1  0  0  0
  5 26  1  0  0  0
  5 88  1  0  0  0
  6 25  1  0  0  0
  6 89  1  0  0  0
  6 90  1  0  0  0
  7  8  2  0  0  0
  7 26  1  0  0  0
  7 29  1  0  0  0
  8  9  1  0  0  0
  8 22  1  0  0  0
  9 10  1  0  0  0
  9 27  2  0  0  0
 10 11  2  0  0  0
 10 15  1  0  0  0
 11 12  1  0  0  0
 11 91  1  0  0  0
 12 13  2  0  0  0
 12 92  1  0  0  0
 13 14  1  0  0  0
 13 31  1  0  0  0
 14 15  2  0  0  0
 14 93  1  0  0  0
 15 94  1  0  0  0
 16 17  2  0  0  0
 16 21  1  0  0  0
 16 31  1  0  0  0
 17 18  1  0  0  0
 17 95  1  0  0  0
 18 19  2  0  0  0
 18 96  1  0  0  0
 19 20  1  0  0  0
 19 24  1  0  0  0
 20 21  2  0  0  0
 20 97  1  0  0  0
 21 23  1  0  0  0
 22 28  1  0  0  0
 22 32  2  0  0  0
 26 27  1  0  0  0
 28 98  1  0  0  0
 28 99  1  0  0  0
 29100  1  0  0  0
 29101  1  0  0  0
 33 34  1  0  0  0
 33 66  1  0  0  0
 33 70  2  0  0  0
 34 36  1  0  0  0
 34 59  1  0  0  0
 34102  1  0  0  0
 35 44  2  0  0  0
 35 45  1  0  0  0
 35 68  1  0  0  0
 36 56  1  0  0  0
 36103  1  0  0  0
 37 39  1  0  0  0
 37 47  1  0  0  0
 37 66  1  0  0  0
 37104  1  0  0  0
 38 43  2  0  0  0
 38 46  1  0  0  0
 38 47  1  0  0  0
 39 64  1  0  0  0
 39 67  2  0  0  0
 40 52  1  0  0  0
 40 53  2  0  0  0
 40 58  1  0  0  0
 41105  1  0  0  0
 41106  1  0  0  0
 41107  1  0  0  0
 41 48  1  0  0  0
 42 43  1  0  0  0
 42 66  1  0  0  0
 42108  1  0  0  0
 42109  1  0  0  0
 43 44  1  0  0  0
 44110  1  0  0  0
 45 46  2  0  0  0
 45111  1  0  0  0
 46112  1  0  0  0
 47113  1  0  0  0
 47114  1  0  0  0
 48 56  1  0  0  0
 48 65  1  0  0  0
 48115  1  0  0  0
 49 50  1  0  0  0
 49 53  1  0  0  0
 49 64  1  0  0  0
 49116  1  0  0  0
 50 51  1  0  0  0
 50117  1  0  0  0
 50118  1  0  0  0
 51 52  1  0  0  0
 51119  1  0  0  0
 51120  1  0  0  0
 52121  1  0  0  0
 52122  1  0  0  0
 53 54  1  0  0  0
 54 55  2  0  0  0
 54123  1  0  0  0
 55 57  1  0  0  0
 55124  1  0  0  0
 56 69  2  0  0  0
 57 58  2  0  0  0
 57125  1  0  0  0
 58126  1  0  0  0
 59 60  1  0  0  0
 59 61  1  0  0  0
 59 62  1  0  0  0
 60127  1  0  0  0
 60128  1  0  0  0
 60129  1  0  0  0
 61130  1  0  0  0
 61131  1  0  0  0
 61132  1  0  0  0
 62133  1  0  0  0
 62134  1  0  0  0
 62135  1  0  0  0
 63 65  1  0  0  0
 63136  1  0  0  0
 63137  1  0  0  0
 63138  1  0  0  0
 64139  1  0  0  0
 65140  1  0  0  0
 68 79  1  0  0  0
 71 73  1  0  0  0
 71 75  1  0  0  0
 71141  1  0  0  0
 71142  1  0  0  0
 72 74  1  0  0  0
 72 75  1  0  0  0
 72143  1  0  0  0
 72144  1  0  0  0
 73 81  1  0  0  0
 73145  1  0  0  0
 73146  1  0  0  0
 74 81  1  0  0  0
 74147  1  0  0  0
 74148  1  0  0  0
 75 77  1  0  0  0
 75149  1  0  0  0
 76150  1  0  0  0
 76151  1  0  0  0
 76152  1  0  0  0
 76 79  1  0  0  0
 77 80  1  0  0  0
 77153  1  0  0  0
 77154  1  0  0  0
 78 79  1  0  0  0
 78155  1  0  0  0
 78156  1  0  0  0
 78 81  1  0  0  0
 79157  1  0  0  0
 80158  1  0  0  0
 81159  1  0  0  0
M  CHG  1  81   1
M  ISO  4   1 100  68 101  79 101  80 100
M  END
> <chiral flag>
0

> <version>
0

> <s_m_source_file>
/data/baiqing/PycharmProjects/Reinvent-master-3.2/result/LINK_invent/BTK/process_docking_weight1_custom_sum_contain_oxygen_bond_distance_aromatic_linkinvent_7_9_3/rearranged_h_0107.sdf

> <i_m_source_file_index>
14

> <r_mmod_Potential_Energy-OPLS-2005>
222.951751708984

> <r_mmod_Stretch_Energy-OPLS-2005>
171.718078613281

> <r_mmod_Bend_Energy-OPLS-2005>
234.64924621582

> <r_mmod_Torsional_Energy-OPLS-2005>
255.950958251953

> <r_mmod_Improper_Torsional_Energy-OPLS-2005>
5.75200128555298

> <r_mmod_Van_der_Waal_Energy-OPLS-2005>
122.525169372559

> <r_mmod_Electrostatic_Energy-OPLS-2005>
-257.240020751953

> <r_mmod_Solvation_Energy-OPLS-2005>
-434.951995849609

> <b_mmod_Minimization_Converged-OPLS-2005>
0

> <r_mmod_RMS_Derivative-OPLS-2005>
0.558359563350677

$$$$
14
                    3D
 Structure written by MMmdl.
163171  0  0  1  0            999 V2000
  -30.5920  -14.7520   20.4954 C   0  0  0  0  0  0
  -30.4403  -12.4619   19.4752 C   0  0  0  0  0  0
  -29.5159  -12.5202   18.2379 C   0  0  0  0  0  0
  -28.0409  -12.3366   18.6472 C   0  0  0  0  0  0
  -27.6454  -13.2297   19.8527 C   0  0  2  0  0  0
  -28.6878  -13.1458   20.9877 C   0  0  0  0  0  0
  -25.2529  -13.8193   20.5694 C   0  0  0  0  0  0
  -24.1812  -13.0442   20.9194 C   0  0  0  0  0  0
  -24.6397  -11.6916   20.8730 C   0  0  0  0  0  0
  -23.9071  -10.4294   21.0398 C   0  0  0  0  0  0
  -24.3621   -9.4215   21.9180 C   0  0  0  0  0  0
  -23.6295   -8.2249   22.0752 C   0  0  0  0  0  0
  -22.4276   -8.0284   21.3546 C   0  0  0  0  0  0
  -21.9912   -9.0255   20.4644 C   0  0  0  0  0  0
  -22.7240  -10.2135   20.3049 C   0  0  0  0  0  0
  -21.6857   -6.0736   22.5279 C   0  0  0  0  0  0
  -21.4018   -6.5640   23.8213 C   0  0  0  0  0  0
  -21.3657   -5.6792   24.9174 C   0  0  0  0  0  0
  -21.6045   -4.3056   24.7228 C   0  0  0  0  0  0
  -21.8817   -3.8146   23.4350 C   0  0  0  0  0  0
  -21.9193   -4.6962   22.3404 C   0  0  0  0  0  0
  -22.7835  -13.5227   21.1865 C   0  0  0  0  0  0
  -22.1661   -4.2147   21.0983 F   0  0  0  0  0  0
  -21.5627   -3.4539   25.7741 F   0  0  0  0  0  0
  -29.9923  -13.5109   20.4217 N   0  0  0  0  0  0
  -26.2956  -12.9394   20.3277 N   0  0  0  0  0  0
  -25.9329  -11.6539   20.5732 N   0  0  0  0  0  0
  -22.0480  -12.8213   22.0419 N   0  0  0  0  0  0
  -25.4235  -15.1918   20.4140 N   0  0  0  0  0  0
  -31.7535  -14.8713   20.0929 O   0  0  0  0  0  0
  -21.6643   -6.8880   21.4242 O   0  0  0  0  0  0
  -22.3512  -14.5531   20.6712 O   0  0  0  0  0  0
  -24.6325  -31.8548   23.1981 C   0  0  0  0  0  0
  -25.9150  -32.4749   23.8333 C   0  0  1  0  0  0
  -27.2148  -27.2471   20.1444 C   0  0  0  0  0  0
  -25.5948  -33.8554   24.2260 N   0  0  0  0  0  0
  -23.4296  -30.4771   21.5405 C   0  0  2  0  0  0
  -24.8789  -28.9219   20.1105 C   0  0  0  0  0  0
  -22.7511  -29.4599   22.4903 C   0  0  0  0  0  0
  -18.0292  -28.1391   22.8484 C   0  0  0  0  0  0
  -24.1488  -36.7279   23.2639 C   0  0  0  0  0  0
  -25.9766  -30.7624   21.3818 C   0  0  0  0  0  0
  -26.0487  -29.3815   20.7304 C   0  0  0  0  0  0
  -27.2209  -28.5559   20.7388 C   0  0  0  0  0  0
  -26.0381  -26.8771   19.4602 C   0  0  0  0  0  0
  -24.8789  -27.6772   19.4635 C   0  0  0  0  0  0
  -23.6499  -29.8105   20.1569 C   0  0  0  0  0  0
  -25.4115  -36.3068   24.0327 C   0  0  1  0  0  0
  -20.5899  -28.3702   23.1265 C   0  0  2  0  0  0
  -20.6782  -26.9416   22.5410 C   0  0  0  0  0  0
  -19.5754  -26.6384   21.5218 C   0  0  0  0  0  0
  -18.1935  -26.7931   22.1628 C   0  0  0  0  0  0
  -19.1548  -28.8866   23.2871 C   0  0  0  0  0  0
  -18.9470  -30.1466   23.8887 C   0  0  0  0  0  0
  -17.6469  -30.6591   24.0562 C   0  0  0  0  0  0
  -25.9061  -34.9438   23.5096 C   0  0  0  0  0  0
  -16.5361  -29.9087   23.6333 C   0  0  0  0  0  0
  -16.7278  -28.6505   23.0351 C   0  0  0  0  0  0
  -26.4507  -31.6573   25.0723 C   0  0  0  0  0  0
  -25.3721  -31.3729   26.1435 C   0  0  0  0  0  0
  -27.0359  -30.2985   24.6222 C   0  0  0  0  0  0
  -27.6055  -32.4311   25.7507 C   0  0  0  0  0  0
  -27.5572  -37.1799   24.8465 C   0  0  0  0  0  0
  -21.4214  -29.3047   22.3653 N   0  0  0  0  0  0
  -26.4284  -37.3771   23.9409 N   0  0  0  0  0  0
  -24.6984  -31.0505   22.0960 N   0  0  0  0  0  0
  -23.4212  -28.8140   23.3000 O   0  0  0  0  0  0
  -28.2953  -26.3292   20.1579 O   0  0  0  0  0  0
  -26.5627  -34.8913   22.4661 O   0  0  0  0  0  0
  -23.5472  -32.1372   23.7272 O   0  0  0  0  0  0
  -28.4955  -19.6729   19.4758 C   0  0  0  0  0  0
  -29.8508  -19.9234   21.6238 C   0  0  0  0  0  0
  -28.7405  -21.2271   19.2372 C   0  0  0  0  0  0
  -30.0434  -21.4433   21.1988 C   0  0  0  0  0  0
  -29.2480  -18.8784   20.6136 C   0  0  2  0  0  0
  -30.0794  -16.2668   22.4919 C   0  0  0  0  0  0
  -26.7689  -24.5824   21.2900 C   0  0  0  0  0  0
  -30.0849  -17.5190   20.2361 C   0  0  0  0  0  0
  -28.9823  -23.6454   20.2068 C   0  0  0  0  0  0
  -29.8232  -16.0910   20.9846 C   0  0  1  0  0  0
  -28.2031  -24.9678   20.8371 C   0  0  1  0  0  0
  -28.8877  -22.0917   20.4641 N   0  3  2  0  0  0
  -31.4803  -12.5929   19.1735 H   0  0  0  0  0  0
  -30.3907  -11.4795   19.9474 H   0  0  0  0  0  0
  -29.8027  -11.7552   17.5153 H   0  0  0  0  0  0
  -29.6390  -13.4801   17.7336 H   0  0  0  0  0  0
  -27.8991  -11.2864   18.9048 H   0  0  0  0  0  0
  -27.3848  -12.5331   17.7984 H   0  0  0  0  0  0
  -27.6452  -14.2540   19.4801 H   0  0  0  0  0  0
  -28.7227  -12.1389   21.4057 H   0  0  0  0  0  0
  -28.4150  -13.8041   21.8130 H   0  0  0  0  0  0
  -25.2765   -9.5693   22.4756 H   0  0  0  0  0  0
  -24.0002   -7.4643   22.7474 H   0  0  0  0  0  0
  -21.0842   -8.8775   19.8953 H   0  0  0  0  0  0
  -22.3698  -10.9672   19.6155 H   0  0  0  0  0  0
  -21.2011   -7.6148   23.9718 H   0  0  0  0  0  0
  -21.1481   -6.0523   25.9079 H   0  0  0  0  0  0
  -22.0597   -2.7609   23.2853 H   0  0  0  0  0  0
  -22.4100  -11.9876   22.4809 H   0  0  0  0  0  0
  -21.1095  -13.1233   22.2622 H   0  0  0  0  0  0
  -24.6601  -15.8487   20.5318 H   0  0  0  0  0  0
  -26.2812  -15.6331   20.1074 H   0  0  0  0  0  0
  -26.7215  -32.5393   23.1075 H   0  0  0  0  0  0
  -25.0097  -33.9689   25.0407 H   0  0  0  0  0  0
  -22.7265  -31.2995   21.3936 H   0  0  0  0  0  0
  -23.3752  -35.9610   23.3301 H   0  0  0  0  0  0
  -24.3578  -36.8903   22.2054 H   0  0  0  0  0  0
  -23.7241  -37.6481   23.6660 H   0  0  0  0  0  0
  -26.1176  -31.5186   20.6087 H   0  0  0  0  0  0
  -26.8542  -30.8139   22.0145 H   0  0  0  0  0  0
  -28.1149  -28.9025   21.2379 H   0  0  0  0  0  0
  -26.0029  -25.9343   18.9342 H   0  0  0  0  0  0
  -23.9895  -27.3275   18.9568 H   0  0  0  0  0  0
  -23.7767  -30.5867   19.4011 H   0  0  0  0  0  0
  -22.7678  -29.2456   19.8496 H   0  0  0  0  0  0
  -25.1300  -36.1911   25.0820 H   0  0  0  0  0  0
  -20.9995  -28.3279   24.1383 H   0  0  0  0  0  0
  -20.5687  -26.2309   23.3614 H   0  0  0  0  0  0
  -21.6650  -26.7438   22.1205 H   0  0  0  0  0  0
  -19.6916  -25.6295   21.1248 H   0  0  0  0  0  0
  -19.6694  -27.3197   20.6749 H   0  0  0  0  0  0
  -17.4207  -26.6682   21.4025 H   0  0  0  0  0  0
  -18.0328  -26.0076   22.9025 H   0  0  0  0  0  0
  -19.7947  -30.7283   24.2252 H   0  0  0  0  0  0
  -17.5024  -31.6267   24.5168 H   0  0  0  0  0  0
  -15.5364  -30.2988   23.7658 H   0  0  0  0  0  0
  -15.8677  -28.0824   22.7065 H   0  0  0  0  0  0
  -24.5910  -30.7061   25.7761 H   0  0  0  0  0  0
  -24.8895  -32.2897   26.4822 H   0  0  0  0  0  0
  -25.8036  -30.8931   27.0229 H   0  0  0  0  0  0
  -26.2951  -29.6730   24.1226 H   0  0  0  0  0  0
  -27.4008  -29.7249   25.4755 H   0  0  0  0  0  0
  -27.8841  -30.4253   23.9493 H   0  0  0  0  0  0
  -27.2659  -33.3617   26.2063 H   0  0  0  0  0  0
  -28.3884  -32.6866   25.0351 H   0  0  0  0  0  0
  -28.0701  -31.8447   26.5443 H   0  0  0  0  0  0
  -28.2596  -38.0089   24.7513 H   0  0  0  0  0  0
  -28.1063  -36.2626   24.6293 H   0  0  0  0  0  0
  -27.2290  -37.1449   25.8868 H   0  0  0  0  0  0
  -20.9399  -29.8769   21.6859 H   0  0  0  0  0  0
  -26.0163  -38.2844   24.1410 H   0  0  0  0  0  0
  -28.6429  -19.1619   18.5243 H   0  0  0  0  0  0
  -27.4265  -19.5614   19.6665 H   0  0  0  0  0  0
  -29.2053  -19.9283   22.5034 H   0  0  0  0  0  0
  -30.8033  -19.5458   21.9958 H   0  0  0  0  0  0
  -27.9196  -21.5969   18.6223 H   0  0  0  0  0  0
  -29.6350  -21.3518   18.6242 H   0  0  0  0  0  0
  -30.9350  -21.5245   20.5753 H   0  0  0  0  0  0
  -30.2804  -22.0106   22.1000 H   0  0  0  0  0  0
  -28.4168  -18.4434   21.1722 H   0  0  0  0  0  0
  -29.4258  -17.0284   22.9174 H   0  0  0  0  0  0
  -31.1095  -16.5687   22.6840 H   0  0  0  0  0  0
  -29.8990  -15.3439   23.0451 H   0  0  0  0  0  0
  -26.7829  -23.7401   21.9810 H   0  0  0  0  0  0
  -26.1389  -24.2906   20.4508 H   0  0  0  0  0  0
  -26.2784  -25.3953   21.8253 H   0  0  0  0  0  0
  -31.1489  -17.7479   20.3058 H   0  0  0  0  0  0
  -29.9294  -17.3276   19.1738 H   0  0  0  0  0  0
  -28.2060  -23.5853   19.4461 H   0  0  0  0  0  0
  -28.8868  -23.4291   21.2657 H   0  0  0  0  0  0
  -28.7606  -15.8884   20.8570 H   0  0  0  0  0  0
  -28.7112  -25.2413   21.7693 H   0  0  0  0  0  0
  -28.0584  -21.9449   21.0212 H   0  0  0  0  0  0
  1 25  1  0  0  0
  1 30  2  0  0  0
  1 80  1  0  0  0
  2  3  1  0  0  0
  2 25  1  0  0  0
  2 83  1  0  0  0
  2 84  1  0  0  0
  3  4  1  0  0  0
  3 85  1  0  0  0
  3 86  1  0  0  0
  4  5  1  0  0  0
  4 87  1  0  0  0
  4 88  1  0  0  0
  5  6  1  0  0  0
  5 26  1  0  0  0
  5 89  1  0  0  0
  6 25  1  0  0  0
  6 90  1  0  0  0
  6 91  1  0  0  0
  7  8  2  0  0  0
  7 26  1  0  0  0
  7 29  1  0  0  0
  8  9  1  0  0  0
  8 22  1  0  0  0
  9 10  1  0  0  0
  9 27  2  0  0  0
 10 11  2  0  0  0
 10 15  1  0  0  0
 11 12  1  0  0  0
 11 92  1  0  0  0
 12 13  2  0  0  0
 12 93  1  0  0  0
 13 14  1  0  0  0
 13 31  1  0  0  0
 14 15  2  0  0  0
 14 94  1  0  0  0
 15 95  1  0  0  0
 16 17  2  0  0  0
 16 21  1  0  0  0
 16 31  1  0  0  0
 17 18  1  0  0  0
 17 96  1  0  0  0
 18 19  2  0  0  0
 18 97  1  0  0  0
 19 20  1  0  0  0
 19 24  1  0  0  0
 20 21  2  0  0  0
 20 98  1  0  0  0
 21 23  1  0  0  0
 22 28  1  0  0  0
 22 32  2  0  0  0
 26 27  1  0  0  0
 28 99  1  0  0  0
 28100  1  0  0  0
 29101  1  0  0  0
 29102  1  0  0  0
 33 34  1  0  0  0
 33 66  1  0  0  0
 33 70  2  0  0  0
 34 36  1  0  0  0
 34 59  1  0  0  0
 34103  1  0  0  0
 35 44  2  0  0  0
 35 45  1  0  0  0
 35 68  1  0  0  0
 36 56  1  0  0  0
 36104  1  0  0  0
 37 39  1  0  0  0
 37 47  1  0  0  0
 37 66  1  0  0  0
 37105  1  0  0  0
 38 43  2  0  0  0
 38 46  1  0  0  0
 38 47  1  0  0  0
 39 64  1  0  0  0
 39 67  2  0  0  0
 40 52  1  0  0  0
 40 53  2  0  0  0
 40 58  1  0  0  0
 41106  1  0  0  0
 41107  1  0  0  0
 41108  1  0  0  0
 41 48  1  0  0  0
 42 43  1  0  0  0
 42 66  1  0  0  0
 42109  1  0  0  0
 42110  1  0  0  0
 43 44  1  0  0  0
 44111  1  0  0  0
 45 46  2  0  0  0
 45112  1  0  0  0
 46113  1  0  0  0
 47114  1  0  0  0
 47115  1  0  0  0
 48 56  1  0  0  0
 48 65  1  0  0  0
 48116  1  0  0  0
 49 50  1  0  0  0
 49 53  1  0  0  0
 49 64  1  0  0  0
 49117  1  0  0  0
 50 51  1  0  0  0
 50118  1  0  0  0
 50119  1  0  0  0
 51 52  1  0  0  0
 51120  1  0  0  0
 51121  1  0  0  0
 52122  1  0  0  0
 52123  1  0  0  0
 53 54  1  0  0  0
 54 55  2  0  0  0
 54124  1  0  0  0
 55 57  1  0  0  0
 55125  1  0  0  0
 56 69  2  0  0  0
 57 58  2  0  0  0
 57126  1  0  0  0
 58127  1  0  0  0
 59 60  1  0  0  0
 59 61  1  0  0  0
 59 62  1  0  0  0
 60128  1  0  0  0
 60129  1  0  0  0
 60130  1  0  0  0
 61131  1  0  0  0
 61132  1  0  0  0
 61133  1  0  0  0
 62134  1  0  0  0
 62135  1  0  0  0
 62136  1  0  0  0
 63 65  1  0  0  0
 63137  1  0  0  0
 63138  1  0  0  0
 63139  1  0  0  0
 64140  1  0  0  0
 65141  1  0  0  0
 68 81  1  0  0  0
 71 73  1  0  0  0
 71 75  1  0  0  0
 71142  1  0  0  0
 71143  1  0  0  0
 72 74  1  0  0  0
 72 75  1  0  0  0
 72144  1  0  0  0
 72145  1  0  0  0
 73 82  1  0  0  0
 73146  1  0  0  0
 73147  1  0  0  0
 74 82  1  0  0  0
 74148  1  0  0  0
 74149  1  0  0  0
 75 78  1  0  0  0
 75150  1  0  0  0
 76151  1  0  0  0
 76152  1  0  0  0
 76153  1  0  0  0
 76 80  1  0  0  0
 77154  1  0  0  0
 77155  1  0  0  0
 77156  1  0  0  0
 77 81  1  0  0  0
 78 80  1  0  0  0
 78157  1  0  0  0
 78158  1  0  0  0
 79 81  1  0  0  0
 79159  1  0  0  0
 79160  1  0  0  0
 79 82  1  0  0  0
 80161  1  0  0  0
 81162  1  0  0  0
 82163  1  0  0  0
M  CHG  1  82   1
M  ISO  4   1 100  68 101  80 100  81 101
M  END
> <chiral flag>
0

> <version>
0

> <s_m_source_file>
/data/baiqing/PycharmProjects/Reinvent-master-3.2/result/LINK_invent/BTK/process_docking_weight1_custom_sum_contain_oxygen_bond_distance_aromatic_linkinvent_7_9_3/rearranged_h_0107.sdf

> <i_m_source_file_index>
15

> <r_mmod_Potential_Energy-OPLS-2005>
536.776062011719

> <r_mmod_Stretch_Energy-OPLS-2005>
156.642913818359

> <r_mmod_Bend_Energy-OPLS-2005>
442.530975341797

> <r_mmod_Torsional_Energy-OPLS-2005>
293.051422119141

> <r_mmod_Improper_Torsional_Energy-OPLS-2005>
2.29452466964722

> <r_mmod_Van_der_Waal_Energy-OPLS-2005>
141.946578979492

> <r_mmod_Electrostatic_Energy-OPLS-2005>
-186.001815795898

> <r_mmod_Solvation_Energy-OPLS-2005>
-402.701599121094

> <b_mmod_Minimization_Converged-OPLS-2005>
0

> <r_mmod_RMS_Derivative-OPLS-2005>
0.928714513778687

$$$$
15
                    3D
 Structure written by MMmdl.
170179  0  0  1  0            999 V2000
  -30.6913  -14.6627   20.5171 C   0  0  0  0  0  0
  -30.4201  -12.4297   19.4404 C   0  0  0  0  0  0
  -29.4922  -12.4965   18.2097 C   0  0  0  0  0  0
  -28.0219  -12.3021   18.6304 C   0  0  0  0  0  0
  -27.6389  -13.1920   19.8376 C   0  0  2  0  0  0
  -28.6936  -13.0859   20.9705 C   0  0  0  0  0  0
  -25.2505  -13.8094   20.5611 C   0  0  0  0  0  0
  -24.1789  -13.0395   20.9189 C   0  0  0  0  0  0
  -24.6347  -11.6871   20.8750 C   0  0  0  0  0  0
  -23.9021  -10.4275   21.0417 C   0  0  0  0  0  0
  -24.3588   -9.4203   21.9195 C   0  0  0  0  0  0
  -23.6274   -8.2237   22.0761 C   0  0  0  0  0  0
  -22.4261   -8.0271   21.3546 C   0  0  0  0  0  0
  -21.9877   -9.0238   20.4652 C   0  0  0  0  0  0
  -22.7197  -10.2121   20.3063 C   0  0  0  0  0  0
  -21.6849   -6.0725   22.5279 C   0  0  0  0  0  0
  -21.4024   -6.5630   23.8214 C   0  0  0  0  0  0
  -21.3650   -5.6779   24.9172 C   0  0  0  0  0  0
  -21.6036   -4.3042   24.7219 C   0  0  0  0  0  0
  -21.8825   -3.8136   23.4341 C   0  0  0  0  0  0
  -21.9200   -4.6957   22.3400 C   0  0  0  0  0  0
  -22.7822  -13.5221   21.1852 C   0  0  0  0  0  0
  -22.1668   -4.2141   21.0978 F   0  0  0  0  0  0
  -21.5620   -3.4529   25.7732 F   0  0  0  0  0  0
  -29.9818  -13.4845   20.3894 N   0  0  0  0  0  0
  -26.2901  -12.9234   20.3193 N   0  0  0  0  0  0
  -25.9253  -11.6422   20.5728 N   0  0  0  0  0  0
  -22.0453  -12.8228   22.0409 N   0  0  0  0  0  0
  -25.4111  -15.1808   20.3959 N   0  0  0  0  0  0
  -31.8794  -14.6542   20.1791 O   0  0  0  0  0  0
  -21.6637   -6.8863   21.4239 O   0  0  0  0  0  0
  -22.3517  -14.5533   20.6706 O   0  0  0  0  0  0
  -24.6214  -31.8636   23.2041 C   0  0  0  0  0  0
  -25.9091  -32.4795   23.8339 C   0  0  1  0  0  0
  -27.2331  -27.3682   20.1172 C   0  0  0  0  0  0
  -25.5933  -33.8592   24.2284 N   0  0  0  0  0  0
  -23.4127  -30.4848   21.5454 C   0  0  2  0  0  0
  -24.8621  -28.9396   20.1136 C   0  0  0  0  0  0
  -22.7447  -29.4642   22.4961 C   0  0  0  0  0  0
  -18.0293  -28.1357   22.8507 C   0  0  0  0  0  0
  -24.1497  -36.7296   23.2633 C   0  0  0  0  0  0
  -25.9472  -30.8106   21.3658 C   0  0  0  0  0  0
  -26.0271  -29.4390   20.7116 C   0  0  0  0  0  0
  -27.2187  -28.6650   20.7024 C   0  0  0  0  0  0
  -26.0523  -26.9003   19.5058 C   0  0  0  0  0  0
  -24.8736  -27.6731   19.5024 C   0  0  0  0  0  0
  -23.6268  -29.8155   20.1606 C   0  0  0  0  0  0
  -25.4117  -36.3087   24.0327 C   0  0  1  0  0  0
  -20.5885  -28.3678   23.1310 C   0  0  2  0  0  0
  -20.6793  -26.9406   22.5424 C   0  0  0  0  0  0
  -19.5759  -26.6373   21.5236 C   0  0  0  0  0  0
  -18.1955  -26.7882   22.1684 C   0  0  0  0  0  0
  -19.1535  -28.8837   23.2890 C   0  0  0  0  0  0
  -18.9453  -30.1455   23.8876 C   0  0  0  0  0  0
  -17.6444  -30.6578   24.0527 C   0  0  0  0  0  0
  -25.9049  -34.9459   23.5101 C   0  0  0  0  0  0
  -16.5338  -29.9061   23.6311 C   0  0  0  0  0  0
  -16.7275  -28.6473   23.0350 C   0  0  0  0  0  0
  -26.4488  -31.6585   25.0687 C   0  0  0  0  0  0
  -25.3716  -31.3729   26.1412 C   0  0  0  0  0  0
  -27.0322  -30.3011   24.6113 C   0  0  0  0  0  0
  -27.6063  -32.4296   25.7453 C   0  0  0  0  0  0
  -27.5582  -37.1807   24.8462 C   0  0  0  0  0  0
  -21.4167  -29.3049   22.3714 N   0  0  0  0  0  0
  -26.4295  -37.3777   23.9404 N   0  0  0  0  0  0
  -24.6790  -31.0678   22.0967 N   0  0  0  0  0  0
  -23.4191  -28.8170   23.3011 O   0  0  0  0  0  0
  -28.3622  -26.5568   20.1170 O   0  0  0  0  0  0
  -26.5602  -34.8929   22.4659 O   0  0  0  0  0  0
  -23.5400  -32.1422   23.7406 O   0  0  0  0  0  0
  -26.8017  -22.6222   21.4206 C   0  0  0  0  0  0
  -26.3591  -21.5131   22.1475 C   0  0  0  0  0  0
  -28.7172  -21.3256   20.6694 C   0  0  0  0  0  0
  -28.2562  -20.1519   21.3718 C   0  0  0  0  0  0
  -28.0193  -22.5915   20.7159 C   0  0  0  0  0  0
  -27.0801  -20.3020   22.1746 C   0  0  0  0  0  0
  -28.1662  -17.5784   20.7963 C   0  0  0  0  0  0
  -30.3455  -18.5625   20.6566 C   0  0  0  0  0  0
  -28.7319  -16.2116   21.2685 C   0  0  0  0  0  0
  -30.9781  -17.1302   20.8956 C   0  0  0  0  0  0
  -28.9903  -18.7541   21.3631 C   0  0  0  0  0  0
  -25.1183  -18.7713   22.7268 C   0  0  0  0  0  0
  -26.5775  -19.6911   24.5858 C   0  0  0  0  0  0
  -28.2572  -25.2716   20.8195 C   0  0  0  0  0  0
  -26.5379  -19.2205   23.1234 C   0  0  0  0  0  0
  -28.4776  -23.9166   20.0068 C   0  0  1  0  0  0
  -30.1034  -15.9040   20.7985 N   0  0  0  0  0  0
  -29.8534  -23.8550   19.6723 O   0  0  0  0  0  0
  -31.4585  -12.5370   19.1211 H   0  0  0  0  0  0
  -30.3669  -11.4458   19.9094 H   0  0  0  0  0  0
  -29.7756  -11.7401   17.4767 H   0  0  0  0  0  0
  -29.6089  -13.4605   17.7118 H   0  0  0  0  0  0
  -27.8832  -11.2503   18.8831 H   0  0  0  0  0  0
  -27.3599  -12.5049   17.7878 H   0  0  0  0  0  0
  -27.6339  -14.1950   19.4165 H   0  0  0  0  0  0
  -28.7442  -12.0574   21.3300 H   0  0  0  0  0  0
  -28.4404  -13.6636   21.8577 H   0  0  0  0  0  0
  -25.2735   -9.5684   22.4763 H   0  0  0  0  0  0
  -23.9987   -7.4623   22.7471 H   0  0  0  0  0  0
  -21.0807   -8.8756   19.8950 H   0  0  0  0  0  0
  -22.3659  -10.9665   19.6173 H   0  0  0  0  0  0
  -21.2036   -7.6140   23.9723 H   0  0  0  0  0  0
  -21.1451   -6.0500   25.9074 H   0  0  0  0  0  0
  -22.0613   -2.7598   23.2840 H   0  0  0  0  0  0
  -22.4062  -11.9910   22.4833 H   0  0  0  0  0  0
  -21.1086  -13.1299   22.2621 H   0  0  0  0  0  0
  -24.6371  -15.8232   20.5241 H   0  0  0  0  0  0
  -26.2484  -15.6299   20.0510 H   0  0  0  0  0  0
  -26.7152  -32.5482   23.1086 H   0  0  0  0  0  0
  -25.0114  -33.9727   25.0451 H   0  0  0  0  0  0
  -22.7044  -31.3036   21.4035 H   0  0  0  0  0  0
  -23.3752  -35.9634   23.3302 H   0  0  0  0  0  0
  -24.3594  -36.8907   22.2045 H   0  0  0  0  0  0
  -23.7256  -37.6507   23.6647 H   0  0  0  0  0  0
  -26.0679  -31.5778   20.5993 H   0  0  0  0  0  0
  -26.8306  -30.8628   21.9905 H   0  0  0  0  0  0
  -28.1187  -29.0473   21.1647 H   0  0  0  0  0  0
  -26.0433  -25.9270   19.0356 H   0  0  0  0  0  0
  -23.9806  -27.2854   19.0312 H   0  0  0  0  0  0
  -23.7418  -30.5915   19.4026 H   0  0  0  0  0  0
  -22.7489  -29.2416   19.8591 H   0  0  0  0  0  0
  -25.1299  -36.1941   25.0817 H   0  0  0  0  0  0
  -20.9967  -28.3253   24.1437 H   0  0  0  0  0  0
  -20.5733  -26.2276   23.3618 H   0  0  0  0  0  0
  -21.6651  -26.7463   22.1180 H   0  0  0  0  0  0
  -19.6932  -25.6293   21.1256 H   0  0  0  0  0  0
  -19.6677  -27.3204   20.6781 H   0  0  0  0  0  0
  -17.4194  -26.6559   21.4128 H   0  0  0  0  0  0
  -18.0440  -26.0054   22.9129 H   0  0  0  0  0  0
  -19.7918  -30.7298   24.2222 H   0  0  0  0  0  0
  -17.4991  -31.6274   24.5090 H   0  0  0  0  0  0
  -15.5343  -30.2946   23.7629 H   0  0  0  0  0  0
  -15.8684  -28.0766   22.7069 H   0  0  0  0  0  0
  -24.5897  -30.7077   25.7735 H   0  0  0  0  0  0
  -24.8894  -32.2903   26.4803 H   0  0  0  0  0  0
  -25.8034  -30.8925   27.0198 H   0  0  0  0  0  0
  -26.2890  -29.6765   24.1150 H   0  0  0  0  0  0
  -27.4051  -29.7271   25.4604 H   0  0  0  0  0  0
  -27.8744  -30.4301   23.9305 H   0  0  0  0  0  0
  -27.2691  -33.3594   26.2040 H   0  0  0  0  0  0
  -28.3870  -32.6851   25.0274 H   0  0  0  0  0  0
  -28.0724  -31.8394   26.5354 H   0  0  0  0  0  0
  -28.2604  -38.0099   24.7500 H   0  0  0  0  0  0
  -28.1070  -36.2633   24.6297 H   0  0  0  0  0  0
  -27.2298  -37.1466   25.8864 H   0  0  0  0  0  0
  -20.9324  -29.8811   21.6971 H   0  0  0  0  0  0
  -26.0185  -38.2857   24.1396 H   0  0  0  0  0  0
  -26.1843  -23.5066   21.4399 H   0  0  0  0  0  0
  -25.4479  -21.6120   22.7200 H   0  0  0  0  0  0
  -29.6287  -21.2516   20.0960 H   0  0  0  0  0  0
  -27.1232  -17.6325   21.0893 H   0  0  0  0  0  0
  -28.1371  -17.6230   19.7068 H   0  0  0  0  0  0
  -30.2255  -18.7355   19.5856 H   0  0  0  0  0  0
  -31.0494  -19.3223   21.0002 H   0  0  0  0  0  0
  -28.0047  -15.5010   20.9329 H   0  0  0  0  0  0
  -28.7175  -16.1571   22.3579 H   0  0  0  0  0  0
  -31.4177  -17.1145   21.8941 H   0  0  0  0  0  0
  -31.8233  -17.0579   20.2096 H   0  0  0  0  0  0
  -29.1968  -18.5589   22.4157 H   0  0  0  0  0  0
  -25.0843  -18.4209   21.6958 H   0  0  0  0  0  0
  -24.3923  -19.5785   22.8169 H   0  0  0  0  0  0
  -24.7746  -17.9533   23.3607 H   0  0  0  0  0  0
  -27.5872  -19.9861   24.8724 H   0  0  0  0  0  0
  -26.2680  -18.8929   25.2604 H   0  0  0  0  0  0
  -25.9189  -20.5418   24.7608 H   0  0  0  0  0  0
  -28.9623  -25.2974   21.6513 H   0  0  0  0  0  0
  -27.2851  -25.2597   21.3077 H   0  0  0  0  0  0
  -27.1635  -18.3344   23.1132 H   0  0  0  0  0  0
  -27.9068  -23.9833   19.0787 H   0  0  0  0  0  0
  -29.9498  -23.1619   19.0276 H   0  0  0  0  0  0
  1 25  1  0  0  0
  1 30  2  0  0  0
  1 87  1  0  0  0
  2  3  1  0  0  0
  2 25  1  0  0  0
  2 89  1  0  0  0
  2 90  1  0  0  0
  3  4  1  0  0  0
  3 91  1  0  0  0
  3 92  1  0  0  0
  4  5  1  0  0  0
  4 93  1  0  0  0
  4 94  1  0  0  0
  5  6  1  0  0  0
  5 26  1  0  0  0
  5 95  1  0  0  0
  6 25  1  0  0  0
  6 96  1  0  0  0
  6 97  1  0  0  0
  7  8  2  0  0  0
  7 26  1  0  0  0
  7 29  1  0  0  0
  8  9  1  0  0  0
  8 22  1  0  0  0
  9 10  1  0  0  0
  9 27  2  0  0  0
 10 11  2  0  0  0
 10 15  1  0  0  0
 11 12  1  0  0  0
 11 98  1  0  0  0
 12 13  2  0  0  0
 12 99  1  0  0  0
 13 14  1  0  0  0
 13 31  1  0  0  0
 14 15  2  0  0  0
 14100  1  0  0  0
 15101  1  0  0  0
 16 17  2  0  0  0
 16 21  1  0  0  0
 16 31  1  0  0  0
 17 18  1  0  0  0
 17102  1  0  0  0
 18 19  2  0  0  0
 18103  1  0  0  0
 19 20  1  0  0  0
 19 24  1  0  0  0
 20 21  2  0  0  0
 20104  1  0  0  0
 21 23  1  0  0  0
 22 28  1  0  0  0
 22 32  2  0  0  0
 26 27  1  0  0  0
 28105  1  0  0  0
 28106  1  0  0  0
 29107  1  0  0  0
 29108  1  0  0  0
 33 34  1  0  0  0
 33 66  1  0  0  0
 33 70  2  0  0  0
 34 36  1  0  0  0
 34 59  1  0  0  0
 34109  1  0  0  0
 35 44  2  0  0  0
 35 45  1  0  0  0
 35 68  1  0  0  0
 36 56  1  0  0  0
 36110  1  0  0  0
 37 39  1  0  0  0
 37 47  1  0  0  0
 37 66  1  0  0  0
 37111  1  0  0  0
 38 43  2  0  0  0
 38 46  1  0  0  0
 38 47  1  0  0  0
 39 64  1  0  0  0
 39 67  2  0  0  0
 40 52  1  0  0  0
 40 53  2  0  0  0
 40 58  1  0  0  0
 41112  1  0  0  0
 41113  1  0  0  0
 41114  1  0  0  0
 41 48  1  0  0  0
 42 43  1  0  0  0
 42 66  1  0  0  0
 42115  1  0  0  0
 42116  1  0  0  0
 43 44  1  0  0  0
 44117  1  0  0  0
 45 46  2  0  0  0
 45118  1  0  0  0
 46119  1  0  0  0
 47120  1  0  0  0
 47121  1  0  0  0
 48 56  1  0  0  0
 48 65  1  0  0  0
 48122  1  0  0  0
 49 50  1  0  0  0
 49 53  1  0  0  0
 49 64  1  0  0  0
 49123  1  0  0  0
 50 51  1  0  0  0
 50124  1  0  0  0
 50125  1  0  0  0
 51 52  1  0  0  0
 51126  1  0  0  0
 51127  1  0  0  0
 52128  1  0  0  0
 52129  1  0  0  0
 53 54  1  0  0  0
 54 55  2  0  0  0
 54130  1  0  0  0
 55 57  1  0  0  0
 55131  1  0  0  0
 56 69  2  0  0  0
 57 58  2  0  0  0
 57132  1  0  0  0
 58133  1  0  0  0
 59 60  1  0  0  0
 59 61  1  0  0  0
 59 62  1  0  0  0
 60134  1  0  0  0
 60135  1  0  0  0
 60136  1  0  0  0
 61137  1  0  0  0
 61138  1  0  0  0
 61139  1  0  0  0
 62140  1  0  0  0
 62141  1  0  0  0
 62142  1  0  0  0
 63 65  1  0  0  0
 63143  1  0  0  0
 63144  1  0  0  0
 63145  1  0  0  0
 64146  1  0  0  0
 65147  1  0  0  0
 68 84  1  0  0  0
 71 72  2  0  0  0
 71 75  1  0  0  0
 71148  1  0  0  0
 72 76  1  0  0  0
 72149  1  0  0  0
 73 74  1  0  0  0
 73 75  2  0  0  0
 73150  1  0  0  0
 74 76  2  0  0  0
 74 81  1  0  0  0
 75 86  1  0  0  0
 76 85  1  0  0  0
 77 79  1  0  0  0
 77 81  1  0  0  0
 77151  1  0  0  0
 77152  1  0  0  0
 78 80  1  0  0  0
 78 81  1  0  0  0
 78153  1  0  0  0
 78154  1  0  0  0
 79 87  1  0  0  0
 79155  1  0  0  0
 79156  1  0  0  0
 80 87  1  0  0  0
 80157  1  0  0  0
 80158  1  0  0  0
 81159  1  0  0  0
 82160  1  0  0  0
 82161  1  0  0  0
 82162  1  0  0  0
 82 85  1  0  0  0
 83 85  1  0  0  0
 83163  1  0  0  0
 83164  1  0  0  0
 83165  1  0  0  0
 84 86  1  0  0  0
 84166  1  0  0  0
 84167  1  0  0  0
 85168  1  0  0  0
 86 88  1  0  0  0
 86169  1  0  0  0
 88170  1  0  0  0
M  ISO  4   1 100  68 101  84 101  87 100
M  END
> <chiral flag>
0

> <version>
0

> <s_m_source_file>
/data/baiqing/PycharmProjects/Reinvent-master-3.2/result/LINK_invent/BTK/process_docking_weight1_custom_sum_contain_oxygen_bond_distance_aromatic_linkinvent_7_9_3/rearranged_h_0107.sdf

> <i_m_source_file_index>
16

> <r_mmod_Potential_Energy-OPLS-2005>
308.414001464844

> <r_mmod_Stretch_Energy-OPLS-2005>
89.1455688476562

> <r_mmod_Bend_Energy-OPLS-2005>
181.10774230957

> <r_mmod_Torsional_Energy-OPLS-2005>
326.288452148438

> <r_mmod_Improper_Torsional_Energy-OPLS-2005>
4.92200136184692

> <r_mmod_Van_der_Waal_Energy-OPLS-2005>
172.238754272461

> <r_mmod_Electrostatic_Energy-OPLS-2005>
-298.191986083984

> <r_mmod_Solvation_Energy-OPLS-2005>
-212.399063110352

> <b_mmod_Minimization_Converged-OPLS-2005>
0

> <r_mmod_RMS_Derivative-OPLS-2005>
1.80950736999512

$$$$
16
                    3D
 Structure written by MMmdl.
164172  0  0  1  0            999 V2000
  -30.5652  -14.7444   20.4864 C   0  0  0  0  0  0
  -30.4375  -12.4651   19.4714 C   0  0  0  0  0  0
  -29.5099  -12.5044   18.2353 C   0  0  0  0  0  0
  -28.0319  -12.3284   18.6351 C   0  0  0  0  0  0
  -27.6352  -13.2175   19.8424 C   0  0  2  0  0  0
  -28.6737  -13.1192   20.9791 C   0  0  0  0  0  0
  -25.2491  -13.8219   20.5621 C   0  0  0  0  0  0
  -24.1774  -13.0478   20.9186 C   0  0  0  0  0  0
  -24.6339  -11.6951   20.8741 C   0  0  0  0  0  0
  -23.9015  -10.4331   21.0405 C   0  0  0  0  0  0
  -24.3610   -9.4238   21.9155 C   0  0  0  0  0  0
  -23.6324   -8.2260   22.0688 C   0  0  0  0  0  0
  -22.4313   -8.0265   21.3486 C   0  0  0  0  0  0
  -21.9942   -9.0239   20.4579 C   0  0  0  0  0  0
  -22.7223  -10.2133   20.3023 C   0  0  0  0  0  0
  -21.6875   -6.0743   22.5275 C   0  0  0  0  0  0
  -21.4006   -6.5644   23.8213 C   0  0  0  0  0  0
  -21.3665   -5.6783   24.9171 C   0  0  0  0  0  0
  -21.6081   -4.3053   24.7231 C   0  0  0  0  0  0
  -21.8821   -3.8134   23.4345 C   0  0  0  0  0  0
  -21.9198   -4.6957   22.3396 C   0  0  0  0  0  0
  -22.7791  -13.5225   21.1881 C   0  0  0  0  0  0
  -22.1650   -4.2122   21.0981 F   0  0  0  0  0  0
  -21.5648   -3.4525   25.7733 F   0  0  0  0  0  0
  -29.9717  -13.5064   20.4135 N   0  0  0  0  0  0
  -26.2859  -12.9355   20.3149 N   0  0  0  0  0  0
  -25.9244  -11.6532   20.5713 N   0  0  0  0  0  0
  -22.0455  -12.8150   22.0428 N   0  0  0  0  0  0
  -25.4267  -15.1960   20.4086 N   0  0  0  0  0  0
  -31.7491  -14.8852   20.1720 O   0  0  0  0  0  0
  -21.6635   -6.8884   21.4242 O   0  0  0  0  0  0
  -22.3435  -14.5526   20.6739 O   0  0  0  0  0  0
  -24.6310  -31.8512   23.1953 C   0  0  0  0  0  0
  -25.9131  -32.4722   23.8306 C   0  0  1  0  0  0
  -27.2363  -27.2815   20.1320 C   0  0  0  0  0  0
  -25.5920  -33.8506   24.2253 N   0  0  0  0  0  0
  -23.4281  -30.4734   21.5362 C   0  0  2  0  0  0
  -24.8770  -28.9100   20.1179 C   0  0  0  0  0  0
  -22.7463  -29.4624   22.4908 C   0  0  0  0  0  0
  -18.0284  -28.1361   22.8450 C   0  0  0  0  0  0
  -24.1476  -36.7317   23.2643 C   0  0  0  0  0  0
  -25.9669  -30.7793   21.3632 C   0  0  0  0  0  0
  -26.0455  -29.3954   20.7184 C   0  0  0  0  0  0
  -27.2300  -28.5922   20.7119 C   0  0  0  0  0  0
  -26.0522  -26.8620   19.4937 C   0  0  0  0  0  0
  -24.8815  -27.6479   19.5012 C   0  0  0  0  0  0
  -23.6464  -29.7924   20.1564 C   0  0  0  0  0  0
  -25.4081  -36.3064   24.0360 C   0  0  1  0  0  0
  -20.5877  -28.3668   23.1245 C   0  0  2  0  0  0
  -20.6736  -26.9379   22.5374 C   0  0  0  0  0  0
  -19.5744  -26.6360   21.5145 C   0  0  0  0  0  0
  -18.1931  -26.7891   22.1580 C   0  0  0  0  0  0
  -19.1533  -28.8832   23.2848 C   0  0  0  0  0  0
  -18.9454  -30.1422   23.8872 C   0  0  0  0  0  0
  -17.6462  -30.6547   24.0543 C   0  0  0  0  0  0
  -25.9014  -34.9432   23.5113 C   0  0  0  0  0  0
  -16.5341  -29.9050   23.6328 C   0  0  0  0  0  0
  -16.7286  -28.6483   23.0324 C   0  0  0  0  0  0
  -26.4481  -31.6549   25.0704 C   0  0  0  0  0  0
  -25.3777  -31.3625   26.1498 C   0  0  0  0  0  0
  -27.0318  -30.2992   24.6144 C   0  0  0  0  0  0
  -27.6069  -32.4237   25.7474 C   0  0  0  0  0  0
  -27.5580  -37.1789   24.8462 C   0  0  0  0  0  0
  -21.4182  -29.3075   22.3669 N   0  0  0  0  0  0
  -26.4257  -37.3778   23.9437 N   0  0  0  0  0  0
  -24.6945  -31.0505   22.0903 N   0  0  0  0  0  0
  -23.4153  -28.8173   23.3031 O   0  0  0  0  0  0
  -28.3491  -26.4152   20.1514 O   0  0  0  0  0  0
  -26.5563  -34.8919   22.4657 O   0  0  0  0  0  0
  -23.5470  -32.1320   23.7279 O   0  0  0  0  0  0
  -28.8633  -21.1357   19.8549 C   0  0  0  0  0  0
  -29.4444  -20.0673   20.5407 C   0  0  0  0  0  0
  -30.2182  -20.7350   21.5567 C   0  0  0  0  0  0
  -30.0909  -22.1169   21.4279 C   0  0  0  0  0  0
  -30.7087  -23.2404   22.2226 C   0  0  0  0  0  0
  -32.9304  -19.8224   23.8536 C   0  0  0  0  0  0
  -32.9396  -19.2990   21.4147 C   0  0  0  0  0  0
  -29.2490  -18.5042   20.2229 C   0  0  0  0  0  0
  -28.9238  -23.7883   19.7535 C   0  0  0  0  0  0
  -30.0878  -17.3248   20.9523 C   0  0  0  0  0  0
  -28.1775  -24.9758   20.5652 C   0  0  0  0  0  0
  -32.3582  -20.2197   22.4868 C   0  0  0  0  0  0
  -29.2374  -22.4080   20.3588 N   0  0  0  0  0  0
  -29.7492  -15.8422   20.7398 N   0  0  0  0  0  0
  -30.9372  -20.0868   22.5362 O   0  0  0  0  0  0
  -31.4689  -12.6393   19.1623 H   0  0  0  0  0  0
  -30.4261  -11.4833   19.9506 H   0  0  0  0  0  0
  -29.8103  -11.7374   17.5192 H   0  0  0  0  0  0
  -29.6149  -13.4671   17.7307 H   0  0  0  0  0  0
  -27.8654  -11.2777   18.8738 H   0  0  0  0  0  0
  -27.3884  -12.5429   17.7805 H   0  0  0  0  0  0
  -27.6378  -14.2406   19.4720 H   0  0  0  0  0  0
  -28.7111  -12.0986   21.3622 H   0  0  0  0  0  0
  -28.3949  -13.7510   21.8234 H   0  0  0  0  0  0
  -25.2777   -9.5745   22.4666 H   0  0  0  0  0  0
  -24.0069   -7.4665   22.7412 H   0  0  0  0  0  0
  -21.0869   -8.8767   19.8891 H   0  0  0  0  0  0
  -22.3711  -10.9657   19.6097 H   0  0  0  0  0  0
  -21.1958   -7.6140   23.9716 H   0  0  0  0  0  0
  -21.1488   -6.0493   25.9078 H   0  0  0  0  0  0
  -22.0593   -2.7603   23.2850 H   0  0  0  0  0  0
  -22.4093  -11.9852   22.4881 H   0  0  0  0  0  0
  -21.1028  -13.1060   22.2584 H   0  0  0  0  0  0
  -24.6812  -15.8657   20.5590 H   0  0  0  0  0  0
  -26.2724  -15.6243   20.0546 H   0  0  0  0  0  0
  -26.7198  -32.5372   23.1052 H   0  0  0  0  0  0
  -25.0068  -33.9540   25.0404 H   0  0  0  0  0  0
  -22.7323  -31.2990   21.3751 H   0  0  0  0  0  0
  -23.3733  -35.9649   23.3242 H   0  0  0  0  0  0
  -24.3630  -36.8962   22.2073 H   0  0  0  0  0  0
  -23.7194  -37.6499   23.6672 H   0  0  0  0  0  0
  -26.0818  -31.5358   20.5846 H   0  0  0  0  0  0
  -26.8535  -30.8433   21.9833 H   0  0  0  0  0  0
  -28.1280  -28.9596   21.1873 H   0  0  0  0  0  0
  -26.0241  -25.9073   18.9840 H   0  0  0  0  0  0
  -23.9883  -27.2726   19.0193 H   0  0  0  0  0  0
  -23.7688  -30.5584   19.3880 H   0  0  0  0  0  0
  -22.7687  -29.2146   19.8599 H   0  0  0  0  0  0
  -25.1245  -36.1913   25.0850 H   0  0  0  0  0  0
  -20.9965  -28.3217   24.1368 H   0  0  0  0  0  0
  -20.5497  -26.2298   23.3576 H   0  0  0  0  0  0
  -21.6619  -26.7303   22.1260 H   0  0  0  0  0  0
  -19.6875  -25.6263   21.1201 H   0  0  0  0  0  0
  -19.6689  -27.3146   20.6653 H   0  0  0  0  0  0
  -17.4172  -26.6619   21.4015 H   0  0  0  0  0  0
  -18.0371  -26.0019   22.8972 H   0  0  0  0  0  0
  -19.7940  -30.7221   24.2241 H   0  0  0  0  0  0
  -17.5023  -31.6239   24.5123 H   0  0  0  0  0  0
  -15.5336  -30.2922   23.7673 H   0  0  0  0  0  0
  -15.8690  -28.0788   22.7020 H   0  0  0  0  0  0
  -24.5999  -30.6866   25.7920 H   0  0  0  0  0  0
  -24.8908  -32.2731   26.5000 H   0  0  0  0  0  0
  -25.8239  -30.8843   27.0235 H   0  0  0  0  0  0
  -26.2867  -29.6719   24.1243 H   0  0  0  0  0  0
  -27.4092  -29.7277   25.4630 H   0  0  0  0  0  0
  -27.8706  -30.4302   23.9306 H   0  0  0  0  0  0
  -27.2740  -33.3556   26.2058 H   0  0  0  0  0  0
  -28.3917  -32.6715   25.0313 H   0  0  0  0  0  0
  -28.0704  -31.8320   26.5380 H   0  0  0  0  0  0
  -28.2560  -38.0123   24.7547 H   0  0  0  0  0  0
  -28.1102  -36.2658   24.6211 H   0  0  0  0  0  0
  -27.2340  -37.1363   25.8871 H   0  0  0  0  0  0
  -20.9320  -29.8933   21.7012 H   0  0  0  0  0  0
  -26.0159  -38.2855   24.1423 H   0  0  0  0  0  0
  -28.2070  -21.0909   18.9930 H   0  0  0  0  0  0
  -31.5042  -22.9195   22.8933 H   0  0  0  0  0  0
  -29.9610  -23.7210   22.8514 H   0  0  0  0  0  0
  -31.1375  -24.0100   21.5813 H   0  0  0  0  0  0
  -34.0209  -19.8499   23.8413 H   0  0  0  0  0  0
  -32.6371  -18.8055   24.1132 H   0  0  0  0  0  0
  -32.5876  -20.4791   24.6513 H   0  0  0  0  0  0
  -34.0103  -19.4626   21.3007 H   0  0  0  0  0  0
  -32.4731  -19.4535   20.4395 H   0  0  0  0  0  0
  -32.8167  -18.2600   21.7181 H   0  0  0  0  0  0
  -29.4348  -18.4131   19.1528 H   0  0  0  0  0  0
  -28.1824  -18.3014   20.3333 H   0  0  0  0  0  0
  -29.8695  -24.1978   19.3996 H   0  0  0  0  0  0
  -28.3575  -23.6078   18.8392 H   0  0  0  0  0  0
  -30.0185  -17.4977   22.0267 H   0  0  0  0  0  0
  -31.1317  -17.4569   20.6982 H   0  0  0  0  0  0
  -28.4978  -24.9369   21.6027 H   0  0  0  0  0  0
  -27.1202  -24.7225   20.6293 H   0  0  0  0  0  0
  -32.6486  -21.2444   22.2587 H   0  0  0  0  0  0
  -28.7941  -15.5908   20.9444 H   0  0  0  0  0  0
  1 25  1  0  0  0
  1 30  2  0  0  0
  1 84  1  0  0  0
  2  3  1  0  0  0
  2 25  1  0  0  0
  2 86  1  0  0  0
  2 87  1  0  0  0
  3  4  1  0  0  0
  3 88  1  0  0  0
  3 89  1  0  0  0
  4  5  1  0  0  0
  4 90  1  0  0  0
  4 91  1  0  0  0
  5  6  1  0  0  0
  5 26  1  0  0  0
  5 92  1  0  0  0
  6 25  1  0  0  0
  6 93  1  0  0  0
  6 94  1  0  0  0
  7  8  2  0  0  0
  7 26  1  0  0  0
  7 29  1  0  0  0
  8  9  1  0  0  0
  8 22  1  0  0  0
  9 10  1  0  0  0
  9 27  2  0  0  0
 10 11  2  0  0  0
 10 15  1  0  0  0
 11 12  1  0  0  0
 11 95  1  0  0  0
 12 13  2  0  0  0
 12 96  1  0  0  0
 13 14  1  0  0  0
 13 31  1  0  0  0
 14 15  2  0  0  0
 14 97  1  0  0  0
 15 98  1  0  0  0
 16 17  2  0  0  0
 16 21  1  0  0  0
 16 31  1  0  0  0
 17 18  1  0  0  0
 17 99  1  0  0  0
 18 19  2  0  0  0
 18100  1  0  0  0
 19 20  1  0  0  0
 19 24  1  0  0  0
 20 21  2  0  0  0
 20101  1  0  0  0
 21 23  1  0  0  0
 22 28  1  0  0  0
 22 32  2  0  0  0
 26 27  1  0  0  0
 28102  1  0  0  0
 28103  1  0  0  0
 29104  1  0  0  0
 29105  1  0  0  0
 33 34  1  0  0  0
 33 66  1  0  0  0
 33 70  2  0  0  0
 34 36  1  0  0  0
 34 59  1  0  0  0
 34106  1  0  0  0
 35 44  2  0  0  0
 35 45  1  0  0  0
 35 68  1  0  0  0
 36 56  1  0  0  0
 36107  1  0  0  0
 37 39  1  0  0  0
 37 47  1  0  0  0
 37 66  1  0  0  0
 37108  1  0  0  0
 38 43  2  0  0  0
 38 46  1  0  0  0
 38 47  1  0  0  0
 39 64  1  0  0  0
 39 67  2  0  0  0
 40 52  1  0  0  0
 40 53  2  0  0  0
 40 58  1  0  0  0
 41109  1  0  0  0
 41110  1  0  0  0
 41111  1  0  0  0
 41 48  1  0  0  0
 42 43  1  0  0  0
 42 66  1  0  0  0
 42112  1  0  0  0
 42113  1  0  0  0
 43 44  1  0  0  0
 44114  1  0  0  0
 45 46  2  0  0  0
 45115  1  0  0  0
 46116  1  0  0  0
 47117  1  0  0  0
 47118  1  0  0  0
 48 56  1  0  0  0
 48 65  1  0  0  0
 48119  1  0  0  0
 49 50  1  0  0  0
 49 53  1  0  0  0
 49 64  1  0  0  0
 49120  1  0  0  0
 50 51  1  0  0  0
 50121  1  0  0  0
 50122  1  0  0  0
 51 52  1  0  0  0
 51123  1  0  0  0
 51124  1  0  0  0
 52125  1  0  0  0
 52126  1  0  0  0
 53 54  1  0  0  0
 54 55  2  0  0  0
 54127  1  0  0  0
 55 57  1  0  0  0
 55128  1  0  0  0
 56 69  2  0  0  0
 57 58  2  0  0  0
 57129  1  0  0  0
 58130  1  0  0  0
 59 60  1  0  0  0
 59 61  1  0  0  0
 59 62  1  0  0  0
 60131  1  0  0  0
 60132  1  0  0  0
 60133  1  0  0  0
 61134  1  0  0  0
 61135  1  0  0  0
 61136  1  0  0  0
 62137  1  0  0  0
 62138  1  0  0  0
 62139  1  0  0  0
 63 65  1  0  0  0
 63140  1  0  0  0
 63141  1  0  0  0
 63142  1  0  0  0
 64143  1  0  0  0
 65144  1  0  0  0
 68 81  1  0  0  0
 71 72  2  0  0  0
 71 83  1  0  0  0
 71145  1  0  0  0
 72 73  1  0  0  0
 72 78  1  0  0  0
 73 74  2  0  0  0
 73 85  1  0  0  0
 74 75  1  0  0  0
 74 83  1  0  0  0
 75146  1  0  0  0
 75147  1  0  0  0
 75148  1  0  0  0
 76149  1  0  0  0
 76150  1  0  0  0
 76151  1  0  0  0
 76 82  1  0  0  0
 77 82  1  0  0  0
 77152  1  0  0  0
 77153  1  0  0  0
 77154  1  0  0  0
 78 80  1  0  0  0
 78155  1  0  0  0
 78156  1  0  0  0
 79 81  1  0  0  0
 79 83  1  0  0  0
 79157  1  0  0  0
 79158  1  0  0  0
 80 84  1  0  0  0
 80159  1  0  0  0
 80160  1  0  0  0
 81161  1  0  0  0
 81162  1  0  0  0
 82 85  1  0  0  0
 82163  1  0  0  0
 84164  1  0  0  0
M  ISO  4   1 100  68 101  81 101  84 100
M  END
> <chiral flag>
0

> <version>
0

> <s_m_source_file>
/data/baiqing/PycharmProjects/Reinvent-master-3.2/result/LINK_invent/BTK/process_docking_weight1_custom_sum_contain_oxygen_bond_distance_aromatic_linkinvent_7_9_3/rearranged_h_0107.sdf

> <i_m_source_file_index>
17

> <r_mmod_Potential_Energy-OPLS-2005>
91.1459121704102

> <r_mmod_Stretch_Energy-OPLS-2005>
123.332962036133

> <r_mmod_Bend_Energy-OPLS-2005>
176.45295715332

> <r_mmod_Torsional_Energy-OPLS-2005>
242.444747924805

> <r_mmod_Improper_Torsional_Energy-OPLS-2005>
4.92270994186401

> <r_mmod_Van_der_Waal_Energy-OPLS-2005>
112.1533203125

> <r_mmod_Electrostatic_Energy-OPLS-2005>
-426.314239501953

> <r_mmod_Solvation_Energy-OPLS-2005>
-221.229934692383

> <b_mmod_Minimization_Converged-OPLS-2005>
0

> <r_mmod_RMS_Derivative-OPLS-2005>
6.53482961654663

$$$$
17
                    3D
 Structure written by MMmdl.
154162  0  0  1  0            999 V2000
  -30.5300  -14.9478   20.4109 C   0  0  0  0  0  0
  -30.4413  -12.5830   19.5048 C   0  0  0  0  0  0
  -29.5220  -12.5266   18.2621 C   0  0  0  0  0  0
  -28.0545  -12.3145   18.6783 C   0  0  0  0  0  0
  -27.6313  -13.2466   19.8430 C   0  0  2  0  0  0
  -28.6724  -13.2699   20.9831 C   0  0  0  0  0  0
  -25.2466  -13.8215   20.5718 C   0  0  0  0  0  0
  -24.1782  -13.0440   20.9228 C   0  0  0  0  0  0
  -24.6397  -11.6922   20.8759 C   0  0  0  0  0  0
  -23.9079  -10.4294   21.0411 C   0  0  0  0  0  0
  -24.3626   -9.4207   21.9188 C   0  0  0  0  0  0
  -23.6299   -8.2241   22.0752 C   0  0  0  0  0  0
  -22.4282   -8.0282   21.3540 C   0  0  0  0  0  0
  -21.9920   -9.0258   20.4642 C   0  0  0  0  0  0
  -22.7250  -10.2137   20.3058 C   0  0  0  0  0  0
  -21.6856   -6.0738   22.5279 C   0  0  0  0  0  0
  -21.4011   -6.5641   23.8213 C   0  0  0  0  0  0
  -21.3656   -5.6791   24.9173 C   0  0  0  0  0  0
  -21.6046   -4.3055   24.7222 C   0  0  0  0  0  0
  -21.8821   -3.8150   23.4343 C   0  0  0  0  0  0
  -21.9195   -4.6967   22.3400 C   0  0  0  0  0  0
  -22.7804  -13.5211   21.1885 C   0  0  0  0  0  0
  -22.1667   -4.2155   21.0977 F   0  0  0  0  0  0
  -21.5628   -3.4540   25.7733 F   0  0  0  0  0  0
  -29.9510  -13.6796   20.3890 N   0  0  0  0  0  0
  -26.2894  -12.9445   20.3266 N   0  0  0  0  0  0
  -25.9330  -11.6577   20.5757 N   0  0  0  0  0  0
  -22.0460  -12.8188   22.0439 N   0  0  0  0  0  0
  -25.4135  -15.1938   20.4137 N   0  0  0  0  0  0
  -31.7247  -15.0270   20.1072 O   0  0  0  0  0  0
  -21.6640   -6.8881   21.4240 O   0  0  0  0  0  0
  -22.3483  -14.5518   20.6735 O   0  0  0  0  0  0
  -24.6443  -31.8421   23.1884 C   0  0  0  0  0  0
  -25.9211  -32.4683   23.8271 C   0  0  1  0  0  0
  -27.2133  -27.1210   20.1523 C   0  0  0  0  0  0
  -25.5963  -33.8495   24.2182 N   0  0  0  0  0  0
  -23.4490  -30.4622   21.5326 C   0  0  2  0  0  0
  -24.8981  -28.8876   20.1076 C   0  0  0  0  0  0
  -22.7578  -29.4534   22.4837 C   0  0  0  0  0  0
  -18.0308  -28.1391   22.8473 C   0  0  0  0  0  0
  -24.1492  -36.7233   23.2643 C   0  0  0  0  0  0
  -26.0068  -30.7092   21.3918 C   0  0  0  0  0  0
  -26.0742  -29.3202   20.7321 C   0  0  0  0  0  0
  -27.2296  -28.4514   20.7404 C   0  0  0  0  0  0
  -26.0169  -26.8007   19.4721 C   0  0  0  0  0  0
  -24.8830  -27.6424   19.4618 C   0  0  0  0  0  0
  -23.6771  -29.7930   20.1509 C   0  0  0  0  0  0
  -25.4122  -36.3016   24.0319 C   0  0  1  0  0  0
  -20.5923  -28.3721   23.1224 C   0  0  2  0  0  0
  -20.6797  -26.9421   22.5403 C   0  0  0  0  0  0
  -19.5769  -26.6372   21.5216 C   0  0  0  0  0  0
  -18.1949  -26.7929   22.1620 C   0  0  0  0  0  0
  -19.1568  -28.8873   23.2842 C   0  0  0  0  0  0
  -18.9486  -30.1469   23.8867 C   0  0  0  0  0  0
  -17.6484  -30.6584   24.0560 C   0  0  0  0  0  0
  -25.9077  -34.9398   23.5056 C   0  0  0  0  0  0
  -16.5373  -29.9080   23.6340 C   0  0  0  0  0  0
  -16.7294  -28.6503   23.0352 C   0  0  0  0  0  0
  -26.4538  -31.6562   25.0719 C   0  0  0  0  0  0
  -25.3721  -31.3756   26.1410 C   0  0  0  0  0  0
  -27.0411  -30.2959   24.6310 C   0  0  0  0  0  0
  -27.6066  -32.4336   25.7496 C   0  0  0  0  0  0
  -27.5571  -37.1765   24.8464 C   0  0  0  0  0  0
  -21.4267  -29.3046   22.3591 N   0  0  0  0  0  0
  -26.4271  -37.3740   23.9424 N   0  0  0  0  0  0
  -24.7199  -31.0266   22.0921 N   0  0  0  0  0  0
  -23.4219  -28.8076   23.2985 O   0  0  0  0  0  0
  -28.2613  -26.1294   20.2584 O   0  0  0  0  0  0
  -26.5660  -34.8903   22.4630 O   0  0  0  0  0  0
  -23.5559  -32.1297   23.7097 O   0  0  0  0  0  0
  -29.1276  -20.7408   22.5377 C   0  0  0  0  0  0
  -29.4465  -19.7018   23.3362 C   0  0  0  0  0  0
  -29.1981  -20.3696   21.1614 C   0  0  0  0  0  0
  -29.5574  -18.9366   21.1777 C   0  0  0  0  0  0
  -30.1840  -17.3779   23.1466 C   0  0  0  0  0  0
  -28.8300  -21.6383   20.1573 C   0  0  0  0  0  0
  -29.9022  -17.6547   20.2043 C   0  0  0  0  0  0
  -28.8378  -23.2770   20.6510 C   0  0  0  0  0  0
  -28.0815  -24.6086   19.9297 C   0  0  0  0  0  0
  -29.7387  -18.6270   22.5418 N   0  0  0  0  0  0
  -29.7285  -16.1136   20.5639 N   0  0  0  0  0  0
  -31.4748  -12.7408   19.1930 H   0  0  0  0  0  0
  -30.4355  -11.6302   20.0367 H   0  0  0  0  0  0
  -29.8400  -11.7283   17.5901 H   0  0  0  0  0  0
  -29.6108  -13.4563   17.6980 H   0  0  0  0  0  0
  -27.9485  -11.2733   18.9854 H   0  0  0  0  0  0
  -27.3915  -12.4481   17.8230 H   0  0  0  0  0  0
  -27.5965  -14.2491   19.4162 H   0  0  0  0  0  0
  -28.7554  -12.2927   21.4604 H   0  0  0  0  0  0
  -28.3716  -13.9706   21.7637 H   0  0  0  0  0  0
  -25.2772   -9.5685   22.4765 H   0  0  0  0  0  0
  -24.0012   -7.4629   22.7470 H   0  0  0  0  0  0
  -21.0853   -8.8777   19.8945 H   0  0  0  0  0  0
  -22.3711  -10.9677   19.6168 H   0  0  0  0  0  0
  -21.1998   -7.6149   23.9716 H   0  0  0  0  0  0
  -21.1475   -6.0522   25.9076 H   0  0  0  0  0  0
  -22.0604   -2.7615   23.2840 H   0  0  0  0  0  0
  -22.4091  -11.9844   22.4804 H   0  0  0  0  0  0
  -21.1080  -13.1203   22.2665 H   0  0  0  0  0  0
  -24.6413  -15.8430   20.5189 H   0  0  0  0  0  0
  -26.2527  -15.6353   20.0617 H   0  0  0  0  0  0
  -26.7270  -32.5282   23.0990 H   0  0  0  0  0  0
  -25.0133  -33.9623   25.0346 H   0  0  0  0  0  0
  -22.7529  -31.2893   21.3779 H   0  0  0  0  0  0
  -23.3773  -35.9546   23.3278 H   0  0  0  0  0  0
  -24.3579  -36.8883   22.2061 H   0  0  0  0  0  0
  -23.7227  -37.6415   23.6695 H   0  0  0  0  0  0
  -26.1685  -31.4627   20.6197 H   0  0  0  0  0  0
  -26.8759  -30.7552   22.0364 H   0  0  0  0  0  0
  -28.1223  -28.7717   21.2589 H   0  0  0  0  0  0
  -25.9196  -25.8574   18.9570 H   0  0  0  0  0  0
  -23.9870  -27.3109   18.9551 H   0  0  0  0  0  0
  -23.8202  -30.5696   19.3984 H   0  0  0  0  0  0
  -22.7915  -29.2395   19.8352 H   0  0  0  0  0  0
  -25.1310  -36.1828   25.0811 H   0  0  0  0  0  0
  -21.0024  -28.3310   24.1341 H   0  0  0  0  0  0
  -20.5694  -26.2338   23.3622 H   0  0  0  0  0  0
  -21.6659  -26.7417   22.1196 H   0  0  0  0  0  0
  -19.6938  -25.6282   21.1249 H   0  0  0  0  0  0
  -19.6706  -27.3177   20.6741 H   0  0  0  0  0  0
  -17.4221  -26.6678   21.4016 H   0  0  0  0  0  0
  -18.0336  -26.0072   22.9015 H   0  0  0  0  0  0
  -19.7968  -30.7292   24.2211 H   0  0  0  0  0  0
  -17.5042  -31.6260   24.5173 H   0  0  0  0  0  0
  -15.5377  -30.2977   23.7680 H   0  0  0  0  0  0
  -15.8692  -28.0818   22.7074 H   0  0  0  0  0  0
  -24.5920  -30.7076   25.7730 H   0  0  0  0  0  0
  -24.8895  -32.2945   26.4756 H   0  0  0  0  0  0
  -25.8004  -30.8985   27.0234 H   0  0  0  0  0  0
  -26.3033  -29.6670   24.1317 H   0  0  0  0  0  0
  -27.4025  -29.7264   25.4885 H   0  0  0  0  0  0
  -27.8942  -30.4198   23.9633 H   0  0  0  0  0  0
  -27.2666  -33.3680   26.1972 H   0  0  0  0  0  0
  -28.3925  -32.6815   25.0348 H   0  0  0  0  0  0
  -28.0679  -31.8524   26.5489 H   0  0  0  0  0  0
  -28.2555  -38.0094   24.7541 H   0  0  0  0  0  0
  -28.1096  -36.2623   24.6245 H   0  0  0  0  0  0
  -27.2298  -37.1350   25.8868 H   0  0  0  0  0  0
  -20.9474  -29.8761   21.6772 H   0  0  0  0  0  0
  -26.0127  -38.2793   24.1468 H   0  0  0  0  0  0
  -28.8738  -21.7082   22.9435 H   0  0  0  0  0  0
  -29.5106  -19.6410   24.4156 H   0  0  0  0  0  0
  -30.4310  -17.5260   24.1982 H   0  0  0  0  0  0
  -31.0832  -17.0122   22.6512 H   0  0  0  0  0  0
  -29.3907  -16.6323   23.0972 H   0  0  0  0  0  0
  -27.8233  -21.4283   19.7950 H   0  0  0  0  0  0
  -29.4665  -21.5468   19.2772 H   0  0  0  0  0  0
  -30.9408  -17.7669   19.8902 H   0  0  0  0  0  0
  -29.3346  -17.7945   19.2843 H   0  0  0  0  0  0
  -29.8857  -23.5446   20.7856 H   0  0  0  0  0  0
  -28.4216  -23.2990   21.6554 H   0  0  0  0  0  0
  -27.0214  -24.3837   20.0329 H   0  0  0  0  0  0
  -28.2803  -24.5329   18.8605 H   0  0  0  0  0  0
  -28.7790  -15.8873   20.8157 H   0  0  0  0  0  0
  1 25  1  0  0  0
  1 30  2  0  0  0
  1 81  1  0  0  0
  2  3  1  0  0  0
  2 25  1  0  0  0
  2 82  1  0  0  0
  2 83  1  0  0  0
  3  4  1  0  0  0
  3 84  1  0  0  0
  3 85  1  0  0  0
  4  5  1  0  0  0
  4 86  1  0  0  0
  4 87  1  0  0  0
  5  6  1  0  0  0
  5 26  1  0  0  0
  5 88  1  0  0  0
  6 25  1  0  0  0
  6 89  1  0  0  0
  6 90  1  0  0  0
  7  8  2  0  0  0
  7 26  1  0  0  0
  7 29  1  0  0  0
  8  9  1  0  0  0
  8 22  1  0  0  0
  9 10  1  0  0  0
  9 27  2  0  0  0
 10 11  2  0  0  0
 10 15  1  0  0  0
 11 12  1  0  0  0
 11 91  1  0  0  0
 12 13  2  0  0  0
 12 92  1  0  0  0
 13 14  1  0  0  0
 13 31  1  0  0  0
 14 15  2  0  0  0
 14 93  1  0  0  0
 15 94  1  0  0  0
 16 17  2  0  0  0
 16 21  1  0  0  0
 16 31  1  0  0  0
 17 18  1  0  0  0
 17 95  1  0  0  0
 18 19  2  0  0  0
 18 96  1  0  0  0
 19 20  1  0  0  0
 19 24  1  0  0  0
 20 21  2  0  0  0
 20 97  1  0  0  0
 21 23  1  0  0  0
 22 28  1  0  0  0
 22 32  2  0  0  0
 26 27  1  0  0  0
 28 98  1  0  0  0
 28 99  1  0  0  0
 29100  1  0  0  0
 29101  1  0  0  0
 33 34  1  0  0  0
 33 66  1  0  0  0
 33 70  2  0  0  0
 34 36  1  0  0  0
 34 59  1  0  0  0
 34102  1  0  0  0
 35 44  2  0  0  0
 35 45  1  0  0  0
 35 68  1  0  0  0
 36 56  1  0  0  0
 36103  1  0  0  0
 37 39  1  0  0  0
 37 47  1  0  0  0
 37 66  1  0  0  0
 37104  1  0  0  0
 38 43  2  0  0  0
 38 46  1  0  0  0
 38 47  1  0  0  0
 39 64  1  0  0  0
 39 67  2  0  0  0
 40 52  1  0  0  0
 40 53  2  0  0  0
 40 58  1  0  0  0
 41105  1  0  0  0
 41106  1  0  0  0
 41107  1  0  0  0
 41 48  1  0  0  0
 42 43  1  0  0  0
 42 66  1  0  0  0
 42108  1  0  0  0
 42109  1  0  0  0
 43 44  1  0  0  0
 44110  1  0  0  0
 45 46  2  0  0  0
 45111  1  0  0  0
 46112  1  0  0  0
 47113  1  0  0  0
 47114  1  0  0  0
 48 56  1  0  0  0
 48 65  1  0  0  0
 48115  1  0  0  0
 49 50  1  0  0  0
 49 53  1  0  0  0
 49 64  1  0  0  0
 49116  1  0  0  0
 50 51  1  0  0  0
 50117  1  0  0  0
 50118  1  0  0  0
 51 52  1  0  0  0
 51119  1  0  0  0
 51120  1  0  0  0
 52121  1  0  0  0
 52122  1  0  0  0
 53 54  1  0  0  0
 54 55  2  0  0  0
 54123  1  0  0  0
 55 57  1  0  0  0
 55124  1  0  0  0
 56 69  2  0  0  0
 57 58  2  0  0  0
 57125  1  0  0  0
 58126  1  0  0  0
 59 60  1  0  0  0
 59 61  1  0  0  0
 59 62  1  0  0  0
 60127  1  0  0  0
 60128  1  0  0  0
 60129  1  0  0  0
 61130  1  0  0  0
 61131  1  0  0  0
 61132  1  0  0  0
 62133  1  0  0  0
 62134  1  0  0  0
 62135  1  0  0  0
 63 65  1  0  0  0
 63136  1  0  0  0
 63137  1  0  0  0
 63138  1  0  0  0
 64139  1  0  0  0
 65140  1  0  0  0
 68 79  1  0  0  0
 71 72  2  0  0  0
 71 73  1  0  0  0
 71141  1  0  0  0
 72 80  1  0  0  0
 72142  1  0  0  0
 73 74  2  0  0  0
 73 76  1  0  0  0
 74 77  1  0  0  0
 74 80  1  0  0  0
 75 80  1  0  0  0
 75143  1  0  0  0
 75144  1  0  0  0
 75145  1  0  0  0
 76 78  1  0  0  0
 76146  1  0  0  0
 76147  1  0  0  0
 77 81  1  0  0  0
 77148  1  0  0  0
 77149  1  0  0  0
 78 79  1  0  0  0
 78150  1  0  0  0
 78151  1  0  0  0
 79152  1  0  0  0
 79153  1  0  0  0
 81154  1  0  0  0
M  ISO  4   1 100  68 101  79 101  81 100
M  END
> <chiral flag>
0

> <version>
0

> <s_m_source_file>
/data/baiqing/PycharmProjects/Reinvent-master-3.2/result/LINK_invent/BTK/process_docking_weight1_custom_sum_contain_oxygen_bond_distance_aromatic_linkinvent_7_9_3/rearranged_h_0107.sdf

> <i_m_source_file_index>
18

> <r_mmod_Potential_Energy-OPLS-2005>
490.874420166016

> <r_mmod_Stretch_Energy-OPLS-2005>
298.7880859375

> <r_mmod_Bend_Energy-OPLS-2005>
293.185729980469

> <r_mmod_Torsional_Energy-OPLS-2005>
203.664764404297

> <r_mmod_Improper_Torsional_Energy-OPLS-2005>
5.17669153213501

> <r_mmod_Van_der_Waal_Energy-OPLS-2005>
123.462982177734

> <r_mmod_Electrostatic_Energy-OPLS-2005>
-415.367034912109

> <r_mmod_Solvation_Energy-OPLS-2005>
-218.507110595703

> <b_mmod_Minimization_Converged-OPLS-2005>
0

> <r_mmod_RMS_Derivative-OPLS-2005>
0.912138521671295

$$$$
18
                    3D
 Structure written by MMmdl.
185194  0  0  1  0            999 V2000
  -30.6730  -14.6176   20.4878 C   0  0  0  0  0  0
  -30.4159  -12.3777   19.4575 C   0  0  0  0  0  0
  -29.4974  -12.4957   18.2232 C   0  0  0  0  0  0
  -28.0205  -12.3416   18.6364 C   0  0  0  0  0  0
  -27.6428  -13.2277   19.8547 C   0  0  2  0  0  0
  -28.6868  -13.1194   20.9866 C   0  0  0  0  0  0
  -25.2522  -13.8215   20.5713 C   0  0  0  0  0  0
  -24.1798  -13.0455   20.9211 C   0  0  0  0  0  0
  -24.6381  -11.6933   20.8751 C   0  0  0  0  0  0
  -23.9062  -10.4307   21.0409 C   0  0  0  0  0  0
  -24.3616   -9.4220   21.9183 C   0  0  0  0  0  0
  -23.6295   -8.2257   22.0742 C   0  0  0  0  0  0
  -22.4281   -8.0289   21.3538 C   0  0  0  0  0  0
  -21.9917   -9.0268   20.4637 C   0  0  0  0  0  0
  -22.7241  -10.2146   20.3055 C   0  0  0  0  0  0
  -21.6846   -6.0746   22.5284 C   0  0  0  0  0  0
  -21.4014   -6.5645   23.8224 C   0  0  0  0  0  0
  -21.3657   -5.6795   24.9184 C   0  0  0  0  0  0
  -21.6044   -4.3060   24.7228 C   0  0  0  0  0  0
  -21.8817   -3.8157   23.4344 C   0  0  0  0  0  0
  -21.9193   -4.6973   22.3407 C   0  0  0  0  0  0
  -22.7828  -13.5254   21.1871 C   0  0  0  0  0  0
  -22.1659   -4.2162   21.0980 F   0  0  0  0  0  0
  -21.5629   -3.4538   25.7732 F   0  0  0  0  0  0
  -29.9971  -13.4294   20.4058 N   0  0  0  0  0  0
  -26.2934  -12.9408   20.3310 N   0  0  0  0  0  0
  -25.9307  -11.6547   20.5763 N   0  0  0  0  0  0
  -22.0469  -12.8221   22.0426 N   0  0  0  0  0  0
  -25.4267  -15.1911   20.4110 N   0  0  0  0  0  0
  -31.8662  -14.6739   20.1733 O   0  0  0  0  0  0
  -21.6639   -6.8896   21.4246 O   0  0  0  0  0  0
  -22.3502  -14.5558   20.6731 O   0  0  0  0  0  0
  -24.6258  -31.8607   23.2013 C   0  0  0  0  0  0
  -25.9121  -32.4776   23.8365 C   0  0  1  0  0  0
  -27.2155  -27.3089   20.1531 C   0  0  0  0  0  0
  -25.5926  -33.8577   24.2290 N   0  0  0  0  0  0
  -23.4217  -30.4790   21.5434 C   0  0  2  0  0  0
  -24.8687  -28.9261   20.1167 C   0  0  0  0  0  0
  -22.7497  -29.4591   22.4934 C   0  0  0  0  0  0
  -18.0280  -28.1370   22.8490 C   0  0  0  0  0  0
  -24.1481  -36.7294   23.2638 C   0  0  0  0  0  0
  -25.9586  -30.7888   21.3729 C   0  0  0  0  0  0
  -26.0332  -29.4108   20.7266 C   0  0  0  0  0  0
  -27.2149  -28.6123   20.7336 C   0  0  0  0  0  0
  -26.0362  -26.8697   19.5176 C   0  0  0  0  0  0
  -24.8713  -27.6627   19.5000 C   0  0  0  0  0  0
  -23.6389  -29.8115   20.1585 C   0  0  0  0  0  0
  -25.4105  -36.3096   24.0330 C   0  0  1  0  0  0
  -20.5880  -28.3678   23.1271 C   0  0  2  0  0  0
  -20.6783  -26.9405   22.5399 C   0  0  0  0  0  0
  -19.5761  -26.6369   21.5201 C   0  0  0  0  0  0
  -18.1936  -26.7926   22.1608 C   0  0  0  0  0  0
  -19.1529  -28.8849   23.2883 C   0  0  0  0  0  0
  -18.9457  -30.1449   23.8902 C   0  0  0  0  0  0
  -17.6460  -30.6593   24.0543 C   0  0  0  0  0  0
  -25.9050  -34.9459   23.5113 C   0  0  0  0  0  0
  -16.5348  -29.9083   23.6320 C   0  0  0  0  0  0
  -16.7270  -28.6489   23.0359 C   0  0  0  0  0  0
  -26.4511  -31.6574   25.0730 C   0  0  0  0  0  0
  -25.3737  -31.3671   26.1442 C   0  0  0  0  0  0
  -27.0374  -30.3024   24.6150 C   0  0  0  0  0  0
  -27.6080  -32.4302   25.7491 C   0  0  0  0  0  0
  -27.5592  -37.1796   24.8463 C   0  0  0  0  0  0
  -21.4207  -29.3026   22.3684 N   0  0  0  0  0  0
  -26.4296  -37.3781   23.9406 N   0  0  0  0  0  0
  -24.6875  -31.0601   22.0972 N   0  0  0  0  0  0
  -23.4221  -28.8132   23.3020 O   0  0  0  0  0  0
  -28.3233  -26.4596   20.1709 O   0  0  0  0  0  0
  -26.5627  -34.8928   22.4688 O   0  0  0  0  0  0
  -23.5415  -32.1418   23.7314 O   0  0  0  0  0  0
  -26.2540  -21.3709   20.3758 C   0  0  0  0  0  0
  -26.5864  -19.1997   20.1474 C   0  0  0  0  0  0
  -25.6060  -20.1374   20.1310 C   0  0  0  0  0  0
  -27.6003  -21.1894   20.5705 C   0  0  0  0  0  0
  -29.2201  -17.9500   19.3160 C   0  0  0  0  0  0
  -28.7399  -17.7235   21.7252 C   0  0  0  0  0  0
  -30.2717  -16.8096   19.4828 C   0  0  0  0  0  0
  -29.7471  -16.5155   21.7913 C   0  0  0  0  0  0
  -28.9802  -18.7955   20.6013 C   0  0  0  0  0  0
  -23.7595  -19.3492   22.4277 C   0  0  0  0  0  0
  -23.8393  -19.4272   18.4970 C   0  0  0  0  0  0
  -31.9020  -21.0767   22.4090 C   0  0  0  0  0  0
  -30.1303  -22.2815   23.7341 C   0  0  0  0  0  0
  -23.5686  -18.9006   20.9697 C   0  0  0  0  0  0
  -28.2376  -23.7773   20.1235 C   0  0  0  0  0  0
  -29.9858  -22.1404   21.1496 C   0  0  0  0  0  0
  -28.2081  -25.1732   20.8987 C   0  0  0  0  0  0
  -24.1280  -19.8949   19.9304 C   0  0  1  0  0  0
  -28.4769  -22.4181   20.9639 C   0  0  2  0  0  0
  -30.4081  -21.4446   22.4709 C   0  0  0  0  0  0
  -27.8222  -19.7594   20.4562 N   0  0  0  0  0  0
  -29.9388  -15.7897   20.5142 N   0  0  0  0  0  0
  -31.4609  -12.4723   19.1570 H   0  0  0  0  0  0
  -30.3270  -11.3940   19.9200 H   0  0  0  0  0  0
  -29.7600  -11.7390   17.4828 H   0  0  0  0  0  0
  -29.6467  -13.4638   17.7425 H   0  0  0  0  0  0
  -27.8572  -11.2916   18.8789 H   0  0  0  0  0  0
  -27.3665  -12.5631   17.7921 H   0  0  0  0  0  0
  -27.6531  -14.2584   19.4983 H   0  0  0  0  0  0
  -28.6893  -12.1171   21.4164 H   0  0  0  0  0  0
  -28.4405  -13.8022   21.8006 H   0  0  0  0  0  0
  -25.2761   -9.5700   22.4760 H   0  0  0  0  0  0
  -24.0012   -7.4641   22.7458 H   0  0  0  0  0  0
  -21.0862   -8.8786   19.8933 H   0  0  0  0  0  0
  -22.3702  -10.9691   19.6168 H   0  0  0  0  0  0
  -21.2000   -7.6156   23.9730 H   0  0  0  0  0  0
  -21.1481   -6.0520   25.9086 H   0  0  0  0  0  0
  -22.0594   -2.7615   23.2835 H   0  0  0  0  0  0
  -22.4071  -11.9874   22.4805 H   0  0  0  0  0  0
  -21.1088  -13.1244   22.2631 H   0  0  0  0  0  0
  -24.6682  -15.8528   20.5239 H   0  0  0  0  0  0
  -26.2947  -15.6185   20.1170 H   0  0  0  0  0  0
  -26.7185  -32.5464   23.1116 H   0  0  0  0  0  0
  -25.0054  -33.9728   25.0425 H   0  0  0  0  0  0
  -22.7110  -31.2961   21.4005 H   0  0  0  0  0  0
  -23.3755  -35.9618   23.3291 H   0  0  0  0  0  0
  -24.3573  -36.8956   22.2062 H   0  0  0  0  0  0
  -23.7225  -37.6483   23.6675 H   0  0  0  0  0  0
  -26.0814  -31.5469   20.5980 H   0  0  0  0  0  0
  -26.8424  -30.8473   21.9970 H   0  0  0  0  0  0
  -28.1122  -28.9758   21.2161 H   0  0  0  0  0  0
  -26.0104  -25.8974   19.0455 H   0  0  0  0  0  0
  -23.9768  -27.2899   19.0178 H   0  0  0  0  0  0
  -23.7620  -30.5877   19.4009 H   0  0  0  0  0  0
  -22.7601  -29.2399   19.8569 H   0  0  0  0  0  0
  -25.1275  -36.1969   25.0821 H   0  0  0  0  0  0
  -20.9946  -28.3270   24.1399 H   0  0  0  0  0  0
  -20.5685  -26.2297   23.3608 H   0  0  0  0  0  0
  -21.6652  -26.7454   22.1198 H   0  0  0  0  0  0
  -19.6916  -25.6277   21.1259 H   0  0  0  0  0  0
  -19.6696  -27.3162   20.6718 H   0  0  0  0  0  0
  -17.4208  -26.6661   21.4014 H   0  0  0  0  0  0
  -18.0327  -26.0057   22.8988 H   0  0  0  0  0  0
  -19.7928  -30.7250   24.2281 H   0  0  0  0  0  0
  -17.5015  -31.6267   24.5159 H   0  0  0  0  0  0
  -15.5347  -30.2988   23.7644 H   0  0  0  0  0  0
  -15.8663  -28.0814   22.7063 H   0  0  0  0  0  0
  -24.5935  -30.7009   25.7730 H   0  0  0  0  0  0
  -24.8878  -32.2812   26.4860 H   0  0  0  0  0  0
  -25.8071  -30.8849   27.0213 H   0  0  0  0  0  0
  -26.2951  -29.6733   24.1233 H   0  0  0  0  0  0
  -27.4176  -29.7314   25.4625 H   0  0  0  0  0  0
  -27.8763  -30.4337   23.9312 H   0  0  0  0  0  0
  -27.2725  -33.3623   26.2035 H   0  0  0  0  0  0
  -28.3894  -32.6838   25.0311 H   0  0  0  0  0  0
  -28.0734  -31.8446   26.5426 H   0  0  0  0  0  0
  -28.2576  -38.0130   24.7570 H   0  0  0  0  0  0
  -28.1134  -36.2672   24.6219 H   0  0  0  0  0  0
  -27.2320  -37.1343   25.8869 H   0  0  0  0  0  0
  -20.9396  -29.8781   21.6919 H   0  0  0  0  0  0
  -26.0197  -38.2856   24.1441 H   0  0  0  0  0  0
  -25.7460  -22.3233   20.4532 H   0  0  0  0  0  0
  -26.4794  -18.1335   20.0025 H   0  0  0  0  0  0
  -28.2957  -17.4845   18.9750 H   0  0  0  0  0  0
  -29.5298  -18.6137   18.5076 H   0  0  0  0  0  0
  -28.7176  -18.2241   22.6930 H   0  0  0  0  0  0
  -27.7494  -17.2852   21.6089 H   0  0  0  0  0  0
  -31.2430  -17.2522   19.7159 H   0  0  0  0  0  0
  -30.3939  -16.3157   18.5162 H   0  0  0  0  0  0
  -29.4006  -15.8140   22.5516 H   0  0  0  0  0  0
  -30.7202  -16.8678   22.1381 H   0  0  0  0  0  0
  -29.8932  -19.3460   20.8049 H   0  0  0  0  0  0
  -23.3275  -18.6246   23.1183 H   0  0  0  0  0  0
  -23.2784  -20.3102   22.6112 H   0  0  0  0  0  0
  -24.8158  -19.4483   22.6822 H   0  0  0  0  0  0
  -24.2153  -20.1455   17.7678 H   0  0  0  0  0  0
  -22.7677  -19.3220   18.3280 H   0  0  0  0  0  0
  -24.3046  -18.4632   18.2887 H   0  0  0  0  0  0
  -32.2155  -20.5175   23.2915 H   0  0  0  0  0  0
  -32.5273  -21.9687   22.3536 H   0  0  0  0  0  0
  -32.1269  -20.4594   21.5382 H   0  0  0  0  0  0
  -30.5387  -21.7892   24.6189 H   0  0  0  0  0  0
  -29.0611  -22.4017   23.9102 H   0  0  0  0  0  0
  -30.5805  -23.2727   23.6746 H   0  0  0  0  0  0
  -22.5055  -18.7456   20.7836 H   0  0  0  0  0  0
  -24.0399  -17.9262   20.8345 H   0  0  0  0  0  0
  -28.9903  -23.8290   19.3362 H   0  0  0  0  0  0
  -27.2893  -23.7133   19.5920 H   0  0  0  0  0  0
  -30.5224  -23.0873   21.1124 H   0  0  0  0  0  0
  -30.3414  -21.5774   20.2856 H   0  0  0  0  0  0
  -29.0506  -25.1631   21.5909 H   0  0  0  0  0  0
  -27.3276  -25.1947   21.5446 H   0  0  0  0  0  0
  -23.6211  -20.8499   20.0757 H   0  0  0  0  0  0
  -28.0989  -22.6888   21.9481 H   0  0  0  0  0  0
  -29.8423  -20.5234   22.5889 H   0  0  0  0  0  0
  1 25  1  0  0  0
  1 30  2  0  0  0
  1 92  1  0  0  0
  2  3  1  0  0  0
  2 25  1  0  0  0
  2 93  1  0  0  0
  2 94  1  0  0  0
  3  4  1  0  0  0
  3 95  1  0  0  0
  3 96  1  0  0  0
  4  5  1  0  0  0
  4 97  1  0  0  0
  4 98  1  0  0  0
  5  6  1  0  0  0
  5 26  1  0  0  0
  5 99  1  0  0  0
  6 25  1  0  0  0
  6100  1  0  0  0
  6101  1  0  0  0
  7  8  2  0  0  0
  7 26  1  0  0  0
  7 29  1  0  0  0
  8  9  1  0  0  0
  8 22  1  0  0  0
  9 10  1  0  0  0
  9 27  2  0  0  0
 10 11  2  0  0  0
 10 15  1  0  0  0
 11 12  1  0  0  0
 11102  1  0  0  0
 12 13  2  0  0  0
 12103  1  0  0  0
 13 14  1  0  0  0
 13 31  1  0  0  0
 14 15  2  0  0  0
 14104  1  0  0  0
 15105  1  0  0  0
 16 17  2  0  0  0
 16 21  1  0  0  0
 16 31  1  0  0  0
 17 18  1  0  0  0
 17106  1  0  0  0
 18 19  2  0  0  0
 18107  1  0  0  0
 19 20  1  0  0  0
 19 24  1  0  0  0
 20 21  2  0  0  0
 20108  1  0  0  0
 21 23  1  0  0  0
 22 28  1  0  0  0
 22 32  2  0  0  0
 26 27  1  0  0  0
 28109  1  0  0  0
 28110  1  0  0  0
 29111  1  0  0  0
 29112  1  0  0  0
 33 34  1  0  0  0
 33 66  1  0  0  0
 33 70  2  0  0  0
 34 36  1  0  0  0
 34 59  1  0  0  0
 34113  1  0  0  0
 35 44  2  0  0  0
 35 45  1  0  0  0
 35 68  1  0  0  0
 36 56  1  0  0  0
 36114  1  0  0  0
 37 39  1  0  0  0
 37 47  1  0  0  0
 37 66  1  0  0  0
 37115  1  0  0  0
 38 43  2  0  0  0
 38 46  1  0  0  0
 38 47  1  0  0  0
 39 64  1  0  0  0
 39 67  2  0  0  0
 40 52  1  0  0  0
 40 53  2  0  0  0
 40 58  1  0  0  0
 41116  1  0  0  0
 41117  1  0  0  0
 41118  1  0  0  0
 41 48  1  0  0  0
 42 43  1  0  0  0
 42 66  1  0  0  0
 42119  1  0  0  0
 42120  1  0  0  0
 43 44  1  0  0  0
 44121  1  0  0  0
 45 46  2  0  0  0
 45122  1  0  0  0
 46123  1  0  0  0
 47124  1  0  0  0
 47125  1  0  0  0
 48 56  1  0  0  0
 48 65  1  0  0  0
 48126  1  0  0  0
 49 50  1  0  0  0
 49 53  1  0  0  0
 49 64  1  0  0  0
 49127  1  0  0  0
 50 51  1  0  0  0
 50128  1  0  0  0
 50129  1  0  0  0
 51 52  1  0  0  0
 51130  1  0  0  0
 51131  1  0  0  0
 52132  1  0  0  0
 52133  1  0  0  0
 53 54  1  0  0  0
 54 55  2  0  0  0
 54134  1  0  0  0
 55 57  1  0  0  0
 55135  1  0  0  0
 56 69  2  0  0  0
 57 58  2  0  0  0
 57136  1  0  0  0
 58137  1  0  0  0
 59 60  1  0  0  0
 59 61  1  0  0  0
 59 62  1  0  0  0
 60138  1  0  0  0
 60139  1  0  0  0
 60140  1  0  0  0
 61141  1  0  0  0
 61142  1  0  0  0
 61143  1  0  0  0
 62144  1  0  0  0
 62145  1  0  0  0
 62146  1  0  0  0
 63 65  1  0  0  0
 63147  1  0  0  0
 63148  1  0  0  0
 63149  1  0  0  0
 64150  1  0  0  0
 65151  1  0  0  0
 68 87  1  0  0  0
 71 73  1  0  0  0
 71 74  2  0  0  0
 71152  1  0  0  0
 72 73  2  0  0  0
 72 91  1  0  0  0
 72153  1  0  0  0
 73 88  1  0  0  0
 74 89  1  0  0  0
 74 91  1  0  0  0
 75 77  1  0  0  0
 75 79  1  0  0  0
 75154  1  0  0  0
 75155  1  0  0  0
 76 78  1  0  0  0
 76 79  1  0  0  0
 76156  1  0  0  0
 76157  1  0  0  0
 77 92  1  0  0  0
 77158  1  0  0  0
 77159  1  0  0  0
 78 92  1  0  0  0
 78160  1  0  0  0
 78161  1  0  0  0
 79 91  1  0  0  0
 79162  1  0  0  0
 80 84  1  0  0  0
 80163  1  0  0  0
 80164  1  0  0  0
 80165  1  0  0  0
 81166  1  0  0  0
 81167  1  0  0  0
 81168  1  0  0  0
 81 88  1  0  0  0
 82169  1  0  0  0
 82170  1  0  0  0
 82171  1  0  0  0
 82 90  1  0  0  0
 83 90  1  0  0  0
 83172  1  0  0  0
 83173  1  0  0  0
 83174  1  0  0  0
 84 88  1  0  0  0
 84175  1  0  0  0
 84176  1  0  0  0
 85 87  1  0  0  0
 85177  1  0  0  0
 85178  1  0  0  0
 85 89  1  0  0  0
 86 89  1  0  0  0
 86 90  1  0  0  0
 86179  1  0  0  0
 86180  1  0  0  0
 87181  1  0  0  0
 87182  1  0  0  0
 88183  1  0  0  0
 89184  1  0  0  0
 90185  1  0  0  0
M  ISO  4   1 100  68 101  87 101  92 100
M  END
> <chiral flag>
0

> <version>
0

> <s_m_source_file>
/data/baiqing/PycharmProjects/Reinvent-master-3.2/result/LINK_invent/BTK/process_docking_weight1_custom_sum_contain_oxygen_bond_distance_aromatic_linkinvent_7_9_3/rearranged_h_0107.sdf

> <i_m_source_file_index>
19

> <r_mmod_Potential_Energy-OPLS-2005>
380.915557861328

> <r_mmod_Stretch_Energy-OPLS-2005>
95.028076171875

> <r_mmod_Bend_Energy-OPLS-2005>
201.444732666016

> <r_mmod_Torsional_Energy-OPLS-2005>
392.186248779297

> <r_mmod_Improper_Torsional_Energy-OPLS-2005>
16.584321975708

> <r_mmod_Van_der_Waal_Energy-OPLS-2005>
107.702407836914

> <r_mmod_Electrostatic_Energy-OPLS-2005>
-311.029235839844

> <r_mmod_Solvation_Energy-OPLS-2005>
-171.918838500977

> <b_mmod_Minimization_Converged-OPLS-2005>
0

> <r_mmod_RMS_Derivative-OPLS-2005>
3.11284351348877

$$$$
19
                    3D
 Structure written by MMmdl.
171179  0  0  1  0            999 V2000
  -30.5742  -14.8637   20.4374 C   0  0  0  0  0  0
  -30.4386  -12.5300   19.4944 C   0  0  0  0  0  0
  -29.5218  -12.5235   18.2498 C   0  0  0  0  0  0
  -28.0482  -12.3321   18.6578 C   0  0  0  0  0  0
  -27.6364  -13.2436   19.8450 C   0  0  2  0  0  0
  -28.6804  -13.2266   20.9829 C   0  0  0  0  0  0
  -25.2483  -13.8212   20.5694 C   0  0  0  0  0  0
  -24.1788  -13.0440   20.9204 C   0  0  0  0  0  0
  -24.6393  -11.6921   20.8733 C   0  0  0  0  0  0
  -23.9073  -10.4295   21.0386 C   0  0  0  0  0  0
  -24.3620   -9.4211   21.9166 C   0  0  0  0  0  0
  -23.6291   -8.2250   22.0743 C   0  0  0  0  0  0
  -22.4277   -8.0276   21.3532 C   0  0  0  0  0  0
  -21.9911   -9.0251   20.4640 C   0  0  0  0  0  0
  -22.7237  -10.2132   20.3042 C   0  0  0  0  0  0
  -21.6864   -6.0723   22.5273 C   0  0  0  0  0  0
  -21.4022   -6.5633   23.8200 C   0  0  0  0  0  0
  -21.3660   -5.6788   24.9164 C   0  0  0  0  0  0
  -21.6049   -4.3049   24.7221 C   0  0  0  0  0  0
  -21.8820   -3.8137   23.4342 C   0  0  0  0  0  0
  -21.9196   -4.6951   22.3396 C   0  0  0  0  0  0
  -22.7807  -13.5209   21.1859 C   0  0  0  0  0  0
  -22.1666   -4.2136   21.0971 F   0  0  0  0  0  0
  -21.5625   -3.4530   25.7735 F   0  0  0  0  0  0
  -29.9692  -13.6154   20.3967 N   0  0  0  0  0  0
  -26.2914  -12.9439   20.3246 N   0  0  0  0  0  0
  -25.9327  -11.6572   20.5718 N   0  0  0  0  0  0
  -22.0463  -12.8201   22.0423 N   0  0  0  0  0  0
  -25.4150  -15.1939   20.4126 N   0  0  0  0  0  0
  -31.7656  -14.9464   20.1248 O   0  0  0  0  0  0
  -21.6640   -6.8868   21.4236 O   0  0  0  0  0  0
  -22.3486  -14.5508   20.6696 O   0  0  0  0  0  0
  -24.6391  -31.8489   23.1934 C   0  0  0  0  0  0
  -25.9179  -32.4725   23.8302 C   0  0  1  0  0  0
  -27.2077  -27.1762   20.1437 C   0  0  0  0  0  0
  -25.5944  -33.8531   24.2222 N   0  0  0  0  0  0
  -23.4412  -30.4703   21.5384 C   0  0  2  0  0  0
  -24.8922  -28.9139   20.1042 C   0  0  0  0  0  0
  -22.7559  -29.4558   22.4879 C   0  0  0  0  0  0
  -18.0309  -28.1394   22.8482 C   0  0  0  0  0  0
  -24.1487  -36.7267   23.2641 C   0  0  0  0  0  0
  -25.9960  -30.7342   21.3912 C   0  0  0  0  0  0
  -26.0681  -29.3519   20.7281 C   0  0  0  0  0  0
  -27.2301  -28.4969   20.7376 C   0  0  0  0  0  0
  -26.0238  -26.8571   19.4411 C   0  0  0  0  0  0
  -24.8808  -27.6781   19.4453 C   0  0  0  0  0  0
  -23.6657  -29.8081   20.1545 C   0  0  0  0  0  0
  -25.4120  -36.3053   24.0324 C   0  0  1  0  0  0
  -20.5918  -28.3710   23.1248 C   0  0  2  0  0  0
  -20.6799  -26.9418   22.5404 C   0  0  0  0  0  0
  -19.5770  -26.6379   21.5218 C   0  0  0  0  0  0
  -18.1950  -26.7931   22.1627 C   0  0  0  0  0  0
  -19.1564  -28.8872   23.2856 C   0  0  0  0  0  0
  -18.9481  -30.1472   23.8875 C   0  0  0  0  0  0
  -17.6478  -30.6591   24.0562 C   0  0  0  0  0  0
  -25.9067  -34.9421   23.5078 C   0  0  0  0  0  0
  -16.5371  -29.9085   23.6336 C   0  0  0  0  0  0
  -16.7293  -28.6504   23.0357 C   0  0  0  0  0  0
  -26.4509  -31.6577   25.0725 C   0  0  0  0  0  0
  -25.3698  -31.3772   26.1426 C   0  0  0  0  0  0
  -27.0373  -30.2973   24.6291 C   0  0  0  0  0  0
  -27.6042  -32.4335   25.7509 C   0  0  0  0  0  0
  -27.5576  -37.1794   24.8469 C   0  0  0  0  0  0
  -21.4253  -29.3042   22.3629 N   0  0  0  0  0  0
  -26.4292  -37.3756   23.9401 N   0  0  0  0  0  0
  -24.7119  -31.0376   22.0964 N   0  0  0  0  0  0
  -23.4220  -28.8109   23.3014 O   0  0  0  0  0  0
  -28.2117  -26.1556   20.2538 O   0  0  0  0  0  0
  -26.5644  -34.8911   22.4651 O   0  0  0  0  0  0
  -23.5521  -32.1357   23.7172 O   0  0  0  0  0  0
  -28.1674  -22.4070   19.3644 C   0  0  0  0  0  0
  -29.4856  -21.3217   21.4646 C   0  0  0  0  0  0
  -29.0854  -20.3527   20.4877 C   0  0  0  0  0  0
  -28.4596  -20.9863   19.3682 C   0  0  0  0  0  0
  -28.5223  -23.2912   20.4277 C   0  0  0  0  0  0
  -25.9742  -25.5013   22.4851 C   0  0  0  0  0  0
  -30.6426  -22.7176   15.4132 C   0  0  0  0  0  0
  -28.1848  -23.2538   15.2652 C   0  0  0  0  0  0
  -29.0321  -18.7320   20.7563 C   0  0  0  0  0  0
  -27.3015  -24.7840   22.1689 C   0  0  0  0  0  0
  -28.9568  -21.0069   16.2220 C   0  0  0  0  0  0
  -30.1238  -17.5437   20.3761 C   0  0  0  0  0  0
  -27.7158  -20.6483   17.0730 C   0  0  0  0  0  0
  -27.7617  -24.7339   20.6811 C   0  0  1  0  0  0
  -29.2682  -22.5130   16.0688 C   0  0  0  0  0  0
  -29.2447  -22.6899   21.4318 N   0  0  0  0  0  0
  -29.8013  -16.0278   20.6141 N   0  0  0  0  0  0
  -28.0637  -20.1354   18.3585 O   0  0  0  0  0  0
  -31.4777  -12.6671   19.1929 H   0  0  0  0  0  0
  -30.4044  -11.5663   20.0059 H   0  0  0  0  0  0
  -29.8264  -11.7365   17.5594 H   0  0  0  0  0  0
  -29.6327  -13.4651   17.7096 H   0  0  0  0  0  0
  -27.9173  -11.2856   18.9342 H   0  0  0  0  0  0
  -27.3937  -12.5038   17.8023 H   0  0  0  0  0  0
  -27.6147  -14.2565   19.4426 H   0  0  0  0  0  0
  -28.7431  -12.2392   21.4430 H   0  0  0  0  0  0
  -28.3956  -13.9173   21.7775 H   0  0  0  0  0  0
  -25.2766   -9.5696   22.4730 H   0  0  0  0  0  0
  -24.0007   -7.4645   22.7464 H   0  0  0  0  0  0
  -21.0834   -8.8762   19.8950 H   0  0  0  0  0  0
  -22.3683  -10.9659   19.6142 H   0  0  0  0  0  0
  -21.2025   -7.6144   23.9706 H   0  0  0  0  0  0
  -21.1480   -6.0510   25.9064 H   0  0  0  0  0  0
  -22.0603   -2.7599   23.2841 H   0  0  0  0  0  0
  -22.4102  -11.9892   22.4849 H   0  0  0  0  0  0
  -21.1067  -13.1193   22.2601 H   0  0  0  0  0  0
  -24.6424  -15.8419   20.5212 H   0  0  0  0  0  0
  -26.2507  -15.6335   20.0501 H   0  0  0  0  0  0
  -26.7247  -32.5347   23.1042 H   0  0  0  0  0  0
  -25.0078  -33.9656   25.0360 H   0  0  0  0  0  0
  -22.7410  -31.2954   21.3901 H   0  0  0  0  0  0
  -23.3752  -35.9597   23.3315 H   0  0  0  0  0  0
  -24.3569  -36.8880   22.2051 H   0  0  0  0  0  0
  -23.7245  -37.6470   23.6669 H   0  0  0  0  0  0
  -26.1505  -31.4930   20.6224 H   0  0  0  0  0  0
  -26.8673  -30.7800   22.0335 H   0  0  0  0  0  0
  -28.1173  -28.8151   21.2663 H   0  0  0  0  0  0
  -25.9431  -25.9268   18.8991 H   0  0  0  0  0  0
  -23.9888  -27.3453   18.9312 H   0  0  0  0  0  0
  -23.7970  -30.5868   19.4026 H   0  0  0  0  0  0
  -22.7819  -29.2476   19.8438 H   0  0  0  0  0  0
  -25.1308  -36.1891   25.0819 H   0  0  0  0  0  0
  -21.0016  -28.3300   24.1370 H   0  0  0  0  0  0
  -20.5703  -26.2326   23.3620 H   0  0  0  0  0  0
  -21.6667  -26.7436   22.1202 H   0  0  0  0  0  0
  -19.6927  -25.6285   21.1262 H   0  0  0  0  0  0
  -19.6706  -27.3179   20.6742 H   0  0  0  0  0  0
  -17.4220  -26.6683   21.4030 H   0  0  0  0  0  0
  -18.0347  -26.0080   22.9027 H   0  0  0  0  0  0
  -19.7958  -30.7298   24.2232 H   0  0  0  0  0  0
  -17.5032  -31.6267   24.5166 H   0  0  0  0  0  0
  -15.5367  -30.2981   23.7672 H   0  0  0  0  0  0
  -15.8696  -28.0816   22.7082 H   0  0  0  0  0  0
  -24.5878  -30.7119   25.7752 H   0  0  0  0  0  0
  -24.8887  -32.2960   26.4785 H   0  0  0  0  0  0
  -25.7976  -30.8987   27.0244 H   0  0  0  0  0  0
  -26.2997  -29.6703   24.1273 H   0  0  0  0  0  0
  -27.3969  -29.7261   25.4858 H   0  0  0  0  0  0
  -27.8909  -30.4217   23.9627 H   0  0  0  0  0  0
  -27.2636  -33.3651   26.2044 H   0  0  0  0  0  0
  -28.3876  -32.6871   25.0354 H   0  0  0  0  0  0
  -28.0690  -31.8489   26.5460 H   0  0  0  0  0  0
  -28.2603  -38.0079   24.7491 H   0  0  0  0  0  0
  -28.1059  -36.2605   24.6330 H   0  0  0  0  0  0
  -27.2288  -37.1488   25.8872 H   0  0  0  0  0  0
  -20.9462  -29.8751   21.6804 H   0  0  0  0  0  0
  -26.0165  -38.2831   24.1387 H   0  0  0  0  0  0
  -27.5660  -22.8351   18.5772 H   0  0  0  0  0  0
  -29.9422  -20.9732   22.3796 H   0  0  0  0  0  0
  -25.6494  -25.2669   23.4990 H   0  0  0  0  0  0
  -25.1780  -25.1901   21.8081 H   0  0  0  0  0  0
  -26.0625  -26.5851   22.4349 H   0  0  0  0  0  0
  -30.8806  -23.7776   15.3196 H   0  0  0  0  0  0
  -30.6823  -22.2810   14.4146 H   0  0  0  0  0  0
  -31.4351  -22.2589   16.0060 H   0  0  0  0  0  0
  -28.4370  -24.3079   15.1445 H   0  0  0  0  0  0
  -27.2123  -23.2175   15.7561 H   0  0  0  0  0  0
  -28.0668  -22.8277   14.2684 H   0  0  0  0  0  0
  -28.0891  -18.4153   20.3100 H   0  0  0  0  0  0
  -28.8472  -18.6397   21.8274 H   0  0  0  0  0  0
  -27.1414  -23.7607   22.5100 H   0  0  0  0  0  0
  -28.1085  -25.1740   22.7892 H   0  0  0  0  0  0
  -28.8270  -20.5845   15.2246 H   0  0  0  0  0  0
  -29.8230  -20.4878   16.6359 H   0  0  0  0  0  0
  -31.0574  -17.7583   20.8978 H   0  0  0  0  0  0
  -30.3589  -17.6398   19.3162 H   0  0  0  0  0  0
  -27.2041  -19.8257   16.5734 H   0  0  0  0  0  0
  -26.9707  -21.4392   17.1146 H   0  0  0  0  0  0
  -26.8522  -24.5271   20.1250 H   0  0  0  0  0  0
  -29.3259  -22.9667   17.0565 H   0  0  0  0  0  0
  -28.8402  -15.8371   20.8565 H   0  0  0  0  0  0
  1 25  1  0  0  0
  1 30  2  0  0  0
  1 87  1  0  0  0
  2  3  1  0  0  0
  2 25  1  0  0  0
  2 89  1  0  0  0
  2 90  1  0  0  0
  3  4  1  0  0  0
  3 91  1  0  0  0
  3 92  1  0  0  0
  4  5  1  0  0  0
  4 93  1  0  0  0
  4 94  1  0  0  0
  5  6  1  0  0  0
  5 26  1  0  0  0
  5 95  1  0  0  0
  6 25  1  0  0  0
  6 96  1  0  0  0
  6 97  1  0  0  0
  7  8  2  0  0  0
  7 26  1  0  0  0
  7 29  1  0  0  0
  8  9  1  0  0  0
  8 22  1  0  0  0
  9 10  1  0  0  0
  9 27  2  0  0  0
 10 11  2  0  0  0
 10 15  1  0  0  0
 11 12  1  0  0  0
 11 98  1  0  0  0
 12 13  2  0  0  0
 12 99  1  0  0  0
 13 14  1  0  0  0
 13 31  1  0  0  0
 14 15  2  0  0  0
 14100  1  0  0  0
 15101  1  0  0  0
 16 17  2  0  0  0
 16 21  1  0  0  0
 16 31  1  0  0  0
 17 18  1  0  0  0
 17102  1  0  0  0
 18 19  2  0  0  0
 18103  1  0  0  0
 19 20  1  0  0  0
 19 24  1  0  0  0
 20 21  2  0  0  0
 20104  1  0  0  0
 21 23  1  0  0  0
 22 28  1  0  0  0
 22 32  2  0  0  0
 26 27  1  0  0  0
 28105  1  0  0  0
 28106  1  0  0  0
 29107  1  0  0  0
 29108  1  0  0  0
 33 34  1  0  0  0
 33 66  1  0  0  0
 33 70  2  0  0  0
 34 36  1  0  0  0
 34 59  1  0  0  0
 34109  1  0  0  0
 35 44  2  0  0  0
 35 45  1  0  0  0
 35 68  1  0  0  0
 36 56  1  0  0  0
 36110  1  0  0  0
 37 39  1  0  0  0
 37 47  1  0  0  0
 37 66  1  0  0  0
 37111  1  0  0  0
 38 43  2  0  0  0
 38 46  1  0  0  0
 38 47  1  0  0  0
 39 64  1  0  0  0
 39 67  2  0  0  0
 40 52  1  0  0  0
 40 53  2  0  0  0
 40 58  1  0  0  0
 41112  1  0  0  0
 41113  1  0  0  0
 41114  1  0  0  0
 41 48  1  0  0  0
 42 43  1  0  0  0
 42 66  1  0  0  0
 42115  1  0  0  0
 42116  1  0  0  0
 43 44  1  0  0  0
 44117  1  0  0  0
 45 46  2  0  0  0
 45118  1  0  0  0
 46119  1  0  0  0
 47120  1  0  0  0
 47121  1  0  0  0
 48 56  1  0  0  0
 48 65  1  0  0  0
 48122  1  0  0  0
 49 50  1  0  0  0
 49 53  1  0  0  0
 49 64  1  0  0  0
 49123  1  0  0  0
 50 51  1  0  0  0
 50124  1  0  0  0
 50125  1  0  0  0
 51 52  1  0  0  0
 51126  1  0  0  0
 51127  1  0  0  0
 52128  1  0  0  0
 52129  1  0  0  0
 53 54  1  0  0  0
 54 55  2  0  0  0
 54130  1  0  0  0
 55 57  1  0  0  0
 55131  1  0  0  0
 56 69  2  0  0  0
 57 58  2  0  0  0
 57132  1  0  0  0
 58133  1  0  0  0
 59 60  1  0  0  0
 59 61  1  0  0  0
 59 62  1  0  0  0
 60134  1  0  0  0
 60135  1  0  0  0
 60136  1  0  0  0
 61137  1  0  0  0
 61138  1  0  0  0
 61139  1  0  0  0
 62140  1  0  0  0
 62141  1  0  0  0
 62142  1  0  0  0
 63 65  1  0  0  0
 63143  1  0  0  0
 63144  1  0  0  0
 63145  1  0  0  0
 64146  1  0  0  0
 65147  1  0  0  0
 68 84  1  0  0  0
 71 74  2  0  0  0
 71 75  1  0  0  0
 71148  1  0  0  0
 72 73  2  0  0  0
 72 86  1  0  0  0
 72149  1  0  0  0
 73 74  1  0  0  0
 73 79  1  0  0  0
 74 88  1  0  0  0
 75 84  1  0  0  0
 75 86  2  0  0  0
 76 80  1  0  0  0
 76150  1  0  0  0
 76151  1  0  0  0
 76152  1  0  0  0
 77153  1  0  0  0
 77154  1  0  0  0
 77155  1  0  0  0
 77 85  1  0  0  0
 78 85  1  0  0  0
 78156  1  0  0  0
 78157  1  0  0  0
 78158  1  0  0  0
 79 82  1  0  0  0
 79159  1  0  0  0
 79160  1  0  0  0
 80161  1  0  0  0
 80162  1  0  0  0
 80 84  1  0  0  0
 81 83  1  0  0  0
 81 85  1  0  0  0
 81163  1  0  0  0
 81164  1  0  0  0
 82 87  1  0  0  0
 82165  1  0  0  0
 82166  1  0  0  0
 83 88  1  0  0  0
 83167  1  0  0  0
 83168  1  0  0  0
 84169  1  0  0  0
 85170  1  0  0  0
 87171  1  0  0  0
M  ISO  4   1 100  68 101  84 101  87 100
M  END
> <chiral flag>
0

> <version>
0

> <s_m_source_file>
/data/baiqing/PycharmProjects/Reinvent-master-3.2/result/LINK_invent/BTK/process_docking_weight1_custom_sum_contain_oxygen_bond_distance_aromatic_linkinvent_7_9_3/rearranged_h_0107.sdf

> <i_m_source_file_index>
20

> <r_mmod_Potential_Energy-OPLS-2005>
265.757659912109

> <r_mmod_Stretch_Energy-OPLS-2005>
202.366836547852

> <r_mmod_Bend_Energy-OPLS-2005>
252.871566772461

> <r_mmod_Torsional_Energy-OPLS-2005>
261.561309814453

> <r_mmod_Improper_Torsional_Energy-OPLS-2005>
10.7295637130737

> <r_mmod_Van_der_Waal_Energy-OPLS-2005>
140.11799621582

> <r_mmod_Electrostatic_Energy-OPLS-2005>
-539.307800292969

> <r_mmod_Solvation_Energy-OPLS-2005>
-219.421905517578

> <b_mmod_Minimization_Converged-OPLS-2005>
0

> <r_mmod_RMS_Derivative-OPLS-2005>
1.55291545391083

$$$$
20
                    3D
 Structure written by MMmdl.
166174  0  0  1  0            999 V2000
  -30.5632  -14.7750   20.4617 C   0  0  0  0  0  0
  -30.4462  -12.4784   19.4611 C   0  0  0  0  0  0
  -29.5096  -12.5072   18.2315 C   0  0  0  0  0  0
  -28.0380  -12.3223   18.6525 C   0  0  0  0  0  0
  -27.6416  -13.2245   19.8493 C   0  0  2  0  0  0
  -28.6897  -13.1497   20.9800 C   0  0  0  0  0  0
  -25.2529  -13.8180   20.5711 C   0  0  0  0  0  0
  -24.1819  -13.0443   20.9220 C   0  0  0  0  0  0
  -24.6400  -11.6905   20.8756 C   0  0  0  0  0  0
  -23.9082  -10.4294   21.0430 C   0  0  0  0  0  0
  -24.3628   -9.4204   21.9205 C   0  0  0  0  0  0
  -23.6293   -8.2241   22.0766 C   0  0  0  0  0  0
  -22.4274   -8.0290   21.3553 C   0  0  0  0  0  0
  -21.9927   -9.0270   20.4653 C   0  0  0  0  0  0
  -22.7267  -10.2141   20.3073 C   0  0  0  0  0  0
  -21.6851   -6.0746   22.5279 C   0  0  0  0  0  0
  -21.4011   -6.5654   23.8221 C   0  0  0  0  0  0
  -21.3652   -5.6804   24.9177 C   0  0  0  0  0  0
  -21.6046   -4.3059   24.7232 C   0  0  0  0  0  0
  -21.8815   -3.8155   23.4345 C   0  0  0  0  0  0
  -21.9197   -4.6970   22.3403 C   0  0  0  0  0  0
  -22.7845  -13.5224   21.1858 C   0  0  0  0  0  0
  -22.1665   -4.2159   21.0971 F   0  0  0  0  0  0
  -21.5627   -3.4535   25.7739 F   0  0  0  0  0  0
  -29.9823  -13.5271   20.3940 N   0  0  0  0  0  0
  -26.2939  -12.9368   20.3295 N   0  0  0  0  0  0
  -25.9326  -11.6511   20.5778 N   0  0  0  0  0  0
  -22.0486  -12.8216   22.0397 N   0  0  0  0  0  0
  -25.4237  -15.1902   20.4097 N   0  0  0  0  0  0
  -31.7590  -14.9199   20.1897 O   0  0  0  0  0  0
  -21.6632   -6.8881   21.4238 O   0  0  0  0  0  0
  -22.3544  -14.5547   20.6711 O   0  0  0  0  0  0
  -24.6326  -31.8513   23.1968 C   0  0  0  0  0  0
  -25.9148  -32.4734   23.8295 C   0  0  1  0  0  0
  -27.2196  -27.2387   20.1186 C   0  0  0  0  0  0
  -25.5910  -33.8538   24.2204 N   0  0  0  0  0  0
  -23.4278  -30.4716   21.5448 C   0  0  2  0  0  0
  -24.8722  -28.9139   20.1143 C   0  0  0  0  0  0
  -22.7523  -29.4565   22.4950 C   0  0  0  0  0  0
  -18.0282  -28.1378   22.8470 C   0  0  0  0  0  0
  -24.1494  -36.7304   23.2637 C   0  0  0  0  0  0
  -25.9733  -30.7563   21.3800 C   0  0  0  0  0  0
  -26.0472  -29.3788   20.7178 C   0  0  0  0  0  0
  -27.2206  -28.5548   20.7039 C   0  0  0  0  0  0
  -26.0101  -26.8404   19.5042 C   0  0  0  0  0  0
  -24.8603  -27.6546   19.4979 C   0  0  0  0  0  0
  -23.6444  -29.8021   20.1624 C   0  0  0  0  0  0
  -25.4116  -36.3046   24.0297 C   0  0  1  0  0  0
  -20.5880  -28.3697   23.1267 C   0  0  2  0  0  0
  -20.6788  -26.9401   22.5408 C   0  0  0  0  0  0
  -19.5744  -26.6375   21.5225 C   0  0  0  0  0  0
  -18.1928  -26.7912   22.1634 C   0  0  0  0  0  0
  -19.1541  -28.8849   23.2857 C   0  0  0  0  0  0
  -18.9476  -30.1461   23.8860 C   0  0  0  0  0  0
  -17.6474  -30.6579   24.0546 C   0  0  0  0  0  0
  -25.9048  -34.9425   23.5060 C   0  0  0  0  0  0
  -16.5363  -29.9062   23.6344 C   0  0  0  0  0  0
  -16.7269  -28.6501   23.0328 C   0  0  0  0  0  0
  -26.4489  -31.6577   25.0729 C   0  0  0  0  0  0
  -25.3686  -31.3731   26.1435 C   0  0  0  0  0  0
  -27.0379  -30.2985   24.6269 C   0  0  0  0  0  0
  -27.5989  -32.4379   25.7545 C   0  0  0  0  0  0
  -27.5571  -37.1788   24.8436 C   0  0  0  0  0  0
  -21.4229  -29.3045   22.3690 N   0  0  0  0  0  0
  -26.4279  -37.3742   23.9394 N   0  0  0  0  0  0
  -24.6973  -31.0431   22.0972 N   0  0  0  0  0  0
  -23.4209  -28.8094   23.3054 O   0  0  0  0  0  0
  -28.3450  -26.3727   20.1816 O   0  0  0  0  0  0
  -26.5653  -34.8908   22.4645 O   0  0  0  0  0  0
  -23.5481  -32.1337   23.7278 O   0  0  0  0  0  0
  -27.6316  -21.5426   19.3853 C   0  0  0  0  0  0
  -28.6130  -22.1545   20.2176 C   0  0  0  0  0  0
  -27.8890  -20.2012   19.2207 C   0  0  0  0  0  0
  -29.4743  -21.0778   20.5163 C   0  0  0  0  0  0
  -27.0949  -19.2147   18.4169 C   0  0  0  0  0  0
  -30.7034  -21.0765   21.3699 C   0  0  0  0  0  0
  -26.2177  -22.9090   23.8506 C   0  0  0  0  0  0
  -27.3652  -22.7010   22.8588 C   0  0  0  0  0  0
  -27.4481  -23.8300   21.8106 C   0  0  0  0  0  0
  -29.7579  -18.4725   19.7555 C   0  0  0  0  0  0
  -29.8686  -17.3636   20.9285 C   0  0  0  0  0  0
  -28.3647  -24.9306   19.7126 C   0  0  0  0  0  0
  -28.5542  -23.6817   20.7406 C   0  0  2  0  0  0
  -29.0639  -19.8539   19.8932 N   0  0  0  0  0  0
  -29.7103  -15.8556   20.6485 N   0  0  0  0  0  0
  -31.4799  -12.6389   19.1487 H   0  0  0  0  0  0
  -30.4273  -11.5021   19.9470 H   0  0  0  0  0  0
  -29.7941  -11.7303   17.5215 H   0  0  0  0  0  0
  -29.6231  -13.4578   17.7081 H   0  0  0  0  0  0
  -27.9043  -11.2758   18.9271 H   0  0  0  0  0  0
  -27.3740  -12.5047   17.8078 H   0  0  0  0  0  0
  -27.6356  -14.2458   19.4666 H   0  0  0  0  0  0
  -28.7382  -12.1446   21.4023 H   0  0  0  0  0  0
  -28.4234  -13.8126   21.8051 H   0  0  0  0  0  0
  -25.2763   -9.5674   22.4803 H   0  0  0  0  0  0
  -23.9992   -7.4635   22.7496 H   0  0  0  0  0  0
  -21.0864   -8.8809   19.8952 H   0  0  0  0  0  0
  -22.3744  -10.9693   19.6195 H   0  0  0  0  0  0
  -21.1997   -7.6162   23.9725 H   0  0  0  0  0  0
  -21.1479   -6.0528   25.9087 H   0  0  0  0  0  0
  -22.0598   -2.7618   23.2846 H   0  0  0  0  0  0
  -22.4088  -11.9855   22.4754 H   0  0  0  0  0  0
  -21.1108  -13.1254   22.2612 H   0  0  0  0  0  0
  -24.6514  -15.8388   20.5167 H   0  0  0  0  0  0
  -26.2596  -15.6277   20.0493 H   0  0  0  0  0  0
  -26.7218  -32.5372   23.1026 H   0  0  0  0  0  0
  -24.9896  -33.9629   25.0247 H   0  0  0  0  0  0
  -22.7229  -31.2930   21.4026 H   0  0  0  0  0  0
  -23.3745  -35.9656   23.3257 H   0  0  0  0  0  0
  -24.3530  -36.8988   22.2050 H   0  0  0  0  0  0
  -23.7320  -37.6506   23.6731 H   0  0  0  0  0  0
  -26.1065  -31.5183   20.6113 H   0  0  0  0  0  0
  -26.8531  -30.8073   22.0120 H   0  0  0  0  0  0
  -28.1262  -28.9112   21.1746 H   0  0  0  0  0  0
  -25.8933  -25.8781   19.0346 H   0  0  0  0  0  0
  -23.9544  -27.2880   19.0339 H   0  0  0  0  0  0
  -23.7653  -30.5767   19.4046 H   0  0  0  0  0  0
  -22.7616  -29.2347   19.8621 H   0  0  0  0  0  0
  -25.1318  -36.1835   25.0791 H   0  0  0  0  0  0
  -20.9948  -28.3303   24.1401 H   0  0  0  0  0  0
  -20.5731  -26.2290   23.3620 H   0  0  0  0  0  0
  -21.6647  -26.7448   22.1166 H   0  0  0  0  0  0
  -19.6889  -25.6297   21.1222 H   0  0  0  0  0  0
  -19.6672  -27.3226   20.6781 H   0  0  0  0  0  0
  -17.4202  -26.6651   21.4032 H   0  0  0  0  0  0
  -18.0286  -26.0059   22.9031 H   0  0  0  0  0  0
  -19.7957  -30.7272   24.2190 H   0  0  0  0  0  0
  -17.5037  -31.6245   24.5188 H   0  0  0  0  0  0
  -15.5350  -30.2947   23.7730 H   0  0  0  0  0  0
  -15.8664  -28.0843   22.7014 H   0  0  0  0  0  0
  -24.5837  -30.7134   25.7709 H   0  0  0  0  0  0
  -24.8918  -32.2911   26.4879 H   0  0  0  0  0  0
  -25.7958  -30.8851   27.0197 H   0  0  0  0  0  0
  -26.3008  -29.6691   24.1268 H   0  0  0  0  0  0
  -27.3986  -29.7295   25.4840 H   0  0  0  0  0  0
  -27.8887  -30.4215   23.9575 H   0  0  0  0  0  0
  -27.2520  -33.3668   26.2076 H   0  0  0  0  0  0
  -28.3826  -32.6942   25.0422 H   0  0  0  0  0  0
  -28.0618  -31.8559   26.5509 H   0  0  0  0  0  0
  -28.2531  -38.0129   24.7515 H   0  0  0  0  0  0
  -28.1121  -36.2658   24.6250 H   0  0  0  0  0  0
  -27.2236  -37.1379   25.8810 H   0  0  0  0  0  0
  -20.9449  -29.8755   21.6867 H   0  0  0  0  0  0
  -26.0137  -38.2789   24.1461 H   0  0  0  0  0  0
  -26.7770  -22.0458   18.9525 H   0  0  0  0  0  0
  -26.1416  -19.6404   18.1019 H   0  0  0  0  0  0
  -26.8736  -18.3158   18.9920 H   0  0  0  0  0  0
  -27.6289  -18.9219   17.5126 H   0  0  0  0  0  0
  -30.7103  -21.9213   22.0586 H   0  0  0  0  0  0
  -31.6049  -21.1337   20.7581 H   0  0  0  0  0  0
  -30.7653  -20.1706   21.9725 H   0  0  0  0  0  0
  -26.1673  -22.0819   24.5599 H   0  0  0  0  0  0
  -25.2577  -22.9616   23.3359 H   0  0  0  0  0  0
  -26.3508  -23.8312   24.4169 H   0  0  0  0  0  0
  -27.2143  -21.7350   22.3761 H   0  0  0  0  0  0
  -28.3098  -22.6302   23.3988 H   0  0  0  0  0  0
  -27.5825  -24.7857   22.3206 H   0  0  0  0  0  0
  -26.4831  -23.9024   21.3081 H   0  0  0  0  0  0
  -29.3038  -17.9661   18.9049 H   0  0  0  0  0  0
  -30.7700  -18.6743   19.4068 H   0  0  0  0  0  0
  -29.0923  -17.5981   21.6570 H   0  0  0  0  0  0
  -30.8073  -17.5138   21.4651 H   0  0  0  0  0  0
  -27.5213  -24.7022   19.0691 H   0  0  0  0  0  0
  -29.2149  -24.8846   19.0320 H   0  0  0  0  0  0
  -29.5061  -23.8458   21.2487 H   0  0  0  0  0  0
  -28.7556  -15.5490   20.7546 H   0  0  0  0  0  0
  1 25  1  0  0  0
  1 30  2  0  0  0
  1 85  1  0  0  0
  2  3  1  0  0  0
  2 25  1  0  0  0
  2 86  1  0  0  0
  2 87  1  0  0  0
  3  4  1  0  0  0
  3 88  1  0  0  0
  3 89  1  0  0  0
  4  5  1  0  0  0
  4 90  1  0  0  0
  4 91  1  0  0  0
  5  6  1  0  0  0
  5 26  1  0  0  0
  5 92  1  0  0  0
  6 25  1  0  0  0
  6 93  1  0  0  0
  6 94  1  0  0  0
  7  8  2  0  0  0
  7 26  1  0  0  0
  7 29  1  0  0  0
  8  9  1  0  0  0
  8 22  1  0  0  0
  9 10  1  0  0  0
  9 27  2  0  0  0
 10 11  2  0  0  0
 10 15  1  0  0  0
 11 12  1  0  0  0
 11 95  1  0  0  0
 12 13  2  0  0  0
 12 96  1  0  0  0
 13 14  1  0  0  0
 13 31  1  0  0  0
 14 15  2  0  0  0
 14 97  1  0  0  0
 15 98  1  0  0  0
 16 17  2  0  0  0
 16 21  1  0  0  0
 16 31  1  0  0  0
 17 18  1  0  0  0
 17 99  1  0  0  0
 18 19  2  0  0  0
 18100  1  0  0  0
 19 20  1  0  0  0
 19 24  1  0  0  0
 20 21  2  0  0  0
 20101  1  0  0  0
 21 23  1  0  0  0
 22 28  1  0  0  0
 22 32  2  0  0  0
 26 27  1  0  0  0
 28102  1  0  0  0
 28103  1  0  0  0
 29104  1  0  0  0
 29105  1  0  0  0
 33 34  1  0  0  0
 33 66  1  0  0  0
 33 70  2  0  0  0
 34 36  1  0  0  0
 34 59  1  0  0  0
 34106  1  0  0  0
 35 44  2  0  0  0
 35 45  1  0  0  0
 35 68  1  0  0  0
 36 56  1  0  0  0
 36107  1  0  0  0
 37 39  1  0  0  0
 37 47  1  0  0  0
 37 66  1  0  0  0
 37108  1  0  0  0
 38 43  2  0  0  0
 38 46  1  0  0  0
 38 47  1  0  0  0
 39 64  1  0  0  0
 39 67  2  0  0  0
 40 52  1  0  0  0
 40 53  2  0  0  0
 40 58  1  0  0  0
 41109  1  0  0  0
 41110  1  0  0  0
 41111  1  0  0  0
 41 48  1  0  0  0
 42 43  1  0  0  0
 42 66  1  0  0  0
 42112  1  0  0  0
 42113  1  0  0  0
 43 44  1  0  0  0
 44114  1  0  0  0
 45 46  2  0  0  0
 45115  1  0  0  0
 46116  1  0  0  0
 47117  1  0  0  0
 47118  1  0  0  0
 48 56  1  0  0  0
 48 65  1  0  0  0
 48119  1  0  0  0
 49 50  1  0  0  0
 49 53  1  0  0  0
 49 64  1  0  0  0
 49120  1  0  0  0
 50 51  1  0  0  0
 50121  1  0  0  0
 50122  1  0  0  0
 51 52  1  0  0  0
 51123  1  0  0  0
 51124  1  0  0  0
 52125  1  0  0  0
 52126  1  0  0  0
 53 54  1  0  0  0
 54 55  2  0  0  0
 54127  1  0  0  0
 55 57  1  0  0  0
 55128  1  0  0  0
 56 69  2  0  0  0
 57 58  2  0  0  0
 57129  1  0  0  0
 58130  1  0  0  0
 59 60  1  0  0  0
 59 61  1  0  0  0
 59 62  1  0  0  0
 60131  1  0  0  0
 60132  1  0  0  0
 60133  1  0  0  0
 61134  1  0  0  0
 61135  1  0  0  0
 61136  1  0  0  0
 62137  1  0  0  0
 62138  1  0  0  0
 62139  1  0  0  0
 63 65  1  0  0  0
 63140  1  0  0  0
 63141  1  0  0  0
 63142  1  0  0  0
 64143  1  0  0  0
 65144  1  0  0  0
 68 82  1  0  0  0
 71 72  1  0  0  0
 71 73  2  0  0  0
 71145  1  0  0  0
 72 74  2  0  0  0
 72 83  1  0  0  0
 73 75  1  0  0  0
 73 84  1  0  0  0
 74 76  1  0  0  0
 74 84  1  0  0  0
 75146  1  0  0  0
 75147  1  0  0  0
 75148  1  0  0  0
 76149  1  0  0  0
 76150  1  0  0  0
 76151  1  0  0  0
 77 78  1  0  0  0
 77152  1  0  0  0
 77153  1  0  0  0
 77154  1  0  0  0
 78 79  1  0  0  0
 78155  1  0  0  0
 78156  1  0  0  0
 79157  1  0  0  0
 79158  1  0  0  0
 79 83  1  0  0  0
 80 81  1  0  0  0
 80 84  1  0  0  0
 80159  1  0  0  0
 80160  1  0  0  0
 81 85  1  0  0  0
 81161  1  0  0  0
 81162  1  0  0  0
 82 83  1  0  0  0
 82163  1  0  0  0
 82164  1  0  0  0
 83165  1  0  0  0
 85166  1  0  0  0
M  ISO  4   1 100  68 101  82 101  85 100
M  END
> <chiral flag>
0

> <version>
0

> <s_m_source_file>
/data/baiqing/PycharmProjects/Reinvent-master-3.2/result/LINK_invent/BTK/process_docking_weight1_custom_sum_contain_oxygen_bond_distance_aromatic_linkinvent_7_9_3/rearranged_h_0107.sdf

> <i_m_source_file_index>
21

> <r_mmod_Potential_Energy-OPLS-2005>
192.401031494141

> <r_mmod_Stretch_Energy-OPLS-2005>
140.137557983398

> <r_mmod_Bend_Energy-OPLS-2005>
209.59797668457

> <r_mmod_Torsional_Energy-OPLS-2005>
225.02946472168

> <r_mmod_Improper_Torsional_Energy-OPLS-2005>
6.02699518203735

> <r_mmod_Van_der_Waal_Energy-OPLS-2005>
107.902420043945

> <r_mmod_Electrostatic_Energy-OPLS-2005>
-386.04541015625

> <r_mmod_Solvation_Energy-OPLS-2005>
-207.641265869141

> <b_mmod_Minimization_Converged-OPLS-2005>
0

> <r_mmod_RMS_Derivative-OPLS-2005>
3.35686063766479

$$$$
21
                    3D
 Structure written by MMmdl.
157165  0  0  1  0            999 V2000
  -30.4212  -15.3706   20.2920 C   0  0  0  0  0  0
  -30.4367  -12.8742   19.5152 C   0  0  0  0  0  0
  -29.5360  -12.5800   18.2881 C   0  0  0  0  0  0
  -28.0925  -12.2703   18.7261 C   0  0  0  0  0  0
  -27.5960  -13.2602   19.8056 C   0  0  2  0  0  0
  -28.6332  -13.5323   20.9160 C   0  0  0  0  0  0
  -25.2348  -13.8156   20.5793 C   0  0  0  0  0  0
  -24.1704  -13.0372   20.9283 C   0  0  0  0  0  0
  -24.6362  -11.6869   20.8783 C   0  0  0  0  0  0
  -23.9061  -10.4252   21.0418 C   0  0  0  0  0  0
  -24.3618   -9.4175   21.9200 C   0  0  0  0  0  0
  -23.6287   -8.2218   22.0768 C   0  0  0  0  0  0
  -22.4270   -8.0266   21.3547 C   0  0  0  0  0  0
  -21.9904   -9.0240   20.4652 C   0  0  0  0  0  0
  -22.7237  -10.2116   20.3065 C   0  0  0  0  0  0
  -21.6851   -6.0724   22.5270 C   0  0  0  0  0  0
  -21.4007   -6.5626   23.8201 C   0  0  0  0  0  0
  -21.3659   -5.6778   24.9166 C   0  0  0  0  0  0
  -21.6051   -4.3046   24.7217 C   0  0  0  0  0  0
  -21.8825   -3.8136   23.4338 C   0  0  0  0  0  0
  -21.9197   -4.6950   22.3393 C   0  0  0  0  0  0
  -22.7729  -13.5153   21.1904 C   0  0  0  0  0  0
  -22.1674   -4.2139   21.0972 F   0  0  0  0  0  0
  -21.5629   -3.4532   25.7736 F   0  0  0  0  0  0
  -29.8565  -14.0490   20.2711 N   0  0  0  0  0  0
  -26.2760  -12.9399   20.3229 N   0  0  0  0  0  0
  -25.9292  -11.6526   20.5732 N   0  0  0  0  0  0
  -22.0374  -12.8162   22.0462 N   0  0  0  0  0  0
  -25.3927  -15.1888   20.4264 N   0  0  0  0  0  0
  -31.6599  -15.2798   20.3041 O   0  0  0  0  0  0
  -21.6637   -6.8869   21.4237 O   0  0  0  0  0  0
  -22.3425  -14.5458   20.6731 O   0  0  0  0  0  0
  -24.6670  -31.8208   23.1683 C   0  0  0  0  0  0
  -25.9332  -32.4575   23.8158 C   0  0  1  0  0  0
  -27.2204  -26.8900   20.1987 C   0  0  0  0  0  0
  -25.5987  -33.8392   24.2066 N   0  0  0  0  0  0
  -23.4836  -30.4301   21.5194 C   0  0  2  0  0  0
  -24.9374  -28.8084   20.1184 C   0  0  0  0  0  0
  -22.7686  -29.4427   22.4787 C   0  0  0  0  0  0
  -18.0329  -28.1415   22.8473 C   0  0  0  0  0  0
  -24.1495  -36.7195   23.2648 C   0  0  0  0  0  0
  -26.0549  -30.6153   21.4046 C   0  0  0  0  0  0
  -26.1232  -29.1999   20.7525 C   0  0  0  0  0  0
  -27.2600  -28.2652   20.7621 C   0  0  0  0  0  0
  -26.0027  -26.6598   19.5170 C   0  0  0  0  0  0
  -24.9049  -27.5597   19.4783 C   0  0  0  0  0  0
  -23.7252  -29.7409   20.1483 C   0  0  0  0  0  0
  -25.4137  -36.2962   24.0302 C   0  0  1  0  0  0
  -20.5952  -28.3761   23.1190 C   0  0  2  0  0  0
  -20.6805  -26.9442   22.5407 C   0  0  0  0  0  0
  -19.5774  -26.6382   21.5224 C   0  0  0  0  0  0
  -18.1957  -26.7947   22.1630 C   0  0  0  0  0  0
  -19.1589  -28.8912   23.2815 C   0  0  0  0  0  0
  -18.9494  -30.1502   23.8847 C   0  0  0  0  0  0
  -17.6486  -30.6602   24.0556 C   0  0  0  0  0  0
  -25.9105  -34.9344   23.5007 C   0  0  0  0  0  0
  -16.5378  -29.9082   23.6352 C   0  0  0  0  0  0
  -16.7310  -28.6504   23.0370 C   0  0  0  0  0  0
  -26.4566  -31.6532   25.0699 C   0  0  0  0  0  0
  -25.3679  -31.3787   26.1345 C   0  0  0  0  0  0
  -27.0472  -30.2897   24.6459 C   0  0  0  0  0  0
  -27.6052  -32.4349   25.7501 C   0  0  0  0  0  0
  -27.5574  -37.1752   24.8464 C   0  0  0  0  0  0
  -21.4351  -29.3039   22.3531 N   0  0  0  0  0  0
  -26.4279  -37.3704   23.9414 N   0  0  0  0  0  0
  -24.7569  -30.9827   22.0844 N   0  0  0  0  0  0
  -23.4208  -28.8010   23.3058 O   0  0  0  0  0  0
  -28.2279  -25.7738   20.2234 O   0  0  0  0  0  0
  -26.5720  -34.8886   22.4607 O   0  0  0  0  0  0
  -23.5732  -32.1200   23.6753 O   0  0  0  0  0  0
  -29.8717  -21.6177   20.7802 C   0  0  0  0  0  0
  -27.7035  -21.1391   20.2173 C   0  0  0  0  0  0
  -30.3258  -20.0202   20.3850 C   0  0  0  0  0  0
  -28.1439  -19.5699   19.8041 C   0  0  0  0  0  0
  -28.6483  -22.4716   20.0676 C   0  0  1  0  0  0
  -29.3668  -18.6651   20.4524 C   0  0  1  0  0  0
  -30.7394  -17.3692   18.6729 C   0  0  0  0  0  0
  -28.4557  -16.5955   19.0408 C   0  0  0  0  0  0
  -27.9660  -24.1402   20.4516 C   0  0  0  0  0  0
  -29.7419  -16.9753   19.7890 C   0  0  0  0  0  0
  -31.4500  -13.0861   19.1721 H   0  0  0  0  0  0
  -30.5217  -11.9942   20.1556 H   0  0  0  0  0  0
  -29.9398  -11.7485   17.7088 H   0  0  0  0  0  0
  -29.5387  -13.4460   17.6251 H   0  0  0  0  0  0
  -28.0763  -11.2555   19.1263 H   0  0  0  0  0  0
  -27.4224  -12.2731   17.8652 H   0  0  0  0  0  0
  -27.4513  -14.1802   19.2556 H   0  0  0  0  0  0
  -28.8322  -12.6350   21.5038 H   0  0  0  0  0  0
  -28.2513  -14.2817   21.6108 H   0  0  0  0  0  0
  -25.2764   -9.5651   22.4778 H   0  0  0  0  0  0
  -23.9995   -7.4602   22.7484 H   0  0  0  0  0  0
  -21.0838   -8.8757   19.8947 H   0  0  0  0  0  0
  -22.3704  -10.9663   19.6175 H   0  0  0  0  0  0
  -21.2003   -7.6136   23.9696 H   0  0  0  0  0  0
  -21.1475   -6.0513   25.9063 H   0  0  0  0  0  0
  -22.0614   -2.7598   23.2835 H   0  0  0  0  0  0
  -22.4007  -11.9842   22.4869 H   0  0  0  0  0  0
  -21.0990  -13.1186   22.2653 H   0  0  0  0  0  0
  -24.6211  -15.8372   20.5416 H   0  0  0  0  0  0
  -26.2405  -15.6349   20.1039 H   0  0  0  0  0  0
  -26.7403  -32.5097   23.0870 H   0  0  0  0  0  0
  -25.0078  -33.9460   25.0179 H   0  0  0  0  0  0
  -22.7994  -31.2633   21.3449 H   0  0  0  0  0  0
  -23.3782  -35.9499   23.3266 H   0  0  0  0  0  0
  -24.3575  -36.8887   22.2071 H   0  0  0  0  0  0
  -23.7220  -37.6357   23.6731 H   0  0  0  0  0  0
  -26.2373  -31.3541   20.6230 H   0  0  0  0  0  0
  -26.9140  -30.6745   22.0610 H   0  0  0  0  0  0
  -28.1599  -28.5693   21.2781 H   0  0  0  0  0  0
  -25.8687  -25.7116   19.0177 H   0  0  0  0  0  0
  -24.0060  -27.2550   18.9597 H   0  0  0  0  0  0
  -23.8825  -30.5067   19.3882 H   0  0  0  0  0  0
  -22.8343  -29.1959   19.8314 H   0  0  0  0  0  0
  -25.1335  -36.1757   25.0793 H   0  0  0  0  0  0
  -21.0036  -28.3370   24.1316 H   0  0  0  0  0  0
  -20.5708  -26.2375   23.3649 H   0  0  0  0  0  0
  -21.6664  -26.7430   22.1200 H   0  0  0  0  0  0
  -19.6933  -25.6279   21.1288 H   0  0  0  0  0  0
  -19.6713  -27.3166   20.6733 H   0  0  0  0  0  0
  -17.4231  -26.6707   21.4028 H   0  0  0  0  0  0
  -18.0342  -26.0098   22.9034 H   0  0  0  0  0  0
  -19.7968  -30.7340   24.2188 H   0  0  0  0  0  0
  -17.5033  -31.6277   24.5165 H   0  0  0  0  0  0
  -15.5374  -30.2963   23.7705 H   0  0  0  0  0  0
  -15.8715  -28.0805   22.7109 H   0  0  0  0  0  0
  -24.5866  -30.7142   25.7636 H   0  0  0  0  0  0
  -24.8865  -32.2992   26.4658 H   0  0  0  0  0  0
  -25.7894  -30.9012   27.0199 H   0  0  0  0  0  0
  -26.3152  -29.6558   24.1445 H   0  0  0  0  0  0
  -27.3969  -29.7279   25.5129 H   0  0  0  0  0  0
  -27.9105  -30.4075   23.9907 H   0  0  0  0  0  0
  -27.2617  -33.3694   26.1951 H   0  0  0  0  0  0
  -28.3922  -32.6846   25.0371 H   0  0  0  0  0  0
  -28.0657  -31.8564   26.5518 H   0  0  0  0  0  0
  -28.2560  -38.0079   24.7541 H   0  0  0  0  0  0
  -28.1105  -36.2607   24.6258 H   0  0  0  0  0  0
  -27.2294  -37.1351   25.8866 H   0  0  0  0  0  0
  -20.9622  -29.8692   21.6619 H   0  0  0  0  0  0
  -26.0127  -38.2761   24.1432 H   0  0  0  0  0  0
  -30.7685  -22.2273   20.6642 H   0  0  0  0  0  0
  -29.6859  -21.6286   21.8556 H   0  0  0  0  0  0
  -27.3642  -21.1028   21.2546 H   0  0  0  0  0  0
  -26.7922  -21.3572   19.6593 H   0  0  0  0  0  0
  -31.2061  -19.7926   20.9865 H   0  0  0  0  0  0
  -30.7140  -20.0802   19.3674 H   0  0  0  0  0  0
  -28.3122  -19.5997   18.7270 H   0  0  0  0  0  0
  -27.2369  -18.9753   19.9182 H   0  0  0  0  0  0
  -28.9038  -22.5356   19.0093 H   0  0  0  0  0  0
  -29.1170  -18.5099   21.5028 H   0  0  0  0  0  0
  -30.3424  -18.1508   18.0243 H   0  0  0  0  0  0
  -30.9928  -16.5295   18.0230 H   0  0  0  0  0  0
  -31.6709  -17.7426   19.1001 H   0  0  0  0  0  0
  -28.1225  -17.3698   18.3525 H   0  0  0  0  0  0
  -27.6483  -16.4136   19.7430 H   0  0  0  0  0  0
  -28.6042  -15.7200   18.4103 H   0  0  0  0  0  0
  -27.7910  -24.0960   21.5268 H   0  0  0  0  0  0
  -26.9645  -24.0427   20.0363 H   0  0  0  0  0  0
  1 25  1  0  0  0
  1 30  2  0  0  0
  1 80  1  0  0  0
  2  3  1  0  0  0
  2 25  1  0  0  0
  2 81  1  0  0  0
  2 82  1  0  0  0
  3  4  1  0  0  0
  3 83  1  0  0  0
  3 84  1  0  0  0
  4  5  1  0  0  0
  4 85  1  0  0  0
  4 86  1  0  0  0
  5  6  1  0  0  0
  5 26  1  0  0  0
  5 87  1  0  0  0
  6 25  1  0  0  0
  6 88  1  0  0  0
  6 89  1  0  0  0
  7  8  2  0  0  0
  7 26  1  0  0  0
  7 29  1  0  0  0
  8  9  1  0  0  0
  8 22  1  0  0  0
  9 10  1  0  0  0
  9 27  2  0  0  0
 10 11  2  0  0  0
 10 15  1  0  0  0
 11 12  1  0  0  0
 11 90  1  0  0  0
 12 13  2  0  0  0
 12 91  1  0  0  0
 13 14  1  0  0  0
 13 31  1  0  0  0
 14 15  2  0  0  0
 14 92  1  0  0  0
 15 93  1  0  0  0
 16 17  2  0  0  0
 16 21  1  0  0  0
 16 31  1  0  0  0
 17 18  1  0  0  0
 17 94  1  0  0  0
 18 19  2  0  0  0
 18 95  1  0  0  0
 19 20  1  0  0  0
 19 24  1  0  0  0
 20 21  2  0  0  0
 20 96  1  0  0  0
 21 23  1  0  0  0
 22 28  1  0  0  0
 22 32  2  0  0  0
 26 27  1  0  0  0
 28 97  1  0  0  0
 28 98  1  0  0  0
 29 99  1  0  0  0
 29100  1  0  0  0
 33 34  1  0  0  0
 33 66  1  0  0  0
 33 70  2  0  0  0
 34 36  1  0  0  0
 34 59  1  0  0  0
 34101  1  0  0  0
 35 44  2  0  0  0
 35 45  1  0  0  0
 35 68  1  0  0  0
 36 56  1  0  0  0
 36102  1  0  0  0
 37 39  1  0  0  0
 37 47  1  0  0  0
 37 66  1  0  0  0
 37103  1  0  0  0
 38 43  2  0  0  0
 38 46  1  0  0  0
 38 47  1  0  0  0
 39 64  1  0  0  0
 39 67  2  0  0  0
 40 52  1  0  0  0
 40 53  2  0  0  0
 40 58  1  0  0  0
 41104  1  0  0  0
 41105  1  0  0  0
 41106  1  0  0  0
 41 48  1  0  0  0
 42 43  1  0  0  0
 42 66  1  0  0  0
 42107  1  0  0  0
 42108  1  0  0  0
 43 44  1  0  0  0
 44109  1  0  0  0
 45 46  2  0  0  0
 45110  1  0  0  0
 46111  1  0  0  0
 47112  1  0  0  0
 47113  1  0  0  0
 48 56  1  0  0  0
 48 65  1  0  0  0
 48114  1  0  0  0
 49 50  1  0  0  0
 49 53  1  0  0  0
 49 64  1  0  0  0
 49115  1  0  0  0
 50 51  1  0  0  0
 50116  1  0  0  0
 50117  1  0  0  0
 51 52  1  0  0  0
 51118  1  0  0  0
 51119  1  0  0  0
 52120  1  0  0  0
 52121  1  0  0  0
 53 54  1  0  0  0
 54 55  2  0  0  0
 54122  1  0  0  0
 55 57  1  0  0  0
 55123  1  0  0  0
 56 69  2  0  0  0
 57 58  2  0  0  0
 57124  1  0  0  0
 58125  1  0  0  0
 59 60  1  0  0  0
 59 61  1  0  0  0
 59 62  1  0  0  0
 60126  1  0  0  0
 60127  1  0  0  0
 60128  1  0  0  0
 61129  1  0  0  0
 61130  1  0  0  0
 61131  1  0  0  0
 62132  1  0  0  0
 62133  1  0  0  0
 62134  1  0  0  0
 63 65  1  0  0  0
 63135  1  0  0  0
 63136  1  0  0  0
 63137  1  0  0  0
 64138  1  0  0  0
 65139  1  0  0  0
 68 79  1  0  0  0
 71 73  1  0  0  0
 71 75  1  0  0  0
 71140  1  0  0  0
 71141  1  0  0  0
 72 74  1  0  0  0
 72 75  1  0  0  0
 72142  1  0  0  0
 72143  1  0  0  0
 73144  1  0  0  0
 73145  1  0  0  0
 73 76  1  0  0  0
 74 76  1  0  0  0
 74146  1  0  0  0
 74147  1  0  0  0
 75 79  1  0  0  0
 75148  1  0  0  0
 76 80  1  0  0  0
 76149  1  0  0  0
 77150  1  0  0  0
 77151  1  0  0  0
 77152  1  0  0  0
 77 80  1  0  0  0
 78 80  1  0  0  0
 78153  1  0  0  0
 78154  1  0  0  0
 78155  1  0  0  0
 79156  1  0  0  0
 79157  1  0  0  0
M  ISO  4   1 100  68 101  79 101  80 100
M  END
> <chiral flag>
0

> <version>
0

> <s_m_source_file>
/data/baiqing/PycharmProjects/Reinvent-master-3.2/result/LINK_invent/BTK/process_docking_weight1_custom_sum_contain_oxygen_bond_distance_aromatic_linkinvent_7_9_3/rearranged_h_0107.sdf

> <i_m_source_file_index>
22

> <r_mmod_Potential_Energy-OPLS-2005>
1792.25549316406

> <r_mmod_Stretch_Energy-OPLS-2005>
689.203369140625

> <r_mmod_Bend_Energy-OPLS-2005>
614.728332519531

> <r_mmod_Torsional_Energy-OPLS-2005>
267.204711914062

> <r_mmod_Improper_Torsional_Energy-OPLS-2005>
15.3140325546265

> <r_mmod_Van_der_Waal_Energy-OPLS-2005>
126.10831451416

> <r_mmod_Electrostatic_Energy-OPLS-2005>
-288.866455078125

> <r_mmod_Solvation_Energy-OPLS-2005>
-179.353561401367

> <b_mmod_Minimization_Converged-OPLS-2005>
0

> <r_mmod_RMS_Derivative-OPLS-2005>
1.18579661846161

$$$$
22
                    3D
 Structure written by MMmdl.
147154  0  0  1  0            999 V2000
  -30.4340  -15.2529   20.3728 C   0  0  0  0  0  0
  -30.4412  -12.8045   19.5108 C   0  0  0  0  0  0
  -29.5341  -12.5684   18.2777 C   0  0  0  0  0  0
  -28.0828  -12.2937   18.7108 C   0  0  0  0  0  0
  -27.6105  -13.2709   19.8163 C   0  0  2  0  0  0
  -28.6466  -13.4430   20.9456 C   0  0  0  0  0  0
  -25.2397  -13.8238   20.5743 C   0  0  0  0  0  0
  -24.1743  -13.0435   20.9265 C   0  0  0  0  0  0
  -24.6396  -11.6929   20.8760 C   0  0  0  0  0  0
  -23.9089  -10.4290   21.0404 C   0  0  0  0  0  0
  -24.3633   -9.4202   21.9182 C   0  0  0  0  0  0
  -23.6300   -8.2241   22.0754 C   0  0  0  0  0  0
  -22.4282   -8.0282   21.3544 C   0  0  0  0  0  0
  -21.9921   -9.0260   20.4648 C   0  0  0  0  0  0
  -22.7258  -10.2136   20.3053 C   0  0  0  0  0  0
  -21.6859   -6.0736   22.5278 C   0  0  0  0  0  0
  -21.4015   -6.5637   23.8211 C   0  0  0  0  0  0
  -21.3661   -5.6789   24.9172 C   0  0  0  0  0  0
  -21.6047   -4.3055   24.7224 C   0  0  0  0  0  0
  -21.8816   -3.8146   23.4344 C   0  0  0  0  0  0
  -21.9192   -4.6962   22.3401 C   0  0  0  0  0  0
  -22.7761  -13.5192   21.1906 C   0  0  0  0  0  0
  -22.1659   -4.2147   21.0979 F   0  0  0  0  0  0
  -21.5631   -3.4538   25.7736 F   0  0  0  0  0  0
  -29.8734  -13.9485   20.3095 N   0  0  0  0  0  0
  -26.2811  -12.9504   20.3191 N   0  0  0  0  0  0
  -25.9328  -11.6614   20.5705 N   0  0  0  0  0  0
  -22.0406  -12.8182   22.0455 N   0  0  0  0  0  0
  -25.4034  -15.1973   20.4186 N   0  0  0  0  0  0
  -31.6632  -15.2620   20.2199 O   0  0  0  0  0  0
  -21.6644   -6.8879   21.4240 O   0  0  0  0  0  0
  -22.3442  -14.5495   20.6740 O   0  0  0  0  0  0
  -24.6626  -31.8240   23.1703 C   0  0  0  0  0  0
  -25.9309  -32.4590   23.8169 C   0  0  1  0  0  0
  -27.2169  -26.9342   20.1885 C   0  0  0  0  0  0
  -25.5979  -33.8404   24.2077 N   0  0  0  0  0  0
  -23.4762  -30.4359   21.5201 C   0  0  2  0  0  0
  -24.9277  -28.8188   20.1189 C   0  0  0  0  0  0
  -22.7661  -29.4446   22.4787 C   0  0  0  0  0  0
  -18.0321  -28.1404   22.8462 C   0  0  0  0  0  0
  -24.1495  -36.7213   23.2647 C   0  0  0  0  0  0
  -26.0449  -30.6335   21.3976 C   0  0  0  0  0  0
  -26.1132  -29.2220   20.7463 C   0  0  0  0  0  0
  -27.2559  -28.3031   20.7499 C   0  0  0  0  0  0
  -25.9997  -26.6767   19.5209 C   0  0  0  0  0  0
  -24.8952  -27.5661   19.4858 C   0  0  0  0  0  0
  -23.7158  -29.7487   20.1480 C   0  0  0  0  0  0
  -25.4133  -36.2969   24.0300 C   0  0  1  0  0  0
  -20.5945  -28.3751   23.1187 C   0  0  2  0  0  0
  -20.6796  -26.9432   22.5397 C   0  0  0  0  0  0
  -19.5772  -26.6370   21.5209 C   0  0  0  0  0  0
  -18.1955  -26.7933   22.1620 C   0  0  0  0  0  0
  -19.1581  -28.8898   23.2812 C   0  0  0  0  0  0
  -18.9492  -30.1486   23.8848 C   0  0  0  0  0  0
  -17.6486  -30.6593   24.0554 C   0  0  0  0  0  0
  -25.9097  -34.9352   23.5009 C   0  0  0  0  0  0
  -16.5376  -29.9081   23.6341 C   0  0  0  0  0  0
  -16.7303  -28.6503   23.0357 C   0  0  0  0  0  0
  -26.4561  -31.6530   25.0694 C   0  0  0  0  0  0
  -25.3691  -31.3779   26.1353 C   0  0  0  0  0  0
  -27.0459  -30.2898   24.6418 C   0  0  0  0  0  0
  -27.6051  -32.4337   25.7501 C   0  0  0  0  0  0
  -27.5569  -37.1764   24.8464 C   0  0  0  0  0  0
  -21.4330  -29.3046   22.3538 N   0  0  0  0  0  0
  -26.4281  -37.3705   23.9404 N   0  0  0  0  0  0
  -24.7495  -30.9916   22.0830 N   0  0  0  0  0  0
  -23.4216  -28.8013   23.3022 O   0  0  0  0  0  0
  -28.2398  -25.8514   20.1934 O   0  0  0  0  0  0
  -26.5709  -34.8887   22.4606 O   0  0  0  0  0  0
  -23.5698  -32.1202   23.6807 O   0  0  0  0  0  0
  -30.1313  -22.9973   19.3858 C   0  0  0  0  0  0
  -29.8855  -18.1514   20.6491 C   0  0  0  0  0  0
  -29.0945  -19.6563   20.0410 C   0  0  0  0  0  0
  -28.0338  -24.2412   20.4937 C   0  0  0  0  0  0
  -28.7350  -22.6740   19.9222 C   0  0  2  0  0  0
  -29.6529  -16.5121   20.4078 N   0  0  0  0  0  0
  -28.9685  -21.1968   20.6092 O   0  0  0  0  0  0
  -31.4572  -13.0185   19.1763 H   0  0  0  0  0  0
  -30.5151  -11.9025   20.1204 H   0  0  0  0  0  0
  -29.9129  -11.7381   17.6799 H   0  0  0  0  0  0
  -29.5615  -13.4479   17.6329 H   0  0  0  0  0  0
  -28.0407  -11.2713   19.0876 H   0  0  0  0  0  0
  -27.4122  -12.3301   17.8510 H   0  0  0  0  0  0
  -27.5254  -14.2371   19.3175 H   0  0  0  0  0  0
  -28.8165  -12.5090   21.4832 H   0  0  0  0  0  0
  -28.2898  -14.1663   21.6805 H   0  0  0  0  0  0
  -25.2771   -9.5685   22.4763 H   0  0  0  0  0  0
  -24.0008   -7.4633   22.7479 H   0  0  0  0  0  0
  -21.0850   -8.8786   19.8957 H   0  0  0  0  0  0
  -22.3712  -10.9678   19.6167 H   0  0  0  0  0  0
  -21.2009   -7.6146   23.9715 H   0  0  0  0  0  0
  -21.1485   -6.0520   25.9078 H   0  0  0  0  0  0
  -22.0595   -2.7608   23.2845 H   0  0  0  0  0  0
  -22.4036  -11.9864   22.4871 H   0  0  0  0  0  0
  -21.1016  -13.1201   22.2643 H   0  0  0  0  0  0
  -24.6339  -15.8473   20.5393 H   0  0  0  0  0  0
  -26.2425  -15.6403   20.0691 H   0  0  0  0  0  0
  -26.7377  -32.5131   23.0885 H   0  0  0  0  0  0
  -25.0074  -33.9482   25.0193 H   0  0  0  0  0  0
  -22.7893  -31.2672   21.3484 H   0  0  0  0  0  0
  -23.3765  -35.9535   23.3280 H   0  0  0  0  0  0
  -24.3568  -36.8888   22.2066 H   0  0  0  0  0  0
  -23.7246  -37.6391   23.6720 H   0  0  0  0  0  0
  -26.2212  -31.3727   20.6153 H   0  0  0  0  0  0
  -26.9069  -30.6942   22.0500 H   0  0  0  0  0  0
  -28.1607  -28.6162   21.2518 H   0  0  0  0  0  0
  -25.8802  -25.7215   19.0299 H   0  0  0  0  0  0
  -23.9943  -27.2519   18.9768 H   0  0  0  0  0  0
  -23.8747  -30.5150   19.3886 H   0  0  0  0  0  0
  -22.8248  -29.2045   19.8295 H   0  0  0  0  0  0
  -25.1332  -36.1767   25.0792 H   0  0  0  0  0  0
  -21.0034  -28.3354   24.1312 H   0  0  0  0  0  0
  -20.5671  -26.2369   23.3637 H   0  0  0  0  0  0
  -21.6660  -26.7400   22.1211 H   0  0  0  0  0  0
  -19.6932  -25.6268   21.1270 H   0  0  0  0  0  0
  -19.6709  -27.3153   20.6719 H   0  0  0  0  0  0
  -17.4220  -26.6669   21.4028 H   0  0  0  0  0  0
  -18.0359  -26.0086   22.9031 H   0  0  0  0  0  0
  -19.7969  -30.7313   24.2193 H   0  0  0  0  0  0
  -17.5039  -31.6268   24.5166 H   0  0  0  0  0  0
  -15.5375  -30.2970   23.7687 H   0  0  0  0  0  0
  -15.8704  -28.0806   22.7098 H   0  0  0  0  0  0
  -24.5882  -30.7120   25.7661 H   0  0  0  0  0  0
  -24.8873  -32.2983   26.4663 H   0  0  0  0  0  0
  -25.7927  -30.9017   27.0206 H   0  0  0  0  0  0
  -26.3125  -29.6570   24.1409 H   0  0  0  0  0  0
  -27.3982  -29.7266   25.5070 H   0  0  0  0  0  0
  -27.9068  -30.4082   23.9835 H   0  0  0  0  0  0
  -27.2616  -33.3675   26.1964 H   0  0  0  0  0  0
  -28.3928  -32.6838   25.0381 H   0  0  0  0  0  0
  -28.0650  -31.8540   26.5515 H   0  0  0  0  0  0
  -28.2570  -38.0075   24.7509 H   0  0  0  0  0  0
  -28.1083  -36.2601   24.6297 H   0  0  0  0  0  0
  -27.2284  -37.1411   25.8867 H   0  0  0  0  0  0
  -20.9582  -29.8747   21.6677 H   0  0  0  0  0  0
  -26.0128  -38.2764   24.1414 H   0  0  0  0  0  0
  -30.1106  -23.8880   18.7565 H   0  0  0  0  0  0
  -30.5264  -22.1796   18.7831 H   0  0  0  0  0  0
  -30.8290  -23.1824   20.2022 H   0  0  0  0  0  0
  -29.7739  -18.2314   21.7305 H   0  0  0  0  0  0
  -30.9543  -18.3013   20.4950 H   0  0  0  0  0  0
  -28.0552  -19.3760   19.8692 H   0  0  0  0  0  0
  -29.4947  -19.7854   19.0348 H   0  0  0  0  0  0
  -28.2302  -24.2120   21.5652 H   0  0  0  0  0  0
  -26.9554  -24.0922   20.4401 H   0  0  0  0  0  0
  -28.1266  -22.4390   19.0485 H   0  0  0  0  0  0
  -28.6670  -16.2947   20.3869 H   0  0  0  0  0  0
  1 25  1  0  0  0
  1 30  2  0  0  0
  1 76  1  0  0  0
  2  3  1  0  0  0
  2 25  1  0  0  0
  2 78  1  0  0  0
  2 79  1  0  0  0
  3  4  1  0  0  0
  3 80  1  0  0  0
  3 81  1  0  0  0
  4  5  1  0  0  0
  4 82  1  0  0  0
  4 83  1  0  0  0
  5  6  1  0  0  0
  5 26  1  0  0  0
  5 84  1  0  0  0
  6 25  1  0  0  0
  6 85  1  0  0  0
  6 86  1  0  0  0
  7  8  2  0  0  0
  7 26  1  0  0  0
  7 29  1  0  0  0
  8  9  1  0  0  0
  8 22  1  0  0  0
  9 10  1  0  0  0
  9 27  2  0  0  0
 10 11  2  0  0  0
 10 15  1  0  0  0
 11 12  1  0  0  0
 11 87  1  0  0  0
 12 13  2  0  0  0
 12 88  1  0  0  0
 13 14  1  0  0  0
 13 31  1  0  0  0
 14 15  2  0  0  0
 14 89  1  0  0  0
 15 90  1  0  0  0
 16 17  2  0  0  0
 16 21  1  0  0  0
 16 31  1  0  0  0
 17 18  1  0  0  0
 17 91  1  0  0  0
 18 19  2  0  0  0
 18 92  1  0  0  0
 19 20  1  0  0  0
 19 24  1  0  0  0
 20 21  2  0  0  0
 20 93  1  0  0  0
 21 23  1  0  0  0
 22 28  1  0  0  0
 22 32  2  0  0  0
 26 27  1  0  0  0
 28 94  1  0  0  0
 28 95  1  0  0  0
 29 96  1  0  0  0
 29 97  1  0  0  0
 33 34  1  0  0  0
 33 66  1  0  0  0
 33 70  2  0  0  0
 34 36  1  0  0  0
 34 59  1  0  0  0
 34 98  1  0  0  0
 35 44  2  0  0  0
 35 45  1  0  0  0
 35 68  1  0  0  0
 36 56  1  0  0  0
 36 99  1  0  0  0
 37 39  1  0  0  0
 37 47  1  0  0  0
 37 66  1  0  0  0
 37100  1  0  0  0
 38 43  2  0  0  0
 38 46  1  0  0  0
 38 47  1  0  0  0
 39 64  1  0  0  0
 39 67  2  0  0  0
 40 52  1  0  0  0
 40 53  2  0  0  0
 40 58  1  0  0  0
 41101  1  0  0  0
 41102  1  0  0  0
 41103  1  0  0  0
 41 48  1  0  0  0
 42 43  1  0  0  0
 42 66  1  0  0  0
 42104  1  0  0  0
 42105  1  0  0  0
 43 44  1  0  0  0
 44106  1  0  0  0
 45 46  2  0  0  0
 45107  1  0  0  0
 46108  1  0  0  0
 47109  1  0  0  0
 47110  1  0  0  0
 48 56  1  0  0  0
 48 65  1  0  0  0
 48111  1  0  0  0
 49 50  1  0  0  0
 49 53  1  0  0  0
 49 64  1  0  0  0
 49112  1  0  0  0
 50 51  1  0  0  0
 50113  1  0  0  0
 50114  1  0  0  0
 51 52  1  0  0  0
 51115  1  0  0  0
 51116  1  0  0  0
 52117  1  0  0  0
 52118  1  0  0  0
 53 54  1  0  0  0
 54 55  2  0  0  0
 54119  1  0  0  0
 55 57  1  0  0  0
 55120  1  0  0  0
 56 69  2  0  0  0
 57 58  2  0  0  0
 57121  1  0  0  0
 58122  1  0  0  0
 59 60  1  0  0  0
 59 61  1  0  0  0
 59 62  1  0  0  0
 60123  1  0  0  0
 60124  1  0  0  0
 60125  1  0  0  0
 61126  1  0  0  0
 61127  1  0  0  0
 61128  1  0  0  0
 62129  1  0  0  0
 62130  1  0  0  0
 62131  1  0  0  0
 63 65  1  0  0  0
 63132  1  0  0  0
 63133  1  0  0  0
 63134  1  0  0  0
 64135  1  0  0  0
 65136  1  0  0  0
 68 74  1  0  0  0
 71137  1  0  0  0
 71138  1  0  0  0
 71139  1  0  0  0
 71 75  1  0  0  0
 72 73  1  0  0  0
 72 76  1  0  0  0
 72140  1  0  0  0
 72141  1  0  0  0
 73 77  1  0  0  0
 73142  1  0  0  0
 73143  1  0  0  0
 74 75  1  0  0  0
 74144  1  0  0  0
 74145  1  0  0  0
 75 77  1  0  0  0
 75146  1  0  0  0
 76147  1  0  0  0
M  ISO  4   1 100  68 101  74 101  76 100
M  END
> <chiral flag>
0

> <version>
0

> <s_m_source_file>
/data/baiqing/PycharmProjects/Reinvent-master-3.2/result/LINK_invent/BTK/process_docking_weight1_custom_sum_contain_oxygen_bond_distance_aromatic_linkinvent_7_9_3/rearranged_h_0107.sdf

> <i_m_source_file_index>
23

> <r_mmod_Potential_Energy-OPLS-2005>
1270.64428710938

> <r_mmod_Stretch_Energy-OPLS-2005>
623.216796875

> <r_mmod_Bend_Energy-OPLS-2005>
469.684478759766

> <r_mmod_Torsional_Energy-OPLS-2005>
234.685958862305

> <r_mmod_Improper_Torsional_Energy-OPLS-2005>
4.09214782714844

> <r_mmod_Van_der_Waal_Energy-OPLS-2005>
107.586891174316

> <r_mmod_Electrostatic_Energy-OPLS-2005>
-394.885162353516

> <r_mmod_Solvation_Energy-OPLS-2005>
-218.321426391602

> <b_mmod_Minimization_Converged-OPLS-2005>
0

> <r_mmod_RMS_Derivative-OPLS-2005>
0.838859796524048

$$$$
23
                    3D
 Structure written by MMmdl.
174183  0  0  1  0            999 V2000
  -30.7369  -14.4296   20.5091 C   0  0  0  0  0  0
  -30.4042  -12.2605   19.4364 C   0  0  0  0  0  0
  -29.4955  -12.4860   18.2118 C   0  0  0  0  0  0
  -28.0146  -12.3628   18.6146 C   0  0  0  0  0  0
  -27.6582  -13.2107   19.8662 C   0  0  2  0  0  0
  -28.6992  -13.0241   20.9965 C   0  0  0  0  0  0
  -25.2586  -13.8194   20.5673 C   0  0  0  0  0  0
  -24.1838  -13.0463   20.9172 C   0  0  0  0  0  0
  -24.6393  -11.6923   20.8726 C   0  0  0  0  0  0
  -23.9064  -10.4306   21.0405 C   0  0  0  0  0  0
  -24.3619   -9.4215   21.9179 C   0  0  0  0  0  0
  -23.6285   -8.2256   22.0752 C   0  0  0  0  0  0
  -22.4270   -8.0300   21.3548 C   0  0  0  0  0  0
  -21.9903   -9.0278   20.4654 C   0  0  0  0  0  0
  -22.7232  -10.2143   20.3062 C   0  0  0  0  0  0
  -21.6858   -6.0743   22.5276 C   0  0  0  0  0  0
  -21.4019   -6.5641   23.8211 C   0  0  0  0  0  0
  -21.3652   -5.6780   24.9167 C   0  0  0  0  0  0
  -21.6053   -4.3047   24.7215 C   0  0  0  0  0  0
  -21.8816   -3.8144   23.4335 C   0  0  0  0  0  0
  -21.9187   -4.6973   22.3388 C   0  0  0  0  0  0
  -22.7856  -13.5264   21.1832 C   0  0  0  0  0  0
  -22.1657   -4.2158   21.0967 F   0  0  0  0  0  0
  -21.5621   -3.4523   25.7726 F   0  0  0  0  0  0
  -30.0371  -13.2704   20.4393 N   0  0  0  0  0  0
  -26.3013  -12.9358   20.3317 N   0  0  0  0  0  0
  -25.9318  -11.6518   20.5745 N   0  0  0  0  0  0
  -22.0474  -12.8284   22.0392 N   0  0  0  0  0  0
  -25.4330  -15.1911   20.4095 N   0  0  0  0  0  0
  -31.9123  -14.5095   20.1591 O   0  0  0  0  0  0
  -21.6641   -6.8897   21.4240 O   0  0  0  0  0  0
  -22.3544  -14.5558   20.6668 O   0  0  0  0  0  0
  -24.6116  -31.8710   23.2126 C   0  0  0  0  0  0
  -25.9028  -32.4838   23.8417 C   0  0  1  0  0  0
  -27.2421  -27.4651   20.0863 C   0  0  0  0  0  0
  -25.5894  -33.8638   24.2352 N   0  0  0  0  0  0
  -23.3990  -30.4946   21.5517 C   0  0  2  0  0  0
  -24.8463  -28.9613   20.1180 C   0  0  0  0  0  0
  -22.7391  -29.4682   22.5002 C   0  0  0  0  0  0
  -18.0274  -28.1384   22.8502 C   0  0  0  0  0  0
  -24.1483  -36.7311   23.2634 C   0  0  0  0  0  0
  -25.9248  -30.8433   21.3646 C   0  0  0  0  0  0
  -26.0032  -29.4772   20.7164 C   0  0  0  0  0  0
  -27.1996  -28.7304   20.7103 C   0  0  0  0  0  0
  -26.0648  -26.9461   19.5042 C   0  0  0  0  0  0
  -24.8691  -27.6907   19.5163 C   0  0  0  0  0  0
  -23.6072  -29.8262   20.1658 C   0  0  0  0  0  0
  -25.4098  -36.3116   24.0341 C   0  0  1  0  0  0
  -20.5857  -28.3668   23.1327 C   0  0  2  0  0  0
  -20.6771  -26.9410   22.5418 C   0  0  0  0  0  0
  -19.5742  -26.6393   21.5220 C   0  0  0  0  0  0
  -18.1920  -26.7932   22.1633 C   0  0  0  0  0  0
  -19.1521  -28.8838   23.2914 C   0  0  0  0  0  0
  -18.9450  -30.1447   23.8933 C   0  0  0  0  0  0
  -17.6454  -30.6591   24.0568 C   0  0  0  0  0  0
  -25.9030  -34.9477   23.5142 C   0  0  0  0  0  0
  -16.5347  -29.9098   23.6327 C   0  0  0  0  0  0
  -16.7262  -28.6508   23.0361 C   0  0  0  0  0  0
  -26.4466  -31.6610   25.0729 C   0  0  0  0  0  0
  -25.3757  -31.3745   26.1505 C   0  0  0  0  0  0
  -27.0263  -30.3041   24.6100 C   0  0  0  0  0  0
  -27.6089  -32.4308   25.7449 C   0  0  0  0  0  0
  -27.5578  -37.1801   24.8461 C   0  0  0  0  0  0
  -21.4128  -29.3038   22.3728 N   0  0  0  0  0  0
  -26.4287  -37.3795   23.9409 N   0  0  0  0  0  0
  -24.6631  -31.0836   22.1024 N   0  0  0  0  0  0
  -23.4170  -28.8241   23.3048 O   0  0  0  0  0  0
  -28.4191  -26.7548   20.0917 O   0  0  0  0  0  0
  -26.5587  -34.8928   22.4704 O   0  0  0  0  0  0
  -23.5321  -32.1452   23.7543 O   0  0  0  0  0  0
  -30.4769  -24.3303   19.4161 C   0  0  0  0  0  0
  -28.7156  -22.5541   18.2924 C   0  0  0  0  0  0
  -30.8890  -22.9907   19.2713 C   0  0  0  0  0  0
  -29.9966  -22.0817   18.6498 C   0  0  0  0  0  0
  -29.2141  -24.7243   18.9331 C   0  0  0  0  0  0
  -29.5723  -18.0005   20.8052 C   0  0  0  0  0  0
  -31.5381  -17.2664   19.5474 C   0  0  0  0  0  0
  -29.4413  -19.2380   19.8954 C   0  0  0  0  0  0
  -30.1281  -16.8320   19.9910 C   0  0  1  0  0  0
  -31.5595  -18.5496   18.6821 C   0  0  2  0  0  0
  -32.2824  -22.5876   19.7257 C   0  0  0  0  0  0
  -35.3300  -18.4818   17.4140 C   0  0  0  0  0  0
  -30.4249  -20.6883   18.1785 C   0  0  0  0  0  0
  -28.8354  -26.1983   18.8453 C   0  0  0  0  0  0
  -33.0417  -18.9933   18.4658 C   0  0  0  0  0  0
  -33.9622  -17.9241   17.8360 C   0  0  0  0  0  0
  -28.3279  -23.8398   18.4276 N   0  0  0  0  0  0
  -29.9878  -15.5318   20.6910 N   0  0  0  0  0  0
  -30.7125  -19.6676   19.2326 N   0  3  1  0  0  0
  -31.4534  -12.3150   19.1399 H   0  0  0  0  0  0
  -30.2619  -11.2592   19.8461 H   0  0  0  0  0  0
  -29.7291  -11.7630   17.4297 H   0  0  0  0  0  0
  -29.6818  -13.4725   17.7825 H   0  0  0  0  0  0
  -27.8132  -11.3083   18.8086 H   0  0  0  0  0  0
  -27.3765  -12.6449   17.7767 H   0  0  0  0  0  0
  -27.6911  -14.2528   19.5477 H   0  0  0  0  0  0
  -28.6543  -12.0115   21.3986 H   0  0  0  0  0  0
  -28.4833  -13.6877   21.8363 H   0  0  0  0  0  0
  -25.2769   -9.5664   22.4752 H   0  0  0  0  0  0
  -23.9991   -7.4642   22.7465 H   0  0  0  0  0  0
  -21.0833   -8.8804   19.8952 H   0  0  0  0  0  0
  -22.3710  -10.9694   19.6172 H   0  0  0  0  0  0
  -21.2016   -7.6149   23.9723 H   0  0  0  0  0  0
  -21.1476   -6.0507   25.9068 H   0  0  0  0  0  0
  -22.0597   -2.7610   23.2835 H   0  0  0  0  0  0
  -22.4070  -11.9958   22.4821 H   0  0  0  0  0  0
  -21.1094  -13.1349   22.2575 H   0  0  0  0  0  0
  -24.6720  -15.8521   20.5342 H   0  0  0  0  0  0
  -26.2880  -15.6274   20.0905 H   0  0  0  0  0  0
  -26.7105  -32.5566   23.1198 H   0  0  0  0  0  0
  -25.0057  -33.9806   25.0505 H   0  0  0  0  0  0
  -22.6873  -31.3108   21.4149 H   0  0  0  0  0  0
  -23.3738  -35.9652   23.3318 H   0  0  0  0  0  0
  -24.3580  -36.8898   22.2045 H   0  0  0  0  0  0
  -23.7244  -37.6526   23.6637 H   0  0  0  0  0  0
  -26.0361  -31.6105   20.5971 H   0  0  0  0  0  0
  -26.8132  -30.8988   21.9820 H   0  0  0  0  0  0
  -28.0941  -29.1264   21.1707 H   0  0  0  0  0  0
  -26.0631  -25.9641   19.0512 H   0  0  0  0  0  0
  -23.9758  -27.2813   19.0649 H   0  0  0  0  0  0
  -23.7152  -30.6021   19.4069 H   0  0  0  0  0  0
  -22.7306  -29.2469   19.8694 H   0  0  0  0  0  0
  -25.1270  -36.1989   25.0831 H   0  0  0  0  0  0
  -20.9958  -28.3244   24.1445 H   0  0  0  0  0  0
  -20.5702  -26.2274   23.3600 H   0  0  0  0  0  0
  -21.6645  -26.7478   22.1201 H   0  0  0  0  0  0
  -19.6910  -25.6312   21.1230 H   0  0  0  0  0  0
  -19.6671  -27.3218   20.6760 H   0  0  0  0  0  0
  -17.4190  -26.6692   21.4035 H   0  0  0  0  0  0
  -18.0311  -26.0067   22.9019 H   0  0  0  0  0  0
  -19.7923  -30.7252   24.2325 H   0  0  0  0  0  0
  -17.5009  -31.6280   24.5156 H   0  0  0  0  0  0
  -15.5348  -30.3015   23.7624 H   0  0  0  0  0  0
  -15.8663  -28.0828   22.7082 H   0  0  0  0  0  0
  -24.5845  -30.7191   25.7844 H   0  0  0  0  0  0
  -24.9057  -32.2926   26.5041 H   0  0  0  0  0  0
  -25.8101  -30.8815   27.0208 H   0  0  0  0  0  0
  -26.2774  -29.6806   24.1199 H   0  0  0  0  0  0
  -27.4062  -29.7285   25.4550 H   0  0  0  0  0  0
  -27.8610  -30.4333   23.9209 H   0  0  0  0  0  0
  -27.2760  -33.3626   26.2034 H   0  0  0  0  0  0
  -28.3867  -32.6827   25.0228 H   0  0  0  0  0  0
  -28.0777  -31.8412   26.5338 H   0  0  0  0  0  0
  -28.2614  -38.0084   24.7510 H   0  0  0  0  0  0
  -28.1057  -36.2624   24.6280 H   0  0  0  0  0  0
  -27.2306  -37.1444   25.8867 H   0  0  0  0  0  0
  -20.9289  -29.8722   21.6922 H   0  0  0  0  0  0
  -26.0180  -38.2871   24.1431 H   0  0  0  0  0  0
  -31.1468  -25.0728   19.8305 H   0  0  0  0  0  0
  -28.0006  -21.9026   17.8119 H   0  0  0  0  0  0
  -28.5906  -17.7528   21.2100 H   0  0  0  0  0  0
  -30.2141  -18.2182   21.6609 H   0  0  0  0  0  0
  -31.9752  -16.4938   18.9191 H   0  0  0  0  0  0
  -32.1877  -17.3794   20.4167 H   0  0  0  0  0  0
  -29.0505  -20.0727   20.4774 H   0  0  0  0  0  0
  -28.6896  -19.0211   19.1360 H   0  0  0  0  0  0
  -29.5175  -16.7182   19.0924 H   0  0  0  0  0  0
  -31.1361  -18.2757   17.7128 H   0  0  0  0  0  0
  -32.8197  -23.4382   20.1480 H   0  0  0  0  0  0
  -32.8752  -22.2083   18.8934 H   0  0  0  0  0  0
  -32.2307  -21.8248   20.5029 H   0  0  0  0  0  0
  -35.9764  -17.6837   17.0458 H   0  0  0  0  0  0
  -35.8408  -18.9629   18.2494 H   0  0  0  0  0  0
  -35.2308  -19.2152   16.6131 H   0  0  0  0  0  0
  -31.2784  -20.8488   17.5253 H   0  0  0  0  0  0
  -29.6640  -20.2878   17.5046 H   0  0  0  0  0  0
  -28.1155  -26.3424   18.0392 H   0  0  0  0  0  0
  -29.7196  -26.7528   18.5278 H   0  0  0  0  0  0
  -33.4710  -19.3036   19.4198 H   0  0  0  0  0  0
  -33.0966  -19.8688   17.8243 H   0  0  0  0  0  0
  -34.1273  -17.1105   18.5430 H   0  0  0  0  0  0
  -33.4796  -17.4799   16.9639 H   0  0  0  0  0  0
  -29.0619  -15.3318   21.0382 H   0  0  0  0  0  0
  -31.2707  -20.1078   19.9474 H   0  0  0  0  0  0
  1 25  1  0  0  0
  1 30  2  0  0  0
  1 88  1  0  0  0
  2  3  1  0  0  0
  2 25  1  0  0  0
  2 90  1  0  0  0
  2 91  1  0  0  0
  3  4  1  0  0  0
  3 92  1  0  0  0
  3 93  1  0  0  0
  4  5  1  0  0  0
  4 94  1  0  0  0
  4 95  1  0  0  0
  5  6  1  0  0  0
  5 26  1  0  0  0
  5 96  1  0  0  0
  6 25  1  0  0  0
  6 97  1  0  0  0
  6 98  1  0  0  0
  7  8  2  0  0  0
  7 26  1  0  0  0
  7 29  1  0  0  0
  8  9  1  0  0  0
  8 22  1  0  0  0
  9 10  1  0  0  0
  9 27  2  0  0  0
 10 11  2  0  0  0
 10 15  1  0  0  0
 11 12  1  0  0  0
 11 99  1  0  0  0
 12 13  2  0  0  0
 12100  1  0  0  0
 13 14  1  0  0  0
 13 31  1  0  0  0
 14 15  2  0  0  0
 14101  1  0  0  0
 15102  1  0  0  0
 16 17  2  0  0  0
 16 21  1  0  0  0
 16 31  1  0  0  0
 17 18  1  0  0  0
 17103  1  0  0  0
 18 19  2  0  0  0
 18104  1  0  0  0
 19 20  1  0  0  0
 19 24  1  0  0  0
 20 21  2  0  0  0
 20105  1  0  0  0
 21 23  1  0  0  0
 22 28  1  0  0  0
 22 32  2  0  0  0
 26 27  1  0  0  0
 28106  1  0  0  0
 28107  1  0  0  0
 29108  1  0  0  0
 29109  1  0  0  0
 33 34  1  0  0  0
 33 66  1  0  0  0
 33 70  2  0  0  0
 34 36  1  0  0  0
 34 59  1  0  0  0
 34110  1  0  0  0
 35 44  2  0  0  0
 35 45  1  0  0  0
 35 68  1  0  0  0
 36 56  1  0  0  0
 36111  1  0  0  0
 37 39  1  0  0  0
 37 47  1  0  0  0
 37 66  1  0  0  0
 37112  1  0  0  0
 38 43  2  0  0  0
 38 46  1  0  0  0
 38 47  1  0  0  0
 39 64  1  0  0  0
 39 67  2  0  0  0
 40 52  1  0  0  0
 40 53  2  0  0  0
 40 58  1  0  0  0
 41113  1  0  0  0
 41114  1  0  0  0
 41115  1  0  0  0
 41 48  1  0  0  0
 42 43  1  0  0  0
 42 66  1  0  0  0
 42116  1  0  0  0
 42117  1  0  0  0
 43 44  1  0  0  0
 44118  1  0  0  0
 45 46  2  0  0  0
 45119  1  0  0  0
 46120  1  0  0  0
 47121  1  0  0  0
 47122  1  0  0  0
 48 56  1  0  0  0
 48 65  1  0  0  0
 48123  1  0  0  0
 49 50  1  0  0  0
 49 53  1  0  0  0
 49 64  1  0  0  0
 49124  1  0  0  0
 50 51  1  0  0  0
 50125  1  0  0  0
 50126  1  0  0  0
 51 52  1  0  0  0
 51127  1  0  0  0
 51128  1  0  0  0
 52129  1  0  0  0
 52130  1  0  0  0
 53 54  1  0  0  0
 54 55  2  0  0  0
 54131  1  0  0  0
 55 57  1  0  0  0
 55132  1  0  0  0
 56 69  2  0  0  0
 57 58  2  0  0  0
 57133  1  0  0  0
 58134  1  0  0  0
 59 60  1  0  0  0
 59 61  1  0  0  0
 59 62  1  0  0  0
 60135  1  0  0  0
 60136  1  0  0  0
 60137  1  0  0  0
 61138  1  0  0  0
 61139  1  0  0  0
 61140  1  0  0  0
 62141  1  0  0  0
 62142  1  0  0  0
 62143  1  0  0  0
 63 65  1  0  0  0
 63144  1  0  0  0
 63145  1  0  0  0
 63146  1  0  0  0
 64147  1  0  0  0
 65148  1  0  0  0
 68 84  1  0  0  0
 71 73  2  0  0  0
 71 75  1  0  0  0
 71149  1  0  0  0
 72 74  2  0  0  0
 72 87  1  0  0  0
 72150  1  0  0  0
 73 74  1  0  0  0
 73 81  1  0  0  0
 74 83  1  0  0  0
 75 84  1  0  0  0
 75 87  2  0  0  0
 76 78  1  0  0  0
 76 79  1  0  0  0
 76151  1  0  0  0
 76152  1  0  0  0
 77 79  1  0  0  0
 77 80  1  0  0  0
 77153  1  0  0  0
 77154  1  0  0  0
 78 89  1  0  0  0
 78155  1  0  0  0
 78156  1  0  0  0
 79 88  1  0  0  0
 79157  1  0  0  0
 80 85  1  0  0  0
 80 89  1  0  0  0
 80158  1  0  0  0
 81159  1  0  0  0
 81160  1  0  0  0
 81161  1  0  0  0
 82 86  1  0  0  0
 82162  1  0  0  0
 82163  1  0  0  0
 82164  1  0  0  0
 83165  1  0  0  0
 83166  1  0  0  0
 83 89  1  0  0  0
 84167  1  0  0  0
 84168  1  0  0  0
 85 86  1  0  0  0
 85169  1  0  0  0
 85170  1  0  0  0
 86171  1  0  0  0
 86172  1  0  0  0
 88173  1  0  0  0
 89174  1  0  0  0
M  CHG  1  89   1
M  ISO  4   1 100  68 101  84 101  88 100
M  END
> <chiral flag>
0

> <version>
0

> <s_m_source_file>
/data/baiqing/PycharmProjects/Reinvent-master-3.2/result/LINK_invent/BTK/process_docking_weight1_custom_sum_contain_oxygen_bond_distance_aromatic_linkinvent_7_9_3/rearranged_h_0107.sdf

> <i_m_source_file_index>
24

> <r_mmod_Potential_Energy-OPLS-2005>
-116.364517211914

> <r_mmod_Stretch_Energy-OPLS-2005>
39.2829742431641

> <r_mmod_Bend_Energy-OPLS-2005>
117.86971282959

> <r_mmod_Torsional_Energy-OPLS-2005>
276.485778808594

> <r_mmod_Improper_Torsional_Energy-OPLS-2005>
10.2524728775024

> <r_mmod_Van_der_Waal_Energy-OPLS-2005>
166.22184753418

> <r_mmod_Electrostatic_Energy-OPLS-2005>
-299.645263671875

> <r_mmod_Solvation_Energy-OPLS-2005>
-443.638854980469

> <b_mmod_Minimization_Converged-OPLS-2005>
0

> <r_mmod_RMS_Derivative-OPLS-2005>
2.34538578987122

$$$$
24
                    3D
 Structure written by MMmdl.
172180  0  0  1  0            999 V2000
  -30.6416  -14.5835   20.5379 C   0  0  0  0  0  0
  -30.4328  -12.3632   19.4533 C   0  0  0  0  0  0
  -29.5061  -12.5090   18.2291 C   0  0  0  0  0  0
  -28.0266  -12.3494   18.6368 C   0  0  0  0  0  0
  -27.6557  -13.2097   19.8762 C   0  0  2  0  0  0
  -28.6982  -13.0405   21.0036 C   0  0  0  0  0  0
  -25.2580  -13.8061   20.5734 C   0  0  0  0  0  0
  -24.1839  -13.0348   20.9200 C   0  0  0  0  0  0
  -24.6400  -11.6826   20.8728 C   0  0  0  0  0  0
  -23.9066  -10.4233   21.0372 C   0  0  0  0  0  0
  -24.3614   -9.4151   21.9150 C   0  0  0  0  0  0
  -23.6282   -8.2198   22.0711 C   0  0  0  0  0  0
  -22.4257   -8.0248   21.3522 C   0  0  0  0  0  0
  -21.9898   -9.0222   20.4615 C   0  0  0  0  0  0
  -22.7225  -10.2097   20.3023 C   0  0  0  0  0  0
  -21.6828   -6.0721   22.5256 C   0  0  0  0  0  0
  -21.4007   -6.5617   23.8192 C   0  0  0  0  0  0
  -21.3673   -5.6768   24.9157 C   0  0  0  0  0  0
  -21.6059   -4.3033   24.7191 C   0  0  0  0  0  0
  -21.8825   -3.8127   23.4301 C   0  0  0  0  0  0
  -21.9181   -4.6959   22.3369 C   0  0  0  0  0  0
  -22.7862  -13.5169   21.1828 C   0  0  0  0  0  0
  -22.1637   -4.2152   21.0934 F   0  0  0  0  0  0
  -21.5656   -3.4500   25.7699 F   0  0  0  0  0  0
  -30.0160  -13.3734   20.4428 N   0  0  0  0  0  0
  -26.3003  -12.9261   20.3382 N   0  0  0  0  0  0
  -25.9338  -11.6414   20.5791 N   0  0  0  0  0  0
  -22.0511  -12.8207   22.0415 N   0  0  0  0  0  0
  -25.4299  -15.1737   20.4166 N   0  0  0  0  0  0
  -31.7923  -14.7550   20.1292 O   0  0  0  0  0  0
  -21.6608   -6.8857   21.4225 O   0  0  0  0  0  0
  -22.3562  -14.5463   20.6639 O   0  0  0  0  0  0
  -24.6219  -31.8611   23.2063 C   0  0  0  0  0  0
  -25.9089  -32.4787   23.8377 C   0  0  1  0  0  0
  -27.2400  -27.3689   20.0936 C   0  0  0  0  0  0
  -25.5932  -33.8588   24.2305 N   0  0  0  0  0  0
  -23.4145  -30.4860   21.5484 C   0  0  2  0  0  0
  -24.8623  -28.9508   20.1099 C   0  0  0  0  0  0
  -22.7452  -29.4633   22.4953 C   0  0  0  0  0  0
  -18.0284  -28.1390   22.8480 C   0  0  0  0  0  0
  -24.1490  -36.7297   23.2639 C   0  0  0  0  0  0
  -25.9517  -30.8050   21.3739 C   0  0  0  0  0  0
  -26.0275  -29.4387   20.7123 C   0  0  0  0  0  0
  -27.2154  -28.6571   20.7002 C   0  0  0  0  0  0
  -26.0541  -26.9319   19.4532 C   0  0  0  0  0  0
  -24.8765  -27.7020   19.4728 C   0  0  0  0  0  0
  -23.6249  -29.8210   20.1637 C   0  0  0  0  0  0
  -25.4114  -36.3085   24.0325 C   0  0  1  0  0  0
  -20.5877  -28.3682   23.1289 C   0  0  2  0  0  0
  -20.6777  -26.9417   22.5397 C   0  0  0  0  0  0
  -19.5764  -26.6405   21.5188 C   0  0  0  0  0  0
  -18.1933  -26.7943   22.1586 C   0  0  0  0  0  0
  -19.1535  -28.8850   23.2886 C   0  0  0  0  0  0
  -18.9460  -30.1454   23.8907 C   0  0  0  0  0  0
  -17.6460  -30.6583   24.0594 C   0  0  0  0  0  0
  -25.9043  -34.9448   23.5107 C   0  0  0  0  0  0
  -16.5353  -29.9082   23.6355 C   0  0  0  0  0  0
  -16.7272  -28.6517   23.0340 C   0  0  0  0  0  0
  -26.4496  -31.6598   25.0741 C   0  0  0  0  0  0
  -25.3760  -31.3735   26.1501 C   0  0  0  0  0  0
  -27.0317  -30.3020   24.6181 C   0  0  0  0  0  0
  -27.6052  -32.4344   25.7500 C   0  0  0  0  0  0
  -27.5577  -37.1804   24.8460 C   0  0  0  0  0  0
  -21.4163  -29.3051   22.3690 N   0  0  0  0  0  0
  -26.4289  -37.3779   23.9399 N   0  0  0  0  0  0
  -24.6811  -31.0663   22.0998 N   0  0  0  0  0  0
  -23.4187  -28.8161   23.3014 O   0  0  0  0  0  0
  -28.3905  -26.5740   20.1489 O   0  0  0  0  0  0
  -26.5598  -34.8911   22.4666 O   0  0  0  0  0  0
  -23.5393  -32.1390   23.7430 O   0  0  0  0  0  0
  -27.1879  -22.2609   19.1243 C   0  0  0  0  0  0
  -25.9633  -21.5941   19.0691 C   0  0  0  0  0  0
  -28.2713  -21.7235   19.8575 C   0  0  0  0  0  0
  -25.8543  -20.3737   19.7393 C   0  0  0  0  0  0
  -28.1294  -20.3626   20.3127 C   0  0  0  0  0  0
  -30.0864  -22.5520   17.5379 C   0  0  0  0  0  0
  -24.0170  -19.6794   21.3208 C   0  0  0  0  0  0
  -24.5362  -18.2840   19.2425 C   0  0  0  0  0  0
  -30.5847  -22.4496   18.9846 C   0  0  0  0  0  0
  -29.2928  -24.1672   20.5129 C   0  0  0  0  0  0
  -28.9471  -18.0391   20.9006 C   0  0  0  0  0  0
  -30.1995  -17.0876   20.8666 C   0  0  0  0  0  0
  -28.3099  -25.1583   19.7791 C   0  0  0  0  0  0
  -29.5095  -22.6353   20.0806 C   0  0  1  0  0  0
  -24.5053  -19.6848   19.8631 C   0  0  0  0  0  0
  -26.9175  -19.7658   20.3057 N   0  0  0  0  0  0
  -29.1841  -19.5067   20.7388 N   0  0  0  0  0  0
  -29.8669  -15.6326   20.9322 N   0  0  0  0  0  0
  -31.4759  -12.4751   19.1577 H   0  0  0  0  0  0
  -30.3533  -11.3633   19.8816 H   0  0  0  0  0  0
  -29.7692  -11.7672   17.4747 H   0  0  0  0  0  0
  -29.6616  -13.4857   17.7651 H   0  0  0  0  0  0
  -27.8493  -11.2962   18.8575 H   0  0  0  0  0  0
  -27.3749  -12.5945   17.7975 H   0  0  0  0  0  0
  -27.6821  -14.2495   19.5503 H   0  0  0  0  0  0
  -28.6975  -12.0123   21.3709 H   0  0  0  0  0  0
  -28.4528  -13.6626   21.8659 H   0  0  0  0  0  0
  -25.2763   -9.5632   22.4718 H   0  0  0  0  0  0
  -23.9979   -7.4582   22.7411 H   0  0  0  0  0  0
  -21.0838   -8.8720   19.8922 H   0  0  0  0  0  0
  -22.3657  -10.9634   19.6127 H   0  0  0  0  0  0
  -21.1979   -7.6111   23.9711 H   0  0  0  0  0  0
  -21.1519   -6.0473   25.9068 H   0  0  0  0  0  0
  -22.0621   -2.7586   23.2778 H   0  0  0  0  0  0
  -22.4129  -11.9886   22.4838 H   0  0  0  0  0  0
  -21.1136  -13.1247   22.2622 H   0  0  0  0  0  0
  -24.6598  -15.8239   20.5140 H   0  0  0  0  0  0
  -26.2724  -15.6074   20.0625 H   0  0  0  0  0  0
  -26.7156  -32.5463   23.1122 H   0  0  0  0  0  0
  -25.0105  -33.9749   25.0469 H   0  0  0  0  0  0
  -22.7092  -31.3066   21.4086 H   0  0  0  0  0  0
  -23.3743  -35.9637   23.3305 H   0  0  0  0  0  0
  -24.3586  -36.8918   22.2055 H   0  0  0  0  0  0
  -23.7246  -37.6502   23.6656 H   0  0  0  0  0  0
  -26.0849  -31.5735   20.6117 H   0  0  0  0  0  0
  -26.8312  -30.8464   22.0050 H   0  0  0  0  0  0
  -28.1106  -29.0333   21.1763 H   0  0  0  0  0  0
  -26.0057  -25.9930   18.9241 H   0  0  0  0  0  0
  -23.9867  -27.3282   18.9858 H   0  0  0  0  0  0
  -23.7356  -30.5968   19.4053 H   0  0  0  0  0  0
  -22.7484  -29.2424   19.8649 H   0  0  0  0  0  0
  -25.1296  -36.1935   25.0816 H   0  0  0  0  0  0
  -20.9956  -28.3247   24.1415 H   0  0  0  0  0  0
  -20.5684  -26.2293   23.3580 H   0  0  0  0  0  0
  -21.6636  -26.7467   22.1170 H   0  0  0  0  0  0
  -19.6920  -25.6334   21.1163 H   0  0  0  0  0  0
  -19.6699  -27.3243   20.6740 H   0  0  0  0  0  0
  -17.4225  -26.6720   21.3965 H   0  0  0  0  0  0
  -18.0286  -26.0063   22.8948 H   0  0  0  0  0  0
  -19.7941  -30.7273   24.2260 H   0  0  0  0  0  0
  -17.5006  -31.6253   24.5203 H   0  0  0  0  0  0
  -15.5352  -30.2973   23.7682 H   0  0  0  0  0  0
  -15.8674  -28.0859   22.7021 H   0  0  0  0  0  0
  -24.5901  -30.7121   25.7858 H   0  0  0  0  0  0
  -24.9007  -32.2907   26.4986 H   0  0  0  0  0  0
  -25.8122  -30.8874   27.0239 H   0  0  0  0  0  0
  -26.2874  -29.6792   24.1218 H   0  0  0  0  0  0
  -27.4021  -29.7265   25.4674 H   0  0  0  0  0  0
  -27.8745  -30.4308   23.9388 H   0  0  0  0  0  0
  -27.2652  -33.3639   26.2081 H   0  0  0  0  0  0
  -28.3849  -32.6930   25.0326 H   0  0  0  0  0  0
  -28.0732  -31.8480   26.5416 H   0  0  0  0  0  0
  -28.2597  -38.0103   24.7503 H   0  0  0  0  0  0
  -28.1065  -36.2628   24.6279 H   0  0  0  0  0  0
  -27.2290  -37.1453   25.8865 H   0  0  0  0  0  0
  -20.9344  -29.8777   21.6895 H   0  0  0  0  0  0
  -26.0164  -38.2848   24.1412 H   0  0  0  0  0  0
  -27.2615  -23.1971   18.6012 H   0  0  0  0  0  0
  -25.1175  -22.0341   18.5618 H   0  0  0  0  0  0
  -30.9174  -22.4365   16.8417 H   0  0  0  0  0  0
  -29.6148  -23.5125   17.3391 H   0  0  0  0  0  0
  -29.3705  -21.7635   17.3101 H   0  0  0  0  0  0
  -24.7124  -19.1456   21.9688 H   0  0  0  0  0  0
  -23.0375  -19.2061   21.4108 H   0  0  0  0  0  0
  -23.9291  -20.6966   21.7030 H   0  0  0  0  0  0
  -24.8087  -18.3320   18.1874 H   0  0  0  0  0  0
  -23.5683  -17.7898   19.3196 H   0  0  0  0  0  0
  -25.2758  -17.6693   19.7496 H   0  0  0  0  0  0
  -31.4052  -23.1493   19.1439 H   0  0  0  0  0  0
  -31.0296  -21.4595   19.1015 H   0  0  0  0  0  0
  -28.9664  -24.1565   21.5540 H   0  0  0  0  0  0
  -30.2741  -24.6422   20.5418 H   0  0  0  0  0  0
  -28.4092  -17.8940   21.8388 H   0  0  0  0  0  0
  -28.2664  -17.7049   20.1158 H   0  0  0  0  0  0
  -30.8689  -17.3279   21.6946 H   0  0  0  0  0  0
  -30.7598  -17.2635   19.9467 H   0  0  0  0  0  0
  -27.3169  -24.7901   20.0253 H   0  0  0  0  0  0
  -28.4446  -25.0969   18.6987 H   0  0  0  0  0  0
  -29.9746  -22.2091   20.9706 H   0  0  0  0  0  0
  -23.7860  -20.2671   19.2878 H   0  0  0  0  0  0
  -30.1383  -19.8396   20.6780 H   0  0  0  0  0  0
  -28.9353  -15.3970   21.2403 H   0  0  0  0  0  0
  1 25  1  0  0  0
  1 30  2  0  0  0
  1 88  1  0  0  0
  2  3  1  0  0  0
  2 25  1  0  0  0
  2 89  1  0  0  0
  2 90  1  0  0  0
  3  4  1  0  0  0
  3 91  1  0  0  0
  3 92  1  0  0  0
  4  5  1  0  0  0
  4 93  1  0  0  0
  4 94  1  0  0  0
  5  6  1  0  0  0
  5 26  1  0  0  0
  5 95  1  0  0  0
  6 25  1  0  0  0
  6 96  1  0  0  0
  6 97  1  0  0  0
  7  8  2  0  0  0
  7 26  1  0  0  0
  7 29  1  0  0  0
  8  9  1  0  0  0
  8 22  1  0  0  0
  9 10  1  0  0  0
  9 27  2  0  0  0
 10 11  2  0  0  0
 10 15  1  0  0  0
 11 12  1  0  0  0
 11 98  1  0  0  0
 12 13  2  0  0  0
 12 99  1  0  0  0
 13 14  1  0  0  0
 13 31  1  0  0  0
 14 15  2  0  0  0
 14100  1  0  0  0
 15101  1  0  0  0
 16 17  2  0  0  0
 16 21  1  0  0  0
 16 31  1  0  0  0
 17 18  1  0  0  0
 17102  1  0  0  0
 18 19  2  0  0  0
 18103  1  0  0  0
 19 20  1  0  0  0
 19 24  1  0  0  0
 20 21  2  0  0  0
 20104  1  0  0  0
 21 23  1  0  0  0
 22 28  1  0  0  0
 22 32  2  0  0  0
 26 27  1  0  0  0
 28105  1  0  0  0
 28106  1  0  0  0
 29107  1  0  0  0
 29108  1  0  0  0
 33 34  1  0  0  0
 33 66  1  0  0  0
 33 70  2  0  0  0
 34 36  1  0  0  0
 34 59  1  0  0  0
 34109  1  0  0  0
 35 44  2  0  0  0
 35 45  1  0  0  0
 35 68  1  0  0  0
 36 56  1  0  0  0
 36110  1  0  0  0
 37 39  1  0  0  0
 37 47  1  0  0  0
 37 66  1  0  0  0
 37111  1  0  0  0
 38 43  2  0  0  0
 38 46  1  0  0  0
 38 47  1  0  0  0
 39 64  1  0  0  0
 39 67  2  0  0  0
 40 52  1  0  0  0
 40 53  2  0  0  0
 40 58  1  0  0  0
 41112  1  0  0  0
 41113  1  0  0  0
 41114  1  0  0  0
 41 48  1  0  0  0
 42 43  1  0  0  0
 42 66  1  0  0  0
 42115  1  0  0  0
 42116  1  0  0  0
 43 44  1  0  0  0
 44117  1  0  0  0
 45 46  2  0  0  0
 45118  1  0  0  0
 46119  1  0  0  0
 47120  1  0  0  0
 47121  1  0  0  0
 48 56  1  0  0  0
 48 65  1  0  0  0
 48122  1  0  0  0
 49 50  1  0  0  0
 49 53  1  0  0  0
 49 64  1  0  0  0
 49123  1  0  0  0
 50 51  1  0  0  0
 50124  1  0  0  0
 50125  1  0  0  0
 51 52  1  0  0  0
 51126  1  0  0  0
 51127  1  0  0  0
 52128  1  0  0  0
 52129  1  0  0  0
 53 54  1  0  0  0
 54 55  2  0  0  0
 54130  1  0  0  0
 55 57  1  0  0  0
 55131  1  0  0  0
 56 69  2  0  0  0
 57 58  2  0  0  0
 57132  1  0  0  0
 58133  1  0  0  0
 59 60  1  0  0  0
 59 61  1  0  0  0
 59 62  1  0  0  0
 60134  1  0  0  0
 60135  1  0  0  0
 60136  1  0  0  0
 61137  1  0  0  0
 61138  1  0  0  0
 61139  1  0  0  0
 62140  1  0  0  0
 62141  1  0  0  0
 62142  1  0  0  0
 63 65  1  0  0  0
 63143  1  0  0  0
 63144  1  0  0  0
 63145  1  0  0  0
 64146  1  0  0  0
 65147  1  0  0  0
 68 83  1  0  0  0
 71 72  2  0  0  0
 71 73  1  0  0  0
 71148  1  0  0  0
 72 74  1  0  0  0
 72149  1  0  0  0
 73 75  2  0  0  0
 73 84  1  0  0  0
 74 85  1  0  0  0
 74 86  2  0  0  0
 75 86  1  0  0  0
 75 87  1  0  0  0
 76 79  1  0  0  0
 76150  1  0  0  0
 76151  1  0  0  0
 76152  1  0  0  0
 77153  1  0  0  0
 77154  1  0  0  0
 77155  1  0  0  0
 77 85  1  0  0  0
 78 85  1  0  0  0
 78156  1  0  0  0
 78157  1  0  0  0
 78158  1  0  0  0
 79159  1  0  0  0
 79160  1  0  0  0
 79 84  1  0  0  0
 80 83  1  0  0  0
 80 84  1  0  0  0
 80161  1  0  0  0
 80162  1  0  0  0
 81 82  1  0  0  0
 81 87  1  0  0  0
 81163  1  0  0  0
 81164  1  0  0  0
 82 88  1  0  0  0
 82165  1  0  0  0
 82166  1  0  0  0
 83167  1  0  0  0
 83168  1  0  0  0
 84169  1  0  0  0
 85170  1  0  0  0
 87171  1  0  0  0
 88172  1  0  0  0
M  ISO  4   1 100  68 101  83 101  88 100
M  END
> <chiral flag>
0

> <version>
0

> <s_m_source_file>
/data/baiqing/PycharmProjects/Reinvent-master-3.2/result/LINK_invent/BTK/process_docking_weight1_custom_sum_contain_oxygen_bond_distance_aromatic_linkinvent_7_9_3/rearranged_h_0107.sdf

> <i_m_source_file_index>
25

> <r_mmod_Potential_Energy-OPLS-2005>
-276.349884033203

> <r_mmod_Stretch_Energy-OPLS-2005>
67.0278854370117

> <r_mmod_Bend_Energy-OPLS-2005>
153.017349243164

> <r_mmod_Torsional_Energy-OPLS-2005>
203.160064697266

> <r_mmod_Improper_Torsional_Energy-OPLS-2005>
5.06346845626831

> <r_mmod_Van_der_Waal_Energy-OPLS-2005>
159.106842041016

> <r_mmod_Electrostatic_Energy-OPLS-2005>
-674.57958984375

> <r_mmod_Solvation_Energy-OPLS-2005>
-220.377853393555

> <b_mmod_Minimization_Converged-OPLS-2005>
0

> <r_mmod_RMS_Derivative-OPLS-2005>
3.59281826019287

$$$$
25
                    3D
 Structure written by MMmdl.
168176  0  0  1  0            999 V2000
  -30.5870  -14.7333   20.5106 C   0  0  0  0  0  0
  -30.4509  -12.4510   19.4698 C   0  0  0  0  0  0
  -29.5119  -12.4632   18.2395 C   0  0  0  0  0  0
  -28.0492  -12.2566   18.6808 C   0  0  0  0  0  0
  -27.6443  -13.2034   19.8420 C   0  0  2  0  0  0
  -28.6847  -13.1293   20.9807 C   0  0  0  0  0  0
  -25.2565  -13.8121   20.5675 C   0  0  0  0  0  0
  -24.1827  -13.0435   20.9176 C   0  0  0  0  0  0
  -24.6349  -11.6885   20.8752 C   0  0  0  0  0  0
  -23.9030  -10.4288   21.0419 C   0  0  0  0  0  0
  -24.3586   -9.4207   21.9209 C   0  0  0  0  0  0
  -23.6259   -8.2242   22.0774 C   0  0  0  0  0  0
  -22.4255   -8.0284   21.3546 C   0  0  0  0  0  0
  -21.9896   -9.0248   20.4645 C   0  0  0  0  0  0
  -22.7210  -10.2123   20.3053 C   0  0  0  0  0  0
  -21.6842   -6.0721   22.5273 C   0  0  0  0  0  0
  -21.4005   -6.5631   23.8212 C   0  0  0  0  0  0
  -21.3658   -5.6790   24.9175 C   0  0  0  0  0  0
  -21.6041   -4.3048   24.7229 C   0  0  0  0  0  0
  -21.8818   -3.8136   23.4347 C   0  0  0  0  0  0
  -21.9189   -4.6944   22.3403 C   0  0  0  0  0  0
  -22.7850  -13.5244   21.1851 C   0  0  0  0  0  0
  -22.1667   -4.2138   21.0980 F   0  0  0  0  0  0
  -21.5628   -3.4536   25.7739 F   0  0  0  0  0  0
  -29.9874  -13.4987   20.4060 N   0  0  0  0  0  0
  -26.2955  -12.9276   20.3231 N   0  0  0  0  0  0
  -25.9269  -11.6462   20.5747 N   0  0  0  0  0  0
  -22.0474  -12.8235   22.0369 N   0  0  0  0  0  0
  -25.4332  -15.1847   20.4095 N   0  0  0  0  0  0
  -31.7723  -14.8962   20.2169 O   0  0  0  0  0  0
  -21.6624   -6.8866   21.4234 O   0  0  0  0  0  0
  -22.3577  -14.5576   20.6691 O   0  0  0  0  0  0
  -24.6317  -31.8605   23.2052 C   0  0  0  0  0  0
  -25.9169  -32.4783   23.8391 C   0  0  1  0  0  0
  -27.2479  -27.2787   20.1269 C   0  0  0  0  0  0
  -25.5953  -33.8581   24.2272 N   0  0  0  0  0  0
  -23.4292  -30.4810   21.5492 C   0  0  2  0  0  0
  -24.8837  -28.9341   20.1157 C   0  0  0  0  0  0
  -22.7541  -29.4603   22.4950 C   0  0  0  0  0  0
  -18.0319  -28.1328   22.8537 C   0  0  0  0  0  0
  -24.1502  -36.7294   23.2649 C   0  0  0  0  0  0
  -25.9793  -30.7667   21.4049 C   0  0  0  0  0  0
  -26.0534  -29.3983   20.7320 C   0  0  0  0  0  0
  -27.2310  -28.5810   20.7302 C   0  0  0  0  0  0
  -26.0553  -26.8903   19.4733 C   0  0  0  0  0  0
  -24.8916  -27.6843   19.4808 C   0  0  0  0  0  0
  -23.6508  -29.8176   20.1647 C   0  0  0  0  0  0
  -25.4147  -36.3069   24.0291 C   0  0  1  0  0  0
  -20.5932  -28.3686   23.1294 C   0  0  2  0  0  0
  -20.6833  -26.9416   22.5411 C   0  0  0  0  0  0
  -19.5792  -26.6345   21.5233 C   0  0  0  0  0  0
  -18.1966  -26.7887   22.1636 C   0  0  0  0  0  0
  -19.1567  -28.8826   23.2908 C   0  0  0  0  0  0
  -18.9460  -30.1429   23.8914 C   0  0  0  0  0  0
  -17.6453  -30.6545   24.0573 C   0  0  0  0  0  0
  -25.9077  -34.9444   23.5074 C   0  0  0  0  0  0
  -16.5357  -29.9008   23.6356 C   0  0  0  0  0  0
  -16.7306  -28.6426   23.0395 C   0  0  0  0  0  0
  -26.4491  -31.6628   25.0813 C   0  0  0  0  0  0
  -25.3678  -31.3705   26.1496 C   0  0  0  0  0  0
  -27.0441  -30.3066   24.6385 C   0  0  0  0  0  0
  -27.5983  -32.4443   25.7606 C   0  0  0  0  0  0
  -27.5590  -37.1801   24.8453 C   0  0  0  0  0  0
  -21.4251  -29.3025   22.3675 N   0  0  0  0  0  0
  -26.4344  -37.3744   23.9340 N   0  0  0  0  0  0
  -24.6962  -31.0534   22.1075 N   0  0  0  0  0  0
  -23.4235  -28.8179   23.3082 O   0  0  0  0  0  0
  -28.3745  -26.4192   20.2113 O   0  0  0  0  0  0
  -26.5663  -34.8906   22.4643 O   0  0  0  0  0  0
  -23.5447  -32.1497   23.7298 O   0  0  0  0  0  0
  -29.7043  -21.1102   20.5518 C   0  0  0  0  0  0
  -27.8509  -21.9559   19.2668 C   0  0  0  0  0  0
  -28.8980  -22.2613   20.1557 C   0  0  0  0  0  0
  -29.4433  -19.7607   20.0662 C   0  0  0  0  0  0
  -28.3321  -19.6649   19.2039 C   0  0  0  0  0  0
  -30.4637  -24.1554   21.0789 C   0  0  0  0  0  0
  -28.7690  -18.5514   16.4233 C   0  0  0  0  0  0
  -26.9198  -16.9660   17.1313 C   0  0  0  0  0  0
  -29.9199  -17.2434   21.2316 C   0  0  0  0  0  0
  -28.3384  -24.9732   19.7987 C   0  0  0  0  0  0
  -29.0248  -23.7801   20.6749 C   0  0  1  0  0  0
  -30.3404  -18.4321   20.2324 C   0  0  2  0  0  0
  -27.5471  -18.3510   17.3377 C   0  0  0  0  0  0
  -27.5771  -20.7175   18.8174 N   0  0  0  0  0  0
  -29.7466  -15.7958   20.7770 N   0  0  0  0  0  0
  -31.7639  -18.7457   20.4488 N   0  3  0  0  0  0
  -27.9932  -18.4290   18.6909 O   0  0  0  0  0  0
  -31.4858  -12.6001   19.1595 H   0  0  0  0  0  0
  -30.4227  -11.4762   19.9594 H   0  0  0  0  0  0
  -29.7984  -11.6730   17.5422 H   0  0  0  0  0  0
  -29.6081  -13.4058   17.6982 H   0  0  0  0  0  0
  -27.9691  -11.2233   19.0267 H   0  0  0  0  0  0
  -27.3613  -12.3423   17.8393 H   0  0  0  0  0  0
  -27.6437  -14.2139   19.4332 H   0  0  0  0  0  0
  -28.7233  -12.1197   21.3924 H   0  0  0  0  0  0
  -28.4037  -13.7768   21.8125 H   0  0  0  0  0  0
  -25.2706   -9.5685   22.4830 H   0  0  0  0  0  0
  -23.9947   -7.4638   22.7510 H   0  0  0  0  0  0
  -21.0839   -8.8752   19.8953 H   0  0  0  0  0  0
  -22.3664  -10.9665   19.6183 H   0  0  0  0  0  0
  -21.1995   -7.6144   23.9691 H   0  0  0  0  0  0
  -21.1491   -6.0532   25.9079 H   0  0  0  0  0  0
  -22.0597   -2.7604   23.2845 H   0  0  0  0  0  0
  -22.4079  -11.9868   22.4724 H   0  0  0  0  0  0
  -21.1100  -13.1298   22.2576 H   0  0  0  0  0  0
  -24.6586  -15.8320   20.5025 H   0  0  0  0  0  0
  -26.2772  -15.6216   20.0663 H   0  0  0  0  0  0
  -26.7324  -32.5415   23.1204 H   0  0  0  0  0  0
  -25.0014  -33.9703   25.0360 H   0  0  0  0  0  0
  -22.7216  -31.3014   21.4106 H   0  0  0  0  0  0
  -23.3762  -35.9621   23.3313 H   0  0  0  0  0  0
  -24.3598  -36.8960   22.2072 H   0  0  0  0  0  0
  -23.7285  -37.6483   23.6721 H   0  0  0  0  0  0
  -26.1524  -31.5476   20.6626 H   0  0  0  0  0  0
  -26.8376  -30.7858   22.0649 H   0  0  0  0  0  0
  -28.1270  -28.9300   21.2269 H   0  0  0  0  0  0
  -25.9716  -25.9573   18.9415 H   0  0  0  0  0  0
  -23.9986  -27.3156   18.9907 H   0  0  0  0  0  0
  -23.7724  -30.5954   19.4100 H   0  0  0  0  0  0
  -22.7700  -29.2489   19.8619 H   0  0  0  0  0  0
  -25.1349  -36.1890   25.0788 H   0  0  0  0  0  0
  -21.0079  -28.3269   24.1393 H   0  0  0  0  0  0
  -20.5889  -26.2248   23.3588 H   0  0  0  0  0  0
  -21.6669  -26.7553   22.1114 H   0  0  0  0  0  0
  -19.6959  -25.6255   21.1230 H   0  0  0  0  0  0
  -19.6668  -27.3191   20.6787 H   0  0  0  0  0  0
  -17.4278  -26.6716   21.3993 H   0  0  0  0  0  0
  -18.0344  -25.9944   22.8939 H   0  0  0  0  0  0
  -19.7933  -30.7254   24.2274 H   0  0  0  0  0  0
  -17.5013  -31.6253   24.5119 H   0  0  0  0  0  0
  -15.5362  -30.2902   23.7664 H   0  0  0  0  0  0
  -15.8715  -28.0734   22.7104 H   0  0  0  0  0  0
  -24.5739  -30.7256   25.7708 H   0  0  0  0  0  0
  -24.9017  -32.2873   26.5121 H   0  0  0  0  0  0
  -25.7969  -30.8626   27.0147 H   0  0  0  0  0  0
  -26.3140  -29.6744   24.1345 H   0  0  0  0  0  0
  -27.4034  -29.7390   25.4959 H   0  0  0  0  0  0
  -27.9009  -30.4333   23.9768 H   0  0  0  0  0  0
  -27.2491  -33.3704   26.2177 H   0  0  0  0  0  0
  -28.3774  -32.7122   25.0453 H   0  0  0  0  0  0
  -28.0702  -31.8652   26.5551 H   0  0  0  0  0  0
  -28.2572  -38.0134   24.7555 H   0  0  0  0  0  0
  -28.1129  -36.2656   24.6256 H   0  0  0  0  0  0
  -27.2274  -37.1414   25.8849 H   0  0  0  0  0  0
  -20.9449  -29.8667   21.6801 H   0  0  0  0  0  0
  -26.0200  -38.2808   24.1334 H   0  0  0  0  0  0
  -30.5426  -21.2618   21.2117 H   0  0  0  0  0  0
  -27.1778  -22.7169   18.9046 H   0  0  0  0  0  0
  -30.8874  -23.4640   21.8069 H   0  0  0  0  0  0
  -30.4643  -25.1344   21.5604 H   0  0  0  0  0  0
  -31.1327  -24.2097   20.2188 H   0  0  0  0  0  0
  -28.4798  -18.6418   15.3758 H   0  0  0  0  0  0
  -29.4582  -17.7113   16.5053 H   0  0  0  0  0  0
  -29.3245  -19.4526   16.6882 H   0  0  0  0  0  0
  -26.4888  -16.8724   16.1324 H   0  0  0  0  0  0
  -26.1161  -16.7798   17.8467 H   0  0  0  0  0  0
  -27.6658  -16.1810   17.2530 H   0  0  0  0  0  0
  -28.9490  -17.5239   21.6445 H   0  0  0  0  0  0
  -30.5896  -17.2405   22.0937 H   0  0  0  0  0  0
  -27.3023  -24.6646   19.7132 H   0  0  0  0  0  0
  -28.7671  -24.9317   18.7926 H   0  0  0  0  0  0
  -28.4601  -23.7790   21.6101 H   0  0  0  0  0  0
  -30.3356  -17.9764   19.2408 H   0  0  0  0  0  0
  -26.7867  -19.1004   17.1242 H   0  0  0  0  0  0
  -28.7873  -15.4898   20.8405 H   0  0  0  0  0  0
  -31.9203  -19.2075   21.3260 H   0  0  0  0  0  0
  -32.1444  -19.3016   19.7042 H   0  0  0  0  0  0
  -32.2763  -17.8815   20.4675 H   0  0  0  0  0  0
  1 25  1  0  0  0
  1 30  2  0  0  0
  1 85  1  0  0  0
  2  3  1  0  0  0
  2 25  1  0  0  0
  2 88  1  0  0  0
  2 89  1  0  0  0
  3  4  1  0  0  0
  3 90  1  0  0  0
  3 91  1  0  0  0
  4  5  1  0  0  0
  4 92  1  0  0  0
  4 93  1  0  0  0
  5  6  1  0  0  0
  5 26  1  0  0  0
  5 94  1  0  0  0
  6 25  1  0  0  0
  6 95  1  0  0  0
  6 96  1  0  0  0
  7  8  2  0  0  0
  7 26  1  0  0  0
  7 29  1  0  0  0
  8  9  1  0  0  0
  8 22  1  0  0  0
  9 10  1  0  0  0
  9 27  2  0  0  0
 10 11  2  0  0  0
 10 15  1  0  0  0
 11 12  1  0  0  0
 11 97  1  0  0  0
 12 13  2  0  0  0
 12 98  1  0  0  0
 13 14  1  0  0  0
 13 31  1  0  0  0
 14 15  2  0  0  0
 14 99  1  0  0  0
 15100  1  0  0  0
 16 17  2  0  0  0
 16 21  1  0  0  0
 16 31  1  0  0  0
 17 18  1  0  0  0
 17101  1  0  0  0
 18 19  2  0  0  0
 18102  1  0  0  0
 19 20  1  0  0  0
 19 24  1  0  0  0
 20 21  2  0  0  0
 20103  1  0  0  0
 21 23  1  0  0  0
 22 28  1  0  0  0
 22 32  2  0  0  0
 26 27  1  0  0  0
 28104  1  0  0  0
 28105  1  0  0  0
 29106  1  0  0  0
 29107  1  0  0  0
 33 34  1  0  0  0
 33 66  1  0  0  0
 33 70  2  0  0  0
 34 36  1  0  0  0
 34 59  1  0  0  0
 34108  1  0  0  0
 35 44  2  0  0  0
 35 45  1  0  0  0
 35 68  1  0  0  0
 36 56  1  0  0  0
 36109  1  0  0  0
 37 39  1  0  0  0
 37 47  1  0  0  0
 37 66  1  0  0  0
 37110  1  0  0  0
 38 43  2  0  0  0
 38 46  1  0  0  0
 38 47  1  0  0  0
 39 64  1  0  0  0
 39 67  2  0  0  0
 40 52  1  0  0  0
 40 53  2  0  0  0
 40 58  1  0  0  0
 41111  1  0  0  0
 41112  1  0  0  0
 41113  1  0  0  0
 41 48  1  0  0  0
 42 43  1  0  0  0
 42 66  1  0  0  0
 42114  1  0  0  0
 42115  1  0  0  0
 43 44  1  0  0  0
 44116  1  0  0  0
 45 46  2  0  0  0
 45117  1  0  0  0
 46118  1  0  0  0
 47119  1  0  0  0
 47120  1  0  0  0
 48 56  1  0  0  0
 48 65  1  0  0  0
 48121  1  0  0  0
 49 50  1  0  0  0
 49 53  1  0  0  0
 49 64  1  0  0  0
 49122  1  0  0  0
 50 51  1  0  0  0
 50123  1  0  0  0
 50124  1  0  0  0
 51 52  1  0  0  0
 51125  1  0  0  0
 51126  1  0  0  0
 52127  1  0  0  0
 52128  1  0  0  0
 53 54  1  0  0  0
 54 55  2  0  0  0
 54129  1  0  0  0
 55 57  1  0  0  0
 55130  1  0  0  0
 56 69  2  0  0  0
 57 58  2  0  0  0
 57131  1  0  0  0
 58132  1  0  0  0
 59 60  1  0  0  0
 59 61  1  0  0  0
 59 62  1  0  0  0
 60133  1  0  0  0
 60134  1  0  0  0
 60135  1  0  0  0
 61136  1  0  0  0
 61137  1  0  0  0
 61138  1  0  0  0
 62139  1  0  0  0
 62140  1  0  0  0
 62141  1  0  0  0
 63 65  1  0  0  0
 63142  1  0  0  0
 63143  1  0  0  0
 63144  1  0  0  0
 64145  1  0  0  0
 65146  1  0  0  0
 68 80  1  0  0  0
 71 73  2  0  0  0
 71 74  1  0  0  0
 71147  1  0  0  0
 72 73  1  0  0  0
 72 84  2  0  0  0
 72148  1  0  0  0
 73 81  1  0  0  0
 74 75  2  0  0  0
 74 82  1  0  0  0
 75 84  1  0  0  0
 75 87  1  0  0  0
 76149  1  0  0  0
 76150  1  0  0  0
 76151  1  0  0  0
 76 81  1  0  0  0
 77152  1  0  0  0
 77153  1  0  0  0
 77154  1  0  0  0
 77 83  1  0  0  0
 78 83  1  0  0  0
 78155  1  0  0  0
 78156  1  0  0  0
 78157  1  0  0  0
 79 82  1  0  0  0
 79 85  1  0  0  0
 79158  1  0  0  0
 79159  1  0  0  0
 80 81  1  0  0  0
 80160  1  0  0  0
 80161  1  0  0  0
 81162  1  0  0  0
 82 86  1  0  0  0
 82163  1  0  0  0
 83 87  1  0  0  0
 83164  1  0  0  0
 85165  1  0  0  0
 86166  1  0  0  0
 86167  1  0  0  0
 86168  1  0  0  0
M  CHG  1  86   1
M  ISO  4   1 100  68 101  80 101  85 100
M  END
> <chiral flag>
0

> <version>
0

> <s_m_source_file>
/data/baiqing/PycharmProjects/Reinvent-master-3.2/result/LINK_invent/BTK/process_docking_weight1_custom_sum_contain_oxygen_bond_distance_aromatic_linkinvent_7_9_3/rearranged_h_0107.sdf

> <i_m_source_file_index>
26

> <r_mmod_Potential_Energy-OPLS-2005>
-236.893768310547

> <r_mmod_Stretch_Energy-OPLS-2005>
129.835494995117

> <r_mmod_Bend_Energy-OPLS-2005>
199.947219848633

> <r_mmod_Torsional_Energy-OPLS-2005>
253.510635375977

> <r_mmod_Improper_Torsional_Energy-OPLS-2005>
5.13148880004883

> <r_mmod_Van_der_Waal_Energy-OPLS-2005>
142.388259887695

> <r_mmod_Electrostatic_Energy-OPLS-2005>
-572.115600585938

> <r_mmod_Solvation_Energy-OPLS-2005>
-477.988739013672

> <b_mmod_Minimization_Converged-OPLS-2005>
0

> <r_mmod_RMS_Derivative-OPLS-2005>
5.73673295974731

$$$$
26
                    3D
 Structure written by MMmdl.
158165  0  0  1  0            999 V2000
  -30.4511  -15.2007   20.3629 C   0  0  0  0  0  0
  -30.4453  -12.7543   19.5422 C   0  0  0  0  0  0
  -29.5486  -12.5810   18.2922 C   0  0  0  0  0  0
  -28.0899  -12.3132   18.7039 C   0  0  0  0  0  0
  -27.6233  -13.2714   19.8299 C   0  0  2  0  0  0
  -28.6532  -13.4093   20.9729 C   0  0  0  0  0  0
  -25.2440  -13.8251   20.5701 C   0  0  0  0  0  0
  -24.1778  -13.0447   20.9213 C   0  0  0  0  0  0
  -24.6425  -11.6942   20.8735 C   0  0  0  0  0  0
  -23.9103  -10.4304   21.0379 C   0  0  0  0  0  0
  -24.3644   -9.4220   21.9166 C   0  0  0  0  0  0
  -23.6315   -8.2254   22.0746 C   0  0  0  0  0  0
  -22.4305   -8.0294   21.3529 C   0  0  0  0  0  0
  -21.9936   -9.0274   20.4625 C   0  0  0  0  0  0
  -22.7273  -10.2143   20.3030 C   0  0  0  0  0  0
  -21.6866   -6.0740   22.5283 C   0  0  0  0  0  0
  -21.4021   -6.5633   23.8222 C   0  0  0  0  0  0
  -21.3652   -5.6776   24.9168 C   0  0  0  0  0  0
  -21.6038   -4.3039   24.7216 C   0  0  0  0  0  0
  -21.8814   -3.8144   23.4331 C   0  0  0  0  0  0
  -21.9194   -4.6967   22.3394 C   0  0  0  0  0  0
  -22.7785  -13.5216   21.1845 C   0  0  0  0  0  0
  -22.1660   -4.2142   21.0974 F   0  0  0  0  0  0
  -21.5630   -3.4522   25.7723 F   0  0  0  0  0  0
  -29.9049  -13.8918   20.3700 N   0  0  0  0  0  0
  -26.2873  -12.9509   20.3193 N   0  0  0  0  0  0
  -25.9367  -11.6625   20.5689 N   0  0  0  0  0  0
  -22.0409  -12.8237   22.0396 N   0  0  0  0  0  0
  -25.4099  -15.1989   20.4125 N   0  0  0  0  0  0
  -31.6498  -15.2319   20.0519 O   0  0  0  0  0  0
  -21.6648   -6.8903   21.4255 O   0  0  0  0  0  0
  -22.3470  -14.5511   20.6649 O   0  0  0  0  0  0
  -24.6577  -31.8284   23.1756 C   0  0  0  0  0  0
  -25.9291  -32.4618   23.8200 C   0  0  1  0  0  0
  -27.2207  -26.9779   20.1683 C   0  0  0  0  0  0
  -25.5969  -33.8425   24.2111 N   0  0  0  0  0  0
  -23.4703  -30.4421   21.5229 C   0  0  2  0  0  0
  -24.9231  -28.8358   20.1101 C   0  0  0  0  0  0
  -22.7638  -29.4472   22.4805 C   0  0  0  0  0  0
  -18.0305  -28.1401   22.8464 C   0  0  0  0  0  0
  -24.1492  -36.7212   23.2647 C   0  0  0  0  0  0
  -26.0358  -30.6481   21.4006 C   0  0  0  0  0  0
  -26.1037  -29.2428   20.7436 C   0  0  0  0  0  0
  -27.2450  -28.3305   20.7552 C   0  0  0  0  0  0
  -26.0157  -26.7150   19.4799 C   0  0  0  0  0  0
  -24.9009  -27.5908   19.4606 C   0  0  0  0  0  0
  -23.7074  -29.7587   20.1478 C   0  0  0  0  0  0
  -25.4132  -36.2991   24.0312 C   0  0  1  0  0  0
  -20.5933  -28.3757   23.1190 C   0  0  2  0  0  0
  -20.6788  -26.9444   22.5398 C   0  0  0  0  0  0
  -19.5770  -26.6382   21.5205 C   0  0  0  0  0  0
  -18.1947  -26.7937   22.1606 C   0  0  0  0  0  0
  -19.1567  -28.8889   23.2812 C   0  0  0  0  0  0
  -18.9479  -30.1481   23.8856 C   0  0  0  0  0  0
  -17.6482  -30.6602   24.0548 C   0  0  0  0  0  0
  -25.9090  -34.9373   23.5037 C   0  0  0  0  0  0
  -16.5365  -29.9098   23.6341 C   0  0  0  0  0  0
  -16.7294  -28.6506   23.0375 C   0  0  0  0  0  0
  -26.4554  -31.6543   25.0711 C   0  0  0  0  0  0
  -25.3694  -31.3758   26.1379 C   0  0  0  0  0  0
  -27.0444  -30.2915   24.6412 C   0  0  0  0  0  0
  -27.6058  -32.4335   25.7499 C   0  0  0  0  0  0
  -27.5583  -37.1759   24.8462 C   0  0  0  0  0  0
  -21.4312  -29.3064   22.3546 N   0  0  0  0  0  0
  -26.4281  -37.3727   23.9420 N   0  0  0  0  0  0
  -24.7428  -30.9992   22.0873 N   0  0  0  0  0  0
  -23.4203  -28.8044   23.3028 O   0  0  0  0  0  0
  -28.2351  -25.9033   20.2709 O   0  0  0  0  0  0
  -26.5693  -34.8904   22.4627 O   0  0  0  0  0  0
  -23.5663  -32.1230   23.6888 O   0  0  0  0  0  0
  -30.3245  -23.2721   20.7400 C   0  0  0  0  0  0
  -27.6218  -20.9622   19.1133 C   0  0  0  0  0  0
  -28.1047  -19.2600   21.6235 C   0  0  0  0  0  0
  -30.5072  -19.8596   21.5890 C   0  0  0  0  0  0
  -29.7117  -18.0044   19.9557 C   0  0  0  0  0  0
  -28.0855  -24.3177   19.9122 C   0  0  0  0  0  0
  -28.8668  -22.8371   20.5300 C   0  0  1  0  0  0
  -28.9148  -21.1498   19.9188 C   0  0  1  0  0  0
  -29.2929  -19.5718   20.6967 C   0  0  0  0  0  0
  -29.6700  -16.4398   20.5081 N   0  0  0  0  0  0
  -31.4734  -12.9357   19.2271 H   0  0  0  0  0  0
  -30.4824  -11.8329   20.1266 H   0  0  0  0  0  0
  -29.9270  -11.7747   17.6621 H   0  0  0  0  0  0
  -29.5966  -13.4892   17.6902 H   0  0  0  0  0  0
  -28.0297  -11.2820   19.0521 H   0  0  0  0  0  0
  -27.4315  -12.3814   17.8365 H   0  0  0  0  0  0
  -27.5547  -14.2509   19.3562 H   0  0  0  0  0  0
  -28.7936  -12.4641   21.5000 H   0  0  0  0  0  0
  -28.3033  -14.1265   21.7153 H   0  0  0  0  0  0
  -25.2779   -9.5702   22.4741 H   0  0  0  0  0  0
  -24.0012   -7.4660   22.7490 H   0  0  0  0  0  0
  -21.0851   -8.8805   19.8952 H   0  0  0  0  0  0
  -22.3740  -10.9687   19.6133 H   0  0  0  0  0  0
  -21.2031   -7.6140   23.9720 H   0  0  0  0  0  0
  -21.1479   -6.0499   25.9071 H   0  0  0  0  0  0
  -22.0608   -2.7608   23.2813 H   0  0  0  0  0  0
  -22.4006  -11.9945   22.4876 H   0  0  0  0  0  0
  -21.1007  -13.1279   22.2521 H   0  0  0  0  0  0
  -24.6409  -15.8522   20.5173 H   0  0  0  0  0  0
  -26.2539  -15.6357   20.0683 H   0  0  0  0  0  0
  -26.7352  -32.5157   23.0904 H   0  0  0  0  0  0
  -25.0098  -33.9508   25.0251 H   0  0  0  0  0  0
  -22.7821  -31.2729   21.3561 H   0  0  0  0  0  0
  -23.3794  -35.9502   23.3255 H   0  0  0  0  0  0
  -24.3584  -36.8908   22.2076 H   0  0  0  0  0  0
  -23.7204  -37.6369   23.6721 H   0  0  0  0  0  0
  -26.2128  -31.3925   20.6234 H   0  0  0  0  0  0
  -26.8962  -30.7013   22.0551 H   0  0  0  0  0  0
  -28.1344  -28.6355   21.2896 H   0  0  0  0  0  0
  -25.9022  -25.7675   18.9743 H   0  0  0  0  0  0
  -24.0036  -27.2757   18.9445 H   0  0  0  0  0  0
  -23.8584  -30.5271   19.3887 H   0  0  0  0  0  0
  -22.8174  -29.2110   19.8335 H   0  0  0  0  0  0
  -25.1326  -36.1797   25.0801 H   0  0  0  0  0  0
  -21.0005  -28.3363   24.1321 H   0  0  0  0  0  0
  -20.5665  -26.2382   23.3640 H   0  0  0  0  0  0
  -21.6657  -26.7431   22.1214 H   0  0  0  0  0  0
  -19.6939  -25.6280   21.1275 H   0  0  0  0  0  0
  -19.6713  -27.3154   20.6704 H   0  0  0  0  0  0
  -17.4224  -26.6677   21.4004 H   0  0  0  0  0  0
  -18.0342  -26.0081   22.9000 H   0  0  0  0  0  0
  -19.7957  -30.7282   24.2230 H   0  0  0  0  0  0
  -17.5045  -31.6284   24.5153 H   0  0  0  0  0  0
  -15.5370  -30.2993   23.7694 H   0  0  0  0  0  0
  -15.8688  -28.0814   22.7138 H   0  0  0  0  0  0
  -24.5887  -30.7103   25.7678 H   0  0  0  0  0  0
  -24.8872  -32.2946   26.4725 H   0  0  0  0  0  0
  -25.7949  -30.8970   27.0211 H   0  0  0  0  0  0
  -26.3098  -29.6595   24.1415 H   0  0  0  0  0  0
  -27.3986  -29.7274   25.5050 H   0  0  0  0  0  0
  -27.9037  -30.4108   23.9810 H   0  0  0  0  0  0
  -27.2644  -33.3675   26.1970 H   0  0  0  0  0  0
  -28.3921  -32.6835   25.0361 H   0  0  0  0  0  0
  -28.0673  -31.8532   26.5501 H   0  0  0  0  0  0
  -28.2562  -38.0097   24.7570 H   0  0  0  0  0  0
  -28.1116  -36.2631   24.6207 H   0  0  0  0  0  0
  -27.2305  -37.1309   25.8862 H   0  0  0  0  0  0
  -20.9553  -29.8759   21.6682 H   0  0  0  0  0  0
  -26.0138  -38.2782   24.1448 H   0  0  0  0  0  0
  -30.3751  -24.2628   21.1930 H   0  0  0  0  0  0
  -30.8597  -23.3215   19.7915 H   0  0  0  0  0  0
  -30.8680  -22.5978   21.3964 H   0  0  0  0  0  0
  -27.5088  -21.7457   18.3635 H   0  0  0  0  0  0
  -26.7412  -20.9929   19.7568 H   0  0  0  0  0  0
  -27.6191  -20.0089   18.5840 H   0  0  0  0  0  0
  -28.3222  -18.4300   22.2964 H   0  0  0  0  0  0
  -27.2147  -18.9877   21.0544 H   0  0  0  0  0  0
  -27.8497  -20.1218   22.2393 H   0  0  0  0  0  0
  -30.8046  -18.9778   22.1572 H   0  0  0  0  0  0
  -30.3021  -20.6504   22.3109 H   0  0  0  0  0  0
  -31.3630  -20.1623   20.9831 H   0  0  0  0  0  0
  -30.7029  -18.1234   19.5153 H   0  0  0  0  0  0
  -29.0617  -17.9509   19.0819 H   0  0  0  0  0  0
  -27.0189  -24.1121   19.9884 H   0  0  0  0  0  0
  -28.2808  -24.2984   18.8397 H   0  0  0  0  0  0
  -28.4403  -22.7372   21.5289 H   0  0  0  0  0  0
  -29.6906  -21.2089   19.1529 H   0  0  0  0  0  0
  -28.7584  -16.2220   20.8834 H   0  0  0  0  0  0
  1 25  1  0  0  0
  1 30  2  0  0  0
  1 80  1  0  0  0
  2  3  1  0  0  0
  2 25  1  0  0  0
  2 81  1  0  0  0
  2 82  1  0  0  0
  3  4  1  0  0  0
  3 83  1  0  0  0
  3 84  1  0  0  0
  4  5  1  0  0  0
  4 85  1  0  0  0
  4 86  1  0  0  0
  5  6  1  0  0  0
  5 26  1  0  0  0
  5 87  1  0  0  0
  6 25  1  0  0  0
  6 88  1  0  0  0
  6 89  1  0  0  0
  7  8  2  0  0  0
  7 26  1  0  0  0
  7 29  1  0  0  0
  8  9  1  0  0  0
  8 22  1  0  0  0
  9 10  1  0  0  0
  9 27  2  0  0  0
 10 11  2  0  0  0
 10 15  1  0  0  0
 11 12  1  0  0  0
 11 90  1  0  0  0
 12 13  2  0  0  0
 12 91  1  0  0  0
 13 14  1  0  0  0
 13 31  1  0  0  0
 14 15  2  0  0  0
 14 92  1  0  0  0
 15 93  1  0  0  0
 16 17  2  0  0  0
 16 21  1  0  0  0
 16 31  1  0  0  0
 17 18  1  0  0  0
 17 94  1  0  0  0
 18 19  2  0  0  0
 18 95  1  0  0  0
 19 20  1  0  0  0
 19 24  1  0  0  0
 20 21  2  0  0  0
 20 96  1  0  0  0
 21 23  1  0  0  0
 22 28  1  0  0  0
 22 32  2  0  0  0
 26 27  1  0  0  0
 28 97  1  0  0  0
 28 98  1  0  0  0
 29 99  1  0  0  0
 29100  1  0  0  0
 33 34  1  0  0  0
 33 66  1  0  0  0
 33 70  2  0  0  0
 34 36  1  0  0  0
 34 59  1  0  0  0
 34101  1  0  0  0
 35 44  2  0  0  0
 35 45  1  0  0  0
 35 68  1  0  0  0
 36 56  1  0  0  0
 36102  1  0  0  0
 37 39  1  0  0  0
 37 47  1  0  0  0
 37 66  1  0  0  0
 37103  1  0  0  0
 38 43  2  0  0  0
 38 46  1  0  0  0
 38 47  1  0  0  0
 39 64  1  0  0  0
 39 67  2  0  0  0
 40 52  1  0  0  0
 40 53  2  0  0  0
 40 58  1  0  0  0
 41104  1  0  0  0
 41105  1  0  0  0
 41106  1  0  0  0
 41 48  1  0  0  0
 42 43  1  0  0  0
 42 66  1  0  0  0
 42107  1  0  0  0
 42108  1  0  0  0
 43 44  1  0  0  0
 44109  1  0  0  0
 45 46  2  0  0  0
 45110  1  0  0  0
 46111  1  0  0  0
 47112  1  0  0  0
 47113  1  0  0  0
 48 56  1  0  0  0
 48 65  1  0  0  0
 48114  1  0  0  0
 49 50  1  0  0  0
 49 53  1  0  0  0
 49 64  1  0  0  0
 49115  1  0  0  0
 50 51  1  0  0  0
 50116  1  0  0  0
 50117  1  0  0  0
 51 52  1  0  0  0
 51118  1  0  0  0
 51119  1  0  0  0
 52120  1  0  0  0
 52121  1  0  0  0
 53 54  1  0  0  0
 54 55  2  0  0  0
 54122  1  0  0  0
 55 57  1  0  0  0
 55123  1  0  0  0
 56 69  2  0  0  0
 57 58  2  0  0  0
 57124  1  0  0  0
 58125  1  0  0  0
 59 60  1  0  0  0
 59 61  1  0  0  0
 59 62  1  0  0  0
 60126  1  0  0  0
 60127  1  0  0  0
 60128  1  0  0  0
 61129  1  0  0  0
 61130  1  0  0  0
 61131  1  0  0  0
 62132  1  0  0  0
 62133  1  0  0  0
 62134  1  0  0  0
 63 65  1  0  0  0
 63135  1  0  0  0
 63136  1  0  0  0
 63137  1  0  0  0
 64138  1  0  0  0
 65139  1  0  0  0
 68 76  1  0  0  0
 71140  1  0  0  0
 71141  1  0  0  0
 71142  1  0  0  0
 71 77  1  0  0  0
 72143  1  0  0  0
 72144  1  0  0  0
 72145  1  0  0  0
 72 78  1  0  0  0
 73146  1  0  0  0
 73147  1  0  0  0
 73148  1  0  0  0
 73 79  1  0  0  0
 74 79  1  0  0  0
 74149  1  0  0  0
 74150  1  0  0  0
 74151  1  0  0  0
 75 79  1  0  0  0
 75 80  1  0  0  0
 75152  1  0  0  0
 75153  1  0  0  0
 76 77  1  0  0  0
 76154  1  0  0  0
 76155  1  0  0  0
 77 78  1  0  0  0
 77156  1  0  0  0
 78 79  1  0  0  0
 78157  1  0  0  0
 80158  1  0  0  0
M  ISO  4   1 100  68 101  76 101  80 100
M  END
> <chiral flag>
0

> <version>
0

> <s_m_source_file>
/data/baiqing/PycharmProjects/Reinvent-master-3.2/result/LINK_invent/BTK/process_docking_weight1_custom_sum_contain_oxygen_bond_distance_aromatic_linkinvent_7_9_3/rearranged_h_0107.sdf

> <i_m_source_file_index>
27

> <r_mmod_Potential_Energy-OPLS-2005>
1145.55822753906

> <r_mmod_Stretch_Energy-OPLS-2005>
573.310852050781

> <r_mmod_Bend_Energy-OPLS-2005>
422.205139160156

> <r_mmod_Torsional_Energy-OPLS-2005>
254.390899658203

> <r_mmod_Improper_Torsional_Energy-OPLS-2005>
4.68122529983521

> <r_mmod_Van_der_Waal_Energy-OPLS-2005>
104.975257873535

> <r_mmod_Electrostatic_Energy-OPLS-2005>
-405.345550537109

> <r_mmod_Solvation_Energy-OPLS-2005>
-199.598831176758

> <b_mmod_Minimization_Converged-OPLS-2005>
0

> <r_mmod_RMS_Derivative-OPLS-2005>
2.61277675628662

$$$$
27
                    3D
 Structure written by MMmdl.
149156  0  0  1  0            999 V2000
  -30.2953  -15.5484   20.3370 C   0  0  0  0  0  0
  -30.4237  -13.0215   19.4998 C   0  0  0  0  0  0
  -29.5242  -12.6149   18.2974 C   0  0  0  0  0  0
  -28.1056  -12.2682   18.7760 C   0  0  0  0  0  0
  -27.5956  -13.2872   19.8196 C   0  0  2  0  0  0
  -28.6274  -13.5610   20.9349 C   0  0  0  0  0  0
  -25.2330  -13.8249   20.5810 C   0  0  0  0  0  0
  -24.1672  -13.0411   20.9299 C   0  0  0  0  0  0
  -24.6346  -11.6917   20.8775 C   0  0  0  0  0  0
  -23.9034  -10.4262   21.0410 C   0  0  0  0  0  0
  -24.3575   -9.4198   21.9198 C   0  0  0  0  0  0
  -23.6244   -8.2229   22.0771 C   0  0  0  0  0  0
  -22.4237   -8.0243   21.3545 C   0  0  0  0  0  0
  -21.9873   -9.0219   20.4657 C   0  0  0  0  0  0
  -22.7201  -10.2106   20.3074 C   0  0  0  0  0  0
  -21.6846   -6.0679   22.5259 C   0  0  0  0  0  0
  -21.4021   -6.5604   23.8181 C   0  0  0  0  0  0
  -21.3662   -5.6776   24.9157 C   0  0  0  0  0  0
  -21.6059   -4.3033   24.7233 C   0  0  0  0  0  0
  -21.8813   -3.8103   23.4355 C   0  0  0  0  0  0
  -21.9187   -4.6906   22.3398 C   0  0  0  0  0  0
  -22.7717  -13.5193   21.1908 C   0  0  0  0  0  0
  -22.1654   -4.2088   21.0975 F   0  0  0  0  0  0
  -21.5629   -3.4525   25.7752 F   0  0  0  0  0  0
  -29.7907  -14.1846   20.2666 N   0  0  0  0  0  0
  -26.2743  -12.9525   20.3291 N   0  0  0  0  0  0
  -25.9295  -11.6615   20.5759 N   0  0  0  0  0  0
  -22.0344  -12.8201   22.0470 N   0  0  0  0  0  0
  -25.4018  -15.1961   20.4214 N   0  0  0  0  0  0
  -31.5347  -15.5187   20.1989 O   0  0  0  0  0  0
  -21.6631   -6.8824   21.4215 O   0  0  0  0  0  0
  -22.3419  -14.5471   20.6719 O   0  0  0  0  0  0
  -24.6783  -31.8125   23.1501 C   0  0  0  0  0  0
  -25.9409  -32.4529   23.8032 C   0  0  1  0  0  0
  -27.2192  -26.7421   20.2199 C   0  0  0  0  0  0
  -25.6033  -33.8345   24.1957 N   0  0  0  0  0  0
  -23.5002  -30.4105   21.5064 C   0  0  2  0  0  0
  -24.9553  -28.7514   20.1280 C   0  0  0  0  0  0
  -22.7755  -29.4363   22.4696 C   0  0  0  0  0  0
  -18.0357  -28.1400   22.8398 C   0  0  0  0  0  0
  -24.1544  -36.7190   23.2632 C   0  0  0  0  0  0
  -26.0791  -30.5522   21.4140 C   0  0  0  0  0  0
  -26.1442  -29.1169   20.7697 C   0  0  0  0  0  0
  -27.2631  -28.1383   20.7882 C   0  0  0  0  0  0
  -25.9984  -26.5722   19.5194 C   0  0  0  0  0  0
  -24.9178  -27.4999   19.4860 C   0  0  0  0  0  0
  -23.7521  -29.7043   20.1438 C   0  0  0  0  0  0
  -25.4198  -36.2942   24.0262 C   0  0  1  0  0  0
  -20.5974  -28.3817   23.1080 C   0  0  2  0  0  0
  -20.6875  -26.9492   22.5348 C   0  0  0  0  0  0
  -19.5873  -26.6388   21.5149 C   0  0  0  0  0  0
  -18.2027  -26.7917   22.1539 C   0  0  0  0  0  0
  -19.1614  -28.8924   23.2702 C   0  0  0  0  0  0
  -18.9529  -30.1477   23.8781 C   0  0  0  0  0  0
  -17.6533  -30.6571   24.0549 C   0  0  0  0  0  0
  -25.9158  -34.9320   23.4943 C   0  0  0  0  0  0
  -16.5418  -29.9071   23.6338 C   0  0  0  0  0  0
  -16.7338  -28.6498   23.0337 C   0  0  0  0  0  0
  -26.4617  -31.6511   25.0612 C   0  0  0  0  0  0
  -25.3601  -31.3798   26.1135 C   0  0  0  0  0  0
  -27.0547  -30.2853   24.6484 C   0  0  0  0  0  0
  -27.6109  -32.4332   25.7421 C   0  0  0  0  0  0
  -27.5613  -37.1750   24.8454 C   0  0  0  0  0  0
  -21.4412  -29.3072   22.3431 N   0  0  0  0  0  0
  -26.4346  -37.3679   23.9369 N   0  0  0  0  0  0
  -24.7752  -30.9563   22.0753 N   0  0  0  0  0  0
  -23.4216  -28.7929   23.3010 O   0  0  0  0  0  0
  -28.1909  -25.5440   20.2883 O   0  0  0  0  0  0
  -26.5811  -34.8883   22.4567 O   0  0  0  0  0  0
  -23.5810  -32.1199   23.6458 O   0  0  0  0  0  0
  -26.9525  -23.7289   21.4196 C   0  0  0  0  0  0
  -28.9199  -22.1530   20.4019 C   0  0  0  0  0  0
  -29.6939  -18.6392   20.4376 C   0  0  0  0  0  0
  -28.6737  -20.2528   20.1862 C   0  0  1  0  0  0
  -27.9591  -23.8147   20.2620 C   0  0  2  0  0  0
  -29.5094  -16.8825   20.3715 N   0  0  0  0  0  0
  -27.3100  -19.9535   20.6588 N   0  3  0  0  0  0
  -31.4052  -13.2972   19.1149 H   0  0  0  0  0  0
  -30.6045  -12.1616   20.1465 H   0  0  0  0  0  0
  -29.9485  -11.7633   17.7649 H   0  0  0  0  0  0
  -29.4803  -13.4352   17.5765 H   0  0  0  0  0  0
  -28.1502  -11.2819   19.2395 H   0  0  0  0  0  0
  -27.4134  -12.1792   17.9364 H   0  0  0  0  0  0
  -27.4728  -14.2179   19.2648 H   0  0  0  0  0  0
  -28.8897  -12.6419   21.4624 H   0  0  0  0  0  0
  -28.2264  -14.2437   21.6850 H   0  0  0  0  0  0
  -25.2671   -9.5676   22.4829 H   0  0  0  0  0  0
  -23.9915   -7.4627   22.7531 H   0  0  0  0  0  0
  -21.0785   -8.8732   19.8973 H   0  0  0  0  0  0
  -22.3602  -10.9654   19.6208 H   0  0  0  0  0  0
  -21.2019   -7.6114   23.9666 H   0  0  0  0  0  0
  -21.1509   -6.0517   25.9064 H   0  0  0  0  0  0
  -22.0594   -2.7561   23.2884 H   0  0  0  0  0  0
  -22.3896  -11.9840   22.4869 H   0  0  0  0  0  0
  -21.0991  -13.1321   22.2707 H   0  0  0  0  0  0
  -24.6336  -15.8521   20.5127 H   0  0  0  0  0  0
  -26.2374  -15.6123   20.0344 H   0  0  0  0  0  0
  -26.7478  -32.5039   23.0725 H   0  0  0  0  0  0
  -25.0111  -33.9455   25.0064 H   0  0  0  0  0  0
  -22.8150  -31.2395   21.3144 H   0  0  0  0  0  0
  -23.3851  -35.9472   23.3269 H   0  0  0  0  0  0
  -24.3601  -36.8918   22.2054 H   0  0  0  0  0  0
  -23.7296  -37.6349   23.6760 H   0  0  0  0  0  0
  -26.2750  -31.2788   20.6241 H   0  0  0  0  0  0
  -26.9355  -30.6271   22.0728 H   0  0  0  0  0  0
  -28.1514  -28.4201   21.3371 H   0  0  0  0  0  0
  -25.8406  -25.6233   19.0221 H   0  0  0  0  0  0
  -24.0120  -27.2023   18.9789 H   0  0  0  0  0  0
  -23.9336  -30.4672   19.3860 H   0  0  0  0  0  0
  -22.8581  -29.1712   19.8092 H   0  0  0  0  0  0
  -25.1391  -36.1735   25.0758 H   0  0  0  0  0  0
  -21.0004  -28.3509   24.1231 H   0  0  0  0  0  0
  -20.5809  -26.2445   23.3604 H   0  0  0  0  0  0
  -21.6741  -26.7500   22.1142 H   0  0  0  0  0  0
  -19.7104  -25.6274   21.1281 H   0  0  0  0  0  0
  -19.6851  -27.3112   20.6592 H   0  0  0  0  0  0
  -17.4307  -26.6597   21.3940 H   0  0  0  0  0  0
  -18.0471  -26.0034   22.8920 H   0  0  0  0  0  0
  -19.8010  -30.7285   24.2131 H   0  0  0  0  0  0
  -17.5107  -31.6240   24.5186 H   0  0  0  0  0  0
  -15.5428  -30.2963   23.7720 H   0  0  0  0  0  0
  -15.8719  -28.0804   22.7105 H   0  0  0  0  0  0
  -24.5839  -30.7170   25.7291 H   0  0  0  0  0  0
  -24.8717  -32.3011   26.4305 H   0  0  0  0  0  0
  -25.7624  -30.9025   27.0069 H   0  0  0  0  0  0
  -26.3236  -29.6449   24.1525 H   0  0  0  0  0  0
  -27.4071  -29.7305   25.5191 H   0  0  0  0  0  0
  -27.9193  -30.3998   23.9931 H   0  0  0  0  0  0
  -27.2741  -33.3746   26.1773 H   0  0  0  0  0  0
  -28.4014  -32.6723   25.0289 H   0  0  0  0  0  0
  -28.0676  -31.8589   26.5501 H   0  0  0  0  0  0
  -28.2541  -38.0120   24.7531 H   0  0  0  0  0  0
  -28.1206  -36.2630   24.6261 H   0  0  0  0  0  0
  -27.2290  -37.1331   25.8844 H   0  0  0  0  0  0
  -20.9724  -29.8705   21.6477 H   0  0  0  0  0  0
  -26.0195  -38.2750   24.1363 H   0  0  0  0  0  0
  -25.9550  -24.0403   21.1053 H   0  0  0  0  0  0
  -27.2605  -24.3706   22.2486 H   0  0  0  0  0  0
  -26.8906  -22.7159   21.8186 H   0  0  0  0  0  0
  -29.3083  -22.2063   21.4190 H   0  0  0  0  0  0
  -29.8029  -22.3422   19.7950 H   0  0  0  0  0  0
  -30.0317  -18.7576   21.4662 H   0  0  0  0  0  0
  -30.5976  -18.8003   19.8503 H   0  0  0  0  0  0
  -28.5296  -20.2110   19.1058 H   0  0  0  0  0  0
  -27.4280  -23.6807   19.3188 H   0  0  0  0  0  0
  -28.5272  -16.6484   20.4064 H   0  0  0  0  0  0
  -27.2617  -19.9542   21.6609 H   0  0  0  0  0  0
  -27.0238  -19.0529   20.3236 H   0  0  0  0  0  0
  -26.6587  -20.6307   20.2992 H   0  0  0  0  0  0
  1 25  1  0  0  0
  1 30  2  0  0  0
  1 76  1  0  0  0
  2  3  1  0  0  0
  2 25  1  0  0  0
  2 78  1  0  0  0
  2 79  1  0  0  0
  3  4  1  0  0  0
  3 80  1  0  0  0
  3 81  1  0  0  0
  4  5  1  0  0  0
  4 82  1  0  0  0
  4 83  1  0  0  0
  5  6  1  0  0  0
  5 26  1  0  0  0
  5 84  1  0  0  0
  6 25  1  0  0  0
  6 85  1  0  0  0
  6 86  1  0  0  0
  7  8  2  0  0  0
  7 26  1  0  0  0
  7 29  1  0  0  0
  8  9  1  0  0  0
  8 22  1  0  0  0
  9 10  1  0  0  0
  9 27  2  0  0  0
 10 11  2  0  0  0
 10 15  1  0  0  0
 11 12  1  0  0  0
 11 87  1  0  0  0
 12 13  2  0  0  0
 12 88  1  0  0  0
 13 14  1  0  0  0
 13 31  1  0  0  0
 14 15  2  0  0  0
 14 89  1  0  0  0
 15 90  1  0  0  0
 16 17  2  0  0  0
 16 21  1  0  0  0
 16 31  1  0  0  0
 17 18  1  0  0  0
 17 91  1  0  0  0
 18 19  2  0  0  0
 18 92  1  0  0  0
 19 20  1  0  0  0
 19 24  1  0  0  0
 20 21  2  0  0  0
 20 93  1  0  0  0
 21 23  1  0  0  0
 22 28  1  0  0  0
 22 32  2  0  0  0
 26 27  1  0  0  0
 28 94  1  0  0  0
 28 95  1  0  0  0
 29 96  1  0  0  0
 29 97  1  0  0  0
 33 34  1  0  0  0
 33 66  1  0  0  0
 33 70  2  0  0  0
 34 36  1  0  0  0
 34 59  1  0  0  0
 34 98  1  0  0  0
 35 44  2  0  0  0
 35 45  1  0  0  0
 35 68  1  0  0  0
 36 56  1  0  0  0
 36 99  1  0  0  0
 37 39  1  0  0  0
 37 47  1  0  0  0
 37 66  1  0  0  0
 37100  1  0  0  0
 38 43  2  0  0  0
 38 46  1  0  0  0
 38 47  1  0  0  0
 39 64  1  0  0  0
 39 67  2  0  0  0
 40 52  1  0  0  0
 40 53  2  0  0  0
 40 58  1  0  0  0
 41101  1  0  0  0
 41102  1  0  0  0
 41103  1  0  0  0
 41 48  1  0  0  0
 42 43  1  0  0  0
 42 66  1  0  0  0
 42104  1  0  0  0
 42105  1  0  0  0
 43 44  1  0  0  0
 44106  1  0  0  0
 45 46  2  0  0  0
 45107  1  0  0  0
 46108  1  0  0  0
 47109  1  0  0  0
 47110  1  0  0  0
 48 56  1  0  0  0
 48 65  1  0  0  0
 48111  1  0  0  0
 49 50  1  0  0  0
 49 53  1  0  0  0
 49 64  1  0  0  0
 49112  1  0  0  0
 50 51  1  0  0  0
 50113  1  0  0  0
 50114  1  0  0  0
 51 52  1  0  0  0
 51115  1  0  0  0
 51116  1  0  0  0
 52117  1  0  0  0
 52118  1  0  0  0
 53 54  1  0  0  0
 54 55  2  0  0  0
 54119  1  0  0  0
 55 57  1  0  0  0
 55120  1  0  0  0
 56 69  2  0  0  0
 57 58  2  0  0  0
 57121  1  0  0  0
 58122  1  0  0  0
 59 60  1  0  0  0
 59 61  1  0  0  0
 59 62  1  0  0  0
 60123  1  0  0  0
 60124  1  0  0  0
 60125  1  0  0  0
 61126  1  0  0  0
 61127  1  0  0  0
 61128  1  0  0  0
 62129  1  0  0  0
 62130  1  0  0  0
 62131  1  0  0  0
 63 65  1  0  0  0
 63132  1  0  0  0
 63133  1  0  0  0
 63134  1  0  0  0
 64135  1  0  0  0
 65136  1  0  0  0
 68 75  1  0  0  0
 71137  1  0  0  0
 71138  1  0  0  0
 71139  1  0  0  0
 71 75  1  0  0  0
 72 74  1  0  0  0
 72 75  1  0  0  0
 72140  1  0  0  0
 72141  1  0  0  0
 73 74  1  0  0  0
 73 76  1  0  0  0
 73142  1  0  0  0
 73143  1  0  0  0
 74 77  1  0  0  0
 74144  1  0  0  0
 75145  1  0  0  0
 76146  1  0  0  0
 77147  1  0  0  0
 77148  1  0  0  0
 77149  1  0  0  0
M  CHG  1  77   1
M  ISO  4   1 100  68 101  75 101  76 100
M  END
> <chiral flag>
0

> <version>
0

> <s_m_source_file>
/data/baiqing/PycharmProjects/Reinvent-master-3.2/result/LINK_invent/BTK/process_docking_weight1_custom_sum_contain_oxygen_bond_distance_aromatic_linkinvent_7_9_3/rearranged_h_0107.sdf

> <i_m_source_file_index>
28

> <r_mmod_Potential_Energy-OPLS-2005>
2005.12487792969

> <r_mmod_Stretch_Energy-OPLS-2005>
1099.71923828125

> <r_mmod_Bend_Energy-OPLS-2005>
609.615661621094

> <r_mmod_Torsional_Energy-OPLS-2005>
260.614532470703

> <r_mmod_Improper_Torsional_Energy-OPLS-2005>
4.0031156539917

> <r_mmod_Van_der_Waal_Energy-OPLS-2005>
108.131904602051

> <r_mmod_Electrostatic_Energy-OPLS-2005>
-322.818328857422

> <r_mmod_Solvation_Energy-OPLS-2005>
-553.594421386719

> <b_mmod_Minimization_Converged-OPLS-2005>
0

> <r_mmod_RMS_Derivative-OPLS-2005>
5.30765962600708

$$$$
28
                    3D
 Structure written by MMmdl.
174182  0  0  1  0            999 V2000
  -30.6448  -14.4894   20.6582 C   0  0  0  0  0  0
  -30.4329  -12.3329   19.4216 C   0  0  0  0  0  0
  -29.4896  -12.5206   18.2138 C   0  0  0  0  0  0
  -28.0157  -12.3540   18.6375 C   0  0  0  0  0  0
  -27.6669  -13.1835   19.8992 C   0  0  2  0  0  0
  -28.7036  -12.9161   21.0112 C   0  0  0  0  0  0
  -25.2497  -13.7963   20.5353 C   0  0  0  0  0  0
  -24.1799  -13.0389   20.9137 C   0  0  0  0  0  0
  -24.6365  -11.6853   20.8839 C   0  0  0  0  0  0
  -23.8999  -10.4289   21.0480 C   0  0  0  0  0  0
  -24.3574   -9.4211   21.9239 C   0  0  0  0  0  0
  -23.6268   -8.2230   22.0761 C   0  0  0  0  0  0
  -22.4255   -8.0295   21.3537 C   0  0  0  0  0  0
  -21.9866   -9.0269   20.4637 C   0  0  0  0  0  0
  -22.7189  -10.2152   20.3086 C   0  0  0  0  0  0
  -21.6862   -6.0731   22.5264 C   0  0  0  0  0  0
  -21.3993   -6.5619   23.8207 C   0  0  0  0  0  0
  -21.3621   -5.6787   24.9170 C   0  0  0  0  0  0
  -21.6030   -4.3043   24.7240 C   0  0  0  0  0  0
  -21.8856   -3.8141   23.4366 C   0  0  0  0  0  0
  -21.9204   -4.6942   22.3421 C   0  0  0  0  0  0
  -22.7853  -13.5251   21.1839 C   0  0  0  0  0  0
  -22.1695   -4.2122   21.0997 F   0  0  0  0  0  0
  -21.5615   -3.4536   25.7746 F   0  0  0  0  0  0
  -30.0270  -13.2811   20.4773 N   0  0  0  0  0  0
  -26.3035  -12.9185   20.3474 N   0  0  0  0  0  0
  -25.9306  -11.6401   20.5997 N   0  0  0  0  0  0
  -22.0470  -12.8264   22.0374 N   0  0  0  0  0  0
  -25.4031  -15.1517   20.3017 N   0  0  0  0  0  0
  -31.7348  -14.7407   20.1336 O   0  0  0  0  0  0
  -21.6648   -6.8858   21.4231 O   0  0  0  0  0  0
  -22.3611  -14.5670   20.6791 O   0  0  0  0  0  0
  -24.6196  -31.8689   23.2055 C   0  0  0  0  0  0
  -25.9069  -32.4835   23.8351 C   0  0  1  0  0  0
  -27.2371  -27.4200   20.0731 C   0  0  0  0  0  0
  -25.5885  -33.8630   24.2290 N   0  0  0  0  0  0
  -23.4069  -30.4959   21.5530 C   0  0  2  0  0  0
  -24.8425  -28.9541   20.1136 C   0  0  0  0  0  0
  -22.7400  -29.4710   22.5018 C   0  0  0  0  0  0
  -18.0256  -28.1435   22.8564 C   0  0  0  0  0  0
  -24.1423  -36.7201   23.2670 C   0  0  0  0  0  0
  -25.9377  -30.8223   21.3648 C   0  0  0  0  0  0
  -26.0075  -29.4584   20.7063 C   0  0  0  0  0  0
  -27.2042  -28.7002   20.6794 C   0  0  0  0  0  0
  -26.0423  -26.9322   19.4849 C   0  0  0  0  0  0
  -24.8551  -27.6888   19.5045 C   0  0  0  0  0  0
  -23.6085  -29.8291   20.1686 C   0  0  0  0  0  0
  -25.4063  -36.3099   24.0371 C   0  0  1  0  0  0
  -20.5848  -28.3690   23.1330 C   0  0  2  0  0  0
  -20.6725  -26.9429   22.5451 C   0  0  0  0  0  0
  -19.5667  -26.6417   21.5280 C   0  0  0  0  0  0
  -18.1850  -26.7991   22.1699 C   0  0  0  0  0  0
  -19.1519  -28.8876   23.2946 C   0  0  0  0  0  0
  -18.9487  -30.1496   23.8949 C   0  0  0  0  0  0
  -17.6510  -30.6668   24.0619 C   0  0  0  0  0  0
  -25.9057  -34.9502   23.5147 C   0  0  0  0  0  0
  -16.5380  -29.9204   23.6349 C   0  0  0  0  0  0
  -16.7253  -28.6596   23.0412 C   0  0  0  0  0  0
  -26.4458  -31.6641   25.0703 C   0  0  0  0  0  0
  -25.3687  -31.3758   26.1418 C   0  0  0  0  0  0
  -27.0306  -30.3091   24.6097 C   0  0  0  0  0  0
  -27.6006  -32.4393   25.7451 C   0  0  0  0  0  0
  -27.5526  -37.1753   24.8508 C   0  0  0  0  0  0
  -21.4134  -29.3047   22.3712 N   0  0  0  0  0  0
  -26.4225  -37.3811   23.9486 N   0  0  0  0  0  0
  -24.6749  -31.0759   22.0986 N   0  0  0  0  0  0
  -23.4135  -28.8261   23.3088 O   0  0  0  0  0  0
  -28.4241  -26.6988   20.0709 O   0  0  0  0  0  0
  -26.5665  -34.8987   22.4743 O   0  0  0  0  0  0
  -23.5370  -32.1463   23.7393 O   0  0  0  0  0  0
  -30.3503  -19.3663   22.6635 C   0  0  0  0  0  0
  -29.1427  -18.7117   22.9214 C   0  0  0  0  0  0
  -28.9226  -17.4458   22.2943 C   0  0  0  0  0  0
  -30.0402  -16.7825   21.6735 C   0  0  0  0  0  0
  -31.2755  -18.7637   21.8225 C   0  0  0  0  0  0
  -28.1707  -19.4298   23.8578 C   0  0  0  0  0  0
  -26.5687  -17.8446   21.3561 C   0  0  0  0  0  0
  -26.8517  -16.3745   23.4484 C   0  0  0  0  0  0
  -29.6024  -22.9983   17.8476 C   0  0  0  0  0  0
  -30.8795  -20.8478   19.6762 C   0  0  0  0  0  0
  -30.9846  -22.4023   19.8291 C   0  0  0  0  0  0
  -29.7854  -24.6152   19.7311 C   0  0  0  0  0  0
  -32.1416  -19.9793   19.9943 C   0  0  0  0  0  0
  -28.4213  -25.3534   19.5430 C   0  0  0  0  0  0
  -27.4951  -16.8825   22.1498 C   0  0  0  0  0  0
  -31.1711  -17.4856   21.3987 N   0  0  0  0  0  0
  -29.9140  -15.3747   21.3908 N   0  0  0  0  0  0
  -29.7892  -23.1644   19.3155 N   0  3  1  0  0  0
  -32.3031  -19.5372   21.3480 O   0  0  0  0  0  0
  -31.4731  -12.4611   19.1208 H   0  0  0  0  0  0
  -30.3637  -11.3093   19.7935 H   0  0  0  0  0  0
  -29.7311  -11.8012   17.4296 H   0  0  0  0  0  0
  -29.6367  -13.5120   17.7865 H   0  0  0  0  0  0
  -27.8470  -11.2957   18.8384 H   0  0  0  0  0  0
  -27.3480  -12.6147   17.8141 H   0  0  0  0  0  0
  -27.7290  -14.2366   19.6255 H   0  0  0  0  0  0
  -28.7029  -11.8574   21.2757 H   0  0  0  0  0  0
  -28.4474  -13.4248   21.9398 H   0  0  0  0  0  0
  -25.2713   -9.5718   22.4836 H   0  0  0  0  0  0
  -23.9976   -7.4622   22.7479 H   0  0  0  0  0  0
  -21.0799   -8.8814   19.8943 H   0  0  0  0  0  0
  -22.3668  -10.9726   19.6223 H   0  0  0  0  0  0
  -21.1979   -7.6123   23.9692 H   0  0  0  0  0  0
  -21.1374   -6.0510   25.9062 H   0  0  0  0  0  0
  -22.0657   -2.7595   23.2903 H   0  0  0  0  0  0
  -22.4058  -11.9855   22.4648 H   0  0  0  0  0  0
  -21.1136  -13.1363   22.2669 H   0  0  0  0  0  0
  -24.6262  -15.7976   20.3690 H   0  0  0  0  0  0
  -26.2350  -15.5764   19.9174 H   0  0  0  0  0  0
  -26.7137  -32.5517   23.1091 H   0  0  0  0  0  0
  -24.9928  -33.9740   25.0359 H   0  0  0  0  0  0
  -22.7011  -31.3183   21.4191 H   0  0  0  0  0  0
  -23.3758  -35.9470   23.3419 H   0  0  0  0  0  0
  -24.3476  -36.8711   22.2062 H   0  0  0  0  0  0
  -23.7071  -37.6393   23.6605 H   0  0  0  0  0  0
  -26.0645  -31.5863   20.5975 H   0  0  0  0  0  0
  -26.8238  -30.8653   21.9864 H   0  0  0  0  0  0
  -28.1032  -29.0975   21.1291 H   0  0  0  0  0  0
  -25.9930  -25.9680   19.0012 H   0  0  0  0  0  0
  -23.9573  -27.2914   19.0495 H   0  0  0  0  0  0
  -23.7276  -30.6097   19.4170 H   0  0  0  0  0  0
  -22.7275  -29.2607   19.8657 H   0  0  0  0  0  0
  -25.1244  -36.1966   25.0859 H   0  0  0  0  0  0
  -20.9971  -28.3296   24.1446 H   0  0  0  0  0  0
  -20.5631  -26.2346   23.3673 H   0  0  0  0  0  0
  -21.6587  -26.7488   22.1245 H   0  0  0  0  0  0
  -19.6827  -25.6327   21.1289 H   0  0  0  0  0  0
  -19.6592  -27.3246   20.6818 H   0  0  0  0  0  0
  -17.4135  -26.6807   21.4083 H   0  0  0  0  0  0
  -18.0222  -26.0129   22.9071 H   0  0  0  0  0  0
  -19.7981  -30.7289   24.2320 H   0  0  0  0  0  0
  -17.5104  -31.6349   24.5207 H   0  0  0  0  0  0
  -15.5388  -30.3191   23.7627 H   0  0  0  0  0  0
  -15.8635  -28.0946   22.7148 H   0  0  0  0  0  0
  -24.5841  -30.7160   25.7707 H   0  0  0  0  0  0
  -24.8895  -32.2933   26.4863 H   0  0  0  0  0  0
  -25.7984  -30.8889   27.0185 H   0  0  0  0  0  0
  -26.2861  -29.6828   24.1165 H   0  0  0  0  0  0
  -27.4125  -29.7342   25.4555 H   0  0  0  0  0  0
  -27.8668  -30.4456   23.9235 H   0  0  0  0  0  0
  -27.2612  -33.3700   26.2010 H   0  0  0  0  0  0
  -28.3774  -32.6957   25.0241 H   0  0  0  0  0  0
  -28.0728  -31.8563   26.5366 H   0  0  0  0  0  0
  -28.2647  -37.9960   24.7575 H   0  0  0  0  0  0
  -28.0920  -36.2522   24.6334 H   0  0  0  0  0  0
  -27.2270  -37.1421   25.8922 H   0  0  0  0  0  0
  -20.9290  -29.8749   21.6918 H   0  0  0  0  0  0
  -26.0118  -38.2891   24.1564 H   0  0  0  0  0  0
  -30.5475  -20.3654   23.0225 H   0  0  0  0  0  0
  -28.6743  -20.2853   24.3068 H   0  0  0  0  0  0
  -27.8608  -18.8051   24.6947 H   0  0  0  0  0  0
  -27.2948  -19.8461   23.3656 H   0  0  0  0  0  0
  -26.9233  -17.9809   20.3347 H   0  0  0  0  0  0
  -26.4622  -18.8281   21.8011 H   0  0  0  0  0  0
  -25.5498  -17.4654   21.2729 H   0  0  0  0  0  0
  -26.4106  -17.1688   24.0466 H   0  0  0  0  0  0
  -27.5650  -15.8348   24.0701 H   0  0  0  0  0  0
  -26.0400  -15.6879   23.2000 H   0  0  0  0  0  0
  -29.4286  -21.9616   17.5612 H   0  0  0  0  0  0
  -30.4745  -23.3463   17.2946 H   0  0  0  0  0  0
  -28.7400  -23.5484   17.4712 H   0  0  0  0  0  0
  -30.6650  -20.6053   18.6389 H   0  0  0  0  0  0
  -30.0131  -20.4954   20.2313 H   0  0  0  0  0  0
  -31.8758  -22.7712   19.3178 H   0  0  0  0  0  0
  -31.1323  -22.6326   20.8889 H   0  0  0  0  0  0
  -30.0459  -24.6749   20.7866 H   0  0  0  0  0  0
  -30.5662  -25.1604   19.1976 H   0  0  0  0  0  0
  -32.1175  -19.0819   19.3759 H   0  0  0  0  0  0
  -33.0465  -20.5110   19.6999 H   0  0  0  0  0  0
  -28.1718  -25.4156   18.4851 H   0  0  0  0  0  0
  -27.6388  -24.7730   20.0325 H   0  0  0  0  0  0
  -27.5623  -16.0064   21.5142 H   0  0  0  0  0  0
  -29.0939  -14.9485   21.7861 H   0  0  0  0  0  0
  -28.9810  -22.7421   19.7525 H   0  0  0  0  0  0
  1 25  1  0  0  0
  1 30  2  0  0  0
  1 87  1  0  0  0
  2  3  1  0  0  0
  2 25  1  0  0  0
  2 90  1  0  0  0
  2 91  1  0  0  0
  3  4  1  0  0  0
  3 92  1  0  0  0
  3 93  1  0  0  0
  4  5  1  0  0  0
  4 94  1  0  0  0
  4 95  1  0  0  0
  5  6  1  0  0  0
  5 26  1  0  0  0
  5 96  1  0  0  0
  6 25  1  0  0  0
  6 97  1  0  0  0
  6 98  1  0  0  0
  7  8  2  0  0  0
  7 26  1  0  0  0
  7 29  1  0  0  0
  8  9  1  0  0  0
  8 22  1  0  0  0
  9 10  1  0  0  0
  9 27  2  0  0  0
 10 11  2  0  0  0
 10 15  1  0  0  0
 11 12  1  0  0  0
 11 99  1  0  0  0
 12 13  2  0  0  0
 12100  1  0  0  0
 13 14  1  0  0  0
 13 31  1  0  0  0
 14 15  2  0  0  0
 14101  1  0  0  0
 15102  1  0  0  0
 16 17  2  0  0  0
 16 21  1  0  0  0
 16 31  1  0  0  0
 17 18  1  0  0  0
 17103  1  0  0  0
 18 19  2  0  0  0
 18104  1  0  0  0
 19 20  1  0  0  0
 19 24  1  0  0  0
 20 21  2  0  0  0
 20105  1  0  0  0
 21 23  1  0  0  0
 22 28  1  0  0  0
 22 32  2  0  0  0
 26 27  1  0  0  0
 28106  1  0  0  0
 28107  1  0  0  0
 29108  1  0  0  0
 29109  1  0  0  0
 33 34  1  0  0  0
 33 66  1  0  0  0
 33 70  2  0  0  0
 34 36  1  0  0  0
 34 59  1  0  0  0
 34110  1  0  0  0
 35 44  2  0  0  0
 35 45  1  0  0  0
 35 68  1  0  0  0
 36 56  1  0  0  0
 36111  1  0  0  0
 37 39  1  0  0  0
 37 47  1  0  0  0
 37 66  1  0  0  0
 37112  1  0  0  0
 38 43  2  0  0  0
 38 46  1  0  0  0
 38 47  1  0  0  0
 39 64  1  0  0  0
 39 67  2  0  0  0
 40 52  1  0  0  0
 40 53  2  0  0  0
 40 58  1  0  0  0
 41113  1  0  0  0
 41114  1  0  0  0
 41115  1  0  0  0
 41 48  1  0  0  0
 42 43  1  0  0  0
 42 66  1  0  0  0
 42116  1  0  0  0
 42117  1  0  0  0
 43 44  1  0  0  0
 44118  1  0  0  0
 45 46  2  0  0  0
 45119  1  0  0  0
 46120  1  0  0  0
 47121  1  0  0  0
 47122  1  0  0  0
 48 56  1  0  0  0
 48 65  1  0  0  0
 48123  1  0  0  0
 49 50  1  0  0  0
 49 53  1  0  0  0
 49 64  1  0  0  0
 49124  1  0  0  0
 50 51  1  0  0  0
 50125  1  0  0  0
 50126  1  0  0  0
 51 52  1  0  0  0
 51127  1  0  0  0
 51128  1  0  0  0
 52129  1  0  0  0
 52130  1  0  0  0
 53 54  1  0  0  0
 54 55  2  0  0  0
 54131  1  0  0  0
 55 57  1  0  0  0
 55132  1  0  0  0
 56 69  2  0  0  0
 57 58  2  0  0  0
 57133  1  0  0  0
 58134  1  0  0  0
 59 60  1  0  0  0
 59 61  1  0  0  0
 59 62  1  0  0  0
 60135  1  0  0  0
 60136  1  0  0  0
 60137  1  0  0  0
 61138  1  0  0  0
 61139  1  0  0  0
 61140  1  0  0  0
 62141  1  0  0  0
 62142  1  0  0  0
 62143  1  0  0  0
 63 65  1  0  0  0
 63144  1  0  0  0
 63145  1  0  0  0
 63146  1  0  0  0
 64147  1  0  0  0
 65148  1  0  0  0
 68 84  1  0  0  0
 71 72  2  0  0  0
 71 75  1  0  0  0
 71149  1  0  0  0
 72 73  1  0  0  0
 72 76  1  0  0  0
 73 74  2  0  0  0
 73 85  1  0  0  0
 74 86  1  0  0  0
 74 87  1  0  0  0
 75 86  2  0  0  0
 75 89  1  0  0  0
 76150  1  0  0  0
 76151  1  0  0  0
 76152  1  0  0  0
 77153  1  0  0  0
 77154  1  0  0  0
 77155  1  0  0  0
 77 85  1  0  0  0
 78 85  1  0  0  0
 78156  1  0  0  0
 78157  1  0  0  0
 78158  1  0  0  0
 79159  1  0  0  0
 79160  1  0  0  0
 79161  1  0  0  0
 79 88  1  0  0  0
 80 81  1  0  0  0
 80 83  1  0  0  0
 80162  1  0  0  0
 80163  1  0  0  0
 81 88  1  0  0  0
 81164  1  0  0  0
 81165  1  0  0  0
 82 84  1  0  0  0
 82 88  1  0  0  0
 82166  1  0  0  0
 82167  1  0  0  0
 83 89  1  0  0  0
 83168  1  0  0  0
 83169  1  0  0  0
 84170  1  0  0  0
 84171  1  0  0  0
 85172  1  0  0  0
 87173  1  0  0  0
 88174  1  0  0  0
M  CHG  1  88   1
M  ISO  4   1 100  68 101  84 101  87 100
M  END
> <chiral flag>
0

> <version>
0

> <s_m_source_file>
/data/baiqing/PycharmProjects/Reinvent-master-3.2/result/LINK_invent/BTK/process_docking_weight1_custom_sum_contain_oxygen_bond_distance_aromatic_linkinvent_7_9_3/rearranged_h_0107.sdf

> <i_m_source_file_index>
29

> <r_mmod_Potential_Energy-OPLS-2005>
-175.713775634766

> <r_mmod_Stretch_Energy-OPLS-2005>
55.4717254638672

> <r_mmod_Bend_Energy-OPLS-2005>
137.992721557617

> <r_mmod_Torsional_Energy-OPLS-2005>
256.380889892578

> <r_mmod_Improper_Torsional_Energy-OPLS-2005>
3.42509961128235

> <r_mmod_Van_der_Waal_Energy-OPLS-2005>
168.651321411133

> <r_mmod_Electrostatic_Energy-OPLS-2005>
-360.058532714844

> <r_mmod_Solvation_Energy-OPLS-2005>
-455.138885498047

> <b_mmod_Minimization_Converged-OPLS-2005>
0

> <r_mmod_RMS_Derivative-OPLS-2005>
6.39055919647217

$$$$
29
                    3D
 Structure written by MMmdl.
167174  0  0  1  0            999 V2000
  -30.7161  -14.4638   20.5788 C   0  0  0  0  0  0
  -30.4316  -12.3123   19.4097 C   0  0  0  0  0  0
  -29.4943  -12.5227   18.2001 C   0  0  0  0  0  0
  -28.0213  -12.3617   18.6212 C   0  0  0  0  0  0
  -27.6669  -13.2058   19.8741 C   0  0  2  0  0  0
  -28.7147  -12.9845   20.9927 C   0  0  0  0  0  0
  -25.2657  -13.8134   20.5644 C   0  0  0  0  0  0
  -24.1902  -13.0428   20.9134 C   0  0  0  0  0  0
  -24.6391  -11.6865   20.8664 C   0  0  0  0  0  0
  -23.9031  -10.4253   21.0350 C   0  0  0  0  0  0
  -24.3584   -9.4220   21.9167 C   0  0  0  0  0  0
  -23.6281   -8.2239   22.0761 C   0  0  0  0  0  0
  -22.4287   -8.0249   21.3515 C   0  0  0  0  0  0
  -21.9876   -9.0210   20.4621 C   0  0  0  0  0  0
  -22.7196  -10.2092   20.3054 C   0  0  0  0  0  0
  -21.6883   -6.0705   22.5255 C   0  0  0  0  0  0
  -21.3997   -6.5616   23.8177 C   0  0  0  0  0  0
  -21.3667   -5.6771   24.9134 C   0  0  0  0  0  0
  -21.6085   -4.3034   24.7246 C   0  0  0  0  0  0
  -21.8832   -3.8117   23.4363 C   0  0  0  0  0  0
  -21.9189   -4.6912   22.3392 C   0  0  0  0  0  0
  -22.7965  -13.5275   21.1794 C   0  0  0  0  0  0
  -22.1705   -4.2087   21.0984 F   0  0  0  0  0  0
  -21.5614   -3.4541   25.7776 F   0  0  0  0  0  0
  -30.0485  -13.2872   20.4432 N   0  0  0  0  0  0
  -26.3078  -12.9283   20.3348 N   0  0  0  0  0  0
  -25.9328  -11.6433   20.5696 N   0  0  0  0  0  0
  -22.0607  -12.8222   22.0340 N   0  0  0  0  0  0
  -25.4452  -15.1824   20.4001 N   0  0  0  0  0  0
  -31.8256  -14.6746   20.0842 O   0  0  0  0  0  0
  -21.6676   -6.8845   21.4220 O   0  0  0  0  0  0
  -22.3660  -14.5569   20.6616 O   0  0  0  0  0  0
  -24.6124  -31.8668   23.2124 C   0  0  0  0  0  0
  -25.9042  -32.4802   23.8416 C   0  0  1  0  0  0
  -27.2553  -27.4646   20.0899 C   0  0  0  0  0  0
  -25.5887  -33.8590   24.2329 N   0  0  0  0  0  0
  -23.3992  -30.4904   21.5484 C   0  0  2  0  0  0
  -24.8489  -28.9525   20.1172 C   0  0  0  0  0  0
  -22.7385  -29.4670   22.4978 C   0  0  0  0  0  0
  -18.0265  -28.1377   22.8503 C   0  0  0  0  0  0
  -24.1479  -36.7312   23.2635 C   0  0  0  0  0  0
  -25.9235  -30.8427   21.3621 C   0  0  0  0  0  0
  -26.0034  -29.4783   20.7096 C   0  0  0  0  0  0
  -27.2020  -28.7396   20.6943 C   0  0  0  0  0  0
  -26.0835  -26.9429   19.4917 C   0  0  0  0  0  0
  -24.8822  -27.6817   19.5111 C   0  0  0  0  0  0
  -23.6083  -29.8155   20.1647 C   0  0  0  0  0  0
  -25.4098  -36.3089   24.0340 C   0  0  1  0  0  0
  -20.5850  -28.3657   23.1314 C   0  0  2  0  0  0
  -20.6745  -26.9387   22.5415 C   0  0  0  0  0  0
  -19.5730  -26.6379   21.5207 C   0  0  0  0  0  0
  -18.1905  -26.7920   22.1615 C   0  0  0  0  0  0
  -19.1509  -28.8838   23.2904 C   0  0  0  0  0  0
  -18.9438  -30.1453   23.8917 C   0  0  0  0  0  0
  -17.6451  -30.6580   24.0577 C   0  0  0  0  0  0
  -25.9035  -34.9458   23.5127 C   0  0  0  0  0  0
  -16.5338  -29.9085   23.6335 C   0  0  0  0  0  0
  -16.7256  -28.6504   23.0357 C   0  0  0  0  0  0
  -26.4507  -31.6585   25.0724 C   0  0  0  0  0  0
  -25.3797  -31.3679   26.1487 C   0  0  0  0  0  0
  -27.0346  -30.3027   24.6085 C   0  0  0  0  0  0
  -27.6079  -32.4330   25.7472 C   0  0  0  0  0  0
  -27.5578  -37.1795   24.8459 C   0  0  0  0  0  0
  -21.4118  -29.3037   22.3729 N   0  0  0  0  0  0
  -26.4275  -37.3788   23.9433 N   0  0  0  0  0  0
  -24.6634  -31.0813   22.0988 N   0  0  0  0  0  0
  -23.4159  -28.8209   23.3011 O   0  0  0  0  0  0
  -28.4669  -26.8155   20.1215 O   0  0  0  0  0  0
  -26.5586  -34.8912   22.4679 O   0  0  0  0  0  0
  -23.5330  -32.1386   23.7559 O   0  0  0  0  0  0
  -29.6628  -24.6677   21.8761 C   0  0  0  0  0  0
  -32.6217  -19.2801   18.8001 C   0  0  0  0  0  0
  -29.2206  -19.3805   18.6159 C   0  0  0  0  0  0
  -30.4754  -22.3292   20.1409 C   0  0  0  0  0  0
  -30.6157  -23.7849   19.6187 C   0  0  0  0  0  0
  -31.2645  -21.3676   19.2145 C   0  0  0  0  0  0
  -30.3273  -16.9076   21.1392 C   0  0  0  0  0  0
  -30.3812  -17.5164   19.7063 C   0  0  0  0  0  0
  -28.6068  -25.4627   19.6941 C   0  0  0  0  0  0
  -29.8952  -24.9368   20.3767 C   0  0  1  0  0  0
  -31.4681  -19.8742   19.6464 C   0  0  1  0  0  0
  -30.0173  -15.4622   21.1441 N   0  0  0  0  0  0
  -30.2195  -19.0171   19.6532 N   0  3  1  0  0  0
  -31.4738  -12.4179   19.1043 H   0  0  0  0  0  0
  -30.3306  -11.2979   19.7977 H   0  0  0  0  0  0
  -29.7272  -11.8203   17.4025 H   0  0  0  0  0  0
  -29.6509  -13.5182   17.7807 H   0  0  0  0  0  0
  -27.8462  -11.3036   18.8212 H   0  0  0  0  0  0
  -27.3577  -12.6209   17.7952 H   0  0  0  0  0  0
  -27.7061  -14.2507   19.5636 H   0  0  0  0  0  0
  -28.6922  -11.9516   21.3453 H   0  0  0  0  0  0
  -28.4832  -13.5876   21.8679 H   0  0  0  0  0  0
  -25.2737   -9.5719   22.4741 H   0  0  0  0  0  0
  -23.9983   -7.4668   22.7516 H   0  0  0  0  0  0
  -21.0783   -8.8745   19.8954 H   0  0  0  0  0  0
  -22.3647  -10.9627   19.6188 H   0  0  0  0  0  0
  -21.2017   -7.6140   23.9659 H   0  0  0  0  0  0
  -21.1488   -6.0510   25.9016 H   0  0  0  0  0  0
  -22.0603   -2.7575   23.2894 H   0  0  0  0  0  0
  -22.4212  -11.9869   22.4697 H   0  0  0  0  0  0
  -21.1255  -13.1252   22.2535 H   0  0  0  0  0  0
  -24.6878  -15.8518   20.5033 H   0  0  0  0  0  0
  -26.3024  -15.5978   20.0560 H   0  0  0  0  0  0
  -26.7087  -32.5562   23.1177 H   0  0  0  0  0  0
  -25.0093  -33.9762   25.0502 H   0  0  0  0  0  0
  -22.6884  -31.3067   21.4051 H   0  0  0  0  0  0
  -23.3736  -35.9648   23.3295 H   0  0  0  0  0  0
  -24.3581  -36.8931   22.2051 H   0  0  0  0  0  0
  -23.7236  -37.6510   23.6664 H   0  0  0  0  0  0
  -26.0326  -31.6124   20.5959 H   0  0  0  0  0  0
  -26.8101  -30.8947   21.9808 H   0  0  0  0  0  0
  -28.0960  -29.1448   21.1503 H   0  0  0  0  0  0
  -26.0836  -25.9757   19.0088 H   0  0  0  0  0  0
  -23.9927  -27.2699   19.0548 H   0  0  0  0  0  0
  -23.7162  -30.5861   19.4001 H   0  0  0  0  0  0
  -22.7347  -29.2284   19.8712 H   0  0  0  0  0  0
  -25.1271  -36.1951   25.0833 H   0  0  0  0  0  0
  -20.9957  -28.3224   24.1431 H   0  0  0  0  0  0
  -20.5631  -26.2264   23.3610 H   0  0  0  0  0  0
  -21.6621  -26.7424   22.1223 H   0  0  0  0  0  0
  -19.6895  -25.6293   21.1224 H   0  0  0  0  0  0
  -19.6677  -27.3195   20.6750 H   0  0  0  0  0  0
  -17.4182  -26.6691   21.4009 H   0  0  0  0  0  0
  -18.0307  -26.0041   22.8991 H   0  0  0  0  0  0
  -19.7919  -30.7258   24.2280 H   0  0  0  0  0  0
  -17.5004  -31.6263   24.5168 H   0  0  0  0  0  0
  -15.5337  -30.2998   23.7662 H   0  0  0  0  0  0
  -15.8648  -28.0843   22.7049 H   0  0  0  0  0  0
  -24.5958  -30.7021   25.7856 H   0  0  0  0  0  0
  -24.9004  -32.2818   26.4999 H   0  0  0  0  0  0
  -25.8187  -30.8824   27.0208 H   0  0  0  0  0  0
  -26.2860  -29.6736   24.1227 H   0  0  0  0  0  0
  -27.4207  -29.7332   25.4556 H   0  0  0  0  0  0
  -27.8671  -30.4353   23.9166 H   0  0  0  0  0  0
  -27.2673  -33.3622   26.2079 H   0  0  0  0  0  0
  -28.3864  -32.6911   25.0267 H   0  0  0  0  0  0
  -28.0765  -31.8427   26.5354 H   0  0  0  0  0  0
  -28.2581  -38.0109   24.7542 H   0  0  0  0  0  0
  -28.1089  -36.2642   24.6239 H   0  0  0  0  0  0
  -27.2311  -37.1394   25.8864 H   0  0  0  0  0  0
  -20.9268  -29.8760   21.6957 H   0  0  0  0  0  0
  -26.0161  -38.2863   24.1449 H   0  0  0  0  0  0
  -30.5988  -24.4569   22.3960 H   0  0  0  0  0  0
  -28.9898  -23.8253   22.0318 H   0  0  0  0  0  0
  -29.2125  -25.5323   22.3693 H   0  0  0  0  0  0
  -33.1189  -18.4644   19.3259 H   0  0  0  0  0  0
  -33.3975  -20.0205   18.5845 H   0  0  0  0  0  0
  -32.2749  -18.9069   17.8381 H   0  0  0  0  0  0
  -28.3201  -18.7765   18.7243 H   0  0  0  0  0  0
  -29.6090  -19.2194   17.6097 H   0  0  0  0  0  0
  -28.8820  -20.4115   18.6937 H   0  0  0  0  0  0
  -29.4249  -22.0511   20.2169 H   0  0  0  0  0  0
  -30.8831  -22.2607   21.1495 H   0  0  0  0  0  0
  -30.3256  -23.8189   18.5680 H   0  0  0  0  0  0
  -31.6808  -24.0296   19.6068 H   0  0  0  0  0  0
  -32.2578  -21.8117   19.1387 H   0  0  0  0  0  0
  -30.8781  -21.4262   18.1958 H   0  0  0  0  0  0
  -29.5452  -17.3973   21.7223 H   0  0  0  0  0  0
  -31.2621  -17.0927   21.6727 H   0  0  0  0  0  0
  -29.5736  -17.0503   19.1357 H   0  0  0  0  0  0
  -31.2692  -17.1768   19.1740 H   0  0  0  0  0  0
  -27.7555  -24.8387   19.9657 H   0  0  0  0  0  0
  -28.6972  -25.4589   18.6055 H   0  0  0  0  0  0
  -30.5985  -25.7724   20.3226 H   0  0  0  0  0  0
  -31.8352  -19.9051   20.6738 H   0  0  0  0  0  0
  -29.1184  -15.1976   21.5252 H   0  0  0  0  0  0
  -29.7506  -19.2541   20.5158 H   0  0  0  0  0  0
  1 25  1  0  0  0
  1 30  2  0  0  0
  1 82  1  0  0  0
  2  3  1  0  0  0
  2 25  1  0  0  0
  2 84  1  0  0  0
  2 85  1  0  0  0
  3  4  1  0  0  0
  3 86  1  0  0  0
  3 87  1  0  0  0
  4  5  1  0  0  0
  4 88  1  0  0  0
  4 89  1  0  0  0
  5  6  1  0  0  0
  5 26  1  0  0  0
  5 90  1  0  0  0
  6 25  1  0  0  0
  6 91  1  0  0  0
  6 92  1  0  0  0
  7  8  2  0  0  0
  7 26  1  0  0  0
  7 29  1  0  0  0
  8  9  1  0  0  0
  8 22  1  0  0  0
  9 10  1  0  0  0
  9 27  2  0  0  0
 10 11  2  0  0  0
 10 15  1  0  0  0
 11 12  1  0  0  0
 11 93  1  0  0  0
 12 13  2  0  0  0
 12 94  1  0  0  0
 13 14  1  0  0  0
 13 31  1  0  0  0
 14 15  2  0  0  0
 14 95  1  0  0  0
 15 96  1  0  0  0
 16 17  2  0  0  0
 16 21  1  0  0  0
 16 31  1  0  0  0
 17 18  1  0  0  0
 17 97  1  0  0  0
 18 19  2  0  0  0
 18 98  1  0  0  0
 19 20  1  0  0  0
 19 24  1  0  0  0
 20 21  2  0  0  0
 20 99  1  0  0  0
 21 23  1  0  0  0
 22 28  1  0  0  0
 22 32  2  0  0  0
 26 27  1  0  0  0
 28100  1  0  0  0
 28101  1  0  0  0
 29102  1  0  0  0
 29103  1  0  0  0
 33 34  1  0  0  0
 33 66  1  0  0  0
 33 70  2  0  0  0
 34 36  1  0  0  0
 34 59  1  0  0  0
 34104  1  0  0  0
 35 44  2  0  0  0
 35 45  1  0  0  0
 35 68  1  0  0  0
 36 56  1  0  0  0
 36105  1  0  0  0
 37 39  1  0  0  0
 37 47  1  0  0  0
 37 66  1  0  0  0
 37106  1  0  0  0
 38 43  2  0  0  0
 38 46  1  0  0  0
 38 47  1  0  0  0
 39 64  1  0  0  0
 39 67  2  0  0  0
 40 52  1  0  0  0
 40 53  2  0  0  0
 40 58  1  0  0  0
 41107  1  0  0  0
 41108  1  0  0  0
 41109  1  0  0  0
 41 48  1  0  0  0
 42 43  1  0  0  0
 42 66  1  0  0  0
 42110  1  0  0  0
 42111  1  0  0  0
 43 44  1  0  0  0
 44112  1  0  0  0
 45 46  2  0  0  0
 45113  1  0  0  0
 46114  1  0  0  0
 47115  1  0  0  0
 47116  1  0  0  0
 48 56  1  0  0  0
 48 65  1  0  0  0
 48117  1  0  0  0
 49 50  1  0  0  0
 49 53  1  0  0  0
 49 64  1  0  0  0
 49118  1  0  0  0
 50 51  1  0  0  0
 50119  1  0  0  0
 50120  1  0  0  0
 51 52  1  0  0  0
 51121  1  0  0  0
 51122  1  0  0  0
 52123  1  0  0  0
 52124  1  0  0  0
 53 54  1  0  0  0
 54 55  2  0  0  0
 54125  1  0  0  0
 55 57  1  0  0  0
 55126  1  0  0  0
 56 69  2  0  0  0
 57 58  2  0  0  0
 57127  1  0  0  0
 58128  1  0  0  0
 59 60  1  0  0  0
 59 61  1  0  0  0
 59 62  1  0  0  0
 60129  1  0  0  0
 60130  1  0  0  0
 60131  1  0  0  0
 61132  1  0  0  0
 61133  1  0  0  0
 61134  1  0  0  0
 62135  1  0  0  0
 62136  1  0  0  0
 62137  1  0  0  0
 63 65  1  0  0  0
 63138  1  0  0  0
 63139  1  0  0  0
 63140  1  0  0  0
 64141  1  0  0  0
 65142  1  0  0  0
 68 79  1  0  0  0
 71143  1  0  0  0
 71144  1  0  0  0
 71145  1  0  0  0
 71 80  1  0  0  0
 72146  1  0  0  0
 72147  1  0  0  0
 72148  1  0  0  0
 72 81  1  0  0  0
 73149  1  0  0  0
 73150  1  0  0  0
 73151  1  0  0  0
 73 83  1  0  0  0
 74 75  1  0  0  0
 74 76  1  0  0  0
 74152  1  0  0  0
 74153  1  0  0  0
 75 80  1  0  0  0
 75154  1  0  0  0
 75155  1  0  0  0
 76 81  1  0  0  0
 76156  1  0  0  0
 76157  1  0  0  0
 77 78  1  0  0  0
 77 82  1  0  0  0
 77158  1  0  0  0
 77159  1  0  0  0
 78 83  1  0  0  0
 78160  1  0  0  0
 78161  1  0  0  0
 79 80  1  0  0  0
 79162  1  0  0  0
 79163  1  0  0  0
 80164  1  0  0  0
 81 83  1  0  0  0
 81165  1  0  0  0
 82166  1  0  0  0
 83167  1  0  0  0
M  CHG  1  83   1
M  ISO  4   1 100  68 101  79 101  82 100
M  END
> <chiral flag>
0

> <version>
0

> <s_m_source_file>
/data/baiqing/PycharmProjects/Reinvent-master-3.2/result/LINK_invent/BTK/process_docking_weight1_custom_sum_contain_oxygen_bond_distance_aromatic_linkinvent_7_9_3/rearranged_h_0107.sdf

> <i_m_source_file_index>
30

> <r_mmod_Potential_Energy-OPLS-2005>
-126.284233093262

> <r_mmod_Stretch_Energy-OPLS-2005>
42.522331237793

> <r_mmod_Bend_Energy-OPLS-2005>
134.341278076172

> <r_mmod_Torsional_Energy-OPLS-2005>
238.633850097656

> <r_mmod_Improper_Torsional_Energy-OPLS-2005>
3.8517324924469

> <r_mmod_Van_der_Waal_Energy-OPLS-2005>
144.757278442383

> <r_mmod_Electrostatic_Energy-OPLS-2005>
-267.354705810547

> <r_mmod_Solvation_Energy-OPLS-2005>
-435.131072998047

> <b_mmod_Minimization_Converged-OPLS-2005>
0

> <r_mmod_RMS_Derivative-OPLS-2005>
5.2612829208374

$$$$
30
                    3D
 Structure written by MMmdl.
158165  0  0  1  0            999 V2000
  -30.5819  -14.9034   20.4012 C   0  0  0  0  0  0
  -30.4258  -12.5420   19.5206 C   0  0  0  0  0  0
  -29.5196  -12.5039   18.2708 C   0  0  0  0  0  0
  -28.0482  -12.3063   18.6819 C   0  0  0  0  0  0
  -27.6258  -13.2481   19.8399 C   0  0  2  0  0  0
  -28.6655  -13.2801   20.9808 C   0  0  0  0  0  0
  -25.2428  -13.8248   20.5730 C   0  0  0  0  0  0
  -24.1745  -13.0443   20.9233 C   0  0  0  0  0  0
  -24.6376  -11.6934   20.8776 C   0  0  0  0  0  0
  -23.9077  -10.4299   21.0443 C   0  0  0  0  0  0
  -24.3604   -9.4190   21.9211 C   0  0  0  0  0  0
  -23.6274   -8.2224   22.0768 C   0  0  0  0  0  0
  -22.4262   -8.0276   21.3549 C   0  0  0  0  0  0
  -21.9909   -9.0260   20.4651 C   0  0  0  0  0  0
  -22.7258  -10.2133   20.3082 C   0  0  0  0  0  0
  -21.6832   -6.0723   22.5272 C   0  0  0  0  0  0
  -21.4006   -6.5635   23.8203 C   0  0  0  0  0  0
  -21.3665   -5.6798   24.9170 C   0  0  0  0  0  0
  -21.6050   -4.3054   24.7226 C   0  0  0  0  0  0
  -21.8817   -3.8140   23.4347 C   0  0  0  0  0  0
  -21.9177   -4.6953   22.3398 C   0  0  0  0  0  0
  -22.7762  -13.5202   21.1880 C   0  0  0  0  0  0
  -22.1640   -4.2131   21.0985 F   0  0  0  0  0  0
  -21.5637   -3.4546   25.7753 F   0  0  0  0  0  0
  -29.9529  -13.6609   20.3858 N   0  0  0  0  0  0
  -26.2842  -12.9471   20.3273 N   0  0  0  0  0  0
  -25.9298  -11.6599   20.5787 N   0  0  0  0  0  0
  -22.0409  -12.8206   22.0452 N   0  0  0  0  0  0
  -25.4126  -15.1993   20.4108 N   0  0  0  0  0  0
  -31.7819  -14.9138   20.1148 O   0  0  0  0  0  0
  -21.6632   -6.8866   21.4244 O   0  0  0  0  0  0
  -22.3443  -14.5502   20.6728 O   0  0  0  0  0  0
  -24.6433  -31.8464   23.1848 C   0  0  0  0  0  0
  -25.9230  -32.4707   23.8192 C   0  0  1  0  0  0
  -27.2113  -27.1575   20.1517 C   0  0  0  0  0  0
  -25.5986  -33.8489   24.2114 N   0  0  0  0  0  0
  -23.4451  -30.4675   21.5274 C   0  0  2  0  0  0
  -24.8945  -28.9012   20.1061 C   0  0  0  0  0  0
  -22.7575  -29.4576   22.4794 C   0  0  0  0  0  0
  -18.0349  -28.1413   22.8460 C   0  0  0  0  0  0
  -24.1535  -36.7285   23.2635 C   0  0  0  0  0  0
  -25.9971  -30.7314   21.3808 C   0  0  0  0  0  0
  -26.0706  -29.3442   20.7235 C   0  0  0  0  0  0
  -27.2329  -28.4874   20.7314 C   0  0  0  0  0  0
  -26.0126  -26.8175   19.4890 C   0  0  0  0  0  0
  -24.8758  -27.6501   19.4754 C   0  0  0  0  0  0
  -23.6717  -29.8007   20.1458 C   0  0  0  0  0  0
  -25.4156  -36.3007   24.0296 C   0  0  1  0  0  0
  -20.5949  -28.3747   23.1201 C   0  0  2  0  0  0
  -20.6869  -26.9458   22.5376 C   0  0  0  0  0  0
  -19.5848  -26.6399   21.5202 C   0  0  0  0  0  0
  -18.2007  -26.7953   22.1580 C   0  0  0  0  0  0
  -19.1597  -28.8888   23.2823 C   0  0  0  0  0  0
  -18.9523  -30.1478   23.8859 C   0  0  0  0  0  0
  -17.6514  -30.6597   24.0550 C   0  0  0  0  0  0
  -25.9093  -34.9397   23.5000 C   0  0  0  0  0  0
  -16.5402  -29.9088   23.6327 C   0  0  0  0  0  0
  -16.7317  -28.6516   23.0322 C   0  0  0  0  0  0
  -26.4550  -31.6566   25.0629 C   0  0  0  0  0  0
  -25.3677  -31.3783   26.1284 C   0  0  0  0  0  0
  -27.0413  -30.2945   24.6224 C   0  0  0  0  0  0
  -27.6067  -32.4347   25.7424 C   0  0  0  0  0  0
  -27.5601  -37.1789   24.8451 C   0  0  0  0  0  0
  -21.4267  -29.3080   22.3556 N   0  0  0  0  0  0
  -26.4309  -37.3728   23.9404 N   0  0  0  0  0  0
  -24.7139  -31.0376   22.0860 N   0  0  0  0  0  0
  -23.4232  -28.8100   23.2892 O   0  0  0  0  0  0
  -28.2659  -26.1828   20.1803 O   0  0  0  0  0  0
  -26.5680  -34.8899   22.4576 O   0  0  0  0  0  0
  -23.5560  -32.1343   23.7076 O   0  0  0  0  0  0
  -31.6252  -17.9522   20.4604 C   0  0  0  0  0  0
  -30.0370  -17.6351   18.5400 C   0  0  0  0  0  0
  -29.2520  -21.8382   22.1523 C   0  0  0  0  0  0
  -29.2596  -18.9449   20.6083 C   0  0  0  0  0  0
  -29.3915  -20.5306   20.0129 C   0  0  0  0  0  0
  -28.7334  -23.2624   20.0869 C   0  0  0  0  0  0
  -27.9694  -24.7078   20.5623 C   0  0  0  0  0  0
  -30.1615  -17.6237   20.0732 C   0  0  0  0  0  0
  -29.8497  -16.1215   20.5012 N   0  0  0  0  0  0
  -28.7846  -21.7997   20.7399 N   0  3  1  0  0  0
  -31.4693  -12.6568   19.2225 H   0  0  0  0  0  0
  -30.3795  -11.5972   20.0654 H   0  0  0  0  0  0
  -29.8357  -11.7032   17.6000 H   0  0  0  0  0  0
  -29.6236  -13.4390   17.7177 H   0  0  0  0  0  0
  -27.9339  -11.2666   18.9962 H   0  0  0  0  0  0
  -27.3938  -12.4371   17.8189 H   0  0  0  0  0  0
  -27.5956  -14.2485   19.4058 H   0  0  0  0  0  0
  -28.7324  -12.3098   21.4755 H   0  0  0  0  0  0
  -28.3722  -14.0020   21.7441 H   0  0  0  0  0  0
  -25.2744   -9.5643   22.4787 H   0  0  0  0  0  0
  -23.9954   -7.4622   22.7503 H   0  0  0  0  0  0
  -21.0827   -8.8787   19.8969 H   0  0  0  0  0  0
  -22.3725  -10.9652   19.6176 H   0  0  0  0  0  0
  -21.2008   -7.6141   23.9706 H   0  0  0  0  0  0
  -21.1491   -6.0531   25.9083 H   0  0  0  0  0  0
  -22.0593   -2.7597   23.2869 H   0  0  0  0  0  0
  -22.3991  -11.9851   22.4825 H   0  0  0  0  0  0
  -21.1033  -13.1246   22.2676 H   0  0  0  0  0  0
  -24.6469  -15.8565   20.5222 H   0  0  0  0  0  0
  -26.2639  -15.6351   20.0801 H   0  0  0  0  0  0
  -26.7326  -32.5314   23.0923 H   0  0  0  0  0  0
  -25.0050  -33.9525   25.0214 H   0  0  0  0  0  0
  -22.7485  -31.2918   21.3704 H   0  0  0  0  0  0
  -23.3752  -35.9661   23.3265 H   0  0  0  0  0  0
  -24.3615  -36.8959   22.2055 H   0  0  0  0  0  0
  -23.7342  -37.6488   23.6712 H   0  0  0  0  0  0
  -26.1442  -31.4895   20.6093 H   0  0  0  0  0  0
  -26.8705  -30.7808   22.0216 H   0  0  0  0  0  0
  -28.1303  -28.8161   21.2348 H   0  0  0  0  0  0
  -25.9278  -25.8673   18.9822 H   0  0  0  0  0  0
  -23.9802  -27.3079   18.9730 H   0  0  0  0  0  0
  -23.8082  -30.5715   19.3885 H   0  0  0  0  0  0
  -22.7875  -29.2410   19.8371 H   0  0  0  0  0  0
  -25.1353  -36.1800   25.0794 H   0  0  0  0  0  0
  -21.0058  -28.3389   24.1310 H   0  0  0  0  0  0
  -20.5866  -26.2355   23.3596 H   0  0  0  0  0  0
  -21.6726  -26.7560   22.1108 H   0  0  0  0  0  0
  -19.7050  -25.6312   21.1251 H   0  0  0  0  0  0
  -19.6783  -27.3194   20.6723 H   0  0  0  0  0  0
  -17.4289  -26.6686   21.3959 H   0  0  0  0  0  0
  -18.0374  -26.0111   22.8989 H   0  0  0  0  0  0
  -19.8011  -30.7276   24.2213 H   0  0  0  0  0  0
  -17.5097  -31.6271   24.5156 H   0  0  0  0  0  0
  -15.5408  -30.2962   23.7720 H   0  0  0  0  0  0
  -15.8726  -28.0842   22.7018 H   0  0  0  0  0  0
  -24.5907  -30.7114   25.7559 H   0  0  0  0  0  0
  -24.8819  -32.2991   26.4522 H   0  0  0  0  0  0
  -25.7896  -30.9056   27.0157 H   0  0  0  0  0  0
  -26.3023  -29.6637   24.1287 H   0  0  0  0  0  0
  -27.4071  -29.7296   25.4802 H   0  0  0  0  0  0
  -27.8909  -30.4136   23.9495 H   0  0  0  0  0  0
  -27.2675  -33.3714   26.1840 H   0  0  0  0  0  0
  -28.3966  -32.6779   25.0321 H   0  0  0  0  0  0
  -28.0633  -31.8559   26.5469 H   0  0  0  0  0  0
  -28.2539  -38.0145   24.7504 H   0  0  0  0  0  0
  -28.1156  -36.2655   24.6266 H   0  0  0  0  0  0
  -27.2286  -37.1406   25.8834 H   0  0  0  0  0  0
  -20.9494  -29.8712   21.6662 H   0  0  0  0  0  0
  -26.0153  -38.2780   24.1438 H   0  0  0  0  0  0
  -31.9027  -18.9724   20.1970 H   0  0  0  0  0  0
  -32.3503  -17.3139   19.9558 H   0  0  0  0  0  0
  -31.7813  -17.8455   21.5331 H   0  0  0  0  0  0
  -30.1929  -18.6255   18.1122 H   0  0  0  0  0  0
  -29.0481  -17.3014   18.2307 H   0  0  0  0  0  0
  -30.7653  -16.9781   18.0639 H   0  0  0  0  0  0
  -30.3362  -21.9763   22.1961 H   0  0  0  0  0  0
  -29.0073  -20.9168   22.6802 H   0  0  0  0  0  0
  -28.7844  -22.6477   22.7117 H   0  0  0  0  0  0
  -28.2069  -18.6764   20.5214 H   0  0  0  0  0  0
  -29.4388  -18.9831   21.6805 H   0  0  0  0  0  0
  -28.9807  -20.5321   19.0027 H   0  0  0  0  0  0
  -30.4501  -20.7479   19.8764 H   0  0  0  0  0  0
  -27.8036  -22.9288   20.5449 H   0  0  0  0  0  0
  -29.6768  -23.5445   20.5546 H   0  0  0  0  0  0
  -28.0496  -24.7422   21.6508 H   0  0  0  0  0  0
  -26.8956  -24.5867   20.4001 H   0  0  0  0  0  0
  -28.8831  -15.9650   20.7515 H   0  0  0  0  0  0
  -27.8070  -21.5606   20.8136 H   0  0  0  0  0  0
  1 25  1  0  0  0
  1 30  2  0  0  0
  1 79  1  0  0  0
  2  3  1  0  0  0
  2 25  1  0  0  0
  2 81  1  0  0  0
  2 82  1  0  0  0
  3  4  1  0  0  0
  3 83  1  0  0  0
  3 84  1  0  0  0
  4  5  1  0  0  0
  4 85  1  0  0  0
  4 86  1  0  0  0
  5  6  1  0  0  0
  5 26  1  0  0  0
  5 87  1  0  0  0
  6 25  1  0  0  0
  6 88  1  0  0  0
  6 89  1  0  0  0
  7  8  2  0  0  0
  7 26  1  0  0  0
  7 29  1  0  0  0
  8  9  1  0  0  0
  8 22  1  0  0  0
  9 10  1  0  0  0
  9 27  2  0  0  0
 10 11  2  0  0  0
 10 15  1  0  0  0
 11 12  1  0  0  0
 11 90  1  0  0  0
 12 13  2  0  0  0
 12 91  1  0  0  0
 13 14  1  0  0  0
 13 31  1  0  0  0
 14 15  2  0  0  0
 14 92  1  0  0  0
 15 93  1  0  0  0
 16 17  2  0  0  0
 16 21  1  0  0  0
 16 31  1  0  0  0
 17 18  1  0  0  0
 17 94  1  0  0  0
 18 19  2  0  0  0
 18 95  1  0  0  0
 19 20  1  0  0  0
 19 24  1  0  0  0
 20 21  2  0  0  0
 20 96  1  0  0  0
 21 23  1  0  0  0
 22 28  1  0  0  0
 22 32  2  0  0  0
 26 27  1  0  0  0
 28 97  1  0  0  0
 28 98  1  0  0  0
 29 99  1  0  0  0
 29100  1  0  0  0
 33 34  1  0  0  0
 33 66  1  0  0  0
 33 70  2  0  0  0
 34 36  1  0  0  0
 34 59  1  0  0  0
 34101  1  0  0  0
 35 44  2  0  0  0
 35 45  1  0  0  0
 35 68  1  0  0  0
 36 56  1  0  0  0
 36102  1  0  0  0
 37 39  1  0  0  0
 37 47  1  0  0  0
 37 66  1  0  0  0
 37103  1  0  0  0
 38 43  2  0  0  0
 38 46  1  0  0  0
 38 47  1  0  0  0
 39 64  1  0  0  0
 39 67  2  0  0  0
 40 52  1  0  0  0
 40 53  2  0  0  0
 40 58  1  0  0  0
 41104  1  0  0  0
 41105  1  0  0  0
 41106  1  0  0  0
 41 48  1  0  0  0
 42 43  1  0  0  0
 42 66  1  0  0  0
 42107  1  0  0  0
 42108  1  0  0  0
 43 44  1  0  0  0
 44109  1  0  0  0
 45 46  2  0  0  0
 45110  1  0  0  0
 46111  1  0  0  0
 47112  1  0  0  0
 47113  1  0  0  0
 48 56  1  0  0  0
 48 65  1  0  0  0
 48114  1  0  0  0
 49 50  1  0  0  0
 49 53  1  0  0  0
 49 64  1  0  0  0
 49115  1  0  0  0
 50 51  1  0  0  0
 50116  1  0  0  0
 50117  1  0  0  0
 51 52  1  0  0  0
 51118  1  0  0  0
 51119  1  0  0  0
 52120  1  0  0  0
 52121  1  0  0  0
 53 54  1  0  0  0
 54 55  2  0  0  0
 54122  1  0  0  0
 55 57  1  0  0  0
 55123  1  0  0  0
 56 69  2  0  0  0
 57 58  2  0  0  0
 57124  1  0  0  0
 58125  1  0  0  0
 59 60  1  0  0  0
 59 61  1  0  0  0
 59 62  1  0  0  0
 60126  1  0  0  0
 60127  1  0  0  0
 60128  1  0  0  0
 61129  1  0  0  0
 61130  1  0  0  0
 61131  1  0  0  0
 62132  1  0  0  0
 62133  1  0  0  0
 62134  1  0  0  0
 63 65  1  0  0  0
 63135  1  0  0  0
 63136  1  0  0  0
 63137  1  0  0  0
 64138  1  0  0  0
 65139  1  0  0  0
 68 77  1  0  0  0
 71140  1  0  0  0
 71141  1  0  0  0
 71142  1  0  0  0
 71 78  1  0  0  0
 72 78  1  0  0  0
 72143  1  0  0  0
 72144  1  0  0  0
 72145  1  0  0  0
 73146  1  0  0  0
 73147  1  0  0  0
 73148  1  0  0  0
 73 80  1  0  0  0
 74 75  1  0  0  0
 74 78  1  0  0  0
 74149  1  0  0  0
 74150  1  0  0  0
 75 80  1  0  0  0
 75151  1  0  0  0
 75152  1  0  0  0
 76 77  1  0  0  0
 76 80  1  0  0  0
 76153  1  0  0  0
 76154  1  0  0  0
 77155  1  0  0  0
 77156  1  0  0  0
 78 79  1  0  0  0
 79157  1  0  0  0
 80158  1  0  0  0
M  CHG  1  80   1
M  ISO  4   1 100  68 101  77 101  79 100
M  END
> <chiral flag>
0

> <version>
0

> <s_m_source_file>
/data/baiqing/PycharmProjects/Reinvent-master-3.2/result/LINK_invent/BTK/process_docking_weight1_custom_sum_contain_oxygen_bond_distance_aromatic_linkinvent_7_9_3/rearranged_h_0107.sdf

> <i_m_source_file_index>
31

> <r_mmod_Potential_Energy-OPLS-2005>
660.180419921875

> <r_mmod_Stretch_Energy-OPLS-2005>
271.018981933594

> <r_mmod_Bend_Energy-OPLS-2005>
485.367004394531

> <r_mmod_Torsional_Energy-OPLS-2005>
232.201843261719

> <r_mmod_Improper_Torsional_Energy-OPLS-2005>
5.45106220245361

> <r_mmod_Van_der_Waal_Energy-OPLS-2005>
133.385604858398

> <r_mmod_Electrostatic_Energy-OPLS-2005>
-188.551025390625

> <r_mmod_Solvation_Energy-OPLS-2005>
-445.529571533203

> <b_mmod_Minimization_Converged-OPLS-2005>
0

> <r_mmod_RMS_Derivative-OPLS-2005>
5.04931879043579

$$$$
31
                    3D
 Structure written by MMmdl.
146153  0  0  1  0            999 V2000
  -30.1629  -15.9800   20.2896 C   0  0  0  0  0  0
  -30.3970  -13.3310   19.5649 C   0  0  0  0  0  0
  -29.5696  -12.7534   18.3705 C   0  0  0  0  0  0
  -28.1597  -12.3334   18.8107 C   0  0  0  0  0  0
  -27.5880  -13.3498   19.8197 C   0  0  2  0  0  0
  -28.5791  -13.8135   20.9248 C   0  0  0  0  0  0
  -25.2254  -13.8367   20.5851 C   0  0  0  0  0  0
  -24.1680  -13.0460   20.9301 C   0  0  0  0  0  0
  -24.6432  -11.6981   20.8744 C   0  0  0  0  0  0
  -23.9133  -10.4308   21.0357 C   0  0  0  0  0  0
  -24.3665   -9.4230   21.9159 C   0  0  0  0  0  0
  -23.6335   -8.2266   22.0747 C   0  0  0  0  0  0
  -22.4317   -8.0290   21.3534 C   0  0  0  0  0  0
  -21.9965   -9.0261   20.4635 C   0  0  0  0  0  0
  -22.7290  -10.2140   20.3020 C   0  0  0  0  0  0
  -21.6880   -6.0737   22.5274 C   0  0  0  0  0  0
  -21.4030   -6.5636   23.8208 C   0  0  0  0  0  0
  -21.3682   -5.6786   24.9173 C   0  0  0  0  0  0
  -21.6051   -4.3044   24.7224 C   0  0  0  0  0  0
  -21.8804   -3.8137   23.4337 C   0  0  0  0  0  0
  -21.9195   -4.6958   22.3394 C   0  0  0  0  0  0
  -22.7688  -13.5161   21.1928 C   0  0  0  0  0  0
  -22.1654   -4.2133   21.0975 F   0  0  0  0  0  0
  -21.5638   -3.4531   25.7738 F   0  0  0  0  0  0
  -29.7016  -14.5447   20.2616 N   0  0  0  0  0  0
  -26.2755  -12.9776   20.3312 N   0  0  0  0  0  0
  -25.9406  -11.6791   20.5699 N   0  0  0  0  0  0
  -22.0333  -12.8145   22.0474 N   0  0  0  0  0  0
  -25.3808  -15.2121   20.4301 N   0  0  0  0  0  0
  -31.3953  -15.8719   20.0855 O   0  0  0  0  0  0
  -21.6667   -6.8890   21.4242 O   0  0  0  0  0  0
  -22.3356  -14.5449   20.6751 O   0  0  0  0  0  0
  -24.7070  -31.7708   23.1274 C   0  0  0  0  0  0
  -25.9519  -32.4339   23.7923 C   0  0  1  0  0  0
  -27.2209  -26.4264   20.2288 C   0  0  0  0  0  0
  -25.5992  -33.8172   24.1774 N   0  0  0  0  0  0
  -23.5434  -30.3618   21.4905 C   0  0  2  0  0  0
  -25.0027  -28.6504   20.1210 C   0  0  0  0  0  0
  -22.7869  -29.4164   22.4637 C   0  0  0  0  0  0
  -18.0340  -28.1440   22.8460 C   0  0  0  0  0  0
  -24.1479  -36.7071   23.2658 C   0  0  0  0  0  0
  -26.1367  -30.4116   21.4368 C   0  0  0  0  0  0
  -26.1967  -28.9471   20.7868 C   0  0  0  0  0  0
  -27.2744  -27.8704   20.8046 C   0  0  0  0  0  0
  -26.0008  -26.4230   19.4852 C   0  0  0  0  0  0
  -24.9612  -27.4171   19.4459 C   0  0  0  0  0  0
  -23.8103  -29.6348   20.1367 C   0  0  0  0  0  0
  -25.4146  -36.2811   24.0254 C   0  0  1  0  0  0
  -20.5997  -28.3793   23.1109 C   0  0  2  0  0  0
  -20.6783  -26.9422   22.5424 C   0  0  0  0  0  0
  -19.5758  -26.6362   21.5236 C   0  0  0  0  0  0
  -18.1946  -26.7965   22.1633 C   0  0  0  0  0  0
  -19.1619  -28.8941   23.2762 C   0  0  0  0  0  0
  -18.9528  -30.1523   23.8812 C   0  0  0  0  0  0
  -17.6517  -30.6625   24.0541 C   0  0  0  0  0  0
  -25.9156  -34.9226   23.4875 C   0  0  0  0  0  0
  -16.5400  -29.9098   23.6377 C   0  0  0  0  0  0
  -16.7324  -28.6514   23.0407 C   0  0  0  0  0  0
  -26.4594  -31.6498   25.0667 C   0  0  0  0  0  0
  -25.3570  -31.3949   26.1223 C   0  0  0  0  0  0
  -27.0538  -30.2788   24.6802 C   0  0  0  0  0  0
  -27.5997  -32.4424   25.7493 C   0  0  0  0  0  0
  -27.5535  -37.1687   24.8451 C   0  0  0  0  0  0
  -21.4492  -29.2994   22.3397 N   0  0  0  0  0  0
  -26.4241  -37.3611   23.9413 N   0  0  0  0  0  0
  -24.8234  -30.8882   22.0689 N   0  0  0  0  0  0
  -23.4214  -28.7812   23.3091 O   0  0  0  0  0  0
  -28.1305  -25.0726   20.3530 O   0  0  0  0  0  0
  -26.5847  -34.8853   22.4530 O   0  0  0  0  0  0
  -23.6040  -32.0914   23.6062 O   0  0  0  0  0  0
  -26.6976  -22.9833   19.5961 C   0  0  0  0  0  0
  -29.2888  -19.3017   19.9746 C   0  0  0  0  0  0
  -28.7232  -21.2403   20.5788 C   0  0  2  0  0  0
  -28.1625  -23.1955   19.9983 C   0  0  2  0  0  0
  -29.3956  -17.4331   20.3740 N   0  0  0  0  0  0
  -29.5783  -21.4802   21.7520 N   0  3  0  0  0  0
  -31.3681  -13.6328   19.1712 H   0  0  0  0  0  0
  -30.6331  -12.5436   20.2841 H   0  0  0  0  0  0
  -30.0930  -11.9104   17.9135 H   0  0  0  0  0  0
  -29.4882  -13.5199   17.5984 H   0  0  0  0  0  0
  -28.2269  -11.3549   19.2842 H   0  0  0  0  0  0
  -27.4995  -12.2202   17.9488 H   0  0  0  0  0  0
  -27.4125  -14.2347   19.2071 H   0  0  0  0  0  0
  -28.9112  -12.9847   21.5522 H   0  0  0  0  0  0
  -28.0860  -14.5143   21.5982 H   0  0  0  0  0  0
  -25.2801   -9.5737   22.4740 H   0  0  0  0  0  0
  -24.0033   -7.4689   22.7517 H   0  0  0  0  0  0
  -21.0867   -8.8779   19.8983 H   0  0  0  0  0  0
  -22.3721  -10.9665   19.6120 H   0  0  0  0  0  0
  -21.2020   -7.6148   23.9705 H   0  0  0  0  0  0
  -21.1534   -6.0521   25.9079 H   0  0  0  0  0  0
  -22.0569   -2.7593   23.2832 H   0  0  0  0  0  0
  -22.3991  -11.9839   22.4888 H   0  0  0  0  0  0
  -21.0939  -13.1159   22.2667 H   0  0  0  0  0  0
  -24.6078  -15.8600   20.5368 H   0  0  0  0  0  0
  -26.2197  -15.6516   20.0729 H   0  0  0  0  0  0
  -26.7621  -32.4743   23.0644 H   0  0  0  0  0  0
  -24.9957  -33.9170   24.9802 H   0  0  0  0  0  0
  -22.8848  -31.2075   21.2804 H   0  0  0  0  0  0
  -23.3784  -35.9351   23.3264 H   0  0  0  0  0  0
  -24.3529  -36.8818   22.2082 H   0  0  0  0  0  0
  -23.7202  -37.6202   23.6809 H   0  0  0  0  0  0
  -26.3760  -31.1229   20.6450 H   0  0  0  0  0  0
  -26.9740  -30.4822   22.1177 H   0  0  0  0  0  0
  -28.1629  -28.1149   21.3708 H   0  0  0  0  0  0
  -25.7707  -25.5235   18.9384 H   0  0  0  0  0  0
  -24.0689  -27.1755   18.8865 H   0  0  0  0  0  0
  -23.9978  -30.3851   19.3697 H   0  0  0  0  0  0
  -22.9090  -29.1122   19.8104 H   0  0  0  0  0  0
  -25.1380  -36.1520   25.0744 H   0  0  0  0  0  0
  -21.0078  -28.3428   24.1235 H   0  0  0  0  0  0
  -20.5599  -26.2421   23.3709 H   0  0  0  0  0  0
  -21.6643  -26.7299   22.1261 H   0  0  0  0  0  0
  -19.6890  -25.6247   21.1314 H   0  0  0  0  0  0
  -19.6711  -27.3128   20.6736 H   0  0  0  0  0  0
  -17.4210  -26.6723   21.4043 H   0  0  0  0  0  0
  -18.0308  -26.0137   22.9053 H   0  0  0  0  0  0
  -19.8005  -30.7360   24.2149 H   0  0  0  0  0  0
  -17.5071  -31.6301   24.5147 H   0  0  0  0  0  0
  -15.5394  -30.2976   23.7754 H   0  0  0  0  0  0
  -15.8725  -28.0797   22.7204 H   0  0  0  0  0  0
  -24.5759  -30.7306   25.7502 H   0  0  0  0  0  0
  -24.8760  -32.3224   26.4337 H   0  0  0  0  0  0
  -25.7645  -30.9290   27.0205 H   0  0  0  0  0  0
  -26.3271  -29.6323   24.1868 H   0  0  0  0  0  0
  -27.3875  -29.7373   25.5664 H   0  0  0  0  0  0
  -27.9313  -30.3805   24.0421 H   0  0  0  0  0  0
  -27.2492  -33.3817   26.1788 H   0  0  0  0  0  0
  -28.3940  -32.6851   25.0422 H   0  0  0  0  0  0
  -28.0515  -31.8754   26.5637 H   0  0  0  0  0  0
  -28.2511  -38.0022   24.7535 H   0  0  0  0  0  0
  -28.1082  -36.2550   24.6254 H   0  0  0  0  0  0
  -27.2260  -37.1283   25.8854 H   0  0  0  0  0  0
  -20.9844  -29.8629   21.6409 H   0  0  0  0  0  0
  -26.0034  -38.2634   24.1498 H   0  0  0  0  0  0
  -26.4834  -21.9355   19.3875 H   0  0  0  0  0  0
  -26.4435  -23.5312   18.6910 H   0  0  0  0  0  0
  -26.0283  -23.3012   20.3939 H   0  0  0  0  0  0
  -30.2982  -19.4724   19.6009 H   0  0  0  0  0  0
  -28.7044  -19.2170   19.0568 H   0  0  0  0  0  0
  -27.7833  -20.9674   21.0590 H   0  0  0  0  0  0
  -28.7165  -23.2389   19.0610 H   0  0  0  0  0  0
  -28.4602  -17.1670   20.6535 H   0  0  0  0  0  0
  -29.1895  -22.2143   22.3170 H   0  0  0  0  0  0
  -30.5039  -21.7510   21.4733 H   0  0  0  0  0  0
  -29.6443  -20.6538   22.3189 H   0  0  0  0  0  0
  1 25  1  0  0  0
  1 30  2  0  0  0
  1 75  1  0  0  0
  2  3  1  0  0  0
  2 25  1  0  0  0
  2 77  1  0  0  0
  2 78  1  0  0  0
  3  4  1  0  0  0
  3 79  1  0  0  0
  3 80  1  0  0  0
  4  5  1  0  0  0
  4 81  1  0  0  0
  4 82  1  0  0  0
  5  6  1  0  0  0
  5 26  1  0  0  0
  5 83  1  0  0  0
  6 25  1  0  0  0
  6 84  1  0  0  0
  6 85  1  0  0  0
  7  8  2  0  0  0
  7 26  1  0  0  0
  7 29  1  0  0  0
  8  9  1  0  0  0
  8 22  1  0  0  0
  9 10  1  0  0  0
  9 27  2  0  0  0
 10 11  2  0  0  0
 10 15  1  0  0  0
 11 12  1  0  0  0
 11 86  1  0  0  0
 12 13  2  0  0  0
 12 87  1  0  0  0
 13 14  1  0  0  0
 13 31  1  0  0  0
 14 15  2  0  0  0
 14 88  1  0  0  0
 15 89  1  0  0  0
 16 17  2  0  0  0
 16 21  1  0  0  0
 16 31  1  0  0  0
 17 18  1  0  0  0
 17 90  1  0  0  0
 18 19  2  0  0  0
 18 91  1  0  0  0
 19 20  1  0  0  0
 19 24  1  0  0  0
 20 21  2  0  0  0
 20 92  1  0  0  0
 21 23  1  0  0  0
 22 28  1  0  0  0
 22 32  2  0  0  0
 26 27  1  0  0  0
 28 93  1  0  0  0
 28 94  1  0  0  0
 29 95  1  0  0  0
 29 96  1  0  0  0
 33 34  1  0  0  0
 33 66  1  0  0  0
 33 70  2  0  0  0
 34 36  1  0  0  0
 34 59  1  0  0  0
 34 97  1  0  0  0
 35 44  2  0  0  0
 35 45  1  0  0  0
 35 68  1  0  0  0
 36 56  1  0  0  0
 36 98  1  0  0  0
 37 39  1  0  0  0
 37 47  1  0  0  0
 37 66  1  0  0  0
 37 99  1  0  0  0
 38 43  2  0  0  0
 38 46  1  0  0  0
 38 47  1  0  0  0
 39 64  1  0  0  0
 39 67  2  0  0  0
 40 52  1  0  0  0
 40 53  2  0  0  0
 40 58  1  0  0  0
 41100  1  0  0  0
 41101  1  0  0  0
 41102  1  0  0  0
 41 48  1  0  0  0
 42 43  1  0  0  0
 42 66  1  0  0  0
 42103  1  0  0  0
 42104  1  0  0  0
 43 44  1  0  0  0
 44105  1  0  0  0
 45 46  2  0  0  0
 45106  1  0  0  0
 46107  1  0  0  0
 47108  1  0  0  0
 47109  1  0  0  0
 48 56  1  0  0  0
 48 65  1  0  0  0
 48110  1  0  0  0
 49 50  1  0  0  0
 49 53  1  0  0  0
 49 64  1  0  0  0
 49111  1  0  0  0
 50 51  1  0  0  0
 50112  1  0  0  0
 50113  1  0  0  0
 51 52  1  0  0  0
 51114  1  0  0  0
 51115  1  0  0  0
 52116  1  0  0  0
 52117  1  0  0  0
 53 54  1  0  0  0
 54 55  2  0  0  0
 54118  1  0  0  0
 55 57  1  0  0  0
 55119  1  0  0  0
 56 69  2  0  0  0
 57 58  2  0  0  0
 57120  1  0  0  0
 58121  1  0  0  0
 59 60  1  0  0  0
 59 61  1  0  0  0
 59 62  1  0  0  0
 60122  1  0  0  0
 60123  1  0  0  0
 60124  1  0  0  0
 61125  1  0  0  0
 61126  1  0  0  0
 61127  1  0  0  0
 62128  1  0  0  0
 62129  1  0  0  0
 62130  1  0  0  0
 63 65  1  0  0  0
 63131  1  0  0  0
 63132  1  0  0  0
 63133  1  0  0  0
 64134  1  0  0  0
 65135  1  0  0  0
 68 74  1  0  0  0
 71136  1  0  0  0
 71137  1  0  0  0
 71138  1  0  0  0
 71 74  1  0  0  0
 72 73  1  0  0  0
 72 75  1  0  0  0
 72139  1  0  0  0
 72140  1  0  0  0
 73 74  1  0  0  0
 73 76  1  0  0  0
 73141  1  0  0  0
 74142  1  0  0  0
 75143  1  0  0  0
 76144  1  0  0  0
 76145  1  0  0  0
 76146  1  0  0  0
M  CHG  1  76   1
M  ISO  4   1 100  68 101  74 101  75 100
M  END
> <chiral flag>
0

> <version>
0

> <s_m_source_file>
/data/baiqing/PycharmProjects/Reinvent-master-3.2/result/LINK_invent/BTK/process_docking_weight1_custom_sum_contain_oxygen_bond_distance_aromatic_linkinvent_7_9_3/rearranged_h_0107.sdf

> <i_m_source_file_index>
32

> <r_mmod_Potential_Energy-OPLS-2005>
3948.88403320312

> <r_mmod_Stretch_Energy-OPLS-2005>
1958.73803710938

> <r_mmod_Bend_Energy-OPLS-2005>
892.498596191406

> <r_mmod_Torsional_Energy-OPLS-2005>
280.96142578125

> <r_mmod_Improper_Torsional_Energy-OPLS-2005>
4.05452108383179

> <r_mmod_Van_der_Waal_Energy-OPLS-2005>
114.810531616211

> <r_mmod_Electrostatic_Energy-OPLS-2005>
-312.826293945312

> <r_mmod_Solvation_Energy-OPLS-2005>
-516.973876953125

> <b_mmod_Minimization_Converged-OPLS-2005>
0

> <r_mmod_RMS_Derivative-OPLS-2005>
3.31032013893127

$$$$
32
                    3D
 Structure written by MMmdl.
169177  0  0  1  0            999 V2000
  -30.6846  -14.5221   20.5597 C   0  0  0  0  0  0
  -30.4289  -12.3477   19.4129 C   0  0  0  0  0  0
  -29.4892  -12.5244   18.2008 C   0  0  0  0  0  0
  -28.0184  -12.3526   18.6273 C   0  0  0  0  0  0
  -27.6601  -13.2054   19.8739 C   0  0  2  0  0  0
  -28.7084  -13.0101   20.9931 C   0  0  0  0  0  0
  -25.2591  -13.8147   20.5683 C   0  0  0  0  0  0
  -24.1840  -13.0448   20.9193 C   0  0  0  0  0  0
  -24.6399  -11.6910   20.8768 C   0  0  0  0  0  0
  -23.9054  -10.4308   21.0434 C   0  0  0  0  0  0
  -24.3604   -9.4223   21.9204 C   0  0  0  0  0  0
  -23.6298   -8.2246   22.0753 C   0  0  0  0  0  0
  -22.4281   -8.0289   21.3539 C   0  0  0  0  0  0
  -21.9918   -9.0263   20.4634 C   0  0  0  0  0  0
  -22.7239  -10.2149   20.3068 C   0  0  0  0  0  0
  -21.6852   -6.0755   22.5291 C   0  0  0  0  0  0
  -21.4016   -6.5648   23.8231 C   0  0  0  0  0  0
  -21.3659   -5.6797   24.9187 C   0  0  0  0  0  0
  -21.6034   -4.3061   24.7235 C   0  0  0  0  0  0
  -21.8817   -3.8158   23.4359 C   0  0  0  0  0  0
  -21.9191   -4.6980   22.3417 C   0  0  0  0  0  0
  -22.7860  -13.5253   21.1877 C   0  0  0  0  0  0
  -22.1657   -4.2167   21.0999 F   0  0  0  0  0  0
  -21.5622   -3.4542   25.7744 F   0  0  0  0  0  0
  -30.0301  -13.3326   20.4317 N   0  0  0  0  0  0
  -26.3035  -12.9319   20.3398 N   0  0  0  0  0  0
  -25.9328  -11.6486   20.5791 N   0  0  0  0  0  0
  -22.0498  -12.8235   22.0417 N   0  0  0  0  0  0
  -25.4322  -15.1867   20.4055 N   0  0  0  0  0  0
  -31.8285  -14.6947   20.1302 O   0  0  0  0  0  0
  -21.6636   -6.8895   21.4252 O   0  0  0  0  0  0
  -22.3556  -14.5586   20.6762 O   0  0  0  0  0  0
  -24.6229  -31.8620   23.2050 C   0  0  0  0  0  0
  -25.9089  -32.4791   23.8368 C   0  0  1  0  0  0
  -27.2349  -27.3739   20.1188 C   0  0  0  0  0  0
  -25.5939  -33.8579   24.2310 N   0  0  0  0  0  0
  -23.4136  -30.4887   21.5448 C   0  0  2  0  0  0
  -24.8618  -28.9495   20.1118 C   0  0  0  0  0  0
  -22.7456  -29.4641   22.4922 C   0  0  0  0  0  0
  -18.0261  -28.1402   22.8483 C   0  0  0  0  0  0
  -24.1478  -36.7276   23.2642 C   0  0  0  0  0  0
  -25.9479  -30.8162   21.3604 C   0  0  0  0  0  0
  -26.0284  -29.4460   20.7095 C   0  0  0  0  0  0
  -27.2191  -28.6708   20.7029 C   0  0  0  0  0  0
  -26.0449  -26.9153   19.5036 C   0  0  0  0  0  0
  -24.8690  -27.6861   19.5012 C   0  0  0  0  0  0
  -23.6269  -29.8235   20.1613 C   0  0  0  0  0  0
  -25.4098  -36.3075   24.0344 C   0  0  1  0  0  0
  -20.5868  -28.3673   23.1275 C   0  0  2  0  0  0
  -20.6751  -26.9398   22.5401 C   0  0  0  0  0  0
  -19.5737  -26.6392   21.5202 C   0  0  0  0  0  0
  -18.1910  -26.7940   22.1613 C   0  0  0  0  0  0
  -19.1520  -28.8847   23.2882 C   0  0  0  0  0  0
  -18.9476  -30.1464   23.8882 C   0  0  0  0  0  0
  -17.6487  -30.6606   24.0581 C   0  0  0  0  0  0
  -25.9044  -34.9449   23.5114 C   0  0  0  0  0  0
  -16.5361  -29.9126   23.6349 C   0  0  0  0  0  0
  -16.7252  -28.6547   23.0341 C   0  0  0  0  0  0
  -26.4471  -31.6550   25.0702 C   0  0  0  0  0  0
  -25.3719  -31.3686   26.1438 C   0  0  0  0  0  0
  -27.0277  -30.2985   24.6077 C   0  0  0  0  0  0
  -27.6072  -32.4205   25.7494 C   0  0  0  0  0  0
  -27.5555  -37.1790   24.8484 C   0  0  0  0  0  0
  -21.4164  -29.3050   22.3685 N   0  0  0  0  0  0
  -26.4270  -37.3784   23.9425 N   0  0  0  0  0  0
  -24.6810  -31.0687   22.0965 N   0  0  0  0  0  0
  -23.4194  -28.8165   23.2980 O   0  0  0  0  0  0
  -28.3709  -26.5643   20.1735 O   0  0  0  0  0  0
  -26.5604  -34.8930   22.4679 O   0  0  0  0  0  0
  -23.5410  -32.1366   23.7437 O   0  0  0  0  0  0
  -28.9338  -19.5876   18.9289 C   0  0  0  0  0  0
  -29.1161  -17.3687   18.9385 C   0  0  0  0  0  0
  -28.6412  -18.4066   18.1885 C   0  0  0  0  0  0
  -29.5646  -19.2541   20.0996 C   0  0  0  0  0  0
  -28.8370  -18.8631   15.7187 C   0  0  0  0  0  0
  -26.5663  -18.9520   16.8496 C   0  0  0  0  0  0
  -28.3212  -22.6332   22.3528 C   0  0  0  0  0  0
  -30.0510  -20.1760   21.2077 C   0  0  0  0  0  0
  -30.2143  -21.7153   20.8864 C   0  0  0  0  0  0
  -29.3437  -24.1948   20.5978 C   0  0  0  0  0  0
  -28.1262  -25.1259   20.2671 C   0  0  0  0  0  0
  -30.3380  -16.9810   21.1221 C   0  0  0  0  0  0
  -27.9561  -18.2998   16.8421 C   0  0  0  0  0  0
  -28.9840  -22.6954   20.9606 C   0  0  1  0  0  0
  -29.6858  -17.8469   20.1110 N   0  0  0  0  0  0
  -29.9472  -15.5513   21.0289 N   0  0  0  0  0  0
  -31.4684  -12.4650   19.1022 H   0  0  0  0  0  0
  -30.3498  -11.3366   19.8165 H   0  0  0  0  0  0
  -29.7379  -11.8044   17.4203 H   0  0  0  0  0  0
  -29.6258  -13.5150   17.7624 H   0  0  0  0  0  0
  -27.8591  -11.2945   18.8465 H   0  0  0  0  0  0
  -27.3500  -12.5938   17.7997 H   0  0  0  0  0  0
  -27.6962  -14.2488   19.5612 H   0  0  0  0  0  0
  -28.7027  -11.9767   21.3452 H   0  0  0  0  0  0
  -28.4702  -13.6181   21.8666 H   0  0  0  0  0  0
  -25.2758   -9.5695   22.4773 H   0  0  0  0  0  0
  -24.0016   -7.4625   22.7460 H   0  0  0  0  0  0
  -21.0852   -8.8786   19.8930 H   0  0  0  0  0  0
  -22.3714  -10.9690   19.6167 H   0  0  0  0  0  0
  -21.2013   -7.6154   23.9747 H   0  0  0  0  0  0
  -21.1469   -6.0521   25.9089 H   0  0  0  0  0  0
  -22.0593   -2.7625   23.2861 H   0  0  0  0  0  0
  -22.4090  -11.9869   22.4776 H   0  0  0  0  0  0
  -21.1104  -13.1247   22.2618 H   0  0  0  0  0  0
  -24.6598  -15.8378   20.4932 H   0  0  0  0  0  0
  -26.2818  -15.6266   20.0744 H   0  0  0  0  0  0
  -26.7169  -32.5507   23.1140 H   0  0  0  0  0  0
  -25.0140  -33.9696   25.0495 H   0  0  0  0  0  0
  -22.7040  -31.3064   21.4042 H   0  0  0  0  0  0
  -23.3745  -35.9611   23.3327 H   0  0  0  0  0  0
  -24.3587  -36.8858   22.2060 H   0  0  0  0  0  0
  -23.7227  -37.6491   23.6629 H   0  0  0  0  0  0
  -26.0606  -31.5760   20.5868 H   0  0  0  0  0  0
  -26.8360  -30.8743   21.9781 H   0  0  0  0  0  0
  -28.1138  -29.0525   21.1762 H   0  0  0  0  0  0
  -25.9912  -25.9483   19.0281 H   0  0  0  0  0  0
  -23.9731  -27.2921   19.0381 H   0  0  0  0  0  0
  -23.7460  -30.5990   19.4051 H   0  0  0  0  0  0
  -22.7463  -29.2533   19.8592 H   0  0  0  0  0  0
  -25.1270  -36.1924   25.0842 H   0  0  0  0  0  0
  -20.9957  -28.3247   24.1392 H   0  0  0  0  0  0
  -20.5627  -26.2289   23.3594 H   0  0  0  0  0  0
  -21.6624  -26.7419   22.1217 H   0  0  0  0  0  0
  -19.6903  -25.6314   21.1212 H   0  0  0  0  0  0
  -19.6683  -27.3219   20.6752 H   0  0  0  0  0  0
  -17.4175  -26.6663   21.4024 H   0  0  0  0  0  0
  -18.0314  -26.0092   22.9022 H   0  0  0  0  0  0
  -19.7969  -30.7273   24.2216 H   0  0  0  0  0  0
  -17.5071  -31.6275   24.5204 H   0  0  0  0  0  0
  -15.5377  -30.3048   23.7702 H   0  0  0  0  0  0
  -15.8634  -28.0906   22.7019 H   0  0  0  0  0  0
  -24.5976  -30.6900   25.7826 H   0  0  0  0  0  0
  -24.8790  -32.2833   26.4743 H   0  0  0  0  0  0
  -25.8072  -30.9018   27.0280 H   0  0  0  0  0  0
  -26.2863  -29.6838   24.0949 H   0  0  0  0  0  0
  -27.3859  -29.7108   25.4541 H   0  0  0  0  0  0
  -27.8771  -30.4299   23.9368 H   0  0  0  0  0  0
  -27.2759  -33.3558   26.2012 H   0  0  0  0  0  0
  -28.3949  -32.6624   25.0348 H   0  0  0  0  0  0
  -28.0639  -31.8310   26.5460 H   0  0  0  0  0  0
  -28.2594  -38.0066   24.7510 H   0  0  0  0  0  0
  -28.1013  -36.2596   24.6315 H   0  0  0  0  0  0
  -27.2264  -37.1445   25.8886 H   0  0  0  0  0  0
  -20.9295  -29.8822   21.6968 H   0  0  0  0  0  0
  -26.0141  -38.2849   24.1475 H   0  0  0  0  0  0
  -28.7038  -20.5976   18.6214 H   0  0  0  0  0  0
  -29.1051  -16.3093   18.7283 H   0  0  0  0  0  0
  -28.3627  -18.7491   14.7421 H   0  0  0  0  0  0
  -29.0417  -19.9250   15.8667 H   0  0  0  0  0  0
  -29.7926  -18.3416   15.6768 H   0  0  0  0  0  0
  -25.9432  -18.5363   17.6419 H   0  0  0  0  0  0
  -26.0530  -18.7733   15.9054 H   0  0  0  0  0  0
  -26.6246  -20.0315   16.9960 H   0  0  0  0  0  0
  -29.0087  -22.9504   23.1385 H   0  0  0  0  0  0
  -27.9863  -21.6264   22.5946 H   0  0  0  0  0  0
  -27.4403  -23.2698   22.4199 H   0  0  0  0  0  0
  -31.0306  -19.8142   21.5209 H   0  0  0  0  0  0
  -29.4283  -20.0335   22.0906 H   0  0  0  0  0  0
  -30.9419  -22.0948   21.6039 H   0  0  0  0  0  0
  -30.7069  -21.8187   19.9191 H   0  0  0  0  0  0
  -29.9270  -24.6346   21.4103 H   0  0  0  0  0  0
  -30.0059  -24.2018   19.7311 H   0  0  0  0  0  0
  -27.3492  -24.9783   21.0193 H   0  0  0  0  0  0
  -27.7159  -24.7627   19.3258 H   0  0  0  0  0  0
  -30.0695  -17.3435   22.1149 H   0  0  0  0  0  0
  -31.4193  -17.0908   21.0281 H   0  0  0  0  0  0
  -27.8100  -17.2373   16.6376 H   0  0  0  0  0  0
  -28.2519  -22.3421   20.2347 H   0  0  0  0  0  0
  -29.0138  -15.3248   21.3346 H   0  0  0  0  0  0
  1 25  1  0  0  0
  1 30  2  0  0  0
  1 86  1  0  0  0
  2  3  1  0  0  0
  2 25  1  0  0  0
  2 87  1  0  0  0
  2 88  1  0  0  0
  3  4  1  0  0  0
  3 89  1  0  0  0
  3 90  1  0  0  0
  4  5  1  0  0  0
  4 91  1  0  0  0
  4 92  1  0  0  0
  5  6  1  0  0  0
  5 26  1  0  0  0
  5 93  1  0  0  0
  6 25  1  0  0  0
  6 94  1  0  0  0
  6 95  1  0  0  0
  7  8  2  0  0  0
  7 26  1  0  0  0
  7 29  1  0  0  0
  8  9  1  0  0  0
  8 22  1  0  0  0
  9 10  1  0  0  0
  9 27  2  0  0  0
 10 11  2  0  0  0
 10 15  1  0  0  0
 11 12  1  0  0  0
 11 96  1  0  0  0
 12 13  2  0  0  0
 12 97  1  0  0  0
 13 14  1  0  0  0
 13 31  1  0  0  0
 14 15  2  0  0  0
 14 98  1  0  0  0
 15 99  1  0  0  0
 16 17  2  0  0  0
 16 21  1  0  0  0
 16 31  1  0  0  0
 17 18  1  0  0  0
 17100  1  0  0  0
 18 19  2  0  0  0
 18101  1  0  0  0
 19 20  1  0  0  0
 19 24  1  0  0  0
 20 21  2  0  0  0
 20102  1  0  0  0
 21 23  1  0  0  0
 22 28  1  0  0  0
 22 32  2  0  0  0
 26 27  1  0  0  0
 28103  1  0  0  0
 28104  1  0  0  0
 29105  1  0  0  0
 29106  1  0  0  0
 33 34  1  0  0  0
 33 66  1  0  0  0
 33 70  2  0  0  0
 34 36  1  0  0  0
 34 59  1  0  0  0
 34107  1  0  0  0
 35 44  2  0  0  0
 35 45  1  0  0  0
 35 68  1  0  0  0
 36 56  1  0  0  0
 36108  1  0  0  0
 37 39  1  0  0  0
 37 47  1  0  0  0
 37 66  1  0  0  0
 37109  1  0  0  0
 38 43  2  0  0  0
 38 46  1  0  0  0
 38 47  1  0  0  0
 39 64  1  0  0  0
 39 67  2  0  0  0
 40 52  1  0  0  0
 40 53  2  0  0  0
 40 58  1  0  0  0
 41110  1  0  0  0
 41111  1  0  0  0
 41112  1  0  0  0
 41 48  1  0  0  0
 42 43  1  0  0  0
 42 66  1  0  0  0
 42113  1  0  0  0
 42114  1  0  0  0
 43 44  1  0  0  0
 44115  1  0  0  0
 45 46  2  0  0  0
 45116  1  0  0  0
 46117  1  0  0  0
 47118  1  0  0  0
 47119  1  0  0  0
 48 56  1  0  0  0
 48 65  1  0  0  0
 48120  1  0  0  0
 49 50  1  0  0  0
 49 53  1  0  0  0
 49 64  1  0  0  0
 49121  1  0  0  0
 50 51  1  0  0  0
 50122  1  0  0  0
 50123  1  0  0  0
 51 52  1  0  0  0
 51124  1  0  0  0
 51125  1  0  0  0
 52126  1  0  0  0
 52127  1  0  0  0
 53 54  1  0  0  0
 54 55  2  0  0  0
 54128  1  0  0  0
 55 57  1  0  0  0
 55129  1  0  0  0
 56 69  2  0  0  0
 57 58  2  0  0  0
 57130  1  0  0  0
 58131  1  0  0  0
 59 60  1  0  0  0
 59 61  1  0  0  0
 59 62  1  0  0  0
 60132  1  0  0  0
 60133  1  0  0  0
 60134  1  0  0  0
 61135  1  0  0  0
 61136  1  0  0  0
 61137  1  0  0  0
 62138  1  0  0  0
 62139  1  0  0  0
 62140  1  0  0  0
 63 65  1  0  0  0
 63141  1  0  0  0
 63142  1  0  0  0
 63143  1  0  0  0
 64144  1  0  0  0
 65145  1  0  0  0
 68 81  1  0  0  0
 71 73  1  0  0  0
 71 74  2  0  0  0
 71146  1  0  0  0
 72 73  2  0  0  0
 72 85  1  0  0  0
 72147  1  0  0  0
 73 83  1  0  0  0
 74 78  1  0  0  0
 74 85  1  0  0  0
 75148  1  0  0  0
 75149  1  0  0  0
 75150  1  0  0  0
 75 83  1  0  0  0
 76 83  1  0  0  0
 76151  1  0  0  0
 76152  1  0  0  0
 76153  1  0  0  0
 77154  1  0  0  0
 77155  1  0  0  0
 77156  1  0  0  0
 77 84  1  0  0  0
 78 79  1  0  0  0
 78157  1  0  0  0
 78158  1  0  0  0
 79 84  1  0  0  0
 79159  1  0  0  0
 79160  1  0  0  0
 80 81  1  0  0  0
 80 84  1  0  0  0
 80161  1  0  0  0
 80162  1  0  0  0
 81163  1  0  0  0
 81164  1  0  0  0
 82 85  1  0  0  0
 82 86  1  0  0  0
 82165  1  0  0  0
 82166  1  0  0  0
 83167  1  0  0  0
 84168  1  0  0  0
 86169  1  0  0  0
M  ISO  4   1 100  68 101  81 101  86 100
M  END
> <chiral flag>
0

> <version>
0

> <s_m_source_file>
/data/baiqing/PycharmProjects/Reinvent-master-3.2/result/LINK_invent/BTK/process_docking_weight1_custom_sum_contain_oxygen_bond_distance_aromatic_linkinvent_7_9_3/rearranged_h_0107.sdf

> <i_m_source_file_index>
33

> <r_mmod_Potential_Energy-OPLS-2005>
-101.815315246582

> <r_mmod_Stretch_Energy-OPLS-2005>
55.5327033996582

> <r_mmod_Bend_Energy-OPLS-2005>
117.764862060547

> <r_mmod_Torsional_Energy-OPLS-2005>
219.147689819336

> <r_mmod_Improper_Torsional_Energy-OPLS-2005>
3.80115175247192

> <r_mmod_Van_der_Waal_Energy-OPLS-2005>
122.112464904785

> <r_mmod_Electrostatic_Energy-OPLS-2005>
-444.005187988281

> <r_mmod_Solvation_Energy-OPLS-2005>
-200.454620361328

> <b_mmod_Minimization_Converged-OPLS-2005>
0

> <r_mmod_RMS_Derivative-OPLS-2005>
3.57645320892334

$$$$
33
                    3D
 Structure written by MMmdl.
155163  0  0  1  0            999 V2000
  -30.5467  -14.9683   20.4059 C   0  0  0  0  0  0
  -30.4375  -12.6023   19.4945 C   0  0  0  0  0  0
  -29.5165  -12.5223   18.2550 C   0  0  0  0  0  0
  -28.0533  -12.3029   18.6817 C   0  0  0  0  0  0
  -27.6251  -13.2490   19.8332 C   0  0  2  0  0  0
  -28.6699  -13.3010   20.9678 C   0  0  0  0  0  0
  -25.2428  -13.8186   20.5735 C   0  0  0  0  0  0
  -24.1753  -13.0409   20.9241 C   0  0  0  0  0  0
  -24.6387  -11.6904   20.8767 C   0  0  0  0  0  0
  -23.9075  -10.4278   21.0412 C   0  0  0  0  0  0
  -24.3626   -9.4196   21.9190 C   0  0  0  0  0  0
  -23.6296   -8.2233   22.0755 C   0  0  0  0  0  0
  -22.4277   -8.0278   21.3543 C   0  0  0  0  0  0
  -21.9917   -9.0251   20.4643 C   0  0  0  0  0  0
  -22.7249  -10.2127   20.3056 C   0  0  0  0  0  0
  -21.6850   -6.0734   22.5276 C   0  0  0  0  0  0
  -21.4012   -6.5639   23.8211 C   0  0  0  0  0  0
  -21.3658   -5.6792   24.9172 C   0  0  0  0  0  0
  -21.6040   -4.3054   24.7221 C   0  0  0  0  0  0
  -21.8822   -3.8147   23.4344 C   0  0  0  0  0  0
  -21.9194   -4.6962   22.3400 C   0  0  0  0  0  0
  -22.7778  -13.5188   21.1895 C   0  0  0  0  0  0
  -22.1664   -4.2152   21.0976 F   0  0  0  0  0  0
  -21.5628   -3.4538   25.7735 F   0  0  0  0  0  0
  -29.9420  -13.7117   20.3599 N   0  0  0  0  0  0
  -26.2864  -12.9440   20.3251 N   0  0  0  0  0  0
  -25.9320  -11.6569   20.5749 N   0  0  0  0  0  0
  -22.0431  -12.8171   22.0449 N   0  0  0  0  0  0
  -25.4047  -15.1906   20.4185 N   0  0  0  0  0  0
  -31.7573  -15.0140   20.1660 O   0  0  0  0  0  0
  -21.6636   -6.8880   21.4239 O   0  0  0  0  0  0
  -22.3465  -14.5495   20.6740 O   0  0  0  0  0  0
  -24.6453  -31.8414   23.1861 C   0  0  0  0  0  0
  -25.9216  -32.4676   23.8256 C   0  0  1  0  0  0
  -27.2184  -27.1172   20.1500 C   0  0  0  0  0  0
  -25.5954  -33.8487   24.2169 N   0  0  0  0  0  0
  -23.4497  -30.4594   21.5323 C   0  0  2  0  0  0
  -24.8999  -28.8819   20.1099 C   0  0  0  0  0  0
  -22.7569  -29.4529   22.4857 C   0  0  0  0  0  0
  -18.0298  -28.1394   22.8470 C   0  0  0  0  0  0
  -24.1492  -36.7245   23.2646 C   0  0  0  0  0  0
  -26.0065  -30.7087   21.3869 C   0  0  0  0  0  0
  -26.0779  -29.3182   20.7287 C   0  0  0  0  0  0
  -27.2382  -28.4526   20.7306 C   0  0  0  0  0  0
  -26.0121  -26.7849   19.4949 C   0  0  0  0  0  0
  -24.8803  -27.6296   19.4778 C   0  0  0  0  0  0
  -23.6771  -29.7870   20.1524 C   0  0  0  0  0  0
  -25.4122  -36.3019   24.0317 C   0  0  1  0  0  0
  -20.5911  -28.3714   23.1231 C   0  0  2  0  0  0
  -20.6779  -26.9413   22.5399 C   0  0  0  0  0  0
  -19.5756  -26.6380   21.5204 C   0  0  0  0  0  0
  -18.1935  -26.7932   22.1617 C   0  0  0  0  0  0
  -19.1558  -28.8874   23.2838 C   0  0  0  0  0  0
  -18.9476  -30.1468   23.8863 C   0  0  0  0  0  0
  -17.6476  -30.6589   24.0557 C   0  0  0  0  0  0
  -25.9081  -34.9397   23.5054 C   0  0  0  0  0  0
  -16.5365  -29.9081   23.6342 C   0  0  0  0  0  0
  -16.7285  -28.6503   23.0355 C   0  0  0  0  0  0
  -26.4533  -31.6565   25.0713 C   0  0  0  0  0  0
  -25.3705  -31.3764   26.1398 C   0  0  0  0  0  0
  -27.0408  -30.2958   24.6323 C   0  0  0  0  0  0
  -27.6057  -32.4341   25.7497 C   0  0  0  0  0  0
  -27.5570  -37.1772   24.8468 C   0  0  0  0  0  0
  -21.4261  -29.3045   22.3612 N   0  0  0  0  0  0
  -26.4283  -37.3738   23.9413 N   0  0  0  0  0  0
  -24.7204  -31.0245   22.0907 N   0  0  0  0  0  0
  -23.4205  -28.8076   23.3012 O   0  0  0  0  0  0
  -28.2684  -26.1232   20.2231 O   0  0  0  0  0  0
  -26.5673  -34.8903   22.4639 O   0  0  0  0  0  0
  -23.5568  -32.1306   23.7069 O   0  0  0  0  0  0
  -27.4010  -20.1181   18.9993 C   0  0  0  0  0  0
  -28.1389  -18.9590   19.3498 C   0  0  0  0  0  0
  -29.2897  -19.0542   20.1708 C   0  0  0  0  0  0
  -29.5833  -20.4739   20.5307 C   0  0  0  0  0  0
  -28.7685  -21.6564   20.1175 C   0  0  0  0  0  0
  -27.6824  -17.6271   18.7808 C   0  0  0  0  0  0
  -30.8306  -20.7238   21.3605 C   0  0  0  0  0  0
  -30.1929  -17.7019   20.5418 C   0  0  0  0  0  0
  -29.0385  -23.2789   20.3820 C   0  0  0  0  0  0
  -28.0056  -24.5857   20.0387 C   0  0  0  0  0  0
  -27.6923  -21.3948   19.3524 N   0  0  0  0  0  0
  -29.7844  -16.1675   20.5183 N   0  0  0  0  0  0
  -31.4689  -12.7612   19.1765 H   0  0  0  0  0  0
  -30.4366  -11.6589   20.0427 H   0  0  0  0  0  0
  -29.8386  -11.7149   17.5958 H   0  0  0  0  0  0
  -29.5957  -13.4435   17.6756 H   0  0  0  0  0  0
  -27.9623  -11.2663   19.0094 H   0  0  0  0  0  0
  -27.3843  -12.4118   17.8270 H   0  0  0  0  0  0
  -27.5798  -14.2440   19.3898 H   0  0  0  0  0  0
  -28.7632  -12.3338   21.4638 H   0  0  0  0  0  0
  -28.3669  -14.0160   21.7343 H   0  0  0  0  0  0
  -25.2765   -9.5669   22.4769 H   0  0  0  0  0  0
  -23.9998   -7.4623   22.7479 H   0  0  0  0  0  0
  -21.0847   -8.8776   19.8950 H   0  0  0  0  0  0
  -22.3712  -10.9669   19.6170 H   0  0  0  0  0  0
  -21.2005   -7.6147   23.9714 H   0  0  0  0  0  0
  -21.1476   -6.0519   25.9071 H   0  0  0  0  0  0
  -22.0604   -2.7612   23.2840 H   0  0  0  0  0  0
  -22.4052  -11.9828   22.4817 H   0  0  0  0  0  0
  -21.1055  -13.1199   22.2675 H   0  0  0  0  0  0
  -24.6321  -15.8381   20.5311 H   0  0  0  0  0  0
  -26.2447  -15.6307   20.0734 H   0  0  0  0  0  0
  -26.7279  -32.5272   23.0979 H   0  0  0  0  0  0
  -25.0045  -33.9594   25.0283 H   0  0  0  0  0  0
  -22.7536  -31.2864   21.3763 H   0  0  0  0  0  0
  -23.3758  -35.9570   23.3297 H   0  0  0  0  0  0
  -24.3571  -36.8896   22.2062 H   0  0  0  0  0  0
  -23.7240  -37.6435   23.6697 H   0  0  0  0  0  0
  -26.1611  -31.4634   20.6148 H   0  0  0  0  0  0
  -26.8764  -30.7600   22.0300 H   0  0  0  0  0  0
  -28.1354  -28.7808   21.2369 H   0  0  0  0  0  0
  -25.9095  -25.8260   19.0086 H   0  0  0  0  0  0
  -23.9800  -27.2904   18.9831 H   0  0  0  0  0  0
  -23.8134  -30.5613   19.3961 H   0  0  0  0  0  0
  -22.7917  -29.2294   19.8423 H   0  0  0  0  0  0
  -25.1307  -36.1843   25.0808 H   0  0  0  0  0  0
  -20.9985  -28.3302   24.1358 H   0  0  0  0  0  0
  -20.5666  -26.2322   23.3617 H   0  0  0  0  0  0
  -21.6642  -26.7421   22.1196 H   0  0  0  0  0  0
  -19.6923  -25.6288   21.1240 H   0  0  0  0  0  0
  -19.6698  -27.3187   20.6728 H   0  0  0  0  0  0
  -17.4201  -26.6667   21.4026 H   0  0  0  0  0  0
  -18.0336  -26.0084   22.9024 H   0  0  0  0  0  0
  -19.7962  -30.7279   24.2220 H   0  0  0  0  0  0
  -17.5041  -31.6271   24.5158 H   0  0  0  0  0  0
  -15.5366  -30.2970   23.7704 H   0  0  0  0  0  0
  -15.8681  -28.0821   22.7082 H   0  0  0  0  0  0
  -24.5890  -30.7112   25.7710 H   0  0  0  0  0  0
  -24.8880  -32.2945   26.4757 H   0  0  0  0  0  0
  -25.7959  -30.8973   27.0223 H   0  0  0  0  0  0
  -26.3041  -29.6660   24.1318 H   0  0  0  0  0  0
  -27.3999  -29.7279   25.4917 H   0  0  0  0  0  0
  -27.8955  -30.4188   23.9665 H   0  0  0  0  0  0
  -27.2657  -33.3678   26.1985 H   0  0  0  0  0  0
  -28.3900  -32.6842   25.0343 H   0  0  0  0  0  0
  -28.0684  -31.8523   26.5480 H   0  0  0  0  0  0
  -28.2571  -38.0083   24.7508 H   0  0  0  0  0  0
  -28.1075  -36.2604   24.6293 H   0  0  0  0  0  0
  -27.2281  -37.1415   25.8870 H   0  0  0  0  0  0
  -20.9479  -29.8764   21.6794 H   0  0  0  0  0  0
  -26.0146  -38.2803   24.1430 H   0  0  0  0  0  0
  -26.5267  -20.0204   18.3720 H   0  0  0  0  0  0
  -26.8695  -17.7520   18.0640 H   0  0  0  0  0  0
  -27.3209  -16.9826   19.5786 H   0  0  0  0  0  0
  -28.4987  -17.1235   18.2614 H   0  0  0  0  0  0
  -31.7098  -20.3246   20.8528 H   0  0  0  0  0  0
  -30.7455  -20.2330   22.3303 H   0  0  0  0  0  0
  -31.0101  -21.7829   21.5416 H   0  0  0  0  0  0
  -30.5726  -17.8708   21.5494 H   0  0  0  0  0  0
  -31.0771  -17.7726   19.9067 H   0  0  0  0  0  0
  -29.9778  -23.4900   19.8717 H   0  0  0  0  0  0
  -29.2765  -23.3592   21.4420 H   0  0  0  0  0  0
  -27.0866  -24.3804   20.5878 H   0  0  0  0  0  0
  -27.7393  -24.4722   18.9880 H   0  0  0  0  0  0
  -28.8000  -16.0113   20.6628 H   0  0  0  0  0  0
  1 25  1  0  0  0
  1 30  2  0  0  0
  1 82  1  0  0  0
  2  3  1  0  0  0
  2 25  1  0  0  0
  2 83  1  0  0  0
  2 84  1  0  0  0
  3  4  1  0  0  0
  3 85  1  0  0  0
  3 86  1  0  0  0
  4  5  1  0  0  0
  4 87  1  0  0  0
  4 88  1  0  0  0
  5  6  1  0  0  0
  5 26  1  0  0  0
  5 89  1  0  0  0
  6 25  1  0  0  0
  6 90  1  0  0  0
  6 91  1  0  0  0
  7  8  2  0  0  0
  7 26  1  0  0  0
  7 29  1  0  0  0
  8  9  1  0  0  0
  8 22  1  0  0  0
  9 10  1  0  0  0
  9 27  2  0  0  0
 10 11  2  0  0  0
 10 15  1  0  0  0
 11 12  1  0  0  0
 11 92  1  0  0  0
 12 13  2  0  0  0
 12 93  1  0  0  0
 13 14  1  0  0  0
 13 31  1  0  0  0
 14 15  2  0  0  0
 14 94  1  0  0  0
 15 95  1  0  0  0
 16 17  2  0  0  0
 16 21  1  0  0  0
 16 31  1  0  0  0
 17 18  1  0  0  0
 17 96  1  0  0  0
 18 19  2  0  0  0
 18 97  1  0  0  0
 19 20  1  0  0  0
 19 24  1  0  0  0
 20 21  2  0  0  0
 20 98  1  0  0  0
 21 23  1  0  0  0
 22 28  1  0  0  0
 22 32  2  0  0  0
 26 27  1  0  0  0
 28 99  1  0  0  0
 28100  1  0  0  0
 29101  1  0  0  0
 29102  1  0  0  0
 33 34  1  0  0  0
 33 66  1  0  0  0
 33 70  2  0  0  0
 34 36  1  0  0  0
 34 59  1  0  0  0
 34103  1  0  0  0
 35 44  2  0  0  0
 35 45  1  0  0  0
 35 68  1  0  0  0
 36 56  1  0  0  0
 36104  1  0  0  0
 37 39  1  0  0  0
 37 47  1  0  0  0
 37 66  1  0  0  0
 37105  1  0  0  0
 38 43  2  0  0  0
 38 46  1  0  0  0
 38 47  1  0  0  0
 39 64  1  0  0  0
 39 67  2  0  0  0
 40 52  1  0  0  0
 40 53  2  0  0  0
 40 58  1  0  0  0
 41106  1  0  0  0
 41107  1  0  0  0
 41108  1  0  0  0
 41 48  1  0  0  0
 42 43  1  0  0  0
 42 66  1  0  0  0
 42109  1  0  0  0
 42110  1  0  0  0
 43 44  1  0  0  0
 44111  1  0  0  0
 45 46  2  0  0  0
 45112  1  0  0  0
 46113  1  0  0  0
 47114  1  0  0  0
 47115  1  0  0  0
 48 56  1  0  0  0
 48 65  1  0  0  0
 48116  1  0  0  0
 49 50  1  0  0  0
 49 53  1  0  0  0
 49 64  1  0  0  0
 49117  1  0  0  0
 50 51  1  0  0  0
 50118  1  0  0  0
 50119  1  0  0  0
 51 52  1  0  0  0
 51120  1  0  0  0
 51121  1  0  0  0
 52122  1  0  0  0
 52123  1  0  0  0
 53 54  1  0  0  0
 54 55  2  0  0  0
 54124  1  0  0  0
 55 57  1  0  0  0
 55125  1  0  0  0
 56 69  2  0  0  0
 57 58  2  0  0  0
 57126  1  0  0  0
 58127  1  0  0  0
 59 60  1  0  0  0
 59 61  1  0  0  0
 59 62  1  0  0  0
 60128  1  0  0  0
 60129  1  0  0  0
 60130  1  0  0  0
 61131  1  0  0  0
 61132  1  0  0  0
 61133  1  0  0  0
 62134  1  0  0  0
 62135  1  0  0  0
 62136  1  0  0  0
 63 65  1  0  0  0
 63137  1  0  0  0
 63138  1  0  0  0
 63139  1  0  0  0
 64140  1  0  0  0
 65141  1  0  0  0
 68 80  1  0  0  0
 71 72  2  0  0  0
 71 81  1  0  0  0
 71142  1  0  0  0
 72 73  1  0  0  0
 72 76  1  0  0  0
 73 74  2  0  0  0
 73 78  1  0  0  0
 74 75  1  0  0  0
 74 77  1  0  0  0
 75 79  1  0  0  0
 75 81  2  0  0  0
 76143  1  0  0  0
 76144  1  0  0  0
 76145  1  0  0  0
 77146  1  0  0  0
 77147  1  0  0  0
 77148  1  0  0  0
 78 82  1  0  0  0
 78149  1  0  0  0
 78150  1  0  0  0
 79 80  1  0  0  0
 79151  1  0  0  0
 79152  1  0  0  0
 80153  1  0  0  0
 80154  1  0  0  0
 82155  1  0  0  0
M  ISO  4   1 100  68 101  80 101  82 100
M  END
> <chiral flag>
0

> <version>
0

> <s_m_source_file>
/data/baiqing/PycharmProjects/Reinvent-master-3.2/result/LINK_invent/BTK/process_docking_weight1_custom_sum_contain_oxygen_bond_distance_aromatic_linkinvent_7_9_3/rearranged_h_0107.sdf

> <i_m_source_file_index>
34

> <r_mmod_Potential_Energy-OPLS-2005>
266.499237060547

> <r_mmod_Stretch_Energy-OPLS-2005>
278.365905761719

> <r_mmod_Bend_Energy-OPLS-2005>
252.298538208008

> <r_mmod_Torsional_Energy-OPLS-2005>
206.246154785156

> <r_mmod_Improper_Torsional_Energy-OPLS-2005>
4.54350709915161

> <r_mmod_Van_der_Waal_Energy-OPLS-2005>
130.538833618164

> <r_mmod_Electrostatic_Energy-OPLS-2005>
-583.912719726562

> <r_mmod_Solvation_Energy-OPLS-2005>
-231.167205810547

> <b_mmod_Minimization_Converged-OPLS-2005>
0

> <r_mmod_RMS_Derivative-OPLS-2005>
1.20306062698364

$$$$
34
                    3D
 Structure written by MMmdl.
178186  0  0  1  0            999 V2000
  -30.8002  -14.3055   20.7041 C   0  0  0  0  0  0
  -30.3986  -12.2728   19.3656 C   0  0  0  0  0  0
  -29.4658  -12.5248   18.1709 C   0  0  0  0  0  0
  -27.9951  -12.3748   18.5979 C   0  0  0  0  0  0
  -27.6610  -13.1997   19.8681 C   0  0  2  0  0  0
  -28.6987  -12.9414   20.9814 C   0  0  0  0  0  0
  -25.2592  -13.8150   20.5645 C   0  0  0  0  0  0
  -24.1845  -13.0438   20.9167 C   0  0  0  0  0  0
  -24.6383  -11.6899   20.8722 C   0  0  0  0  0  0
  -23.9046  -10.4295   21.0412 C   0  0  0  0  0  0
  -24.3607   -9.4214   21.9188 C   0  0  0  0  0  0
  -23.6288   -8.2244   22.0750 C   0  0  0  0  0  0
  -22.4271   -8.0279   21.3543 C   0  0  0  0  0  0
  -21.9901   -9.0252   20.4641 C   0  0  0  0  0  0
  -22.7219  -10.2133   20.3056 C   0  0  0  0  0  0
  -21.6845   -6.0735   22.5282 C   0  0  0  0  0  0
  -21.4020   -6.5642   23.8216 C   0  0  0  0  0  0
  -21.3660   -5.6795   24.9180 C   0  0  0  0  0  0
  -21.6034   -4.3057   24.7231 C   0  0  0  0  0  0
  -21.8817   -3.8146   23.4352 C   0  0  0  0  0  0
  -21.9196   -4.6963   22.3408 C   0  0  0  0  0  0
  -22.7872  -13.5230   21.1864 C   0  0  0  0  0  0
  -22.1657   -4.2148   21.0985 F   0  0  0  0  0  0
  -21.5624   -3.4543   25.7743 F   0  0  0  0  0  0
  -30.0455  -13.2110   20.4400 N   0  0  0  0  0  0
  -26.3012  -12.9310   20.3306 N   0  0  0  0  0  0
  -25.9300  -11.6475   20.5725 N   0  0  0  0  0  0
  -22.0517  -12.8229   22.0413 N   0  0  0  0  0  0
  -25.4357  -15.1867   20.4067 N   0  0  0  0  0  0
  -31.7652  -14.6586   20.0190 O   0  0  0  0  0  0
  -21.6630   -6.8875   21.4243 O   0  0  0  0  0  0
  -22.3574  -14.5550   20.6715 O   0  0  0  0  0  0
  -24.6120  -31.8706   23.2186 C   0  0  0  0  0  0
  -25.9033  -32.4855   23.8433 C   0  0  1  0  0  0
  -27.2323  -27.4601   20.0967 C   0  0  0  0  0  0
  -25.5900  -33.8646   24.2387 N   0  0  0  0  0  0
  -23.3990  -30.4961   21.5565 C   0  0  2  0  0  0
  -24.8442  -28.9631   20.1261 C   0  0  0  0  0  0
  -22.7412  -29.4658   22.4999 C   0  0  0  0  0  0
  -18.0256  -28.1380   22.8470 C   0  0  0  0  0  0
  -24.1464  -36.7326   23.2639 C   0  0  0  0  0  0
  -25.9250  -30.8434   21.3683 C   0  0  0  0  0  0
  -26.0050  -29.4763   20.7226 C   0  0  0  0  0  0
  -27.2015  -28.7278   20.7173 C   0  0  0  0  0  0
  -26.0605  -26.9594   19.4955 C   0  0  0  0  0  0
  -24.8626  -27.6965   19.5200 C   0  0  0  0  0  0
  -23.6099  -29.8327   20.1699 C   0  0  0  0  0  0
  -25.4094  -36.3152   24.0348 C   0  0  1  0  0  0
  -20.5861  -28.3635   23.1322 C   0  0  2  0  0  0
  -20.6752  -26.9371   22.5402 C   0  0  0  0  0  0
  -19.5722  -26.6362   21.5212 C   0  0  0  0  0  0
  -18.1887  -26.7919   22.1601 C   0  0  0  0  0  0
  -19.1525  -28.8824   23.2881 C   0  0  0  0  0  0
  -18.9450  -30.1439   23.8866 C   0  0  0  0  0  0
  -17.6465  -30.6576   24.0541 C   0  0  0  0  0  0
  -25.9010  -34.9505   23.5162 C   0  0  0  0  0  0
  -16.5341  -29.9080   23.6352 C   0  0  0  0  0  0
  -16.7257  -28.6513   23.0351 C   0  0  0  0  0  0
  -26.4455  -31.6654   25.0759 C   0  0  0  0  0  0
  -25.3720  -31.3766   26.1519 C   0  0  0  0  0  0
  -27.0320  -30.3105   24.6158 C   0  0  0  0  0  0
  -27.6013  -32.4388   25.7558 C   0  0  0  0  0  0
  -27.5581  -37.1811   24.8471 C   0  0  0  0  0  0
  -21.4148  -29.3014   22.3754 N   0  0  0  0  0  0
  -26.4292  -37.3834   23.9417 N   0  0  0  0  0  0
  -24.6636  -31.0840   22.1071 N   0  0  0  0  0  0
  -23.4194  -28.8185   23.3015 O   0  0  0  0  0  0
  -28.3991  -26.7496   19.9658 O   0  0  0  0  0  0
  -26.5537  -34.8929   22.4710 O   0  0  0  0  0  0
  -23.5327  -32.1435   23.7612 O   0  0  0  0  0  0
  -28.6676  -19.2807   23.0875 C   0  0  0  0  0  0
  -30.3703  -19.2855   21.6610 C   0  0  0  0  0  0
  -29.3128  -20.0416   22.0763 C   0  0  0  0  0  0
  -29.3603  -18.1158   23.2971 C   0  0  0  0  0  0
  -27.2235  -15.9219   25.7208 C   0  0  0  0  0  0
  -30.0981  -17.0923   25.4752 C   0  0  0  0  0  0
  -27.0984  -24.5922   22.0418 C   0  0  0  0  0  0
  -28.2547  -23.9649   19.8585 C   0  0  0  0  0  0
  -28.9148  -21.4058   21.5629 C   0  0  0  0  0  0
  -27.6454  -17.1444   24.8941 C   0  0  0  0  0  0
  -31.5672  -17.1889   22.1908 C   0  0  0  0  0  0
  -31.4840  -15.7069   22.6238 C   0  0  0  0  0  0
  -29.5475  -23.8244   22.0425 C   0  0  0  0  0  0
  -28.9155  -26.0817   21.1157 C   0  0  0  0  0  0
  -29.0781  -17.0480   24.3227 C   0  0  1  0  0  0
  -28.4344  -24.6009   21.2615 C   0  0  0  0  0  0
  -30.4304  -18.1059   22.3888 N   0  0  0  0  0  0
  -30.5403  -14.8740   21.8829 N   0  0  0  0  0  0
  -29.2196  -22.4627   22.5484 N   0  3  0  0  0  0
  -31.4435  -12.3574   19.0606 H   0  0  0  0  0  0
  -30.2786  -11.2486   19.7225 H   0  0  0  0  0  0
  -29.6898  -11.8264   17.3639 H   0  0  0  0  0  0
  -29.6367  -13.5242   17.7693 H   0  0  0  0  0  0
  -27.8070  -11.3156   18.7808 H   0  0  0  0  0  0
  -27.3338  -12.6576   17.7773 H   0  0  0  0  0  0
  -27.7203  -14.2524   19.5927 H   0  0  0  0  0  0
  -28.6485  -11.9003   21.3059 H   0  0  0  0  0  0
  -28.4473  -13.5372   21.8594 H   0  0  0  0  0  0
  -25.2762   -9.5680   22.4761 H   0  0  0  0  0  0
  -23.9991   -7.4632   22.7473 H   0  0  0  0  0  0
  -21.0823   -8.8767   19.8959 H   0  0  0  0  0  0
  -22.3680  -10.9670   19.6161 H   0  0  0  0  0  0
  -21.2019   -7.6150   23.9719 H   0  0  0  0  0  0
  -21.1478   -6.0527   25.9078 H   0  0  0  0  0  0
  -22.0598   -2.7608   23.2855 H   0  0  0  0  0  0
  -22.4127  -11.9871   22.4768 H   0  0  0  0  0  0
  -21.1143  -13.1276   22.2637 H   0  0  0  0  0  0
  -24.6785  -15.8503   20.5298 H   0  0  0  0  0  0
  -26.2993  -15.6211   20.1044 H   0  0  0  0  0  0
  -26.7090  -32.5600   23.1196 H   0  0  0  0  0  0
  -25.0242  -33.9803   25.0670 H   0  0  0  0  0  0
  -22.6876  -31.3124   21.4193 H   0  0  0  0  0  0
  -23.3737  -35.9658   23.3347 H   0  0  0  0  0  0
  -24.3510  -36.8918   22.2036 H   0  0  0  0  0  0
  -23.7184  -37.6524   23.6637 H   0  0  0  0  0  0
  -26.0308  -31.6098   20.5986 H   0  0  0  0  0  0
  -26.8134  -30.9048   21.9827 H   0  0  0  0  0  0
  -28.1050  -29.1266   21.1581 H   0  0  0  0  0  0
  -26.0656  -25.9969   19.0036 H   0  0  0  0  0  0
  -23.9742  -27.2908   19.0556 H   0  0  0  0  0  0
  -23.7305  -30.6113   19.4145 H   0  0  0  0  0  0
  -22.7318  -29.2575   19.8670 H   0  0  0  0  0  0
  -25.1276  -36.2051   25.0840 H   0  0  0  0  0  0
  -20.9911  -28.3137   24.1463 H   0  0  0  0  0  0
  -20.5694  -26.2190   23.3563 H   0  0  0  0  0  0
  -21.6617  -26.7458   22.1160 H   0  0  0  0  0  0
  -19.6894  -25.6285   21.1229 H   0  0  0  0  0  0
  -19.6691  -27.3170   20.6747 H   0  0  0  0  0  0
  -17.4175  -26.6687   21.3981 H   0  0  0  0  0  0
  -18.0256  -26.0075   22.9003 H   0  0  0  0  0  0
  -19.7943  -30.7255   24.2190 H   0  0  0  0  0  0
  -17.5034  -31.6260   24.5141 H   0  0  0  0  0  0
  -15.5343  -30.2965   23.7722 H   0  0  0  0  0  0
  -15.8650  -28.0844   22.7074 H   0  0  0  0  0  0
  -24.5856  -30.7170   25.7835 H   0  0  0  0  0  0
  -24.8931  -32.2916   26.5025 H   0  0  0  0  0  0
  -25.8023  -30.8876   27.0258 H   0  0  0  0  0  0
  -26.2892  -29.6829   24.1208 H   0  0  0  0  0  0
  -27.4071  -29.7407   25.4669 H   0  0  0  0  0  0
  -27.8737  -30.4464   23.9352 H   0  0  0  0  0  0
  -27.2662  -33.3734   26.2109 H   0  0  0  0  0  0
  -28.3864  -32.6874   25.0400 H   0  0  0  0  0  0
  -28.0632  -31.8502   26.5517 H   0  0  0  0  0  0
  -28.2617  -38.0090   24.7557 H   0  0  0  0  0  0
  -28.1049  -36.2619   24.6305 H   0  0  0  0  0  0
  -27.2256  -37.1495   25.8855 H   0  0  0  0  0  0
  -20.9281  -29.8813   21.7072 H   0  0  0  0  0  0
  -26.0203  -38.2915   24.1444 H   0  0  0  0  0  0
  -27.7841  -19.5810   23.6349 H   0  0  0  0  0  0
  -31.1193  -19.4960   20.9066 H   0  0  0  0  0  0
  -26.1474  -15.9298   25.8948 H   0  0  0  0  0  0
  -27.7124  -15.9138   26.6956 H   0  0  0  0  0  0
  -27.4691  -14.9888   25.2126 H   0  0  0  0  0  0
  -31.1236  -17.1795   25.1213 H   0  0  0  0  0  0
  -30.0382  -16.1880   26.0800 H   0  0  0  0  0  0
  -29.9185  -17.9438   26.1300 H   0  0  0  0  0  0
  -26.6823  -23.5899   22.1457 H   0  0  0  0  0  0
  -26.3377  -25.1911   21.5436 H   0  0  0  0  0  0
  -27.2178  -25.0054   23.0446 H   0  0  0  0  0  0
  -27.6805  -23.0434   19.8927 H   0  0  0  0  0  0
  -29.2146  -23.7492   19.3875 H   0  0  0  0  0  0
  -27.7116  -24.6002   19.1626 H   0  0  0  0  0  0
  -27.8449  -21.3965   21.3567 H   0  0  0  0  0  0
  -29.4444  -21.5804   20.6237 H   0  0  0  0  0  0
  -27.5439  -18.0432   25.5050 H   0  0  0  0  0  0
  -26.9340  -17.2493   24.0733 H   0  0  0  0  0  0
  -31.8500  -17.2255   21.1365 H   0  0  0  0  0  0
  -32.4117  -17.6386   22.7145 H   0  0  0  0  0  0
  -31.3023  -15.5834   23.6844 H   0  0  0  0  0  0
  -32.4808  -15.2798   22.4884 H   0  0  0  0  0  0
  -29.8371  -24.4116   22.9158 H   0  0  0  0  0  0
  -30.4505  -23.7556   21.4341 H   0  0  0  0  0  0
  -30.0003  -26.0969   20.9879 H   0  0  0  0  0  0
  -28.7243  -26.6537   22.0263 H   0  0  0  0  0  0
  -29.1295  -16.0848   23.8208 H   0  0  0  0  0  0
  -29.7676  -14.4834   22.4009 H   0  0  0  0  0  0
  -30.0368  -22.1399   23.0393 H   0  0  0  0  0  0
  -28.4761  -22.5089   23.2234 H   0  0  0  0  0  0
  1 25  1  0  0  0
  1 30  2  0  0  0
  1 88  1  0  0  0
  2  3  1  0  0  0
  2 25  1  0  0  0
  2 90  1  0  0  0
  2 91  1  0  0  0
  3  4  1  0  0  0
  3 92  1  0  0  0
  3 93  1  0  0  0
  4  5  1  0  0  0
  4 94  1  0  0  0
  4 95  1  0  0  0
  5  6  1  0  0  0
  5 26  1  0  0  0
  5 96  1  0  0  0
  6 25  1  0  0  0
  6 97  1  0  0  0
  6 98  1  0  0  0
  7  8  2  0  0  0
  7 26  1  0  0  0
  7 29  1  0  0  0
  8  9  1  0  0  0
  8 22  1  0  0  0
  9 10  1  0  0  0
  9 27  2  0  0  0
 10 11  2  0  0  0
 10 15  1  0  0  0
 11 12  1  0  0  0
 11 99  1  0  0  0
 12 13  2  0  0  0
 12100  1  0  0  0
 13 14  1  0  0  0
 13 31  1  0  0  0
 14 15  2  0  0  0
 14101  1  0  0  0
 15102  1  0  0  0
 16 17  2  0  0  0
 16 21  1  0  0  0
 16 31  1  0  0  0
 17 18  1  0  0  0
 17103  1  0  0  0
 18 19  2  0  0  0
 18104  1  0  0  0
 19 20  1  0  0  0
 19 24  1  0  0  0
 20 21  2  0  0  0
 20105  1  0  0  0
 21 23  1  0  0  0
 22 28  1  0  0  0
 22 32  2  0  0  0
 26 27  1  0  0  0
 28106  1  0  0  0
 28107  1  0  0  0
 29108  1  0  0  0
 29109  1  0  0  0
 33 34  1  0  0  0
 33 66  1  0  0  0
 33 70  2  0  0  0
 34 36  1  0  0  0
 34 59  1  0  0  0
 34110  1  0  0  0
 35 44  2  0  0  0
 35 45  1  0  0  0
 35 68  1  0  0  0
 36 56  1  0  0  0
 36111  1  0  0  0
 37 39  1  0  0  0
 37 47  1  0  0  0
 37 66  1  0  0  0
 37112  1  0  0  0
 38 43  2  0  0  0
 38 46  1  0  0  0
 38 47  1  0  0  0
 39 64  1  0  0  0
 39 67  2  0  0  0
 40 52  1  0  0  0
 40 53  2  0  0  0
 40 58  1  0  0  0
 41113  1  0  0  0
 41114  1  0  0  0
 41115  1  0  0  0
 41 48  1  0  0  0
 42 43  1  0  0  0
 42 66  1  0  0  0
 42116  1  0  0  0
 42117  1  0  0  0
 43 44  1  0  0  0
 44118  1  0  0  0
 45 46  2  0  0  0
 45119  1  0  0  0
 46120  1  0  0  0
 47121  1  0  0  0
 47122  1  0  0  0
 48 56  1  0  0  0
 48 65  1  0  0  0
 48123  1  0  0  0
 49 50  1  0  0  0
 49 53  1  0  0  0
 49 64  1  0  0  0
 49124  1  0  0  0
 50 51  1  0  0  0
 50125  1  0  0  0
 50126  1  0  0  0
 51 52  1  0  0  0
 51127  1  0  0  0
 51128  1  0  0  0
 52129  1  0  0  0
 52130  1  0  0  0
 53 54  1  0  0  0
 54 55  2  0  0  0
 54131  1  0  0  0
 55 57  1  0  0  0
 55132  1  0  0  0
 56 69  2  0  0  0
 57 58  2  0  0  0
 57133  1  0  0  0
 58134  1  0  0  0
 59 60  1  0  0  0
 59 61  1  0  0  0
 59 62  1  0  0  0
 60135  1  0  0  0
 60136  1  0  0  0
 60137  1  0  0  0
 61138  1  0  0  0
 61139  1  0  0  0
 61140  1  0  0  0
 62141  1  0  0  0
 62142  1  0  0  0
 62143  1  0  0  0
 63 65  1  0  0  0
 63144  1  0  0  0
 63145  1  0  0  0
 63146  1  0  0  0
 64147  1  0  0  0
 65148  1  0  0  0
 68 84  1  0  0  0
 71 73  1  0  0  0
 71 74  2  0  0  0
 71149  1  0  0  0
 72 73  2  0  0  0
 72 87  1  0  0  0
 72150  1  0  0  0
 73 79  1  0  0  0
 74 85  1  0  0  0
 74 87  1  0  0  0
 75 80  1  0  0  0
 75151  1  0  0  0
 75152  1  0  0  0
 75153  1  0  0  0
 76154  1  0  0  0
 76155  1  0  0  0
 76156  1  0  0  0
 76 85  1  0  0  0
 77157  1  0  0  0
 77158  1  0  0  0
 77159  1  0  0  0
 77 86  1  0  0  0
 78 86  1  0  0  0
 78160  1  0  0  0
 78161  1  0  0  0
 78162  1  0  0  0
 79 89  1  0  0  0
 79163  1  0  0  0
 79164  1  0  0  0
 80 85  1  0  0  0
 80165  1  0  0  0
 80166  1  0  0  0
 81 82  1  0  0  0
 81 87  1  0  0  0
 81167  1  0  0  0
 81168  1  0  0  0
 82 88  1  0  0  0
 82169  1  0  0  0
 82170  1  0  0  0
 83 86  1  0  0  0
 83 89  1  0  0  0
 83171  1  0  0  0
 83172  1  0  0  0
 84 86  1  0  0  0
 84173  1  0  0  0
 84174  1  0  0  0
 85175  1  0  0  0
 88176  1  0  0  0
 89177  1  0  0  0
 89178  1  0  0  0
M  CHG  1  89   1
M  ISO  4   1 100  68 101  84 101  88 100
M  END
> <chiral flag>
0

> <version>
0

> <s_m_source_file>
/data/baiqing/PycharmProjects/Reinvent-master-3.2/result/LINK_invent/BTK/process_docking_weight1_custom_sum_contain_oxygen_bond_distance_aromatic_linkinvent_7_9_3/rearranged_h_0107.sdf

> <i_m_source_file_index>
35

> <r_mmod_Potential_Energy-OPLS-2005>
-235.891021728516

> <r_mmod_Stretch_Energy-OPLS-2005>
36.6767272949219

> <r_mmod_Bend_Energy-OPLS-2005>
134.097885131836

> <r_mmod_Torsional_Energy-OPLS-2005>
266.286468505859

> <r_mmod_Improper_Torsional_Energy-OPLS-2005>
5.21367931365967

> <r_mmod_Van_der_Waal_Energy-OPLS-2005>
132.608459472656

> <r_mmod_Electrostatic_Energy-OPLS-2005>
-387.597991943359

> <r_mmod_Solvation_Energy-OPLS-2005>
-430.797973632812

> <b_mmod_Minimization_Converged-OPLS-2005>
0

> <r_mmod_RMS_Derivative-OPLS-2005>
3.93772125244141

$$$$
35
                    3D
 Structure written by MMmdl.
167175  0  0  1  0            999 V2000
  -30.3912  -15.2758   20.4661 C   0  0  0  0  0  0
  -30.4588  -12.8245   19.5168 C   0  0  0  0  0  0
  -29.5444  -12.5852   18.2770 C   0  0  0  0  0  0
  -28.0858  -12.3057   18.6890 C   0  0  0  0  0  0
  -27.6214  -13.2562   19.8129 C   0  0  2  0  0  0
  -28.6535  -13.3524   20.9499 C   0  0  0  0  0  0
  -25.2480  -13.8190   20.5639 C   0  0  0  0  0  0
  -24.1814  -13.0426   20.9212 C   0  0  0  0  0  0
  -24.6437  -11.6929   20.8765 C   0  0  0  0  0  0
  -23.9085  -10.4311   21.0479 C   0  0  0  0  0  0
  -24.3643   -9.4208   21.9234 C   0  0  0  0  0  0
  -23.6297   -8.2235   22.0768 C   0  0  0  0  0  0
  -22.4279   -8.0286   21.3550 C   0  0  0  0  0  0
  -21.9939   -9.0265   20.4653 C   0  0  0  0  0  0
  -22.7279  -10.2160   20.3086 C   0  0  0  0  0  0
  -21.6852   -6.0759   22.5296 C   0  0  0  0  0  0
  -21.4002   -6.5670   23.8222 C   0  0  0  0  0  0
  -21.3648   -5.6822   24.9173 C   0  0  0  0  0  0
  -21.6040   -4.3081   24.7243 C   0  0  0  0  0  0
  -21.8826   -3.8176   23.4369 C   0  0  0  0  0  0
  -21.9192   -4.6993   22.3428 C   0  0  0  0  0  0
  -22.7853  -13.5204   21.1903 C   0  0  0  0  0  0
  -22.1683   -4.2168   21.1020 F   0  0  0  0  0  0
  -21.5632   -3.4576   25.7779 F   0  0  0  0  0  0
  -29.8874  -13.9329   20.3784 N   0  0  0  0  0  0
  -26.2853  -12.9445   20.3044 N   0  0  0  0  0  0
  -25.9350  -11.6579   20.5646 N   0  0  0  0  0  0
  -22.0501  -12.8157   22.0445 N   0  0  0  0  0  0
  -25.4163  -15.1916   20.4162 N   0  0  0  0  0  0
  -31.5898  -15.3236   20.1423 O   0  0  0  0  0  0
  -21.6623   -6.8912   21.4256 O   0  0  0  0  0  0
  -22.3552  -14.5534   20.6820 O   0  0  0  0  0  0
  -24.6635  -31.8232   23.1724 C   0  0  0  0  0  0
  -25.9305  -32.4606   23.8206 C   0  0  1  0  0  0
  -27.2345  -26.9251   20.2139 C   0  0  0  0  0  0
  -25.5935  -33.8417   24.2113 N   0  0  0  0  0  0
  -23.4823  -30.4305   21.5197 C   0  0  2  0  0  0
  -24.9362  -28.8052   20.1280 C   0  0  0  0  0  0
  -22.7662  -29.4470   22.4820 C   0  0  0  0  0  0
  -18.0326  -28.1441   22.8479 C   0  0  0  0  0  0
  -24.1479  -36.7194   23.2658 C   0  0  0  0  0  0
  -26.0506  -30.6325   21.3984 C   0  0  0  0  0  0
  -26.1208  -29.2154   20.7552 C   0  0  0  0  0  0
  -27.2663  -28.2998   20.7632 C   0  0  0  0  0  0
  -26.0168  -26.6568   19.5503 C   0  0  0  0  0  0
  -24.9074  -27.5443   19.5079 C   0  0  0  0  0  0
  -23.7212  -29.7325   20.1527 C   0  0  0  0  0  0
  -25.4126  -36.2988   24.0323 C   0  0  1  0  0  0
  -20.5946  -28.3790   23.1183 C   0  0  2  0  0  0
  -20.6781  -26.9469   22.5409 C   0  0  0  0  0  0
  -19.5758  -26.6401   21.5213 C   0  0  0  0  0  0
  -18.1944  -26.7980   22.1626 C   0  0  0  0  0  0
  -19.1593  -28.8941   23.2800 C   0  0  0  0  0  0
  -18.9496  -30.1517   23.8844 C   0  0  0  0  0  0
  -17.6489  -30.6609   24.0572 C   0  0  0  0  0  0
  -25.9087  -34.9363   23.5044 C   0  0  0  0  0  0
  -16.5374  -29.9107   23.6348 C   0  0  0  0  0  0
  -16.7312  -28.6529   23.0371 C   0  0  0  0  0  0
  -26.4562  -31.6564   25.0730 C   0  0  0  0  0  0
  -25.3697  -31.3754   26.1375 C   0  0  0  0  0  0
  -27.0465  -30.2953   24.6437 C   0  0  0  0  0  0
  -27.6069  -32.4362   25.7516 C   0  0  0  0  0  0
  -27.5577  -37.1745   24.8474 C   0  0  0  0  0  0
  -21.4339  -29.3056   22.3526 N   0  0  0  0  0  0
  -26.4277  -37.3720   23.9427 N   0  0  0  0  0  0
  -24.7543  -30.9899   22.0847 N   0  0  0  0  0  0
  -23.4167  -28.8046   23.3084 O   0  0  0  0  0  0
  -28.2828  -25.8630   20.2098 O   0  0  0  0  0  0
  -26.5714  -34.8891   22.4653 O   0  0  0  0  0  0
  -23.5692  -32.1221   23.6760 O   0  0  0  0  0  0
  -30.0568  -19.3972   21.8872 C   0  0  0  0  0  0
  -29.7646  -20.8103   21.7058 C   0  0  0  0  0  0
  -29.6547  -18.5459   20.8625 C   0  0  0  0  0  0
  -29.1488  -21.1104   20.5146 C   0  0  0  0  0  0
  -29.6380  -19.4441   17.5818 C   0  0  0  0  0  0
  -27.7633  -22.5645   18.7537 C   0  0  0  0  0  0
  -30.1151  -23.1920   19.2571 C   0  0  0  0  0  0
  -30.5412  -16.3566   24.6869 C   0  0  0  0  0  0
  -28.5786  -19.3153   18.6885 C   0  0  0  0  0  0
  -29.3756  -16.5104   22.4846 C   0  0  0  0  0  0
  -28.2209  -24.2632   20.6335 C   0  0  0  0  0  0
  -29.5312  -16.7619   20.9510 C   0  0  2  0  0  0
  -28.7901  -22.7225   19.8814 C   0  0  0  0  0  0
  -29.1177  -19.6665   19.9923 N   0  0  0  0  0  0
  -30.6538  -16.6238   23.2390 N   0  3  0  0  0  0
  -31.4636  -13.0653   19.1728 H   0  0  0  0  0  0
  -30.5746  -11.9050   20.0931 H   0  0  0  0  0  0
  -29.9247  -11.7639   17.6665 H   0  0  0  0  0  0
  -29.5740  -13.4730   17.6402 H   0  0  0  0  0  0
  -28.0183  -11.2676   19.0201 H   0  0  0  0  0  0
  -27.4239  -12.3952   17.8263 H   0  0  0  0  0  0
  -27.5582  -14.2374   19.3441 H   0  0  0  0  0  0
  -28.8402  -12.3695   21.3834 H   0  0  0  0  0  0
  -28.2348  -13.9387   21.7590 H   0  0  0  0  0  0
  -25.2806   -9.5686   22.4769 H   0  0  0  0  0  0
  -24.0028   -7.4663   22.7513 H   0  0  0  0  0  0
  -21.0877   -8.8792   19.8968 H   0  0  0  0  0  0
  -22.3749  -10.9685   19.6194 H   0  0  0  0  0  0
  -21.1963   -7.6177   23.9713 H   0  0  0  0  0  0
  -21.1457   -6.0572   25.9085 H   0  0  0  0  0  0
  -22.0602   -2.7636   23.2859 H   0  0  0  0  0  0
  -22.4107  -11.9788   22.4751 H   0  0  0  0  0  0
  -21.1126  -13.1149   22.2689 H   0  0  0  0  0  0
  -24.6476  -15.8421   20.5396 H   0  0  0  0  0  0
  -26.2388  -15.6246   20.0208 H   0  0  0  0  0  0
  -26.7404  -32.5152   23.0949 H   0  0  0  0  0  0
  -25.0004  -33.9499   25.0211 H   0  0  0  0  0  0
  -22.7994  -31.2636   21.3406 H   0  0  0  0  0  0
  -23.3783  -35.9474   23.3290 H   0  0  0  0  0  0
  -24.3566  -36.8866   22.2078 H   0  0  0  0  0  0
  -23.7174  -37.6347   23.6734 H   0  0  0  0  0  0
  -26.2199  -31.3687   20.6106 H   0  0  0  0  0  0
  -26.9156  -30.7012   22.0481 H   0  0  0  0  0  0
  -28.1741  -28.6175   21.2590 H   0  0  0  0  0  0
  -25.9026  -25.6941   19.0728 H   0  0  0  0  0  0
  -24.0060  -27.2197   19.0047 H   0  0  0  0  0  0
  -23.8691  -30.4911   19.3840 H   0  0  0  0  0  0
  -22.8343  -29.1762   19.8453 H   0  0  0  0  0  0
  -25.1316  -36.1818   25.0815 H   0  0  0  0  0  0
  -21.0035  -28.3409   24.1301 H   0  0  0  0  0  0
  -20.5661  -26.2411   23.3650 H   0  0  0  0  0  0
  -21.6643  -26.7421   22.1232 H   0  0  0  0  0  0
  -19.6910  -25.6295   21.1280 H   0  0  0  0  0  0
  -19.6699  -27.3172   20.6716 H   0  0  0  0  0  0
  -17.4209  -26.6742   21.4026 H   0  0  0  0  0  0
  -18.0330  -26.0132   22.9037 H   0  0  0  0  0  0
  -19.7961  -30.7361   24.2184 H   0  0  0  0  0  0
  -17.5033  -31.6286   24.5185 H   0  0  0  0  0  0
  -15.5368  -30.2993   23.7701 H   0  0  0  0  0  0
  -15.8716  -28.0823   22.7123 H   0  0  0  0  0  0
  -24.5909  -30.7086   25.7683 H   0  0  0  0  0  0
  -24.8810  -32.2885   26.4759 H   0  0  0  0  0  0
  -25.7915  -30.8958   27.0207 H   0  0  0  0  0  0
  -26.3142  -29.6650   24.1374 H   0  0  0  0  0  0
  -27.3962  -29.7309   25.5100 H   0  0  0  0  0  0
  -27.9097  -30.4211   23.9896 H   0  0  0  0  0  0
  -27.2686  -33.3706   26.2010 H   0  0  0  0  0  0
  -28.3892  -32.6853   25.0339 H   0  0  0  0  0  0
  -28.0733  -31.8542   26.5473 H   0  0  0  0  0  0
  -28.2576  -38.0070   24.7554 H   0  0  0  0  0  0
  -28.1088  -36.2583   24.6264 H   0  0  0  0  0  0
  -27.2282  -37.1351   25.8875 H   0  0  0  0  0  0
  -20.9629  -29.8700   21.6603 H   0  0  0  0  0  0
  -26.0139  -38.2782   24.1449 H   0  0  0  0  0  0
  -30.4999  -19.0638   22.8120 H   0  0  0  0  0  0
  -30.0122  -21.5778   22.4294 H   0  0  0  0  0  0
  -29.2326  -19.1311   16.6178 H   0  0  0  0  0  0
  -30.5078  -18.8235   17.7974 H   0  0  0  0  0  0
  -29.9925  -20.4705   17.4664 H   0  0  0  0  0  0
  -28.1379  -21.9597   17.9333 H   0  0  0  0  0  0
  -27.4944  -23.5271   18.3194 H   0  0  0  0  0  0
  -26.8493  -22.1098   19.1328 H   0  0  0  0  0  0
  -30.4761  -22.5194   18.4801 H   0  0  0  0  0  0
  -30.8997  -23.2521   20.0103 H   0  0  0  0  0  0
  -30.0195  -24.1864   18.8184 H   0  0  0  0  0  0
  -31.5092  -16.5044   25.1681 H   0  0  0  0  0  0
  -30.2293  -15.3291   24.8744 H   0  0  0  0  0  0
  -29.8152  -17.0185   25.1630 H   0  0  0  0  0  0
  -28.2259  -18.2844   18.7243 H   0  0  0  0  0  0
  -27.6947  -19.9107   18.4797 H   0  0  0  0  0  0
  -28.9750  -15.5338   22.7155 H   0  0  0  0  0  0
  -28.6368  -17.2019   22.8908 H   0  0  0  0  0  0
  -28.7759  -24.2863   21.5737 H   0  0  0  0  0  0
  -27.1922  -24.0865   20.9547 H   0  0  0  0  0  0
  -28.5524  -16.5618   20.5165 H   0  0  0  0  0  0
  -31.3394  -15.9876   22.8720 H   0  0  0  0  0  0
  -31.0204  -17.5529   23.1060 H   0  0  0  0  0  0
  1 25  1  0  0  0
  1 30  2  0  0  0
  1 82  1  0  0  0
  2  3  1  0  0  0
  2 25  1  0  0  0
  2 86  1  0  0  0
  2 87  1  0  0  0
  3  4  1  0  0  0
  3 88  1  0  0  0
  3 89  1  0  0  0
  4  5  1  0  0  0
  4 90  1  0  0  0
  4 91  1  0  0  0
  5  6  1  0  0  0
  5 26  1  0  0  0
  5 92  1  0  0  0
  6 25  1  0  0  0
  6 93  1  0  0  0
  6 94  1  0  0  0
  7  8  2  0  0  0
  7 26  1  0  0  0
  7 29  1  0  0  0
  8  9  1  0  0  0
  8 22  1  0  0  0
  9 10  1  0  0  0
  9 27  2  0  0  0
 10 11  2  0  0  0
 10 15  1  0  0  0
 11 12  1  0  0  0
 11 95  1  0  0  0
 12 13  2  0  0  0
 12 96  1  0  0  0
 13 14  1  0  0  0
 13 31  1  0  0  0
 14 15  2  0  0  0
 14 97  1  0  0  0
 15 98  1  0  0  0
 16 17  2  0  0  0
 16 21  1  0  0  0
 16 31  1  0  0  0
 17 18  1  0  0  0
 17 99  1  0  0  0
 18 19  2  0  0  0
 18100  1  0  0  0
 19 20  1  0  0  0
 19 24  1  0  0  0
 20 21  2  0  0  0
 20101  1  0  0  0
 21 23  1  0  0  0
 22 28  1  0  0  0
 22 32  2  0  0  0
 26 27  1  0  0  0
 28102  1  0  0  0
 28103  1  0  0  0
 29104  1  0  0  0
 29105  1  0  0  0
 33 34  1  0  0  0
 33 66  1  0  0  0
 33 70  2  0  0  0
 34 36  1  0  0  0
 34 59  1  0  0  0
 34106  1  0  0  0
 35 44  2  0  0  0
 35 45  1  0  0  0
 35 68  1  0  0  0
 36 56  1  0  0  0
 36107  1  0  0  0
 37 39  1  0  0  0
 37 47  1  0  0  0
 37 66  1  0  0  0
 37108  1  0  0  0
 38 43  2  0  0  0
 38 46  1  0  0  0
 38 47  1  0  0  0
 39 64  1  0  0  0
 39 67  2  0  0  0
 40 52  1  0  0  0
 40 53  2  0  0  0
 40 58  1  0  0  0
 41109  1  0  0  0
 41110  1  0  0  0
 41111  1  0  0  0
 41 48  1  0  0  0
 42 43  1  0  0  0
 42 66  1  0  0  0
 42112  1  0  0  0
 42113  1  0  0  0
 43 44  1  0  0  0
 44114  1  0  0  0
 45 46  2  0  0  0
 45115  1  0  0  0
 46116  1  0  0  0
 47117  1  0  0  0
 47118  1  0  0  0
 48 56  1  0  0  0
 48 65  1  0  0  0
 48119  1  0  0  0
 49 50  1  0  0  0
 49 53  1  0  0  0
 49 64  1  0  0  0
 49120  1  0  0  0
 50 51  1  0  0  0
 50121  1  0  0  0
 50122  1  0  0  0
 51 52  1  0  0  0
 51123  1  0  0  0
 51124  1  0  0  0
 52125  1  0  0  0
 52126  1  0  0  0
 53 54  1  0  0  0
 54 55  2  0  0  0
 54127  1  0  0  0
 55 57  1  0  0  0
 55128  1  0  0  0
 56 69  2  0  0  0
 57 58  2  0  0  0
 57129  1  0  0  0
 58130  1  0  0  0
 59 60  1  0  0  0
 59 61  1  0  0  0
 59 62  1  0  0  0
 60131  1  0  0  0
 60132  1  0  0  0
 60133  1  0  0  0
 61134  1  0  0  0
 61135  1  0  0  0
 61136  1  0  0  0
 62137  1  0  0  0
 62138  1  0  0  0
 62139  1  0  0  0
 63 65  1  0  0  0
 63140  1  0  0  0
 63141  1  0  0  0
 63142  1  0  0  0
 64143  1  0  0  0
 65144  1  0  0  0
 68 81  1  0  0  0
 71 72  1  0  0  0
 71 73  2  0  0  0
 71145  1  0  0  0
 72 74  2  0  0  0
 72146  1  0  0  0
 73 82  1  0  0  0
 73 84  1  0  0  0
 74 83  1  0  0  0
 74 84  1  0  0  0
 75 79  1  0  0  0
 75147  1  0  0  0
 75148  1  0  0  0
 75149  1  0  0  0
 76150  1  0  0  0
 76151  1  0  0  0
 76152  1  0  0  0
 76 83  1  0  0  0
 77 83  1  0  0  0
 77153  1  0  0  0
 77154  1  0  0  0
 77155  1  0  0  0
 78 85  1  0  0  0
 78156  1  0  0  0
 78157  1  0  0  0
 78158  1  0  0  0
 79 84  1  0  0  0
 79159  1  0  0  0
 79160  1  0  0  0
 80 85  1  0  0  0
 80161  1  0  0  0
 80162  1  0  0  0
 80 82  1  0  0  0
 81 83  1  0  0  0
 81163  1  0  0  0
 81164  1  0  0  0
 82165  1  0  0  0
 85166  1  0  0  0
 85167  1  0  0  0
M  CHG  1  85   1
M  ISO  4   1 100  68 101  81 101  82 100
M  END
> <chiral flag>
0

> <version>
0

> <s_m_source_file>
/data/baiqing/PycharmProjects/Reinvent-master-3.2/result/LINK_invent/BTK/process_docking_weight1_custom_sum_contain_oxygen_bond_distance_aromatic_linkinvent_7_9_3/rearranged_h_0107.sdf

> <i_m_source_file_index>
36

> <r_mmod_Potential_Energy-OPLS-2005>
1317.82250976562

> <r_mmod_Stretch_Energy-OPLS-2005>
666.729064941406

> <r_mmod_Bend_Energy-OPLS-2005>
528.499328613281

> <r_mmod_Torsional_Energy-OPLS-2005>
247.790588378906

> <r_mmod_Improper_Torsional_Energy-OPLS-2005>
4.85816526412964

> <r_mmod_Van_der_Waal_Energy-OPLS-2005>
108.276206970215

> <r_mmod_Electrostatic_Energy-OPLS-2005>
-241.5166015625

> <r_mmod_Solvation_Energy-OPLS-2005>
-444.3837890625

> <b_mmod_Minimization_Converged-OPLS-2005>
0

> <r_mmod_RMS_Derivative-OPLS-2005>
5.20957946777344

$$$$
36
                    3D
 Structure written by MMmdl.
149156  0  0  1  0            999 V2000
  -30.3363  -15.5580   20.3374 C   0  0  0  0  0  0
  -30.4248  -13.0244   19.5351 C   0  0  0  0  0  0
  -29.5453  -12.6384   18.3138 C   0  0  0  0  0  0
  -28.1131  -12.2988   18.7540 C   0  0  0  0  0  0
  -27.5964  -13.3018   19.8117 C   0  0  2  0  0  0
  -28.6164  -13.6073   20.9325 C   0  0  0  0  0  0
  -25.2326  -13.8277   20.5782 C   0  0  0  0  0  0
  -24.1711  -13.0433   20.9281 C   0  0  0  0  0  0
  -24.6406  -11.6942   20.8762 C   0  0  0  0  0  0
  -23.9112  -10.4291   21.0397 C   0  0  0  0  0  0
  -24.3652   -9.4205   21.9178 C   0  0  0  0  0  0
  -23.6313   -8.2247   22.0751 C   0  0  0  0  0  0
  -22.4293   -8.0287   21.3544 C   0  0  0  0  0  0
  -21.9938   -9.0261   20.4643 C   0  0  0  0  0  0
  -22.7280  -10.2133   20.3048 C   0  0  0  0  0  0
  -21.6859   -6.0740   22.5278 C   0  0  0  0  0  0
  -21.4020   -6.5642   23.8212 C   0  0  0  0  0  0
  -21.3663   -5.6794   24.9174 C   0  0  0  0  0  0
  -21.6044   -4.3056   24.7223 C   0  0  0  0  0  0
  -21.8818   -3.8149   23.4344 C   0  0  0  0  0  0
  -21.9194   -4.6967   22.3400 C   0  0  0  0  0  0
  -22.7725  -13.5166   21.1921 C   0  0  0  0  0  0
  -22.1660   -4.2154   21.0978 F   0  0  0  0  0  0
  -21.5628   -3.4538   25.7734 F   0  0  0  0  0  0
  -29.8009  -14.2054   20.2787 N   0  0  0  0  0  0
  -26.2766  -12.9597   20.3216 N   0  0  0  0  0  0
  -25.9349  -11.6676   20.5699 N   0  0  0  0  0  0
  -22.0391  -12.8142   22.0475 N   0  0  0  0  0  0
  -25.3925  -15.2019   20.4229 N   0  0  0  0  0  0
  -31.5706  -15.4942   20.1878 O   0  0  0  0  0  0
  -21.6650   -6.8888   21.4242 O   0  0  0  0  0  0
  -22.3397  -14.5462   20.6755 O   0  0  0  0  0  0
  -24.6801  -31.8038   23.1540 C   0  0  0  0  0  0
  -25.9401  -32.4485   23.8076 C   0  0  1  0  0  0
  -27.2229  -26.7389   20.2109 C   0  0  0  0  0  0
  -25.5996  -33.8309   24.1966 N   0  0  0  0  0  0
  -23.5042  -30.4069   21.5074 C   0  0  2  0  0  0
  -24.9601  -28.7540   20.1178 C   0  0  0  0  0  0
  -22.7752  -29.4334   22.4726 C   0  0  0  0  0  0
  -18.0337  -28.1417   22.8459 C   0  0  0  0  0  0
  -24.1497  -36.7161   23.2652 C   0  0  0  0  0  0
  -26.0829  -30.5489   21.4122 C   0  0  0  0  0  0
  -26.1487  -29.1177   20.7618 C   0  0  0  0  0  0
  -27.2677  -28.1374   20.7747 C   0  0  0  0  0  0
  -26.0013  -26.5736   19.5129 C   0  0  0  0  0  0
  -24.9230  -27.5071   19.4699 C   0  0  0  0  0  0
  -23.7553  -29.7055   20.1418 C   0  0  0  0  0  0
  -25.4146  -36.2907   24.0284 C   0  0  1  0  0  0
  -20.5971  -28.3777   23.1152 C   0  0  2  0  0  0
  -20.6805  -26.9442   22.5403 C   0  0  0  0  0  0
  -19.5780  -26.6371   21.5217 C   0  0  0  0  0  0
  -18.1963  -26.7946   22.1621 C   0  0  0  0  0  0
  -19.1602  -28.8923   23.2786 C   0  0  0  0  0  0
  -18.9507  -30.1506   23.8831 C   0  0  0  0  0  0
  -17.6497  -30.6601   24.0552 C   0  0  0  0  0  0
  -25.9124  -34.9295   23.4961 C   0  0  0  0  0  0
  -16.5387  -29.9082   23.6348 C   0  0  0  0  0  0
  -16.7317  -28.6504   23.0368 C   0  0  0  0  0  0
  -26.4589  -31.6506   25.0684 C   0  0  0  0  0  0
  -25.3663  -31.3813   26.1306 C   0  0  0  0  0  0
  -27.0514  -30.2849   24.6557 C   0  0  0  0  0  0
  -27.6045  -32.4359   25.7499 C   0  0  0  0  0  0
  -27.5566  -37.1739   24.8466 C   0  0  0  0  0  0
  -21.4404  -29.3031   22.3479 N   0  0  0  0  0  0
  -26.4274  -37.3664   23.9406 N   0  0  0  0  0  0
  -24.7788  -30.9520   22.0773 N   0  0  0  0  0  0
  -23.4215  -28.7936   23.3055 O   0  0  0  0  0  0
  -28.1996  -25.5454   20.2801 O   0  0  0  0  0  0
  -26.5759  -34.8868   22.4573 O   0  0  0  0  0  0
  -23.5829  -32.1093   23.6518 O   0  0  0  0  0  0
  -30.7931  -18.8727   19.1787 C   0  0  0  0  0  0
  -30.6242  -18.8957   21.6618 C   0  0  0  0  0  0
  -28.9904  -22.1684   20.3158 C   0  0  0  0  0  0
  -28.7627  -20.2567   20.2779 C   0  0  0  0  0  0
  -27.9983  -23.8140   20.1890 C   0  0  0  0  0  0
  -29.8367  -18.6669   20.3631 C   0  0  0  0  0  0
  -29.5876  -16.9173   20.3743 N   0  0  0  0  0  0
  -31.4252  -13.2719   19.1781 H   0  0  0  0  0  0
  -30.5631  -12.1691   20.1986 H   0  0  0  0  0  0
  -29.9847  -11.7985   17.7739 H   0  0  0  0  0  0
  -29.5200  -13.4749   17.6139 H   0  0  0  0  0  0
  -28.1249  -11.2946   19.1798 H   0  0  0  0  0  0
  -27.4436  -12.2616   17.8936 H   0  0  0  0  0  0
  -27.4668  -14.2315   19.2555 H   0  0  0  0  0  0
  -28.8585  -12.7172   21.5151 H   0  0  0  0  0  0
  -28.1975  -14.3312   21.6334 H   0  0  0  0  0  0
  -25.2790   -9.5682   22.4765 H   0  0  0  0  0  0
  -24.0015   -7.4641   22.7476 H   0  0  0  0  0  0
  -21.0868   -8.8789   19.8950 H   0  0  0  0  0  0
  -22.3736  -10.9677   19.6165 H   0  0  0  0  0  0
  -21.2014   -7.6151   23.9717 H   0  0  0  0  0  0
  -21.1486   -6.0524   25.9079 H   0  0  0  0  0  0
  -22.0593   -2.7611   23.2842 H   0  0  0  0  0  0
  -22.4035  -11.9820   22.4873 H   0  0  0  0  0  0
  -21.0997  -13.1137   22.2671 H   0  0  0  0  0  0
  -24.6205  -15.8497   20.5383 H   0  0  0  0  0  0
  -26.2318  -15.6450   20.0737 H   0  0  0  0  0  0
  -26.7481  -32.4968   23.0788 H   0  0  0  0  0  0
  -25.0062  -33.9354   25.0065 H   0  0  0  0  0  0
  -22.8272  -31.2432   21.3203 H   0  0  0  0  0  0
  -23.3775  -35.9474   23.3267 H   0  0  0  0  0  0
  -24.3566  -36.8866   22.2075 H   0  0  0  0  0  0
  -23.7240  -37.6323   23.6755 H   0  0  0  0  0  0
  -26.2828  -31.2768   20.6248 H   0  0  0  0  0  0
  -26.9351  -30.6148   22.0764 H   0  0  0  0  0  0
  -28.1645  -28.4220   21.3066 H   0  0  0  0  0  0
  -25.8415  -25.6273   19.0160 H   0  0  0  0  0  0
  -24.0246  -27.2207   18.9407 H   0  0  0  0  0  0
  -23.9281  -30.4660   19.3794 H   0  0  0  0  0  0
  -22.8607  -29.1702   19.8191 H   0  0  0  0  0  0
  -25.1354  -36.1672   25.0774 H   0  0  0  0  0  0
  -21.0053  -28.3396   24.1279 H   0  0  0  0  0  0
  -20.5672  -26.2402   23.3661 H   0  0  0  0  0  0
  -21.6667  -26.7389   22.1219 H   0  0  0  0  0  0
  -19.6937  -25.6263   21.1292 H   0  0  0  0  0  0
  -19.6718  -27.3143   20.6718 H   0  0  0  0  0  0
  -17.4233  -26.6690   21.4025 H   0  0  0  0  0  0
  -18.0351  -26.0102   22.9031 H   0  0  0  0  0  0
  -19.7983  -30.7340   24.2170 H   0  0  0  0  0  0
  -17.5046  -31.6275   24.5166 H   0  0  0  0  0  0
  -15.5384  -30.2962   23.7708 H   0  0  0  0  0  0
  -15.8718  -28.0795   22.7123 H   0  0  0  0  0  0
  -24.5862  -30.7151   25.7600 H   0  0  0  0  0  0
  -24.8837  -32.3032   26.4557 H   0  0  0  0  0  0
  -25.7844  -30.9081   27.0199 H   0  0  0  0  0  0
  -26.3221  -29.6473   24.1549 H   0  0  0  0  0  0
  -27.3956  -29.7283   25.5284 H   0  0  0  0  0  0
  -27.9198  -30.3981   24.0065 H   0  0  0  0  0  0
  -27.2589  -33.3723   26.1890 H   0  0  0  0  0  0
  -28.3949  -32.6821   25.0396 H   0  0  0  0  0  0
  -28.0613  -31.8615   26.5567 H   0  0  0  0  0  0
  -28.2555  -38.0062   24.7513 H   0  0  0  0  0  0
  -28.1091  -36.2584   24.6295 H   0  0  0  0  0  0
  -27.2281  -37.1377   25.8869 H   0  0  0  0  0  0
  -20.9705  -29.8686   21.6549 H   0  0  0  0  0  0
  -26.0103  -38.2714   24.1414 H   0  0  0  0  0  0
  -31.1881  -19.8894   19.1591 H   0  0  0  0  0  0
  -30.2795  -18.7058   18.2315 H   0  0  0  0  0  0
  -31.6463  -18.1946   19.2174 H   0  0  0  0  0  0
  -31.0227  -19.9099   21.7132 H   0  0  0  0  0  0
  -31.4671  -18.2100   21.7554 H   0  0  0  0  0  0
  -29.9843  -18.7536   22.5334 H   0  0  0  0  0  0
  -29.7608  -22.3155   19.5588 H   0  0  0  0  0  0
  -29.5310  -22.3069   21.2521 H   0  0  0  0  0  0
  -28.1846  -20.1075   19.3657 H   0  0  0  0  0  0
  -28.0262  -20.0928   21.0650 H   0  0  0  0  0  0
  -27.1982  -23.6635   20.9141 H   0  0  0  0  0  0
  -27.4902  -23.7108   19.2301 H   0  0  0  0  0  0
  -28.5982  -16.7189   20.4304 H   0  0  0  0  0  0
  1 25  1  0  0  0
  1 30  2  0  0  0
  1 77  1  0  0  0
  2  3  1  0  0  0
  2 25  1  0  0  0
  2 78  1  0  0  0
  2 79  1  0  0  0
  3  4  1  0  0  0
  3 80  1  0  0  0
  3 81  1  0  0  0
  4  5  1  0  0  0
  4 82  1  0  0  0
  4 83  1  0  0  0
  5  6  1  0  0  0
  5 26  1  0  0  0
  5 84  1  0  0  0
  6 25  1  0  0  0
  6 85  1  0  0  0
  6 86  1  0  0  0
  7  8  2  0  0  0
  7 26  1  0  0  0
  7 29  1  0  0  0
  8  9  1  0  0  0
  8 22  1  0  0  0
  9 10  1  0  0  0
  9 27  2  0  0  0
 10 11  2  0  0  0
 10 15  1  0  0  0
 11 12  1  0  0  0
 11 87  1  0  0  0
 12 13  2  0  0  0
 12 88  1  0  0  0
 13 14  1  0  0  0
 13 31  1  0  0  0
 14 15  2  0  0  0
 14 89  1  0  0  0
 15 90  1  0  0  0
 16 17  2  0  0  0
 16 21  1  0  0  0
 16 31  1  0  0  0
 17 18  1  0  0  0
 17 91  1  0  0  0
 18 19  2  0  0  0
 18 92  1  0  0  0
 19 20  1  0  0  0
 19 24  1  0  0  0
 20 21  2  0  0  0
 20 93  1  0  0  0
 21 23  1  0  0  0
 22 28  1  0  0  0
 22 32  2  0  0  0
 26 27  1  0  0  0
 28 94  1  0  0  0
 28 95  1  0  0  0
 29 96  1  0  0  0
 29 97  1  0  0  0
 33 34  1  0  0  0
 33 66  1  0  0  0
 33 70  2  0  0  0
 34 36  1  0  0  0
 34 59  1  0  0  0
 34 98  1  0  0  0
 35 44  2  0  0  0
 35 45  1  0  0  0
 35 68  1  0  0  0
 36 56  1  0  0  0
 36 99  1  0  0  0
 37 39  1  0  0  0
 37 47  1  0  0  0
 37 66  1  0  0  0
 37100  1  0  0  0
 38 43  2  0  0  0
 38 46  1  0  0  0
 38 47  1  0  0  0
 39 64  1  0  0  0
 39 67  2  0  0  0
 40 52  1  0  0  0
 40 53  2  0  0  0
 40 58  1  0  0  0
 41101  1  0  0  0
 41102  1  0  0  0
 41103  1  0  0  0
 41 48  1  0  0  0
 42 43  1  0  0  0
 42 66  1  0  0  0
 42104  1  0  0  0
 42105  1  0  0  0
 43 44  1  0  0  0
 44106  1  0  0  0
 45 46  2  0  0  0
 45107  1  0  0  0
 46108  1  0  0  0
 47109  1  0  0  0
 47110  1  0  0  0
 48 56  1  0  0  0
 48 65  1  0  0  0
 48111  1  0  0  0
 49 50  1  0  0  0
 49 53  1  0  0  0
 49 64  1  0  0  0
 49112  1  0  0  0
 50 51  1  0  0  0
 50113  1  0  0  0
 50114  1  0  0  0
 51 52  1  0  0  0
 51115  1  0  0  0
 51116  1  0  0  0
 52117  1  0  0  0
 52118  1  0  0  0
 53 54  1  0  0  0
 54 55  2  0  0  0
 54119  1  0  0  0
 55 57  1  0  0  0
 55120  1  0  0  0
 56 69  2  0  0  0
 57 58  2  0  0  0
 57121  1  0  0  0
 58122  1  0  0  0
 59 60  1  0  0  0
 59 61  1  0  0  0
 59 62  1  0  0  0
 60123  1  0  0  0
 60124  1  0  0  0
 60125  1  0  0  0
 61126  1  0  0  0
 61127  1  0  0  0
 61128  1  0  0  0
 62129  1  0  0  0
 62130  1  0  0  0
 62131  1  0  0  0
 63 65  1  0  0  0
 63132  1  0  0  0
 63133  1  0  0  0
 63134  1  0  0  0
 64135  1  0  0  0
 65136  1  0  0  0
 68 75  1  0  0  0
 71137  1  0  0  0
 71138  1  0  0  0
 71139  1  0  0  0
 71 76  1  0  0  0
 72 76  1  0  0  0
 72140  1  0  0  0
 72141  1  0  0  0
 72142  1  0  0  0
 73 74  1  0  0  0
 73 75  1  0  0  0
 73143  1  0  0  0
 73144  1  0  0  0
 74 76  1  0  0  0
 74145  1  0  0  0
 74146  1  0  0  0
 75147  1  0  0  0
 75148  1  0  0  0
 76 77  1  0  0  0
 77149  1  0  0  0
M  ISO  4   1 100  68 101  75 101  77 100
M  END
> <chiral flag>
0

> <version>
0

> <s_m_source_file>
/data/baiqing/PycharmProjects/Reinvent-master-3.2/result/LINK_invent/BTK/process_docking_weight1_custom_sum_contain_oxygen_bond_distance_aromatic_linkinvent_7_9_3/rearranged_h_0107.sdf

> <i_m_source_file_index>
37

> <r_mmod_Potential_Energy-OPLS-2005>
2267.21899414062

> <r_mmod_Stretch_Energy-OPLS-2005>
1097.37768554688

> <r_mmod_Bend_Energy-OPLS-2005>
607.490051269531

> <r_mmod_Torsional_Energy-OPLS-2005>
207.966079711914

> <r_mmod_Improper_Torsional_Energy-OPLS-2005>
3.67525768280029

> <r_mmod_Van_der_Waal_Energy-OPLS-2005>
106.765670776367

> <r_mmod_Electrostatic_Energy-OPLS-2005>
-352.611419677734

> <r_mmod_Solvation_Energy-OPLS-2005>
-205.700332641602

> <b_mmod_Minimization_Converged-OPLS-2005>
0

> <r_mmod_RMS_Derivative-OPLS-2005>
0.396830528974533

$$$$
37
                    3D
 Structure written by MMmdl.
172180  0  0  1  0            999 V2000
  -30.6796  -14.5449   20.5333 C   0  0  0  0  0  0
  -30.4217  -12.3353   19.4481 C   0  0  0  0  0  0
  -29.5017  -12.4803   18.2199 C   0  0  0  0  0  0
  -28.0198  -12.3508   18.6242 C   0  0  0  0  0  0
  -27.6522  -13.2158   19.8601 C   0  0  2  0  0  0
  -28.6927  -13.0522   20.9899 C   0  0  0  0  0  0
  -25.2547  -13.8182   20.5663 C   0  0  0  0  0  0
  -24.1814  -13.0445   20.9178 C   0  0  0  0  0  0
  -24.6386  -11.6919   20.8734 C   0  0  0  0  0  0
  -23.9062  -10.4294   21.0405 C   0  0  0  0  0  0
  -24.3619   -9.4210   21.9179 C   0  0  0  0  0  0
  -23.6296   -8.2245   22.0754 C   0  0  0  0  0  0
  -22.4278   -8.0282   21.3551 C   0  0  0  0  0  0
  -21.9913   -9.0251   20.4648 C   0  0  0  0  0  0
  -22.7240  -10.2130   20.3051 C   0  0  0  0  0  0
  -21.6852   -6.0733   22.5281 C   0  0  0  0  0  0
  -21.4017   -6.5640   23.8214 C   0  0  0  0  0  0
  -21.3658   -5.6798   24.9177 C   0  0  0  0  0  0
  -21.6040   -4.3061   24.7232 C   0  0  0  0  0  0
  -21.8818   -3.8146   23.4356 C   0  0  0  0  0  0
  -21.9194   -4.6958   22.3411 C   0  0  0  0  0  0
  -22.7836  -13.5233   21.1850 C   0  0  0  0  0  0
  -22.1659   -4.2140   21.0992 F   0  0  0  0  0  0
  -21.5627   -3.4550   25.7744 F   0  0  0  0  0  0
  -30.0149  -13.3588   20.4257 N   0  0  0  0  0  0
  -26.2974  -12.9364   20.3291 N   0  0  0  0  0  0
  -25.9312  -11.6522   20.5751 N   0  0  0  0  0  0
  -22.0486  -12.8212   22.0407 N   0  0  0  0  0  0
  -25.4255  -15.1902   20.4093 N   0  0  0  0  0  0
  -31.8387  -14.6803   20.1364 O   0  0  0  0  0  0
  -21.6644   -6.8875   21.4246 O   0  0  0  0  0  0
  -22.3512  -14.5538   20.6703 O   0  0  0  0  0  0
  -24.6197  -31.8647   23.2076 C   0  0  0  0  0  0
  -25.9069  -32.4811   23.8386 C   0  0  1  0  0  0
  -27.2264  -27.3773   20.1055 C   0  0  0  0  0  0
  -25.5904  -33.8610   24.2312 N   0  0  0  0  0  0
  -23.4106  -30.4886   21.5505 C   0  0  2  0  0  0
  -24.8556  -28.9487   20.1177 C   0  0  0  0  0  0
  -22.7440  -29.4644   22.4980 C   0  0  0  0  0  0
  -18.0279  -28.1379   22.8496 C   0  0  0  0  0  0
  -24.1482  -36.7301   23.2641 C   0  0  0  0  0  0
  -25.9465  -30.8120   21.3719 C   0  0  0  0  0  0
  -26.0213  -29.4437   20.7153 C   0  0  0  0  0  0
  -27.2115  -28.6688   20.6993 C   0  0  0  0  0  0
  -26.0408  -26.9189   19.4880 C   0  0  0  0  0  0
  -24.8634  -27.6887   19.4990 C   0  0  0  0  0  0
  -23.6221  -29.8234   20.1657 C   0  0  0  0  0  0
  -25.4107  -36.3106   24.0338 C   0  0  1  0  0  0
  -20.5873  -28.3670   23.1307 C   0  0  2  0  0  0
  -20.6768  -26.9401   22.5416 C   0  0  0  0  0  0
  -19.5744  -26.6382   21.5216 C   0  0  0  0  0  0
  -18.1923  -26.7924   22.1628 C   0  0  0  0  0  0
  -19.1528  -28.8840   23.2899 C   0  0  0  0  0  0
  -18.9456  -30.1446   23.8908 C   0  0  0  0  0  0
  -17.6456  -30.6587   24.0561 C   0  0  0  0  0  0
  -25.9041  -34.9472   23.5126 C   0  0  0  0  0  0
  -16.5347  -29.9086   23.6328 C   0  0  0  0  0  0
  -16.7266  -28.6502   23.0356 C   0  0  0  0  0  0
  -26.4478  -31.6611   25.0737 C   0  0  0  0  0  0
  -25.3722  -31.3735   26.1470 C   0  0  0  0  0  0
  -27.0325  -30.3045   24.6163 C   0  0  0  0  0  0
  -27.6049  -32.4341   25.7497 C   0  0  0  0  0  0
  -27.5581  -37.1805   24.8467 C   0  0  0  0  0  0
  -21.4161  -29.3032   22.3713 N   0  0  0  0  0  0
  -26.4291  -37.3793   23.9413 N   0  0  0  0  0  0
  -24.6776  -31.0701   22.1011 N   0  0  0  0  0  0
  -23.4188  -28.8184   23.3041 O   0  0  0  0  0  0
  -28.3792  -26.6004   20.0994 O   0  0  0  0  0  0
  -26.5606  -34.8926   22.4690 O   0  0  0  0  0  0
  -23.5373  -32.1425   23.7432 O   0  0  0  0  0  0
  -29.5269  -19.4445   20.9797 C   0  0  0  0  0  0
  -29.0027  -19.4862   18.8299 C   0  0  0  0  0  0
  -29.0221  -20.2917   19.9368 C   0  0  0  0  0  0
  -29.8123  -18.1833   20.4892 C   0  0  0  0  0  0
  -28.6542  -15.4453   15.6033 C   0  0  0  0  0  0
  -31.1827  -15.5890   15.9176 C   0  0  0  0  0  0
  -29.6836  -24.4022   18.4163 C   0  0  0  0  0  0
  -28.5526  -21.7663   19.9704 C   0  0  0  0  0  0
  -30.4731  -16.9877   21.1921 C   0  0  0  0  0  0
  -29.5886  -22.8293   20.4543 C   0  0  0  0  0  0
  -29.6729  -17.5225   16.7048 C   0  0  0  0  0  0
  -29.6399  -17.1055   18.1917 C   0  0  0  0  0  0
  -28.2544  -25.1723   20.3948 C   0  0  0  0  0  0
  -29.8772  -16.3722   15.6943 C   0  0  0  0  0  0
  -29.4878  -24.3209   19.9393 C   0  0  2  0  0  0
  -29.4961  -18.2183   19.1330 N   0  0  0  0  0  0
  -29.9549  -15.6154   20.9457 N   0  0  0  0  0  0
  -30.5522  -24.9210   20.4761 F   0  0  0  0  0  0
  -31.4677  -12.4307   19.1525 H   0  0  0  0  0  0
  -30.3249  -11.3398   19.8851 H   0  0  0  0  0  0
  -29.7507  -11.7282   17.4705 H   0  0  0  0  0  0
  -29.6739  -13.4478   17.7516 H   0  0  0  0  0  0
  -27.8319  -11.2989   18.8417 H   0  0  0  0  0  0
  -27.3761  -12.6043   17.7812 H   0  0  0  0  0  0
  -27.6802  -14.2540   19.5295 H   0  0  0  0  0  0
  -28.6818  -12.0320   21.3749 H   0  0  0  0  0  0
  -28.4513  -13.6923   21.8395 H   0  0  0  0  0  0
  -25.2765   -9.5685   22.4752 H   0  0  0  0  0  0
  -24.0002   -7.4640   22.7480 H   0  0  0  0  0  0
  -21.0841   -8.8776   19.8958 H   0  0  0  0  0  0
  -22.3700  -10.9671   19.6162 H   0  0  0  0  0  0
  -21.2011   -7.6148   23.9715 H   0  0  0  0  0  0
  -21.1479   -6.0529   25.9079 H   0  0  0  0  0  0
  -22.0595   -2.7609   23.2866 H   0  0  0  0  0  0
  -22.4119  -11.9880   22.4791 H   0  0  0  0  0  0
  -21.1103  -13.1227   22.2628 H   0  0  0  0  0  0
  -24.6571  -15.8431   20.5167 H   0  0  0  0  0  0
  -26.2763  -15.6329   20.0869 H   0  0  0  0  0  0
  -26.7138  -32.5500   23.1143 H   0  0  0  0  0  0
  -25.0055  -33.9769   25.0457 H   0  0  0  0  0  0
  -22.7021  -31.3076   21.4103 H   0  0  0  0  0  0
  -23.3754  -35.9625   23.3313 H   0  0  0  0  0  0
  -24.3573  -36.8907   22.2053 H   0  0  0  0  0  0
  -23.7222  -37.6502   23.6650 H   0  0  0  0  0  0
  -26.0714  -31.5793   20.6065 H   0  0  0  0  0  0
  -26.8296  -30.8591   21.9977 H   0  0  0  0  0  0
  -28.1122  -29.0490   21.1614 H   0  0  0  0  0  0
  -26.0071  -25.9707   18.9732 H   0  0  0  0  0  0
  -23.9706  -27.3067   19.0238 H   0  0  0  0  0  0
  -23.7383  -30.5996   19.4085 H   0  0  0  0  0  0
  -22.7437  -29.2497   19.8652 H   0  0  0  0  0  0
  -25.1285  -36.1975   25.0831 H   0  0  0  0  0  0
  -20.9962  -28.3233   24.1427 H   0  0  0  0  0  0
  -20.5672  -26.2273   23.3606 H   0  0  0  0  0  0
  -21.6639  -26.7441   22.1204 H   0  0  0  0  0  0
  -19.6904  -25.6294   21.1241 H   0  0  0  0  0  0
  -19.6684  -27.3195   20.6747 H   0  0  0  0  0  0
  -17.4193  -26.6676   21.4031 H   0  0  0  0  0  0
  -18.0323  -26.0064   22.9019 H   0  0  0  0  0  0
  -19.7932  -30.7262   24.2283 H   0  0  0  0  0  0
  -17.5012  -31.6271   24.5159 H   0  0  0  0  0  0
  -15.5348  -30.2996   23.7642 H   0  0  0  0  0  0
  -15.8664  -28.0821   22.7072 H   0  0  0  0  0  0
  -24.5883  -30.7105   25.7793 H   0  0  0  0  0  0
  -24.8924  -32.2897   26.4920 H   0  0  0  0  0  0
  -25.8042  -30.8887   27.0232 H   0  0  0  0  0  0
  -26.2896  -29.6801   24.1186 H   0  0  0  0  0  0
  -27.4045  -29.7297   25.4657 H   0  0  0  0  0  0
  -27.8753  -30.4360   23.9372 H   0  0  0  0  0  0
  -27.2668  -33.3632   26.2100 H   0  0  0  0  0  0
  -28.3835  -32.6921   25.0305 H   0  0  0  0  0  0
  -28.0747  -31.8454   26.5387 H   0  0  0  0  0  0
  -28.2606  -38.0097   24.7521 H   0  0  0  0  0  0
  -28.1072  -36.2631   24.6289 H   0  0  0  0  0  0
  -27.2300  -37.1449   25.8870 H   0  0  0  0  0  0
  -20.9328  -29.8752   21.6926 H   0  0  0  0  0  0
  -26.0186  -38.2872   24.1420 H   0  0  0  0  0  0
  -29.6874  -19.7420   22.0076 H   0  0  0  0  0  0
  -28.6810  -19.7303   17.8272 H   0  0  0  0  0  0
  -28.7884  -14.6949   14.8226 H   0  0  0  0  0  0
  -27.7523  -16.0090   15.3616 H   0  0  0  0  0  0
  -28.4666  -14.9176   16.5366 H   0  0  0  0  0  0
  -31.3670  -14.8940   15.0979 H   0  0  0  0  0  0
  -31.1629  -15.0047   16.8372 H   0  0  0  0  0  0
  -32.0404  -16.2614   15.9707 H   0  0  0  0  0  0
  -28.8351  -23.9815   17.8783 H   0  0  0  0  0  0
  -30.5789  -23.8651   18.1016 H   0  0  0  0  0  0
  -29.7939  -25.4367   18.0892 H   0  0  0  0  0  0
  -27.6540  -21.8343   20.5846 H   0  0  0  0  0  0
  -28.2316  -22.0167   18.9590 H   0  0  0  0  0  0
  -30.4116  -17.1475   22.2690 H   0  0  0  0  0  0
  -31.5419  -17.0252   20.9755 H   0  0  0  0  0  0
  -30.5709  -22.4685   20.1460 H   0  0  0  0  0  0
  -29.6158  -22.8175   21.5446 H   0  0  0  0  0  0
  -30.4674  -18.2566   16.5661 H   0  0  0  0  0  0
  -28.7432  -18.0295   16.4464 H   0  0  0  0  0  0
  -30.5702  -16.5928   18.4293 H   0  0  0  0  0  0
  -28.8291  -16.4000   18.3741 H   0  0  0  0  0  0
  -28.1315  -25.0718   21.4738 H   0  0  0  0  0  0
  -27.3687  -24.7218   19.9525 H   0  0  0  0  0  0
  -29.9714  -16.8456   14.7153 H   0  0  0  0  0  0
  -28.9957  -15.4435   21.2037 H   0  0  0  0  0  0
  1 25  1  0  0  0
  1 30  2  0  0  0
  1 87  1  0  0  0
  2  3  1  0  0  0
  2 25  1  0  0  0
  2 89  1  0  0  0
  2 90  1  0  0  0
  3  4  1  0  0  0
  3 91  1  0  0  0
  3 92  1  0  0  0
  4  5  1  0  0  0
  4 93  1  0  0  0
  4 94  1  0  0  0
  5  6  1  0  0  0
  5 26  1  0  0  0
  5 95  1  0  0  0
  6 25  1  0  0  0
  6 96  1  0  0  0
  6 97  1  0  0  0
  7  8  2  0  0  0
  7 26  1  0  0  0
  7 29  1  0  0  0
  8  9  1  0  0  0
  8 22  1  0  0  0
  9 10  1  0  0  0
  9 27  2  0  0  0
 10 11  2  0  0  0
 10 15  1  0  0  0
 11 12  1  0  0  0
 11 98  1  0  0  0
 12 13  2  0  0  0
 12 99  1  0  0  0
 13 14  1  0  0  0
 13 31  1  0  0  0
 14 15  2  0  0  0
 14100  1  0  0  0
 15101  1  0  0  0
 16 17  2  0  0  0
 16 21  1  0  0  0
 16 31  1  0  0  0
 17 18  1  0  0  0
 17102  1  0  0  0
 18 19  2  0  0  0
 18103  1  0  0  0
 19 20  1  0  0  0
 19 24  1  0  0  0
 20 21  2  0  0  0
 20104  1  0  0  0
 21 23  1  0  0  0
 22 28  1  0  0  0
 22 32  2  0  0  0
 26 27  1  0  0  0
 28105  1  0  0  0
 28106  1  0  0  0
 29107  1  0  0  0
 29108  1  0  0  0
 33 34  1  0  0  0
 33 66  1  0  0  0
 33 70  2  0  0  0
 34 36  1  0  0  0
 34 59  1  0  0  0
 34109  1  0  0  0
 35 44  2  0  0  0
 35 45  1  0  0  0
 35 68  1  0  0  0
 36 56  1  0  0  0
 36110  1  0  0  0
 37 39  1  0  0  0
 37 47  1  0  0  0
 37 66  1  0  0  0
 37111  1  0  0  0
 38 43  2  0  0  0
 38 46  1  0  0  0
 38 47  1  0  0  0
 39 64  1  0  0  0
 39 67  2  0  0  0
 40 52  1  0  0  0
 40 53  2  0  0  0
 40 58  1  0  0  0
 41112  1  0  0  0
 41113  1  0  0  0
 41114  1  0  0  0
 41 48  1  0  0  0
 42 43  1  0  0  0
 42 66  1  0  0  0
 42115  1  0  0  0
 42116  1  0  0  0
 43 44  1  0  0  0
 44117  1  0  0  0
 45 46  2  0  0  0
 45118  1  0  0  0
 46119  1  0  0  0
 47120  1  0  0  0
 47121  1  0  0  0
 48 56  1  0  0  0
 48 65  1  0  0  0
 48122  1  0  0  0
 49 50  1  0  0  0
 49 53  1  0  0  0
 49 64  1  0  0  0
 49123  1  0  0  0
 50 51  1  0  0  0
 50124  1  0  0  0
 50125  1  0  0  0
 51 52  1  0  0  0
 51126  1  0  0  0
 51127  1  0  0  0
 52128  1  0  0  0
 52129  1  0  0  0
 53 54  1  0  0  0
 54 55  2  0  0  0
 54130  1  0  0  0
 55 57  1  0  0  0
 55131  1  0  0  0
 56 69  2  0  0  0
 57 58  2  0  0  0
 57132  1  0  0  0
 58133  1  0  0  0
 59 60  1  0  0  0
 59 61  1  0  0  0
 59 62  1  0  0  0
 60134  1  0  0  0
 60135  1  0  0  0
 60136  1  0  0  0
 61137  1  0  0  0
 61138  1  0  0  0
 61139  1  0  0  0
 62140  1  0  0  0
 62141  1  0  0  0
 62142  1  0  0  0
 63 65  1  0  0  0
 63143  1  0  0  0
 63144  1  0  0  0
 63145  1  0  0  0
 64146  1  0  0  0
 65147  1  0  0  0
 68 83  1  0  0  0
 71 73  1  0  0  0
 71 74  2  0  0  0
 71148  1  0  0  0
 72 73  2  0  0  0
 72 86  1  0  0  0
 72149  1  0  0  0
 73 78  1  0  0  0
 74 79  1  0  0  0
 74 86  1  0  0  0
 75150  1  0  0  0
 75151  1  0  0  0
 75152  1  0  0  0
 75 84  1  0  0  0
 76 84  1  0  0  0
 76153  1  0  0  0
 76154  1  0  0  0
 76155  1  0  0  0
 77156  1  0  0  0
 77157  1  0  0  0
 77158  1  0  0  0
 77 85  1  0  0  0
 78 80  1  0  0  0
 78159  1  0  0  0
 78160  1  0  0  0
 79 87  1  0  0  0
 79161  1  0  0  0
 79162  1  0  0  0
 80 85  1  0  0  0
 80163  1  0  0  0
 80164  1  0  0  0
 81 82  1  0  0  0
 81 84  1  0  0  0
 81165  1  0  0  0
 81166  1  0  0  0
 82 86  1  0  0  0
 82167  1  0  0  0
 82168  1  0  0  0
 83 85  1  0  0  0
 83169  1  0  0  0
 83170  1  0  0  0
 84171  1  0  0  0
 85 88  1  0  0  0
 87172  1  0  0  0
M  ISO  4   1 100  68 101  83 101  87 100
M  END
> <chiral flag>
0

> <version>
0

> <s_m_source_file>
/data/baiqing/PycharmProjects/Reinvent-master-3.2/result/LINK_invent/BTK/process_docking_weight1_custom_sum_contain_oxygen_bond_distance_aromatic_linkinvent_7_9_3/rearranged_h_0107.sdf

> <i_m_source_file_index>
38

> <r_mmod_Potential_Energy-OPLS-2005>
-63.8817100524902

> <r_mmod_Stretch_Energy-OPLS-2005>
52.7797622680664

> <r_mmod_Bend_Energy-OPLS-2005>
125.564659118652

> <r_mmod_Torsional_Energy-OPLS-2005>
236.106170654297

> <r_mmod_Improper_Torsional_Energy-OPLS-2005>
3.84686899185181

> <r_mmod_Van_der_Waal_Energy-OPLS-2005>
113.938117980957

> <r_mmod_Electrostatic_Energy-OPLS-2005>
-422.798187255859

> <r_mmod_Solvation_Energy-OPLS-2005>
-198.331237792969

> <b_mmod_Minimization_Converged-OPLS-2005>
0

> <r_mmod_RMS_Derivative-OPLS-2005>
1.05241882801056

$$$$
38
                    3D
 Structure written by MMmdl.
173182  0  0  1  0            999 V2000
  -30.5553  -14.9468   20.4317 C   0  0  0  0  0  0
  -30.4304  -12.5847   19.5100 C   0  0  0  0  0  0
  -29.5256  -12.5501   18.2579 C   0  0  0  0  0  0
  -28.0519  -12.3528   18.6612 C   0  0  0  0  0  0
  -27.6314  -13.2605   19.8482 C   0  0  2  0  0  0
  -28.6715  -13.2761   20.9879 C   0  0  0  0  0  0
  -25.2468  -13.8238   20.5703 C   0  0  0  0  0  0
  -24.1797  -13.0433   20.9221 C   0  0  0  0  0  0
  -24.6439  -11.6930   20.8752 C   0  0  0  0  0  0
  -23.9139  -10.4288   21.0414 C   0  0  0  0  0  0
  -24.3679   -9.4203   21.9184 C   0  0  0  0  0  0
  -23.6335   -8.2247   22.0769 C   0  0  0  0  0  0
  -22.4309   -8.0290   21.3563 C   0  0  0  0  0  0
  -21.9956   -9.0271   20.4664 C   0  0  0  0  0  0
  -22.7309  -10.2131   20.3066 C   0  0  0  0  0  0
  -21.6858   -6.0744   22.5286 C   0  0  0  0  0  0
  -21.4017   -6.5648   23.8220 C   0  0  0  0  0  0
  -21.3666   -5.6798   24.9181 C   0  0  0  0  0  0
  -21.6048   -4.3058   24.7226 C   0  0  0  0  0  0
  -21.8817   -3.8156   23.4349 C   0  0  0  0  0  0
  -21.9204   -4.6975   22.3406 C   0  0  0  0  0  0
  -22.7826  -13.5208   21.1869 C   0  0  0  0  0  0
  -22.1653   -4.2157   21.0982 F   0  0  0  0  0  0
  -21.5638   -3.4544   25.7742 F   0  0  0  0  0  0
  -29.9497  -13.6886   20.3939 N   0  0  0  0  0  0
  -26.2910  -12.9488   20.3279 N   0  0  0  0  0  0
  -25.9383  -11.6598   20.5751 N   0  0  0  0  0  0
  -22.0484  -12.8179   22.0415 N   0  0  0  0  0  0
  -25.4127  -15.1959   20.4077 N   0  0  0  0  0  0
  -31.7507  -14.9977   20.1272 O   0  0  0  0  0  0
  -21.6655   -6.8893   21.4254 O   0  0  0  0  0  0
  -22.3506  -14.5506   20.6724 O   0  0  0  0  0  0
  -24.6474  -31.8425   23.1829 C   0  0  0  0  0  0
  -25.9236  -32.4686   23.8234 C   0  0  1  0  0  0
  -27.2228  -27.1043   20.1479 C   0  0  0  0  0  0
  -25.5991  -33.8495   24.2165 N   0  0  0  0  0  0
  -23.4492  -30.4601   21.5306 C   0  0  2  0  0  0
  -24.8991  -28.8811   20.1023 C   0  0  0  0  0  0
  -22.7563  -29.4550   22.4844 C   0  0  0  0  0  0
  -18.0312  -28.1393   22.8465 C   0  0  0  0  0  0
  -24.1497  -36.7242   23.2636 C   0  0  0  0  0  0
  -26.0063  -30.7027   21.3862 C   0  0  0  0  0  0
  -26.0746  -29.3103   20.7288 C   0  0  0  0  0  0
  -27.2288  -28.4370   20.7393 C   0  0  0  0  0  0
  -26.0201  -26.7869   19.4745 C   0  0  0  0  0  0
  -24.8876  -27.6332   19.4599 C   0  0  0  0  0  0
  -23.6739  -29.7856   20.1498 C   0  0  0  0  0  0
  -25.4135  -36.3025   24.0305 C   0  0  1  0  0  0
  -20.5924  -28.3735   23.1231 C   0  0  2  0  0  0
  -20.6799  -26.9441   22.5403 C   0  0  0  0  0  0
  -19.5777  -26.6383   21.5211 C   0  0  0  0  0  0
  -18.1957  -26.7931   22.1614 C   0  0  0  0  0  0
  -19.1564  -28.8880   23.2840 C   0  0  0  0  0  0
  -18.9480  -30.1480   23.8863 C   0  0  0  0  0  0
  -17.6475  -30.6597   24.0556 C   0  0  0  0  0  0
  -25.9097  -34.9406   23.5045 C   0  0  0  0  0  0
  -16.5370  -29.9082   23.6343 C   0  0  0  0  0  0
  -16.7290  -28.6503   23.0353 C   0  0  0  0  0  0
  -26.4548  -31.6549   25.0681 C   0  0  0  0  0  0
  -25.3733  -31.3708   26.1366 C   0  0  0  0  0  0
  -27.0405  -30.2942   24.6267 C   0  0  0  0  0  0
  -27.6081  -32.4306   25.7478 C   0  0  0  0  0  0
  -27.5578  -37.1788   24.8466 C   0  0  0  0  0  0
  -21.4257  -29.3056   22.3589 N   0  0  0  0  0  0
  -26.4287  -37.3747   23.9408 N   0  0  0  0  0  0
  -24.7210  -31.0249   22.0883 N   0  0  0  0  0  0
  -23.4191  -28.8128   23.3038 O   0  0  0  0  0  0
  -28.2823  -26.1186   20.2739 O   0  0  0  0  0  0
  -26.5679  -34.8911   22.4622 O   0  0  0  0  0  0
  -23.5598  -32.1325   23.7049 O   0  0  0  0  0  0
  -29.1596  -22.0469   18.1406 C   0  0  0  0  0  0
  -29.2843  -19.8492   18.2796 C   0  0  0  0  0  0
  -29.2975  -20.8623   17.3743 C   0  0  0  0  0  0
  -29.0263  -21.8016   19.4853 C   0  0  0  0  0  0
  -26.8078  -20.3917   15.6506 C   0  0  0  0  0  0
  -27.0025  -21.8871   15.5708 C   0  0  0  0  0  0
  -28.1098  -20.9551   15.1198 C   0  0  0  0  0  0
  -31.8570  -21.7367   15.9881 C   0  0  0  0  0  0
  -30.0113  -23.3644   21.2846 C   0  0  0  0  0  0
  -29.9338  -19.3304   15.4613 C   0  0  0  0  0  0
  -30.4600  -21.8005   15.3426 C   0  0  0  0  0  0
  -29.2823  -19.0967   20.6222 C   0  0  0  0  0  0
  -30.1956  -17.6709   20.3310 C   0  0  0  0  0  0
  -28.3051  -24.6450   19.7210 C   0  0  0  0  0  0
  -28.7691  -23.1384   20.4174 C   0  0  1  0  0  0
  -29.4430  -20.7447   15.8517 C   0  0  2  0  0  0
  -29.2267  -20.2998   19.5939 N   0  0  0  0  0  0
  -29.8067  -16.1508   20.5973 N   0  0  0  0  0  0
  -31.4707  -12.7212   19.2103 H   0  0  0  0  0  0
  -30.3920  -11.6248   20.0280 H   0  0  0  0  0  0
  -29.8407  -11.7510   17.5856 H   0  0  0  0  0  0
  -29.6373  -13.4811   17.7005 H   0  0  0  0  0  0
  -27.9275  -11.3045   18.9352 H   0  0  0  0  0  0
  -27.3998  -12.5271   17.8043 H   0  0  0  0  0  0
  -27.5960  -14.2730   19.4436 H   0  0  0  0  0  0
  -28.7510  -12.2934   21.4560 H   0  0  0  0  0  0
  -28.3715  -13.9712   21.7748 H   0  0  0  0  0  0
  -25.2836   -9.5655   22.4755 H   0  0  0  0  0  0
  -24.0046   -7.4645   22.7494 H   0  0  0  0  0  0
  -21.0884   -8.8822   19.8964 H   0  0  0  0  0  0
  -22.3813  -10.9682   19.6173 H   0  0  0  0  0  0
  -21.1989   -7.6153   23.9720 H   0  0  0  0  0  0
  -21.1493   -6.0527   25.9082 H   0  0  0  0  0  0
  -22.0591   -2.7621   23.2853 H   0  0  0  0  0  0
  -22.4129  -11.9840   22.4779 H   0  0  0  0  0  0
  -21.1104  -13.1191   22.2609 H   0  0  0  0  0  0
  -24.6421  -15.8473   20.5095 H   0  0  0  0  0  0
  -26.2491  -15.6313   20.0415 H   0  0  0  0  0  0
  -26.7299  -32.5270   23.0955 H   0  0  0  0  0  0
  -25.0122  -33.9596   25.0301 H   0  0  0  0  0  0
  -22.7555  -31.2895   21.3763 H   0  0  0  0  0  0
  -23.3774  -35.9559   23.3278 H   0  0  0  0  0  0
  -24.3574  -36.8898   22.2054 H   0  0  0  0  0  0
  -23.7239  -37.6424   23.6692 H   0  0  0  0  0  0
  -26.1647  -31.4527   20.6099 H   0  0  0  0  0  0
  -26.8760  -30.7552   22.0284 H   0  0  0  0  0  0
  -28.1171  -28.7585   21.2635 H   0  0  0  0  0  0
  -25.9007  -25.8385   18.9791 H   0  0  0  0  0  0
  -23.9900  -27.2978   18.9580 H   0  0  0  0  0  0
  -23.8089  -30.5609   19.3954 H   0  0  0  0  0  0
  -22.7862  -29.2316   19.8401 H   0  0  0  0  0  0
  -25.1335  -36.1830   25.0796 H   0  0  0  0  0  0
  -21.0019  -28.3327   24.1350 H   0  0  0  0  0  0
  -20.5716  -26.2353   23.3619 H   0  0  0  0  0  0
  -21.6665  -26.7465   22.1196 H   0  0  0  0  0  0
  -19.6951  -25.6285   21.1267 H   0  0  0  0  0  0
  -19.6715  -27.3169   20.6723 H   0  0  0  0  0  0
  -17.4234  -26.6678   21.4010 H   0  0  0  0  0  0
  -18.0358  -26.0080   22.9019 H   0  0  0  0  0  0
  -19.7957  -30.7313   24.2206 H   0  0  0  0  0  0
  -17.5030  -31.6273   24.5163 H   0  0  0  0  0  0
  -15.5368  -30.2976   23.7690 H   0  0  0  0  0  0
  -15.8686  -28.0816   22.7080 H   0  0  0  0  0  0
  -24.5937  -30.7042   25.7658 H   0  0  0  0  0  0
  -24.8899  -32.2873   26.4763 H   0  0  0  0  0  0
  -25.8029  -30.8887   27.0157 H   0  0  0  0  0  0
  -26.3000  -29.6661   24.1304 H   0  0  0  0  0  0
  -27.4034  -29.7254   25.4837 H   0  0  0  0  0  0
  -27.8914  -30.4161   23.9560 H   0  0  0  0  0  0
  -27.2683  -33.3634   26.1989 H   0  0  0  0  0  0
  -28.3936  -32.6815   25.0336 H   0  0  0  0  0  0
  -28.0698  -31.8464   26.5445 H   0  0  0  0  0  0
  -28.2591  -38.0090   24.7531 H   0  0  0  0  0  0
  -28.1086  -36.2628   24.6285 H   0  0  0  0  0  0
  -27.2298  -37.1416   25.8867 H   0  0  0  0  0  0
  -20.9472  -29.8730   21.6723 H   0  0  0  0  0  0
  -26.0147  -38.2811   24.1409 H   0  0  0  0  0  0
  -29.1375  -23.0292   17.6976 H   0  0  0  0  0  0
  -29.3263  -18.7934   18.0666 H   0  0  0  0  0  0
  -26.1328  -19.9320   14.9324 H   0  0  0  0  0  0
  -26.8044  -19.9405   16.6413 H   0  0  0  0  0  0
  -27.1091  -22.4227   16.5095 H   0  0  0  0  0  0
  -26.4440  -22.4164   14.8007 H   0  0  0  0  0  0
  -28.2237  -20.8872   14.0381 H   0  0  0  0  0  0
  -32.5075  -22.5153   15.5910 H   0  0  0  0  0  0
  -32.3433  -20.7809   15.7975 H   0  0  0  0  0  0
  -31.8082  -21.8738   17.0684 H   0  0  0  0  0  0
  -30.2304  -22.4819   21.8863 H   0  0  0  0  0  0
  -29.8761  -24.2076   21.9623 H   0  0  0  0  0  0
  -30.8859  -23.5703   20.6667 H   0  0  0  0  0  0
  -29.2070  -18.5662   15.7397 H   0  0  0  0  0  0
  -30.8706  -19.0710   15.9519 H   0  0  0  0  0  0
  -30.0885  -19.2402   14.3846 H   0  0  0  0  0  0
  -30.5687  -21.7156   14.2611 H   0  0  0  0  0  0
  -30.0560  -22.7987   15.5152 H   0  0  0  0  0  0
  -29.5961  -19.5142   21.5799 H   0  0  0  0  0  0
  -28.2464  -18.7930   20.7799 H   0  0  0  0  0  0
  -31.1257  -17.8154   20.8831 H   0  0  0  0  0  0
  -30.5448  -17.6747   19.3011 H   0  0  0  0  0  0
  -27.3607  -24.4366   19.2306 H   0  0  0  0  0  0
  -28.9979  -24.7900   18.8938 H   0  0  0  0  0  0
  -27.9617  -22.8879   21.1065 H   0  0  0  0  0  0
  -28.8358  -15.9997   20.8266 H   0  0  0  0  0  0
  1 25  1  0  0  0
  1 30  2  0  0  0
  1 88  1  0  0  0
  2  3  1  0  0  0
  2 25  1  0  0  0
  2 89  1  0  0  0
  2 90  1  0  0  0
  3  4  1  0  0  0
  3 91  1  0  0  0
  3 92  1  0  0  0
  4  5  1  0  0  0
  4 93  1  0  0  0
  4 94  1  0  0  0
  5  6  1  0  0  0
  5 26  1  0  0  0
  5 95  1  0  0  0
  6 25  1  0  0  0
  6 96  1  0  0  0
  6 97  1  0  0  0
  7  8  2  0  0  0
  7 26  1  0  0  0
  7 29  1  0  0  0
  8  9  1  0  0  0
  8 22  1  0  0  0
  9 10  1  0  0  0
  9 27  2  0  0  0
 10 11  2  0  0  0
 10 15  1  0  0  0
 11 12  1  0  0  0
 11 98  1  0  0  0
 12 13  2  0  0  0
 12 99  1  0  0  0
 13 14  1  0  0  0
 13 31  1  0  0  0
 14 15  2  0  0  0
 14100  1  0  0  0
 15101  1  0  0  0
 16 17  2  0  0  0
 16 21  1  0  0  0
 16 31  1  0  0  0
 17 18  1  0  0  0
 17102  1  0  0  0
 18 19  2  0  0  0
 18103  1  0  0  0
 19 20  1  0  0  0
 19 24  1  0  0  0
 20 21  2  0  0  0
 20104  1  0  0  0
 21 23  1  0  0  0
 22 28  1  0  0  0
 22 32  2  0  0  0
 26 27  1  0  0  0
 28105  1  0  0  0
 28106  1  0  0  0
 29107  1  0  0  0
 29108  1  0  0  0
 33 34  1  0  0  0
 33 66  1  0  0  0
 33 70  2  0  0  0
 34 36  1  0  0  0
 34 59  1  0  0  0
 34109  1  0  0  0
 35 44  2  0  0  0
 35 45  1  0  0  0
 35 68  1  0  0  0
 36 56  1  0  0  0
 36110  1  0  0  0
 37 39  1  0  0  0
 37 47  1  0  0  0
 37 66  1  0  0  0
 37111  1  0  0  0
 38 43  2  0  0  0
 38 46  1  0  0  0
 38 47  1  0  0  0
 39 64  1  0  0  0
 39 67  2  0  0  0
 40 52  1  0  0  0
 40 53  2  0  0  0
 40 58  1  0  0  0
 41112  1  0  0  0
 41113  1  0  0  0
 41114  1  0  0  0
 41 48  1  0  0  0
 42 43  1  0  0  0
 42 66  1  0  0  0
 42115  1  0  0  0
 42116  1  0  0  0
 43 44  1  0  0  0
 44117  1  0  0  0
 45 46  2  0  0  0
 45118  1  0  0  0
 46119  1  0  0  0
 47120  1  0  0  0
 47121  1  0  0  0
 48 56  1  0  0  0
 48 65  1  0  0  0
 48122  1  0  0  0
 49 50  1  0  0  0
 49 53  1  0  0  0
 49 64  1  0  0  0
 49123  1  0  0  0
 50 51  1  0  0  0
 50124  1  0  0  0
 50125  1  0  0  0
 51 52  1  0  0  0
 51126  1  0  0  0
 51127  1  0  0  0
 52128  1  0  0  0
 52129  1  0  0  0
 53 54  1  0  0  0
 54 55  2  0  0  0
 54130  1  0  0  0
 55 57  1  0  0  0
 55131  1  0  0  0
 56 69  2  0  0  0
 57 58  2  0  0  0
 57132  1  0  0  0
 58133  1  0  0  0
 59 60  1  0  0  0
 59 61  1  0  0  0
 59 62  1  0  0  0
 60134  1  0  0  0
 60135  1  0  0  0
 60136  1  0  0  0
 61137  1  0  0  0
 61138  1  0  0  0
 61139  1  0  0  0
 62140  1  0  0  0
 62141  1  0  0  0
 62142  1  0  0  0
 63 65  1  0  0  0
 63143  1  0  0  0
 63144  1  0  0  0
 63145  1  0  0  0
 64146  1  0  0  0
 65147  1  0  0  0
 68 84  1  0  0  0
 71 73  1  0  0  0
 71 74  2  0  0  0
 71148  1  0  0  0
 72 73  2  0  0  0
 72 87  1  0  0  0
 72149  1  0  0  0
 73 86  1  0  0  0
 74 85  1  0  0  0
 74 87  1  0  0  0
 75 76  1  0  0  0
 75150  1  0  0  0
 75151  1  0  0  0
 75 77  1  0  0  0
 76 77  1  0  0  0
 76152  1  0  0  0
 76153  1  0  0  0
 77 86  1  0  0  0
 77154  1  0  0  0
 78 81  1  0  0  0
 78155  1  0  0  0
 78156  1  0  0  0
 78157  1  0  0  0
 79158  1  0  0  0
 79159  1  0  0  0
 79160  1  0  0  0
 79 85  1  0  0  0
 80161  1  0  0  0
 80162  1  0  0  0
 80163  1  0  0  0
 80 86  1  0  0  0
 81 86  1  0  0  0
 81164  1  0  0  0
 81165  1  0  0  0
 82 83  1  0  0  0
 82 87  1  0  0  0
 82166  1  0  0  0
 82167  1  0  0  0
 83 88  1  0  0  0
 83168  1  0  0  0
 83169  1  0  0  0
 84 85  1  0  0  0
 84170  1  0  0  0
 84171  1  0  0  0
 85172  1  0  0  0
 88173  1  0  0  0
M  ISO  4   1 100  68 101  84 101  88 100
M  END
> <chiral flag>
0

> <version>
0

> <s_m_source_file>
/data/baiqing/PycharmProjects/Reinvent-master-3.2/result/LINK_invent/BTK/process_docking_weight1_custom_sum_contain_oxygen_bond_distance_aromatic_linkinvent_7_9_3/rearranged_h_0107.sdf

> <i_m_source_file_index>
39

> <r_mmod_Potential_Energy-OPLS-2005>
683.078735351562

> <r_mmod_Stretch_Energy-OPLS-2005>
328.680633544922

> <r_mmod_Bend_Energy-OPLS-2005>
369.505615234375

> <r_mmod_Torsional_Energy-OPLS-2005>
276.735870361328

> <r_mmod_Improper_Torsional_Energy-OPLS-2005>
5.34415817260742

> <r_mmod_Van_der_Waal_Energy-OPLS-2005>
119.750686645508

> <r_mmod_Electrostatic_Energy-OPLS-2005>
-412.449310302734

> <r_mmod_Solvation_Energy-OPLS-2005>
-206.431015014648

> <b_mmod_Minimization_Converged-OPLS-2005>
0

> <r_mmod_RMS_Derivative-OPLS-2005>
2.85371828079224

$$$$
39
                    3D
 Structure written by MMmdl.
159167  0  0  1  0            999 V2000
  -30.5656  -14.8147   20.4484 C   0  0  0  0  0  0
  -30.4423  -12.4954   19.4908 C   0  0  0  0  0  0
  -29.5204  -12.5254   18.2489 C   0  0  0  0  0  0
  -28.0476  -12.3338   18.6581 C   0  0  0  0  0  0
  -27.6437  -13.2348   19.8545 C   0  0  2  0  0  0
  -28.6853  -13.1812   20.9955 C   0  0  0  0  0  0
  -25.2512  -13.8194   20.5692 C   0  0  0  0  0  0
  -24.1807  -13.0441   20.9199 C   0  0  0  0  0  0
  -24.6404  -11.6919   20.8749 C   0  0  0  0  0  0
  -23.9079  -10.4295   21.0415 C   0  0  0  0  0  0
  -24.3631   -9.4202   21.9185 C   0  0  0  0  0  0
  -23.6300   -8.2240   22.0757 C   0  0  0  0  0  0
  -22.4277   -8.0284   21.3549 C   0  0  0  0  0  0
  -21.9920   -9.0258   20.4643 C   0  0  0  0  0  0
  -22.7257  -10.2136   20.3055 C   0  0  0  0  0  0
  -21.6849   -6.0737   22.5282 C   0  0  0  0  0  0
  -21.4013   -6.5642   23.8216 C   0  0  0  0  0  0
  -21.3660   -5.6794   24.9179 C   0  0  0  0  0  0
  -21.6048   -4.3060   24.7231 C   0  0  0  0  0  0
  -21.8819   -3.8150   23.4353 C   0  0  0  0  0  0
  -21.9196   -4.6964   22.3407 C   0  0  0  0  0  0
  -22.7830  -13.5214   21.1868 C   0  0  0  0  0  0
  -22.1666   -4.2153   21.0984 F   0  0  0  0  0  0
  -21.5631   -3.4542   25.7744 F   0  0  0  0  0  0
  -29.9858  -13.5581   20.4236 N   0  0  0  0  0  0
  -26.2941  -12.9408   20.3278 N   0  0  0  0  0  0
  -25.9335  -11.6551   20.5742 N   0  0  0  0  0  0
  -22.0484  -12.8195   22.0424 N   0  0  0  0  0  0
  -25.4208  -15.1915   20.4100 N   0  0  0  0  0  0
  -31.7308  -14.9479   20.0635 O   0  0  0  0  0  0
  -21.6644   -6.8881   21.4243 O   0  0  0  0  0  0
  -22.3512  -14.5527   20.6727 O   0  0  0  0  0  0
  -24.6366  -31.8508   23.1939 C   0  0  0  0  0  0
  -25.9165  -32.4732   23.8305 C   0  0  1  0  0  0
  -27.2213  -27.2071   20.1373 C   0  0  0  0  0  0
  -25.5935  -33.8537   24.2225 N   0  0  0  0  0  0
  -23.4368  -30.4716   21.5387 C   0  0  2  0  0  0
  -24.8865  -28.9132   20.1073 C   0  0  0  0  0  0
  -22.7535  -29.4574   22.4891 C   0  0  0  0  0  0
  -18.0302  -28.1390   22.8486 C   0  0  0  0  0  0
  -24.1492  -36.7278   23.2644 C   0  0  0  0  0  0
  -25.9874  -30.7457   21.3841 C   0  0  0  0  0  0
  -26.0592  -29.3636   20.7260 C   0  0  0  0  0  0
  -27.2260  -28.5228   20.7320 C   0  0  0  0  0  0
  -26.0289  -26.8509   19.4654 C   0  0  0  0  0  0
  -24.8802  -27.6670   19.4642 C   0  0  0  0  0  0
  -23.6589  -29.8058   20.1555 C   0  0  0  0  0  0
  -25.4121  -36.3063   24.0328 C   0  0  1  0  0  0
  -20.5910  -28.3707   23.1258 C   0  0  2  0  0  0
  -20.6785  -26.9415   22.5411 C   0  0  0  0  0  0
  -19.5754  -26.6379   21.5219 C   0  0  0  0  0  0
  -18.1937  -26.7932   22.1629 C   0  0  0  0  0  0
  -19.1557  -28.8867   23.2866 C   0  0  0  0  0  0
  -18.9470  -30.1470   23.8880 C   0  0  0  0  0  0
  -17.6465  -30.6588   24.0561 C   0  0  0  0  0  0
  -25.9063  -34.9434   23.5081 C   0  0  0  0  0  0
  -16.5359  -29.9079   23.6335 C   0  0  0  0  0  0
  -16.7285  -28.6503   23.0352 C   0  0  0  0  0  0
  -26.4503  -31.6579   25.0725 C   0  0  0  0  0  0
  -25.3700  -31.3747   26.1427 C   0  0  0  0  0  0
  -27.0365  -30.2989   24.6259 C   0  0  0  0  0  0
  -27.6041  -32.4335   25.7502 C   0  0  0  0  0  0
  -27.5581  -37.1799   24.8466 C   0  0  0  0  0  0
  -21.4236  -29.3041   22.3637 N   0  0  0  0  0  0
  -26.4292  -37.3765   23.9412 N   0  0  0  0  0  0
  -24.7062  -31.0420   22.0947 N   0  0  0  0  0  0
  -23.4208  -28.8119   23.3017 O   0  0  0  0  0  0
  -28.2940  -26.2672   20.2342 O   0  0  0  0  0  0
  -26.5645  -34.8917   22.4658 O   0  0  0  0  0  0
  -23.5500  -32.1352   23.7198 O   0  0  0  0  0  0
  -28.2975  -18.0536   20.3466 C   0  0  0  0  0  0
  -30.5780  -18.5209   20.9551 C   0  0  0  0  0  0
  -28.1269  -19.5452   19.8195 C   0  0  0  0  0  0
  -30.3968  -20.0398   20.4274 C   0  0  0  0  0  0
  -29.7217  -17.4063   20.2367 C   0  0  1  0  0  0
  -30.4319  -23.8624   20.5222 C   0  0  0  0  0  0
  -28.7337  -22.0268   19.7865 C   0  0  0  0  0  0
  -28.0970  -24.7895   19.8927 C   0  0  0  0  0  0
  -28.9389  -23.5030   20.5014 C   0  0  2  0  0  0
  -29.7495  -15.9213   20.7097 N   0  0  0  0  0  0
  -28.9942  -20.6179   20.4401 N   0  3  1  0  0  0
  -31.4822  -12.6329   19.1908 H   0  0  0  0  0  0
  -30.4014  -11.5194   19.9765 H   0  0  0  0  0  0
  -29.8151  -11.7517   17.5386 H   0  0  0  0  0  0
  -29.6359  -13.4785   17.7294 H   0  0  0  0  0  0
  -27.9137  -11.2844   18.9250 H   0  0  0  0  0  0
  -27.3907  -12.5155   17.8067 H   0  0  0  0  0  0
  -27.6328  -14.2537   19.4671 H   0  0  0  0  0  0
  -28.7323  -12.1827   21.4324 H   0  0  0  0  0  0
  -28.4036  -13.8534   21.8073 H   0  0  0  0  0  0
  -25.2781   -9.5676   22.4754 H   0  0  0  0  0  0
  -24.0011   -7.4631   22.7472 H   0  0  0  0  0  0
  -21.0857   -8.8781   19.8941 H   0  0  0  0  0  0
  -22.3725  -10.9678   19.6160 H   0  0  0  0  0  0
  -21.2000   -7.6151   23.9722 H   0  0  0  0  0  0
  -21.1481   -6.0524   25.9082 H   0  0  0  0  0  0
  -22.0598   -2.7613   23.2855 H   0  0  0  0  0  0
  -22.4109  -11.9843   22.4782 H   0  0  0  0  0  0
  -21.1100  -13.1201   22.2648 H   0  0  0  0  0  0
  -24.6500  -15.8428   20.5075 H   0  0  0  0  0  0
  -26.2616  -15.6233   20.0520 H   0  0  0  0  0  0
  -26.7236  -32.5367   23.1047 H   0  0  0  0  0  0
  -25.0060  -33.9652   25.0356 H   0  0  0  0  0  0
  -22.7365  -31.2963   21.3905 H   0  0  0  0  0  0
  -23.3758  -35.9604   23.3293 H   0  0  0  0  0  0
  -24.3581  -36.8914   22.2059 H   0  0  0  0  0  0
  -23.7234  -37.6472   23.6677 H   0  0  0  0  0  0
  -26.1355  -31.5029   20.6125 H   0  0  0  0  0  0
  -26.8614  -30.7960   22.0220 H   0  0  0  0  0  0
  -28.1170  -28.8591   21.2437 H   0  0  0  0  0  0
  -25.9458  -25.9101   18.9432 H   0  0  0  0  0  0
  -23.9877  -27.3203   18.9618 H   0  0  0  0  0  0
  -23.7853  -30.5828   19.4002 H   0  0  0  0  0  0
  -22.7761  -29.2419   19.8484 H   0  0  0  0  0  0
  -25.1302  -36.1909   25.0820 H   0  0  0  0  0  0
  -21.0008  -28.3290   24.1376 H   0  0  0  0  0  0
  -20.5687  -26.2311   23.3622 H   0  0  0  0  0  0
  -21.6649  -26.7424   22.1198 H   0  0  0  0  0  0
  -19.6905  -25.6286   21.1253 H   0  0  0  0  0  0
  -19.6691  -27.3187   20.6748 H   0  0  0  0  0  0
  -17.4206  -26.6692   21.4032 H   0  0  0  0  0  0
  -18.0324  -26.0081   22.9028 H   0  0  0  0  0  0
  -19.7943  -30.7302   24.2235 H   0  0  0  0  0  0
  -17.5012  -31.6265   24.5165 H   0  0  0  0  0  0
  -15.5355  -30.2969   23.7668 H   0  0  0  0  0  0
  -15.8691  -28.0816   22.7061 H   0  0  0  0  0  0
  -24.5876  -30.7100   25.7741 H   0  0  0  0  0  0
  -24.8887  -32.2923   26.4822 H   0  0  0  0  0  0
  -25.7988  -30.8933   27.0224 H   0  0  0  0  0  0
  -26.2966  -29.6726   24.1259 H   0  0  0  0  0  0
  -27.4001  -29.7273   25.4808 H   0  0  0  0  0  0
  -27.8863  -30.4254   23.9548 H   0  0  0  0  0  0
  -27.2633  -33.3640   26.2055 H   0  0  0  0  0  0
  -28.3857  -32.6889   25.0335 H   0  0  0  0  0  0
  -28.0705  -31.8482   26.5438 H   0  0  0  0  0  0
  -28.2594  -38.0100   24.7517 H   0  0  0  0  0  0
  -28.1085  -36.2632   24.6289 H   0  0  0  0  0  0
  -27.2301  -37.1438   25.8869 H   0  0  0  0  0  0
  -20.9434  -29.8767   21.6836 H   0  0  0  0  0  0
  -26.0174  -38.2843   24.1399 H   0  0  0  0  0  0
  -27.5917  -17.4277   19.8004 H   0  0  0  0  0  0
  -27.9675  -18.0169   21.3862 H   0  0  0  0  0  0
  -30.3635  -18.4987   22.0241 H   0  0  0  0  0  0
  -31.6315  -18.2539   20.8696 H   0  0  0  0  0  0
  -27.0825  -19.8330   19.9458 H   0  0  0  0  0  0
  -28.3042  -19.5458   18.7429 H   0  0  0  0  0  0
  -30.7707  -20.0913   19.4037 H   0  0  0  0  0  0
  -31.0426  -20.6968   21.0094 H   0  0  0  0  0  0
  -30.0072  -17.3896   19.1830 H   0  0  0  0  0  0
  -31.0249  -23.0877   21.0057 H   0  0  0  0  0  0
  -30.6016  -24.7884   21.0730 H   0  0  0  0  0  0
  -30.8208  -24.0038   19.5135 H   0  0  0  0  0  0
  -29.2367  -22.0377   18.8192 H   0  0  0  0  0  0
  -27.6738  -22.0185   19.5287 H   0  0  0  0  0  0
  -27.0624  -24.5363   20.1188 H   0  0  0  0  0  0
  -28.1777  -24.7350   18.8067 H   0  0  0  0  0  0
  -28.6187  -23.3999   21.5389 H   0  0  0  0  0  0
  -28.8696  -15.6267   21.1053 H   0  0  0  0  0  0
  -28.7083  -20.6940   21.4050 H   0  0  0  0  0  0
  1 25  1  0  0  0
  1 30  2  0  0  0
  1 80  1  0  0  0
  2  3  1  0  0  0
  2 25  1  0  0  0
  2 82  1  0  0  0
  2 83  1  0  0  0
  3  4  1  0  0  0
  3 84  1  0  0  0
  3 85  1  0  0  0
  4  5  1  0  0  0
  4 86  1  0  0  0
  4 87  1  0  0  0
  5  6  1  0  0  0
  5 26  1  0  0  0
  5 88  1  0  0  0
  6 25  1  0  0  0
  6 89  1  0  0  0
  6 90  1  0  0  0
  7  8  2  0  0  0
  7 26  1  0  0  0
  7 29  1  0  0  0
  8  9  1  0  0  0
  8 22  1  0  0  0
  9 10  1  0  0  0
  9 27  2  0  0  0
 10 11  2  0  0  0
 10 15  1  0  0  0
 11 12  1  0  0  0
 11 91  1  0  0  0
 12 13  2  0  0  0
 12 92  1  0  0  0
 13 14  1  0  0  0
 13 31  1  0  0  0
 14 15  2  0  0  0
 14 93  1  0  0  0
 15 94  1  0  0  0
 16 17  2  0  0  0
 16 21  1  0  0  0
 16 31  1  0  0  0
 17 18  1  0  0  0
 17 95  1  0  0  0
 18 19  2  0  0  0
 18 96  1  0  0  0
 19 20  1  0  0  0
 19 24  1  0  0  0
 20 21  2  0  0  0
 20 97  1  0  0  0
 21 23  1  0  0  0
 22 28  1  0  0  0
 22 32  2  0  0  0
 26 27  1  0  0  0
 28 98  1  0  0  0
 28 99  1  0  0  0
 29100  1  0  0  0
 29101  1  0  0  0
 33 34  1  0  0  0
 33 66  1  0  0  0
 33 70  2  0  0  0
 34 36  1  0  0  0
 34 59  1  0  0  0
 34102  1  0  0  0
 35 44  2  0  0  0
 35 45  1  0  0  0
 35 68  1  0  0  0
 36 56  1  0  0  0
 36103  1  0  0  0
 37 39  1  0  0  0
 37 47  1  0  0  0
 37 66  1  0  0  0
 37104  1  0  0  0
 38 43  2  0  0  0
 38 46  1  0  0  0
 38 47  1  0  0  0
 39 64  1  0  0  0
 39 67  2  0  0  0
 40 52  1  0  0  0
 40 53  2  0  0  0
 40 58  1  0  0  0
 41105  1  0  0  0
 41106  1  0  0  0
 41107  1  0  0  0
 41 48  1  0  0  0
 42 43  1  0  0  0
 42 66  1  0  0  0
 42108  1  0  0  0
 42109  1  0  0  0
 43 44  1  0  0  0
 44110  1  0  0  0
 45 46  2  0  0  0
 45111  1  0  0  0
 46112  1  0  0  0
 47113  1  0  0  0
 47114  1  0  0  0
 48 56  1  0  0  0
 48 65  1  0  0  0
 48115  1  0  0  0
 49 50  1  0  0  0
 49 53  1  0  0  0
 49 64  1  0  0  0
 49116  1  0  0  0
 50 51  1  0  0  0
 50117  1  0  0  0
 50118  1  0  0  0
 51 52  1  0  0  0
 51119  1  0  0  0
 51120  1  0  0  0
 52121  1  0  0  0
 52122  1  0  0  0
 53 54  1  0  0  0
 54 55  2  0  0  0
 54123  1  0  0  0
 55 57  1  0  0  0
 55124  1  0  0  0
 56 69  2  0  0  0
 57 58  2  0  0  0
 57125  1  0  0  0
 58126  1  0  0  0
 59 60  1  0  0  0
 59 61  1  0  0  0
 59 62  1  0  0  0
 60127  1  0  0  0
 60128  1  0  0  0
 60129  1  0  0  0
 61130  1  0  0  0
 61131  1  0  0  0
 61132  1  0  0  0
 62133  1  0  0  0
 62134  1  0  0  0
 62135  1  0  0  0
 63 65  1  0  0  0
 63136  1  0  0  0
 63137  1  0  0  0
 63138  1  0  0  0
 64139  1  0  0  0
 65140  1  0  0  0
 68 78  1  0  0  0
 71 73  1  0  0  0
 71 75  1  0  0  0
 71141  1  0  0  0
 71142  1  0  0  0
 72 74  1  0  0  0
 72 75  1  0  0  0
 72143  1  0  0  0
 72144  1  0  0  0
 73 81  1  0  0  0
 73145  1  0  0  0
 73146  1  0  0  0
 74 81  1  0  0  0
 74147  1  0  0  0
 74148  1  0  0  0
 75 80  1  0  0  0
 75149  1  0  0  0
 76150  1  0  0  0
 76151  1  0  0  0
 76152  1  0  0  0
 76 79  1  0  0  0
 77 79  1  0  0  0
 77153  1  0  0  0
 77154  1  0  0  0
 77 81  1  0  0  0
 78 79  1  0  0  0
 78155  1  0  0  0
 78156  1  0  0  0
 79157  1  0  0  0
 80158  1  0  0  0
 81159  1  0  0  0
M  CHG  1  81   1
M  ISO  4   1 100  68 101  78 101  80 100
M  END
> <chiral flag>
0

> <version>
0

> <s_m_source_file>
/data/baiqing/PycharmProjects/Reinvent-master-3.2/result/LINK_invent/BTK/process_docking_weight1_custom_sum_contain_oxygen_bond_distance_aromatic_linkinvent_7_9_3/rearranged_h_0107.sdf

> <i_m_source_file_index>
40

> <r_mmod_Potential_Energy-OPLS-2005>
219.282791137695

> <r_mmod_Stretch_Energy-OPLS-2005>
170.305938720703

> <r_mmod_Bend_Energy-OPLS-2005>
229.032867431641

> <r_mmod_Torsional_Energy-OPLS-2005>
251.371353149414

> <r_mmod_Improper_Torsional_Energy-OPLS-2005>
5.63643980026245

> <r_mmod_Van_der_Waal_Energy-OPLS-2005>
118.810501098633

> <r_mmod_Electrostatic_Energy-OPLS-2005>
-215.164505004883

> <r_mmod_Solvation_Energy-OPLS-2005>
-462.889221191406

> <b_mmod_Minimization_Converged-OPLS-2005>
0

> <r_mmod_RMS_Derivative-OPLS-2005>
1.10298907756805

$$$$
40
                    3D
 Structure written by MMmdl.
172181  0  0  1  0            999 V2000
  -30.5986  -14.7983   20.4611 C   0  0  0  0  0  0
  -30.4360  -12.4958   19.4736 C   0  0  0  0  0  0
  -29.5103  -12.5076   18.2378 C   0  0  0  0  0  0
  -28.0391  -12.3187   18.6569 C   0  0  0  0  0  0
  -27.6363  -13.2349   19.8445 C   0  0  2  0  0  0
  -28.6836  -13.1950   20.9765 C   0  0  0  0  0  0
  -25.2479  -13.8197   20.5710 C   0  0  0  0  0  0
  -24.1782  -13.0433   20.9224 C   0  0  0  0  0  0
  -24.6390  -11.6915   20.8755 C   0  0  0  0  0  0
  -23.9071  -10.4291   21.0420 C   0  0  0  0  0  0
  -24.3621   -9.4211   21.9203 C   0  0  0  0  0  0
  -23.6299   -8.2244   22.0766 C   0  0  0  0  0  0
  -22.4279   -8.0283   21.3556 C   0  0  0  0  0  0
  -21.9915   -9.0254   20.4655 C   0  0  0  0  0  0
  -22.7246  -10.2135   20.3069 C   0  0  0  0  0  0
  -21.6857   -6.0752   22.5294 C   0  0  0  0  0  0
  -21.4008   -6.5649   23.8222 C   0  0  0  0  0  0
  -21.3647   -5.6800   24.9179 C   0  0  0  0  0  0
  -21.6043   -4.3064   24.7228 C   0  0  0  0  0  0
  -21.8812   -3.8157   23.4341 C   0  0  0  0  0  0
  -21.9187   -4.6979   22.3406 C   0  0  0  0  0  0
  -22.7803  -13.5219   21.1887 C   0  0  0  0  0  0
  -22.1658   -4.2170   21.0980 F   0  0  0  0  0  0
  -21.5616   -3.4542   25.7732 F   0  0  0  0  0  0
  -29.9714  -13.5709   20.3825 N   0  0  0  0  0  0
  -26.2907  -12.9416   20.3269 N   0  0  0  0  0  0
  -25.9323  -11.6558   20.5757 N   0  0  0  0  0  0
  -22.0447  -12.8210   22.0435 N   0  0  0  0  0  0
  -25.4116  -15.1934   20.4158 N   0  0  0  0  0  0
  -31.8015  -14.8736   20.1952 O   0  0  0  0  0  0
  -21.6639   -6.8890   21.4253 O   0  0  0  0  0  0
  -22.3491  -14.5524   20.6733 O   0  0  0  0  0  0
  -24.6364  -31.8500   23.1944 C   0  0  0  0  0  0
  -25.9162  -32.4727   23.8328 C   0  0  1  0  0  0
  -27.2171  -27.2153   20.1303 C   0  0  0  0  0  0
  -25.5938  -33.8536   24.2237 N   0  0  0  0  0  0
  -23.4360  -30.4721   21.5378 C   0  0  2  0  0  0
  -24.8850  -28.9128   20.1072 C   0  0  0  0  0  0
  -22.7534  -29.4582   22.4889 C   0  0  0  0  0  0
  -18.0310  -28.1399   22.8486 C   0  0  0  0  0  0
  -24.1479  -36.7256   23.2654 C   0  0  0  0  0  0
  -25.9881  -30.7446   21.3854 C   0  0  0  0  0  0
  -26.0601  -29.3648   20.7244 C   0  0  0  0  0  0
  -27.2316  -28.5310   20.7218 C   0  0  0  0  0  0
  -26.0255  -26.8518   19.4679 C   0  0  0  0  0  0
  -24.8760  -27.6656   19.4663 C   0  0  0  0  0  0
  -23.6569  -29.8045   20.1555 C   0  0  0  0  0  0
  -25.4107  -36.3049   24.0336 C   0  0  1  0  0  0
  -20.5910  -28.3719   23.1250 C   0  0  2  0  0  0
  -20.6795  -26.9424   22.5413 C   0  0  0  0  0  0
  -19.5764  -26.6375   21.5229 C   0  0  0  0  0  0
  -18.1939  -26.7947   22.1618 C   0  0  0  0  0  0
  -19.1561  -28.8874   23.2867 C   0  0  0  0  0  0
  -18.9484  -30.1475   23.8887 C   0  0  0  0  0  0
  -17.6486  -30.6609   24.0564 C   0  0  0  0  0  0
  -25.9056  -34.9427   23.5083 C   0  0  0  0  0  0
  -16.5377  -29.9093   23.6360 C   0  0  0  0  0  0
  -16.7294  -28.6508   23.0383 C   0  0  0  0  0  0
  -26.4511  -31.6596   25.0755 C   0  0  0  0  0  0
  -25.3726  -31.3736   26.1480 C   0  0  0  0  0  0
  -27.0400  -30.3010   24.6297 C   0  0  0  0  0  0
  -27.6046  -32.4386   25.7512 C   0  0  0  0  0  0
  -27.5567  -37.1779   24.8467 C   0  0  0  0  0  0
  -21.4235  -29.3068   22.3636 N   0  0  0  0  0  0
  -26.4265  -37.3766   23.9432 N   0  0  0  0  0  0
  -24.7058  -31.0418   22.0947 N   0  0  0  0  0  0
  -23.4219  -28.8142   23.3017 O   0  0  0  0  0  0
  -28.2652  -26.2503   20.1552 O   0  0  0  0  0  0
  -26.5634  -34.8915   22.4657 O   0  0  0  0  0  0
  -23.5498  -32.1356   23.7194 O   0  0  0  0  0  0
  -28.5201  -22.7330   19.1533 C   0  0  0  0  0  0
  -28.5504  -23.4498   20.4067 C   0  0  0  0  0  0
  -28.8555  -21.3899   19.3917 C   0  0  0  0  0  0
  -29.0449  -22.5145   21.3358 C   0  0  0  0  0  0
  -28.9056  -20.2063   18.5783 C   0  0  0  0  0  0
  -29.2840  -18.9622   19.0827 C   0  0  0  0  0  0
  -29.6142  -19.9560   21.2285 C   0  0  0  0  0  0
  -29.6744  -18.7796   20.4396 C   0  0  0  0  0  0
  -28.1188  -22.4255   23.6844 C   0  0  0  0  0  0
  -25.2971  -22.6064   15.2431 C   0  0  0  0  0  0
  -26.4925  -24.8018   15.6143 C   0  0  0  0  0  0
  -28.1617  -23.3351   17.8241 C   0  0  0  0  0  0
  -27.9294  -24.8998   20.7696 C   0  0  0  0  0  0
  -29.3242  -22.7337   22.7909 C   0  0  0  0  0  0
  -30.3041  -17.3905   20.9771 C   0  0  0  0  0  0
  -26.8001  -22.8736   17.2734 C   0  0  0  0  0  0
  -26.5620  -23.2769   15.8007 C   0  0  0  0  0  0
  -29.2082  -21.2197   20.7451 N   0  0  0  0  0  0
  -29.8396  -15.9564   20.6542 N   0  0  0  0  0  0
  -31.4747  -12.6341   19.1677 H   0  0  0  0  0  0
  -30.3988  -11.5277   19.9766 H   0  0  0  0  0  0
  -29.8034  -11.7234   17.5382 H   0  0  0  0  0  0
  -29.6199  -13.4529   17.7020 H   0  0  0  0  0  0
  -27.9158  -11.2733   18.9431 H   0  0  0  0  0  0
  -27.3753  -12.4805   17.8076 H   0  0  0  0  0  0
  -27.6191  -14.2502   19.4464 H   0  0  0  0  0  0
  -28.7396  -12.1994   21.4185 H   0  0  0  0  0  0
  -28.4117  -13.8757   21.7847 H   0  0  0  0  0  0
  -25.2768   -9.5699   22.4777 H   0  0  0  0  0  0
  -24.0005   -7.4646   22.7503 H   0  0  0  0  0  0
  -21.0835   -8.8780   19.8974 H   0  0  0  0  0  0
  -22.3709  -10.9674   19.6170 H   0  0  0  0  0  0
  -21.2010   -7.6157   23.9741 H   0  0  0  0  0  0
  -21.1463   -6.0523   25.9086 H   0  0  0  0  0  0
  -22.0596   -2.7625   23.2840 H   0  0  0  0  0  0
  -22.4047  -11.9850   22.4797 H   0  0  0  0  0  0
  -21.1078  -13.1260   22.2677 H   0  0  0  0  0  0
  -24.6370  -15.8370   20.5328 H   0  0  0  0  0  0
  -26.2518  -15.6459   20.0800 H   0  0  0  0  0  0
  -26.7221  -32.5349   23.1064 H   0  0  0  0  0  0
  -25.0148  -33.9675   25.0426 H   0  0  0  0  0  0
  -22.7366  -31.2975   21.3866 H   0  0  0  0  0  0
  -23.3764  -35.9563   23.3277 H   0  0  0  0  0  0
  -24.3575  -36.8916   22.2078 H   0  0  0  0  0  0
  -23.7201  -37.6428   23.6712 H   0  0  0  0  0  0
  -26.1400  -31.5030   20.6165 H   0  0  0  0  0  0
  -26.8595  -30.7864   22.0278 H   0  0  0  0  0  0
  -28.1287  -28.8696   21.2187 H   0  0  0  0  0  0
  -25.9687  -25.8993   18.9582 H   0  0  0  0  0  0
  -23.9818  -27.3181   18.9677 H   0  0  0  0  0  0
  -23.7820  -30.5816   19.3992 H   0  0  0  0  0  0
  -22.7730  -29.2405   19.8508 H   0  0  0  0  0  0
  -25.1272  -36.1892   25.0826 H   0  0  0  0  0  0
  -21.0008  -28.3303   24.1371 H   0  0  0  0  0  0
  -20.5712  -26.2331   23.3629 H   0  0  0  0  0  0
  -21.6653  -26.7455   22.1183 H   0  0  0  0  0  0
  -19.6923  -25.6279   21.1271 H   0  0  0  0  0  0
  -19.6702  -27.3173   20.6758 H   0  0  0  0  0  0
  -17.4217  -26.6757   21.4001 H   0  0  0  0  0  0
  -18.0287  -26.0072   22.8980 H   0  0  0  0  0  0
  -19.7968  -30.7306   24.2230 H   0  0  0  0  0  0
  -17.5047  -31.6292   24.5161 H   0  0  0  0  0  0
  -15.5378  -30.3003   23.7702 H   0  0  0  0  0  0
  -15.8686  -28.0825   22.7122 H   0  0  0  0  0  0
  -24.5958  -30.6992   25.7845 H   0  0  0  0  0  0
  -24.8852  -32.2887   26.4872 H   0  0  0  0  0  0
  -25.8082  -30.8996   27.0292 H   0  0  0  0  0  0
  -26.3022  -29.6721   24.1305 H   0  0  0  0  0  0
  -27.4042  -29.7315   25.4867 H   0  0  0  0  0  0
  -27.8903  -30.4264   23.9586 H   0  0  0  0  0  0
  -27.2639  -33.3739   26.1966 H   0  0  0  0  0  0
  -28.3910  -32.6876   25.0369 H   0  0  0  0  0  0
  -28.0651  -31.8603   26.5529 H   0  0  0  0  0  0
  -28.2562  -38.0108   24.7558 H   0  0  0  0  0  0
  -28.1088  -36.2642   24.6218 H   0  0  0  0  0  0
  -27.2297  -37.1315   25.8874 H   0  0  0  0  0  0
  -20.9430  -29.8786   21.6814 H   0  0  0  0  0  0
  -26.0127  -38.2816   24.1496 H   0  0  0  0  0  0
  -28.6350  -20.2970   17.5313 H   0  0  0  0  0  0
  -29.3194  -18.1142   18.4016 H   0  0  0  0  0  0
  -29.9074  -19.9462   22.2724 H   0  0  0  0  0  0
  -28.3595  -22.5990   24.7339 H   0  0  0  0  0  0
  -27.8041  -21.3862   23.5832 H   0  0  0  0  0  0
  -27.2676  -23.0594   23.4289 H   0  0  0  0  0  0
  -25.1489  -22.8543   14.1917 H   0  0  0  0  0  0
  -24.4065  -22.9209   15.7874 H   0  0  0  0  0  0
  -25.3614  -21.5201   15.3093 H   0  0  0  0  0  0
  -26.2496  -25.0618   14.5832 H   0  0  0  0  0  0
  -27.4461  -25.2779   15.8433 H   0  0  0  0  0  0
  -25.7333  -25.2460   16.2588 H   0  0  0  0  0  0
  -28.9402  -23.0775   17.1041 H   0  0  0  0  0  0
  -28.1799  -24.4230   17.8930 H   0  0  0  0  0  0
  -28.0897  -25.0694   21.8337 H   0  0  0  0  0  0
  -26.8498  -24.7646   20.7250 H   0  0  0  0  0  0
  -29.6407  -23.7647   22.9526 H   0  0  0  0  0  0
  -30.1769  -22.1278   23.1011 H   0  0  0  0  0  0
  -30.2786  -17.4506   22.0655 H   0  0  0  0  0  0
  -31.3646  -17.4420   20.7280 H   0  0  0  0  0  0
  -25.9990  -23.2520   17.9097 H   0  0  0  0  0  0
  -26.7453  -21.7859   17.3368 H   0  0  0  0  0  0
  -27.4017  -22.9093   15.2073 H   0  0  0  0  0  0
  -28.8510  -15.7956   20.7646 H   0  0  0  0  0  0
  1 25  1  0  0  0
  1 30  2  0  0  0
  1 89  1  0  0  0
  2  3  1  0  0  0
  2 25  1  0  0  0
  2 90  1  0  0  0
  2 91  1  0  0  0
  3  4  1  0  0  0
  3 92  1  0  0  0
  3 93  1  0  0  0
  4  5  1  0  0  0
  4 94  1  0  0  0
  4 95  1  0  0  0
  5  6  1  0  0  0
  5 26  1  0  0  0
  5 96  1  0  0  0
  6 25  1  0  0  0
  6 97  1  0  0  0
  6 98  1  0  0  0
  7  8  2  0  0  0
  7 26  1  0  0  0
  7 29  1  0  0  0
  8  9  1  0  0  0
  8 22  1  0  0  0
  9 10  1  0  0  0
  9 27  2  0  0  0
 10 11  2  0  0  0
 10 15  1  0  0  0
 11 12  1  0  0  0
 11 99  1  0  0  0
 12 13  2  0  0  0
 12100  1  0  0  0
 13 14  1  0  0  0
 13 31  1  0  0  0
 14 15  2  0  0  0
 14101  1  0  0  0
 15102  1  0  0  0
 16 17  2  0  0  0
 16 21  1  0  0  0
 16 31  1  0  0  0
 17 18  1  0  0  0
 17103  1  0  0  0
 18 19  2  0  0  0
 18104  1  0  0  0
 19 20  1  0  0  0
 19 24  1  0  0  0
 20 21  2  0  0  0
 20105  1  0  0  0
 21 23  1  0  0  0
 22 28  1  0  0  0
 22 32  2  0  0  0
 26 27  1  0  0  0
 28106  1  0  0  0
 28107  1  0  0  0
 29108  1  0  0  0
 29109  1  0  0  0
 33 34  1  0  0  0
 33 66  1  0  0  0
 33 70  2  0  0  0
 34 36  1  0  0  0
 34 59  1  0  0  0
 34110  1  0  0  0
 35 44  2  0  0  0
 35 45  1  0  0  0
 35 68  1  0  0  0
 36 56  1  0  0  0
 36111  1  0  0  0
 37 39  1  0  0  0
 37 47  1  0  0  0
 37 66  1  0  0  0
 37112  1  0  0  0
 38 43  2  0  0  0
 38 46  1  0  0  0
 38 47  1  0  0  0
 39 64  1  0  0  0
 39 67  2  0  0  0
 40 52  1  0  0  0
 40 53  2  0  0  0
 40 58  1  0  0  0
 41113  1  0  0  0
 41114  1  0  0  0
 41115  1  0  0  0
 41 48  1  0  0  0
 42 43  1  0  0  0
 42 66  1  0  0  0
 42116  1  0  0  0
 42117  1  0  0  0
 43 44  1  0  0  0
 44118  1  0  0  0
 45 46  2  0  0  0
 45119  1  0  0  0
 46120  1  0  0  0
 47121  1  0  0  0
 47122  1  0  0  0
 48 56  1  0  0  0
 48 65  1  0  0  0
 48123  1  0  0  0
 49 50  1  0  0  0
 49 53  1  0  0  0
 49 64  1  0  0  0
 49124  1  0  0  0
 50 51  1  0  0  0
 50125  1  0  0  0
 50126  1  0  0  0
 51 52  1  0  0  0
 51127  1  0  0  0
 51128  1  0  0  0
 52129  1  0  0  0
 52130  1  0  0  0
 53 54  1  0  0  0
 54 55  2  0  0  0
 54131  1  0  0  0
 55 57  1  0  0  0
 55132  1  0  0  0
 56 69  2  0  0  0
 57 58  2  0  0  0
 57133  1  0  0  0
 58134  1  0  0  0
 59 60  1  0  0  0
 59 61  1  0  0  0
 59 62  1  0  0  0
 60135  1  0  0  0
 60136  1  0  0  0
 60137  1  0  0  0
 61138  1  0  0  0
 61139  1  0  0  0
 61140  1  0  0  0
 62141  1  0  0  0
 62142  1  0  0  0
 62143  1  0  0  0
 63 65  1  0  0  0
 63144  1  0  0  0
 63145  1  0  0  0
 63146  1  0  0  0
 64147  1  0  0  0
 65148  1  0  0  0
 68 83  1  0  0  0
 71 72  1  0  0  0
 71 73  2  0  0  0
 71 82  1  0  0  0
 72 74  2  0  0  0
 72 83  1  0  0  0
 73 75  1  0  0  0
 73 88  1  0  0  0
 74 84  1  0  0  0
 74 88  1  0  0  0
 75 76  2  0  0  0
 75149  1  0  0  0
 76 78  1  0  0  0
 76150  1  0  0  0
 77 78  2  0  0  0
 77 88  1  0  0  0
 77151  1  0  0  0
 78 85  1  0  0  0
 79 84  1  0  0  0
 79152  1  0  0  0
 79153  1  0  0  0
 79154  1  0  0  0
 80155  1  0  0  0
 80156  1  0  0  0
 80157  1  0  0  0
 80 87  1  0  0  0
 81 87  1  0  0  0
 81158  1  0  0  0
 81159  1  0  0  0
 81160  1  0  0  0
 82 86  1  0  0  0
 82161  1  0  0  0
 82162  1  0  0  0
 83163  1  0  0  0
 83164  1  0  0  0
 84165  1  0  0  0
 84166  1  0  0  0
 85 89  1  0  0  0
 85167  1  0  0  0
 85168  1  0  0  0
 86 87  1  0  0  0
 86169  1  0  0  0
 86170  1  0  0  0
 87171  1  0  0  0
 89172  1  0  0  0
M  ISO  4   1 100  68 101  83 101  89 100
M  END
> <chiral flag>
0

> <version>
0

> <s_m_source_file>
/data/baiqing/PycharmProjects/Reinvent-master-3.2/result/LINK_invent/BTK/process_docking_weight1_custom_sum_contain_oxygen_bond_distance_aromatic_linkinvent_7_9_3/rearranged_h_0107.sdf

> <i_m_source_file_index>
41

> <r_mmod_Potential_Energy-OPLS-2005>
256.393371582031

> <r_mmod_Stretch_Energy-OPLS-2005>
147.164489746094

> <r_mmod_Bend_Energy-OPLS-2005>
198.574615478516

> <r_mmod_Torsional_Energy-OPLS-2005>
250.399978637695

> <r_mmod_Improper_Torsional_Energy-OPLS-2005>
6.15807437896729

> <r_mmod_Van_der_Waal_Energy-OPLS-2005>
118.903747558594

> <r_mmod_Electrostatic_Energy-OPLS-2005>
-381.493560791016

> <r_mmod_Solvation_Energy-OPLS-2005>
-201.147155761719

> <b_mmod_Minimization_Converged-OPLS-2005>
0

> <r_mmod_RMS_Derivative-OPLS-2005>
2.50470161437988

$$$$
41
                    3D
 Structure written by MMmdl.
159167  0  0  1  0            999 V2000
  -30.6499  -14.8317   20.4458 C   0  0  0  0  0  0
  -30.4148  -12.5239   19.4801 C   0  0  0  0  0  0
  -29.5001  -12.5123   18.2385 C   0  0  0  0  0  0
  -28.0335  -12.3226   18.6647 C   0  0  0  0  0  0
  -27.6282  -13.2489   19.8427 C   0  0  2  0  0  0
  -28.6777  -13.2556   20.9746 C   0  0  0  0  0  0
  -25.2447  -13.8238   20.5736 C   0  0  0  0  0  0
  -24.1762  -13.0453   20.9237 C   0  0  0  0  0  0
  -24.6380  -11.6939   20.8776 C   0  0  0  0  0  0
  -23.9075  -10.4300   21.0419 C   0  0  0  0  0  0
  -24.3627   -9.4211   21.9195 C   0  0  0  0  0  0
  -23.6295   -8.2246   22.0764 C   0  0  0  0  0  0
  -22.4277   -8.0287   21.3553 C   0  0  0  0  0  0
  -21.9915   -9.0264   20.4659 C   0  0  0  0  0  0
  -22.7246  -10.2141   20.3065 C   0  0  0  0  0  0
  -21.6850   -6.0739   22.5277 C   0  0  0  0  0  0
  -21.4018   -6.5640   23.8210 C   0  0  0  0  0  0
  -21.3659   -5.6794   24.9173 C   0  0  0  0  0  0
  -21.6043   -4.3057   24.7223 C   0  0  0  0  0  0
  -21.8815   -3.8147   23.4344 C   0  0  0  0  0  0
  -21.9191   -4.6965   22.3400 C   0  0  0  0  0  0
  -22.7778  -13.5218   21.1877 C   0  0  0  0  0  0
  -22.1659   -4.2151   21.0978 F   0  0  0  0  0  0
  -21.5628   -3.4543   25.7738 F   0  0  0  0  0  0
  -29.9514  -13.6366   20.3563 N   0  0  0  0  0  0
  -26.2878  -12.9475   20.3309 N   0  0  0  0  0  0
  -25.9319  -11.6604   20.5792 N   0  0  0  0  0  0
  -22.0424  -12.8214   22.0434 N   0  0  0  0  0  0
  -25.4112  -15.1961   20.4140 N   0  0  0  0  0  0
  -31.8608  -14.7674   20.2042 O   0  0  0  0  0  0
  -21.6639   -6.8885   21.4244 O   0  0  0  0  0  0
  -22.3464  -14.5517   20.6711 O   0  0  0  0  0  0
  -24.6371  -31.8506   23.1946 C   0  0  0  0  0  0
  -25.9170  -32.4730   23.8310 C   0  0  1  0  0  0
  -27.2033  -27.1979   20.1391 C   0  0  0  0  0  0
  -25.5945  -33.8535   24.2228 N   0  0  0  0  0  0
  -23.4364  -30.4743   21.5391 C   0  0  2  0  0  0
  -24.8811  -28.9151   20.1069 C   0  0  0  0  0  0
  -22.7533  -29.4580   22.4881 C   0  0  0  0  0  0
  -18.0302  -28.1384   22.8482 C   0  0  0  0  0  0
  -24.1489  -36.7273   23.2639 C   0  0  0  0  0  0
  -25.9883  -30.7436   21.3843 C   0  0  0  0  0  0
  -26.0567  -29.3626   20.7226 C   0  0  0  0  0  0
  -27.2213  -28.5186   20.7239 C   0  0  0  0  0  0
  -26.0067  -26.8412   19.4785 C   0  0  0  0  0  0
  -24.8655  -27.6662   19.4705 C   0  0  0  0  0  0
  -23.6568  -29.8111   20.1548 C   0  0  0  0  0  0
  -25.4116  -36.3055   24.0320 C   0  0  1  0  0  0
  -20.5909  -28.3708   23.1247 C   0  0  2  0  0  0
  -20.6786  -26.9417   22.5405 C   0  0  0  0  0  0
  -19.5760  -26.6376   21.5209 C   0  0  0  0  0  0
  -18.1941  -26.7926   22.1622 C   0  0  0  0  0  0
  -19.1557  -28.8863   23.2861 C   0  0  0  0  0  0
  -18.9474  -30.1456   23.8892 C   0  0  0  0  0  0
  -17.6472  -30.6584   24.0560 C   0  0  0  0  0  0
  -25.9064  -34.9428   23.5080 C   0  0  0  0  0  0
  -16.5365  -29.9079   23.6328 C   0  0  0  0  0  0
  -16.7288  -28.6494   23.0358 C   0  0  0  0  0  0
  -26.4509  -31.6580   25.0729 C   0  0  0  0  0  0
  -25.3708  -31.3763   26.1434 C   0  0  0  0  0  0
  -27.0362  -30.2984   24.6272 C   0  0  0  0  0  0
  -27.6041  -32.4344   25.7512 C   0  0  0  0  0  0
  -27.5580  -37.1789   24.8459 C   0  0  0  0  0  0
  -21.4235  -29.3049   22.3624 N   0  0  0  0  0  0
  -26.4288  -37.3760   23.9410 N   0  0  0  0  0  0
  -24.7068  -31.0423   22.0946 N   0  0  0  0  0  0
  -23.4210  -28.8118   23.2997 O   0  0  0  0  0  0
  -28.2612  -26.2432   20.2261 O   0  0  0  0  0  0
  -26.5645  -34.8912   22.4658 O   0  0  0  0  0  0
  -23.5509  -32.1352   23.7205 O   0  0  0  0  0  0
  -30.2871  -18.6891   19.5021 C   0  0  0  0  0  0
  -28.5693  -18.2747   21.1534 C   0  0  0  0  0  0
  -30.8373  -17.2046   19.6688 C   0  0  0  0  0  0
  -29.0052  -16.7181   21.2803 C   0  0  0  0  0  0
  -29.7071  -19.2892   20.8022 C   0  0  0  0  0  0
  -30.9835  -21.4021   21.1801 C   0  0  0  0  0  0
  -28.9438  -23.5258   20.5578 C   0  0  0  0  0  0
  -28.7347  -21.8976   20.2378 C   0  0  0  0  0  0
  -27.9824  -24.7498   20.0199 C   0  0  0  0  0  0
  -30.0378  -16.1181   20.3563 N   0  0  0  0  0  0
  -29.6091  -20.8574   21.0102 N   0  3  1  0  0  0
  -31.4537  -12.6309   19.1648 H   0  0  0  0  0  0
  -30.3678  -11.5706   20.0089 H   0  0  0  0  0  0
  -29.7979  -11.7185   17.5521 H   0  0  0  0  0  0
  -29.6090  -13.4499   17.6908 H   0  0  0  0  0  0
  -27.9149  -11.2798   18.9609 H   0  0  0  0  0  0
  -27.3664  -12.4742   17.8161 H   0  0  0  0  0  0
  -27.6003  -14.2563   19.4268 H   0  0  0  0  0  0
  -28.7499  -12.2761   21.4496 H   0  0  0  0  0  0
  -28.4029  -13.9566   21.7626 H   0  0  0  0  0  0
  -25.2770   -9.5680   22.4776 H   0  0  0  0  0  0
  -24.0004   -7.4627   22.7475 H   0  0  0  0  0  0
  -21.0848   -8.8781   19.8958 H   0  0  0  0  0  0
  -22.3708  -10.9681   19.6175 H   0  0  0  0  0  0
  -21.2018   -7.6150   23.9716 H   0  0  0  0  0  0
  -21.1484   -6.0524   25.9074 H   0  0  0  0  0  0
  -22.0594   -2.7611   23.2839 H   0  0  0  0  0  0
  -22.4049  -11.9889   22.4847 H   0  0  0  0  0  0
  -21.1041  -13.1238   22.2635 H   0  0  0  0  0  0
  -24.6430  -15.8485   20.5272 H   0  0  0  0  0  0
  -26.2584  -15.6350   20.0772 H   0  0  0  0  0  0
  -26.7237  -32.5350   23.1041 H   0  0  0  0  0  0
  -25.0080  -33.9664   25.0369 H   0  0  0  0  0  0
  -22.7357  -31.2991   21.3924 H   0  0  0  0  0  0
  -23.3759  -35.9596   23.3281 H   0  0  0  0  0  0
  -24.3583  -36.8924   22.2058 H   0  0  0  0  0  0
  -23.7232  -37.6461   23.6685 H   0  0  0  0  0  0
  -26.1392  -31.5028   20.6158 H   0  0  0  0  0  0
  -26.8615  -30.7885   22.0237 H   0  0  0  0  0  0
  -28.1184  -28.8525   21.2257 H   0  0  0  0  0  0
  -25.9159  -25.8886   18.9788 H   0  0  0  0  0  0
  -23.9671  -27.3209   18.9772 H   0  0  0  0  0  0
  -23.7895  -30.5894   19.4023 H   0  0  0  0  0  0
  -22.7718  -29.2525   19.8454 H   0  0  0  0  0  0
  -25.1297  -36.1893   25.0812 H   0  0  0  0  0  0
  -21.0009  -28.3294   24.1363 H   0  0  0  0  0  0
  -20.5672  -26.2323   23.3619 H   0  0  0  0  0  0
  -21.6653  -26.7421   22.1206 H   0  0  0  0  0  0
  -19.6918  -25.6281   21.1253 H   0  0  0  0  0  0
  -19.6691  -27.3174   20.6727 H   0  0  0  0  0  0
  -17.4207  -26.6674   21.4027 H   0  0  0  0  0  0
  -18.0340  -26.0068   22.9020 H   0  0  0  0  0  0
  -19.7949  -30.7271   24.2267 H   0  0  0  0  0  0
  -17.5026  -31.6265   24.5161 H   0  0  0  0  0  0
  -15.5365  -30.2980   23.7649 H   0  0  0  0  0  0
  -15.8688  -28.0803   22.7086 H   0  0  0  0  0  0
  -24.5877  -30.7120   25.7762 H   0  0  0  0  0  0
  -24.8906  -32.2948   26.4824 H   0  0  0  0  0  0
  -25.7997  -30.8959   27.0238 H   0  0  0  0  0  0
  -26.2963  -29.6722   24.1271 H   0  0  0  0  0  0
  -27.3985  -29.7263   25.4824 H   0  0  0  0  0  0
  -27.8870  -30.4232   23.9568 H   0  0  0  0  0  0
  -27.2624  -33.3650   26.2057 H   0  0  0  0  0  0
  -28.3866  -32.6904   25.0357 H   0  0  0  0  0  0
  -28.0695  -31.8501   26.5459 H   0  0  0  0  0  0
  -28.2575  -38.0108   24.7532 H   0  0  0  0  0  0
  -28.1101  -36.2640   24.6249 H   0  0  0  0  0  0
  -27.2307  -37.1393   25.8865 H   0  0  0  0  0  0
  -20.9424  -29.8780   21.6833 H   0  0  0  0  0  0
  -26.0158  -38.2830   24.1426 H   0  0  0  0  0  0
  -29.5282  -18.7145   18.7193 H   0  0  0  0  0  0
  -31.1006  -19.3172   19.1383 H   0  0  0  0  0  0
  -28.0913  -18.5754   22.0859 H   0  0  0  0  0  0
  -27.7890  -18.3581   20.3961 H   0  0  0  0  0  0
  -31.7813  -17.2939   20.2099 H   0  0  0  0  0  0
  -31.1109  -16.8408   18.6770 H   0  0  0  0  0  0
  -28.1002  -16.1167   21.2179 H   0  0  0  0  0  0
  -29.3820  -16.5632   22.2922 H   0  0  0  0  0  0
  -30.4391  -19.0183   21.5634 H   0  0  0  0  0  0
  -31.6300  -20.7535   21.7708 H   0  0  0  0  0  0
  -30.9789  -22.3526   21.7113 H   0  0  0  0  0  0
  -31.4620  -21.5532   20.2122 H   0  0  0  0  0  0
  -29.9479  -23.7850   20.2230 H   0  0  0  0  0  0
  -28.9685  -23.6327   21.6421 H   0  0  0  0  0  0
  -28.8973  -21.7351   19.1721 H   0  0  0  0  0  0
  -27.6920  -21.6351   20.4167 H   0  0  0  0  0  0
  -27.0019  -24.5464   20.4518 H   0  0  0  0  0  0
  -27.8635  -24.6086   18.9455 H   0  0  0  0  0  0
  -29.2297  -20.9152   21.9446 H   0  0  0  0  0  0
  1 25  1  0  0  0
  1 30  2  0  0  0
  1 80  1  0  0  0
  2  3  1  0  0  0
  2 25  1  0  0  0
  2 82  1  0  0  0
  2 83  1  0  0  0
  3  4  1  0  0  0
  3 84  1  0  0  0
  3 85  1  0  0  0
  4  5  1  0  0  0
  4 86  1  0  0  0
  4 87  1  0  0  0
  5  6  1  0  0  0
  5 26  1  0  0  0
  5 88  1  0  0  0
  6 25  1  0  0  0
  6 89  1  0  0  0
  6 90  1  0  0  0
  7  8  2  0  0  0
  7 26  1  0  0  0
  7 29  1  0  0  0
  8  9  1  0  0  0
  8 22  1  0  0  0
  9 10  1  0  0  0
  9 27  2  0  0  0
 10 11  2  0  0  0
 10 15  1  0  0  0
 11 12  1  0  0  0
 11 91  1  0  0  0
 12 13  2  0  0  0
 12 92  1  0  0  0
 13 14  1  0  0  0
 13 31  1  0  0  0
 14 15  2  0  0  0
 14 93  1  0  0  0
 15 94  1  0  0  0
 16 17  2  0  0  0
 16 21  1  0  0  0
 16 31  1  0  0  0
 17 18  1  0  0  0
 17 95  1  0  0  0
 18 19  2  0  0  0
 18 96  1  0  0  0
 19 20  1  0  0  0
 19 24  1  0  0  0
 20 21  2  0  0  0
 20 97  1  0  0  0
 21 23  1  0  0  0
 22 28  1  0  0  0
 22 32  2  0  0  0
 26 27  1  0  0  0
 28 98  1  0  0  0
 28 99  1  0  0  0
 29100  1  0  0  0
 29101  1  0  0  0
 33 34  1  0  0  0
 33 66  1  0  0  0
 33 70  2  0  0  0
 34 36  1  0  0  0
 34 59  1  0  0  0
 34102  1  0  0  0
 35 44  2  0  0  0
 35 45  1  0  0  0
 35 68  1  0  0  0
 36 56  1  0  0  0
 36103  1  0  0  0
 37 39  1  0  0  0
 37 47  1  0  0  0
 37 66  1  0  0  0
 37104  1  0  0  0
 38 43  2  0  0  0
 38 46  1  0  0  0
 38 47  1  0  0  0
 39 64  1  0  0  0
 39 67  2  0  0  0
 40 52  1  0  0  0
 40 53  2  0  0  0
 40 58  1  0  0  0
 41105  1  0  0  0
 41106  1  0  0  0
 41107  1  0  0  0
 41 48  1  0  0  0
 42 43  1  0  0  0
 42 66  1  0  0  0
 42108  1  0  0  0
 42109  1  0  0  0
 43 44  1  0  0  0
 44110  1  0  0  0
 45 46  2  0  0  0
 45111  1  0  0  0
 46112  1  0  0  0
 47113  1  0  0  0
 47114  1  0  0  0
 48 56  1  0  0  0
 48 65  1  0  0  0
 48115  1  0  0  0
 49 50  1  0  0  0
 49 53  1  0  0  0
 49 64  1  0  0  0
 49116  1  0  0  0
 50 51  1  0  0  0
 50117  1  0  0  0
 50118  1  0  0  0
 51 52  1  0  0  0
 51119  1  0  0  0
 51120  1  0  0  0
 52121  1  0  0  0
 52122  1  0  0  0
 53 54  1  0  0  0
 54 55  2  0  0  0
 54123  1  0  0  0
 55 57  1  0  0  0
 55124  1  0  0  0
 56 69  2  0  0  0
 57 58  2  0  0  0
 57125  1  0  0  0
 58126  1  0  0  0
 59 60  1  0  0  0
 59 61  1  0  0  0
 59 62  1  0  0  0
 60127  1  0  0  0
 60128  1  0  0  0
 60129  1  0  0  0
 61130  1  0  0  0
 61131  1  0  0  0
 61132  1  0  0  0
 62133  1  0  0  0
 62134  1  0  0  0
 62135  1  0  0  0
 63 65  1  0  0  0
 63136  1  0  0  0
 63137  1  0  0  0
 63138  1  0  0  0
 64139  1  0  0  0
 65140  1  0  0  0
 68 79  1  0  0  0
 71 73  1  0  0  0
 71141  1  0  0  0
 71142  1  0  0  0
 71 75  1  0  0  0
 72 74  1  0  0  0
 72 75  1  0  0  0
 72143  1  0  0  0
 72144  1  0  0  0
 73 80  1  0  0  0
 73145  1  0  0  0
 73146  1  0  0  0
 74 80  1  0  0  0
 74147  1  0  0  0
 74148  1  0  0  0
 75 81  1  0  0  0
 75149  1  0  0  0
 76150  1  0  0  0
 76151  1  0  0  0
 76152  1  0  0  0
 76 81  1  0  0  0
 77 78  1  0  0  0
 77 79  1  0  0  0
 77153  1  0  0  0
 77154  1  0  0  0
 78 81  1  0  0  0
 78155  1  0  0  0
 78156  1  0  0  0
 79157  1  0  0  0
 79158  1  0  0  0
 81159  1  0  0  0
M  CHG  1  81   1
M  ISO  4   1 100  68 101  79 101  80 100
M  END
> <chiral flag>
0

> <version>
0

> <s_m_source_file>
/data/baiqing/PycharmProjects/Reinvent-master-3.2/result/LINK_invent/BTK/process_docking_weight1_custom_sum_contain_oxygen_bond_distance_aromatic_linkinvent_7_9_3/rearranged_h_0107.sdf

> <i_m_source_file_index>
42

> <r_mmod_Potential_Energy-OPLS-2005>
484.696868896484

> <r_mmod_Stretch_Energy-OPLS-2005>
187.833312988281

> <r_mmod_Bend_Energy-OPLS-2005>
284.479522705078

> <r_mmod_Torsional_Energy-OPLS-2005>
321.825531005859

> <r_mmod_Improper_Torsional_Energy-OPLS-2005>
14.8991584777832

> <r_mmod_Van_der_Waal_Energy-OPLS-2005>
133.253768920898

> <r_mmod_Electrostatic_Energy-OPLS-2005>
-149.126220703125

> <r_mmod_Solvation_Energy-OPLS-2005>
-442.806488037109

> <b_mmod_Minimization_Converged-OPLS-2005>
0

> <r_mmod_RMS_Derivative-OPLS-2005>
1.06135392189026

$$$$
42
                    3D
 Structure written by MMmdl.
171179  0  0  1  0            999 V2000
  -30.7357  -14.4516   20.5977 C   0  0  0  0  0  0
  -30.4228  -12.3065   19.4181 C   0  0  0  0  0  0
  -29.4911  -12.4984   18.2044 C   0  0  0  0  0  0
  -28.0147  -12.3620   18.6218 C   0  0  0  0  0  0
  -27.6645  -13.2086   19.8748 C   0  0  2  0  0  0
  -28.7079  -12.9957   20.9964 C   0  0  0  0  0  0
  -25.2584  -13.8156   20.5663 C   0  0  0  0  0  0
  -24.1843  -13.0440   20.9179 C   0  0  0  0  0  0
  -24.6411  -11.6906   20.8737 C   0  0  0  0  0  0
  -23.9078  -10.4292   21.0407 C   0  0  0  0  0  0
  -24.3622   -9.4206   21.9188 C   0  0  0  0  0  0
  -23.6294   -8.2241   22.0760 C   0  0  0  0  0  0
  -22.4275   -8.0282   21.3548 C   0  0  0  0  0  0
  -21.9917   -9.0255   20.4644 C   0  0  0  0  0  0
  -22.7249  -10.2134   20.3055 C   0  0  0  0  0  0
  -21.6854   -6.0737   22.5280 C   0  0  0  0  0  0
  -21.4010   -6.5640   23.8214 C   0  0  0  0  0  0
  -21.3652   -5.6792   24.9176 C   0  0  0  0  0  0
  -21.6048   -4.3058   24.7226 C   0  0  0  0  0  0
  -21.8816   -3.8149   23.4348 C   0  0  0  0  0  0
  -21.9194   -4.6966   22.3405 C   0  0  0  0  0  0
  -22.7867  -13.5234   21.1834 C   0  0  0  0  0  0
  -22.1663   -4.2153   21.0985 F   0  0  0  0  0  0
  -21.5629   -3.4542   25.7742 F   0  0  0  0  0  0
  -30.0439  -13.2887   20.4465 N   0  0  0  0  0  0
  -26.3044  -12.9343   20.3373 N   0  0  0  0  0  0
  -25.9340  -11.6506   20.5781 N   0  0  0  0  0  0
  -22.0502  -12.8223   22.0388 N   0  0  0  0  0  0
  -25.4263  -15.1865   20.4022 N   0  0  0  0  0  0
  -31.8278  -14.6538   20.0607 O   0  0  0  0  0  0
  -21.6639   -6.8877   21.4243 O   0  0  0  0  0  0
  -22.3552  -14.5541   20.6692 O   0  0  0  0  0  0
  -24.6163  -31.8659   23.2112 C   0  0  0  0  0  0
  -25.9066  -32.4799   23.8400 C   0  0  1  0  0  0
  -27.2295  -27.4292   20.1055 C   0  0  0  0  0  0
  -25.5943  -33.8605   24.2342 N   0  0  0  0  0  0
  -23.4048  -30.4900   21.5502 C   0  0  2  0  0  0
  -24.8528  -28.9606   20.1130 C   0  0  0  0  0  0
  -22.7437  -29.4628   22.4981 C   0  0  0  0  0  0
  -18.0287  -28.1358   22.8441 C   0  0  0  0  0  0
  -24.1493  -36.7276   23.2639 C   0  0  0  0  0  0
  -25.9351  -30.8315   21.3664 C   0  0  0  0  0  0
  -26.0138  -29.4675   20.7122 C   0  0  0  0  0  0
  -27.2077  -28.7096   20.7033 C   0  0  0  0  0  0
  -26.0571  -26.9464   19.4838 C   0  0  0  0  0  0
  -24.8701  -27.6992   19.4945 C   0  0  0  0  0  0
  -23.6145  -29.8261   20.1642 C   0  0  0  0  0  0
  -25.4111  -36.3087   24.0341 C   0  0  1  0  0  0
  -20.5876  -28.3645   23.1301 C   0  0  2  0  0  0
  -20.6791  -26.9383   22.5403 C   0  0  0  0  0  0
  -19.5780  -26.6365   21.5191 C   0  0  0  0  0  0
  -18.1948  -26.7902   22.1586 C   0  0  0  0  0  0
  -19.1537  -28.8825   23.2857 C   0  0  0  0  0  0
  -18.9468  -30.1428   23.8870 C   0  0  0  0  0  0
  -17.6471  -30.6558   24.0548 C   0  0  0  0  0  0
  -25.9045  -34.9451   23.5124 C   0  0  0  0  0  0
  -16.5359  -29.9048   23.6331 C   0  0  0  0  0  0
  -16.7274  -28.6479   23.0310 C   0  0  0  0  0  0
  -26.4513  -31.6579   25.0715 C   0  0  0  0  0  0
  -25.3779  -31.3671   26.1460 C   0  0  0  0  0  0
  -27.0373  -30.3046   24.6050 C   0  0  0  0  0  0
  -27.6092  -32.4299   25.7477 C   0  0  0  0  0  0
  -27.5573  -37.1782   24.8472 C   0  0  0  0  0  0
  -21.4167  -29.3003   22.3714 N   0  0  0  0  0  0
  -26.4297  -37.3764   23.9408 N   0  0  0  0  0  0
  -24.6704  -31.0755   22.1011 N   0  0  0  0  0  0
  -23.4201  -28.8180   23.3040 O   0  0  0  0  0  0
  -28.3655  -26.6472   20.1347 O   0  0  0  0  0  0
  -26.5563  -34.8904   22.4660 O   0  0  0  0  0  0
  -23.5349  -32.1410   23.7491 O   0  0  0  0  0  0
  -30.1025  -19.4689   17.9435 C   0  0  0  0  0  0
  -30.6944  -19.6952   16.6869 C   0  0  0  0  0  0
  -32.8485  -20.0041   17.7694 C   0  0  0  0  0  0
  -30.8700  -19.5116   19.1322 C   0  0  0  0  0  0
  -32.2616  -19.7920   19.0381 C   0  0  0  0  0  0
  -32.0710  -19.9578   16.5984 C   0  0  0  0  0  0
  -33.1553  -19.8822   20.2659 C   0  0  0  0  0  0
  -28.1429  -17.6669   21.0230 C   0  0  0  0  0  0
  -29.1774  -24.2839   20.3944 C   0  0  0  0  0  0
  -30.5312  -16.8386   21.3714 C   0  0  0  0  0  0
  -28.7347  -22.8829   20.9039 C   0  0  0  0  0  0
  -29.1186  -20.4125   20.7314 C   0  0  0  0  0  0
  -28.1797  -25.3888   20.8127 C   0  0  0  0  0  0
  -30.1589  -19.2732   20.4747 C   0  0  1  0  0  0
  -29.6099  -17.7909   20.5532 C   0  0  2  0  0  0
  -30.1148  -15.4247   21.2848 N   0  0  0  0  0  0
  -29.6779  -21.7842   20.5659 N   0  3  0  0  0  0
  -32.6479  -20.1687   15.3917 F   0  0  0  0  0  0
  -31.4643  -12.4041   19.1073 H   0  0  0  0  0  0
  -30.3284  -11.2959   19.8167 H   0  0  0  0  0  0
  -29.7255  -11.7637   17.4324 H   0  0  0  0  0  0
  -29.6595  -13.4785   17.7538 H   0  0  0  0  0  0
  -27.8272  -11.3071   18.8261 H   0  0  0  0  0  0
  -27.3612  -12.6299   17.7905 H   0  0  0  0  0  0
  -27.7085  -14.2554   19.5734 H   0  0  0  0  0  0
  -28.6798  -11.9641   21.3484 H   0  0  0  0  0  0
  -28.4646  -13.6050   21.8664 H   0  0  0  0  0  0
  -25.2767   -9.5683   22.4765 H   0  0  0  0  0  0
  -24.0003   -7.4639   22.7482 H   0  0  0  0  0  0
  -21.0850   -8.8775   19.8948 H   0  0  0  0  0  0
  -22.3713  -10.9673   19.6161 H   0  0  0  0  0  0
  -21.1992   -7.6148   23.9716 H   0  0  0  0  0  0
  -21.1477   -6.0524   25.9075 H   0  0  0  0  0  0
  -22.0601   -2.7612   23.2852 H   0  0  0  0  0  0
  -22.4117  -11.9887   22.4772 H   0  0  0  0  0  0
  -21.1114  -13.1237   22.2574 H   0  0  0  0  0  0
  -24.6568  -15.8382   20.5071 H   0  0  0  0  0  0
  -26.2730  -15.6247   20.0649 H   0  0  0  0  0  0
  -26.7133  -32.5542   23.1169 H   0  0  0  0  0  0
  -25.0249  -33.9790   25.0583 H   0  0  0  0  0  0
  -22.6902  -31.3034   21.4130 H   0  0  0  0  0  0
  -23.3765  -35.9601   23.3318 H   0  0  0  0  0  0
  -24.3617  -36.8877   22.2062 H   0  0  0  0  0  0
  -23.7234  -37.6478   23.6638 H   0  0  0  0  0  0
  -26.0509  -31.5986   20.5996 H   0  0  0  0  0  0
  -26.8227  -30.8822   21.9864 H   0  0  0  0  0  0
  -28.1022  -29.0873   21.1783 H   0  0  0  0  0  0
  -26.0533  -25.9813   18.9966 H   0  0  0  0  0  0
  -23.9813  -27.3033   19.0232 H   0  0  0  0  0  0
  -23.7174  -30.6019   19.4042 H   0  0  0  0  0  0
  -22.7402  -29.2423   19.8709 H   0  0  0  0  0  0
  -25.1287  -36.1980   25.0838 H   0  0  0  0  0  0
  -20.9956  -28.3217   24.1422 H   0  0  0  0  0  0
  -20.5734  -26.2228   23.3568 H   0  0  0  0  0  0
  -21.6654  -26.7426   22.1171 H   0  0  0  0  0  0
  -19.6965  -25.6283   21.1200 H   0  0  0  0  0  0
  -19.6770  -27.3179   20.6729 H   0  0  0  0  0  0
  -17.4221  -26.6637   21.3984 H   0  0  0  0  0  0
  -18.0355  -26.0038   22.8981 H   0  0  0  0  0  0
  -19.7952  -30.7239   24.2221 H   0  0  0  0  0  0
  -17.5025  -31.6241   24.5138 H   0  0  0  0  0  0
  -15.5356  -30.2929   23.7683 H   0  0  0  0  0  0
  -15.8668  -28.0812   22.6999 H   0  0  0  0  0  0
  -24.5942  -30.7047   25.7777 H   0  0  0  0  0  0
  -24.8977  -32.2823   26.4931 H   0  0  0  0  0  0
  -25.8123  -30.8805   27.0203 H   0  0  0  0  0  0
  -26.2908  -29.6767   24.1164 H   0  0  0  0  0  0
  -27.4304  -29.7323   25.4469 H   0  0  0  0  0  0
  -27.8664  -30.4444   23.9105 H   0  0  0  0  0  0
  -27.2730  -33.3606   26.2067 H   0  0  0  0  0  0
  -28.3882  -32.6860   25.0277 H   0  0  0  0  0  0
  -28.0772  -31.8403   26.5379 H   0  0  0  0  0  0
  -28.2571  -38.0089   24.7506 H   0  0  0  0  0  0
  -28.1094  -36.2616   24.6318 H   0  0  0  0  0  0
  -27.2289  -37.1457   25.8876 H   0  0  0  0  0  0
  -20.9349  -29.8678   21.6887 H   0  0  0  0  0  0
  -26.0195  -38.2846   24.1417 H   0  0  0  0  0  0
  -29.0432  -19.2580   17.9847 H   0  0  0  0  0  0
  -30.0926  -19.6648   15.7900 H   0  0  0  0  0  0
  -33.9071  -20.2070   17.6813 H   0  0  0  0  0  0
  -34.1861  -20.1102   19.9917 H   0  0  0  0  0  0
  -33.1623  -18.9407   20.8154 H   0  0  0  0  0  0
  -32.8186  -20.6743   20.9351 H   0  0  0  0  0  0
  -27.8093  -16.6307   21.0160 H   0  0  0  0  0  0
  -27.4576  -18.1997   20.3637 H   0  0  0  0  0  0
  -28.0049  -18.0403   22.0377 H   0  0  0  0  0  0
  -29.2471  -24.2628   19.3061 H   0  0  0  0  0  0
  -30.1724  -24.5316   20.7646 H   0  0  0  0  0  0
  -30.5272  -17.1279   22.4225 H   0  0  0  0  0  0
  -31.5641  -16.9554   21.0393 H   0  0  0  0  0  0
  -27.7560  -22.6525   20.4781 H   0  0  0  0  0  0
  -28.5980  -22.8995   21.9866 H   0  0  0  0  0  0
  -28.7124  -20.3169   21.7397 H   0  0  0  0  0  0
  -28.2757  -20.3157   20.0457 H   0  0  0  0  0  0
  -28.2652  -25.5661   21.8859 H   0  0  0  0  0  0
  -27.1759  -24.9931   20.6620 H   0  0  0  0  0  0
  -30.8779  -19.3744   21.2857 H   0  0  0  0  0  0
  -29.6036  -17.3895   19.5386 H   0  0  0  0  0  0
  -29.2399  -15.1760   21.7212 H   0  0  0  0  0  0
  -30.5005  -21.8786   21.1389 H   0  0  0  0  0  0
  -29.9623  -21.8827   19.6035 H   0  0  0  0  0  0
  1 25  1  0  0  0
  1 30  2  0  0  0
  1 86  1  0  0  0
  2  3  1  0  0  0
  2 25  1  0  0  0
  2 89  1  0  0  0
  2 90  1  0  0  0
  3  4  1  0  0  0
  3 91  1  0  0  0
  3 92  1  0  0  0
  4  5  1  0  0  0
  4 93  1  0  0  0
  4 94  1  0  0  0
  5  6  1  0  0  0
  5 26  1  0  0  0
  5 95  1  0  0  0
  6 25  1  0  0  0
  6 96  1  0  0  0
  6 97  1  0  0  0
  7  8  2  0  0  0
  7 26  1  0  0  0
  7 29  1  0  0  0
  8  9  1  0  0  0
  8 22  1  0  0  0
  9 10  1  0  0  0
  9 27  2  0  0  0
 10 11  2  0  0  0
 10 15  1  0  0  0
 11 12  1  0  0  0
 11 98  1  0  0  0
 12 13  2  0  0  0
 12 99  1  0  0  0
 13 14  1  0  0  0
 13 31  1  0  0  0
 14 15  2  0  0  0
 14100  1  0  0  0
 15101  1  0  0  0
 16 17  2  0  0  0
 16 21  1  0  0  0
 16 31  1  0  0  0
 17 18  1  0  0  0
 17102  1  0  0  0
 18 19  2  0  0  0
 18103  1  0  0  0
 19 20  1  0  0  0
 19 24  1  0  0  0
 20 21  2  0  0  0
 20104  1  0  0  0
 21 23  1  0  0  0
 22 28  1  0  0  0
 22 32  2  0  0  0
 26 27  1  0  0  0
 28105  1  0  0  0
 28106  1  0  0  0
 29107  1  0  0  0
 29108  1  0  0  0
 33 34  1  0  0  0
 33 66  1  0  0  0
 33 70  2  0  0  0
 34 36  1  0  0  0
 34 59  1  0  0  0
 34109  1  0  0  0
 35 44  2  0  0  0
 35 45  1  0  0  0
 35 68  1  0  0  0
 36 56  1  0  0  0
 36110  1  0  0  0
 37 39  1  0  0  0
 37 47  1  0  0  0
 37 66  1  0  0  0
 37111  1  0  0  0
 38 43  2  0  0  0
 38 46  1  0  0  0
 38 47  1  0  0  0
 39 64  1  0  0  0
 39 67  2  0  0  0
 40 52  1  0  0  0
 40 53  2  0  0  0
 40 58  1  0  0  0
 41112  1  0  0  0
 41113  1  0  0  0
 41114  1  0  0  0
 41 48  1  0  0  0
 42 43  1  0  0  0
 42 66  1  0  0  0
 42115  1  0  0  0
 42116  1  0  0  0
 43 44  1  0  0  0
 44117  1  0  0  0
 45 46  2  0  0  0
 45118  1  0  0  0
 46119  1  0  0  0
 47120  1  0  0  0
 47121  1  0  0  0
 48 56  1  0  0  0
 48 65  1  0  0  0
 48122  1  0  0  0
 49 50  1  0  0  0
 49 53  1  0  0  0
 49 64  1  0  0  0
 49123  1  0  0  0
 50 51  1  0  0  0
 50124  1  0  0  0
 50125  1  0  0  0
 51 52  1  0  0  0
 51126  1  0  0  0
 51127  1  0  0  0
 52128  1  0  0  0
 52129  1  0  0  0
 53 54  1  0  0  0
 54 55  2  0  0  0
 54130  1  0  0  0
 55 57  1  0  0  0
 55131  1  0  0  0
 56 69  2  0  0  0
 57 58  2  0  0  0
 57132  1  0  0  0
 58133  1  0  0  0
 59 60  1  0  0  0
 59 61  1  0  0  0
 59 62  1  0  0  0
 60134  1  0  0  0
 60135  1  0  0  0
 60136  1  0  0  0
 61137  1  0  0  0
 61138  1  0  0  0
 61139  1  0  0  0
 62140  1  0  0  0
 62141  1  0  0  0
 62142  1  0  0  0
 63 65  1  0  0  0
 63143  1  0  0  0
 63144  1  0  0  0
 63145  1  0  0  0
 64146  1  0  0  0
 65147  1  0  0  0
 68 83  1  0  0  0
 71 72  2  0  0  0
 71 74  1  0  0  0
 71148  1  0  0  0
 72 76  1  0  0  0
 72149  1  0  0  0
 73 75  1  0  0  0
 73 76  2  0  0  0
 73150  1  0  0  0
 74 75  2  0  0  0
 74 84  1  0  0  0
 75 77  1  0  0  0
 76 88  1  0  0  0
 77151  1  0  0  0
 77152  1  0  0  0
 77153  1  0  0  0
 78154  1  0  0  0
 78155  1  0  0  0
 78156  1  0  0  0
 78 85  1  0  0  0
 79 81  1  0  0  0
 79 83  1  0  0  0
 79157  1  0  0  0
 79158  1  0  0  0
 80 85  1  0  0  0
 80 86  1  0  0  0
 80159  1  0  0  0
 80160  1  0  0  0
 81 87  1  0  0  0
 81161  1  0  0  0
 81162  1  0  0  0
 82 87  1  0  0  0
 82163  1  0  0  0
 82164  1  0  0  0
 82 84  1  0  0  0
 83165  1  0  0  0
 83166  1  0  0  0
 84 85  1  0  0  0
 84167  1  0  0  0
 85168  1  0  0  0
 86169  1  0  0  0
 87170  1  0  0  0
 87171  1  0  0  0
M  CHG  1  87   1
M  ISO  4   1 100  68 101  83 101  86 100
M  END
> <chiral flag>
0

> <version>
0

> <s_m_source_file>
/data/baiqing/PycharmProjects/Reinvent-master-3.2/result/LINK_invent/BTK/process_docking_weight1_custom_sum_contain_oxygen_bond_distance_aromatic_linkinvent_7_9_3/rearranged_h_0107.sdf

> <i_m_source_file_index>
43

> <r_mmod_Potential_Energy-OPLS-2005>
-213.207244873047

> <r_mmod_Stretch_Energy-OPLS-2005>
43.5050621032715

> <r_mmod_Bend_Energy-OPLS-2005>
97.6074447631836

> <r_mmod_Torsional_Energy-OPLS-2005>
244.379287719727

> <r_mmod_Improper_Torsional_Energy-OPLS-2005>
2.60519099235535

> <r_mmod_Van_der_Waal_Energy-OPLS-2005>
153.798889160156

> <r_mmod_Electrostatic_Energy-OPLS-2005>
-297.380340576172

> <r_mmod_Solvation_Energy-OPLS-2005>
-470.484252929688

> <b_mmod_Minimization_Converged-OPLS-2005>
0

> <r_mmod_RMS_Derivative-OPLS-2005>
2.31685662269592

$$$$
43
                    3D
 Structure written by MMmdl.
171179  0  0  1  0            999 V2000
  -30.6979  -14.4402   20.6477 C   0  0  0  0  0  0
  -30.4297  -12.3192   19.4052 C   0  0  0  0  0  0
  -29.4897  -12.5229   18.2033 C   0  0  0  0  0  0
  -28.0137  -12.3678   18.6203 C   0  0  0  0  0  0
  -27.6608  -13.2021   19.8820 C   0  0  2  0  0  0
  -28.6988  -12.9435   20.9939 C   0  0  0  0  0  0
  -25.2561  -13.8168   20.5682 C   0  0  0  0  0  0
  -24.1808  -13.0438   20.9140 C   0  0  0  0  0  0
  -24.6362  -11.6901   20.8717 C   0  0  0  0  0  0
  -23.9039  -10.4284   21.0397 C   0  0  0  0  0  0
  -24.3592   -9.4210   21.9190 C   0  0  0  0  0  0
  -23.6281   -8.2238   22.0750 C   0  0  0  0  0  0
  -22.4274   -8.0271   21.3542 C   0  0  0  0  0  0
  -21.9897   -9.0237   20.4647 C   0  0  0  0  0  0
  -22.7209  -10.2121   20.3060 C   0  0  0  0  0  0
  -21.6856   -6.0736   22.5274 C   0  0  0  0  0  0
  -21.4004   -6.5632   23.8210 C   0  0  0  0  0  0
  -21.3661   -5.6790   24.9169 C   0  0  0  0  0  0
  -21.6057   -4.3053   24.7228 C   0  0  0  0  0  0
  -21.8822   -3.8147   23.4344 C   0  0  0  0  0  0
  -21.9185   -4.6957   22.3404 C   0  0  0  0  0  0
  -22.7842  -13.5222   21.1835 C   0  0  0  0  0  0
  -22.1661   -4.2145   21.0978 F   0  0  0  0  0  0
  -21.5633   -3.4536   25.7738 F   0  0  0  0  0  0
  -30.0338  -13.2684   20.4579 N   0  0  0  0  0  0
  -26.2997  -12.9323   20.3409 N   0  0  0  0  0  0
  -25.9286  -11.6473   20.5768 N   0  0  0  0  0  0
  -22.0494  -12.8244   22.0395 N   0  0  0  0  0  0
  -25.4267  -15.1883   20.4145 N   0  0  0  0  0  0
  -31.7928  -14.6837   20.1310 O   0  0  0  0  0  0
  -21.6640   -6.8871   21.4244 O   0  0  0  0  0  0
  -22.3530  -14.5549   20.6707 O   0  0  0  0  0  0
  -24.6137  -31.8705   23.2100 C   0  0  0  0  0  0
  -25.9044  -32.4826   23.8409 C   0  0  1  0  0  0
  -27.2325  -27.4463   20.0995 C   0  0  0  0  0  0
  -25.5869  -33.8618   24.2317 N   0  0  0  0  0  0
  -23.4024  -30.4935   21.5486 C   0  0  2  0  0  0
  -24.8488  -28.9552   20.1261 C   0  0  0  0  0  0
  -22.7404  -29.4681   22.4970 C   0  0  0  0  0  0
  -18.0349  -28.1401   22.8520 C   0  0  0  0  0  0
  -24.1497  -36.7323   23.2635 C   0  0  0  0  0  0
  -25.9311  -30.8398   21.3635 C   0  0  0  0  0  0
  -26.0085  -29.4690   20.7200 C   0  0  0  0  0  0
  -27.2056  -28.7215   20.7052 C   0  0  0  0  0  0
  -26.0619  -26.9470   19.4935 C   0  0  0  0  0  0
  -24.8667  -27.6909   19.5114 C   0  0  0  0  0  0
  -23.6145  -29.8233   20.1665 C   0  0  0  0  0  0
  -25.4110  -36.3088   24.0329 C   0  0  1  0  0  0
  -20.5903  -28.3711   23.1410 C   0  0  2  0  0  0
  -20.6751  -26.9404   22.5674 C   0  0  0  0  0  0
  -19.5896  -26.6427   21.5277 C   0  0  0  0  0  0
  -18.2041  -26.7995   22.1591 C   0  0  0  0  0  0
  -19.1560  -28.8884   23.2946 C   0  0  0  0  0  0
  -18.9455  -30.1498   23.8933 C   0  0  0  0  0  0
  -17.6448  -30.6635   24.0551 C   0  0  0  0  0  0
  -25.9024  -34.9455   23.5109 C   0  0  0  0  0  0
  -16.5367  -29.9078   23.6344 C   0  0  0  0  0  0
  -16.7321  -28.6478   23.0401 C   0  0  0  0  0  0
  -26.4460  -31.6602   25.0737 C   0  0  0  0  0  0
  -25.3753  -31.3704   26.1499 C   0  0  0  0  0  0
  -27.0291  -30.3042   24.6123 C   0  0  0  0  0  0
  -27.6037  -32.4334   25.7497 C   0  0  0  0  0  0
  -27.5571  -37.1804   24.8457 C   0  0  0  0  0  0
  -21.4146  -29.3006   22.3717 N   0  0  0  0  0  0
  -26.4290  -37.3765   23.9394 N   0  0  0  0  0  0
  -24.6665  -31.0821   22.0999 N   0  0  0  0  0  0
  -23.4157  -28.8256   23.3056 O   0  0  0  0  0  0
  -28.3983  -26.7205   20.0472 O   0  0  0  0  0  0
  -26.5607  -34.8914   22.4679 O   0  0  0  0  0  0
  -23.5316  -32.1439   23.7490 O   0  0  0  0  0  0
  -29.3829  -18.9397   20.8790 C   0  0  0  0  0  0
  -29.3064  -17.7489   21.5517 C   0  0  0  0  0  0
  -27.9828  -17.7220   22.0862 C   0  0  0  0  0  0
  -27.2537  -18.7841   21.6032 C   0  0  0  0  0  0
  -25.7929  -19.1325   21.7063 C   0  0  0  0  0  0
  -26.9066  -18.0143   24.9693 C   0  0  0  0  0  0
  -26.1334  -15.6388   24.6426 C   0  0  0  0  0  0
  -30.4339  -16.7277   21.6924 C   0  0  0  0  0  0
  -27.8941  -20.8753   20.2483 C   0  0  0  0  0  0
  -27.3385  -21.9730   21.1941 C   0  0  0  0  0  0
  -27.9840  -24.2873   20.4223 C   0  0  0  0  0  0
  -28.4965  -25.6371   20.9830 C   0  0  0  0  0  0
  -26.4970  -16.9497   23.9398 C   0  0  0  0  0  0
  -28.1578  -19.5909   20.9116 N   0  0  0  0  0  0
  -27.5369  -16.7024   22.9438 N   0  0  0  0  0  0
  -30.0320  -15.3522   21.3770 N   0  0  0  0  0  0
  -28.2186  -23.1568   21.3609 N   0  3  0  0  0  0
  -31.4648  -12.4531   19.0908 H   0  0  0  0  0  0
  -30.3623  -11.2966   19.7783 H   0  0  0  0  0  0
  -29.7362  -11.8097   17.4156 H   0  0  0  0  0  0
  -29.6453  -13.5180   17.7850 H   0  0  0  0  0  0
  -27.8319  -11.3099   18.8158 H   0  0  0  0  0  0
  -27.3569  -12.6356   17.7928 H   0  0  0  0  0  0
  -27.7160  -14.2550   19.6043 H   0  0  0  0  0  0
  -28.6729  -11.8939   21.2885 H   0  0  0  0  0  0
  -28.4478  -13.4958   21.8992 H   0  0  0  0  0  0
  -25.2732   -9.5711   22.4761 H   0  0  0  0  0  0
  -24.0002   -7.4649   22.7475 H   0  0  0  0  0  0
  -21.0831   -8.8766   19.8961 H   0  0  0  0  0  0
  -22.3673  -10.9665   19.6173 H   0  0  0  0  0  0
  -21.1992   -7.6136   23.9712 H   0  0  0  0  0  0
  -21.1492   -6.0515   25.9075 H   0  0  0  0  0  0
  -22.0600   -2.7605   23.2848 H   0  0  0  0  0  0
  -22.4093  -11.9890   22.4788 H   0  0  0  0  0  0
  -21.1114  -13.1305   22.2581 H   0  0  0  0  0  0
  -24.6800  -15.8387   20.6244 H   0  0  0  0  0  0
  -26.3311  -15.6398   20.3464 H   0  0  0  0  0  0
  -26.7159  -32.5538   23.1211 H   0  0  0  0  0  0
  -25.0006  -33.9829   25.0448 H   0  0  0  0  0  0
  -22.6941  -31.3130   21.4038 H   0  0  0  0  0  0
  -23.3725  -35.9683   23.3312 H   0  0  0  0  0  0
  -24.3578  -36.8943   22.2042 H   0  0  0  0  0  0
  -23.7316  -37.6558   23.6658 H   0  0  0  0  0  0
  -26.0401  -31.6055   20.5943 H   0  0  0  0  0  0
  -26.8160  -30.8947   21.9859 H   0  0  0  0  0  0
  -28.1066  -29.1204   21.1514 H   0  0  0  0  0  0
  -26.0738  -25.9947   18.9882 H   0  0  0  0  0  0
  -23.9802  -27.2945   19.0334 H   0  0  0  0  0  0
  -23.7267  -30.5962   19.4033 H   0  0  0  0  0  0
  -22.7428  -29.2378   19.8681 H   0  0  0  0  0  0
  -25.1291  -36.1937   25.0824 H   0  0  0  0  0  0
  -20.9997  -28.3298   24.1527 H   0  0  0  0  0  0
  -20.5190  -26.2473   23.3964 H   0  0  0  0  0  0
  -21.6715  -26.7157   22.1838 H   0  0  0  0  0  0
  -19.7060  -25.6330   21.1335 H   0  0  0  0  0  0
  -19.6974  -27.3265   20.6831 H   0  0  0  0  0  0
  -17.4386  -26.6757   21.3909 H   0  0  0  0  0  0
  -18.0317  -26.0104   22.8930 H   0  0  0  0  0  0
  -19.7925  -30.7316   24.2253 H   0  0  0  0  0  0
  -17.5000  -31.6383   24.5030 H   0  0  0  0  0  0
  -15.5351  -30.2997   23.7583 H   0  0  0  0  0  0
  -15.8746  -28.0797   22.7070 H   0  0  0  0  0  0
  -24.5921  -30.7054   25.7835 H   0  0  0  0  0  0
  -24.8937  -32.2858   26.4943 H   0  0  0  0  0  0
  -25.8105  -30.8871   27.0265 H   0  0  0  0  0  0
  -26.2835  -29.6821   24.1159 H   0  0  0  0  0  0
  -27.4053  -29.7242   25.4563 H   0  0  0  0  0  0
  -27.8665  -30.4356   23.9275 H   0  0  0  0  0  0
  -27.2648  -33.3629   26.2094 H   0  0  0  0  0  0
  -28.3812  -32.6939   25.0301 H   0  0  0  0  0  0
  -28.0756  -31.8474   26.5402 H   0  0  0  0  0  0
  -28.2576  -38.0107   24.7447 H   0  0  0  0  0  0
  -28.1088  -36.2625   24.6334 H   0  0  0  0  0  0
  -27.2283  -37.1501   25.8864 H   0  0  0  0  0  0
  -20.9184  -29.8753   21.7056 H   0  0  0  0  0  0
  -26.0176  -38.2843   24.1379 H   0  0  0  0  0  0
  -30.2150  -19.3825   20.3500 H   0  0  0  0  0  0
  -25.1727  -18.2463   21.5754 H   0  0  0  0  0  0
  -25.4672  -19.8305   20.9362 H   0  0  0  0  0  0
  -25.5545  -19.5713   22.6746 H   0  0  0  0  0  0
  -26.1026  -18.1796   25.6898 H   0  0  0  0  0  0
  -27.1210  -18.9772   24.5027 H   0  0  0  0  0  0
  -27.7907  -17.7106   25.5313 H   0  0  0  0  0  0
  -25.3208  -15.7984   25.3516 H   0  0  0  0  0  0
  -26.9755  -15.2200   25.1947 H   0  0  0  0  0  0
  -25.7942  -14.8887   23.9287 H   0  0  0  0  0  0
  -30.7954  -16.7516   22.7206 H   0  0  0  0  0  0
  -31.2716  -17.0349   21.0658 H   0  0  0  0  0  0
  -28.8077  -21.2078   19.7547 H   0  0  0  0  0  0
  -27.1830  -20.6929   19.4428 H   0  0  0  0  0  0
  -27.1923  -21.5545   22.1885 H   0  0  0  0  0  0
  -26.3442  -22.2838   20.8707 H   0  0  0  0  0  0
  -28.4753  -24.0616   19.4755 H   0  0  0  0  0  0
  -26.9183  -24.3653   20.2168 H   0  0  0  0  0  0
  -29.5520  -25.5432   21.2447 H   0  0  0  0  0  0
  -27.9783  -25.8816   21.9132 H   0  0  0  0  0  0
  -25.5906  -17.2806   23.4400 H   0  0  0  0  0  0
  -28.2495  -16.0469   23.2398 H   0  0  0  0  0  0
  -29.1226  -15.0686   21.7016 H   0  0  0  0  0  0
  -28.0459  -23.4943   22.2951 H   0  0  0  0  0  0
  -29.1832  -22.8636   21.3367 H   0  0  0  0  0  0
  1 25  1  0  0  0
  1 30  2  0  0  0
  1 86  1  0  0  0
  2  3  1  0  0  0
  2 25  1  0  0  0
  2 88  1  0  0  0
  2 89  1  0  0  0
  3  4  1  0  0  0
  3 90  1  0  0  0
  3 91  1  0  0  0
  4  5  1  0  0  0
  4 92  1  0  0  0
  4 93  1  0  0  0
  5  6  1  0  0  0
  5 26  1  0  0  0
  5 94  1  0  0  0
  6 25  1  0  0  0
  6 95  1  0  0  0
  6 96  1  0  0  0
  7  8  2  0  0  0
  7 26  1  0  0  0
  7 29  1  0  0  0
  8  9  1  0  0  0
  8 22  1  0  0  0
  9 10  1  0  0  0
  9 27  2  0  0  0
 10 11  2  0  0  0
 10 15  1  0  0  0
 11 12  1  0  0  0
 11 97  1  0  0  0
 12 13  2  0  0  0
 12 98  1  0  0  0
 13 14  1  0  0  0
 13 31  1  0  0  0
 14 15  2  0  0  0
 14 99  1  0  0  0
 15100  1  0  0  0
 16 17  2  0  0  0
 16 21  1  0  0  0
 16 31  1  0  0  0
 17 18  1  0  0  0
 17101  1  0  0  0
 18 19  2  0  0  0
 18102  1  0  0  0
 19 20  1  0  0  0
 19 24  1  0  0  0
 20 21  2  0  0  0
 20103  1  0  0  0
 21 23  1  0  0  0
 22 28  1  0  0  0
 22 32  2  0  0  0
 26 27  1  0  0  0
 28104  1  0  0  0
 28105  1  0  0  0
 29106  1  0  0  0
 29107  1  0  0  0
 33 34  1  0  0  0
 33 66  1  0  0  0
 33 70  2  0  0  0
 34 36  1  0  0  0
 34 59  1  0  0  0
 34108  1  0  0  0
 35 44  2  0  0  0
 35 45  1  0  0  0
 35 68  1  0  0  0
 36 56  1  0  0  0
 36109  1  0  0  0
 37 39  1  0  0  0
 37 47  1  0  0  0
 37 66  1  0  0  0
 37110  1  0  0  0
 38 43  2  0  0  0
 38 46  1  0  0  0
 38 47  1  0  0  0
 39 64  1  0  0  0
 39 67  2  0  0  0
 40 52  1  0  0  0
 40 53  2  0  0  0
 40 58  1  0  0  0
 41111  1  0  0  0
 41112  1  0  0  0
 41113  1  0  0  0
 41 48  1  0  0  0
 42 43  1  0  0  0
 42 66  1  0  0  0
 42114  1  0  0  0
 42115  1  0  0  0
 43 44  1  0  0  0
 44116  1  0  0  0
 45 46  2  0  0  0
 45117  1  0  0  0
 46118  1  0  0  0
 47119  1  0  0  0
 47120  1  0  0  0
 48 56  1  0  0  0
 48 65  1  0  0  0
 48121  1  0  0  0
 49 50  1  0  0  0
 49 53  1  0  0  0
 49 64  1  0  0  0
 49122  1  0  0  0
 50 51  1  0  0  0
 50123  1  0  0  0
 50124  1  0  0  0
 51 52  1  0  0  0
 51125  1  0  0  0
 51126  1  0  0  0
 52127  1  0  0  0
 52128  1  0  0  0
 53 54  1  0  0  0
 54 55  2  0  0  0
 54129  1  0  0  0
 55 57  1  0  0  0
 55130  1  0  0  0
 56 69  2  0  0  0
 57 58  2  0  0  0
 57131  1  0  0  0
 58132  1  0  0  0
 59 60  1  0  0  0
 59 61  1  0  0  0
 59 62  1  0  0  0
 60133  1  0  0  0
 60134  1  0  0  0
 60135  1  0  0  0
 61136  1  0  0  0
 61137  1  0  0  0
 61138  1  0  0  0
 62139  1  0  0  0
 62140  1  0  0  0
 62141  1  0  0  0
 63 65  1  0  0  0
 63142  1  0  0  0
 63143  1  0  0  0
 63144  1  0  0  0
 64145  1  0  0  0
 65146  1  0  0  0
 68 82  1  0  0  0
 71 72  2  0  0  0
 71 84  1  0  0  0
 71147  1  0  0  0
 72 73  1  0  0  0
 72 78  1  0  0  0
 73 74  2  0  0  0
 73 85  1  0  0  0
 74 75  1  0  0  0
 74 84  1  0  0  0
 75148  1  0  0  0
 75149  1  0  0  0
 75150  1  0  0  0
 76151  1  0  0  0
 76152  1  0  0  0
 76153  1  0  0  0
 76 83  1  0  0  0
 77 83  1  0  0  0
 77154  1  0  0  0
 77155  1  0  0  0
 77156  1  0  0  0
 78 86  1  0  0  0
 78157  1  0  0  0
 78158  1  0  0  0
 79 80  1  0  0  0
 79 84  1  0  0  0
 79159  1  0  0  0
 79160  1  0  0  0
 80 87  1  0  0  0
 80161  1  0  0  0
 80162  1  0  0  0
 81 82  1  0  0  0
 81 87  1  0  0  0
 81163  1  0  0  0
 81164  1  0  0  0
 82165  1  0  0  0
 82166  1  0  0  0
 83 85  1  0  0  0
 83167  1  0  0  0
 85168  1  0  0  0
 86169  1  0  0  0
 87170  1  0  0  0
 87171  1  0  0  0
M  CHG  1  87   1
M  ISO  4   1 100  68 101  82 101  86 100
M  END
> <chiral flag>
0

> <version>
0

> <s_m_source_file>
/data/baiqing/PycharmProjects/Reinvent-master-3.2/result/LINK_invent/BTK/process_docking_weight1_custom_sum_contain_oxygen_bond_distance_aromatic_linkinvent_7_9_3/rearranged_h_0107.sdf

> <i_m_source_file_index>
44

> <r_mmod_Potential_Energy-OPLS-2005>
-306.023803710938

> <r_mmod_Stretch_Energy-OPLS-2005>
35.2112884521484

> <r_mmod_Bend_Energy-OPLS-2005>
110.836380004883

> <r_mmod_Torsional_Energy-OPLS-2005>
255.641906738281

> <r_mmod_Improper_Torsional_Energy-OPLS-2005>
6.01955699920654

> <r_mmod_Van_der_Waal_Energy-OPLS-2005>
117.164344787598

> <r_mmod_Electrostatic_Energy-OPLS-2005>
-374.962005615234

> <r_mmod_Solvation_Energy-OPLS-2005>
-465.669830322266

> <b_mmod_Minimization_Converged-OPLS-2005>
0

> <r_mmod_RMS_Derivative-OPLS-2005>
4.76785039901733

$$$$
44
                    3D
 Structure written by MMmdl.
176185  0  0  1  0            999 V2000
  -30.6666  -14.4929   20.5800 C   0  0  0  0  0  0
  -30.4313  -12.3245   19.4136 C   0  0  0  0  0  0
  -29.4926  -12.5064   18.2017 C   0  0  0  0  0  0
  -28.0141  -12.3602   18.6167 C   0  0  0  0  0  0
  -27.6592  -13.2006   19.8717 C   0  0  2  0  0  0
  -28.7014  -12.9732   20.9884 C   0  0  0  0  0  0
  -25.2586  -13.8148   20.5668 C   0  0  0  0  0  0
  -24.1832  -13.0436   20.9179 C   0  0  0  0  0  0
  -24.6375  -11.6902   20.8737 C   0  0  0  0  0  0
  -23.9046  -10.4289   21.0406 C   0  0  0  0  0  0
  -24.3603   -9.4205   21.9184 C   0  0  0  0  0  0
  -23.6283   -8.2237   22.0752 C   0  0  0  0  0  0
  -22.4269   -8.0274   21.3538 C   0  0  0  0  0  0
  -21.9899   -9.0249   20.4643 C   0  0  0  0  0  0
  -22.7223  -10.2131   20.3055 C   0  0  0  0  0  0
  -21.6849   -6.0733   22.5279 C   0  0  0  0  0  0
  -21.4010   -6.5637   23.8213 C   0  0  0  0  0  0
  -21.3659   -5.6789   24.9175 C   0  0  0  0  0  0
  -21.6044   -4.3052   24.7225 C   0  0  0  0  0  0
  -21.8820   -3.8145   23.4346 C   0  0  0  0  0  0
  -21.9191   -4.6961   22.3401 C   0  0  0  0  0  0
  -22.7858  -13.5238   21.1848 C   0  0  0  0  0  0
  -22.1660   -4.2146   21.0979 F   0  0  0  0  0  0
  -21.5630   -3.4538   25.7739 F   0  0  0  0  0  0
  -30.0267  -13.3005   20.4368 N   0  0  0  0  0  0
  -26.3004  -12.9296   20.3350 N   0  0  0  0  0  0
  -25.9295  -11.6466   20.5762 N   0  0  0  0  0  0
  -22.0500  -12.8229   22.0402 N   0  0  0  0  0  0
  -25.4338  -15.1860   20.4070 N   0  0  0  0  0  0
  -31.8159  -14.6875   20.1736 O   0  0  0  0  0  0
  -21.6631   -6.8876   21.4241 O   0  0  0  0  0  0
  -22.3547  -14.5546   20.6700 O   0  0  0  0  0  0
  -24.6157  -31.8680   23.2097 C   0  0  0  0  0  0
  -25.9047  -32.4815   23.8402 C   0  0  1  0  0  0
  -27.2280  -27.4115   20.1121 C   0  0  0  0  0  0
  -25.5908  -33.8616   24.2331 N   0  0  0  0  0  0
  -23.4036  -30.4904   21.5523 C   0  0  2  0  0  0
  -24.8482  -28.9477   20.1247 C   0  0  0  0  0  0
  -22.7418  -29.4651   22.5016 C   0  0  0  0  0  0
  -18.0270  -28.1363   22.8495 C   0  0  0  0  0  0
  -24.1496  -36.7307   23.2644 C   0  0  0  0  0  0
  -25.9341  -30.8259   21.3668 C   0  0  0  0  0  0
  -26.0088  -29.4551   20.7218 C   0  0  0  0  0  0
  -27.2043  -28.6951   20.7096 C   0  0  0  0  0  0
  -26.0508  -26.9245   19.5065 C   0  0  0  0  0  0
  -24.8632  -27.6811   19.5159 C   0  0  0  0  0  0
  -23.6124  -29.8190   20.1690 C   0  0  0  0  0  0
  -25.4118  -36.3110   24.0339 C   0  0  1  0  0  0
  -20.5859  -28.3638   23.1323 C   0  0  2  0  0  0
  -20.6762  -26.9381   22.5416 C   0  0  0  0  0  0
  -19.5741  -26.6376   21.5211 C   0  0  0  0  0  0
  -18.1913  -26.7908   22.1622 C   0  0  0  0  0  0
  -19.1520  -28.8824   23.2897 C   0  0  0  0  0  0
  -18.9457  -30.1436   23.8889 C   0  0  0  0  0  0
  -17.6456  -30.6568   24.0562 C   0  0  0  0  0  0
  -25.9046  -34.9471   23.5141 C   0  0  0  0  0  0
  -16.5343  -29.9063   23.6334 C   0  0  0  0  0  0
  -16.7261  -28.6489   23.0341 C   0  0  0  0  0  0
  -26.4468  -31.6597   25.0730 C   0  0  0  0  0  0
  -25.3737  -31.3675   26.1482 C   0  0  0  0  0  0
  -27.0315  -30.3052   24.6097 C   0  0  0  0  0  0
  -27.6057  -32.4320   25.7480 C   0  0  0  0  0  0
  -27.5591  -37.1810   24.8468 C   0  0  0  0  0  0
  -21.4145  -29.3010   22.3738 N   0  0  0  0  0  0
  -26.4310  -37.3793   23.9395 N   0  0  0  0  0  0
  -24.6698  -31.0768   22.1006 N   0  0  0  0  0  0
  -23.4188  -28.8189   23.3057 O   0  0  0  0  0  0
  -28.4048  -26.6986   20.0116 O   0  0  0  0  0  0
  -26.5606  -34.8924   22.4700 O   0  0  0  0  0  0
  -23.5347  -32.1430   23.7494 O   0  0  0  0  0  0
  -30.5660  -17.4211   18.7639 C   0  0  0  0  0  0
  -29.9907  -19.5621   18.6550 C   0  0  0  0  0  0
  -30.4619  -18.5349   17.8923 C   0  0  0  0  0  0
  -30.1778  -17.7822   20.0269 C   0  0  0  0  0  0
  -27.7668  -20.4756   20.6357 C   0  0  0  0  0  0
  -27.6736  -21.8049   19.8356 C   0  0  0  0  0  0
  -29.2788  -22.5462   21.5837 C   0  0  0  0  0  0
  -30.0973  -21.2370   21.3492 C   0  0  2  0  0  0
  -29.1979  -20.0085   21.0024 C   0  0  2  0  0  0
  -31.0144  -20.9327   22.5469 C   0  0  0  0  0  0
  -31.8445  -19.6613   16.1220 C   0  0  0  0  0  0
  -29.5438  -18.7405   15.5678 C   0  0  0  0  0  0
  -30.2078  -16.9142   21.2726 C   0  0  0  0  0  0
  -27.7883  -24.2410   20.3672 C   0  0  0  0  0  0
  -28.5842  -25.5087   20.8093 C   0  0  0  0  0  0
  -30.8065  -18.5714   16.4232 C   0  0  0  0  0  0
  -29.7737  -19.1318   19.9570 N   0  0  0  0  0  0
  -29.8906  -15.4898   21.0551 N   0  0  0  0  0  0
  -28.5231  -22.9249   20.3555 N   0  3  2  0  0  0
  -31.4711  -12.4511   19.1067 H   0  0  0  0  0  0
  -30.3578  -11.3112   19.8108 H   0  0  0  0  0  0
  -29.7346  -11.7802   17.4243 H   0  0  0  0  0  0
  -29.6507  -13.4915   17.7599 H   0  0  0  0  0  0
  -27.8282  -11.3045   18.8163 H   0  0  0  0  0  0
  -27.3604  -12.6312   17.7868 H   0  0  0  0  0  0
  -27.7045  -14.2483   19.5732 H   0  0  0  0  0  0
  -28.6880  -11.9308   21.3102 H   0  0  0  0  0  0
  -28.4617  -13.5540   21.8801 H   0  0  0  0  0  0
  -25.2751   -9.5678   22.4757 H   0  0  0  0  0  0
  -23.9996   -7.4625   22.7466 H   0  0  0  0  0  0
  -21.0835   -8.8761   19.8945 H   0  0  0  0  0  0
  -22.3682  -10.9667   19.6160 H   0  0  0  0  0  0
  -21.2002   -7.6146   23.9714 H   0  0  0  0  0  0
  -21.1480   -6.0521   25.9077 H   0  0  0  0  0  0
  -22.0602   -2.7609   23.2846 H   0  0  0  0  0  0
  -22.4110  -11.9880   22.4769 H   0  0  0  0  0  0
  -21.1124  -13.1255   22.2623 H   0  0  0  0  0  0
  -24.6705  -15.8455   20.5125 H   0  0  0  0  0  0
  -26.2834  -15.6180   20.0652 H   0  0  0  0  0  0
  -26.7108  -32.5520   23.1161 H   0  0  0  0  0  0
  -25.0066  -33.9778   25.0483 H   0  0  0  0  0  0
  -22.6919  -31.3061   21.4130 H   0  0  0  0  0  0
  -23.3760  -35.9642   23.3319 H   0  0  0  0  0  0
  -24.3595  -36.8905   22.2058 H   0  0  0  0  0  0
  -23.7239  -37.6515   23.6643 H   0  0  0  0  0  0
  -26.0501  -31.5891   20.5964 H   0  0  0  0  0  0
  -26.8214  -30.8799   21.9853 H   0  0  0  0  0  0
  -28.1075  -29.0956   21.1508 H   0  0  0  0  0  0
  -26.0416  -25.9745   18.9964 H   0  0  0  0  0  0
  -23.9719  -27.2873   19.0456 H   0  0  0  0  0  0
  -23.7177  -30.5912   19.4055 H   0  0  0  0  0  0
  -22.7350  -29.2375   19.8788 H   0  0  0  0  0  0
  -25.1295  -36.1999   25.0830 H   0  0  0  0  0  0
  -20.9942  -28.3195   24.1444 H   0  0  0  0  0  0
  -20.5682  -26.2234   23.3593 H   0  0  0  0  0  0
  -21.6629  -26.7429   22.1200 H   0  0  0  0  0  0
  -19.6898  -25.6294   21.1219 H   0  0  0  0  0  0
  -19.6685  -27.3205   20.6756 H   0  0  0  0  0  0
  -17.4192  -26.6664   21.4011 H   0  0  0  0  0  0
  -18.0302  -26.0052   22.9019 H   0  0  0  0  0  0
  -19.7942  -30.7252   24.2244 H   0  0  0  0  0  0
  -17.5018  -31.6259   24.5154 H   0  0  0  0  0  0
  -15.5343  -30.2954   23.7682 H   0  0  0  0  0  0
  -15.8662  -28.0816   22.7029 H   0  0  0  0  0  0
  -24.5921  -30.7006   25.7816 H   0  0  0  0  0  0
  -24.8912  -32.2814   26.4967 H   0  0  0  0  0  0
  -25.8123  -30.8833   27.0222 H   0  0  0  0  0  0
  -26.2858  -29.6779   24.1197 H   0  0  0  0  0  0
  -27.4136  -29.7318   25.4556 H   0  0  0  0  0  0
  -27.8672  -30.4376   23.9218 H   0  0  0  0  0  0
  -27.2688  -33.3619   26.2067 H   0  0  0  0  0  0
  -28.3849  -32.6861   25.0285 H   0  0  0  0  0  0
  -28.0719  -31.8423   26.5380 H   0  0  0  0  0  0
  -28.2615  -38.0106   24.7533 H   0  0  0  0  0  0
  -28.1085  -36.2640   24.6290 H   0  0  0  0  0  0
  -27.2303  -37.1448   25.8872 H   0  0  0  0  0  0
  -20.9305  -29.8758   21.6979 H   0  0  0  0  0  0
  -26.0210  -38.2877   24.1398 H   0  0  0  0  0  0
  -30.9214  -16.4394   18.4854 H   0  0  0  0  0  0
  -29.7891  -20.5804   18.3619 H   0  0  0  0  0  0
  -27.2401  -19.6822   20.1035 H   0  0  0  0  0  0
  -27.2069  -20.6061   21.5619 H   0  0  0  0  0  0
  -26.6244  -22.1041   19.8226 H   0  0  0  0  0  0
  -27.9283  -21.6383   18.7905 H   0  0  0  0  0  0
  -29.9656  -23.3464   21.8570 H   0  0  0  0  0  0
  -28.5928  -22.4344   22.4246 H   0  0  0  0  0  0
  -30.7576  -21.4305   20.5032 H   0  0  0  0  0  0
  -29.0831  -19.4068   21.9032 H   0  0  0  0  0  0
  -30.4403  -20.8226   23.4670 H   0  0  0  0  0  0
  -31.7402  -21.7314   22.7051 H   0  0  0  0  0  0
  -31.5704  -20.0080   22.3921 H   0  0  0  0  0  0
  -32.7580  -19.5000   16.6954 H   0  0  0  0  0  0
  -31.4663  -20.6533   16.3692 H   0  0  0  0  0  0
  -32.1176  -19.6664   15.0660 H   0  0  0  0  0  0
  -28.8310  -17.9383   15.7616 H   0  0  0  0  0  0
  -29.7839  -18.7172   14.5040 H   0  0  0  0  0  0
  -29.0421  -19.6866   15.7745 H   0  0  0  0  0  0
  -29.5003  -17.2804   22.0145 H   0  0  0  0  0  0
  -31.1921  -16.9859   21.7377 H   0  0  0  0  0  0
  -27.4616  -24.3913   19.3395 H   0  0  0  0  0  0
  -26.8824  -24.1654   20.9716 H   0  0  0  0  0  0
  -29.6524  -25.3045   20.7448 H   0  0  0  0  0  0
  -28.3888  -25.7333   21.8586 H   0  0  0  0  0  0
  -31.2544  -17.6078   16.1740 H   0  0  0  0  0  0
  -28.9547  -15.2134   21.3079 H   0  0  0  0  0  0
  -29.2400  -23.0439   19.6531 H   0  0  0  0  0  0
  1 25  1  0  0  0
  1 30  2  0  0  0
  1 88  1  0  0  0
  2  3  1  0  0  0
  2 25  1  0  0  0
  2 90  1  0  0  0
  2 91  1  0  0  0
  3  4  1  0  0  0
  3 92  1  0  0  0
  3 93  1  0  0  0
  4  5  1  0  0  0
  4 94  1  0  0  0
  4 95  1  0  0  0
  5  6  1  0  0  0
  5 26  1  0  0  0
  5 96  1  0  0  0
  6 25  1  0  0  0
  6 97  1  0  0  0
  6 98  1  0  0  0
  7  8  2  0  0  0
  7 26  1  0  0  0
  7 29  1  0  0  0
  8  9  1  0  0  0
  8 22  1  0  0  0
  9 10  1  0  0  0
  9 27  2  0  0  0
 10 11  2  0  0  0
 10 15  1  0  0  0
 11 12  1  0  0  0
 11 99  1  0  0  0
 12 13  2  0  0  0
 12100  1  0  0  0
 13 14  1  0  0  0
 13 31  1  0  0  0
 14 15  2  0  0  0
 14101  1  0  0  0
 15102  1  0  0  0
 16 17  2  0  0  0
 16 21  1  0  0  0
 16 31  1  0  0  0
 17 18  1  0  0  0
 17103  1  0  0  0
 18 19  2  0  0  0
 18104  1  0  0  0
 19 20  1  0  0  0
 19 24  1  0  0  0
 20 21  2  0  0  0
 20105  1  0  0  0
 21 23  1  0  0  0
 22 28  1  0  0  0
 22 32  2  0  0  0
 26 27  1  0  0  0
 28106  1  0  0  0
 28107  1  0  0  0
 29108  1  0  0  0
 29109  1  0  0  0
 33 34  1  0  0  0
 33 66  1  0  0  0
 33 70  2  0  0  0
 34 36  1  0  0  0
 34 59  1  0  0  0
 34110  1  0  0  0
 35 44  2  0  0  0
 35 45  1  0  0  0
 35 68  1  0  0  0
 36 56  1  0  0  0
 36111  1  0  0  0
 37 39  1  0  0  0
 37 47  1  0  0  0
 37 66  1  0  0  0
 37112  1  0  0  0
 38 43  2  0  0  0
 38 46  1  0  0  0
 38 47  1  0  0  0
 39 64  1  0  0  0
 39 67  2  0  0  0
 40 52  1  0  0  0
 40 53  2  0  0  0
 40 58  1  0  0  0
 41113  1  0  0  0
 41114  1  0  0  0
 41115  1  0  0  0
 41 48  1  0  0  0
 42 43  1  0  0  0
 42 66  1  0  0  0
 42116  1  0  0  0
 42117  1  0  0  0
 43 44  1  0  0  0
 44118  1  0  0  0
 45 46  2  0  0  0
 45119  1  0  0  0
 46120  1  0  0  0
 47121  1  0  0  0
 47122  1  0  0  0
 48 56  1  0  0  0
 48 65  1  0  0  0
 48123  1  0  0  0
 49 50  1  0  0  0
 49 53  1  0  0  0
 49 64  1  0  0  0
 49124  1  0  0  0
 50 51  1  0  0  0
 50125  1  0  0  0
 50126  1  0  0  0
 51 52  1  0  0  0
 51127  1  0  0  0
 51128  1  0  0  0
 52129  1  0  0  0
 52130  1  0  0  0
 53 54  1  0  0  0
 54 55  2  0  0  0
 54131  1  0  0  0
 55 57  1  0  0  0
 55132  1  0  0  0
 56 69  2  0  0  0
 57 58  2  0  0  0
 57133  1  0  0  0
 58134  1  0  0  0
 59 60  1  0  0  0
 59 61  1  0  0  0
 59 62  1  0  0  0
 60135  1  0  0  0
 60136  1  0  0  0
 60137  1  0  0  0
 61138  1  0  0  0
 61139  1  0  0  0
 61140  1  0  0  0
 62141  1  0  0  0
 62142  1  0  0  0
 62143  1  0  0  0
 63 65  1  0  0  0
 63144  1  0  0  0
 63145  1  0  0  0
 63146  1  0  0  0
 64147  1  0  0  0
 65148  1  0  0  0
 68 85  1  0  0  0
 71 73  1  0  0  0
 71 74  2  0  0  0
 71149  1  0  0  0
 72 73  2  0  0  0
 72 87  1  0  0  0
 72150  1  0  0  0
 73 86  1  0  0  0
 74 83  1  0  0  0
 74 87  1  0  0  0
 75 76  1  0  0  0
 75 79  1  0  0  0
 75151  1  0  0  0
 75152  1  0  0  0
 76 89  1  0  0  0
 76153  1  0  0  0
 76154  1  0  0  0
 77 78  1  0  0  0
 77 89  1  0  0  0
 77155  1  0  0  0
 77156  1  0  0  0
 78 79  1  0  0  0
 78 80  1  0  0  0
 78157  1  0  0  0
 79 87  1  0  0  0
 79158  1  0  0  0
 80159  1  0  0  0
 80160  1  0  0  0
 80161  1  0  0  0
 81162  1  0  0  0
 81163  1  0  0  0
 81164  1  0  0  0
 81 86  1  0  0  0
 82 86  1  0  0  0
 82165  1  0  0  0
 82166  1  0  0  0
 82167  1  0  0  0
 83 88  1  0  0  0
 83168  1  0  0  0
 83169  1  0  0  0
 84 85  1  0  0  0
 84170  1  0  0  0
 84171  1  0  0  0
 84 89  1  0  0  0
 85172  1  0  0  0
 85173  1  0  0  0
 86174  1  0  0  0
 88175  1  0  0  0
 89176  1  0  0  0
M  CHG  1  89   1
M  ISO  4   1 100  68 101  85 101  88 100
M  END
> <chiral flag>
0

> <version>
0

> <s_m_source_file>
/data/baiqing/PycharmProjects/Reinvent-master-3.2/result/LINK_invent/BTK/process_docking_weight1_custom_sum_contain_oxygen_bond_distance_aromatic_linkinvent_7_9_3/rearranged_h_0107.sdf

> <i_m_source_file_index>
45

> <r_mmod_Potential_Energy-OPLS-2005>
-128.521850585938

> <r_mmod_Stretch_Energy-OPLS-2005>
46.3307304382324

> <r_mmod_Bend_Energy-OPLS-2005>
127.602767944336

> <r_mmod_Torsional_Energy-OPLS-2005>
307.615936279297

> <r_mmod_Improper_Torsional_Energy-OPLS-2005>
3.85421895980835

> <r_mmod_Van_der_Waal_Energy-OPLS-2005>
128.471633911133

> <r_mmod_Electrostatic_Energy-OPLS-2005>
-319.477111816406

> <r_mmod_Solvation_Energy-OPLS-2005>
-437.727233886719

> <b_mmod_Minimization_Converged-OPLS-2005>
0

> <r_mmod_RMS_Derivative-OPLS-2005>
1.94309520721436

$$$$
45
                    3D
 Structure written by MMmdl.
147155  0  0  1  0            999 V2000
  -30.2080  -15.8793   20.3025 C   0  0  0  0  0  0
  -30.4053  -13.2674   19.5362 C   0  0  0  0  0  0
  -29.5573  -12.7125   18.3482 C   0  0  0  0  0  0
  -28.1528  -12.3014   18.8087 C   0  0  0  0  0  0
  -27.5871  -13.3306   19.8083 C   0  0  2  0  0  0
  -28.5874  -13.7703   20.9095 C   0  0  0  0  0  0
  -25.2285  -13.8317   20.5825 C   0  0  0  0  0  0
  -24.1701  -13.0436   20.9306 C   0  0  0  0  0  0
  -24.6435  -11.6957   20.8770 C   0  0  0  0  0  0
  -23.9141  -10.4295   21.0393 C   0  0  0  0  0  0
  -24.3669   -9.4207   21.9178 C   0  0  0  0  0  0
  -23.6324   -8.2250   22.0753 C   0  0  0  0  0  0
  -22.4303   -8.0295   21.3544 C   0  0  0  0  0  0
  -21.9952   -9.0272   20.4643 C   0  0  0  0  0  0
  -22.7303  -10.2139   20.3048 C   0  0  0  0  0  0
  -21.6860   -6.0748   22.5279 C   0  0  0  0  0  0
  -21.4020   -6.5648   23.8213 C   0  0  0  0  0  0
  -21.3657   -5.6797   24.9174 C   0  0  0  0  0  0
  -21.6043   -4.3060   24.7221 C   0  0  0  0  0  0
  -21.8820   -3.8155   23.4343 C   0  0  0  0  0  0
  -21.9196   -4.6973   22.3400 C   0  0  0  0  0  0
  -22.7706  -13.5149   21.1932 C   0  0  0  0  0  0
  -22.1663   -4.2160   21.0977 F   0  0  0  0  0  0
  -21.5623   -3.4541   25.7732 F   0  0  0  0  0  0
  -29.7181  -14.4699   20.2343 N   0  0  0  0  0  0
  -26.2759  -12.9691   20.3269 N   0  0  0  0  0  0
  -25.9392  -11.6735   20.5700 N   0  0  0  0  0  0
  -22.0378  -12.8119   22.0482 N   0  0  0  0  0  0
  -25.3846  -15.2060   20.4247 N   0  0  0  0  0  0
  -31.4500  -15.7769   20.1799 O   0  0  0  0  0  0
  -21.6653   -6.8899   21.4245 O   0  0  0  0  0  0
  -22.3375  -14.5443   20.6767 O   0  0  0  0  0  0
  -24.6999  -31.7791   23.1350 C   0  0  0  0  0  0
  -25.9497  -32.4361   23.7963 C   0  0  1  0  0  0
  -27.2345  -26.5250   20.2341 C   0  0  0  0  0  0
  -25.6007  -33.8194   24.1841 N   0  0  0  0  0  0
  -23.5334  -30.3727   21.4932 C   0  0  2  0  0  0
  -24.9897  -28.6713   20.1240 C   0  0  0  0  0  0
  -22.7835  -29.4209   22.4660 C   0  0  0  0  0  0
  -18.0351  -28.1438   22.8455 C   0  0  0  0  0  0
  -24.1486  -36.7096   23.2658 C   0  0  0  0  0  0
  -26.1201  -30.4535   21.4240 C   0  0  0  0  0  0
  -26.1816  -28.9981   20.7789 C   0  0  0  0  0  0
  -27.2780  -27.9595   20.7919 C   0  0  0  0  0  0
  -26.0048  -26.4470   19.5192 C   0  0  0  0  0  0
  -24.9504  -27.4241   19.4698 C   0  0  0  0  0  0
  -23.7953  -29.6500   20.1371 C   0  0  0  0  0  0
  -25.4144  -36.2831   24.0275 C   0  0  1  0  0  0
  -20.5993  -28.3800   23.1116 C   0  0  2  0  0  0
  -20.6808  -26.9444   22.5407 C   0  0  0  0  0  0
  -19.5783  -26.6372   21.5224 C   0  0  0  0  0  0
  -18.1967  -26.7966   22.1620 C   0  0  0  0  0  0
  -19.1622  -28.8947   23.2764 C   0  0  0  0  0  0
  -18.9526  -30.1528   23.8814 C   0  0  0  0  0  0
  -17.6514  -30.6616   24.0552 C   0  0  0  0  0  0
  -25.9141  -34.9228   23.4908 C   0  0  0  0  0  0
  -16.5401  -29.9096   23.6361 C   0  0  0  0  0  0
  -16.7330  -28.6519   23.0380 C   0  0  0  0  0  0
  -26.4620  -31.6476   25.0661 C   0  0  0  0  0  0
  -25.3637  -31.3853   26.1246 C   0  0  0  0  0  0
  -27.0578  -30.2793   24.6689 C   0  0  0  0  0  0
  -27.6040  -32.4376   25.7483 C   0  0  0  0  0  0
  -27.5551  -37.1699   24.8472 C   0  0  0  0  0  0
  -21.4466  -29.3009   22.3412 N   0  0  0  0  0  0
  -26.4251  -37.3616   23.9421 N   0  0  0  0  0  0
  -24.8102  -30.9060   22.0695 N   0  0  0  0  0  0
  -23.4202  -28.7848   23.3093 O   0  0  0  0  0  0
  -28.2288  -25.2701   20.3071 O   0  0  0  0  0  0
  -26.5803  -34.8847   22.4540 O   0  0  0  0  0  0
  -23.5983  -32.0946   23.6200 O   0  0  0  0  0  0
  -29.0070  -20.4083   21.4266 C   0  0  0  0  0  0
  -28.8149  -20.3602   19.1958 C   0  0  0  0  0  0
  -28.2095  -22.0310   21.3069 C   0  0  0  0  0  0
  -28.8954  -22.1650   19.1502 C   0  0  0  0  0  0
  -29.4841  -19.1808   20.2792 C   0  0  2  0  0  0
  -28.4463  -23.4132   20.2815 C   0  0  1  0  0  0
  -29.4452  -17.3077   20.3278 N   0  0  0  0  0  0
  -31.3736  -13.5706   19.1367 H   0  0  0  0  0  0
  -30.6372  -12.4748   20.2501 H   0  0  0  0  0  0
  -30.0622  -11.8674   17.8782 H   0  0  0  0  0  0
  -29.4720  -13.4841   17.5817 H   0  0  0  0  0  0
  -28.2294  -11.3287   19.2968 H   0  0  0  0  0  0
  -27.4850  -12.1703   17.9563 H   0  0  0  0  0  0
  -27.4159  -14.2152   19.1929 H   0  0  0  0  0  0
  -28.9065  -12.9318   21.5303 H   0  0  0  0  0  0
  -28.1062  -14.4794   21.5845 H   0  0  0  0  0  0
  -25.2809   -9.5675   22.4765 H   0  0  0  0  0  0
  -24.0019   -7.4643   22.7480 H   0  0  0  0  0  0
  -21.0880   -8.8811   19.8951 H   0  0  0  0  0  0
  -22.3769  -10.9685   19.6161 H   0  0  0  0  0  0
  -21.2017   -7.6157   23.9721 H   0  0  0  0  0  0
  -21.1472   -6.0525   25.9076 H   0  0  0  0  0  0
  -22.0599   -2.7617   23.2840 H   0  0  0  0  0  0
  -22.4025  -11.9796   22.4878 H   0  0  0  0  0  0
  -21.0982  -13.1107   22.2685 H   0  0  0  0  0  0
  -24.6102  -15.8522   20.5322 H   0  0  0  0  0  0
  -26.2250  -15.6482   20.0772 H   0  0  0  0  0  0
  -26.7593  -32.4786   23.0682 H   0  0  0  0  0  0
  -25.0061  -33.9199   24.9934 H   0  0  0  0  0  0
  -22.8689  -31.2144   21.2873 H   0  0  0  0  0  0
  -23.3777  -35.9393   23.3254 H   0  0  0  0  0  0
  -24.3549  -36.8828   22.2085 H   0  0  0  0  0  0
  -23.7212  -37.6238   23.6788 H   0  0  0  0  0  0
  -26.3412  -31.1655   20.6279 H   0  0  0  0  0  0
  -26.9650  -30.5277   22.0962 H   0  0  0  0  0  0
  -28.1750  -28.2272   21.3318 H   0  0  0  0  0  0
  -25.8133  -25.5164   19.0038 H   0  0  0  0  0  0
  -24.0551  -27.1625   18.9233 H   0  0  0  0  0  0
  -23.9847  -30.4004   19.3686 H   0  0  0  0  0  0
  -22.8957  -29.1252   19.8112 H   0  0  0  0  0  0
  -25.1359  -36.1560   25.0763 H   0  0  0  0  0  0
  -21.0078  -28.3435   24.1243 H   0  0  0  0  0  0
  -20.5664  -26.2425   23.3683 H   0  0  0  0  0  0
  -21.6667  -26.7363   22.1231 H   0  0  0  0  0  0
  -19.6933  -25.6262   21.1305 H   0  0  0  0  0  0
  -19.6736  -27.3144   20.6726 H   0  0  0  0  0  0
  -17.4240  -26.6723   21.4019 H   0  0  0  0  0  0
  -18.0338  -26.0130   22.9032 H   0  0  0  0  0  0
  -19.8002  -30.7370   24.2139 H   0  0  0  0  0  0
  -17.5066  -31.6289   24.5172 H   0  0  0  0  0  0
  -15.5400  -30.2975   23.7736 H   0  0  0  0  0  0
  -15.8729  -28.0810   22.7145 H   0  0  0  0  0  0
  -24.5860  -30.7163   25.7546 H   0  0  0  0  0  0
  -24.8788  -32.3095   26.4397 H   0  0  0  0  0  0
  -25.7774  -30.9196   27.0198 H   0  0  0  0  0  0
  -26.3328  -29.6350   24.1706 H   0  0  0  0  0  0
  -27.3967  -29.7313   25.5490 H   0  0  0  0  0  0
  -27.9319  -30.3881   24.0266 H   0  0  0  0  0  0
  -27.2569  -33.3779   26.1775 H   0  0  0  0  0  0
  -28.3992  -32.6769   25.0409 H   0  0  0  0  0  0
  -28.0550  -31.8691   26.5625 H   0  0  0  0  0  0
  -28.2533  -38.0027   24.7528 H   0  0  0  0  0  0
  -28.1080  -36.2550   24.6287 H   0  0  0  0  0  0
  -27.2272  -37.1319   25.8875 H   0  0  0  0  0  0
  -20.9807  -29.8618   21.6415 H   0  0  0  0  0  0
  -26.0058  -38.2647   24.1460 H   0  0  0  0  0  0
  -28.3926  -19.8709   22.1492 H   0  0  0  0  0  0
  -29.9213  -20.6058   21.9877 H   0  0  0  0  0  0
  -29.1587  -20.0483   18.2096 H   0  0  0  0  0  0
  -27.7473  -20.1350   19.1656 H   0  0  0  0  0  0
  -28.2549  -22.4307   22.3202 H   0  0  0  0  0  0
  -27.1511  -21.7970   21.1851 H   0  0  0  0  0  0
  -28.3558  -22.4305   18.2413 H   0  0  0  0  0  0
  -29.9326  -22.3831   18.8922 H   0  0  0  0  0  0
  -30.5599  -19.3206   20.1638 H   0  0  0  0  0  0
  -29.4535  -23.6212   20.6440 H   0  0  0  0  0  0
  -28.4688  -17.0514   20.3771 H   0  0  0  0  0  0
  1 25  1  0  0  0
  1 30  2  0  0  0
  1 77  1  0  0  0
  2  3  1  0  0  0
  2 25  1  0  0  0
  2 78  1  0  0  0
  2 79  1  0  0  0
  3  4  1  0  0  0
  3 80  1  0  0  0
  3 81  1  0  0  0
  4  5  1  0  0  0
  4 82  1  0  0  0
  4 83  1  0  0  0
  5  6  1  0  0  0
  5 26  1  0  0  0
  5 84  1  0  0  0
  6 25  1  0  0  0
  6 85  1  0  0  0
  6 86  1  0  0  0
  7  8  2  0  0  0
  7 26  1  0  0  0
  7 29  1  0  0  0
  8  9  1  0  0  0
  8 22  1  0  0  0
  9 10  1  0  0  0
  9 27  2  0  0  0
 10 11  2  0  0  0
 10 15  1  0  0  0
 11 12  1  0  0  0
 11 87  1  0  0  0
 12 13  2  0  0  0
 12 88  1  0  0  0
 13 14  1  0  0  0
 13 31  1  0  0  0
 14 15  2  0  0  0
 14 89  1  0  0  0
 15 90  1  0  0  0
 16 17  2  0  0  0
 16 21  1  0  0  0
 16 31  1  0  0  0
 17 18  1  0  0  0
 17 91  1  0  0  0
 18 19  2  0  0  0
 18 92  1  0  0  0
 19 20  1  0  0  0
 19 24  1  0  0  0
 20 21  2  0  0  0
 20 93  1  0  0  0
 21 23  1  0  0  0
 22 28  1  0  0  0
 22 32  2  0  0  0
 26 27  1  0  0  0
 28 94  1  0  0  0
 28 95  1  0  0  0
 29 96  1  0  0  0
 29 97  1  0  0  0
 33 34  1  0  0  0
 33 66  1  0  0  0
 33 70  2  0  0  0
 34 36  1  0  0  0
 34 59  1  0  0  0
 34 98  1  0  0  0
 35 44  2  0  0  0
 35 45  1  0  0  0
 35 68  1  0  0  0
 36 56  1  0  0  0
 36 99  1  0  0  0
 37 39  1  0  0  0
 37 47  1  0  0  0
 37 66  1  0  0  0
 37100  1  0  0  0
 38 43  2  0  0  0
 38 46  1  0  0  0
 38 47  1  0  0  0
 39 64  1  0  0  0
 39 67  2  0  0  0
 40 52  1  0  0  0
 40 53  2  0  0  0
 40 58  1  0  0  0
 41101  1  0  0  0
 41102  1  0  0  0
 41103  1  0  0  0
 41 48  1  0  0  0
 42 43  1  0  0  0
 42 66  1  0  0  0
 42104  1  0  0  0
 42105  1  0  0  0
 43 44  1  0  0  0
 44106  1  0  0  0
 45 46  2  0  0  0
 45107  1  0  0  0
 46108  1  0  0  0
 47109  1  0  0  0
 47110  1  0  0  0
 48 56  1  0  0  0
 48 65  1  0  0  0
 48111  1  0  0  0
 49 50  1  0  0  0
 49 53  1  0  0  0
 49 64  1  0  0  0
 49112  1  0  0  0
 50 51  1  0  0  0
 50113  1  0  0  0
 50114  1  0  0  0
 51 52  1  0  0  0
 51115  1  0  0  0
 51116  1  0  0  0
 52117  1  0  0  0
 52118  1  0  0  0
 53 54  1  0  0  0
 54 55  2  0  0  0
 54119  1  0  0  0
 55 57  1  0  0  0
 55120  1  0  0  0
 56 69  2  0  0  0
 57 58  2  0  0  0
 57121  1  0  0  0
 58122  1  0  0  0
 59 60  1  0  0  0
 59 61  1  0  0  0
 59 62  1  0  0  0
 60123  1  0  0  0
 60124  1  0  0  0
 60125  1  0  0  0
 61126  1  0  0  0
 61127  1  0  0  0
 61128  1  0  0  0
 62129  1  0  0  0
 62130  1  0  0  0
 62131  1  0  0  0
 63 65  1  0  0  0
 63132  1  0  0  0
 63133  1  0  0  0
 63134  1  0  0  0
 64135  1  0  0  0
 65136  1  0  0  0
 68 76  1  0  0  0
 71 73  1  0  0  0
 71 75  1  0  0  0
 71137  1  0  0  0
 71138  1  0  0  0
 72 74  1  0  0  0
 72 75  1  0  0  0
 72139  1  0  0  0
 72140  1  0  0  0
 73 76  1  0  0  0
 73141  1  0  0  0
 73142  1  0  0  0
 74 76  1  0  0  0
 74143  1  0  0  0
 74144  1  0  0  0
 75 77  1  0  0  0
 75145  1  0  0  0
 76146  1  0  0  0
 77147  1  0  0  0
M  ISO  4   1 100  68 101  76 101  77 100
M  END
> <chiral flag>
0

> <version>
0

> <s_m_source_file>
/data/baiqing/PycharmProjects/Reinvent-master-3.2/result/LINK_invent/BTK/process_docking_weight1_custom_sum_contain_oxygen_bond_distance_aromatic_linkinvent_7_9_3/rearranged_h_0107.sdf

> <i_m_source_file_index>
46

> <r_mmod_Potential_Energy-OPLS-2005>
3508.3359375

> <r_mmod_Stretch_Energy-OPLS-2005>
1375.18981933594

> <r_mmod_Bend_Energy-OPLS-2005>
1047.43798828125

> <r_mmod_Torsional_Energy-OPLS-2005>
244.690505981445

> <r_mmod_Improper_Torsional_Energy-OPLS-2005>
3.74291706085205

> <r_mmod_Van_der_Waal_Energy-OPLS-2005>
121.230651855469

> <r_mmod_Electrostatic_Energy-OPLS-2005>
-364.220825195312

> <r_mmod_Solvation_Energy-OPLS-2005>
-216.269866943359

> <b_mmod_Minimization_Converged-OPLS-2005>
0

> <r_mmod_RMS_Derivative-OPLS-2005>
0.805095314979553

$$$$
46
                    3D
 Structure written by MMmdl.
164172  0  0  1  0            999 V2000
  -30.6187  -14.6606   20.4885 C   0  0  0  0  0  0
  -30.4230  -12.4033   19.4656 C   0  0  0  0  0  0
  -29.5093  -12.5404   18.2267 C   0  0  0  0  0  0
  -28.0273  -12.3819   18.6232 C   0  0  0  0  0  0
  -27.6501  -13.2275   19.8723 C   0  0  2  0  0  0
  -28.6895  -13.0863   21.0077 C   0  0  0  0  0  0
  -25.2527  -13.8204   20.5712 C   0  0  0  0  0  0
  -24.1785  -13.0470   20.9182 C   0  0  0  0  0  0
  -24.6372  -11.6933   20.8718 C   0  0  0  0  0  0
  -23.9047  -10.4308   21.0415 C   0  0  0  0  0  0
  -24.3597   -9.4226   21.9192 C   0  0  0  0  0  0
  -23.6290   -8.2242   22.0758 C   0  0  0  0  0  0
  -22.4268   -8.0283   21.3543 C   0  0  0  0  0  0
  -21.9892   -9.0270   20.4647 C   0  0  0  0  0  0
  -22.7210  -10.2161   20.3074 C   0  0  0  0  0  0
  -21.6853   -6.0721   22.5270 C   0  0  0  0  0  0
  -21.4021   -6.5627   23.8206 C   0  0  0  0  0  0
  -21.3674   -5.6784   24.9179 C   0  0  0  0  0  0
  -21.6045   -4.3046   24.7224 C   0  0  0  0  0  0
  -21.8810   -3.8129   23.4345 C   0  0  0  0  0  0
  -21.9204   -4.6946   22.3399 C   0  0  0  0  0  0
  -22.7798  -13.5277   21.1847 C   0  0  0  0  0  0
  -22.1649   -4.2130   21.0976 F   0  0  0  0  0  0
  -21.5649   -3.4529   25.7733 F   0  0  0  0  0  0
  -30.0044  -13.4330   20.4431 N   0  0  0  0  0  0
  -26.2961  -12.9399   20.3357 N   0  0  0  0  0  0
  -25.9308  -11.6541   20.5718 N   0  0  0  0  0  0
  -22.0394  -12.8298   22.0399 N   0  0  0  0  0  0
  -25.4285  -15.1927   20.4158 N   0  0  0  0  0  0
  -31.7750  -14.7990   20.0773 O   0  0  0  0  0  0
  -21.6647   -6.8870   21.4230 O   0  0  0  0  0  0
  -22.3478  -14.5580   20.6718 O   0  0  0  0  0  0
  -24.6290  -31.8591   23.2005 C   0  0  0  0  0  0
  -25.9153  -32.4756   23.8322 C   0  0  1  0  0  0
  -27.1767  -27.2524   20.1697 C   0  0  0  0  0  0
  -25.5970  -33.8553   24.2263 N   0  0  0  0  0  0
  -23.4241  -30.4865   21.5429 C   0  0  2  0  0  0
  -24.8683  -28.9421   20.1008 C   0  0  0  0  0  0
  -22.7501  -29.4634   22.4893 C   0  0  0  0  0  0
  -18.0330  -28.1341   22.8484 C   0  0  0  0  0  0
  -24.1498  -36.7280   23.2635 C   0  0  0  0  0  0
  -25.9682  -30.7685   21.3884 C   0  0  0  0  0  0
  -26.0367  -29.3919   20.7347 C   0  0  0  0  0  0
  -27.1951  -28.5535   20.7719 C   0  0  0  0  0  0
  -26.0367  -26.9268   19.4082 C   0  0  0  0  0  0
  -24.8759  -27.7164   19.4240 C   0  0  0  0  0  0
  -23.6417  -29.8306   20.1552 C   0  0  0  0  0  0
  -25.4122  -36.3060   24.0329 C   0  0  1  0  0  0
  -20.5930  -28.3693   23.1241 C   0  0  2  0  0  0
  -20.6820  -26.9397   22.5407 C   0  0  0  0  0  0
  -19.5782  -26.6308   21.5241 C   0  0  0  0  0  0
  -18.1986  -26.7847   22.1692 C   0  0  0  0  0  0
  -19.1569  -28.8844   23.2833 C   0  0  0  0  0  0
  -18.9482  -30.1463   23.8819 C   0  0  0  0  0  0
  -17.6459  -30.6555   24.0524 C   0  0  0  0  0  0
  -25.9066  -34.9437   23.5074 C   0  0  0  0  0  0
  -16.5376  -29.9032   23.6276 C   0  0  0  0  0  0
  -16.7308  -28.6449   23.0326 C   0  0  0  0  0  0
  -26.4516  -31.6548   25.0692 C   0  0  0  0  0  0
  -25.3733  -31.3724   26.1414 C   0  0  0  0  0  0
  -27.0361  -30.2955   24.6186 C   0  0  0  0  0  0
  -27.6061  -32.4283   25.7471 C   0  0  0  0  0  0
  -27.5592  -37.1794   24.8467 C   0  0  0  0  0  0
  -21.4218  -29.3028   22.3599 N   0  0  0  0  0  0
  -26.4294  -37.3765   23.9420 N   0  0  0  0  0  0
  -24.6919  -31.0564   22.1002 N   0  0  0  0  0  0
  -23.4190  -28.8163   23.3000 O   0  0  0  0  0  0
  -28.1894  -26.2772   20.2879 O   0  0  0  0  0  0
  -26.5607  -34.8903   22.4632 O   0  0  0  0  0  0
  -23.5438  -32.1423   23.7327 O   0  0  0  0  0  0
  -29.1237  -19.6608   20.6029 C   0  0  0  0  0  0
  -30.4430  -21.0116   22.0879 C   0  0  0  0  0  0
  -29.3530  -20.9547   21.2028 C   0  0  0  0  0  0
  -29.9523  -18.5053   20.8858 C   0  0  0  0  0  0
  -30.9975  -18.7450   21.8154 C   0  0  0  0  0  0
  -31.9944  -17.6668   22.2115 C   0  0  0  0  0  0
  -28.7595  -17.1239   19.0285 C   0  0  0  0  0  0
  -26.4318  -24.4743   20.9390 C   0  0  0  0  0  0
  -28.1471  -25.3279   22.5010 C   0  0  0  0  0  0
  -28.3815  -22.2028   21.0882 C   0  0  0  0  0  0
  -28.8384  -23.6919   20.6336 C   0  0  0  0  0  0
  -29.8746  -17.1193   20.0932 C   0  0  2  0  0  0
  -27.9058  -24.9690   21.0188 C   0  0  0  0  0  0
  -31.2242  -19.9508   22.3872 N   0  0  0  0  0  0
  -29.8337  -15.7583   20.7721 N   0  0  0  0  0  0
  -31.4735  -12.5016   19.1802 H   0  0  0  0  0  0
  -30.3204  -11.4046   19.8953 H   0  0  0  0  0  0
  -29.7817  -11.8025   17.4703 H   0  0  0  0  0  0
  -29.6607  -13.5191   17.7641 H   0  0  0  0  0  0
  -27.8493  -11.3244   18.8153 H   0  0  0  0  0  0
  -27.3843  -12.6535   17.7825 H   0  0  0  0  0  0
  -27.6715  -14.2691   19.5515 H   0  0  0  0  0  0
  -28.7017  -12.0642   21.3943 H   0  0  0  0  0  0
  -28.4347  -13.7248   21.8569 H   0  0  0  0  0  0
  -25.2757   -9.5715   22.4754 H   0  0  0  0  0  0
  -24.0013   -7.4637   22.7490 H   0  0  0  0  0  0
  -21.0821   -8.8803   19.8945 H   0  0  0  0  0  0
  -22.3689  -10.9707   19.6168 H   0  0  0  0  0  0
  -21.1996   -7.6131   23.9699 H   0  0  0  0  0  0
  -21.1509   -6.0515   25.9085 H   0  0  0  0  0  0
  -22.0579   -2.7591   23.2848 H   0  0  0  0  0  0
  -22.3995  -12.0025   22.4895 H   0  0  0  0  0  0
  -21.0992  -13.1336   22.2538 H   0  0  0  0  0  0
  -24.6719  -15.8562   20.5437 H   0  0  0  0  0  0
  -26.2896  -15.6244   20.1093 H   0  0  0  0  0  0
  -26.7200  -32.5436   23.1042 H   0  0  0  0  0  0
  -25.0175  -33.9657   25.0447 H   0  0  0  0  0  0
  -22.7211  -31.3104   21.4035 H   0  0  0  0  0  0
  -23.3740  -35.9632   23.3291 H   0  0  0  0  0  0
  -24.3592  -36.8896   22.2051 H   0  0  0  0  0  0
  -23.7257  -37.6485   23.6643 H   0  0  0  0  0  0
  -26.1115  -31.5287   20.6194 H   0  0  0  0  0  0
  -26.8439  -30.8095   22.0266 H   0  0  0  0  0  0
  -28.0768  -28.8706   21.3105 H   0  0  0  0  0  0
  -26.0128  -26.0007   18.8528 H   0  0  0  0  0  0
  -23.9942  -27.3737   18.9008 H   0  0  0  0  0  0
  -23.7674  -30.6122   19.4048 H   0  0  0  0  0  0
  -22.7586  -29.2695   19.8443 H   0  0  0  0  0  0
  -25.1287  -36.1916   25.0819 H   0  0  0  0  0  0
  -21.0025  -28.3313   24.1364 H   0  0  0  0  0  0
  -20.5722  -26.2311   23.3625 H   0  0  0  0  0  0
  -21.6697  -26.7409   22.1228 H   0  0  0  0  0  0
  -19.6950  -25.6201   21.1324 H   0  0  0  0  0  0
  -19.6709  -27.3083   20.6740 H   0  0  0  0  0  0
  -17.4180  -26.6471   21.4180 H   0  0  0  0  0  0
  -18.0462  -26.0033   22.9155 H   0  0  0  0  0  0
  -19.7950  -30.7335   24.2133 H   0  0  0  0  0  0
  -17.4969  -31.6206   24.5162 H   0  0  0  0  0  0
  -15.5361  -30.2878   23.7560 H   0  0  0  0  0  0
  -15.8738  -28.0717   22.7079 H   0  0  0  0  0  0
  -24.5937  -30.7035   25.7746 H   0  0  0  0  0  0
  -24.8899  -32.2906   26.4762 H   0  0  0  0  0  0
  -25.8064  -30.8969   27.0230 H   0  0  0  0  0  0
  -26.2958  -29.6686   24.1208 H   0  0  0  0  0  0
  -27.4014  -29.7229   25.4711 H   0  0  0  0  0  0
  -27.8840  -30.4173   23.9448 H   0  0  0  0  0  0
  -27.2666  -33.3604   26.2006 H   0  0  0  0  0  0
  -28.3905  -32.6810   25.0322 H   0  0  0  0  0  0
  -28.0681  -31.8431   26.5434 H   0  0  0  0  0  0
  -28.2564  -38.0124   24.7511 H   0  0  0  0  0  0
  -28.1107  -36.2642   24.6265 H   0  0  0  0  0  0
  -27.2304  -37.1420   25.8863 H   0  0  0  0  0  0
  -20.9378  -29.8719   21.6794 H   0  0  0  0  0  0
  -26.0166  -38.2838   24.1415 H   0  0  0  0  0  0
  -28.2922  -19.5668   19.9221 H   0  0  0  0  0  0
  -30.6654  -21.9283   22.6150 H   0  0  0  0  0  0
  -32.5999  -17.3685   21.3554 H   0  0  0  0  0  0
  -31.4805  -16.7889   22.6003 H   0  0  0  0  0  0
  -32.6712  -18.0060   22.9971 H   0  0  0  0  0  0
  -28.8459  -17.9720   18.3490 H   0  0  0  0  0  0
  -27.7671  -17.1531   19.4773 H   0  0  0  0  0  0
  -28.8097  -16.2289   18.4100 H   0  0  0  0  0  0
  -26.2398  -23.6342   21.6071 H   0  0  0  0  0  0
  -26.1716  -24.1321   19.9366 H   0  0  0  0  0  0
  -25.7104  -25.2255   21.2594 H   0  0  0  0  0  0
  -27.4997  -26.1446   22.8237 H   0  0  0  0  0  0
  -29.1754  -25.6354   22.6833 H   0  0  0  0  0  0
  -27.9431  -24.4842   23.1618 H   0  0  0  0  0  0
  -27.9581  -22.2889   22.0890 H   0  0  0  0  0  0
  -27.5423  -21.8950   20.4633 H   0  0  0  0  0  0
  -28.9553  -23.6705   19.5488 H   0  0  0  0  0  0
  -29.8354  -23.8879   21.0257 H   0  0  0  0  0  0
  -30.8049  -17.1235   19.5201 H   0  0  0  0  0  0
  -28.9419  -15.5167   21.1786 H   0  0  0  0  0  0
  1 25  1  0  0  0
  1 30  2  0  0  0
  1 85  1  0  0  0
  2  3  1  0  0  0
  2 25  1  0  0  0
  2 86  1  0  0  0
  2 87  1  0  0  0
  3  4  1  0  0  0
  3 88  1  0  0  0
  3 89  1  0  0  0
  4  5  1  0  0  0
  4 90  1  0  0  0
  4 91  1  0  0  0
  5  6  1  0  0  0
  5 26  1  0  0  0
  5 92  1  0  0  0
  6 25  1  0  0  0
  6 93  1  0  0  0
  6 94  1  0  0  0
  7  8  2  0  0  0
  7 26  1  0  0  0
  7 29  1  0  0  0
  8  9  1  0  0  0
  8 22  1  0  0  0
  9 10  1  0  0  0
  9 27  2  0  0  0
 10 11  2  0  0  0
 10 15  1  0  0  0
 11 12  1  0  0  0
 11 95  1  0  0  0
 12 13  2  0  0  0
 12 96  1  0  0  0
 13 14  1  0  0  0
 13 31  1  0  0  0
 14 15  2  0  0  0
 14 97  1  0  0  0
 15 98  1  0  0  0
 16 17  2  0  0  0
 16 21  1  0  0  0
 16 31  1  0  0  0
 17 18  1  0  0  0
 17 99  1  0  0  0
 18 19  2  0  0  0
 18100  1  0  0  0
 19 20  1  0  0  0
 19 24  1  0  0  0
 20 21  2  0  0  0
 20101  1  0  0  0
 21 23  1  0  0  0
 22 28  1  0  0  0
 22 32  2  0  0  0
 26 27  1  0  0  0
 28102  1  0  0  0
 28103  1  0  0  0
 29104  1  0  0  0
 29105  1  0  0  0
 33 34  1  0  0  0
 33 66  1  0  0  0
 33 70  2  0  0  0
 34 36  1  0  0  0
 34 59  1  0  0  0
 34106  1  0  0  0
 35 44  2  0  0  0
 35 45  1  0  0  0
 35 68  1  0  0  0
 36 56  1  0  0  0
 36107  1  0  0  0
 37 39  1  0  0  0
 37 47  1  0  0  0
 37 66  1  0  0  0
 37108  1  0  0  0
 38 43  2  0  0  0
 38 46  1  0  0  0
 38 47  1  0  0  0
 39 64  1  0  0  0
 39 67  2  0  0  0
 40 52  1  0  0  0
 40 53  2  0  0  0
 40 58  1  0  0  0
 41109  1  0  0  0
 41110  1  0  0  0
 41111  1  0  0  0
 41 48  1  0  0  0
 42 43  1  0  0  0
 42 66  1  0  0  0
 42112  1  0  0  0
 42113  1  0  0  0
 43 44  1  0  0  0
 44114  1  0  0  0
 45 46  2  0  0  0
 45115  1  0  0  0
 46116  1  0  0  0
 47117  1  0  0  0
 47118  1  0  0  0
 48 56  1  0  0  0
 48 65  1  0  0  0
 48119  1  0  0  0
 49 50  1  0  0  0
 49 53  1  0  0  0
 49 64  1  0  0  0
 49120  1  0  0  0
 50 51  1  0  0  0
 50121  1  0  0  0
 50122  1  0  0  0
 51 52  1  0  0  0
 51123  1  0  0  0
 51124  1  0  0  0
 52125  1  0  0  0
 52126  1  0  0  0
 53 54  1  0  0  0
 54 55  2  0  0  0
 54127  1  0  0  0
 55 57  1  0  0  0
 55128  1  0  0  0
 56 69  2  0  0  0
 57 58  2  0  0  0
 57129  1  0  0  0
 58130  1  0  0  0
 59 60  1  0  0  0
 59 61  1  0  0  0
 59 62  1  0  0  0
 60131  1  0  0  0
 60132  1  0  0  0
 60133  1  0  0  0
 61134  1  0  0  0
 61135  1  0  0  0
 61136  1  0  0  0
 62137  1  0  0  0
 62138  1  0  0  0
 62139  1  0  0  0
 63 65  1  0  0  0
 63140  1  0  0  0
 63141  1  0  0  0
 63142  1  0  0  0
 64143  1  0  0  0
 65144  1  0  0  0
 68 83  1  0  0  0
 71 73  2  0  0  0
 71 74  1  0  0  0
 71145  1  0  0  0
 72 73  1  0  0  0
 72 84  2  0  0  0
 72146  1  0  0  0
 73 80  1  0  0  0
 74 75  2  0  0  0
 74 82  1  0  0  0
 75 76  1  0  0  0
 75 84  1  0  0  0
 76147  1  0  0  0
 76148  1  0  0  0
 76149  1  0  0  0
 77150  1  0  0  0
 77151  1  0  0  0
 77152  1  0  0  0
 77 82  1  0  0  0
 78153  1  0  0  0
 78154  1  0  0  0
 78155  1  0  0  0
 78 83  1  0  0  0
 79 83  1  0  0  0
 79156  1  0  0  0
 79157  1  0  0  0
 79158  1  0  0  0
 80 81  1  0  0  0
 80159  1  0  0  0
 80160  1  0  0  0
 81 83  1  0  0  0
 81161  1  0  0  0
 81162  1  0  0  0
 82 85  1  0  0  0
 82163  1  0  0  0
 85164  1  0  0  0
M  ISO  4   1 100  68 101  83 101  85 100
M  END
> <chiral flag>
0

> <version>
0

> <s_m_source_file>
/data/baiqing/PycharmProjects/Reinvent-master-3.2/result/LINK_invent/BTK/process_docking_weight1_custom_sum_contain_oxygen_bond_distance_aromatic_linkinvent_7_9_3/rearranged_h_0107.sdf

> <i_m_source_file_index>
47

> <r_mmod_Potential_Energy-OPLS-2005>
73.9976348876953

> <r_mmod_Stretch_Energy-OPLS-2005>
120.00675201416

> <r_mmod_Bend_Energy-OPLS-2005>
170.533813476562

> <r_mmod_Torsional_Energy-OPLS-2005>
249.841293334961

> <r_mmod_Improper_Torsional_Energy-OPLS-2005>
8.95453453063965

> <r_mmod_Van_der_Waal_Energy-OPLS-2005>
148.544921875

> <r_mmod_Electrostatic_Energy-OPLS-2005>
-492.144805908203

> <r_mmod_Solvation_Energy-OPLS-2005>
-215.625335693359

> <b_mmod_Minimization_Converged-OPLS-2005>
0

> <r_mmod_RMS_Derivative-OPLS-2005>
4.74064302444458

$$$$
48
                    3D
 Structure written by MMmdl.
146154  0  0  1  0            999 V2000
  -30.4698  -15.1976   20.3803 C   0  0  0  0  0  0
  -30.4361  -12.7620   19.5196 C   0  0  0  0  0  0
  -29.5293  -12.5572   18.2814 C   0  0  0  0  0  0
  -28.0752  -12.2969   18.7106 C   0  0  0  0  0  0
  -27.6132  -13.2689   19.8254 C   0  0  2  0  0  0
  -28.6491  -13.4226   20.9591 C   0  0  0  0  0  0
  -25.2392  -13.8238   20.5743 C   0  0  0  0  0  0
  -24.1740  -13.0437   20.9265 C   0  0  0  0  0  0
  -24.6388  -11.6934   20.8777 C   0  0  0  0  0  0
  -23.9087  -10.4296   21.0414 C   0  0  0  0  0  0
  -24.3633   -9.4205   21.9188 C   0  0  0  0  0  0
  -23.6309   -8.2238   22.0748 C   0  0  0  0  0  0
  -22.4289   -8.0281   21.3539 C   0  0  0  0  0  0
  -21.9930   -9.0255   20.4641 C   0  0  0  0  0  0
  -22.7259  -10.2135   20.3058 C   0  0  0  0  0  0
  -21.6855   -6.0742   22.5282 C   0  0  0  0  0  0
  -21.4010   -6.5646   23.8215 C   0  0  0  0  0  0
  -21.3659   -5.6796   24.9176 C   0  0  0  0  0  0
  -21.6043   -4.3058   24.7227 C   0  0  0  0  0  0
  -21.8821   -3.8151   23.4346 C   0  0  0  0  0  0
  -21.9195   -4.6970   22.3403 C   0  0  0  0  0  0
  -22.7763  -13.5189   21.1924 C   0  0  0  0  0  0
  -22.1665   -4.2157   21.0981 F   0  0  0  0  0  0
  -21.5631   -3.4540   25.7738 F   0  0  0  0  0  0
  -29.8882  -13.9058   20.3308 N   0  0  0  0  0  0
  -26.2817  -12.9504   20.3236 N   0  0  0  0  0  0
  -25.9323  -11.6615   20.5738 N   0  0  0  0  0  0
  -22.0432  -12.8154   22.0474 N   0  0  0  0  0  0
  -25.4027  -15.1968   20.4152 N   0  0  0  0  0  0
  -31.6917  -15.1951   20.1774 O   0  0  0  0  0  0
  -21.6643   -6.8881   21.4241 O   0  0  0  0  0  0
  -22.3440  -14.5496   20.6776 O   0  0  0  0  0  0
  -24.6597  -31.8276   23.1748 C   0  0  0  0  0  0
  -25.9299  -32.4613   23.8190 C   0  0  1  0  0  0
  -27.2113  -26.9642   20.1751 C   0  0  0  0  0  0
  -25.5982  -33.8426   24.2097 N   0  0  0  0  0  0
  -23.4716  -30.4430   21.5229 C   0  0  2  0  0  0
  -24.9237  -28.8422   20.1107 C   0  0  0  0  0  0
  -22.7647  -29.4468   22.4784 C   0  0  0  0  0  0
  -18.0317  -28.1416   22.8481 C   0  0  0  0  0  0
  -24.1484  -36.7195   23.2644 C   0  0  0  0  0  0
  -26.0400  -30.6475   21.3993 C   0  0  0  0  0  0
  -26.1082  -29.2418   20.7423 C   0  0  0  0  0  0
  -27.2485  -28.3238   20.7519 C   0  0  0  0  0  0
  -25.9967  -26.7137   19.4958 C   0  0  0  0  0  0
  -24.8915  -27.5969   19.4678 C   0  0  0  0  0  0
  -23.7095  -29.7653   20.1466 C   0  0  0  0  0  0
  -25.4123  -36.2974   24.0307 C   0  0  1  0  0  0
  -20.5944  -28.3749   23.1197 C   0  0  2  0  0  0
  -20.6795  -26.9437   22.5401 C   0  0  0  0  0  0
  -19.5764  -26.6390   21.5216 C   0  0  0  0  0  0
  -18.1948  -26.7952   22.1629 C   0  0  0  0  0  0
  -19.1581  -28.8903   23.2829 C   0  0  0  0  0  0
  -18.9493  -30.1494   23.8863 C   0  0  0  0  0  0
  -17.6491  -30.6610   24.0558 C   0  0  0  0  0  0
  -25.9094  -34.9363   23.5014 C   0  0  0  0  0  0
  -16.5378  -29.9103   23.6354 C   0  0  0  0  0  0
  -16.7302  -28.6518   23.0378 C   0  0  0  0  0  0
  -26.4559  -31.6556   25.0707 C   0  0  0  0  0  0
  -25.3703  -31.3813   26.1378 C   0  0  0  0  0  0
  -27.0429  -30.2922   24.6416 C   0  0  0  0  0  0
  -27.6053  -32.4362   25.7503 C   0  0  0  0  0  0
  -27.5560  -37.1747   24.8468 C   0  0  0  0  0  0
  -21.4318  -29.3047   22.3541 N   0  0  0  0  0  0
  -26.4259  -37.3716   23.9431 N   0  0  0  0  0  0
  -24.7452  -30.9982   22.0863 N   0  0  0  0  0  0
  -23.4216  -28.8029   23.3004 O   0  0  0  0  0  0
  -28.2000  -25.8576   20.2502 O   0  0  0  0  0  0
  -26.5682  -34.8900   22.4599 O   0  0  0  0  0  0
  -23.5677  -32.1218   23.6873 O   0  0  0  0  0  0
  -29.4988  -20.5241   19.1664 C   0  0  0  0  0  0
  -29.1171  -21.9511   19.1149 C   0  0  0  0  0  0
  -28.8693  -20.5005   21.3633 C   0  0  0  0  0  0
  -29.4032  -19.6363   20.3126 C   0  0  0  0  0  0
  -28.5989  -22.7401   20.2138 C   0  0  0  0  0  0
  -30.1499  -18.0637   20.4328 C   0  0  0  0  0  0
  -27.8012  -24.2842   20.0883 C   0  0  0  0  0  0
  -28.4858  -21.8780   21.3125 N   0  0  0  0  0  0
  -29.7245  -16.4683   20.4544 N   0  0  0  0  0  0
  -31.4579  -12.9547   19.1898 H   0  0  0  0  0  0
  -30.4876  -11.8508   20.1179 H   0  0  0  0  0  0
  -29.8955  -11.7276   17.6746 H   0  0  0  0  0  0
  -29.5709  -13.4442   17.6470 H   0  0  0  0  0  0
  -28.0214  -11.2708   19.0768 H   0  0  0  0  0  0
  -27.4053  -12.3514   17.8517 H   0  0  0  0  0  0
  -27.5362  -14.2406   19.3364 H   0  0  0  0  0  0
  -28.8019  -12.4844   21.4945 H   0  0  0  0  0  0
  -28.3007  -14.1500   21.6945 H   0  0  0  0  0  0
  -25.2773   -9.5685   22.4771 H   0  0  0  0  0  0
  -24.0027   -7.4619   22.7454 H   0  0  0  0  0  0
  -21.0867   -8.8771   19.8938 H   0  0  0  0  0  0
  -22.3713  -10.9677   19.6174 H   0  0  0  0  0  0
  -21.1996   -7.6156   23.9721 H   0  0  0  0  0  0
  -21.1480   -6.0525   25.9080 H   0  0  0  0  0  0
  -22.0598   -2.7617   23.2840 H   0  0  0  0  0  0
  -22.4077  -11.9814   22.4843 H   0  0  0  0  0  0
  -21.1041  -13.1139   22.2699 H   0  0  0  0  0  0
  -24.6293  -15.8443   20.5183 H   0  0  0  0  0  0
  -26.2387  -15.6367   20.0547 H   0  0  0  0  0  0
  -26.7365  -32.5164   23.0903 H   0  0  0  0  0  0
  -25.0130  -33.9517   25.0247 H   0  0  0  0  0  0
  -22.7835  -31.2746   21.3568 H   0  0  0  0  0  0
  -23.3761  -35.9508   23.3291 H   0  0  0  0  0  0
  -24.3561  -36.8847   22.2060 H   0  0  0  0  0  0
  -23.7227  -37.6378   23.6698 H   0  0  0  0  0  0
  -26.2159  -31.3926   20.6225 H   0  0  0  0  0  0
  -26.9020  -30.7006   22.0527 H   0  0  0  0  0  0
  -28.1440  -28.6263   21.2760 H   0  0  0  0  0  0
  -25.8527  -25.7669   18.9996 H   0  0  0  0  0  0
  -23.9921  -27.2844   18.9550 H   0  0  0  0  0  0
  -23.8636  -30.5363   19.3907 H   0  0  0  0  0  0
  -22.8194  -29.2199   19.8280 H   0  0  0  0  0  0
  -25.1323  -36.1749   25.0794 H   0  0  0  0  0  0
  -21.0042  -28.3351   24.1317 H   0  0  0  0  0  0
  -20.5669  -26.2372   23.3640 H   0  0  0  0  0  0
  -21.6658  -26.7422   22.1201 H   0  0  0  0  0  0
  -19.6917  -25.6291   21.1270 H   0  0  0  0  0  0
  -19.6695  -27.3178   20.6731 H   0  0  0  0  0  0
  -17.4212  -26.6701   21.4041 H   0  0  0  0  0  0
  -18.0340  -26.0109   22.9042 H   0  0  0  0  0  0
  -19.7968  -30.7319   24.2217 H   0  0  0  0  0  0
  -17.5045  -31.6289   24.5157 H   0  0  0  0  0  0
  -15.5374  -30.2991   23.7706 H   0  0  0  0  0  0
  -15.8704  -28.0822   22.7130 H   0  0  0  0  0  0
  -24.5889  -30.7149   25.7712 H   0  0  0  0  0  0
  -24.8886  -32.3019   26.4684 H   0  0  0  0  0  0
  -25.7955  -30.9071   27.0234 H   0  0  0  0  0  0
  -26.3079  -29.6625   24.1387 H   0  0  0  0  0  0
  -27.3924  -29.7268   25.5066 H   0  0  0  0  0  0
  -27.9050  -30.4109   23.9850 H   0  0  0  0  0  0
  -27.2623  -33.3710   26.1958 H   0  0  0  0  0  0
  -28.3930  -32.6849   25.0378 H   0  0  0  0  0  0
  -28.0647  -31.8565   26.5523 H   0  0  0  0  0  0
  -28.2559  -38.0061   24.7533 H   0  0  0  0  0  0
  -28.1070  -36.2590   24.6264 H   0  0  0  0  0  0
  -27.2286  -37.1362   25.8872 H   0  0  0  0  0  0
  -20.9552  -29.8749   21.6693 H   0  0  0  0  0  0
  -26.0095  -38.2760   24.1479 H   0  0  0  0  0  0
  -29.9134  -20.1033   18.2613 H   0  0  0  0  0  0
  -29.2050  -22.4498   18.1584 H   0  0  0  0  0  0
  -28.7684  -20.0700   22.3490 H   0  0  0  0  0  0
  -30.7487  -18.1575   21.3391 H   0  0  0  0  0  0
  -30.8967  -18.0937   19.6389 H   0  0  0  0  0  0
  -26.9297  -24.1710   20.7328 H   0  0  0  0  0  0
  -27.3954  -24.2291   19.0786 H   0  0  0  0  0  0
  -28.7313  -16.3211   20.5556 H   0  0  0  0  0  0
  1 25  1  0  0  0
  1 30  2  0  0  0
  1 79  1  0  0  0
  2  3  1  0  0  0
  2 25  1  0  0  0
  2 80  1  0  0  0
  2 81  1  0  0  0
  3  4  1  0  0  0
  3 82  1  0  0  0
  3 83  1  0  0  0
  4  5  1  0  0  0
  4 84  1  0  0  0
  4 85  1  0  0  0
  5  6  1  0  0  0
  5 26  1  0  0  0
  5 86  1  0  0  0
  6 25  1  0  0  0
  6 87  1  0  0  0
  6 88  1  0  0  0
  7  8  2  0  0  0
  7 26  1  0  0  0
  7 29  1  0  0  0
  8  9  1  0  0  0
  8 22  1  0  0  0
  9 10  1  0  0  0
  9 27  2  0  0  0
 10 11  2  0  0  0
 10 15  1  0  0  0
 11 12  1  0  0  0
 11 89  1  0  0  0
 12 13  2  0  0  0
 12 90  1  0  0  0
 13 14  1  0  0  0
 13 31  1  0  0  0
 14 15  2  0  0  0
 14 91  1  0  0  0
 15 92  1  0  0  0
 16 17  2  0  0  0
 16 21  1  0  0  0
 16 31  1  0  0  0
 17 18  1  0  0  0
 17 93  1  0  0  0
 18 19  2  0  0  0
 18 94  1  0  0  0
 19 20  1  0  0  0
 19 24  1  0  0  0
 20 21  2  0  0  0
 20 95  1  0  0  0
 21 23  1  0  0  0
 22 28  1  0  0  0
 22 32  2  0  0  0
 26 27  1  0  0  0
 28 96  1  0  0  0
 28 97  1  0  0  0
 29 98  1  0  0  0
 29 99  1  0  0  0
 33 34  1  0  0  0
 33 66  1  0  0  0
 33 70  2  0  0  0
 34 36  1  0  0  0
 34 59  1  0  0  0
 34100  1  0  0  0
 35 44  2  0  0  0
 35 45  1  0  0  0
 35 68  1  0  0  0
 36 56  1  0  0  0
 36101  1  0  0  0
 37 39  1  0  0  0
 37 47  1  0  0  0
 37 66  1  0  0  0
 37102  1  0  0  0
 38 43  2  0  0  0
 38 46  1  0  0  0
 38 47  1  0  0  0
 39 64  1  0  0  0
 39 67  2  0  0  0
 40 52  1  0  0  0
 40 53  2  0  0  0
 40 58  1  0  0  0
 41103  1  0  0  0
 41104  1  0  0  0
 41105  1  0  0  0
 41 48  1  0  0  0
 42 43  1  0  0  0
 42 66  1  0  0  0
 42106  1  0  0  0
 42107  1  0  0  0
 43 44  1  0  0  0
 44108  1  0  0  0
 45 46  2  0  0  0
 45109  1  0  0  0
 46110  1  0  0  0
 47111  1  0  0  0
 47112  1  0  0  0
 48 56  1  0  0  0
 48 65  1  0  0  0
 48113  1  0  0  0
 49 50  1  0  0  0
 49 53  1  0  0  0
 49 64  1  0  0  0
 49114  1  0  0  0
 50 51  1  0  0  0
 50115  1  0  0  0
 50116  1  0  0  0
 51 52  1  0  0  0
 51117  1  0  0  0
 51118  1  0  0  0
 52119  1  0  0  0
 52120  1  0  0  0
 53 54  1  0  0  0
 54 55  2  0  0  0
 54121  1  0  0  0
 55 57  1  0  0  0
 55122  1  0  0  0
 56 69  2  0  0  0
 57 58  2  0  0  0
 57123  1  0  0  0
 58124  1  0  0  0
 59 60  1  0  0  0
 59 61  1  0  0  0
 59 62  1  0  0  0
 60125  1  0  0  0
 60126  1  0  0  0
 60127  1  0  0  0
 61128  1  0  0  0
 61129  1  0  0  0
 61130  1  0  0  0
 62131  1  0  0  0
 62132  1  0  0  0
 62133  1  0  0  0
 63 65  1  0  0  0
 63134  1  0  0  0
 63135  1  0  0  0
 63136  1  0  0  0
 64137  1  0  0  0
 65138  1  0  0  0
 68 77  1  0  0  0
 71 72  2  0  0  0
 71 74  1  0  0  0
 71139  1  0  0  0
 72 75  1  0  0  0
 72140  1  0  0  0
 73 74  2  0  0  0
 73 78  1  0  0  0
 73141  1  0  0  0
 74 76  1  0  0  0
 75 77  1  0  0  0
 75 78  2  0  0  0
 76 79  1  0  0  0
 76142  1  0  0  0
 76143  1  0  0  0
 77144  1  0  0  0
 77145  1  0  0  0
 79146  1  0  0  0
M  ISO  4   1 100  68 101  77 101  79 100
M  END
> <chiral flag>
0

> <version>
0

> <s_m_source_file>
/data/baiqing/PycharmProjects/Reinvent-master-3.2/result/LINK_invent/BTK/process_docking_weight1_custom_sum_contain_oxygen_bond_distance_aromatic_linkinvent_7_9_3/rearranged_h_0107.sdf

> <i_m_source_file_index>
48

> <r_mmod_Potential_Energy-OPLS-2005>
965.981506347656

> <r_mmod_Stretch_Energy-OPLS-2005>
463.537658691406

> <r_mmod_Bend_Energy-OPLS-2005>
422.197723388672

> <r_mmod_Torsional_Energy-OPLS-2005>
225.841094970703

> <r_mmod_Improper_Torsional_Energy-OPLS-2005>
9.9896764755249

> <r_mmod_Van_der_Waal_Energy-OPLS-2005>
134.670486450195

> <r_mmod_Electrostatic_Energy-OPLS-2005>
-457.134429931641

> <r_mmod_Solvation_Energy-OPLS-2005>
-233.305618286133

> <b_mmod_Minimization_Converged-OPLS-2005>
0

> <r_mmod_RMS_Derivative-OPLS-2005>
1.24404621124268

$$$$
49
                    3D
 Structure written by MMmdl.
163171  0  0  1  0            999 V2000
  -30.6331  -14.7285   20.4796 C   0  0  0  0  0  0
  -30.4297  -12.4549   19.4583 C   0  0  0  0  0  0
  -29.5035  -12.5198   18.2250 C   0  0  0  0  0  0
  -28.0299  -12.3484   18.6386 C   0  0  0  0  0  0
  -27.6413  -13.2337   19.8527 C   0  0  2  0  0  0
  -28.6880  -13.1573   20.9847 C   0  0  0  0  0  0
  -25.2515  -13.8212   20.5694 C   0  0  0  0  0  0
  -24.1795  -13.0443   20.9220 C   0  0  0  0  0  0
  -24.6389  -11.6939   20.8758 C   0  0  0  0  0  0
  -23.9045  -10.4306   21.0414 C   0  0  0  0  0  0
  -24.3604   -9.4235   21.9191 C   0  0  0  0  0  0
  -23.6299   -8.2260   22.0757 C   0  0  0  0  0  0
  -22.4288   -8.0298   21.3559 C   0  0  0  0  0  0
  -21.9909   -9.0255   20.4652 C   0  0  0  0  0  0
  -22.7227  -10.2148   20.3062 C   0  0  0  0  0  0
  -21.6852   -6.0745   22.5283 C   0  0  0  0  0  0
  -21.4014   -6.5649   23.8220 C   0  0  0  0  0  0
  -21.3653   -5.6795   24.9177 C   0  0  0  0  0  0
  -21.6038   -4.3059   24.7223 C   0  0  0  0  0  0
  -21.8829   -3.8156   23.4341 C   0  0  0  0  0  0
  -21.9200   -4.6975   22.3400 C   0  0  0  0  0  0
  -22.7832  -13.5234   21.1897 C   0  0  0  0  0  0
  -22.1682   -4.2156   21.0978 F   0  0  0  0  0  0
  -21.5621   -3.4544   25.7734 F   0  0  0  0  0  0
  -29.9881  -13.5123   20.3984 N   0  0  0  0  0  0
  -26.2933  -12.9405   20.3292 N   0  0  0  0  0  0
  -25.9317  -11.6548   20.5738 N   0  0  0  0  0  0
  -22.0487  -12.8191   22.0446 N   0  0  0  0  0  0
  -25.4186  -15.1918   20.4099 N   0  0  0  0  0  0
  -31.8281  -14.8155   20.1916 O   0  0  0  0  0  0
  -21.6665   -6.8894   21.4250 O   0  0  0  0  0  0
  -22.3522  -14.5547   20.6791 O   0  0  0  0  0  0
  -24.6292  -31.8544   23.1964 C   0  0  0  0  0  0
  -25.9111  -32.4735   23.8318 C   0  0  1  0  0  0
  -27.2221  -27.2806   20.1366 C   0  0  0  0  0  0
  -25.5898  -33.8540   24.2229 N   0  0  0  0  0  0
  -23.4262  -30.4753   21.5390 C   0  0  2  0  0  0
  -24.8750  -28.9219   20.1154 C   0  0  0  0  0  0
  -22.7483  -29.4589   22.4908 C   0  0  0  0  0  0
  -18.0283  -28.1371   22.8477 C   0  0  0  0  0  0
  -24.1488  -36.7288   23.2645 C   0  0  0  0  0  0
  -25.9700  -30.7786   21.3722 C   0  0  0  0  0  0
  -26.0470  -29.4016   20.7158 C   0  0  0  0  0  0
  -27.2280  -28.5952   20.7096 C   0  0  0  0  0  0
  -26.0308  -26.8641   19.5065 C   0  0  0  0  0  0
  -24.8707  -27.6592   19.5022 C   0  0  0  0  0  0
  -23.6428  -29.8024   20.1583 C   0  0  0  0  0  0
  -25.4106  -36.3053   24.0322 C   0  0  1  0  0  0
  -20.5880  -28.3654   23.1269 C   0  0  2  0  0  0
  -20.6752  -26.9370   22.5411 C   0  0  0  0  0  0
  -19.5741  -26.6361   21.5201 C   0  0  0  0  0  0
  -18.1921  -26.7918   22.1618 C   0  0  0  0  0  0
  -19.1535  -28.8840   23.2863 C   0  0  0  0  0  0
  -18.9462  -30.1448   23.8860 C   0  0  0  0  0  0
  -17.6460  -30.6563   24.0559 C   0  0  0  0  0  0
  -25.9044  -34.9417   23.5083 C   0  0  0  0  0  0
  -16.5350  -29.9065   23.6330 C   0  0  0  0  0  0
  -16.7280  -28.6495   23.0338 C   0  0  0  0  0  0
  -26.4475  -31.6576   25.0717 C   0  0  0  0  0  0
  -25.3691  -31.3749   26.1432 C   0  0  0  0  0  0
  -27.0331  -30.2977   24.6252 C   0  0  0  0  0  0
  -27.6011  -32.4325   25.7494 C   0  0  0  0  0  0
  -27.5569  -37.1790   24.8451 C   0  0  0  0  0  0
  -21.4186  -29.3015   22.3654 N   0  0  0  0  0  0
  -26.4272  -37.3746   23.9398 N   0  0  0  0  0  0
  -24.6935  -31.0532   22.0925 N   0  0  0  0  0  0
  -23.4196  -28.8137   23.2992 O   0  0  0  0  0  0
  -28.3188  -26.3980   20.1641 O   0  0  0  0  0  0
  -26.5631  -34.8900   22.4671 O   0  0  0  0  0  0
  -23.5431  -32.1352   23.7264 O   0  0  0  0  0  0
  -30.9815  -21.8389   19.0092 C   0  0  0  0  0  0
  -29.9364  -21.2696   19.6918 C   0  0  0  0  0  0
  -31.2249  -19.6579   18.7330 C   0  0  0  0  0  0
  -33.3158  -18.3341   18.1251 C   0  0  0  0  0  0
  -31.2765  -18.2480   16.6033 C   0  0  0  0  0  0
  -28.8419  -22.2153   20.3200 C   0  0  0  0  0  0
  -28.9406  -23.7929   19.8845 C   0  0  0  0  0  0
  -29.4737  -18.5498   20.0969 C   0  0  0  0  0  0
  -30.3180  -17.3466   20.8157 C   0  0  0  0  0  0
  -28.0903  -24.9705   20.5696 C   0  0  0  0  0  0
  -31.7761  -18.4165   18.0496 C   0  0  0  0  0  0
  -30.1817  -19.8375   19.5964 N   0  0  0  0  0  0
  -31.7209  -20.8585   18.4479 N   0  3  0  0  0  0
  -29.8814  -15.8778   20.6832 N   0  0  0  0  0  0
  -31.4681  -12.5873   19.1519 H   0  0  0  0  0  0
  -30.3767  -11.4718   19.9277 H   0  0  0  0  0  0
  -29.7768  -11.7530   17.4995 H   0  0  0  0  0  0
  -29.6326  -13.4795   17.7232 H   0  0  0  0  0  0
  -27.8756  -11.2956   18.8815 H   0  0  0  0  0  0
  -27.3755  -12.5672   17.7932 H   0  0  0  0  0  0
  -27.6366  -14.2600   19.4864 H   0  0  0  0  0  0
  -28.7156  -12.1538   21.4119 H   0  0  0  0  0  0
  -28.4220  -13.8275   21.8030 H   0  0  0  0  0  0
  -25.2751   -9.5732   22.4758 H   0  0  0  0  0  0
  -24.0034   -7.4643   22.7463 H   0  0  0  0  0  0
  -21.0850   -8.8757   19.8926 H   0  0  0  0  0  0
  -22.3682  -10.9678   19.6174 H   0  0  0  0  0  0
  -21.1990   -7.6158   23.9716 H   0  0  0  0  0  0
  -21.1475   -6.0530   25.9070 H   0  0  0  0  0  0
  -22.0596   -2.7618   23.2837 H   0  0  0  0  0  0
  -22.4119  -11.9822   22.4760 H   0  0  0  0  0  0
  -21.1095  -13.1195   22.2672 H   0  0  0  0  0  0
  -24.6425  -15.8392   20.5024 H   0  0  0  0  0  0
  -26.2550  -15.6302   20.0468 H   0  0  0  0  0  0
  -26.7202  -32.5398   23.1073 H   0  0  0  0  0  0
  -24.9956  -33.9669   25.0312 H   0  0  0  0  0  0
  -22.7210  -31.2947   21.3858 H   0  0  0  0  0  0
  -23.3726  -35.9644   23.3298 H   0  0  0  0  0  0
  -24.3583  -36.8931   22.2063 H   0  0  0  0  0  0
  -23.7269  -37.6495   23.6692 H   0  0  0  0  0  0
  -26.1049  -31.5443   20.6073 H   0  0  0  0  0  0
  -26.8475  -30.8279   22.0049 H   0  0  0  0  0  0
  -28.1311  -28.9560   21.1830 H   0  0  0  0  0  0
  -25.9836  -25.8986   19.0236 H   0  0  0  0  0  0
  -23.9731  -27.2780   19.0357 H   0  0  0  0  0  0
  -23.7603  -30.5707   19.3929 H   0  0  0  0  0  0
  -22.7656  -29.2253   19.8604 H   0  0  0  0  0  0
  -25.1296  -36.1887   25.0813 H   0  0  0  0  0  0
  -20.9982  -28.3240   24.1386 H   0  0  0  0  0  0
  -20.5596  -26.2276   23.3612 H   0  0  0  0  0  0
  -21.6629  -26.7354   22.1238 H   0  0  0  0  0  0
  -19.6886  -25.6273   21.1228 H   0  0  0  0  0  0
  -19.6688  -27.3168   20.6726 H   0  0  0  0  0  0
  -17.4180  -26.6645   21.4027 H   0  0  0  0  0  0
  -18.0326  -26.0058   22.9016 H   0  0  0  0  0  0
  -19.7940  -30.7274   24.2199 H   0  0  0  0  0  0
  -17.5019  -31.6247   24.5166 H   0  0  0  0  0  0
  -15.5351  -30.2960   23.7676 H   0  0  0  0  0  0
  -15.8678  -28.0826   22.7040 H   0  0  0  0  0  0
  -24.5857  -30.7101   25.7770 H   0  0  0  0  0  0
  -24.8885  -32.2933   26.4807 H   0  0  0  0  0  0
  -25.7989  -30.8959   27.0235 H   0  0  0  0  0  0
  -26.2953  -29.6694   24.1235 H   0  0  0  0  0  0
  -27.3936  -29.7258   25.4814 H   0  0  0  0  0  0
  -27.8857  -30.4199   23.9561 H   0  0  0  0  0  0
  -27.2600  -33.3624   26.2032 H   0  0  0  0  0  0
  -28.3834  -32.6874   25.0344 H   0  0  0  0  0  0
  -28.0656  -31.8480   26.5434 H   0  0  0  0  0  0
  -28.2559  -38.0107   24.7490 H   0  0  0  0  0  0
  -28.1091  -36.2632   24.6280 H   0  0  0  0  0  0
  -27.2293  -37.1439   25.8855 H   0  0  0  0  0  0
  -20.9358  -29.8794   21.6913 H   0  0  0  0  0  0
  -26.0149  -38.2819   24.1402 H   0  0  0  0  0  0
  -31.2288  -22.8746   18.8299 H   0  0  0  0  0  0
  -33.6546  -18.2128   19.1539 H   0  0  0  0  0  0
  -33.8029  -19.2243   17.7224 H   0  0  0  0  0  0
  -33.6961  -17.4823   17.5573 H   0  0  0  0  0  0
  -30.1932  -18.1362   16.5778 H   0  0  0  0  0  0
  -31.6952  -17.3400   16.1646 H   0  0  0  0  0  0
  -31.5431  -19.0745   15.9475 H   0  0  0  0  0  0
  -28.9027  -22.1468   21.4058 H   0  0  0  0  0  0
  -27.8521  -21.8429   20.0528 H   0  0  0  0  0  0
  -28.7503  -23.8530   18.8121 H   0  0  0  0  0  0
  -29.9689  -24.1234   20.0187 H   0  0  0  0  0  0
  -28.6592  -18.8617   20.7523 H   0  0  0  0  0  0
  -28.9950  -18.1263   19.2131 H   0  0  0  0  0  0
  -30.3022  -17.5646   21.8853 H   0  0  0  0  0  0
  -31.3807  -17.4148   20.5900 H   0  0  0  0  0  0
  -28.3230  -24.9399   21.6350 H   0  0  0  0  0  0
  -27.0367  -24.7041   20.5177 H   0  0  0  0  0  0
  -31.3794  -17.5484   18.5524 H   0  0  0  0  0  0
  -32.5259  -21.0313   17.8587 H   0  0  0  0  0  0
  -28.8972  -15.7066   20.8237 H   0  0  0  0  0  0
  1 25  1  0  0  0
  1 30  2  0  0  0
  1 84  1  0  0  0
  2  3  1  0  0  0
  2 25  1  0  0  0
  2 85  1  0  0  0
  2 86  1  0  0  0
  3  4  1  0  0  0
  3 87  1  0  0  0
  3 88  1  0  0  0
  4  5  1  0  0  0
  4 89  1  0  0  0
  4 90  1  0  0  0
  5  6  1  0  0  0
  5 26  1  0  0  0
  5 91  1  0  0  0
  6 25  1  0  0  0
  6 92  1  0  0  0
  6 93  1  0  0  0
  7  8  2  0  0  0
  7 26  1  0  0  0
  7 29  1  0  0  0
  8  9  1  0  0  0
  8 22  1  0  0  0
  9 10  1  0  0  0
  9 27  2  0  0  0
 10 11  2  0  0  0
 10 15  1  0  0  0
 11 12  1  0  0  0
 11 94  1  0  0  0
 12 13  2  0  0  0
 12 95  1  0  0  0
 13 14  1  0  0  0
 13 31  1  0  0  0
 14 15  2  0  0  0
 14 96  1  0  0  0
 15 97  1  0  0  0
 16 17  2  0  0  0
 16 21  1  0  0  0
 16 31  1  0  0  0
 17 18  1  0  0  0
 17 98  1  0  0  0
 18 19  2  0  0  0
 18 99  1  0  0  0
 19 20  1  0  0  0
 19 24  1  0  0  0
 20 21  2  0  0  0
 20100  1  0  0  0
 21 23  1  0  0  0
 22 28  1  0  0  0
 22 32  2  0  0  0
 26 27  1  0  0  0
 28101  1  0  0  0
 28102  1  0  0  0
 29103  1  0  0  0
 29104  1  0  0  0
 33 34  1  0  0  0
 33 66  1  0  0  0
 33 70  2  0  0  0
 34 36  1  0  0  0
 34 59  1  0  0  0
 34105  1  0  0  0
 35 44  2  0  0  0
 35 45  1  0  0  0
 35 68  1  0  0  0
 36 56  1  0  0  0
 36106  1  0  0  0
 37 39  1  0  0  0
 37 47  1  0  0  0
 37 66  1  0  0  0
 37107  1  0  0  0
 38 43  2  0  0  0
 38 46  1  0  0  0
 38 47  1  0  0  0
 39 64  1  0  0  0
 39 67  2  0  0  0
 40 52  1  0  0  0
 40 53  2  0  0  0
 40 58  1  0  0  0
 41108  1  0  0  0
 41109  1  0  0  0
 41110  1  0  0  0
 41 48  1  0  0  0
 42 43  1  0  0  0
 42 66  1  0  0  0
 42111  1  0  0  0
 42112  1  0  0  0
 43 44  1  0  0  0
 44113  1  0  0  0
 45 46  2  0  0  0
 45114  1  0  0  0
 46115  1  0  0  0
 47116  1  0  0  0
 47117  1  0  0  0
 48 56  1  0  0  0
 48 65  1  0  0  0
 48118  1  0  0  0
 49 50  1  0  0  0
 49 53  1  0  0  0
 49 64  1  0  0  0
 49119  1  0  0  0
 50 51  1  0  0  0
 50120  1  0  0  0
 50121  1  0  0  0
 51 52  1  0  0  0
 51122  1  0  0  0
 51123  1  0  0  0
 52124  1  0  0  0
 52125  1  0  0  0
 53 54  1  0  0  0
 54 55  2  0  0  0
 54126  1  0  0  0
 55 57  1  0  0  0
 55127  1  0  0  0
 56 69  2  0  0  0
 57 58  2  0  0  0
 57128  1  0  0  0
 58129  1  0  0  0
 59 60  1  0  0  0
 59 61  1  0  0  0
 59 62  1  0  0  0
 60130  1  0  0  0
 60131  1  0  0  0
 60132  1  0  0  0
 61133  1  0  0  0
 61134  1  0  0  0
 61135  1  0  0  0
 62136  1  0  0  0
 62137  1  0  0  0
 62138  1  0  0  0
 63 65  1  0  0  0
 63139  1  0  0  0
 63140  1  0  0  0
 63141  1  0  0  0
 64142  1  0  0  0
 65143  1  0  0  0
 68 80  1  0  0  0
 71 72  2  0  0  0
 71 83  1  0  0  0
 71144  1  0  0  0
 72 76  1  0  0  0
 72 82  1  0  0  0
 73 81  1  0  0  0
 73 82  1  0  0  0
 73 83  2  0  0  0
 74145  1  0  0  0
 74146  1  0  0  0
 74147  1  0  0  0
 74 81  1  0  0  0
 75 81  1  0  0  0
 75148  1  0  0  0
 75149  1  0  0  0
 75150  1  0  0  0
 76 77  1  0  0  0
 76151  1  0  0  0
 76152  1  0  0  0
 77 80  1  0  0  0
 77153  1  0  0  0
 77154  1  0  0  0
 78 79  1  0  0  0
 78 82  1  0  0  0
 78155  1  0  0  0
 78156  1  0  0  0
 79 84  1  0  0  0
 79157  1  0  0  0
 79158  1  0  0  0
 80159  1  0  0  0
 80160  1  0  0  0
 81161  1  0  0  0
 83162  1  0  0  0
 84163  1  0  0  0
M  CHG  1  83   1
M  ISO  4   1 100  68 101  80 101  84 100
M  END
> <chiral flag>
0

> <version>
0

> <s_m_source_file>
/data/baiqing/PycharmProjects/Reinvent-master-3.2/result/LINK_invent/BTK/process_docking_weight1_custom_sum_contain_oxygen_bond_distance_aromatic_linkinvent_7_9_3/rearranged_h_0107.sdf

> <i_m_source_file_index>
49

> <r_mmod_Potential_Energy-OPLS-2005>
142.585189819336

> <r_mmod_Stretch_Energy-OPLS-2005>
142.312805175781

> <r_mmod_Bend_Energy-OPLS-2005>
200.591186523438

> <r_mmod_Torsional_Energy-OPLS-2005>
250.976623535156

> <r_mmod_Improper_Torsional_Energy-OPLS-2005>
5.44258594512939

> <r_mmod_Van_der_Waal_Energy-OPLS-2005>
122.904632568359

> <r_mmod_Electrostatic_Energy-OPLS-2005>
-241.450210571289

> <r_mmod_Solvation_Energy-OPLS-2005>
-414.662200927734

> <b_mmod_Minimization_Converged-OPLS-2005>
0

> <r_mmod_RMS_Derivative-OPLS-2005>
4.9746470451355

$$$$
50
                    3D
 Structure written by MMmdl.
161169  0  0  1  0            999 V2000
  -30.6038  -14.7432   20.4782 C   0  0  0  0  0  0
  -30.4322  -12.4628   19.4589 C   0  0  0  0  0  0
  -29.5047  -12.5085   18.2259 C   0  0  0  0  0  0
  -28.0285  -12.3348   18.6417 C   0  0  0  0  0  0
  -27.6361  -13.2303   19.8487 C   0  0  2  0  0  0
  -28.6855  -13.1514   20.9770 C   0  0  0  0  0  0
  -25.2441  -13.8186   20.5699 C   0  0  0  0  0  0
  -24.1765  -13.0424   20.9258 C   0  0  0  0  0  0
  -24.6350  -11.6915   20.8728 C   0  0  0  0  0  0
  -23.9015  -10.4300   21.0364 C   0  0  0  0  0  0
  -24.3585   -9.4232   21.9140 C   0  0  0  0  0  0
  -23.6293   -8.2230   22.0710 C   0  0  0  0  0  0
  -22.4256   -8.0262   21.3517 C   0  0  0  0  0  0
  -21.9887   -9.0218   20.4587 C   0  0  0  0  0  0
  -22.7188  -10.2116   20.3010 C   0  0  0  0  0  0
  -21.6835   -6.0737   22.5282 C   0  0  0  0  0  0
  -21.4004   -6.5641   23.8233 C   0  0  0  0  0  0
  -21.3666   -5.6780   24.9185 C   0  0  0  0  0  0
  -21.6054   -4.3049   24.7233 C   0  0  0  0  0  0
  -21.8811   -3.8139   23.4341 C   0  0  0  0  0  0
  -21.9179   -4.6961   22.3404 C   0  0  0  0  0  0
  -22.7789  -13.5193   21.1908 C   0  0  0  0  0  0
  -22.1628   -4.2157   21.0978 F   0  0  0  0  0  0
  -21.5644   -3.4530   25.7742 F   0  0  0  0  0  0
  -29.9798  -13.5193   20.3886 N   0  0  0  0  0  0
  -26.2878  -12.9391   20.3276 N   0  0  0  0  0  0
  -25.9285  -11.6538   20.5771 N   0  0  0  0  0  0
  -22.0418  -12.8168   22.0462 N   0  0  0  0  0  0
  -25.4042  -15.1927   20.4063 N   0  0  0  0  0  0
  -31.8028  -14.8578   20.2129 O   0  0  0  0  0  0
  -21.6603   -6.8872   21.4248 O   0  0  0  0  0  0
  -22.3473  -14.5479   20.6699 O   0  0  0  0  0  0
  -24.6322  -31.8585   23.2022 C   0  0  0  0  0  0
  -25.9155  -32.4776   23.8368 C   0  0  1  0  0  0
  -27.2105  -27.2601   20.1256 C   0  0  0  0  0  0
  -25.5954  -33.8574   24.2278 N   0  0  0  0  0  0
  -23.4282  -30.4843   21.5432 C   0  0  2  0  0  0
  -24.8736  -28.9386   20.1069 C   0  0  0  0  0  0
  -22.7529  -29.4618   22.4883 C   0  0  0  0  0  0
  -18.0320  -28.1406   22.8485 C   0  0  0  0  0  0
  -24.1493  -36.7286   23.2640 C   0  0  0  0  0  0
  -25.9767  -30.7729   21.3839 C   0  0  0  0  0  0
  -26.0461  -29.3956   20.7226 C   0  0  0  0  0  0
  -27.2170  -28.5684   20.7220 C   0  0  0  0  0  0
  -26.0163  -26.8849   19.4668 C   0  0  0  0  0  0
  -24.8647  -27.6927   19.4652 C   0  0  0  0  0  0
  -23.6481  -29.8311   20.1549 C   0  0  0  0  0  0
  -25.4123  -36.3069   24.0320 C   0  0  1  0  0  0
  -20.5930  -28.3714   23.1259 C   0  0  2  0  0  0
  -20.6796  -26.9429   22.5407 C   0  0  0  0  0  0
  -19.5760  -26.6390   21.5220 C   0  0  0  0  0  0
  -18.1948  -26.7944   22.1630 C   0  0  0  0  0  0
  -19.1575  -28.8877   23.2865 C   0  0  0  0  0  0
  -18.9479  -30.1483   23.8867 C   0  0  0  0  0  0
  -17.6467  -30.6580   24.0571 C   0  0  0  0  0  0
  -25.9064  -34.9447   23.5099 C   0  0  0  0  0  0
  -16.5369  -29.9071   23.6328 C   0  0  0  0  0  0
  -16.7308  -28.6515   23.0320 C   0  0  0  0  0  0
  -26.4503  -31.6603   25.0768 C   0  0  0  0  0  0
  -25.3712  -31.3745   26.1477 C   0  0  0  0  0  0
  -27.0357  -30.3021   24.6266 C   0  0  0  0  0  0
  -27.6066  -32.4334   25.7540 C   0  0  0  0  0  0
  -27.5580  -37.1798   24.8452 C   0  0  0  0  0  0
  -21.4242  -29.3062   22.3652 N   0  0  0  0  0  0
  -26.4274  -37.3765   23.9421 N   0  0  0  0  0  0
  -24.6989  -31.0566   22.0994 N   0  0  0  0  0  0
  -23.4238  -28.8168   23.2972 O   0  0  0  0  0  0
  -28.3009  -26.3546   20.1676 O   0  0  0  0  0  0
  -26.5620  -34.8915   22.4662 O   0  0  0  0  0  0
  -23.5465  -32.1410   23.7307 O   0  0  0  0  0  0
  -29.3264  -19.7906   20.8223 C   0  0  0  0  0  0
  -30.5637  -21.1613   19.2668 C   0  0  0  0  0  0
  -29.5360  -21.1049   20.2330 C   0  0  0  0  0  0
  -30.1106  -18.6205   20.4507 C   0  0  0  0  0  0
  -31.3081  -20.0114   18.9127 C   0  0  0  0  0  0
  -32.2085  -19.2103   16.6760 C   0  0  0  0  0  0
  -33.8125  -19.8292   18.5671 C   0  0  0  0  0  0
  -30.1716  -17.2354   21.2351 C   0  0  0  0  0  0
  -29.1497  -23.7406   20.2084 C   0  0  0  0  0  0
  -28.0163  -24.8851   20.3568 C   0  0  0  0  0  0
  -32.4502  -20.0977   17.9061 C   0  0  0  0  0  0
  -31.0571  -18.8133   19.5029 N   0  3  0  0  0  0
  -28.7908  -22.3046   20.5690 N   0  0  0  0  0  0
  -29.8167  -15.8643   20.6769 N   0  0  0  0  0  0
  -31.4702  -12.6033   19.1522 H   0  0  0  0  0  0
  -30.3886  -11.4877   19.9484 H   0  0  0  0  0  0
  -29.7942  -11.7402   17.5088 H   0  0  0  0  0  0
  -29.6280  -13.4598   17.7078 H   0  0  0  0  0  0
  -27.8762  -11.2868   18.9033 H   0  0  0  0  0  0
  -27.3675  -12.5368   17.7964 H   0  0  0  0  0  0
  -27.6272  -14.2568   19.4814 H   0  0  0  0  0  0
  -28.7342  -12.1468   21.3971 H   0  0  0  0  0  0
  -28.4234  -13.8096   21.8063 H   0  0  0  0  0  0
  -25.2726   -9.5736   22.4731 H   0  0  0  0  0  0
  -24.0016   -7.4617   22.7412 H   0  0  0  0  0  0
  -21.0815   -8.8699   19.8890 H   0  0  0  0  0  0
  -22.3599  -10.9643   19.6113 H   0  0  0  0  0  0
  -21.1997   -7.6151   23.9761 H   0  0  0  0  0  0
  -21.1491   -6.0497   25.9107 H   0  0  0  0  0  0
  -22.0588   -2.7598   23.2822 H   0  0  0  0  0  0
  -22.4063  -11.9858   22.4873 H   0  0  0  0  0  0
  -21.1026  -13.1143   22.2655 H   0  0  0  0  0  0
  -24.6283  -15.8325   20.5298 H   0  0  0  0  0  0
  -26.2290  -15.6447   20.0337 H   0  0  0  0  0  0
  -26.7258  -32.5416   23.1139 H   0  0  0  0  0  0
  -25.0107  -33.9734   25.0424 H   0  0  0  0  0  0
  -22.7232  -31.3087   21.4015 H   0  0  0  0  0  0
  -23.3750  -35.9615   23.3261 H   0  0  0  0  0  0
  -24.3597  -36.8956   22.2060 H   0  0  0  0  0  0
  -23.7243  -37.6477   23.6695 H   0  0  0  0  0  0
  -26.1197  -31.5361   20.6174 H   0  0  0  0  0  0
  -26.8509  -30.8152   22.0205 H   0  0  0  0  0  0
  -28.1136  -28.9110   21.2215 H   0  0  0  0  0  0
  -25.9383  -25.9541   18.9302 H   0  0  0  0  0  0
  -23.9730  -27.3476   18.9602 H   0  0  0  0  0  0
  -23.7823  -30.6152   19.4061 H   0  0  0  0  0  0
  -22.7632  -29.2754   19.8406 H   0  0  0  0  0  0
  -25.1299  -36.1894   25.0801 H   0  0  0  0  0  0
  -21.0037  -28.3284   24.1363 H   0  0  0  0  0  0
  -20.5699  -26.2327   23.3616 H   0  0  0  0  0  0
  -21.6658  -26.7436   22.1186 H   0  0  0  0  0  0
  -19.6902  -25.6292   21.1256 H   0  0  0  0  0  0
  -19.6689  -27.3193   20.6746 H   0  0  0  0  0  0
  -17.4224  -26.6728   21.4021 H   0  0  0  0  0  0
  -18.0319  -26.0088   22.9023 H   0  0  0  0  0  0
  -19.7956  -30.7345   24.2180 H   0  0  0  0  0  0
  -17.5009  -31.6250   24.5204 H   0  0  0  0  0  0
  -15.5360  -30.2952   23.7659 H   0  0  0  0  0  0
  -15.8725  -28.0842   22.6970 H   0  0  0  0  0  0
  -24.5891  -30.7095   25.7792 H   0  0  0  0  0  0
  -24.8885  -32.2898   26.4908 H   0  0  0  0  0  0
  -25.8001  -30.8915   27.0263 H   0  0  0  0  0  0
  -26.2951  -29.6770   24.1253 H   0  0  0  0  0  0
  -27.3999  -29.7294   25.4807 H   0  0  0  0  0  0
  -27.8845  -30.4314   23.9549 H   0  0  0  0  0  0
  -27.2701  -33.3648   26.2109 H   0  0  0  0  0  0
  -28.3874  -32.6871   25.0359 H   0  0  0  0  0  0
  -28.0732  -31.8458   26.5459 H   0  0  0  0  0  0
  -28.2547  -38.0142   24.7542 H   0  0  0  0  0  0
  -28.1125  -36.2669   24.6197 H   0  0  0  0  0  0
  -27.2318  -37.1349   25.8859 H   0  0  0  0  0  0
  -20.9424  -29.8821   21.6888 H   0  0  0  0  0  0
  -26.0140  -38.2831   24.1434 H   0  0  0  0  0  0
  -28.5902  -19.6825   21.6076 H   0  0  0  0  0  0
  -30.8052  -22.0947   18.7849 H   0  0  0  0  0  0
  -31.2546  -19.4448   16.2005 H   0  0  0  0  0  0
  -32.2143  -18.1516   16.9281 H   0  0  0  0  0  0
  -32.9855  -19.3660   15.9259 H   0  0  0  0  0  0
  -33.9952  -20.5271   19.3850 H   0  0  0  0  0  0
  -34.6308  -19.9482   17.8551 H   0  0  0  0  0  0
  -33.8785  -18.8197   18.9753 H   0  0  0  0  0  0
  -29.5601  -17.3699   22.1260 H   0  0  0  0  0  0
  -31.1871  -17.1577   21.6265 H   0  0  0  0  0  0
  -30.0005  -24.0228   20.8280 H   0  0  0  0  0  0
  -29.5076  -23.7681   19.1790 H   0  0  0  0  0  0
  -27.5848  -24.7860   21.3544 H   0  0  0  0  0  0
  -27.2297  -24.5678   19.6774 H   0  0  0  0  0  0
  -32.4758  -21.1283   17.5423 H   0  0  0  0  0  0
  -31.6590  -18.0239   19.2564 H   0  0  0  0  0  0
  -28.0334  -22.1976   21.2376 H   0  0  0  0  0  0
  -28.8277  -15.6705   20.6888 H   0  0  0  0  0  0
  1 25  1  0  0  0
  1 30  2  0  0  0
  1 84  1  0  0  0
  2  3  1  0  0  0
  2 25  1  0  0  0
  2 85  1  0  0  0
  2 86  1  0  0  0
  3  4  1  0  0  0
  3 87  1  0  0  0
  3 88  1  0  0  0
  4  5  1  0  0  0
  4 89  1  0  0  0
  4 90  1  0  0  0
  5  6  1  0  0  0
  5 26  1  0  0  0
  5 91  1  0  0  0
  6 25  1  0  0  0
  6 92  1  0  0  0
  6 93  1  0  0  0
  7  8  2  0  0  0
  7 26  1  0  0  0
  7 29  1  0  0  0
  8  9  1  0  0  0
  8 22  1  0  0  0
  9 10  1  0  0  0
  9 27  2  0  0  0
 10 11  2  0  0  0
 10 15  1  0  0  0
 11 12  1  0  0  0
 11 94  1  0  0  0
 12 13  2  0  0  0
 12 95  1  0  0  0
 13 14  1  0  0  0
 13 31  1  0  0  0
 14 15  2  0  0  0
 14 96  1  0  0  0
 15 97  1  0  0  0
 16 17  2  0  0  0
 16 21  1  0  0  0
 16 31  1  0  0  0
 17 18  1  0  0  0
 17 98  1  0  0  0
 18 19  2  0  0  0
 18 99  1  0  0  0
 19 20  1  0  0  0
 19 24  1  0  0  0
 20 21  2  0  0  0
 20100  1  0  0  0
 21 23  1  0  0  0
 22 28  1  0  0  0
 22 32  2  0  0  0
 26 27  1  0  0  0
 28101  1  0  0  0
 28102  1  0  0  0
 29103  1  0  0  0
 29104  1  0  0  0
 33 34  1  0  0  0
 33 66  1  0  0  0
 33 70  2  0  0  0
 34 36  1  0  0  0
 34 59  1  0  0  0
 34105  1  0  0  0
 35 44  2  0  0  0
 35 45  1  0  0  0
 35 68  1  0  0  0
 36 56  1  0  0  0
 36106  1  0  0  0
 37 39  1  0  0  0
 37 47  1  0  0  0
 37 66  1  0  0  0
 37107  1  0  0  0
 38 43  2  0  0  0
 38 46  1  0  0  0
 38 47  1  0  0  0
 39 64  1  0  0  0
 39 67  2  0  0  0
 40 52  1  0  0  0
 40 53  2  0  0  0
 40 58  1  0  0  0
 41108  1  0  0  0
 41109  1  0  0  0
 41110  1  0  0  0
 41 48  1  0  0  0
 42 43  1  0  0  0
 42 66  1  0  0  0
 42111  1  0  0  0
 42112  1  0  0  0
 43 44  1  0  0  0
 44113  1  0  0  0
 45 46  2  0  0  0
 45114  1  0  0  0
 46115  1  0  0  0
 47116  1  0  0  0
 47117  1  0  0  0
 48 56  1  0  0  0
 48 65  1  0  0  0
 48118  1  0  0  0
 49 50  1  0  0  0
 49 53  1  0  0  0
 49 64  1  0  0  0
 49119  1  0  0  0
 50 51  1  0  0  0
 50120  1  0  0  0
 50121  1  0  0  0
 51 52  1  0  0  0
 51122  1  0  0  0
 51123  1  0  0  0
 52124  1  0  0  0
 52125  1  0  0  0
 53 54  1  0  0  0
 54 55  2  0  0  0
 54126  1  0  0  0
 55 57  1  0  0  0
 55127  1  0  0  0
 56 69  2  0  0  0
 57 58  2  0  0  0
 57128  1  0  0  0
 58129  1  0  0  0
 59 60  1  0  0  0
 59 61  1  0  0  0
 59 62  1  0  0  0
 60130  1  0  0  0
 60131  1  0  0  0
 60132  1  0  0  0
 61133  1  0  0  0
 61134  1  0  0  0
 61135  1  0  0  0
 62136  1  0  0  0
 62137  1  0  0  0
 62138  1  0  0  0
 63 65  1  0  0  0
 63139  1  0  0  0
 63140  1  0  0  0
 63141  1  0  0  0
 64142  1  0  0  0
 65143  1  0  0  0
 68 80  1  0  0  0
 71 73  2  0  0  0
 71 74  1  0  0  0
 71144  1  0  0  0
 72 73  1  0  0  0
 72 75  2  0  0  0
 72145  1  0  0  0
 73 83  1  0  0  0
 74 78  1  0  0  0
 74 82  2  0  0  0
 75 81  1  0  0  0
 75 82  1  0  0  0
 76146  1  0  0  0
 76147  1  0  0  0
 76148  1  0  0  0
 76 81  1  0  0  0
 77 81  1  0  0  0
 77149  1  0  0  0
 77150  1  0  0  0
 77151  1  0  0  0
 78 84  1  0  0  0
 78152  1  0  0  0
 78153  1  0  0  0
 79 80  1  0  0  0
 79 83  1  0  0  0
 79154  1  0  0  0
 79155  1  0  0  0
 80156  1  0  0  0
 80157  1  0  0  0
 81158  1  0  0  0
 82159  1  0  0  0
 83160  1  0  0  0
 84161  1  0  0  0
M  CHG  1  82   1
M  ISO  4   1 100  68 101  80 101  84 100
M  END
> <chiral flag>
0

> <version>
0

> <s_m_source_file>
/data/baiqing/PycharmProjects/Reinvent-master-3.2/result/LINK_invent/BTK/process_docking_weight1_custom_sum_contain_oxygen_bond_distance_aromatic_linkinvent_7_9_3/rearranged_h_0107.sdf

> <i_m_source_file_index>
50

> <r_mmod_Potential_Energy-OPLS-2005>
-68.2180480957031

> <r_mmod_Stretch_Energy-OPLS-2005>
117.47777557373

> <r_mmod_Bend_Energy-OPLS-2005>
177.145874023438

> <r_mmod_Torsional_Energy-OPLS-2005>
202.58772277832

> <r_mmod_Improper_Torsional_Energy-OPLS-2005>
6.69226598739624

> <r_mmod_Van_der_Waal_Energy-OPLS-2005>
139.530639648438

> <r_mmod_Electrostatic_Energy-OPLS-2005>
-383.756591796875

> <r_mmod_Solvation_Energy-OPLS-2005>
-415.738952636719

> <b_mmod_Minimization_Converged-OPLS-2005>
0

> <r_mmod_RMS_Derivative-OPLS-2005>
4.32512998580933

$$$$
51
                    3D
 Structure written by MMmdl.
150158  0  0  1  0            999 V2000
  -30.5995  -14.7654   20.4460 C   0  0  0  0  0  0
  -30.4323  -12.4649   19.4837 C   0  0  0  0  0  0
  -29.5124  -12.5130   18.2436 C   0  0  0  0  0  0
  -28.0381  -12.3355   18.6544 C   0  0  0  0  0  0
  -27.6407  -13.2363   19.8542 C   0  0  2  0  0  0
  -28.6842  -13.1787   20.9918 C   0  0  0  0  0  0
  -25.2490  -13.8207   20.5700 C   0  0  0  0  0  0
  -24.1785  -13.0442   20.9202 C   0  0  0  0  0  0
  -24.6387  -11.6924   20.8750 C   0  0  0  0  0  0
  -23.9068  -10.4297   21.0399 C   0  0  0  0  0  0
  -24.3616   -9.4214   21.9178 C   0  0  0  0  0  0
  -23.6290   -8.2250   22.0754 C   0  0  0  0  0  0
  -22.4272   -8.0285   21.3549 C   0  0  0  0  0  0
  -21.9907   -9.0257   20.4650 C   0  0  0  0  0  0
  -22.7237  -10.2136   20.3054 C   0  0  0  0  0  0
  -21.6856   -6.0731   22.5275 C   0  0  0  0  0  0
  -21.4017   -6.5636   23.8209 C   0  0  0  0  0  0
  -21.3662   -5.6792   24.9171 C   0  0  0  0  0  0
  -21.6040   -4.3055   24.7222 C   0  0  0  0  0  0
  -21.8818   -3.8143   23.4345 C   0  0  0  0  0  0
  -21.9189   -4.6957   22.3399 C   0  0  0  0  0  0
  -22.7804  -13.5217   21.1851 C   0  0  0  0  0  0
  -22.1657   -4.2139   21.0979 F   0  0  0  0  0  0
  -21.5633   -3.4540   25.7739 F   0  0  0  0  0  0
  -29.9844  -13.5321   20.4101 N   0  0  0  0  0  0
  -26.2929  -12.9424   20.3303 N   0  0  0  0  0  0
  -25.9324  -11.6558   20.5768 N   0  0  0  0  0  0
  -22.0450  -12.8230   22.0424 N   0  0  0  0  0  0
  -25.4140  -15.1929   20.4108 N   0  0  0  0  0  0
  -31.7838  -14.8635   20.1132 O   0  0  0  0  0  0
  -21.6644   -6.8875   21.4238 O   0  0  0  0  0  0
  -22.3482  -14.5509   20.6682 O   0  0  0  0  0  0
  -24.6332  -31.8548   23.1971 C   0  0  0  0  0  0
  -25.9156  -32.4748   23.8317 C   0  0  1  0  0  0
  -27.2117  -27.2401   20.1292 C   0  0  0  0  0  0
  -25.5952  -33.8553   24.2246 N   0  0  0  0  0  0
  -23.4294  -30.4795   21.5405 C   0  0  2  0  0  0
  -24.8763  -28.9262   20.1057 C   0  0  0  0  0  0
  -22.7509  -29.4612   22.4891 C   0  0  0  0  0  0
  -18.0287  -28.1403   22.8485 C   0  0  0  0  0  0
  -24.1490  -36.7282   23.2637 C   0  0  0  0  0  0
  -25.9778  -30.7624   21.3786 C   0  0  0  0  0  0
  -26.0490  -29.3837   20.7192 C   0  0  0  0  0  0
  -27.2188  -28.5528   20.7202 C   0  0  0  0  0  0
  -26.0186  -26.8672   19.4682 C   0  0  0  0  0  0
  -24.8682  -27.6781   19.4671 C   0  0  0  0  0  0
  -23.6483  -29.8157   20.1556 C   0  0  0  0  0  0
  -25.4117  -36.3061   24.0320 C   0  0  1  0  0  0
  -20.5894  -28.3721   23.1266 C   0  0  2  0  0  0
  -20.6777  -26.9434   22.5412 C   0  0  0  0  0  0
  -19.5753  -26.6396   21.5215 C   0  0  0  0  0  0
  -18.1933  -26.7945   22.1626 C   0  0  0  0  0  0
  -19.1541  -28.8877   23.2872 C   0  0  0  0  0  0
  -18.9462  -30.1477   23.8892 C   0  0  0  0  0  0
  -17.6457  -30.6600   24.0568 C   0  0  0  0  0  0
  -25.9060  -34.9437   23.5078 C   0  0  0  0  0  0
  -16.5351  -29.9100   23.6329 C   0  0  0  0  0  0
  -16.7273  -28.6518   23.0349 C   0  0  0  0  0  0
  -26.4513  -31.6575   25.0713 C   0  0  0  0  0  0
  -25.3725  -31.3743   26.1422 C   0  0  0  0  0  0
  -27.0360  -30.2986   24.6210 C   0  0  0  0  0  0
  -27.6058  -32.4316   25.7501 C   0  0  0  0  0  0
  -27.5570  -37.1801   24.8462 C   0  0  0  0  0  0
  -21.4207  -29.3072   22.3652 N   0  0  0  0  0  0
  -26.4286  -37.3766   23.9402 N   0  0  0  0  0  0
  -24.7000  -31.0502   22.0954 N   0  0  0  0  0  0
  -23.4209  -28.8156   23.2991 O   0  0  0  0  0  0
  -28.2894  -26.3186   20.2154 O   0  0  0  0  0  0
  -26.5627  -34.8918   22.4646 O   0  0  0  0  0  0
  -23.5484  -32.1386   23.7258 O   0  0  0  0  0  0
  -27.6917  -19.7127   22.2956 C   0  0  0  0  0  0
  -27.9506  -20.9648   21.7074 C   0  0  0  0  0  0
  -28.3561  -18.5465   21.8620 C   0  0  0  0  0  0
  -29.3073  -18.6414   20.8115 C   0  0  0  0  0  0
  -28.8751  -21.0568   20.6576 C   0  0  0  0  0  0
  -30.1758  -17.3705   20.3412 C   0  0  0  0  0  0
  -28.0524  -24.8394   19.9701 C   0  0  0  0  0  0
  -28.9639  -23.6550   20.6135 C   0  0  0  0  0  0
  -29.5278  -19.8987   20.2245 N   0  0  0  0  0  0
  -29.8253  -15.9010   20.6298 N   0  0  0  0  0  0
  -29.0968  -22.2933   19.9780 O   0  0  0  0  0  0
  -27.9676  -17.0635   22.6631 Cl  0  0  0  0  0  0
  -31.4746  -12.5844   19.1838 H   0  0  0  0  0  0
  -30.3754  -11.4909   19.9717 H   0  0  0  0  0  0
  -29.7979  -11.7406   17.5282 H   0  0  0  0  0  0
  -29.6392  -13.4676   17.7309 H   0  0  0  0  0  0
  -27.8975  -11.2875   18.9194 H   0  0  0  0  0  0
  -27.3812  -12.5232   17.8044 H   0  0  0  0  0  0
  -27.6316  -14.2568   19.4708 H   0  0  0  0  0  0
  -28.7223  -12.1842   21.4382 H   0  0  0  0  0  0
  -28.4157  -13.8658   21.7958 H   0  0  0  0  0  0
  -25.2753   -9.5695   22.4759 H   0  0  0  0  0  0
  -23.9991   -7.4646   22.7486 H   0  0  0  0  0  0
  -21.0833   -8.8783   19.8963 H   0  0  0  0  0  0
  -22.3687  -10.9679   19.6171 H   0  0  0  0  0  0
  -21.2015   -7.6144   23.9711 H   0  0  0  0  0  0
  -21.1484   -6.0521   25.9075 H   0  0  0  0  0  0
  -22.0591   -2.7601   23.2851 H   0  0  0  0  0  0
  -22.4071  -11.9914   22.4848 H   0  0  0  0  0  0
  -21.1066  -13.1268   22.2623 H   0  0  0  0  0  0
  -24.6461  -15.8424   20.5381 H   0  0  0  0  0  0
  -26.2654  -15.6442   20.1046 H   0  0  0  0  0  0
  -26.7225  -32.5393   23.1060 H   0  0  0  0  0  0
  -25.0092  -33.9688   25.0385 H   0  0  0  0  0  0
  -22.7271  -31.3032   21.3948 H   0  0  0  0  0  0
  -23.3743  -35.9619   23.3296 H   0  0  0  0  0  0
  -24.3571  -36.8914   22.2048 H   0  0  0  0  0  0
  -23.7255  -37.6490   23.6666 H   0  0  0  0  0  0
  -26.1140  -31.5230   20.6083 H   0  0  0  0  0  0
  -26.8572  -30.8147   22.0091 H   0  0  0  0  0  0
  -28.1123  -28.8954   21.2232 H   0  0  0  0  0  0
  -25.9383  -25.9203   18.9568 H   0  0  0  0  0  0
  -23.9713  -27.3276   18.9751 H   0  0  0  0  0  0
  -23.7755  -30.5944   19.4029 H   0  0  0  0  0  0
  -22.7659  -29.2531   19.8450 H   0  0  0  0  0  0
  -25.1298  -36.1899   25.0812 H   0  0  0  0  0  0
  -20.9987  -28.3297   24.1386 H   0  0  0  0  0  0
  -20.5674  -26.2326   23.3618 H   0  0  0  0  0  0
  -21.6645  -26.7454   22.1209 H   0  0  0  0  0  0
  -19.6916  -25.6304   21.1250 H   0  0  0  0  0  0
  -19.6692  -27.3201   20.6739 H   0  0  0  0  0  0
  -17.4203  -26.6693   21.4028 H   0  0  0  0  0  0
  -18.0338  -26.0088   22.9024 H   0  0  0  0  0  0
  -19.7936  -30.7299   24.2256 H   0  0  0  0  0  0
  -17.5011  -31.6274   24.5182 H   0  0  0  0  0  0
  -15.5353  -30.3003   23.7652 H   0  0  0  0  0  0
  -15.8673  -28.0840   22.7059 H   0  0  0  0  0  0
  -24.5908  -30.7082   25.7750 H   0  0  0  0  0  0
  -24.8907  -32.2922   26.4800 H   0  0  0  0  0  0
  -25.8033  -30.8954   27.0222 H   0  0  0  0  0  0
  -26.2950  -29.6733   24.1216 H   0  0  0  0  0  0
  -27.4015  -29.7251   25.4738 H   0  0  0  0  0  0
  -27.8837  -30.4247   23.9470 H   0  0  0  0  0  0
  -27.2655  -33.3621   26.2054 H   0  0  0  0  0  0
  -28.3891  -32.6867   25.0351 H   0  0  0  0  0  0
  -28.0692  -31.8450   26.5444 H   0  0  0  0  0  0
  -28.2589  -38.0097   24.7490 H   0  0  0  0  0  0
  -28.1070  -36.2625   24.6308 H   0  0  0  0  0  0
  -27.2284  -37.1468   25.8867 H   0  0  0  0  0  0
  -20.9389  -29.8808   21.6871 H   0  0  0  0  0  0
  -26.0156  -38.2835   24.1413 H   0  0  0  0  0  0
  -26.9679  -19.6455   23.0946 H   0  0  0  0  0  0
  -27.4028  -21.8288   22.0535 H   0  0  0  0  0  0
  -30.2812  -17.4494   19.2588 H   0  0  0  0  0  0
  -31.1780  -17.5374   20.7363 H   0  0  0  0  0  0
  -27.0349  -24.5927   20.2736 H   0  0  0  0  0  0
  -28.0783  -24.7110   18.8874 H   0  0  0  0  0  0
  -28.7258  -23.5642   21.6722 H   0  0  0  0  0  0
  -29.9844  -24.0380   20.6087 H   0  0  0  0  0  0
  -28.8725  -15.7480   20.9258 H   0  0  0  0  0  0
  1 25  1  0  0  0
  1 30  2  0  0  0
  1 80  1  0  0  0
  2  3  1  0  0  0
  2 25  1  0  0  0
  2 83  1  0  0  0
  2 84  1  0  0  0
  3  4  1  0  0  0
  3 85  1  0  0  0
  3 86  1  0  0  0
  4  5  1  0  0  0
  4 87  1  0  0  0
  4 88  1  0  0  0
  5  6  1  0  0  0
  5 26  1  0  0  0
  5 89  1  0  0  0
  6 25  1  0  0  0
  6 90  1  0  0  0
  6 91  1  0  0  0
  7  8  2  0  0  0
  7 26  1  0  0  0
  7 29  1  0  0  0
  8  9  1  0  0  0
  8 22  1  0  0  0
  9 10  1  0  0  0
  9 27  2  0  0  0
 10 11  2  0  0  0
 10 15  1  0  0  0
 11 12  1  0  0  0
 11 92  1  0  0  0
 12 13  2  0  0  0
 12 93  1  0  0  0
 13 14  1  0  0  0
 13 31  1  0  0  0
 14 15  2  0  0  0
 14 94  1  0  0  0
 15 95  1  0  0  0
 16 17  2  0  0  0
 16 21  1  0  0  0
 16 31  1  0  0  0
 17 18  1  0  0  0
 17 96  1  0  0  0
 18 19  2  0  0  0
 18 97  1  0  0  0
 19 20  1  0  0  0
 19 24  1  0  0  0
 20 21  2  0  0  0
 20 98  1  0  0  0
 21 23  1  0  0  0
 22 28  1  0  0  0
 22 32  2  0  0  0
 26 27  1  0  0  0
 28 99  1  0  0  0
 28100  1  0  0  0
 29101  1  0  0  0
 29102  1  0  0  0
 33 34  1  0  0  0
 33 66  1  0  0  0
 33 70  2  0  0  0
 34 36  1  0  0  0
 34 59  1  0  0  0
 34103  1  0  0  0
 35 44  2  0  0  0
 35 45  1  0  0  0
 35 68  1  0  0  0
 36 56  1  0  0  0
 36104  1  0  0  0
 37 39  1  0  0  0
 37 47  1  0  0  0
 37 66  1  0  0  0
 37105  1  0  0  0
 38 43  2  0  0  0
 38 46  1  0  0  0
 38 47  1  0  0  0
 39 64  1  0  0  0
 39 67  2  0  0  0
 40 52  1  0  0  0
 40 53  2  0  0  0
 40 58  1  0  0  0
 41106  1  0  0  0
 41107  1  0  0  0
 41108  1  0  0  0
 41 48  1  0  0  0
 42 43  1  0  0  0
 42 66  1  0  0  0
 42109  1  0  0  0
 42110  1  0  0  0
 43 44  1  0  0  0
 44111  1  0  0  0
 45 46  2  0  0  0
 45112  1  0  0  0
 46113  1  0  0  0
 47114  1  0  0  0
 47115  1  0  0  0
 48 56  1  0  0  0
 48 65  1  0  0  0
 48116  1  0  0  0
 49 50  1  0  0  0
 49 53  1  0  0  0
 49 64  1  0  0  0
 49117  1  0  0  0
 50 51  1  0  0  0
 50118  1  0  0  0
 50119  1  0  0  0
 51 52  1  0  0  0
 51120  1  0  0  0
 51121  1  0  0  0
 52122  1  0  0  0
 52123  1  0  0  0
 53 54  1  0  0  0
 54 55  2  0  0  0
 54124  1  0  0  0
 55 57  1  0  0  0
 55125  1  0  0  0
 56 69  2  0  0  0
 57 58  2  0  0  0
 57126  1  0  0  0
 58127  1  0  0  0
 59 60  1  0  0  0
 59 61  1  0  0  0
 59 62  1  0  0  0
 60128  1  0  0  0
 60129  1  0  0  0
 60130  1  0  0  0
 61131  1  0  0  0
 61132  1  0  0  0
 61133  1  0  0  0
 62134  1  0  0  0
 62135  1  0  0  0
 62136  1  0  0  0
 63 65  1  0  0  0
 63137  1  0  0  0
 63138  1  0  0  0
 63139  1  0  0  0
 64140  1  0  0  0
 65141  1  0  0  0
 68 77  1  0  0  0
 71 72  2  0  0  0
 71 73  1  0  0  0
 71142  1  0  0  0
 72 75  1  0  0  0
 72143  1  0  0  0
 73 74  2  0  0  0
 73 82  1  0  0  0
 74 76  1  0  0  0
 74 79  1  0  0  0
 75 79  2  0  0  0
 75 81  1  0  0  0
 76 80  1  0  0  0
 76144  1  0  0  0
 76145  1  0  0  0
 77 78  1  0  0  0
 77146  1  0  0  0
 77147  1  0  0  0
 78 81  1  0  0  0
 78148  1  0  0  0
 78149  1  0  0  0
 80150  1  0  0  0
M  ISO  4   1 100  68 101  77 101  80 100
M  END
> <chiral flag>
0

> <version>
0

> <s_m_source_file>
/data/baiqing/PycharmProjects/Reinvent-master-3.2/result/LINK_invent/BTK/process_docking_weight1_custom_sum_contain_oxygen_bond_distance_aromatic_linkinvent_7_9_3/rearranged_h_0107.sdf

> <i_m_source_file_index>
51

> <r_mmod_Potential_Energy-OPLS-2005>
-44.9154090881348

> <r_mmod_Stretch_Energy-OPLS-2005>
139.390640258789

> <r_mmod_Bend_Energy-OPLS-2005>
184.896331787109

> <r_mmod_Torsional_Energy-OPLS-2005>
208.460006713867

> <r_mmod_Improper_Torsional_Energy-OPLS-2005>
5.4076976776123

> <r_mmod_Van_der_Waal_Energy-OPLS-2005>
142.7177734375

> <r_mmod_Electrostatic_Energy-OPLS-2005>
-605.0107421875

> <r_mmod_Solvation_Energy-OPLS-2005>
-219.475479125977

> <b_mmod_Minimization_Converged-OPLS-2005>
0

> <r_mmod_RMS_Derivative-OPLS-2005>
1.30093705654144

$$$$
53
                    3D
 Structure written by MMmdl.
179187  0  0  1  0            999 V2000
  -30.7340  -14.5144   20.5506 C   0  0  0  0  0  0
  -30.4087  -12.3240   19.4434 C   0  0  0  0  0  0
  -29.4935  -12.5168   18.2197 C   0  0  0  0  0  0
  -28.0187  -12.3628   18.6335 C   0  0  0  0  0  0
  -27.6635  -13.2119   19.8846 C   0  0  2  0  0  0
  -28.7152  -13.0164   21.0086 C   0  0  0  0  0  0
  -25.2567  -13.8169   20.5709 C   0  0  0  0  0  0
  -24.1820  -13.0435   20.9212 C   0  0  0  0  0  0
  -24.6397  -11.6909   20.8776 C   0  0  0  0  0  0
  -23.9067  -10.4289   21.0408 C   0  0  0  0  0  0
  -24.3627   -9.4208   21.9180 C   0  0  0  0  0  0
  -23.6297   -8.2254   22.0757 C   0  0  0  0  0  0
  -22.4272   -8.0296   21.3552 C   0  0  0  0  0  0
  -21.9912   -9.0262   20.4640 C   0  0  0  0  0  0
  -22.7246  -10.2136   20.3044 C   0  0  0  0  0  0
  -21.6834   -6.0752   22.5282 C   0  0  0  0  0  0
  -21.4004   -6.5645   23.8224 C   0  0  0  0  0  0
  -21.3661   -5.6789   24.9180 C   0  0  0  0  0  0
  -21.6062   -4.3056   24.7215 C   0  0  0  0  0  0
  -21.8824   -3.8159   23.4328 C   0  0  0  0  0  0
  -21.9191   -4.6984   22.3394 C   0  0  0  0  0  0
  -22.7831  -13.5226   21.1853 C   0  0  0  0  0  0
  -22.1656   -4.2178   21.0968 F   0  0  0  0  0  0
  -21.5629   -3.4539   25.7724 F   0  0  0  0  0  0
  -30.0341  -13.3406   20.4534 N   0  0  0  0  0  0
  -26.3037  -12.9364   20.3445 N   0  0  0  0  0  0
  -25.9338  -11.6522   20.5853 N   0  0  0  0  0  0
  -22.0438  -12.8241   22.0403 N   0  0  0  0  0  0
  -25.4248  -15.1879   20.4053 N   0  0  0  0  0  0
  -31.7979  -14.5930   19.9291 O   0  0  0  0  0  0
  -21.6629   -6.8896   21.4244 O   0  0  0  0  0  0
  -22.3532  -14.5533   20.6694 O   0  0  0  0  0  0
  -24.6168  -31.8677   23.2053 C   0  0  0  0  0  0
  -25.9033  -32.4823   23.8395 C   0  0  1  0  0  0
  -27.2346  -27.4108   20.1059 C   0  0  0  0  0  0
  -25.5896  -33.8618   24.2329 N   0  0  0  0  0  0
  -23.4080  -30.4899   21.5442 C   0  0  2  0  0  0
  -24.8585  -28.9483   20.1172 C   0  0  0  0  0  0
  -22.7433  -29.4631   22.4927 C   0  0  0  0  0  0
  -18.0286  -28.1366   22.8440 C   0  0  0  0  0  0
  -24.1495  -36.7316   23.2643 C   0  0  0  0  0  0
  -25.9410  -30.8257   21.3643 C   0  0  0  0  0  0
  -26.0204  -29.4582   20.7107 C   0  0  0  0  0  0
  -27.2159  -28.6982   20.6950 C   0  0  0  0  0  0
  -26.0560  -26.9181   19.5108 C   0  0  0  0  0  0
  -24.8730  -27.6784   19.5132 C   0  0  0  0  0  0
  -23.6229  -29.8190   20.1619 C   0  0  0  0  0  0
  -25.4107  -36.3114   24.0351 C   0  0  1  0  0  0
  -20.5886  -28.3653   23.1277 C   0  0  2  0  0  0
  -20.6764  -26.9388   22.5371 C   0  0  0  0  0  0
  -19.5759  -26.6369   21.5161 C   0  0  0  0  0  0
  -18.1937  -26.7906   22.1580 C   0  0  0  0  0  0
  -19.1540  -28.8827   23.2862 C   0  0  0  0  0  0
  -18.9484  -30.1427   23.8888 C   0  0  0  0  0  0
  -17.6494  -30.6569   24.0541 C   0  0  0  0  0  0
  -25.9038  -34.9472   23.5151 C   0  0  0  0  0  0
  -16.5364  -29.9077   23.6319 C   0  0  0  0  0  0
  -16.7281  -28.6501   23.0307 C   0  0  0  0  0  0
  -26.4464  -31.6617   25.0735 C   0  0  0  0  0  0
  -25.3699  -31.3727   26.1461 C   0  0  0  0  0  0
  -27.0304  -30.3080   24.6119 C   0  0  0  0  0  0
  -27.6073  -32.4318   25.7456 C   0  0  0  0  0  0
  -27.5586  -37.1790   24.8466 C   0  0  0  0  0  0
  -21.4160  -29.3029   22.3671 N   0  0  0  0  0  0
  -26.4292  -37.3790   23.9421 N   0  0  0  0  0  0
  -24.6727  -31.0768   22.0959 N   0  0  0  0  0  0
  -23.4195  -28.8159   23.2968 O   0  0  0  0  0  0
  -28.3788  -26.6392   20.1001 O   0  0  0  0  0  0
  -26.5583  -34.8914   22.4689 O   0  0  0  0  0  0
  -23.5335  -32.1427   23.7423 O   0  0  0  0  0  0
  -32.3619  -18.7709   20.1733 C   0  0  0  0  0  0
  -31.1041  -18.3007   20.4414 C   0  0  0  0  0  0
  -31.2907  -16.9938   21.0731 C   0  0  0  0  0  0
  -32.6384  -16.9175   21.3745 C   0  0  0  0  0  0
  -33.4134  -15.8811   22.1366 C   0  0  0  0  0  0
  -28.8489  -16.2564   21.1620 C   0  0  0  0  0  0
  -36.6547  -17.2489   18.8713 C   0  0  0  0  0  0
  -34.2776  -17.0740   18.0287 C   0  0  0  0  0  0
  -30.5733  -20.8686   21.7680 C   0  0  0  0  0  0
  -29.8706  -19.1069   19.9705 C   0  0  0  0  0  0
  -34.7423  -17.9874   20.4138 C   0  0  0  0  0  0
  -28.5269  -24.1170   19.8427 C   0  0  0  0  0  0
  -29.0513  -21.6100   19.8521 C   0  0  0  0  0  0
  -28.2746  -25.3537   20.7600 C   0  0  0  0  0  0
  -30.3057  -15.8089   21.3665 C   0  0  1  0  0  0
  -35.1901  -17.0298   19.2728 C   0  0  0  0  0  0
  -29.4859  -20.4107   20.7720 C   0  0  2  0  0  0
  -33.3032  -17.9008   20.6670 N   0  0  0  0  0  0
  -28.6301  -22.8314   20.6090 N   0  3  0  0  0  0
  -31.4561  -12.3709   19.1422 H   0  0  0  0  0  0
  -30.2808  -11.3222   19.8553 H   0  0  0  0  0  0
  -29.7467  -11.7948   17.4427 H   0  0  0  0  0  0
  -29.6536  -13.5047   17.7852 H   0  0  0  0  0  0
  -27.8463  -11.3060   18.8471 H   0  0  0  0  0  0
  -27.3635  -12.6221   17.8010 H   0  0  0  0  0  0
  -27.6953  -14.2514   19.5623 H   0  0  0  0  0  0
  -28.7099  -11.9760   21.3357 H   0  0  0  0  0  0
  -28.4964  -13.5862   21.9077 H   0  0  0  0  0  0
  -25.2776   -9.5680   22.4756 H   0  0  0  0  0  0
  -24.0011   -7.4634   22.7464 H   0  0  0  0  0  0
  -21.0863   -8.8791   19.8927 H   0  0  0  0  0  0
  -22.3722  -10.9694   19.6160 H   0  0  0  0  0  0
  -21.1989   -7.6152   23.9735 H   0  0  0  0  0  0
  -21.1473   -6.0512   25.9086 H   0  0  0  0  0  0
  -22.0600   -2.7624   23.2813 H   0  0  0  0  0  0
  -22.4027  -11.9915   22.4845 H   0  0  0  0  0  0
  -21.1036  -13.1285   22.2524 H   0  0  0  0  0  0
  -24.6573  -15.8438   20.4993 H   0  0  0  0  0  0
  -26.2870  -15.6281   20.1089 H   0  0  0  0  0  0
  -26.7103  -32.5557   23.1162 H   0  0  0  0  0  0
  -24.9988  -33.9767   25.0454 H   0  0  0  0  0  0
  -22.6974  -31.3079   21.3976 H   0  0  0  0  0  0
  -23.3759  -35.9649   23.3302 H   0  0  0  0  0  0
  -24.3586  -36.8929   22.2056 H   0  0  0  0  0  0
  -23.7253  -37.6523   23.6662 H   0  0  0  0  0  0
  -26.0522  -31.5888   20.5917 H   0  0  0  0  0  0
  -26.8291  -30.8837   21.9840 H   0  0  0  0  0  0
  -28.1142  -29.0819   21.1623 H   0  0  0  0  0  0
  -26.0499  -25.9400   19.0494 H   0  0  0  0  0  0
  -23.9829  -27.2697   19.0524 H   0  0  0  0  0  0
  -23.7415  -30.5960   19.4043 H   0  0  0  0  0  0
  -22.7505  -29.2393   19.8560 H   0  0  0  0  0  0
  -25.1279  -36.1973   25.0849 H   0  0  0  0  0  0
  -20.9990  -28.3236   24.1388 H   0  0  0  0  0  0
  -20.5634  -26.2281   23.3573 H   0  0  0  0  0  0
  -21.6633  -26.7371   22.1185 H   0  0  0  0  0  0
  -19.6935  -25.6273   21.1208 H   0  0  0  0  0  0
  -19.6732  -27.3145   20.6660 H   0  0  0  0  0  0
  -17.4185  -26.6620   21.4003 H   0  0  0  0  0  0
  -18.0378  -26.0041   22.8988 H   0  0  0  0  0  0
  -19.7953  -30.7216   24.2270 H   0  0  0  0  0  0
  -17.5040  -31.6264   24.5138 H   0  0  0  0  0  0
  -15.5364  -30.2980   23.7669 H   0  0  0  0  0  0
  -15.8649  -28.0848   22.7015 H   0  0  0  0  0  0
  -24.5873  -30.7094   25.7762 H   0  0  0  0  0  0
  -24.8875  -32.2883   26.4910 H   0  0  0  0  0  0
  -25.7985  -30.8862   27.0238 H   0  0  0  0  0  0
  -26.2852  -29.6825   24.1192 H   0  0  0  0  0  0
  -27.4109  -29.7342   25.4587 H   0  0  0  0  0  0
  -27.8684  -30.4437   23.9259 H   0  0  0  0  0  0
  -27.2775  -33.3635   26.2072 H   0  0  0  0  0  0
  -28.3844  -32.6846   25.0217 H   0  0  0  0  0  0
  -28.0814  -31.8423   26.5329 H   0  0  0  0  0  0
  -28.2565  -38.0113   24.7505 H   0  0  0  0  0  0
  -28.1102  -36.2633   24.6286 H   0  0  0  0  0  0
  -27.2298  -37.1427   25.8863 H   0  0  0  0  0  0
  -20.9301  -29.8859   21.6994 H   0  0  0  0  0  0
  -26.0191  -38.2868   24.1429 H   0  0  0  0  0  0
  -32.6713  -19.6520   19.6237 H   0  0  0  0  0  0
  -32.7582  -15.2275   22.7101 H   0  0  0  0  0  0
  -34.1100  -16.3342   22.8421 H   0  0  0  0  0  0
  -33.9834  -15.2486   21.4589 H   0  0  0  0  0  0
  -28.6775  -17.2221   21.6354 H   0  0  0  0  0  0
  -28.1280  -15.6010   21.6362 H   0  0  0  0  0  0
  -28.6015  -16.3277   20.1042 H   0  0  0  0  0  0
  -36.9678  -16.5233   18.1191 H   0  0  0  0  0  0
  -37.3220  -17.1352   19.7256 H   0  0  0  0  0  0
  -36.8108  -18.2410   18.4501 H   0  0  0  0  0  0
  -34.6525  -16.4317   17.2313 H   0  0  0  0  0  0
  -34.2044  -18.0856   17.6290 H   0  0  0  0  0  0
  -33.2671  -16.7324   18.2617 H   0  0  0  0  0  0
  -30.8929  -20.0549   22.4186 H   0  0  0  0  0  0
  -30.2159  -21.6632   22.4239 H   0  0  0  0  0  0
  -31.4525  -21.2449   21.2449 H   0  0  0  0  0  0
  -28.9903  -18.4867   19.8328 H   0  0  0  0  0  0
  -30.1120  -19.4118   18.9510 H   0  0  0  0  0  0
  -34.9835  -19.0188   20.1495 H   0  0  0  0  0  0
  -35.2944  -17.7735   21.3316 H   0  0  0  0  0  0
  -29.4563  -24.2788   19.2981 H   0  0  0  0  0  0
  -27.7349  -24.0380   19.0970 H   0  0  0  0  0  0
  -28.2277  -21.2983   19.2061 H   0  0  0  0  0  0
  -29.8786  -21.8710   19.1900 H   0  0  0  0  0  0
  -29.0219  -25.3541   21.5545 H   0  0  0  0  0  0
  -27.3175  -25.2437   21.2727 H   0  0  0  0  0  0
  -30.4169  -15.5626   22.4232 H   0  0  0  0  0  0
  -35.1403  -16.0152   19.6659 H   0  0  0  0  0  0
  -28.6244  -20.1296   21.3807 H   0  0  0  0  0  0
  -29.3157  -22.9649   21.3365 H   0  0  0  0  0  0
  -27.7468  -22.6397   21.0569 H   0  0  0  0  0  0
  1 25  1  0  0  0
  1 30  2  0  0  0
  1 85  1  0  0  0
  2  3  1  0  0  0
  2 25  1  0  0  0
  2 90  1  0  0  0
  2 91  1  0  0  0
  3  4  1  0  0  0
  3 92  1  0  0  0
  3 93  1  0  0  0
  4  5  1  0  0  0
  4 94  1  0  0  0
  4 95  1  0  0  0
  5  6  1  0  0  0
  5 26  1  0  0  0
  5 96  1  0  0  0
  6 25  1  0  0  0
  6 97  1  0  0  0
  6 98  1  0  0  0
  7  8  2  0  0  0
  7 26  1  0  0  0
  7 29  1  0  0  0
  8  9  1  0  0  0
  8 22  1  0  0  0
  9 10  1  0  0  0
  9 27  2  0  0  0
 10 11  2  0  0  0
 10 15  1  0  0  0
 11 12  1  0  0  0
 11 99  1  0  0  0
 12 13  2  0  0  0
 12100  1  0  0  0
 13 14  1  0  0  0
 13 31  1  0  0  0
 14 15  2  0  0  0
 14101  1  0  0  0
 15102  1  0  0  0
 16 17  2  0  0  0
 16 21  1  0  0  0
 16 31  1  0  0  0
 17 18  1  0  0  0
 17103  1  0  0  0
 18 19  2  0  0  0
 18104  1  0  0  0
 19 20  1  0  0  0
 19 24  1  0  0  0
 20 21  2  0  0  0
 20105  1  0  0  0
 21 23  1  0  0  0
 22 28  1  0  0  0
 22 32  2  0  0  0
 26 27  1  0  0  0
 28106  1  0  0  0
 28107  1  0  0  0
 29108  1  0  0  0
 29109  1  0  0  0
 33 34  1  0  0  0
 33 66  1  0  0  0
 33 70  2  0  0  0
 34 36  1  0  0  0
 34 59  1  0  0  0
 34110  1  0  0  0
 35 44  2  0  0  0
 35 45  1  0  0  0
 35 68  1  0  0  0
 36 56  1  0  0  0
 36111  1  0  0  0
 37 39  1  0  0  0
 37 47  1  0  0  0
 37 66  1  0  0  0
 37112  1  0  0  0
 38 43  2  0  0  0
 38 46  1  0  0  0
 38 47  1  0  0  0
 39 64  1  0  0  0
 39 67  2  0  0  0
 40 52  1  0  0  0
 40 53  2  0  0  0
 40 58  1  0  0  0
 41113  1  0  0  0
 41114  1  0  0  0
 41115  1  0  0  0
 41 48  1  0  0  0
 42 43  1  0  0  0
 42 66  1  0  0  0
 42116  1  0  0  0
 42117  1  0  0  0
 43 44  1  0  0  0
 44118  1  0  0  0
 45 46  2  0  0  0
 45119  1  0  0  0
 46120  1  0  0  0
 47121  1  0  0  0
 47122  1  0  0  0
 48 56  1  0  0  0
 48 65  1  0  0  0
 48123  1  0  0  0
 49 50  1  0  0  0
 49 53  1  0  0  0
 49 64  1  0  0  0
 49124  1  0  0  0
 50 51  1  0  0  0
 50125  1  0  0  0
 50126  1  0  0  0
 51 52  1  0  0  0
 51127  1  0  0  0
 51128  1  0  0  0
 52129  1  0  0  0
 52130  1  0  0  0
 53 54  1  0  0  0
 54 55  2  0  0  0
 54131  1  0  0  0
 55 57  1  0  0  0
 55132  1  0  0  0
 56 69  2  0  0  0
 57 58  2  0  0  0
 57133  1  0  0  0
 58134  1  0  0  0
 59 60  1  0  0  0
 59 61  1  0  0  0
 59 62  1  0  0  0
 60135  1  0  0  0
 60136  1  0  0  0
 60137  1  0  0  0
 61138  1  0  0  0
 61139  1  0  0  0
 61140  1  0  0  0
 62141  1  0  0  0
 62142  1  0  0  0
 62143  1  0  0  0
 63 65  1  0  0  0
 63144  1  0  0  0
 63145  1  0  0  0
 63146  1  0  0  0
 64147  1  0  0  0
 65148  1  0  0  0
 68 84  1  0  0  0
 71 72  2  0  0  0
 71 88  1  0  0  0
 71149  1  0  0  0
 72 73  1  0  0  0
 72 80  1  0  0  0
 73 74  2  0  0  0
 73 85  1  0  0  0
 74 75  1  0  0  0
 74 88  1  0  0  0
 75150  1  0  0  0
 75151  1  0  0  0
 75152  1  0  0  0
 76153  1  0  0  0
 76154  1  0  0  0
 76155  1  0  0  0
 76 85  1  0  0  0
 77156  1  0  0  0
 77157  1  0  0  0
 77158  1  0  0  0
 77 86  1  0  0  0
 78 86  1  0  0  0
 78159  1  0  0  0
 78160  1  0  0  0
 78161  1  0  0  0
 79162  1  0  0  0
 79163  1  0  0  0
 79164  1  0  0  0
 79 87  1  0  0  0
 80 87  1  0  0  0
 80165  1  0  0  0
 80166  1  0  0  0
 81 86  1  0  0  0
 81 88  1  0  0  0
 81167  1  0  0  0
 81168  1  0  0  0
 82 84  1  0  0  0
 82 89  1  0  0  0
 82169  1  0  0  0
 82170  1  0  0  0
 83 87  1  0  0  0
 83 89  1  0  0  0
 83171  1  0  0  0
 83172  1  0  0  0
 84173  1  0  0  0
 84174  1  0  0  0
 85175  1  0  0  0
 86176  1  0  0  0
 87177  1  0  0  0
 89178  1  0  0  0
 89179  1  0  0  0
M  CHG  1  89   1
M  ISO  4   1 100  68 101  84 101  85 100
M  END
> <chiral flag>
0

> <version>
0

> <s_m_source_file>
/data/baiqing/PycharmProjects/Reinvent-master-3.2/result/LINK_invent/BTK/process_docking_weight1_custom_sum_contain_oxygen_bond_distance_aromatic_linkinvent_7_9_3/rearranged_h_0107.sdf

> <i_m_source_file_index>
52

> <r_mmod_Potential_Energy-OPLS-2005>
-9.906081199646

> <r_mmod_Stretch_Energy-OPLS-2005>
62.3154907226562

> <r_mmod_Bend_Energy-OPLS-2005>
139.720275878906

> <r_mmod_Torsional_Energy-OPLS-2005>
237.001434326172

> <r_mmod_Improper_Torsional_Energy-OPLS-2005>
3.10088777542114

> <r_mmod_Van_der_Waal_Energy-OPLS-2005>
136.607666015625

> <r_mmod_Electrostatic_Energy-OPLS-2005>
-184.336929321289

> <r_mmod_Solvation_Energy-OPLS-2005>
-423.996429443359

> <b_mmod_Minimization_Converged-OPLS-2005>
0

> <r_mmod_RMS_Derivative-OPLS-2005>
4.10071086883545

$$$$
54
                    3D
 Structure written by MMmdl.
170178  0  0  1  0            999 V2000
  -30.5926  -14.7617   20.4662 C   0  0  0  0  0  0
  -30.4354  -12.4702   19.4649 C   0  0  0  0  0  0
  -29.5080  -12.5120   18.2305 C   0  0  0  0  0  0
  -28.0355  -12.3290   18.6478 C   0  0  0  0  0  0
  -27.6394  -13.2291   19.8484 C   0  0  2  0  0  0
  -28.6856  -13.1636   20.9808 C   0  0  0  0  0  0
  -25.2503  -13.8188   20.5691 C   0  0  0  0  0  0
  -24.1798  -13.0435   20.9211 C   0  0  0  0  0  0
  -24.6389  -11.6913   20.8752 C   0  0  0  0  0  0
  -23.9068  -10.4291   21.0411 C   0  0  0  0  0  0
  -24.3618   -9.4206   21.9188 C   0  0  0  0  0  0
  -23.6294   -8.2243   22.0757 C   0  0  0  0  0  0
  -22.4278   -8.0280   21.3545 C   0  0  0  0  0  0
  -21.9914   -9.0253   20.4646 C   0  0  0  0  0  0
  -22.7243  -10.2133   20.3057 C   0  0  0  0  0  0
  -21.6852   -6.0736   22.5278 C   0  0  0  0  0  0
  -21.4016   -6.5639   23.8210 C   0  0  0  0  0  0
  -21.3660   -5.6793   24.9174 C   0  0  0  0  0  0
  -21.6044   -4.3056   24.7225 C   0  0  0  0  0  0
  -21.8819   -3.8148   23.4345 C   0  0  0  0  0  0
  -21.9192   -4.6964   22.3402 C   0  0  0  0  0  0
  -22.7820  -13.5218   21.1871 C   0  0  0  0  0  0
  -22.1660   -4.2149   21.0978 F   0  0  0  0  0  0
  -21.5628   -3.4540   25.7738 F   0  0  0  0  0  0
  -29.9798  -13.5302   20.3931 N   0  0  0  0  0  0
  -26.2924  -12.9386   20.3272 N   0  0  0  0  0  0
  -25.9317  -11.6533   20.5751 N   0  0  0  0  0  0
  -22.0466  -12.8202   22.0421 N   0  0  0  0  0  0
  -25.4179  -15.1917   20.4093 N   0  0  0  0  0  0
  -31.7882  -14.8689   20.1820 O   0  0  0  0  0  0
  -21.6640   -6.8880   21.4240 O   0  0  0  0  0  0
  -22.3504  -14.5526   20.6723 O   0  0  0  0  0  0
  -24.6329  -31.8526   23.1938 C   0  0  0  0  0  0
  -25.9146  -32.4738   23.8298 C   0  0  1  0  0  0
  -27.2301  -27.2448   20.1271 C   0  0  0  0  0  0
  -25.5933  -33.8539   24.2232 N   0  0  0  0  0  0
  -23.4296  -30.4725   21.5384 C   0  0  2  0  0  0
  -24.8757  -28.9084   20.1132 C   0  0  0  0  0  0
  -22.7507  -29.4589   22.4912 C   0  0  0  0  0  0
  -18.0291  -28.1382   22.8478 C   0  0  0  0  0  0
  -24.1489  -36.7275   23.2640 C   0  0  0  0  0  0
  -25.9747  -30.7618   21.3715 C   0  0  0  0  0  0
  -26.0474  -29.3812   20.7151 C   0  0  0  0  0  0
  -27.2226  -28.5631   20.7043 C   0  0  0  0  0  0
  -26.0226  -26.8260   19.5299 C   0  0  0  0  0  0
  -24.8688  -27.6390   19.5120 C   0  0  0  0  0  0
  -23.6481  -29.7992   20.1567 C   0  0  0  0  0  0
  -25.4119  -36.3060   24.0323 C   0  0  1  0  0  0
  -20.5895  -28.3699   23.1267 C   0  0  2  0  0  0
  -20.6784  -26.9417   22.5409 C   0  0  0  0  0  0
  -19.5761  -26.6380   21.5212 C   0  0  0  0  0  0
  -18.1936  -26.7922   22.1619 C   0  0  0  0  0  0
  -19.1545  -28.8859   23.2862 C   0  0  0  0  0  0
  -18.9469  -30.1459   23.8885 C   0  0  0  0  0  0
  -17.6470  -30.6585   24.0561 C   0  0  0  0  0  0
  -25.9061  -34.9431   23.5086 C   0  0  0  0  0  0
  -16.5360  -29.9084   23.6331 C   0  0  0  0  0  0
  -16.7278  -28.6500   23.0353 C   0  0  0  0  0  0
  -26.4509  -31.6568   25.0697 C   0  0  0  0  0  0
  -25.3722  -31.3713   26.1409 C   0  0  0  0  0  0
  -27.0374  -30.2988   24.6192 C   0  0  0  0  0  0
  -27.6052  -32.4319   25.7483 C   0  0  0  0  0  0
  -27.5577  -37.1795   24.8463 C   0  0  0  0  0  0
  -21.4214  -29.3038   22.3655 N   0  0  0  0  0  0
  -26.4289  -37.3765   23.9406 N   0  0  0  0  0  0
  -24.6984  -31.0475   22.0914 N   0  0  0  0  0  0
  -23.4201  -28.8149   23.3032 O   0  0  0  0  0  0
  -28.3760  -26.4122   20.1888 O   0  0  0  0  0  0
  -26.5640  -34.8915   22.4661 O   0  0  0  0  0  0
  -23.5478  -32.1360   23.7228 O   0  0  0  0  0  0
  -32.0121  -21.4044   20.1882 C   0  0  0  0  0  0
  -30.8676  -22.1791   20.4518 C   0  0  0  0  0  0
  -31.6162  -20.1283   19.9219 C   0  0  0  0  0  0
  -29.7549  -21.3955   20.3376 C   0  0  0  0  0  0
  -33.6189  -18.6687   20.4128 C   0  0  0  0  0  0
  -33.1816  -19.4668   18.0717 C   0  0  0  0  0  0
  -28.2252  -24.8054   18.2372 C   0  0  0  0  0  0
  -27.4868  -21.3618   21.4373 C   0  0  0  0  0  0
  -28.1454  -23.6937   20.6519 C   0  0  0  0  0  0
  -29.5563  -18.6183   20.0977 C   0  0  0  0  0  0
  -30.1829  -17.3529   20.9387 C   0  0  0  0  0  0
  -32.5267  -19.0443   19.3955 C   0  0  0  0  0  0
  -28.5499  -24.9739   19.7306 C   0  0  2  0  0  0
  -28.3356  -22.0656   20.3630 C   0  0  1  0  0  0
  -30.2321  -20.0066   20.1766 N   0  0  0  0  0  0
  -29.8015  -15.8868   20.6747 N   0  0  0  0  0  0
  -27.6824  -21.7925   19.1442 O   0  0  0  0  0  0
  -31.4740  -12.6087   19.1599 H   0  0  0  0  0  0
  -30.3911  -11.4934   19.9494 H   0  0  0  0  0  0
  -29.7932  -11.7397   17.5149 H   0  0  0  0  0  0
  -29.6266  -13.4662   17.7143 H   0  0  0  0  0  0
  -27.8975  -11.2805   18.9130 H   0  0  0  0  0  0
  -27.3750  -12.5167   17.8003 H   0  0  0  0  0  0
  -27.6322  -14.2500   19.4668 H   0  0  0  0  0  0
  -28.7295  -12.1635   21.4148 H   0  0  0  0  0  0
  -28.4187  -13.8381   21.7960 H   0  0  0  0  0  0
  -25.2762   -9.5683   22.4764 H   0  0  0  0  0  0
  -24.0000   -7.4636   22.7481 H   0  0  0  0  0  0
  -21.0846   -8.8774   19.8951 H   0  0  0  0  0  0
  -22.3702  -10.9673   19.6167 H   0  0  0  0  0  0
  -21.2011   -7.6148   23.9714 H   0  0  0  0  0  0
  -21.1481   -6.0525   25.9076 H   0  0  0  0  0  0
  -22.0598   -2.7611   23.2846 H   0  0  0  0  0  0
  -22.4084  -11.9855   22.4794 H   0  0  0  0  0  0
  -21.1086  -13.1219   22.2637 H   0  0  0  0  0  0
  -24.6444  -15.8394   20.5134 H   0  0  0  0  0  0
  -26.2546  -15.6322   20.0503 H   0  0  0  0  0  0
  -26.7209  -32.5385   23.1034 H   0  0  0  0  0  0
  -25.0073  -33.9662   25.0374 H   0  0  0  0  0  0
  -22.7263  -31.2942   21.3878 H   0  0  0  0  0  0
  -23.3755  -35.9601   23.3297 H   0  0  0  0  0  0
  -24.3574  -36.8917   22.2056 H   0  0  0  0  0  0
  -23.7243  -37.6471   23.6678 H   0  0  0  0  0  0
  -26.1109  -31.5208   20.5999 H   0  0  0  0  0  0
  -26.8530  -30.8143   22.0037 H   0  0  0  0  0  0
  -28.1247  -28.9261   21.1769 H   0  0  0  0  0  0
  -25.9319  -25.8423   19.1039 H   0  0  0  0  0  0
  -23.9647  -27.2622   19.0541 H   0  0  0  0  0  0
  -23.7752  -30.5719   19.3977 H   0  0  0  0  0  0
  -22.7655  -29.2332   19.8533 H   0  0  0  0  0  0
  -25.1302  -36.1903   25.0815 H   0  0  0  0  0  0
  -20.9976  -28.3283   24.1393 H   0  0  0  0  0  0
  -20.5697  -26.2308   23.3614 H   0  0  0  0  0  0
  -21.6652  -26.7448   22.1202 H   0  0  0  0  0  0
  -19.6930  -25.6290   21.1248 H   0  0  0  0  0  0
  -19.6701  -27.3185   20.6738 H   0  0  0  0  0  0
  -17.4213  -26.6671   21.4014 H   0  0  0  0  0  0
  -18.0331  -26.0059   22.9010 H   0  0  0  0  0  0
  -19.7949  -30.7269   24.2255 H   0  0  0  0  0  0
  -17.5029  -31.6266   24.5161 H   0  0  0  0  0  0
  -15.5362  -30.2988   23.7657 H   0  0  0  0  0  0
  -15.8674  -28.0819   22.7077 H   0  0  0  0  0  0
  -24.5914  -30.7045   25.7732 H   0  0  0  0  0  0
  -24.8883  -32.2874   26.4804 H   0  0  0  0  0  0
  -25.8029  -30.8915   27.0206 H   0  0  0  0  0  0
  -26.2969  -29.6712   24.1217 H   0  0  0  0  0  0
  -27.4067  -29.7270   25.4715 H   0  0  0  0  0  0
  -27.8832  -30.4270   23.9434 H   0  0  0  0  0  0
  -27.2661  -33.3641   26.2016 H   0  0  0  0  0  0
  -28.3889  -32.6848   25.0329 H   0  0  0  0  0  0
  -28.0686  -31.8468   26.5439 H   0  0  0  0  0  0
  -28.2583  -38.0102   24.7520 H   0  0  0  0  0  0
  -28.1090  -36.2633   24.6286 H   0  0  0  0  0  0
  -27.2290  -37.1442   25.8864 H   0  0  0  0  0  0
  -20.9414  -29.8750   21.6842 H   0  0  0  0  0  0
  -26.0166  -38.2839   24.1405 H   0  0  0  0  0  0
  -33.0299  -21.7652   20.1250 H   0  0  0  0  0  0
  -30.8622  -23.2435   20.6342 H   0  0  0  0  0  0
  -33.1991  -18.3732   21.3736 H   0  0  0  0  0  0
  -34.2895  -19.5076   20.6017 H   0  0  0  0  0  0
  -34.2252  -17.8381   20.0497 H   0  0  0  0  0  0
  -32.4276  -19.7073   17.3219 H   0  0  0  0  0  0
  -33.8014  -18.6659   17.6672 H   0  0  0  0  0  0
  -33.8177  -20.3436   18.1952 H   0  0  0  0  0  0
  -28.8126  -23.9889   17.8159 H   0  0  0  0  0  0
  -28.4722  -25.7052   17.6737 H   0  0  0  0  0  0
  -27.1827  -24.5550   18.0552 H   0  0  0  0  0  0
  -27.9297  -21.4954   22.4251 H   0  0  0  0  0  0
  -27.3903  -20.2925   21.2722 H   0  0  0  0  0  0
  -26.4725  -21.7595   21.4829 H   0  0  0  0  0  0
  -27.0783  -23.8428   20.8179 H   0  0  0  0  0  0
  -28.5892  -23.8798   21.6302 H   0  0  0  0  0  0
  -28.5064  -18.7211   20.3566 H   0  0  0  0  0  0
  -29.5532  -18.3432   19.0428 H   0  0  0  0  0  0
  -29.9251  -17.5332   21.9826 H   0  0  0  0  0  0
  -31.2644  -17.3810   20.9563 H   0  0  0  0  0  0
  -31.9609  -18.1532   19.1354 H   0  0  0  0  0  0
  -29.6382  -24.9249   19.7385 H   0  0  0  0  0  0
  -28.8231  -15.6772   20.8030 H   0  0  0  0  0  0
  -27.8108  -20.8695   18.9628 H   0  0  0  0  0  0
  1 25  1  0  0  0
  1 30  2  0  0  0
  1 86  1  0  0  0
  2  3  1  0  0  0
  2 25  1  0  0  0
  2 88  1  0  0  0
  2 89  1  0  0  0
  3  4  1  0  0  0
  3 90  1  0  0  0
  3 91  1  0  0  0
  4  5  1  0  0  0
  4 92  1  0  0  0
  4 93  1  0  0  0
  5  6  1  0  0  0
  5 26  1  0  0  0
  5 94  1  0  0  0
  6 25  1  0  0  0
  6 95  1  0  0  0
  6 96  1  0  0  0
  7  8  2  0  0  0
  7 26  1  0  0  0
  7 29  1  0  0  0
  8  9  1  0  0  0
  8 22  1  0  0  0
  9 10  1  0  0  0
  9 27  2  0  0  0
 10 11  2  0  0  0
 10 15  1  0  0  0
 11 12  1  0  0  0
 11 97  1  0  0  0
 12 13  2  0  0  0
 12 98  1  0  0  0
 13 14  1  0  0  0
 13 31  1  0  0  0
 14 15  2  0  0  0
 14 99  1  0  0  0
 15100  1  0  0  0
 16 17  2  0  0  0
 16 21  1  0  0  0
 16 31  1  0  0  0
 17 18  1  0  0  0
 17101  1  0  0  0
 18 19  2  0  0  0
 18102  1  0  0  0
 19 20  1  0  0  0
 19 24  1  0  0  0
 20 21  2  0  0  0
 20103  1  0  0  0
 21 23  1  0  0  0
 22 28  1  0  0  0
 22 32  2  0  0  0
 26 27  1  0  0  0
 28104  1  0  0  0
 28105  1  0  0  0
 29106  1  0  0  0
 29107  1  0  0  0
 33 34  1  0  0  0
 33 66  1  0  0  0
 33 70  2  0  0  0
 34 36  1  0  0  0
 34 59  1  0  0  0
 34108  1  0  0  0
 35 44  2  0  0  0
 35 45  1  0  0  0
 35 68  1  0  0  0
 36 56  1  0  0  0
 36109  1  0  0  0
 37 39  1  0  0  0
 37 47  1  0  0  0
 37 66  1  0  0  0
 37110  1  0  0  0
 38 43  2  0  0  0
 38 46  1  0  0  0
 38 47  1  0  0  0
 39 64  1  0  0  0
 39 67  2  0  0  0
 40 52  1  0  0  0
 40 53  2  0  0  0
 40 58  1  0  0  0
 41111  1  0  0  0
 41112  1  0  0  0
 41113  1  0  0  0
 41 48  1  0  0  0
 42 43  1  0  0  0
 42 66  1  0  0  0
 42114  1  0  0  0
 42115  1  0  0  0
 43 44  1  0  0  0
 44116  1  0  0  0
 45 46  2  0  0  0
 45117  1  0  0  0
 46118  1  0  0  0
 47119  1  0  0  0
 47120  1  0  0  0
 48 56  1  0  0  0
 48 65  1  0  0  0
 48121  1  0  0  0
 49 50  1  0  0  0
 49 53  1  0  0  0
 49 64  1  0  0  0
 49122  1  0  0  0
 50 51  1  0  0  0
 50123  1  0  0  0
 50124  1  0  0  0
 51 52  1  0  0  0
 51125  1  0  0  0
 51126  1  0  0  0
 52127  1  0  0  0
 52128  1  0  0  0
 53 54  1  0  0  0
 54 55  2  0  0  0
 54129  1  0  0  0
 55 57  1  0  0  0
 55130  1  0  0  0
 56 69  2  0  0  0
 57 58  2  0  0  0
 57131  1  0  0  0
 58132  1  0  0  0
 59 60  1  0  0  0
 59 61  1  0  0  0
 59 62  1  0  0  0
 60133  1  0  0  0
 60134  1  0  0  0
 60135  1  0  0  0
 61136  1  0  0  0
 61137  1  0  0  0
 61138  1  0  0  0
 62139  1  0  0  0
 62140  1  0  0  0
 62141  1  0  0  0
 63 65  1  0  0  0
 63142  1  0  0  0
 63143  1  0  0  0
 63144  1  0  0  0
 64145  1  0  0  0
 65146  1  0  0  0
 68 83  1  0  0  0
 71 72  1  0  0  0
 71 73  2  0  0  0
 71147  1  0  0  0
 72 74  2  0  0  0
 72148  1  0  0  0
 73 82  1  0  0  0
 73 85  1  0  0  0
 74 84  1  0  0  0
 74 85  1  0  0  0
 75149  1  0  0  0
 75150  1  0  0  0
 75151  1  0  0  0
 75 82  1  0  0  0
 76 82  1  0  0  0
 76152  1  0  0  0
 76153  1  0  0  0
 76154  1  0  0  0
 77155  1  0  0  0
 77156  1  0  0  0
 77157  1  0  0  0
 77 83  1  0  0  0
 78158  1  0  0  0
 78159  1  0  0  0
 78160  1  0  0  0
 78 84  1  0  0  0
 79 83  1  0  0  0
 79 84  1  0  0  0
 79161  1  0  0  0
 79162  1  0  0  0
 80 81  1  0  0  0
 80 85  1  0  0  0
 80163  1  0  0  0
 80164  1  0  0  0
 81 86  1  0  0  0
 81165  1  0  0  0
 81166  1  0  0  0
 82167  1  0  0  0
 83168  1  0  0  0
 84 87  1  0  0  0
 86169  1  0  0  0
 87170  1  0  0  0
M  ISO  4   1 100  68 101  83 101  86 100
M  END
> <chiral flag>
0

> <version>
0

> <s_m_source_file>
/data/baiqing/PycharmProjects/Reinvent-master-3.2/result/LINK_invent/BTK/process_docking_weight1_custom_sum_contain_oxygen_bond_distance_aromatic_linkinvent_7_9_3/rearranged_h_0107.sdf

> <i_m_source_file_index>
53

> <r_mmod_Potential_Energy-OPLS-2005>
223.489364624023

> <r_mmod_Stretch_Energy-OPLS-2005>
166.398941040039

> <r_mmod_Bend_Energy-OPLS-2005>
270.934509277344

> <r_mmod_Torsional_Energy-OPLS-2005>
241.410354614258

> <r_mmod_Improper_Torsional_Energy-OPLS-2005>
5.1240611076355

> <r_mmod_Van_der_Waal_Energy-OPLS-2005>
114.041191101074

> <r_mmod_Electrostatic_Energy-OPLS-2005>
-448.083251953125

> <r_mmod_Solvation_Energy-OPLS-2005>
-215.969375610352

> <b_mmod_Minimization_Converged-OPLS-2005>
0

> <r_mmod_RMS_Derivative-OPLS-2005>
0.641511499881744

$$$$
55
                    3D
 Structure written by MMmdl.
161168  0  0  1  0            999 V2000
  -30.6420  -14.7492   20.2996 C   0  0  0  0  0  0
  -30.4820  -12.4317   19.4494 C   0  0  0  0  0  0
  -29.5495  -12.4619   18.2236 C   0  0  0  0  0  0
  -28.0718  -12.2906   18.6459 C   0  0  0  0  0  0
  -27.6638  -13.2188   19.8231 C   0  0  2  0  0  0
  -28.7269  -13.2125   20.9532 C   0  0  0  0  0  0
  -25.2709  -13.8170   20.5640 C   0  0  0  0  0  0
  -24.1913  -13.0422   20.9204 C   0  0  0  0  0  0
  -24.6516  -11.6919   20.8732 C   0  0  0  0  0  0
  -23.9182  -10.4276   21.0426 C   0  0  0  0  0  0
  -24.3703   -9.4195   21.9236 C   0  0  0  0  0  0
  -23.6281   -8.2275   22.0828 C   0  0  0  0  0  0
  -22.4257   -8.0339   21.3621 C   0  0  0  0  0  0
  -21.9939   -9.0341   20.4772 C   0  0  0  0  0  0
  -22.7343  -10.2166   20.3106 C   0  0  0  0  0  0
  -21.6820   -6.0783   22.5304 C   0  0  0  0  0  0
  -21.4027   -6.5689   23.8256 C   0  0  0  0  0  0
  -21.3643   -5.6826   24.9220 C   0  0  0  0  0  0
  -21.5982   -4.3085   24.7249 C   0  0  0  0  0  0
  -21.8819   -3.8188   23.4397 C   0  0  0  0  0  0
  -21.9193   -4.7012   22.3441 C   0  0  0  0  0  0
  -22.7951  -13.5297   21.1849 C   0  0  0  0  0  0
  -22.1647   -4.2233   21.1015 F   0  0  0  0  0  0
  -21.5602   -3.4544   25.7757 F   0  0  0  0  0  0
  -30.0350  -13.5144   20.3501 N   0  0  0  0  0  0
  -26.3121  -12.9345   20.3140 N   0  0  0  0  0  0
  -25.9447  -11.6502   20.5631 N   0  0  0  0  0  0
  -22.0499  -12.8322   22.0411 N   0  0  0  0  0  0
  -25.4299  -15.1881   20.4178 N   0  0  0  0  0  0
  -31.8524  -14.8350   20.0701 O   0  0  0  0  0  0
  -21.6625   -6.8933   21.4257 O   0  0  0  0  0  0
  -22.3674  -14.5582   20.6704 O   0  0  0  0  0  0
  -24.6237  -31.8647   23.2075 C   0  0  0  0  0  0
  -25.9067  -32.4849   23.8431 C   0  0  1  0  0  0
  -27.2831  -27.3288   20.0763 C   0  0  0  0  0  0
  -25.5941  -33.8634   24.2378 N   0  0  0  0  0  0
  -23.4277  -30.4838   21.5483 C   0  0  2  0  0  0
  -24.8948  -28.9334   20.1229 C   0  0  0  0  0  0
  -22.7483  -29.4621   22.4952 C   0  0  0  0  0  0
  -18.0332  -28.1357   22.8611 C   0  0  0  0  0  0
  -24.1484  -36.7182   23.2642 C   0  0  0  0  0  0
  -25.9704  -30.7947   21.3810 C   0  0  0  0  0  0
  -26.0669  -29.4207   20.7136 C   0  0  0  0  0  0
  -27.2596  -28.6329   20.6753 C   0  0  0  0  0  0
  -26.0615  -26.8785   19.5208 C   0  0  0  0  0  0
  -24.8917  -27.6635   19.5333 C   0  0  0  0  0  0
  -23.6601  -29.8074   20.1731 C   0  0  0  0  0  0
  -25.4113  -36.3054   24.0369 C   0  0  1  0  0  0
  -20.5928  -28.3604   23.1351 C   0  0  2  0  0  0
  -20.6748  -26.9329   22.5420 C   0  0  0  0  0  0
  -19.5704  -26.6382   21.5232 C   0  0  0  0  0  0
  -18.1941  -26.7962   22.1691 C   0  0  0  0  0  0
  -19.1593  -28.8821   23.3030 C   0  0  0  0  0  0
  -18.9475  -30.1464   23.8968 C   0  0  0  0  0  0
  -17.6443  -30.6574   24.0557 C   0  0  0  0  0  0
  -25.9050  -34.9432   23.5129 C   0  0  0  0  0  0
  -16.5351  -29.8998   23.6341 C   0  0  0  0  0  0
  -16.7324  -28.6422   23.0422 C   0  0  0  0  0  0
  -26.4500  -31.6645   25.0721 C   0  0  0  0  0  0
  -25.3784  -31.3701   26.1465 C   0  0  0  0  0  0
  -27.0339  -30.3104   24.6085 C   0  0  0  0  0  0
  -27.6124  -32.4315   25.7438 C   0  0  0  0  0  0
  -27.5589  -37.1759   24.8508 C   0  0  0  0  0  0
  -21.4189  -29.2944   22.3668 N   0  0  0  0  0  0
  -26.4290  -37.3747   23.9454 N   0  0  0  0  0  0
  -24.6912  -31.0619   22.1013 N   0  0  0  0  0  0
  -23.4209  -28.8179   23.3039 O   0  0  0  0  0  0
  -28.4447  -26.5175   20.0289 O   0  0  0  0  0  0
  -26.5536  -34.8863   22.4639 O   0  0  0  0  0  0
  -23.5365  -32.1412   23.7359 O   0  0  0  0  0  0
  -30.2352  -18.5448   21.6060 C   0  0  0  0  0  0
  -30.6752  -16.8712   18.0853 C   0  0  0  0  0  0
  -29.4823  -23.9991   19.6673 C   0  0  0  0  0  0
  -28.9817  -22.4884   19.4878 C   0  0  0  0  0  0
  -29.3018  -19.9445   19.6959 C   0  0  0  0  0  0
  -28.3031  -25.0808   19.6574 C   0  0  0  0  0  0
  -28.2971  -17.2761   18.9017 C   0  0  0  0  0  0
  -30.1759  -18.6032   20.0525 C   0  0  2  0  0  0
  -29.7904  -17.1510   19.3547 C   0  0  1  0  0  0
  -29.8085  -15.8542   20.2049 N   0  0  0  0  0  0
  -29.9514  -21.3199   19.6368 N   0  3  0  0  0  0
  -28.0150  -18.0380   17.0668 Br  0  0  0  0  0  0
  -31.5102  -12.5667   19.0903 H   0  0  0  0  0  0
  -30.4732  -11.4757   19.9752 H   0  0  0  0  0  0
  -29.8450  -11.6727   17.5287 H   0  0  0  0  0  0
  -29.7053  -13.4074   17.7047 H   0  0  0  0  0  0
  -27.9443  -11.2485   18.9436 H   0  0  0  0  0  0
  -27.4217  -12.4448   17.7826 H   0  0  0  0  0  0
  -27.6497  -14.2264   19.4175 H   0  0  0  0  0  0
  -28.7591  -12.2555   21.4716 H   0  0  0  0  0  0
  -28.4765  -13.9598   21.7097 H   0  0  0  0  0  0
  -25.2870   -9.5611   22.4831 H   0  0  0  0  0  0
  -23.9969   -7.4646   22.7555 H   0  0  0  0  0  0
  -21.0836   -8.8915   19.9095 H   0  0  0  0  0  0
  -22.3836  -10.9724   19.6215 H   0  0  0  0  0  0
  -21.2010   -7.6181   23.9808 H   0  0  0  0  0  0
  -21.1426   -6.0552   25.9141 H   0  0  0  0  0  0
  -22.0584   -2.7664   23.2883 H   0  0  0  0  0  0
  -22.3939  -11.9901   22.4728 H   0  0  0  0  0  0
  -21.1198  -13.1554   22.2644 H   0  0  0  0  0  0
  -24.6509  -15.8131   20.5783 H   0  0  0  0  0  0
  -26.2580  -15.6703   20.1040 H   0  0  0  0  0  0
  -26.7095  -32.5639   23.1182 H   0  0  0  0  0  0
  -25.0197  -33.9864   25.0593 H   0  0  0  0  0  0
  -22.7196  -31.3026   21.3989 H   0  0  0  0  0  0
  -23.3803  -35.9473   23.3294 H   0  0  0  0  0  0
  -24.3528  -36.8755   22.2052 H   0  0  0  0  0  0
  -23.7201  -37.6370   23.6619 H   0  0  0  0  0  0
  -26.0815  -31.5653   20.6245 H   0  0  0  0  0  0
  -26.8452  -30.8646   22.0150 H   0  0  0  0  0  0
  -28.1573  -29.0183   21.1350 H   0  0  0  0  0  0
  -25.9737  -25.8902   19.0999 H   0  0  0  0  0  0
  -23.9790  -27.2674   19.1112 H   0  0  0  0  0  0
  -23.7886  -30.5789   19.4143 H   0  0  0  0  0  0
  -22.7930  -29.2239   19.8635 H   0  0  0  0  0  0
  -25.1308  -36.1871   25.0881 H   0  0  0  0  0  0
  -21.0151  -28.3117   24.1422 H   0  0  0  0  0  0
  -20.5626  -26.2166   23.3597 H   0  0  0  0  0  0
  -21.6628  -26.7346   22.1241 H   0  0  0  0  0  0
  -19.6754  -25.6313   21.1210 H   0  0  0  0  0  0
  -19.6635  -27.3249   20.6824 H   0  0  0  0  0  0
  -17.4215  -26.6901   21.4062 H   0  0  0  0  0  0
  -18.0245  -26.0068   22.9016 H   0  0  0  0  0  0
  -19.7935  -30.7370   24.2302 H   0  0  0  0  0  0
  -17.4936  -31.6292   24.5092 H   0  0  0  0  0  0
  -15.5332  -30.2827   23.7643 H   0  0  0  0  0  0
  -15.8790  -28.0695   22.7030 H   0  0  0  0  0  0
  -24.6079  -30.6909   25.7787 H   0  0  0  0  0  0
  -24.8864  -32.2815   26.4875 H   0  0  0  0  0  0
  -25.8205  -30.8967   27.0239 H   0  0  0  0  0  0
  -26.2887  -29.6870   24.1142 H   0  0  0  0  0  0
  -27.4082  -29.7324   25.4538 H   0  0  0  0  0  0
  -27.8690  -30.4378   23.9184 H   0  0  0  0  0  0
  -27.2898  -33.3688   26.1945 H   0  0  0  0  0  0
  -28.3984  -32.6737   25.0272 H   0  0  0  0  0  0
  -28.0697  -31.8461   26.5442 H   0  0  0  0  0  0
  -28.2632  -38.0020   24.7527 H   0  0  0  0  0  0
  -28.1044  -36.2555   24.6377 H   0  0  0  0  0  0
  -27.2271  -37.1455   25.8894 H   0  0  0  0  0  0
  -20.9254  -29.8658   21.6965 H   0  0  0  0  0  0
  -26.0141  -38.2787   24.1523 H   0  0  0  0  0  0
  -30.9003  -19.3305   21.9818 H   0  0  0  0  0  0
  -30.6017  -17.6122   22.0243 H   0  0  0  0  0  0
  -29.2555  -18.7116   22.0537 H   0  0  0  0  0  0
  -30.3521  -15.9656   17.5661 H   0  0  0  0  0  0
  -31.7262  -16.7000   18.3029 H   0  0  0  0  0  0
  -30.6796  -17.6776   17.3517 H   0  0  0  0  0  0
  -30.1849  -24.2176   18.8625 H   0  0  0  0  0  0
  -30.0604  -24.0891   20.5898 H   0  0  0  0  0  0
  -28.5237  -22.4149   18.4998 H   0  0  0  0  0  0
  -28.1729  -22.3228   20.1964 H   0  0  0  0  0  0
  -28.4956  -20.0392   20.4320 H   0  0  0  0  0  0
  -28.7818  -19.8496   18.7478 H   0  0  0  0  0  0
  -27.5731  -24.6791   20.3602 H   0  0  0  0  0  0
  -27.8669  -25.0328   18.6577 H   0  0  0  0  0  0
  -27.7134  -17.8842   19.5932 H   0  0  0  0  0  0
  -27.7746  -16.3299   18.8790 H   0  0  0  0  0  0
  -31.2013  -18.8099   19.7484 H   0  0  0  0  0  0
  -28.8871  -15.5940   20.5232 H   0  0  0  0  0  0
  -30.5392  -21.3228   18.8194 H   0  0  0  0  0  0
  -30.5515  -21.4541   20.4359 H   0  0  0  0  0  0
  1 25  1  0  0  0
  1 30  2  0  0  0
  1 80  1  0  0  0
  2  3  1  0  0  0
  2 25  1  0  0  0
  2 83  1  0  0  0
  2 84  1  0  0  0
  3  4  1  0  0  0
  3 85  1  0  0  0
  3 86  1  0  0  0
  4  5  1  0  0  0
  4 87  1  0  0  0
  4 88  1  0  0  0
  5  6  1  0  0  0
  5 26  1  0  0  0
  5 89  1  0  0  0
  6 25  1  0  0  0
  6 90  1  0  0  0
  6 91  1  0  0  0
  7  8  2  0  0  0
  7 26  1  0  0  0
  7 29  1  0  0  0
  8  9  1  0  0  0
  8 22  1  0  0  0
  9 10  1  0  0  0
  9 27  2  0  0  0
 10 11  2  0  0  0
 10 15  1  0  0  0
 11 12  1  0  0  0
 11 92  1  0  0  0
 12 13  2  0  0  0
 12 93  1  0  0  0
 13 14  1  0  0  0
 13 31  1  0  0  0
 14 15  2  0  0  0
 14 94  1  0  0  0
 15 95  1  0  0  0
 16 17  2  0  0  0
 16 21  1  0  0  0
 16 31  1  0  0  0
 17 18  1  0  0  0
 17 96  1  0  0  0
 18 19  2  0  0  0
 18 97  1  0  0  0
 19 20  1  0  0  0
 19 24  1  0  0  0
 20 21  2  0  0  0
 20 98  1  0  0  0
 21 23  1  0  0  0
 22 28  1  0  0  0
 22 32  2  0  0  0
 26 27  1  0  0  0
 28 99  1  0  0  0
 28100  1  0  0  0
 29101  1  0  0  0
 29102  1  0  0  0
 33 34  1  0  0  0
 33 66  1  0  0  0
 33 70  2  0  0  0
 34 36  1  0  0  0
 34 59  1  0  0  0
 34103  1  0  0  0
 35 44  2  0  0  0
 35 45  1  0  0  0
 35 68  1  0  0  0
 36 56  1  0  0  0
 36104  1  0  0  0
 37 39  1  0  0  0
 37 47  1  0  0  0
 37 66  1  0  0  0
 37105  1  0  0  0
 38 43  2  0  0  0
 38 46  1  0  0  0
 38 47  1  0  0  0
 39 64  1  0  0  0
 39 67  2  0  0  0
 40 52  1  0  0  0
 40 53  2  0  0  0
 40 58  1  0  0  0
 41106  1  0  0  0
 41107  1  0  0  0
 41108  1  0  0  0
 41 48  1  0  0  0
 42 43  1  0  0  0
 42 66  1  0  0  0
 42109  1  0  0  0
 42110  1  0  0  0
 43 44  1  0  0  0
 44111  1  0  0  0
 45 46  2  0  0  0
 45112  1  0  0  0
 46113  1  0  0  0
 47114  1  0  0  0
 47115  1  0  0  0
 48 56  1  0  0  0
 48 65  1  0  0  0
 48116  1  0  0  0
 49 50  1  0  0  0
 49 53  1  0  0  0
 49 64  1  0  0  0
 49117  1  0  0  0
 50 51  1  0  0  0
 50118  1  0  0  0
 50119  1  0  0  0
 51 52  1  0  0  0
 51120  1  0  0  0
 51121  1  0  0  0
 52122  1  0  0  0
 52123  1  0  0  0
 53 54  1  0  0  0
 54 55  2  0  0  0
 54124  1  0  0  0
 55 57  1  0  0  0
 55125  1  0  0  0
 56 69  2  0  0  0
 57 58  2  0  0  0
 57126  1  0  0  0
 58127  1  0  0  0
 59 60  1  0  0  0
 59 61  1  0  0  0
 59 62  1  0  0  0
 60128  1  0  0  0
 60129  1  0  0  0
 60130  1  0  0  0
 61131  1  0  0  0
 61132  1  0  0  0
 61133  1  0  0  0
 62134  1  0  0  0
 62135  1  0  0  0
 62136  1  0  0  0
 63 65  1  0  0  0
 63137  1  0  0  0
 63138  1  0  0  0
 63139  1  0  0  0
 64140  1  0  0  0
 65141  1  0  0  0
 68 76  1  0  0  0
 71142  1  0  0  0
 71143  1  0  0  0
 71144  1  0  0  0
 71 78  1  0  0  0
 72145  1  0  0  0
 72146  1  0  0  0
 72147  1  0  0  0
 72 79  1  0  0  0
 73 74  1  0  0  0
 73 76  1  0  0  0
 73148  1  0  0  0
 73149  1  0  0  0
 74 81  1  0  0  0
 74150  1  0  0  0
 74151  1  0  0  0
 75 78  1  0  0  0
 75 81  1  0  0  0
 75152  1  0  0  0
 75153  1  0  0  0
 76154  1  0  0  0
 76155  1  0  0  0
 77 79  1  0  0  0
 77 82  1  0  0  0
 77156  1  0  0  0
 77157  1  0  0  0
 78 79  1  0  0  0
 78158  1  0  0  0
 79 80  1  0  0  0
 80159  1  0  0  0
 81160  1  0  0  0
 81161  1  0  0  0
M  CHG  1  81   1
M  ISO  4   1 100  68 101  76 101  80 100
M  END
> <chiral flag>
0

> <version>
0

> <s_m_source_file>
/data/baiqing/PycharmProjects/Reinvent-master-3.2/result/LINK_invent/BTK/process_docking_weight1_custom_sum_contain_oxygen_bond_distance_aromatic_linkinvent_7_9_3/rearranged_h_0107.sdf

> <i_m_source_file_index>
54

> <r_mmod_Potential_Energy-OPLS-2005>
65.4791564941406

> <r_mmod_Stretch_Energy-OPLS-2005>
130.296493530273

> <r_mmod_Bend_Energy-OPLS-2005>
196.962127685547

> <r_mmod_Torsional_Energy-OPLS-2005>
268.056243896484

> <r_mmod_Improper_Torsional_Energy-OPLS-2005>
9.05710887908936

> <r_mmod_Van_der_Waal_Energy-OPLS-2005>
135.970855712891

> <r_mmod_Electrostatic_Energy-OPLS-2005>
-270.455718994141

> <r_mmod_Solvation_Energy-OPLS-2005>
-484.059265136719

> <b_mmod_Minimization_Converged-OPLS-2005>
0

> <r_mmod_RMS_Derivative-OPLS-2005>
12.9454870223999

$$$$
56
                    3D
 Structure written by MMmdl.
163171  0  0  1  0            999 V2000
  -30.4750  -14.9162   20.4368 C   0  0  0  0  0  0
  -30.4313  -12.5770   19.4739 C   0  0  0  0  0  0
  -29.5074  -12.5150   18.2377 C   0  0  0  0  0  0
  -28.0333  -12.3222   18.6476 C   0  0  0  0  0  0
  -27.6168  -13.2371   19.8270 C   0  0  2  0  0  0
  -28.6509  -13.2209   20.9655 C   0  0  0  0  0  0
  -25.2393  -13.8215   20.5667 C   0  0  0  0  0  0
  -24.1719  -13.0407   20.9237 C   0  0  0  0  0  0
  -24.6370  -11.6923   20.8785 C   0  0  0  0  0  0
  -23.9058  -10.4277   21.0439 C   0  0  0  0  0  0
  -24.3613   -9.4210   21.9214 C   0  0  0  0  0  0
  -23.6299   -8.2237   22.0793 C   0  0  0  0  0  0
  -22.4294   -8.0278   21.3535 C   0  0  0  0  0  0
  -21.9898   -9.0250   20.4661 C   0  0  0  0  0  0
  -22.7244  -10.2124   20.3088 C   0  0  0  0  0  0
  -21.6857   -6.0752   22.5304 C   0  0  0  0  0  0
  -21.4007   -6.5651   23.8228 C   0  0  0  0  0  0
  -21.3630   -5.6805   24.9195 C   0  0  0  0  0  0
  -21.6038   -4.3075   24.7260 C   0  0  0  0  0  0
  -21.8807   -3.8174   23.4383 C   0  0  0  0  0  0
  -21.9180   -4.6981   22.3432 C   0  0  0  0  0  0
  -22.7734  -13.5193   21.1910 C   0  0  0  0  0  0
  -22.1655   -4.2162   21.0999 F   0  0  0  0  0  0
  -21.5602   -3.4567   25.7774 F   0  0  0  0  0  0
  -29.9198  -13.6478   20.3720 N   0  0  0  0  0  0
  -26.2779  -12.9412   20.3118 N   0  0  0  0  0  0
  -25.9250  -11.6572   20.5697 N   0  0  0  0  0  0
  -22.0376  -12.8153   22.0459 N   0  0  0  0  0  0
  -25.4009  -15.1957   20.4132 N   0  0  0  0  0  0
  -31.6840  -15.0209   20.1905 O   0  0  0  0  0  0
  -21.6637   -6.8891   21.4259 O   0  0  0  0  0  0
  -22.3418  -14.5498   20.6771 O   0  0  0  0  0  0
  -24.6410  -31.8453   23.1831 C   0  0  0  0  0  0
  -25.9195  -32.4663   23.8233 C   0  0  1  0  0  0
  -27.2104  -27.1729   20.1510 C   0  0  0  0  0  0
  -25.5976  -33.8475   24.2149 N   0  0  0  0  0  0
  -23.4437  -30.4573   21.5299 C   0  0  2  0  0  0
  -24.8930  -28.8852   20.1093 C   0  0  0  0  0  0
  -22.7588  -29.4485   22.4854 C   0  0  0  0  0  0
  -18.0297  -28.1374   22.8431 C   0  0  0  0  0  0
  -24.1482  -36.7249   23.2655 C   0  0  0  0  0  0
  -25.9943  -30.7308   21.3739 C   0  0  0  0  0  0
  -26.0656  -29.3399   20.7276 C   0  0  0  0  0  0
  -27.2309  -28.4976   20.7328 C   0  0  0  0  0  0
  -26.0185  -26.8026   19.5025 C   0  0  0  0  0  0
  -24.8786  -27.6292   19.4812 C   0  0  0  0  0  0
  -23.6695  -29.7825   20.1487 C   0  0  0  0  0  0
  -25.4117  -36.3001   24.0289 C   0  0  1  0  0  0
  -20.5912  -28.3698   23.1243 C   0  0  2  0  0  0
  -20.6793  -26.9409   22.5385 C   0  0  0  0  0  0
  -19.5734  -26.6361   21.5192 C   0  0  0  0  0  0
  -18.1914  -26.7917   22.1589 C   0  0  0  0  0  0
  -19.1552  -28.8871   23.2802 C   0  0  0  0  0  0
  -18.9493  -30.1476   23.8813 C   0  0  0  0  0  0
  -17.6496  -30.6584   24.0553 C   0  0  0  0  0  0
  -25.9062  -34.9387   23.5021 C   0  0  0  0  0  0
  -16.5395  -29.9061   23.6367 C   0  0  0  0  0  0
  -16.7276  -28.6504   23.0321 C   0  0  0  0  0  0
  -26.4523  -31.6571   25.0689 C   0  0  0  0  0  0
  -25.3690  -31.3738   26.1377 C   0  0  0  0  0  0
  -27.0463  -30.3007   24.6238 C   0  0  0  0  0  0
  -27.6027  -32.4430   25.7471 C   0  0  0  0  0  0
  -27.5527  -37.1761   24.8449 C   0  0  0  0  0  0
  -21.4271  -29.3042   22.3641 N   0  0  0  0  0  0
  -26.4242  -37.3720   23.9408 N   0  0  0  0  0  0
  -24.7124  -31.0312   22.0836 N   0  0  0  0  0  0
  -23.4238  -28.8018   23.2980 O   0  0  0  0  0  0
  -28.2837  -26.2410   20.2468 O   0  0  0  0  0  0
  -26.5639  -34.8902   22.4587 O   0  0  0  0  0  0
  -23.5519  -32.1378   23.7016 O   0  0  0  0  0  0
  -28.5031  -19.6098   21.6314 C   0  0  0  0  0  0
  -29.2012  -18.9831   20.5444 C   0  0  0  0  0  0
  -28.3808  -21.8359   20.6294 C   0  0  0  0  0  0
  -28.9748  -21.1724   19.4929 C   0  0  0  0  0  0
  -26.9826  -23.5928   23.2500 C   0  0  0  0  0  0
  -28.7491  -21.0136   16.9779 C   0  0  0  0  0  0
  -30.6204  -22.4186   18.0311 C   0  0  0  0  0  0
  -30.0644  -17.5765   20.5896 C   0  0  0  0  0  0
  -28.1794  -23.8686   22.3106 C   0  0  0  0  0  0
  -28.2537  -24.7453   19.8545 C   0  0  0  0  0  0
  -27.9209  -23.4298   20.8365 C   0  0  1  0  0  0
  -29.1845  -21.8939   18.1703 C   0  0  0  0  0  0
  -28.1143  -20.9521   21.6609 N   0  0  0  0  0  0
  -29.4075  -19.8403   19.4890 N   0  0  0  0  0  0
  -29.6517  -16.0641   20.5712 N   0  0  0  0  0  0
  -31.4546  -12.7744   19.1491 H   0  0  0  0  0  0
  -30.4623  -11.6190   19.9923 H   0  0  0  0  0  0
  -29.8161  -11.7088   17.5736 H   0  0  0  0  0  0
  -29.6044  -13.4362   17.6626 H   0  0  0  0  0  0
  -27.9067  -11.2772   18.9288 H   0  0  0  0  0  0
  -27.3794  -12.4833   17.7915 H   0  0  0  0  0  0
  -27.5906  -14.2464   19.4177 H   0  0  0  0  0  0
  -28.7327  -12.2275   21.4079 H   0  0  0  0  0  0
  -28.3554  -13.8961   21.7677 H   0  0  0  0  0  0
  -25.2777   -9.5685   22.4787 H   0  0  0  0  0  0
  -24.0016   -7.4645   22.7516 H   0  0  0  0  0  0
  -21.0825   -8.8766   19.8982 H   0  0  0  0  0  0
  -22.3715  -10.9650   19.6188 H   0  0  0  0  0  0
  -21.2013   -7.6159   23.9739 H   0  0  0  0  0  0
  -21.1425   -6.0547   25.9079 H   0  0  0  0  0  0
  -22.0595   -2.7638   23.2916 H   0  0  0  0  0  0
  -22.4001  -11.9827   22.4853 H   0  0  0  0  0  0
  -21.0993  -13.1167   22.2696 H   0  0  0  0  0  0
  -24.6251  -15.8363   20.5516 H   0  0  0  0  0  0
  -26.2195  -15.6411   20.0198 H   0  0  0  0  0  0
  -26.7250  -32.5291   23.0984 H   0  0  0  0  0  0
  -25.0239  -33.9619   25.0363 H   0  0  0  0  0  0
  -22.7417  -31.2782   21.3686 H   0  0  0  0  0  0
  -23.3724  -35.9586   23.3280 H   0  0  0  0  0  0
  -24.3562  -36.8956   22.2068 H   0  0  0  0  0  0
  -23.7312  -37.6457   23.6751 H   0  0  0  0  0  0
  -26.1288  -31.4689   20.5812 H   0  0  0  0  0  0
  -26.8721  -30.8005   22.0059 H   0  0  0  0  0  0
  -28.1252  -28.8404   21.2371 H   0  0  0  0  0  0
  -25.9348  -25.8334   19.0390 H   0  0  0  0  0  0
  -23.9859  -27.2783   18.9790 H   0  0  0  0  0  0
  -23.8110  -30.5550   19.3921 H   0  0  0  0  0  0
  -22.7903  -29.2183   19.8324 H   0  0  0  0  0  0
  -25.1287  -36.1786   25.0764 H   0  0  0  0  0  0
  -20.9954  -28.3304   24.1368 H   0  0  0  0  0  0
  -20.5725  -26.2299   23.3614 H   0  0  0  0  0  0
  -21.6642  -26.7391   22.1172 H   0  0  0  0  0  0
  -19.6880  -25.6241   21.1289 H   0  0  0  0  0  0
  -19.6683  -27.3146   20.6701 H   0  0  0  0  0  0
  -17.4187  -26.6694   21.3980 H   0  0  0  0  0  0
  -18.0266  -26.0044   22.8980 H   0  0  0  0  0  0
  -19.7976  -30.7309   24.2131 H   0  0  0  0  0  0
  -17.5044  -31.6250   24.5189 H   0  0  0  0  0  0
  -15.5377  -30.2937   23.7695 H   0  0  0  0  0  0
  -15.8693  -28.0841   22.6965 H   0  0  0  0  0  0
  -24.5865  -30.7082   25.7713 H   0  0  0  0  0  0
  -24.8848  -32.2889   26.4766 H   0  0  0  0  0  0
  -25.7949  -30.8954   27.0199 H   0  0  0  0  0  0
  -26.3094  -29.6703   24.1259 H   0  0  0  0  0  0
  -27.4195  -29.7310   25.4764 H   0  0  0  0  0  0
  -27.8889  -30.4318   23.9460 H   0  0  0  0  0  0
  -27.2589  -33.3828   26.1814 H   0  0  0  0  0  0
  -28.3909  -32.6903   25.0336 H   0  0  0  0  0  0
  -28.0604  -31.8769   26.5593 H   0  0  0  0  0  0
  -28.2469  -38.0101   24.7544 H   0  0  0  0  0  0
  -28.1124  -36.2656   24.6255 H   0  0  0  0  0  0
  -27.2269  -37.1404   25.8852 H   0  0  0  0  0  0
  -20.9536  -29.8871   21.6917 H   0  0  0  0  0  0
  -26.0084  -38.2754   24.1508 H   0  0  0  0  0  0
  -28.3061  -19.0574   22.5396 H   0  0  0  0  0  0
  -27.1957  -23.8841   24.2808 H   0  0  0  0  0  0
  -26.6986  -22.5412   23.2484 H   0  0  0  0  0  0
  -26.1054  -24.1556   22.9365 H   0  0  0  0  0  0
  -27.7230  -20.6659   17.1091 H   0  0  0  0  0  0
  -29.3837  -20.1325   16.8827 H   0  0  0  0  0  0
  -28.7947  -21.5524   16.0324 H   0  0  0  0  0  0
  -30.8611  -23.1354   18.8185 H   0  0  0  0  0  0
  -30.7582  -22.9214   17.0727 H   0  0  0  0  0  0
  -31.3441  -21.6070   18.1011 H   0  0  0  0  0  0
  -30.6796  -17.6810   21.4801 H   0  0  0  0  0  0
  -30.7601  -17.6676   19.7581 H   0  0  0  0  0  0
  -29.0836  -23.3931   22.6913 H   0  0  0  0  0  0
  -28.3759  -24.9414   22.3742 H   0  0  0  0  0  0
  -27.6643  -24.6519   18.9428 H   0  0  0  0  0  0
  -29.2764  -24.6057   19.5069 H   0  0  0  0  0  0
  -26.8341  -23.3699   20.7451 H   0  0  0  0  0  0
  -28.5106  -22.7423   18.1603 H   0  0  0  0  0  0
  -28.6624  -15.8832   20.6307 H   0  0  0  0  0  0
  1 25  1  0  0  0
  1 30  2  0  0  0
  1 85  1  0  0  0
  2  3  1  0  0  0
  2 25  1  0  0  0
  2 86  1  0  0  0
  2 87  1  0  0  0
  3  4  1  0  0  0
  3 88  1  0  0  0
  3 89  1  0  0  0
  4  5  1  0  0  0
  4 90  1  0  0  0
  4 91  1  0  0  0
  5  6  1  0  0  0
  5 26  1  0  0  0
  5 92  1  0  0  0
  6 25  1  0  0  0
  6 93  1  0  0  0
  6 94  1  0  0  0
  7  8  2  0  0  0
  7 26  1  0  0  0
  7 29  1  0  0  0
  8  9  1  0  0  0
  8 22  1  0  0  0
  9 10  1  0  0  0
  9 27  2  0  0  0
 10 11  2  0  0  0
 10 15  1  0  0  0
 11 12  1  0  0  0
 11 95  1  0  0  0
 12 13  2  0  0  0
 12 96  1  0  0  0
 13 14  1  0  0  0
 13 31  1  0  0  0
 14 15  2  0  0  0
 14 97  1  0  0  0
 15 98  1  0  0  0
 16 17  2  0  0  0
 16 21  1  0  0  0
 16 31  1  0  0  0
 17 18  1  0  0  0
 17 99  1  0  0  0
 18 19  2  0  0  0
 18100  1  0  0  0
 19 20  1  0  0  0
 19 24  1  0  0  0
 20 21  2  0  0  0
 20101  1  0  0  0
 21 23  1  0  0  0
 22 28  1  0  0  0
 22 32  2  0  0  0
 26 27  1  0  0  0
 28102  1  0  0  0
 28103  1  0  0  0
 29104  1  0  0  0
 29105  1  0  0  0
 33 34  1  0  0  0
 33 66  1  0  0  0
 33 70  2  0  0  0
 34 36  1  0  0  0
 34 59  1  0  0  0
 34106  1  0  0  0
 35 44  2  0  0  0
 35 45  1  0  0  0
 35 68  1  0  0  0
 36 56  1  0  0  0
 36107  1  0  0  0
 37 39  1  0  0  0
 37 47  1  0  0  0
 37 66  1  0  0  0
 37108  1  0  0  0
 38 43  2  0  0  0
 38 46  1  0  0  0
 38 47  1  0  0  0
 39 64  1  0  0  0
 39 67  2  0  0  0
 40 52  1  0  0  0
 40 53  2  0  0  0
 40 58  1  0  0  0
 41109  1  0  0  0
 41110  1  0  0  0
 41111  1  0  0  0
 41 48  1  0  0  0
 42 43  1  0  0  0
 42 66  1  0  0  0
 42112  1  0  0  0
 42113  1  0  0  0
 43 44  1  0  0  0
 44114  1  0  0  0
 45 46  2  0  0  0
 45115  1  0  0  0
 46116  1  0  0  0
 47117  1  0  0  0
 47118  1  0  0  0
 48 56  1  0  0  0
 48 65  1  0  0  0
 48119  1  0  0  0
 49 50  1  0  0  0
 49 53  1  0  0  0
 49 64  1  0  0  0
 49120  1  0  0  0
 50 51  1  0  0  0
 50121  1  0  0  0
 50122  1  0  0  0
 51 52  1  0  0  0
 51123  1  0  0  0
 51124  1  0  0  0
 52125  1  0  0  0
 52126  1  0  0  0
 53 54  1  0  0  0
 54 55  2  0  0  0
 54127  1  0  0  0
 55 57  1  0  0  0
 55128  1  0  0  0
 56 69  2  0  0  0
 57 58  2  0  0  0
 57129  1  0  0  0
 58130  1  0  0  0
 59 60  1  0  0  0
 59 61  1  0  0  0
 59 62  1  0  0  0
 60131  1  0  0  0
 60132  1  0  0  0
 60133  1  0  0  0
 61134  1  0  0  0
 61135  1  0  0  0
 61136  1  0  0  0
 62137  1  0  0  0
 62138  1  0  0  0
 62139  1  0  0  0
 63 65  1  0  0  0
 63140  1  0  0  0
 63141  1  0  0  0
 63142  1  0  0  0
 64143  1  0  0  0
 65144  1  0  0  0
 68 80  1  0  0  0
 71 72  2  0  0  0
 71 83  1  0  0  0
 71145  1  0  0  0
 72 78  1  0  0  0
 72 84  1  0  0  0
 73 74  1  0  0  0
 73 81  1  0  0  0
 73 83  2  0  0  0
 74 82  1  0  0  0
 74 84  2  0  0  0
 75 79  1  0  0  0
 75146  1  0  0  0
 75147  1  0  0  0
 75148  1  0  0  0
 76149  1  0  0  0
 76150  1  0  0  0
 76151  1  0  0  0
 76 82  1  0  0  0
 77 82  1  0  0  0
 77152  1  0  0  0
 77153  1  0  0  0
 77154  1  0  0  0
 78 85  1  0  0  0
 78155  1  0  0  0
 78156  1  0  0  0
 79157  1  0  0  0
 79158  1  0  0  0
 79 81  1  0  0  0
 80 81  1  0  0  0
 80159  1  0  0  0
 80160  1  0  0  0
 81161  1  0  0  0
 82162  1  0  0  0
 85163  1  0  0  0
M  ISO  4   1 100  68 101  80 101  85 100
M  END
> <chiral flag>
0

> <version>
0

> <s_m_source_file>
/data/baiqing/PycharmProjects/Reinvent-master-3.2/result/LINK_invent/BTK/process_docking_weight1_custom_sum_contain_oxygen_bond_distance_aromatic_linkinvent_7_9_3/rearranged_h_0107.sdf

> <i_m_source_file_index>
55

> <r_mmod_Potential_Energy-OPLS-2005>
495.151428222656

> <r_mmod_Stretch_Energy-OPLS-2005>
224.81330871582

> <r_mmod_Bend_Energy-OPLS-2005>
285.901306152344

> <r_mmod_Torsional_Energy-OPLS-2005>
221.477233886719

> <r_mmod_Improper_Torsional_Energy-OPLS-2005>
6.82088232040405

> <r_mmod_Van_der_Waal_Energy-OPLS-2005>
138.454147338867

> <r_mmod_Electrostatic_Energy-OPLS-2005>
-337.672180175781

> <r_mmod_Solvation_Energy-OPLS-2005>
-216.701309204102

> <b_mmod_Minimization_Converged-OPLS-2005>
0

> <r_mmod_RMS_Derivative-OPLS-2005>
7.48432779312134

$$$$
57
                    3D
 Structure written by MMmdl.
154162  0  0  1  0            999 V2000
  -30.3823  -15.3771   20.3701 C   0  0  0  0  0  0
  -30.4329  -12.8897   19.5395 C   0  0  0  0  0  0
  -29.5345  -12.6189   18.3030 C   0  0  0  0  0  0
  -28.0951  -12.3013   18.7371 C   0  0  0  0  0  0
  -27.6036  -13.2872   19.8242 C   0  0  2  0  0  0
  -28.6284  -13.5040   20.9597 C   0  0  0  0  0  0
  -25.2316  -13.8268   20.5738 C   0  0  0  0  0  0
  -24.1692  -13.0431   20.9270 C   0  0  0  0  0  0
  -24.6373  -11.6936   20.8770 C   0  0  0  0  0  0
  -23.9090  -10.4286   21.0397 C   0  0  0  0  0  0
  -24.3629   -9.4199   21.9182 C   0  0  0  0  0  0
  -23.6287   -8.2241   22.0756 C   0  0  0  0  0  0
  -22.4281   -8.0278   21.3533 C   0  0  0  0  0  0
  -21.9915   -9.0257   20.4640 C   0  0  0  0  0  0
  -22.7259  -10.2132   20.3044 C   0  0  0  0  0  0
  -21.6855   -6.0726   22.5280 C   0  0  0  0  0  0
  -21.4018   -6.5631   23.8210 C   0  0  0  0  0  0
  -21.3660   -5.6786   24.9165 C   0  0  0  0  0  0
  -21.6039   -4.3049   24.7226 C   0  0  0  0  0  0
  -21.8814   -3.8140   23.4344 C   0  0  0  0  0  0
  -21.9187   -4.6955   22.3396 C   0  0  0  0  0  0
  -22.7705  -13.5170   21.1939 C   0  0  0  0  0  0
  -22.1654   -4.2138   21.0980 F   0  0  0  0  0  0
  -21.5627   -3.4536   25.7737 F   0  0  0  0  0  0
  -29.8537  -14.0405   20.3396 N   0  0  0  0  0  0
  -26.2757  -12.9570   20.3221 N   0  0  0  0  0  0
  -25.9317  -11.6666   20.5721 N   0  0  0  0  0  0
  -22.0369  -12.8132   22.0489 N   0  0  0  0  0  0
  -25.3915  -15.2009   20.4155 N   0  0  0  0  0  0
  -31.6021  -15.3799   20.1327 O   0  0  0  0  0  0
  -21.6638   -6.8877   21.4246 O   0  0  0  0  0  0
  -22.3371  -14.5467   20.6787 O   0  0  0  0  0  0
  -24.6663  -31.8136   23.1607 C   0  0  0  0  0  0
  -25.9323  -32.4540   23.8087 C   0  0  1  0  0  0
  -27.2256  -26.8447   20.2071 C   0  0  0  0  0  0
  -25.5962  -33.8358   24.1987 N   0  0  0  0  0  0
  -23.4875  -30.4207   21.5097 C   0  0  2  0  0  0
  -24.9473  -28.7901   20.1074 C   0  0  0  0  0  0
  -22.7687  -29.4371   22.4709 C   0  0  0  0  0  0
  -18.0327  -28.1433   22.8420 C   0  0  0  0  0  0
  -24.1496  -36.7212   23.2645 C   0  0  0  0  0  0
  -26.0580  -30.5949   21.4036 C   0  0  0  0  0  0
  -26.1271  -29.1745   20.7544 C   0  0  0  0  0  0
  -27.2513  -28.2207   20.7862 C   0  0  0  0  0  0
  -26.0220  -26.6393   19.4899 C   0  0  0  0  0  0
  -24.9251  -27.5457   19.4551 C   0  0  0  0  0  0
  -23.7366  -29.7285   20.1386 C   0  0  0  0  0  0
  -25.4131  -36.2930   24.0281 C   0  0  1  0  0  0
  -20.5944  -28.3772   23.1173 C   0  0  2  0  0  0
  -20.6809  -26.9447   22.5401 C   0  0  0  0  0  0
  -19.5796  -26.6381   21.5209 C   0  0  0  0  0  0
  -18.1962  -26.7952   22.1591 C   0  0  0  0  0  0
  -19.1594  -28.8918   23.2781 C   0  0  0  0  0  0
  -18.9509  -30.1489   23.8842 C   0  0  0  0  0  0
  -17.6513  -30.6602   24.0560 C   0  0  0  0  0  0
  -25.9105  -34.9320   23.4960 C   0  0  0  0  0  0
  -16.5393  -29.9088   23.6365 C   0  0  0  0  0  0
  -16.7319  -28.6535   23.0335 C   0  0  0  0  0  0
  -26.4558  -31.6514   25.0657 C   0  0  0  0  0  0
  -25.3646  -31.3796   26.1285 C   0  0  0  0  0  0
  -27.0483  -30.2870   24.6434 C   0  0  0  0  0  0
  -27.6014  -32.4358   25.7472 C   0  0  0  0  0  0
  -27.5561  -37.1736   24.8444 C   0  0  0  0  0  0
  -21.4352  -29.3040   22.3501 N   0  0  0  0  0  0
  -26.4257  -37.3681   23.9417 N   0  0  0  0  0  0
  -24.7591  -30.9710   22.0788 N   0  0  0  0  0  0
  -23.4196  -28.7933   23.2977 O   0  0  0  0  0  0
  -28.2190  -25.7116   20.3501 O   0  0  0  0  0  0
  -26.5743  -34.8878   22.4563 O   0  0  0  0  0  0
  -23.5724  -32.1169   23.6638 O   0  0  0  0  0  0
  -30.7016  -19.1050   19.8365 C   0  0  0  0  0  0
  -28.7374  -19.4164   20.6750 C   0  0  0  0  0  0
  -29.6402  -18.2930   20.3710 C   0  0  0  0  0  0
  -30.4256  -20.4942   19.8152 C   0  0  0  0  0  0
  -32.3466  -21.0645   18.2651 C   0  0  0  0  0  0
  -32.0910  -22.2898   20.4490 C   0  0  0  0  0  0
  -28.5766  -22.4303   20.7638 C   0  0  0  0  0  0
  -28.2142  -24.0601   19.9563 C   0  0  0  0  0  0
  -31.3415  -21.5784   19.3107 C   0  0  0  0  0  0
  -29.1630  -20.8483   20.3671 N   0  0  0  0  0  0
  -29.5760  -16.6453   20.5129 N   0  0  0  0  0  0
  -31.4459  -13.1117   19.2010 H   0  0  0  0  0  0
  -30.5229  -11.9937   20.1556 H   0  0  0  0  0  0
  -29.9377  -11.8065   17.6982 H   0  0  0  0  0  0
  -29.5266  -13.5056   17.6671 H   0  0  0  0  0  0
  -28.0836  -11.2857   19.1356 H   0  0  0  0  0  0
  -27.4219  -12.3027   17.8798 H   0  0  0  0  0  0
  -27.5015  -14.2425   19.3064 H   0  0  0  0  0  0
  -28.8125  -12.5809   21.5096 H   0  0  0  0  0  0
  -28.2416  -14.2249   21.6827 H   0  0  0  0  0  0
  -25.2777   -9.5668   22.4770 H   0  0  0  0  0  0
  -23.9983   -7.4624   22.7489 H   0  0  0  0  0  0
  -21.0846   -8.8785   19.8953 H   0  0  0  0  0  0
  -22.3727  -10.9665   19.6153 H   0  0  0  0  0  0
  -21.2023   -7.6139   23.9712 H   0  0  0  0  0  0
  -21.1484   -6.0515   25.9066 H   0  0  0  0  0  0
  -22.0595   -2.7605   23.2852 H   0  0  0  0  0  0
  -22.4010  -11.9782   22.4840 H   0  0  0  0  0  0
  -21.0989  -13.1147   22.2734 H   0  0  0  0  0  0
  -24.6134  -15.8461   20.5067 H   0  0  0  0  0  0
  -26.2220  -15.6394   20.0406 H   0  0  0  0  0  0
  -26.7361  -32.5068   23.0763 H   0  0  0  0  0  0
  -25.0046  -33.9437   25.0094 H   0  0  0  0  0  0
  -22.8060  -31.2550   21.3266 H   0  0  0  0  0  0
  -23.3765  -35.9528   23.3225 H   0  0  0  0  0  0
  -24.3575  -36.8968   22.2079 H   0  0  0  0  0  0
  -23.7254  -37.6361   23.6789 H   0  0  0  0  0  0
  -26.2341  -31.3281   20.6141 H   0  0  0  0  0  0
  -26.9192  -30.6663   22.0553 H   0  0  0  0  0  0
  -28.1304  -28.5089   21.3450 H   0  0  0  0  0  0
  -25.8862  -25.6945   18.9843 H   0  0  0  0  0  0
  -24.0313  -27.2457   18.9228 H   0  0  0  0  0  0
  -23.8985  -30.4975   19.3824 H   0  0  0  0  0  0
  -22.8484  -29.1867   19.8103 H   0  0  0  0  0  0
  -25.1309  -36.1684   25.0767 H   0  0  0  0  0  0
  -21.0031  -28.3399   24.1302 H   0  0  0  0  0  0
  -20.5720  -26.2379   23.3638 H   0  0  0  0  0  0
  -21.6665  -26.7433   22.1182 H   0  0  0  0  0  0
  -19.6982  -25.6285   21.1266 H   0  0  0  0  0  0
  -19.6766  -27.3162   20.6723 H   0  0  0  0  0  0
  -17.4231  -26.6703   21.3991 H   0  0  0  0  0  0
  -18.0338  -26.0120   22.9026 H   0  0  0  0  0  0
  -19.7999  -30.7304   24.2189 H   0  0  0  0  0  0
  -17.5071  -31.6281   24.5155 H   0  0  0  0  0  0
  -15.5394  -30.2973   23.7746 H   0  0  0  0  0  0
  -15.8710  -28.0850   22.7056 H   0  0  0  0  0  0
  -24.5873  -30.7130   25.7524 H   0  0  0  0  0  0
  -24.8814  -32.3025   26.4507 H   0  0  0  0  0  0
  -25.7810  -30.9066   27.0185 H   0  0  0  0  0  0
  -26.3166  -29.6515   24.1440 H   0  0  0  0  0  0
  -27.4017  -29.7245   25.5076 H   0  0  0  0  0  0
  -27.9081  -30.4049   23.9845 H   0  0  0  0  0  0
  -27.2564  -33.3732   26.1840 H   0  0  0  0  0  0
  -28.3920  -32.6799   25.0373 H   0  0  0  0  0  0
  -28.0573  -31.8651   26.5578 H   0  0  0  0  0  0
  -28.2445  -38.0146   24.7528 H   0  0  0  0  0  0
  -28.1182  -36.2649   24.6185 H   0  0  0  0  0  0
  -27.2296  -37.1251   25.8851 H   0  0  0  0  0  0
  -20.9614  -29.8775   21.6661 H   0  0  0  0  0  0
  -26.0088  -38.2709   24.1504 H   0  0  0  0  0  0
  -31.6355  -18.6973   19.4764 H   0  0  0  0  0  0
  -27.7685  -19.3225   21.1480 H   0  0  0  0  0  0
  -31.8369  -20.5297   17.4629 H   0  0  0  0  0  0
  -33.0795  -20.3864   18.7042 H   0  0  0  0  0  0
  -32.8973  -21.8880   17.8102 H   0  0  0  0  0  0
  -31.4100  -22.7886   21.1344 H   0  0  0  0  0  0
  -32.7681  -23.0532   20.0640 H   0  0  0  0  0  0
  -32.6858  -21.5843   21.0303 H   0  0  0  0  0  0
  -27.6519  -22.2183   21.3001 H   0  0  0  0  0  0
  -29.2394  -22.7236   21.5765 H   0  0  0  0  0  0
  -27.2136  -23.9116   19.5511 H   0  0  0  0  0  0
  -28.8507  -24.0489   19.0716 H   0  0  0  0  0  0
  -30.7275  -22.3243   18.8035 H   0  0  0  0  0  0
  -28.6373  -16.3571   20.7561 H   0  0  0  0  0  0
  1 25  1  0  0  0
  1 30  2  0  0  0
  1 81  1  0  0  0
  2  3  1  0  0  0
  2 25  1  0  0  0
  2 82  1  0  0  0
  2 83  1  0  0  0
  3  4  1  0  0  0
  3 84  1  0  0  0
  3 85  1  0  0  0
  4  5  1  0  0  0
  4 86  1  0  0  0
  4 87  1  0  0  0
  5  6  1  0  0  0
  5 26  1  0  0  0
  5 88  1  0  0  0
  6 25  1  0  0  0
  6 89  1  0  0  0
  6 90  1  0  0  0
  7  8  2  0  0  0
  7 26  1  0  0  0
  7 29  1  0  0  0
  8  9  1  0  0  0
  8 22  1  0  0  0
  9 10  1  0  0  0
  9 27  2  0  0  0
 10 11  2  0  0  0
 10 15  1  0  0  0
 11 12  1  0  0  0
 11 91  1  0  0  0
 12 13  2  0  0  0
 12 92  1  0  0  0
 13 14  1  0  0  0
 13 31  1  0  0  0
 14 15  2  0  0  0
 14 93  1  0  0  0
 15 94  1  0  0  0
 16 17  2  0  0  0
 16 21  1  0  0  0
 16 31  1  0  0  0
 17 18  1  0  0  0
 17 95  1  0  0  0
 18 19  2  0  0  0
 18 96  1  0  0  0
 19 20  1  0  0  0
 19 24  1  0  0  0
 20 21  2  0  0  0
 20 97  1  0  0  0
 21 23  1  0  0  0
 22 28  1  0  0  0
 22 32  2  0  0  0
 26 27  1  0  0  0
 28 98  1  0  0  0
 28 99  1  0  0  0
 29100  1  0  0  0
 29101  1  0  0  0
 33 34  1  0  0  0
 33 66  1  0  0  0
 33 70  2  0  0  0
 34 36  1  0  0  0
 34 59  1  0  0  0
 34102  1  0  0  0
 35 44  2  0  0  0
 35 45  1  0  0  0
 35 68  1  0  0  0
 36 56  1  0  0  0
 36103  1  0  0  0
 37 39  1  0  0  0
 37 47  1  0  0  0
 37 66  1  0  0  0
 37104  1  0  0  0
 38 43  2  0  0  0
 38 46  1  0  0  0
 38 47  1  0  0  0
 39 64  1  0  0  0
 39 67  2  0  0  0
 40 52  1  0  0  0
 40 53  2  0  0  0
 40 58  1  0  0  0
 41105  1  0  0  0
 41106  1  0  0  0
 41107  1  0  0  0
 41 48  1  0  0  0
 42 43  1  0  0  0
 42 66  1  0  0  0
 42108  1  0  0  0
 42109  1  0  0  0
 43 44  1  0  0  0
 44110  1  0  0  0
 45 46  2  0  0  0
 45111  1  0  0  0
 46112  1  0  0  0
 47113  1  0  0  0
 47114  1  0  0  0
 48 56  1  0  0  0
 48 65  1  0  0  0
 48115  1  0  0  0
 49 50  1  0  0  0
 49 53  1  0  0  0
 49 64  1  0  0  0
 49116  1  0  0  0
 50 51  1  0  0  0
 50117  1  0  0  0
 50118  1  0  0  0
 51 52  1  0  0  0
 51119  1  0  0  0
 51120  1  0  0  0
 52121  1  0  0  0
 52122  1  0  0  0
 53 54  1  0  0  0
 54 55  2  0  0  0
 54123  1  0  0  0
 55 57  1  0  0  0
 55124  1  0  0  0
 56 69  2  0  0  0
 57 58  2  0  0  0
 57125  1  0  0  0
 58126  1  0  0  0
 59 60  1  0  0  0
 59 61  1  0  0  0
 59 62  1  0  0  0
 60127  1  0  0  0
 60128  1  0  0  0
 60129  1  0  0  0
 61130  1  0  0  0
 61131  1  0  0  0
 61132  1  0  0  0
 62133  1  0  0  0
 62134  1  0  0  0
 62135  1  0  0  0
 63 65  1  0  0  0
 63136  1  0  0  0
 63137  1  0  0  0
 63138  1  0  0  0
 64139  1  0  0  0
 65140  1  0  0  0
 68 78  1  0  0  0
 71 73  1  0  0  0
 71 74  2  0  0  0
 71141  1  0  0  0
 72 73  2  0  0  0
 72 80  1  0  0  0
 72142  1  0  0  0
 73 81  1  0  0  0
 74 79  1  0  0  0
 74 80  1  0  0  0
 75143  1  0  0  0
 75144  1  0  0  0
 75145  1  0  0  0
 75 79  1  0  0  0
 76 79  1  0  0  0
 76146  1  0  0  0
 76147  1  0  0  0
 76148  1  0  0  0
 77 78  1  0  0  0
 77 80  1  0  0  0
 77149  1  0  0  0
 77150  1  0  0  0
 78151  1  0  0  0
 78152  1  0  0  0
 79153  1  0  0  0
 81154  1  0  0  0
M  ISO  4   1 100  68 101  78 101  81 100
M  END
> <chiral flag>
0

> <version>
0

> <s_m_source_file>
/data/baiqing/PycharmProjects/Reinvent-master-3.2/result/LINK_invent/BTK/process_docking_weight1_custom_sum_contain_oxygen_bond_distance_aromatic_linkinvent_7_9_3/rearranged_h_0107.sdf

> <i_m_source_file_index>
56

> <r_mmod_Potential_Energy-OPLS-2005>
1587.36145019531

> <r_mmod_Stretch_Energy-OPLS-2005>
710.054443359375

> <r_mmod_Bend_Energy-OPLS-2005>
525.717529296875

> <r_mmod_Torsional_Energy-OPLS-2005>
235.833526611328

> <r_mmod_Improper_Torsional_Energy-OPLS-2005>
5.12999629974365

> <r_mmod_Van_der_Waal_Energy-OPLS-2005>
105.562698364258

> <r_mmod_Electrostatic_Energy-OPLS-2005>
-366.561157226562

> <r_mmod_Solvation_Energy-OPLS-2005>
-218.222412109375

> <b_mmod_Minimization_Converged-OPLS-2005>
0

> <r_mmod_RMS_Derivative-OPLS-2005>
3.28113293647766

$$$$
58
                    3D
 Structure written by MMmdl.
164172  0  0  1  0            999 V2000
  -30.6310  -14.6903   20.4714 C   0  0  0  0  0  0
  -30.4323  -12.4210   19.4661 C   0  0  0  0  0  0
  -29.5076  -12.5041   18.2319 C   0  0  0  0  0  0
  -28.0322  -12.3354   18.6446 C   0  0  0  0  0  0
  -27.6463  -13.2259   19.8558 C   0  0  2  0  0  0
  -28.6915  -13.1313   20.9894 C   0  0  0  0  0  0
  -25.2529  -13.8188   20.5691 C   0  0  0  0  0  0
  -24.1805  -13.0439   20.9202 C   0  0  0  0  0  0
  -24.6392  -11.6918   20.8751 C   0  0  0  0  0  0
  -23.9061  -10.4294   21.0410 C   0  0  0  0  0  0
  -24.3615   -9.4211   21.9187 C   0  0  0  0  0  0
  -23.6296   -8.2240   22.0752 C   0  0  0  0  0  0
  -22.4276   -8.0278   21.3540 C   0  0  0  0  0  0
  -21.9911   -9.0252   20.4641 C   0  0  0  0  0  0
  -22.7237  -10.2136   20.3055 C   0  0  0  0  0  0
  -21.6855   -6.0734   22.5281 C   0  0  0  0  0  0
  -21.4011   -6.5638   23.8213 C   0  0  0  0  0  0
  -21.3658   -5.6792   24.9173 C   0  0  0  0  0  0
  -21.6053   -4.3056   24.7227 C   0  0  0  0  0  0
  -21.8814   -3.8143   23.4348 C   0  0  0  0  0  0
  -21.9191   -4.6960   22.3405 C   0  0  0  0  0  0
  -22.7831  -13.5231   21.1863 C   0  0  0  0  0  0
  -22.1661   -4.2151   21.0982 F   0  0  0  0  0  0
  -21.5633   -3.4540   25.7737 F   0  0  0  0  0  0
  -30.0009  -13.4702   20.4135 N   0  0  0  0  0  0
  -26.2953  -12.9387   20.3302 N   0  0  0  0  0  0
  -25.9319  -11.6534   20.5759 N   0  0  0  0  0  0
  -22.0476  -12.8215   22.0424 N   0  0  0  0  0  0
  -25.4224  -15.1905   20.4096 N   0  0  0  0  0  0
  -31.8105  -14.8041   20.1292 O   0  0  0  0  0  0
  -21.6642   -6.8878   21.4240 O   0  0  0  0  0  0
  -22.3513  -14.5539   20.6719 O   0  0  0  0  0  0
  -24.6288  -31.8570   23.1989 C   0  0  0  0  0  0
  -25.9122  -32.4760   23.8342 C   0  0  1  0  0  0
  -27.2233  -27.2927   20.1253 C   0  0  0  0  0  0
  -25.5929  -33.8562   24.2278 N   0  0  0  0  0  0
  -23.4261  -30.4784   21.5410 C   0  0  2  0  0  0
  -24.8734  -28.9265   20.1103 C   0  0  0  0  0  0
  -22.7490  -29.4617   22.4922 C   0  0  0  0  0  0
  -18.0291  -28.1386   22.8476 C   0  0  0  0  0  0
  -24.1492  -36.7281   23.2643 C   0  0  0  0  0  0
  -25.9688  -30.7776   21.3760 C   0  0  0  0  0  0
  -26.0432  -29.4032   20.7173 C   0  0  0  0  0  0
  -27.2247  -28.5991   20.7117 C   0  0  0  0  0  0
  -26.0367  -26.8768   19.4854 C   0  0  0  0  0  0
  -24.8728  -27.6697   19.4839 C   0  0  0  0  0  0
  -23.6422  -29.8102   20.1580 C   0  0  0  0  0  0
  -25.4115  -36.3081   24.0340 C   0  0  1  0  0  0
  -20.5895  -28.3704   23.1262 C   0  0  2  0  0  0
  -20.6785  -26.9424   22.5397 C   0  0  0  0  0  0
  -19.5760  -26.6382   21.5208 C   0  0  0  0  0  0
  -18.1937  -26.7927   22.1615 C   0  0  0  0  0  0
  -19.1543  -28.8858   23.2869 C   0  0  0  0  0  0
  -18.9468  -30.1461   23.8884 C   0  0  0  0  0  0
  -17.6468  -30.6587   24.0561 C   0  0  0  0  0  0
  -25.9048  -34.9447   23.5110 C   0  0  0  0  0  0
  -16.5360  -29.9083   23.6333 C   0  0  0  0  0  0
  -16.7277  -28.6504   23.0343 C   0  0  0  0  0  0
  -26.4503  -31.6568   25.0713 C   0  0  0  0  0  0
  -25.3729  -31.3694   26.1437 C   0  0  0  0  0  0
  -27.0362  -30.2992   24.6181 C   0  0  0  0  0  0
  -27.6067  -32.4302   25.7474 C   0  0  0  0  0  0
  -27.5586  -37.1795   24.8470 C   0  0  0  0  0  0
  -21.4196  -29.3063   22.3662 N   0  0  0  0  0  0
  -26.4299  -37.3772   23.9408 N   0  0  0  0  0  0
  -24.6932  -31.0558   22.0949 N   0  0  0  0  0  0
  -23.4195  -28.8171   23.3031 O   0  0  0  0  0  0
  -28.3174  -26.4084   20.1528 O   0  0  0  0  0  0
  -26.5623  -34.8919   22.4677 O   0  0  0  0  0  0
  -23.5443  -32.1390   23.7293 O   0  0  0  0  0  0
  -26.4208  -22.4516   20.1187 C   0  0  0  0  0  0
  -27.9287  -22.2916   20.2097 C   0  0  0  0  0  0
  -30.0824  -19.6829   21.6757 C   0  0  0  0  0  0
  -29.6693  -18.1655   21.7617 C   0  0  0  0  0  0
  -29.6171  -18.0039   19.3258 C   0  0  0  0  0  0
  -29.7462  -20.4839   20.3676 C   0  0  1  0  0  0
  -30.1909  -17.2844   20.5890 C   0  0  2  0  0  0
  -30.0267  -19.5275   19.1270 C   0  0  0  0  0  0
  -31.5411  -19.5836   18.8242 C   0  0  0  0  0  0
  -29.3130  -20.0590   17.8633 C   0  0  0  0  0  0
  -28.6638  -23.6925   19.9654 C   0  0  0  0  0  0
  -28.0777  -25.0281   20.6764 C   0  0  0  0  0  0
  -28.3777  -21.0637   20.4019 N   0  0  0  0  0  0
  -29.8532  -15.8034   20.7084 N   0  0  0  0  0  0
  -25.6180  -21.5610   20.4258 O   0  0  0  0  0  0
  -31.4744  -12.5388   19.1647 H   0  0  0  0  0  0
  -30.3679  -11.4381   19.9351 H   0  0  0  0  0  0
  -29.7834  -11.7397   17.5039 H   0  0  0  0  0  0
  -29.6397  -13.4649   17.7316 H   0  0  0  0  0  0
  -27.8818  -11.2853   18.8957 H   0  0  0  0  0  0
  -27.3751  -12.5411   17.7990 H   0  0  0  0  0  0
  -27.6493  -14.2522   19.4894 H   0  0  0  0  0  0
  -28.7126  -12.1258   21.4125 H   0  0  0  0  0  0
  -28.4343  -13.8003   21.8118 H   0  0  0  0  0  0
  -25.2760   -9.5692   22.4760 H   0  0  0  0  0  0
  -24.0010   -7.4633   22.7465 H   0  0  0  0  0  0
  -21.0847   -8.8763   19.8948 H   0  0  0  0  0  0
  -22.3693  -10.9670   19.6159 H   0  0  0  0  0  0
  -21.1998   -7.6145   23.9717 H   0  0  0  0  0  0
  -21.1492   -6.0521   25.9080 H   0  0  0  0  0  0
  -22.0596   -2.7605   23.2848 H   0  0  0  0  0  0
  -22.4096  -11.9878   22.4812 H   0  0  0  0  0  0
  -21.1086  -13.1225   22.2617 H   0  0  0  0  0  0
  -24.6550  -15.8444   20.5191 H   0  0  0  0  0  0
  -26.2680  -15.6295   20.0686 H   0  0  0  0  0  0
  -26.7186  -32.5417   23.1092 H   0  0  0  0  0  0
  -25.0099  -33.9698   25.0444 H   0  0  0  0  0  0
  -22.7220  -31.2989   21.3938 H   0  0  0  0  0  0
  -23.3762  -35.9603   23.3303 H   0  0  0  0  0  0
  -24.3604  -36.8895   22.2059 H   0  0  0  0  0  0
  -23.7227  -37.6475   23.6659 H   0  0  0  0  0  0
  -26.1081  -31.5407   20.6079 H   0  0  0  0  0  0
  -26.8453  -30.8218   22.0099 H   0  0  0  0  0  0
  -28.1237  -28.9587   21.1925 H   0  0  0  0  0  0
  -26.0017  -25.9152   18.9939 H   0  0  0  0  0  0
  -23.9782  -27.3002   19.0018 H   0  0  0  0  0  0
  -23.7650  -30.5835   19.3994 H   0  0  0  0  0  0
  -22.7609  -29.2402   19.8577 H   0  0  0  0  0  0
  -25.1296  -36.1945   25.0834 H   0  0  0  0  0  0
  -20.9991  -28.3284   24.1384 H   0  0  0  0  0  0
  -20.5696  -26.2313   23.3608 H   0  0  0  0  0  0
  -21.6649  -26.7451   22.1190 H   0  0  0  0  0  0
  -19.6927  -25.6293   21.1234 H   0  0  0  0  0  0
  -19.6693  -27.3193   20.6742 H   0  0  0  0  0  0
  -17.4210  -26.6677   21.4015 H   0  0  0  0  0  0
  -18.0337  -26.0070   22.9012 H   0  0  0  0  0  0
  -19.7946  -30.7281   24.2236 H   0  0  0  0  0  0
  -17.5024  -31.6263   24.5165 H   0  0  0  0  0  0
  -15.5361  -30.2980   23.7666 H   0  0  0  0  0  0
  -15.8677  -28.0825   22.7055 H   0  0  0  0  0  0
  -24.5915  -30.7043   25.7752 H   0  0  0  0  0  0
  -24.8918  -32.2847   26.4883 H   0  0  0  0  0  0
  -25.8057  -30.8845   27.0198 H   0  0  0  0  0  0
  -26.2947  -29.6709   24.1236 H   0  0  0  0  0  0
  -27.4097  -29.7283   25.4692 H   0  0  0  0  0  0
  -27.8799  -30.4283   23.9399 H   0  0  0  0  0  0
  -27.2698  -33.3610   26.2050 H   0  0  0  0  0  0
  -28.3873  -32.6842   25.0286 H   0  0  0  0  0  0
  -28.0745  -31.8422   26.5381 H   0  0  0  0  0  0
  -28.2599  -38.0099   24.7528 H   0  0  0  0  0  0
  -28.1093  -36.2632   24.6286 H   0  0  0  0  0  0
  -27.2309  -37.1424   25.8876 H   0  0  0  0  0  0
  -20.9383  -29.8776   21.6857 H   0  0  0  0  0  0
  -26.0187  -38.2852   24.1396 H   0  0  0  0  0  0
  -26.0685  -23.4089   19.7372 H   0  0  0  0  0  0
  -31.1649  -19.7186   21.8056 H   0  0  0  0  0  0
  -29.6848  -20.2168   22.5396 H   0  0  0  0  0  0
  -28.5816  -18.0980   21.8155 H   0  0  0  0  0  0
  -30.0394  -17.7606   22.7041 H   0  0  0  0  0  0
  -28.5284  -17.9409   19.3566 H   0  0  0  0  0  0
  -29.9117  -17.4393   18.4404 H   0  0  0  0  0  0
  -30.4461  -21.3209   20.3173 H   0  0  0  0  0  0
  -31.2792  -17.3543   20.5696 H   0  0  0  0  0  0
  -32.1446  -19.2769   19.6778 H   0  0  0  0  0  0
  -31.8581  -20.5934   18.5585 H   0  0  0  0  0  0
  -31.8111  -18.9352   17.9899 H   0  0  0  0  0  0
  -28.2282  -19.9913   17.9505 H   0  0  0  0  0  0
  -29.5937  -19.4909   16.9757 H   0  0  0  0  0  0
  -29.5651  -21.1025   17.6707 H   0  0  0  0  0  0
  -28.6449  -23.8599   18.8883 H   0  0  0  0  0  0
  -29.7172  -23.5934   20.2232 H   0  0  0  0  0  0
  -27.0138  -24.9182   20.8711 H   0  0  0  0  0  0
  -28.4968  -25.0333   21.6835 H   0  0  0  0  0  0
  -28.8966  -15.5937   20.9500 H   0  0  0  0  0  0
  1 25  1  0  0  0
  1 30  2  0  0  0
  1 84  1  0  0  0
  2  3  1  0  0  0
  2 25  1  0  0  0
  2 86  1  0  0  0
  2 87  1  0  0  0
  3  4  1  0  0  0
  3 88  1  0  0  0
  3 89  1  0  0  0
  4  5  1  0  0  0
  4 90  1  0  0  0
  4 91  1  0  0  0
  5  6  1  0  0  0
  5 26  1  0  0  0
  5 92  1  0  0  0
  6 25  1  0  0  0
  6 93  1  0  0  0
  6 94  1  0  0  0
  7  8  2  0  0  0
  7 26  1  0  0  0
  7 29  1  0  0  0
  8  9  1  0  0  0
  8 22  1  0  0  0
  9 10  1  0  0  0
  9 27  2  0  0  0
 10 11  2  0  0  0
 10 15  1  0  0  0
 11 12  1  0  0  0
 11 95  1  0  0  0
 12 13  2  0  0  0
 12 96  1  0  0  0
 13 14  1  0  0  0
 13 31  1  0  0  0
 14 15  2  0  0  0
 14 97  1  0  0  0
 15 98  1  0  0  0
 16 17  2  0  0  0
 16 21  1  0  0  0
 16 31  1  0  0  0
 17 18  1  0  0  0
 17 99  1  0  0  0
 18 19  2  0  0  0
 18100  1  0  0  0
 19 20  1  0  0  0
 19 24  1  0  0  0
 20 21  2  0  0  0
 20101  1  0  0  0
 21 23  1  0  0  0
 22 28  1  0  0  0
 22 32  2  0  0  0
 26 27  1  0  0  0
 28102  1  0  0  0
 28103  1  0  0  0
 29104  1  0  0  0
 29105  1  0  0  0
 33 34  1  0  0  0
 33 66  1  0  0  0
 33 70  2  0  0  0
 34 36  1  0  0  0
 34 59  1  0  0  0
 34106  1  0  0  0
 35 44  2  0  0  0
 35 45  1  0  0  0
 35 68  1  0  0  0
 36 56  1  0  0  0
 36107  1  0  0  0
 37 39  1  0  0  0
 37 47  1  0  0  0
 37 66  1  0  0  0
 37108  1  0  0  0
 38 43  2  0  0  0
 38 46  1  0  0  0
 38 47  1  0  0  0
 39 64  1  0  0  0
 39 67  2  0  0  0
 40 52  1  0  0  0
 40 53  2  0  0  0
 40 58  1  0  0  0
 41109  1  0  0  0
 41110  1  0  0  0
 41111  1  0  0  0
 41 48  1  0  0  0
 42 43  1  0  0  0
 42 66  1  0  0  0
 42112  1  0  0  0
 42113  1  0  0  0
 43 44  1  0  0  0
 44114  1  0  0  0
 45 46  2  0  0  0
 45115  1  0  0  0
 46116  1  0  0  0
 47117  1  0  0  0
 47118  1  0  0  0
 48 56  1  0  0  0
 48 65  1  0  0  0
 48119  1  0  0  0
 49 50  1  0  0  0
 49 53  1  0  0  0
 49 64  1  0  0  0
 49120  1  0  0  0
 50 51  1  0  0  0
 50121  1  0  0  0
 50122  1  0  0  0
 51 52  1  0  0  0
 51123  1  0  0  0
 51124  1  0  0  0
 52125  1  0  0  0
 52126  1  0  0  0
 53 54  1  0  0  0
 54 55  2  0  0  0
 54127  1  0  0  0
 55 57  1  0  0  0
 55128  1  0  0  0
 56 69  2  0  0  0
 57 58  2  0  0  0
 57129  1  0  0  0
 58130  1  0  0  0
 59 60  1  0  0  0
 59 61  1  0  0  0
 59 62  1  0  0  0
 60131  1  0  0  0
 60132  1  0  0  0
 60133  1  0  0  0
 61134  1  0  0  0
 61135  1  0  0  0
 61136  1  0  0  0
 62137  1  0  0  0
 62138  1  0  0  0
 62139  1  0  0  0
 63 65  1  0  0  0
 63140  1  0  0  0
 63141  1  0  0  0
 63142  1  0  0  0
 64143  1  0  0  0
 65144  1  0  0  0
 68 82  1  0  0  0
 71 72  1  0  0  0
 71 85  2  0  0  0
 71145  1  0  0  0
 72 81  1  0  0  0
 72 83  2  0  0  0
 73 74  1  0  0  0
 73 76  1  0  0  0
 73146  1  0  0  0
 73147  1  0  0  0
 74 77  1  0  0  0
 74148  1  0  0  0
 74149  1  0  0  0
 75 77  1  0  0  0
 75 78  1  0  0  0
 75150  1  0  0  0
 75151  1  0  0  0
 76 78  1  0  0  0
 76 83  1  0  0  0
 76152  1  0  0  0
 77 84  1  0  0  0
 77153  1  0  0  0
 78 79  1  0  0  0
 78 80  1  0  0  0
 79154  1  0  0  0
 79155  1  0  0  0
 79156  1  0  0  0
 80157  1  0  0  0
 80158  1  0  0  0
 80159  1  0  0  0
 81 82  1  0  0  0
 81160  1  0  0  0
 81161  1  0  0  0
 82162  1  0  0  0
 82163  1  0  0  0
 84164  1  0  0  0
M  ISO  4   1 100  68 101  82 101  84 100
M  END
> <chiral flag>
0

> <version>
0

> <s_m_source_file>
/data/baiqing/PycharmProjects/Reinvent-master-3.2/result/LINK_invent/BTK/process_docking_weight1_custom_sum_contain_oxygen_bond_distance_aromatic_linkinvent_7_9_3/rearranged_h_0107.sdf

> <i_m_source_file_index>
57

> <r_mmod_Potential_Energy-OPLS-2005>
176.299041748047

> <r_mmod_Stretch_Energy-OPLS-2005>
108.178527832031

> <r_mmod_Bend_Energy-OPLS-2005>
203.112518310547

> <r_mmod_Torsional_Energy-OPLS-2005>
263.452087402344

> <r_mmod_Improper_Torsional_Energy-OPLS-2005>
5.18541526794434

> <r_mmod_Van_der_Waal_Energy-OPLS-2005>
128.8193359375

> <r_mmod_Electrostatic_Energy-OPLS-2005>
-372.665100097656

> <r_mmod_Solvation_Energy-OPLS-2005>
-225.350845336914

> <b_mmod_Minimization_Converged-OPLS-2005>
0

> <r_mmod_RMS_Derivative-OPLS-2005>
1.72266364097595

$$$$
59
                    3D
 Structure written by MMmdl.
146153  0  0  1  0            999 V2000
  -30.1647  -15.9975   20.2868 C   0  0  0  0  0  0
  -30.3898  -13.3460   19.5614 C   0  0  0  0  0  0
  -29.5643  -12.7593   18.3679 C   0  0  0  0  0  0
  -28.1653  -12.3231   18.8190 C   0  0  0  0  0  0
  -27.5824  -13.3498   19.8107 C   0  0  2  0  0  0
  -28.5666  -13.8340   20.9133 C   0  0  0  0  0  0
  -25.2242  -13.8341   20.5842 C   0  0  0  0  0  0
  -24.1677  -13.0434   20.9315 C   0  0  0  0  0  0
  -24.6432  -11.6963   20.8748 C   0  0  0  0  0  0
  -23.9140  -10.4291   21.0366 C   0  0  0  0  0  0
  -24.3666   -9.4208   21.9154 C   0  0  0  0  0  0
  -23.6325   -8.2252   22.0738 C   0  0  0  0  0  0
  -22.4304   -8.0285   21.3535 C   0  0  0  0  0  0
  -21.9952   -9.0257   20.4632 C   0  0  0  0  0  0
  -22.7299  -10.2127   20.3027 C   0  0  0  0  0  0
  -21.6868   -6.0739   22.5271 C   0  0  0  0  0  0
  -21.4028   -6.5638   23.8205 C   0  0  0  0  0  0
  -21.3667   -5.6791   24.9168 C   0  0  0  0  0  0
  -21.6048   -4.3053   24.7222 C   0  0  0  0  0  0
  -21.8817   -3.8144   23.4341 C   0  0  0  0  0  0
  -21.9195   -4.6964   22.3399 C   0  0  0  0  0  0
  -22.7681  -13.5128   21.1946 C   0  0  0  0  0  0
  -22.1659   -4.2147   21.0977 F   0  0  0  0  0  0
  -21.5626   -3.4535   25.7735 F   0  0  0  0  0  0
  -29.6920  -14.5629   20.2490 N   0  0  0  0  0  0
  -26.2734  -12.9756   20.3270 N   0  0  0  0  0  0
  -25.9396  -11.6779   20.5663 N   0  0  0  0  0  0
  -22.0359  -12.8088   22.0495 N   0  0  0  0  0  0
  -25.3782  -15.2091   20.4297 N   0  0  0  0  0  0
  -31.4001  -15.8784   20.1009 O   0  0  0  0  0  0
  -21.6656   -6.8890   21.4237 O   0  0  0  0  0  0
  -22.3346  -14.5421   20.6781 O   0  0  0  0  0  0
  -24.7086  -31.7698   23.1304 C   0  0  0  0  0  0
  -25.9547  -32.4323   23.7943 C   0  0  1  0  0  0
  -27.2379  -26.4407   20.2286 C   0  0  0  0  0  0
  -25.6014  -33.8166   24.1806 N   0  0  0  0  0  0
  -23.5467  -30.3611   21.4892 C   0  0  2  0  0  0
  -25.0081  -28.6507   20.1186 C   0  0  0  0  0  0
  -22.7882  -29.4159   22.4627 C   0  0  0  0  0  0
  -18.0354  -28.1447   22.8441 C   0  0  0  0  0  0
  -24.1496  -36.7099   23.2656 C   0  0  0  0  0  0
  -26.1374  -30.4142   21.4365 C   0  0  0  0  0  0
  -26.1983  -28.9512   20.7890 C   0  0  0  0  0  0
  -27.2793  -27.8801   20.8109 C   0  0  0  0  0  0
  -26.0174  -26.4261   19.4836 C   0  0  0  0  0  0
  -24.9732  -27.4178   19.4413 C   0  0  0  0  0  0
  -23.8159  -29.6378   20.1334 C   0  0  0  0  0  0
  -25.4161  -36.2820   24.0258 C   0  0  1  0  0  0
  -20.6004  -28.3821   23.1098 C   0  0  2  0  0  0
  -20.6808  -26.9456   22.5413 C   0  0  0  0  0  0
  -19.5788  -26.6368   21.5227 C   0  0  0  0  0  0
  -18.1970  -26.7968   22.1622 C   0  0  0  0  0  0
  -19.1627  -28.8962   23.2743 C   0  0  0  0  0  0
  -18.9528  -30.1534   23.8806 C   0  0  0  0  0  0
  -17.6515  -30.6618   24.0550 C   0  0  0  0  0  0
  -25.9157  -34.9214   23.4894 C   0  0  0  0  0  0
  -16.5402  -29.9100   23.6357 C   0  0  0  0  0  0
  -16.7333  -28.6525   23.0372 C   0  0  0  0  0  0
  -26.4638  -31.6464   25.0670 C   0  0  0  0  0  0
  -25.3629  -31.3856   26.1230 C   0  0  0  0  0  0
  -27.0607  -30.2769   24.6759 C   0  0  0  0  0  0
  -27.6040  -32.4377   25.7504 C   0  0  0  0  0  0
  -27.5565  -37.1706   24.8464 C   0  0  0  0  0  0
  -21.4503  -29.3015   22.3388 N   0  0  0  0  0  0
  -26.4265  -37.3610   23.9408 N   0  0  0  0  0  0
  -24.8243  -30.8885   22.0701 N   0  0  0  0  0  0
  -23.4210  -28.7793   23.3081 O   0  0  0  0  0  0
  -28.1557  -25.0978   20.3772 O   0  0  0  0  0  0
  -26.5834  -34.8841   22.4536 O   0  0  0  0  0  0
  -23.6052  -32.0899   23.6095 O   0  0  0  0  0  0
  -27.0323  -23.0680   19.1208 C   0  0  0  0  0  0
  -29.4970  -23.4654   18.9953 C   0  0  0  0  0  0
  -29.3854  -19.3411   20.0055 C   0  0  0  0  0  0
  -28.7139  -21.2637   20.5461 C   0  0  1  0  0  0
  -28.3125  -23.2499   19.9461 C   0  0  0  0  0  0
  -29.4126  -17.4601   20.3560 N   0  0  0  0  0  0
  -27.5652  -20.9486   21.1452 F   0  0  0  0  0  0
  -31.3636  -13.6424   19.1721 H   0  0  0  0  0  0
  -30.6174  -12.5626   20.2866 H   0  0  0  0  0  0
  -30.0933  -11.9224   17.9102 H   0  0  0  0  0  0
  -29.4698  -13.5228   17.5942 H   0  0  0  0  0  0
  -28.2511  -11.3530   19.3093 H   0  0  0  0  0  0
  -27.5060  -12.1820   17.9617 H   0  0  0  0  0  0
  -27.3986  -14.2236   19.1836 H   0  0  0  0  0  0
  -28.8953  -13.0152   21.5551 H   0  0  0  0  0  0
  -28.0595  -14.5414   21.5706 H   0  0  0  0  0  0
  -25.2804   -9.5689   22.4741 H   0  0  0  0  0  0
  -24.0024   -7.4648   22.7470 H   0  0  0  0  0  0
  -21.0876   -8.8787   19.8945 H   0  0  0  0  0  0
  -22.3749  -10.9663   19.6136 H   0  0  0  0  0  0
  -21.2028   -7.6147   23.9715 H   0  0  0  0  0  0
  -21.1492   -6.0516   25.9073 H   0  0  0  0  0  0
  -22.0593   -2.7606   23.2840 H   0  0  0  0  0  0
  -22.4027  -11.9779   22.4902 H   0  0  0  0  0  0
  -21.0953  -13.1055   22.2686 H   0  0  0  0  0  0
  -24.6061  -15.8557   20.5492 H   0  0  0  0  0  0
  -26.2181  -15.6534   20.0832 H   0  0  0  0  0  0
  -26.7644  -32.4725   23.0663 H   0  0  0  0  0  0
  -25.0022  -33.9151   24.9866 H   0  0  0  0  0  0
  -22.8871  -31.2055   21.2792 H   0  0  0  0  0  0
  -23.3786  -35.9398   23.3245 H   0  0  0  0  0  0
  -24.3551  -36.8852   22.2084 H   0  0  0  0  0  0
  -23.7229  -37.6236   23.6800 H   0  0  0  0  0  0
  -26.3690  -31.1210   20.6385 H   0  0  0  0  0  0
  -26.9783  -30.4904   22.1124 H   0  0  0  0  0  0
  -28.1597  -28.1223   21.3896 H   0  0  0  0  0  0
  -25.7901  -25.5163   18.9514 H   0  0  0  0  0  0
  -24.0838  -27.1765   18.8756 H   0  0  0  0  0  0
  -24.0151  -30.3904   19.3692 H   0  0  0  0  0  0
  -22.9147  -29.1200   19.7994 H   0  0  0  0  0  0
  -25.1381  -36.1549   25.0743 H   0  0  0  0  0  0
  -21.0080  -28.3471   24.1231 H   0  0  0  0  0  0
  -20.5660  -26.2457   23.3705 H   0  0  0  0  0  0
  -21.6669  -26.7364   22.1246 H   0  0  0  0  0  0
  -19.6945  -25.6252   21.1326 H   0  0  0  0  0  0
  -19.6738  -27.3122   20.6714 H   0  0  0  0  0  0
  -17.4246  -26.6714   21.4018 H   0  0  0  0  0  0
  -18.0345  -26.0135   22.9040 H   0  0  0  0  0  0
  -19.7999  -30.7367   24.2152 H   0  0  0  0  0  0
  -17.5064  -31.6287   24.5176 H   0  0  0  0  0  0
  -15.5402  -30.2979   23.7725 H   0  0  0  0  0  0
  -15.8733  -28.0810   22.7149 H   0  0  0  0  0  0
  -24.5850  -30.7175   25.7511 H   0  0  0  0  0  0
  -24.8779  -32.3100   26.4368 H   0  0  0  0  0  0
  -25.7730  -30.9192   27.0194 H   0  0  0  0  0  0
  -26.3363  -29.6305   24.1792 H   0  0  0  0  0  0
  -27.3970  -29.7318   25.5587 H   0  0  0  0  0  0
  -27.9372  -30.3835   24.0370 H   0  0  0  0  0  0
  -27.2551  -33.3777   26.1792 H   0  0  0  0  0  0
  -28.3998  -32.6782   25.0441 H   0  0  0  0  0  0
  -28.0547  -31.8702   26.5656 H   0  0  0  0  0  0
  -28.2533  -38.0046   24.7528 H   0  0  0  0  0  0
  -28.1107  -36.2569   24.6272 H   0  0  0  0  0  0
  -27.2277  -37.1314   25.8861 H   0  0  0  0  0  0
  -20.9878  -29.8648   21.6384 H   0  0  0  0  0  0
  -26.0076  -38.2645   24.1428 H   0  0  0  0  0  0
  -26.9876  -22.0723   18.6789 H   0  0  0  0  0  0
  -26.9690  -23.7829   18.3017 H   0  0  0  0  0  0
  -26.1494  -23.1857   19.7486 H   0  0  0  0  0  0
  -29.6966  -22.5742   18.3993 H   0  0  0  0  0  0
  -30.4006  -23.6913   19.5621 H   0  0  0  0  0  0
  -29.3236  -24.2933   18.3070 H   0  0  0  0  0  0
  -30.4462  -19.5205   19.8296 H   0  0  0  0  0  0
  -28.9772  -19.2923   18.9957 H   0  0  0  0  0  0
  -29.3846  -21.4608   21.3832 H   0  0  0  0  0  0
  -28.4573  -17.2176   20.5838 H   0  0  0  0  0  0
  1 25  1  0  0  0
  1 30  2  0  0  0
  1 76  1  0  0  0
  2  3  1  0  0  0
  2 25  1  0  0  0
  2 78  1  0  0  0
  2 79  1  0  0  0
  3  4  1  0  0  0
  3 80  1  0  0  0
  3 81  1  0  0  0
  4  5  1  0  0  0
  4 82  1  0  0  0
  4 83  1  0  0  0
  5  6  1  0  0  0
  5 26  1  0  0  0
  5 84  1  0  0  0
  6 25  1  0  0  0
  6 85  1  0  0  0
  6 86  1  0  0  0
  7  8  2  0  0  0
  7 26  1  0  0  0
  7 29  1  0  0  0
  8  9  1  0  0  0
  8 22  1  0  0  0
  9 10  1  0  0  0
  9 27  2  0  0  0
 10 11  2  0  0  0
 10 15  1  0  0  0
 11 12  1  0  0  0
 11 87  1  0  0  0
 12 13  2  0  0  0
 12 88  1  0  0  0
 13 14  1  0  0  0
 13 31  1  0  0  0
 14 15  2  0  0  0
 14 89  1  0  0  0
 15 90  1  0  0  0
 16 17  2  0  0  0
 16 21  1  0  0  0
 16 31  1  0  0  0
 17 18  1  0  0  0
 17 91  1  0  0  0
 18 19  2  0  0  0
 18 92  1  0  0  0
 19 20  1  0  0  0
 19 24  1  0  0  0
 20 21  2  0  0  0
 20 93  1  0  0  0
 21 23  1  0  0  0
 22 28  1  0  0  0
 22 32  2  0  0  0
 26 27  1  0  0  0
 28 94  1  0  0  0
 28 95  1  0  0  0
 29 96  1  0  0  0
 29 97  1  0  0  0
 33 34  1  0  0  0
 33 66  1  0  0  0
 33 70  2  0  0  0
 34 36  1  0  0  0
 34 59  1  0  0  0
 34 98  1  0  0  0
 35 44  2  0  0  0
 35 45  1  0  0  0
 35 68  1  0  0  0
 36 56  1  0  0  0
 36 99  1  0  0  0
 37 39  1  0  0  0
 37 47  1  0  0  0
 37 66  1  0  0  0
 37100  1  0  0  0
 38 43  2  0  0  0
 38 46  1  0  0  0
 38 47  1  0  0  0
 39 64  1  0  0  0
 39 67  2  0  0  0
 40 52  1  0  0  0
 40 53  2  0  0  0
 40 58  1  0  0  0
 41101  1  0  0  0
 41102  1  0  0  0
 41103  1  0  0  0
 41 48  1  0  0  0
 42 43  1  0  0  0
 42 66  1  0  0  0
 42104  1  0  0  0
 42105  1  0  0  0
 43 44  1  0  0  0
 44106  1  0  0  0
 45 46  2  0  0  0
 45107  1  0  0  0
 46108  1  0  0  0
 47109  1  0  0  0
 47110  1  0  0  0
 48 56  1  0  0  0
 48 65  1  0  0  0
 48111  1  0  0  0
 49 50  1  0  0  0
 49 53  1  0  0  0
 49 64  1  0  0  0
 49112  1  0  0  0
 50 51  1  0  0  0
 50113  1  0  0  0
 50114  1  0  0  0
 51 52  1  0  0  0
 51115  1  0  0  0
 51116  1  0  0  0
 52117  1  0  0  0
 52118  1  0  0  0
 53 54  1  0  0  0
 54 55  2  0  0  0
 54119  1  0  0  0
 55 57  1  0  0  0
 55120  1  0  0  0
 56 69  2  0  0  0
 57 58  2  0  0  0
 57121  1  0  0  0
 58122  1  0  0  0
 59 60  1  0  0  0
 59 61  1  0  0  0
 59 62  1  0  0  0
 60123  1  0  0  0
 60124  1  0  0  0
 60125  1  0  0  0
 61126  1  0  0  0
 61127  1  0  0  0
 61128  1  0  0  0
 62129  1  0  0  0
 62130  1  0  0  0
 62131  1  0  0  0
 63 65  1  0  0  0
 63132  1  0  0  0
 63133  1  0  0  0
 63134  1  0  0  0
 64135  1  0  0  0
 65136  1  0  0  0
 68 75  1  0  0  0
 71137  1  0  0  0
 71138  1  0  0  0
 71139  1  0  0  0
 71 75  1  0  0  0
 72 75  1  0  0  0
 72140  1  0  0  0
 72141  1  0  0  0
 72142  1  0  0  0
 73 74  1  0  0  0
 73 76  1  0  0  0
 73143  1  0  0  0
 73144  1  0  0  0
 74 75  1  0  0  0
 74 77  1  0  0  0
 74145  1  0  0  0
 76146  1  0  0  0
M  ISO  4   1 100  68 101  75 101  76 100
M  END
> <chiral flag>
0

> <version>
0

> <s_m_source_file>
/data/baiqing/PycharmProjects/Reinvent-master-3.2/result/LINK_invent/BTK/process_docking_weight1_custom_sum_contain_oxygen_bond_distance_aromatic_linkinvent_7_9_3/rearranged_h_0107.sdf

> <i_m_source_file_index>
58

> <r_mmod_Potential_Energy-OPLS-2005>
4139.71630859375

> <r_mmod_Stretch_Energy-OPLS-2005>
1944.72485351562

> <r_mmod_Bend_Energy-OPLS-2005>
902.19677734375

> <r_mmod_Torsional_Energy-OPLS-2005>
229.893005371094

> <r_mmod_Improper_Torsional_Energy-OPLS-2005>
4.18797874450684

> <r_mmod_Van_der_Waal_Energy-OPLS-2005>
113.360794067383

> <r_mmod_Electrostatic_Energy-OPLS-2005>
-372.763854980469

> <r_mmod_Solvation_Energy-OPLS-2005>
-217.513885498047

> <b_mmod_Minimization_Converged-OPLS-2005>
0

> <r_mmod_RMS_Derivative-OPLS-2005>
1.38788640499115

$$$$
60
                    3D
 Structure written by MMmdl.
166174  0  0  1  0            999 V2000
  -30.6153  -14.7366   20.4961 C   0  0  0  0  0  0
  -30.4349  -12.4636   19.4625 C   0  0  0  0  0  0
  -29.5130  -12.5181   18.2261 C   0  0  0  0  0  0
  -28.0396  -12.3294   18.6392 C   0  0  0  0  0  0
  -27.6398  -13.2301   19.8396 C   0  0  2  0  0  0
  -28.6813  -13.1638   20.9749 C   0  0  0  0  0  0
  -25.2510  -13.8187   20.5672 C   0  0  0  0  0  0
  -24.1803  -13.0435   20.9200 C   0  0  0  0  0  0
  -24.6392  -11.6913   20.8732 C   0  0  0  0  0  0
  -23.9064  -10.4295   21.0393 C   0  0  0  0  0  0
  -24.3619   -9.4220   21.9170 C   0  0  0  0  0  0
  -23.6307   -8.2247   22.0735 C   0  0  0  0  0  0
  -22.4293   -8.0276   21.3523 C   0  0  0  0  0  0
  -21.9922   -9.0250   20.4627 C   0  0  0  0  0  0
  -22.7238  -10.2135   20.3042 C   0  0  0  0  0  0
  -21.6862   -6.0737   22.5278 C   0  0  0  0  0  0
  -21.4014   -6.5636   23.8212 C   0  0  0  0  0  0
  -21.3660   -5.6787   24.9176 C   0  0  0  0  0  0
  -21.6052   -4.3050   24.7220 C   0  0  0  0  0  0
  -21.8816   -3.8138   23.4339 C   0  0  0  0  0  0
  -21.9191   -4.6961   22.3400 C   0  0  0  0  0  0
  -22.7820  -13.5219   21.1870 C   0  0  0  0  0  0
  -22.1657   -4.2147   21.0975 F   0  0  0  0  0  0
  -21.5637   -3.4533   25.7733 F   0  0  0  0  0  0
  -29.9816  -13.5210   20.3926 N   0  0  0  0  0  0
  -26.2922  -12.9387   20.3204 N   0  0  0  0  0  0
  -25.9321  -11.6535   20.5685 N   0  0  0  0  0  0
  -22.0464  -12.8215   22.0430 N   0  0  0  0  0  0
  -25.4199  -15.1908   20.4079 N   0  0  0  0  0  0
  -31.8115  -14.8374   20.2131 O   0  0  0  0  0  0
  -21.6641   -6.8883   21.4242 O   0  0  0  0  0  0
  -22.3503  -14.5530   20.6714 O   0  0  0  0  0  0
  -24.6327  -31.8539   23.1961 C   0  0  0  0  0  0
  -25.9158  -32.4740   23.8302 C   0  0  1  0  0  0
  -27.2219  -27.2600   20.1399 C   0  0  0  0  0  0
  -25.5932  -33.8540   24.2231 N   0  0  0  0  0  0
  -23.4272  -30.4751   21.5407 C   0  0  2  0  0  0
  -24.8752  -28.9162   20.1134 C   0  0  0  0  0  0
  -22.7508  -29.4583   22.4912 C   0  0  0  0  0  0
  -18.0289  -28.1374   22.8482 C   0  0  0  0  0  0
  -24.1475  -36.7250   23.2642 C   0  0  0  0  0  0
  -25.9720  -30.7688   21.3738 C   0  0  0  0  0  0
  -26.0477  -29.3899   20.7178 C   0  0  0  0  0  0
  -27.2273  -28.5761   20.7138 C   0  0  0  0  0  0
  -26.0297  -26.8526   19.5049 C   0  0  0  0  0  0
  -24.8709  -27.6553   19.4962 C   0  0  0  0  0  0
  -23.6458  -29.8044   20.1582 C   0  0  0  0  0  0
  -25.4113  -36.3054   24.0322 C   0  0  1  0  0  0
  -20.5893  -28.3677   23.1262 C   0  0  2  0  0  0
  -20.6761  -26.9390   22.5409 C   0  0  0  0  0  0
  -19.5741  -26.6373   21.5203 C   0  0  0  0  0  0
  -18.1925  -26.7907   22.1626 C   0  0  0  0  0  0
  -19.1547  -28.8843   23.2851 C   0  0  0  0  0  0
  -18.9481  -30.1445   23.8863 C   0  0  0  0  0  0
  -17.6485  -30.6573   24.0557 C   0  0  0  0  0  0
  -25.9073  -34.9429   23.5082 C   0  0  0  0  0  0
  -16.5370  -29.9087   23.6314 C   0  0  0  0  0  0
  -16.7281  -28.6498   23.0346 C   0  0  0  0  0  0
  -26.4518  -31.6578   25.0697 C   0  0  0  0  0  0
  -25.3747  -31.3758   26.1434 C   0  0  0  0  0  0
  -27.0368  -30.2986   24.6199 C   0  0  0  0  0  0
  -27.6033  -32.4350   25.7488 C   0  0  0  0  0  0
  -27.5566  -37.1787   24.8476 C   0  0  0  0  0  0
  -21.4212  -29.3028   22.3669 N   0  0  0  0  0  0
  -26.4271  -37.3774   23.9431 N   0  0  0  0  0  0
  -24.6955  -31.0510   22.0933 N   0  0  0  0  0  0
  -23.4199  -28.8133   23.3028 O   0  0  0  0  0  0
  -28.3186  -26.3675   20.1590 O   0  0  0  0  0  0
  -26.5654  -34.8916   22.4662 O   0  0  0  0  0  0
  -23.5475  -32.1358   23.7272 O   0  0  0  0  0  0
  -29.1179  -19.6645   21.1725 C   0  0  0  0  0  0
  -30.2494  -20.6195   19.5389 C   0  0  0  0  0  0
  -29.9579  -18.6535   20.6959 C   0  0  0  0  0  0
  -30.6746  -19.3028   19.6350 C   0  0  0  0  0  0
  -33.6670  -20.1806   19.6896 C   0  0  0  0  0  0
  -31.2007  -17.9796   17.5654 C   0  0  0  0  0  0
  -28.4132  -23.4754   18.5726 C   0  0  0  0  0  0
  -30.2665  -17.2119   21.3178 C   0  0  0  0  0  0
  -32.9282  -19.6188   18.4632 C   0  0  0  0  0  0
  -28.6447  -22.2521   20.8633 C   0  0  0  0  0  0
  -28.0985  -24.9578   20.6470 C   0  0  0  0  0  0
  -31.7768  -18.6532   18.8161 C   0  0  1  0  0  0
  -28.8436  -23.6443   20.0389 C   0  0  2  0  0  0
  -29.3033  -20.9080   20.5099 N   0  0  0  0  0  0
  -29.8466  -15.8593   20.7583 N   0  0  0  0  0  0
  -31.4753  -12.5989   19.1616 H   0  0  0  0  0  0
  -30.3835  -11.4851   19.9435 H   0  0  0  0  0  0
  -29.8059  -11.7533   17.5055 H   0  0  0  0  0  0
  -29.6332  -13.4781   17.7200 H   0  0  0  0  0  0
  -27.9066  -11.2806   18.9051 H   0  0  0  0  0  0
  -27.3809  -12.5092   17.7884 H   0  0  0  0  0  0
  -27.6336  -14.2505   19.4570 H   0  0  0  0  0  0
  -28.7192  -12.1671   21.4155 H   0  0  0  0  0  0
  -28.4077  -13.8451   21.7820 H   0  0  0  0  0  0
  -25.2770   -9.5707   22.4740 H   0  0  0  0  0  0
  -24.0018   -7.4642   22.7459 H   0  0  0  0  0  0
  -21.0847   -8.8757   19.8951 H   0  0  0  0  0  0
  -22.3680  -10.9664   19.6137 H   0  0  0  0  0  0
  -21.2000   -7.6144   23.9719 H   0  0  0  0  0  0
  -21.1494   -6.0510   25.9080 H   0  0  0  0  0  0
  -22.0598   -2.7602   23.2833 H   0  0  0  0  0  0
  -22.4071  -11.9887   22.4846 H   0  0  0  0  0  0
  -21.1063  -13.1216   22.2598 H   0  0  0  0  0  0
  -24.6500  -15.8430   20.5138 H   0  0  0  0  0  0
  -26.2616  -15.6324   20.0592 H   0  0  0  0  0  0
  -26.7217  -32.5411   23.1033 H   0  0  0  0  0  0
  -25.0075  -33.9649   25.0373 H   0  0  0  0  0  0
  -22.7234  -31.2968   21.3938 H   0  0  0  0  0  0
  -23.3743  -35.9575   23.3313 H   0  0  0  0  0  0
  -24.3549  -36.8874   22.2049 H   0  0  0  0  0  0
  -23.7206  -37.6444   23.6668 H   0  0  0  0  0  0
  -26.1147  -31.5332   20.6082 H   0  0  0  0  0  0
  -26.8451  -30.8135   22.0126 H   0  0  0  0  0  0
  -28.1264  -28.9378   21.1925 H   0  0  0  0  0  0
  -25.9825  -25.8878   19.0195 H   0  0  0  0  0  0
  -23.9731  -27.2868   19.0181 H   0  0  0  0  0  0
  -23.7738  -30.5775   19.4000 H   0  0  0  0  0  0
  -22.7627  -29.2410   19.8509 H   0  0  0  0  0  0
  -25.1291  -36.1877   25.0809 H   0  0  0  0  0  0
  -20.9977  -28.3251   24.1386 H   0  0  0  0  0  0
  -20.5625  -26.2301   23.3623 H   0  0  0  0  0  0
  -21.6635  -26.7392   22.1231 H   0  0  0  0  0  0
  -19.6897  -25.6288   21.1222 H   0  0  0  0  0  0
  -19.6658  -27.3190   20.6731 H   0  0  0  0  0  0
  -17.4192  -26.6646   21.4032 H   0  0  0  0  0  0
  -18.0325  -26.0045   22.9018 H   0  0  0  0  0  0
  -19.7971  -30.7255   24.2211 H   0  0  0  0  0  0
  -17.5056  -31.6241   24.5182 H   0  0  0  0  0  0
  -15.5374  -30.2998   23.7632 H   0  0  0  0  0  0
  -15.8679  -28.0813   22.7078 H   0  0  0  0  0  0
  -24.5891  -30.7129   25.7792 H   0  0  0  0  0  0
  -24.8980  -32.2949   26.4846 H   0  0  0  0  0  0
  -25.8068  -30.8955   27.0217 H   0  0  0  0  0  0
  -26.2956  -29.6729   24.1207 H   0  0  0  0  0  0
  -27.4027  -29.7252   25.4725 H   0  0  0  0  0  0
  -27.8839  -30.4247   23.9451 H   0  0  0  0  0  0
  -27.2581  -33.3647   26.2022 H   0  0  0  0  0  0
  -28.3860  -32.6931   25.0344 H   0  0  0  0  0  0
  -28.0676  -31.8525   26.5456 H   0  0  0  0  0  0
  -28.2605  -38.0066   24.7520 H   0  0  0  0  0  0
  -28.1039  -36.2600   24.6304 H   0  0  0  0  0  0
  -27.2287  -37.1428   25.8881 H   0  0  0  0  0  0
  -20.9414  -29.8787   21.6895 H   0  0  0  0  0  0
  -26.0133  -38.2840   24.1466 H   0  0  0  0  0  0
  -28.4302  -19.6238   22.0082 H   0  0  0  0  0  0
  -30.5960  -21.4052   18.8806 H   0  0  0  0  0  0
  -34.5130  -20.7995   19.3890 H   0  0  0  0  0  0
  -34.0490  -19.3754   20.3168 H   0  0  0  0  0  0
  -33.0142  -20.7984   20.3065 H   0  0  0  0  0  0
  -30.4278  -17.2568   17.8303 H   0  0  0  0  0  0
  -31.9789  -17.4435   17.0218 H   0  0  0  0  0  0
  -30.7615  -18.7110   16.8869 H   0  0  0  0  0  0
  -28.9601  -22.6818   18.0680 H   0  0  0  0  0  0
  -28.5738  -24.3965   18.0110 H   0  0  0  0  0  0
  -27.3533  -23.2314   18.5009 H   0  0  0  0  0  0
  -29.8538  -17.2465   22.3269 H   0  0  0  0  0  0
  -31.3440  -17.1740   21.4810 H   0  0  0  0  0  0
  -33.6500  -19.0924   17.8367 H   0  0  0  0  0  0
  -32.5556  -20.4424   17.8538 H   0  0  0  0  0  0
  -27.5721  -22.0596   20.9116 H   0  0  0  0  0  0
  -28.9324  -22.4612   21.8946 H   0  0  0  0  0  0
  -28.3598  -24.9932   21.7054 H   0  0  0  0  0  0
  -27.0337  -24.7315   20.6523 H   0  0  0  0  0  0
  -32.2111  -17.8626   19.4297 H   0  0  0  0  0  0
  -29.9123  -23.8613   20.0456 H   0  0  0  0  0  0
  -28.8583  -15.6724   20.8292 H   0  0  0  0  0  0
  1 25  1  0  0  0
  1 30  2  0  0  0
  1 85  1  0  0  0
  2  3  1  0  0  0
  2 25  1  0  0  0
  2 86  1  0  0  0
  2 87  1  0  0  0
  3  4  1  0  0  0
  3 88  1  0  0  0
  3 89  1  0  0  0
  4  5  1  0  0  0
  4 90  1  0  0  0
  4 91  1  0  0  0
  5  6  1  0  0  0
  5 26  1  0  0  0
  5 92  1  0  0  0
  6 25  1  0  0  0
  6 93  1  0  0  0
  6 94  1  0  0  0
  7  8  2  0  0  0
  7 26  1  0  0  0
  7 29  1  0  0  0
  8  9  1  0  0  0
  8 22  1  0  0  0
  9 10  1  0  0  0
  9 27  2  0  0  0
 10 11  2  0  0  0
 10 15  1  0  0  0
 11 12  1  0  0  0
 11 95  1  0  0  0
 12 13  2  0  0  0
 12 96  1  0  0  0
 13 14  1  0  0  0
 13 31  1  0  0  0
 14 15  2  0  0  0
 14 97  1  0  0  0
 15 98  1  0  0  0
 16 17  2  0  0  0
 16 21  1  0  0  0
 16 31  1  0  0  0
 17 18  1  0  0  0
 17 99  1  0  0  0
 18 19  2  0  0  0
 18100  1  0  0  0
 19 20  1  0  0  0
 19 24  1  0  0  0
 20 21  2  0  0  0
 20101  1  0  0  0
 21 23  1  0  0  0
 22 28  1  0  0  0
 22 32  2  0  0  0
 26 27  1  0  0  0
 28102  1  0  0  0
 28103  1  0  0  0
 29104  1  0  0  0
 29105  1  0  0  0
 33 34  1  0  0  0
 33 66  1  0  0  0
 33 70  2  0  0  0
 34 36  1  0  0  0
 34 59  1  0  0  0
 34106  1  0  0  0
 35 44  2  0  0  0
 35 45  1  0  0  0
 35 68  1  0  0  0
 36 56  1  0  0  0
 36107  1  0  0  0
 37 39  1  0  0  0
 37 47  1  0  0  0
 37 66  1  0  0  0
 37108  1  0  0  0
 38 43  2  0  0  0
 38 46  1  0  0  0
 38 47  1  0  0  0
 39 64  1  0  0  0
 39 67  2  0  0  0
 40 52  1  0  0  0
 40 53  2  0  0  0
 40 58  1  0  0  0
 41109  1  0  0  0
 41110  1  0  0  0
 41111  1  0  0  0
 41 48  1  0  0  0
 42 43  1  0  0  0
 42 66  1  0  0  0
 42112  1  0  0  0
 42113  1  0  0  0
 43 44  1  0  0  0
 44114  1  0  0  0
 45 46  2  0  0  0
 45115  1  0  0  0
 46116  1  0  0  0
 47117  1  0  0  0
 47118  1  0  0  0
 48 56  1  0  0  0
 48 65  1  0  0  0
 48119  1  0  0  0
 49 50  1  0  0  0
 49 53  1  0  0  0
 49 64  1  0  0  0
 49120  1  0  0  0
 50 51  1  0  0  0
 50121  1  0  0  0
 50122  1  0  0  0
 51 52  1  0  0  0
 51123  1  0  0  0
 51124  1  0  0  0
 52125  1  0  0  0
 52126  1  0  0  0
 53 54  1  0  0  0
 54 55  2  0  0  0
 54127  1  0  0  0
 55 57  1  0  0  0
 55128  1  0  0  0
 56 69  2  0  0  0
 57 58  2  0  0  0
 57129  1  0  0  0
 58130  1  0  0  0
 59 60  1  0  0  0
 59 61  1  0  0  0
 59 62  1  0  0  0
 60131  1  0  0  0
 60132  1  0  0  0
 60133  1  0  0  0
 61134  1  0  0  0
 61135  1  0  0  0
 61136  1  0  0  0
 62137  1  0  0  0
 62138  1  0  0  0
 62139  1  0  0  0
 63 65  1  0  0  0
 63140  1  0  0  0
 63141  1  0  0  0
 63142  1  0  0  0
 64143  1  0  0  0
 65144  1  0  0  0
 68 81  1  0  0  0
 71 73  2  0  0  0
 71 84  1  0  0  0
 71145  1  0  0  0
 72 74  2  0  0  0
 72 84  1  0  0  0
 72146  1  0  0  0
 73 74  1  0  0  0
 73 78  1  0  0  0
 74 82  1  0  0  0
 75 79  1  0  0  0
 75147  1  0  0  0
 75148  1  0  0  0
 75149  1  0  0  0
 76150  1  0  0  0
 76151  1  0  0  0
 76152  1  0  0  0
 76 82  1  0  0  0
 77153  1  0  0  0
 77154  1  0  0  0
 77155  1  0  0  0
 77 83  1  0  0  0
 78 85  1  0  0  0
 78156  1  0  0  0
 78157  1  0  0  0
 79 82  1  0  0  0
 79158  1  0  0  0
 79159  1  0  0  0
 80 83  1  0  0  0
 80 84  1  0  0  0
 80160  1  0  0  0
 80161  1  0  0  0
 81 83  1  0  0  0
 81162  1  0  0  0
 81163  1  0  0  0
 82164  1  0  0  0
 83165  1  0  0  0
 85166  1  0  0  0
M  ISO  4   1 100  68 101  81 101  85 100
M  END
> <chiral flag>
0

> <version>
0

> <s_m_source_file>
/data/baiqing/PycharmProjects/Reinvent-master-3.2/result/LINK_invent/BTK/process_docking_weight1_custom_sum_contain_oxygen_bond_distance_aromatic_linkinvent_7_9_3/rearranged_h_0107.sdf

> <i_m_source_file_index>
59

> <r_mmod_Potential_Energy-OPLS-2005>
123.124572753906

> <r_mmod_Stretch_Energy-OPLS-2005>
120.915374755859

> <r_mmod_Bend_Energy-OPLS-2005>
186.68049621582

> <r_mmod_Torsional_Energy-OPLS-2005>
245.859527587891

> <r_mmod_Improper_Torsional_Energy-OPLS-2005>
6.13689422607422

> <r_mmod_Van_der_Waal_Energy-OPLS-2005>
105.13387298584

> <r_mmod_Electrostatic_Energy-OPLS-2005>
-422.232421875

> <r_mmod_Solvation_Energy-OPLS-2005>
-204.215042114258

> <b_mmod_Minimization_Converged-OPLS-2005>
0

> <r_mmod_RMS_Derivative-OPLS-2005>
2.37409019470215

$$$$
61
                    3D
 Structure written by MMmdl.
162170  0  0  1  0            999 V2000
  -30.4653  -15.1461   20.3780 C   0  0  0  0  0  0
  -30.4406  -12.7196   19.5218 C   0  0  0  0  0  0
  -29.5301  -12.5567   18.2797 C   0  0  0  0  0  0
  -28.0727  -12.3027   18.7039 C   0  0  0  0  0  0
  -27.6189  -13.2634   19.8316 C   0  0  2  0  0  0
  -28.6555  -13.3809   20.9694 C   0  0  0  0  0  0
  -25.2414  -13.8236   20.5735 C   0  0  0  0  0  0
  -24.1752  -13.0440   20.9250 C   0  0  0  0  0  0
  -24.6393  -11.6931   20.8766 C   0  0  0  0  0  0
  -23.9085  -10.4294   21.0410 C   0  0  0  0  0  0
  -24.3631   -9.4206   21.9186 C   0  0  0  0  0  0
  -23.6302   -8.2243   22.0755 C   0  0  0  0  0  0
  -22.4282   -8.0284   21.3546 C   0  0  0  0  0  0
  -21.9923   -9.0258   20.4647 C   0  0  0  0  0  0
  -22.7256  -10.2134   20.3058 C   0  0  0  0  0  0
  -21.6854   -6.0735   22.5277 C   0  0  0  0  0  0
  -21.4015   -6.5640   23.8211 C   0  0  0  0  0  0
  -21.3659   -5.6793   24.9173 C   0  0  0  0  0  0
  -21.6044   -4.3056   24.7223 C   0  0  0  0  0  0
  -21.8818   -3.8146   23.4345 C   0  0  0  0  0  0
  -21.9194   -4.6964   22.3402 C   0  0  0  0  0  0
  -22.7773  -13.5200   21.1896 C   0  0  0  0  0  0
  -22.1661   -4.2150   21.0979 F   0  0  0  0  0  0
  -21.5629   -3.4537   25.7734 F   0  0  0  0  0  0
  -29.9066  -13.8490   20.3564 N   0  0  0  0  0  0
  -26.2840  -12.9492   20.3240 N   0  0  0  0  0  0
  -25.9329  -11.6608   20.5744 N   0  0  0  0  0  0
  -22.0432  -12.8178   22.0451 N   0  0  0  0  0  0
  -25.4061  -15.1970   20.4149 N   0  0  0  0  0  0
  -31.6746  -15.1869   20.1179 O   0  0  0  0  0  0
  -21.6645   -6.8881   21.4241 O   0  0  0  0  0  0
  -22.3453  -14.5504   20.6743 O   0  0  0  0  0  0
  -24.6546  -31.8309   23.1747 C   0  0  0  0  0  0
  -25.9262  -32.4624   23.8188 C   0  0  1  0  0  0
  -27.2192  -27.0039   20.1756 C   0  0  0  0  0  0
  -25.5963  -33.8435   24.2104 N   0  0  0  0  0  0
  -23.4652  -30.4446   21.5224 C   0  0  2  0  0  0
  -24.9159  -28.8414   20.1109 C   0  0  0  0  0  0
  -22.7623  -29.4480   22.4801 C   0  0  0  0  0  0
  -18.0319  -28.1407   22.8474 C   0  0  0  0  0  0
  -24.1494  -36.7218   23.2646 C   0  0  0  0  0  0
  -26.0282  -30.6624   21.3915 C   0  0  0  0  0  0
  -26.0963  -29.2591   20.7371 C   0  0  0  0  0  0
  -27.2434  -28.3600   20.7444 C   0  0  0  0  0  0
  -26.0096  -26.7136   19.5077 C   0  0  0  0  0  0
  -24.8933  -27.5872   19.4779 C   0  0  0  0  0  0
  -23.6992  -29.7615   20.1468 C   0  0  0  0  0  0
  -25.4132  -36.2982   24.0305 C   0  0  1  0  0  0
  -20.5940  -28.3741   23.1207 C   0  0  2  0  0  0
  -20.6802  -26.9431   22.5404 C   0  0  0  0  0  0
  -19.5775  -26.6379   21.5217 C   0  0  0  0  0  0
  -18.1954  -26.7946   22.1621 C   0  0  0  0  0  0
  -19.1580  -28.8892   23.2834 C   0  0  0  0  0  0
  -18.9495  -30.1487   23.8862 C   0  0  0  0  0  0
  -17.6491  -30.6598   24.0563 C   0  0  0  0  0  0
  -25.9091  -34.9369   23.5018 C   0  0  0  0  0  0
  -16.5380  -29.9091   23.6342 C   0  0  0  0  0  0
  -16.7304  -28.6512   23.0360 C   0  0  0  0  0  0
  -26.4540  -31.6542   25.0684 C   0  0  0  0  0  0
  -25.3687  -31.3784   26.1354 C   0  0  0  0  0  0
  -27.0421  -30.2920   24.6355 C   0  0  0  0  0  0
  -27.6046  -32.4333   25.7478 C   0  0  0  0  0  0
  -27.5574  -37.1762   24.8467 C   0  0  0  0  0  0
  -21.4302  -29.3044   22.3555 N   0  0  0  0  0  0
  -26.4282  -37.3713   23.9411 N   0  0  0  0  0  0
  -24.7368  -31.0047   22.0840 N   0  0  0  0  0  0
  -23.4211  -28.8047   23.3010 O   0  0  0  0  0  0
  -28.2656  -25.9716   20.2589 O   0  0  0  0  0  0
  -26.5697  -34.8894   22.4613 O   0  0  0  0  0  0
  -23.5632  -32.1242   23.6889 O   0  0  0  0  0  0
  -29.5299  -23.4770   19.7814 C   0  0  0  0  0  0
  -27.5960  -23.3556   21.1292 C   0  0  0  0  0  0
  -29.5657  -21.8088   19.6118 C   0  0  0  0  0  0
  -27.5880  -21.7253   20.8692 C   0  0  0  0  0  0
  -28.1801  -24.3664   20.0304 C   0  0  1  0  0  0
  -28.5117  -20.1225   23.4803 C   0  0  0  0  0  0
  -29.1342  -17.7534   23.1102 C   0  0  0  0  0  0
  -29.8384  -17.9890   20.2290 C   0  0  0  0  0  0
  -29.2857  -19.1776   22.5322 C   0  0  0  0  0  0
  -28.9638  -19.3188   20.9891 C   0  0  1  0  0  0
  -29.6696  -16.3662   20.4862 N   0  0  0  0  0  0
  -28.9200  -20.9623   20.7106 N   0  3  1  0  0  0
  -31.4665  -12.9052   19.2004 H   0  0  0  0  0  0
  -30.4775  -11.7952   20.1002 H   0  0  0  0  0  0
  -29.8864  -11.7408   17.6494 H   0  0  0  0  0  0
  -29.5802  -13.4604   17.6705 H   0  0  0  0  0  0
  -28.0079  -11.2719   19.0548 H   0  0  0  0  0  0
  -27.4044  -12.3750   17.8452 H   0  0  0  0  0  0
  -27.5535  -14.2441   19.3592 H   0  0  0  0  0  0
  -28.7909  -12.4299   21.4865 H   0  0  0  0  0  0
  -28.3193  -14.0980   21.7200 H   0  0  0  0  0  0
  -25.2774   -9.5679   22.4765 H   0  0  0  0  0  0
  -24.0005   -7.4633   22.7476 H   0  0  0  0  0  0
  -21.0853   -8.8777   19.8953 H   0  0  0  0  0  0
  -22.3711  -10.9674   19.6169 H   0  0  0  0  0  0
  -21.2007   -7.6147   23.9714 H   0  0  0  0  0  0
  -21.1483   -6.0523   25.9076 H   0  0  0  0  0  0
  -22.0598   -2.7608   23.2843 H   0  0  0  0  0  0
  -22.4059  -11.9834   22.4817 H   0  0  0  0  0  0
  -21.1054  -13.1194   22.2681 H   0  0  0  0  0  0
  -24.6291  -15.8417   20.5132 H   0  0  0  0  0  0
  -26.2374  -15.6346   20.0410 H   0  0  0  0  0  0
  -26.7322  -32.5182   23.0898 H   0  0  0  0  0  0
  -25.0074  -33.9529   25.0229 H   0  0  0  0  0  0
  -22.7747  -31.2739   21.3559 H   0  0  0  0  0  0
  -23.3767  -35.9538   23.3279 H   0  0  0  0  0  0
  -24.3573  -36.8883   22.2065 H   0  0  0  0  0  0
  -23.7241  -37.6396   23.6713 H   0  0  0  0  0  0
  -26.2002  -31.4070   20.6128 H   0  0  0  0  0  0
  -26.8919  -30.7160   22.0423 H   0  0  0  0  0  0
  -28.1412  -28.6781   21.2553 H   0  0  0  0  0  0
  -25.8965  -25.7539   19.0259 H   0  0  0  0  0  0
  -23.9928  -27.2621   18.9751 H   0  0  0  0  0  0
  -23.8481  -30.5308   19.3884 H   0  0  0  0  0  0
  -22.8099  -29.2119   19.8325 H   0  0  0  0  0  0
  -25.1325  -36.1783   25.0796 H   0  0  0  0  0  0
  -21.0039  -28.3345   24.1326 H   0  0  0  0  0  0
  -20.5684  -26.2358   23.3639 H   0  0  0  0  0  0
  -21.6666  -26.7415   22.1208 H   0  0  0  0  0  0
  -19.6938  -25.6280   21.1268 H   0  0  0  0  0  0
  -19.6719  -27.3174   20.6736 H   0  0  0  0  0  0
  -17.4227  -26.6696   21.4021 H   0  0  0  0  0  0
  -18.0344  -26.0097   22.9021 H   0  0  0  0  0  0
  -19.7971  -30.7315   24.2206 H   0  0  0  0  0  0
  -17.5046  -31.6273   24.5172 H   0  0  0  0  0  0
  -15.5380  -30.2986   23.7689 H   0  0  0  0  0  0
  -15.8705  -28.0825   22.7090 H   0  0  0  0  0  0
  -24.5895  -30.7099   25.7677 H   0  0  0  0  0  0
  -24.8847  -32.2985   26.4640 H   0  0  0  0  0  0
  -25.7933  -30.9057   27.0220 H   0  0  0  0  0  0
  -26.3066  -29.6613   24.1348 H   0  0  0  0  0  0
  -27.3977  -29.7254   25.4970 H   0  0  0  0  0  0
  -27.8996  -30.4119   23.9732 H   0  0  0  0  0  0
  -27.2632  -33.3684   26.1931 H   0  0  0  0  0  0
  -28.3924  -32.6810   25.0350 H   0  0  0  0  0  0
  -28.0641  -31.8540   26.5496 H   0  0  0  0  0  0
  -28.2564  -38.0083   24.7513 H   0  0  0  0  0  0
  -28.1090  -36.2603   24.6284 H   0  0  0  0  0  0
  -27.2290  -37.1396   25.8870 H   0  0  0  0  0  0
  -20.9530  -29.8730   21.6699 H   0  0  0  0  0  0
  -26.0129  -38.2768   24.1428 H   0  0  0  0  0  0
  -30.0203  -23.8919   18.9011 H   0  0  0  0  0  0
  -30.2098  -23.7161   20.5999 H   0  0  0  0  0  0
  -28.1186  -23.5396   22.0685 H   0  0  0  0  0  0
  -26.5677  -23.6594   21.3253 H   0  0  0  0  0  0
  -30.6032  -21.4891   19.5147 H   0  0  0  0  0  0
  -29.0923  -21.5440   18.6656 H   0  0  0  0  0  0
  -26.9931  -21.5294   19.9757 H   0  0  0  0  0  0
  -27.0054  -21.2714   21.6668 H   0  0  0  0  0  0
  -27.5725  -24.2417   19.1344 H   0  0  0  0  0  0
  -28.8042  -19.9588   24.5182 H   0  0  0  0  0  0
  -27.4360  -19.9493   23.4300 H   0  0  0  0  0  0
  -28.7121  -21.1771   23.2979 H   0  0  0  0  0  0
  -29.0971  -17.7530   24.2000 H   0  0  0  0  0  0
  -29.9907  -17.1282   22.8629 H   0  0  0  0  0  0
  -28.2240  -17.2657   22.7602 H   0  0  0  0  0  0
  -30.8998  -18.1934   20.3695 H   0  0  0  0  0  0
  -29.6844  -18.1080   19.1565 H   0  0  0  0  0  0
  -30.3391  -19.4375   22.6529 H   0  0  0  0  0  0
  -27.9198  -19.0361   20.8512 H   0  0  0  0  0  0
  -28.7116  -16.1326   20.7005 H   0  0  0  0  0  0
  -29.4479  -21.2546   21.5189 H   0  0  0  0  0  0
  1 25  1  0  0  0
  1 30  2  0  0  0
  1 81  1  0  0  0
  2  3  1  0  0  0
  2 25  1  0  0  0
  2 83  1  0  0  0
  2 84  1  0  0  0
  3  4  1  0  0  0
  3 85  1  0  0  0
  3 86  1  0  0  0
  4  5  1  0  0  0
  4 87  1  0  0  0
  4 88  1  0  0  0
  5  6  1  0  0  0
  5 26  1  0  0  0
  5 89  1  0  0  0
  6 25  1  0  0  0
  6 90  1  0  0  0
  6 91  1  0  0  0
  7  8  2  0  0  0
  7 26  1  0  0  0
  7 29  1  0  0  0
  8  9  1  0  0  0
  8 22  1  0  0  0
  9 10  1  0  0  0
  9 27  2  0  0  0
 10 11  2  0  0  0
 10 15  1  0  0  0
 11 12  1  0  0  0
 11 92  1  0  0  0
 12 13  2  0  0  0
 12 93  1  0  0  0
 13 14  1  0  0  0
 13 31  1  0  0  0
 14 15  2  0  0  0
 14 94  1  0  0  0
 15 95  1  0  0  0
 16 17  2  0  0  0
 16 21  1  0  0  0
 16 31  1  0  0  0
 17 18  1  0  0  0
 17 96  1  0  0  0
 18 19  2  0  0  0
 18 97  1  0  0  0
 19 20  1  0  0  0
 19 24  1  0  0  0
 20 21  2  0  0  0
 20 98  1  0  0  0
 21 23  1  0  0  0
 22 28  1  0  0  0
 22 32  2  0  0  0
 26 27  1  0  0  0
 28 99  1  0  0  0
 28100  1  0  0  0
 29101  1  0  0  0
 29102  1  0  0  0
 33 34  1  0  0  0
 33 66  1  0  0  0
 33 70  2  0  0  0
 34 36  1  0  0  0
 34 59  1  0  0  0
 34103  1  0  0  0
 35 44  2  0  0  0
 35 45  1  0  0  0
 35 68  1  0  0  0
 36 56  1  0  0  0
 36104  1  0  0  0
 37 39  1  0  0  0
 37 47  1  0  0  0
 37 66  1  0  0  0
 37105  1  0  0  0
 38 43  2  0  0  0
 38 46  1  0  0  0
 38 47  1  0  0  0
 39 64  1  0  0  0
 39 67  2  0  0  0
 40 52  1  0  0  0
 40 53  2  0  0  0
 40 58  1  0  0  0
 41106  1  0  0  0
 41107  1  0  0  0
 41108  1  0  0  0
 41 48  1  0  0  0
 42 43  1  0  0  0
 42 66  1  0  0  0
 42109  1  0  0  0
 42110  1  0  0  0
 43 44  1  0  0  0
 44111  1  0  0  0
 45 46  2  0  0  0
 45112  1  0  0  0
 46113  1  0  0  0
 47114  1  0  0  0
 47115  1  0  0  0
 48 56  1  0  0  0
 48 65  1  0  0  0
 48116  1  0  0  0
 49 50  1  0  0  0
 49 53  1  0  0  0
 49 64  1  0  0  0
 49117  1  0  0  0
 50 51  1  0  0  0
 50118  1  0  0  0
 50119  1  0  0  0
 51 52  1  0  0  0
 51120  1  0  0  0
 51121  1  0  0  0
 52122  1  0  0  0
 52123  1  0  0  0
 53 54  1  0  0  0
 54 55  2  0  0  0
 54124  1  0  0  0
 55 57  1  0  0  0
 55125  1  0  0  0
 56 69  2  0  0  0
 57 58  2  0  0  0
 57126  1  0  0  0
 58127  1  0  0  0
 59 60  1  0  0  0
 59 61  1  0  0  0
 59 62  1  0  0  0
 60128  1  0  0  0
 60129  1  0  0  0
 60130  1  0  0  0
 61131  1  0  0  0
 61132  1  0  0  0
 61133  1  0  0  0
 62134  1  0  0  0
 62135  1  0  0  0
 62136  1  0  0  0
 63 65  1  0  0  0
 63137  1  0  0  0
 63138  1  0  0  0
 63139  1  0  0  0
 64140  1  0  0  0
 65141  1  0  0  0
 68 75  1  0  0  0
 71 73  1  0  0  0
 71 75  1  0  0  0
 71142  1  0  0  0
 71143  1  0  0  0
 72 74  1  0  0  0
 72 75  1  0  0  0
 72144  1  0  0  0
 72145  1  0  0  0
 73146  1  0  0  0
 73147  1  0  0  0
 73 82  1  0  0  0
 74 82  1  0  0  0
 74148  1  0  0  0
 74149  1  0  0  0
 75150  1  0  0  0
 76151  1  0  0  0
 76152  1  0  0  0
 76153  1  0  0  0
 76 79  1  0  0  0
 77 79  1  0  0  0
 77154  1  0  0  0
 77155  1  0  0  0
 77156  1  0  0  0
 78 81  1  0  0  0
 78157  1  0  0  0
 78158  1  0  0  0
 78 80  1  0  0  0
 79 80  1  0  0  0
 79159  1  0  0  0
 80 82  1  0  0  0
 80160  1  0  0  0
 81161  1  0  0  0
 82162  1  0  0  0
M  CHG  1  82   1
M  ISO  4   1 100  68 101  75 101  81 100
M  END
> <chiral flag>
0

> <version>
0

> <s_m_source_file>
/data/baiqing/PycharmProjects/Reinvent-master-3.2/result/LINK_invent/BTK/process_docking_weight1_custom_sum_contain_oxygen_bond_distance_aromatic_linkinvent_7_9_3/rearranged_h_0107.sdf

> <i_m_source_file_index>
60

> <r_mmod_Potential_Energy-OPLS-2005>
890.842163085938

> <r_mmod_Stretch_Energy-OPLS-2005>
438.527221679688

> <r_mmod_Bend_Energy-OPLS-2005>
441.116577148438

> <r_mmod_Torsional_Energy-OPLS-2005>
265.626403808594

> <r_mmod_Improper_Torsional_Energy-OPLS-2005>
4.40577936172485

> <r_mmod_Van_der_Waal_Energy-OPLS-2005>
122.451019287109

> <r_mmod_Electrostatic_Energy-OPLS-2005>
-269.241729736328

> <r_mmod_Solvation_Energy-OPLS-2005>
-454.206359863281

> <b_mmod_Minimization_Converged-OPLS-2005>
0

> <r_mmod_RMS_Derivative-OPLS-2005>
0.841639339923859

$$$$
62
                    3D
 Structure written by MMmdl.
160167  0  0  1  0            999 V2000
  -30.5638  -14.8601   20.4825 C   0  0  0  0  0  0
  -30.4338  -12.5295   19.5042 C   0  0  0  0  0  0
  -29.5213  -12.5268   18.2557 C   0  0  0  0  0  0
  -28.0497  -12.3225   18.6622 C   0  0  0  0  0  0
  -27.6351  -13.2339   19.8469 C   0  0  2  0  0  0
  -28.6703  -13.2074   20.9920 C   0  0  0  0  0  0
  -25.2462  -13.8169   20.5620 C   0  0  0  0  0  0
  -24.1814  -13.0432   20.9310 C   0  0  0  0  0  0
  -24.6393  -11.6903   20.8800 C   0  0  0  0  0  0
  -23.9062  -10.4294   21.0432 C   0  0  0  0  0  0
  -24.3612   -9.4201   21.9196 C   0  0  0  0  0  0
  -23.6287   -8.2234   22.0758 C   0  0  0  0  0  0
  -22.4270   -8.0275   21.3542 C   0  0  0  0  0  0
  -21.9902   -9.0255   20.4643 C   0  0  0  0  0  0
  -22.7237  -10.2134   20.3071 C   0  0  0  0  0  0
  -21.6856   -6.0735   22.5283 C   0  0  0  0  0  0
  -21.4012   -6.5633   23.8218 C   0  0  0  0  0  0
  -21.3663   -5.6780   24.9175 C   0  0  0  0  0  0
  -21.6054   -4.3048   24.7228 C   0  0  0  0  0  0
  -21.8826   -3.8145   23.4346 C   0  0  0  0  0  0
  -21.9190   -4.6961   22.3403 C   0  0  0  0  0  0
  -22.7832  -13.5214   21.1930 C   0  0  0  0  0  0
  -22.1663   -4.2146   21.0980 F   0  0  0  0  0  0
  -21.5628   -3.4538   25.7746 F   0  0  0  0  0  0
  -29.9656  -13.6047   20.4251 N   0  0  0  0  0  0
  -26.2882  -12.9380   20.3196 N   0  0  0  0  0  0
  -25.9312  -11.6538   20.5743 N   0  0  0  0  0  0
  -22.0411  -12.8227   22.0439 N   0  0  0  0  0  0
  -25.4081  -15.1858   20.3634 N   0  0  0  0  0  0
  -31.7196  -14.9395   20.0532 O   0  0  0  0  0  0
  -21.6631   -6.8873   21.4246 O   0  0  0  0  0  0
  -22.3597  -14.5546   20.6751 O   0  0  0  0  0  0
  -24.6367  -31.8482   23.1931 C   0  0  0  0  0  0
  -25.9169  -32.4709   23.8295 C   0  0  1  0  0  0
  -27.2168  -27.1800   20.1475 C   0  0  0  0  0  0
  -25.5952  -33.8515   24.2216 N   0  0  0  0  0  0
  -23.4376  -30.4694   21.5380 C   0  0  2  0  0  0
  -24.8854  -28.9063   20.1083 C   0  0  0  0  0  0
  -22.7532  -29.4564   22.4887 C   0  0  0  0  0  0
  -18.0296  -28.1370   22.8487 C   0  0  0  0  0  0
  -24.1500  -36.7251   23.2647 C   0  0  0  0  0  0
  -25.9895  -30.7359   21.3872 C   0  0  0  0  0  0
  -26.0589  -29.3531   20.7258 C   0  0  0  0  0  0
  -27.2210  -28.5036   20.7339 C   0  0  0  0  0  0
  -26.0182  -26.8277   19.4849 C   0  0  0  0  0  0
  -24.8760  -27.6554   19.4748 C   0  0  0  0  0  0
  -23.6591  -29.8019   20.1557 C   0  0  0  0  0  0
  -25.4132  -36.3039   24.0326 C   0  0  1  0  0  0
  -20.5907  -28.3687   23.1259 C   0  0  2  0  0  0
  -20.6781  -26.9398   22.5412 C   0  0  0  0  0  0
  -19.5751  -26.6367   21.5219 C   0  0  0  0  0  0
  -18.1930  -26.7913   22.1627 C   0  0  0  0  0  0
  -19.1554  -28.8850   23.2860 C   0  0  0  0  0  0
  -18.9471  -30.1456   23.8874 C   0  0  0  0  0  0
  -17.6468  -30.6578   24.0553 C   0  0  0  0  0  0
  -25.9078  -34.9412   23.5081 C   0  0  0  0  0  0
  -16.5357  -29.9069   23.6335 C   0  0  0  0  0  0
  -16.7282  -28.6484   23.0365 C   0  0  0  0  0  0
  -26.4518  -31.6556   25.0707 C   0  0  0  0  0  0
  -25.3730  -31.3722   26.1419 C   0  0  0  0  0  0
  -27.0389  -30.2959   24.6266 C   0  0  0  0  0  0
  -27.6048  -32.4328   25.7484 C   0  0  0  0  0  0
  -27.5579  -37.1784   24.8470 C   0  0  0  0  0  0
  -21.4233  -29.3029   22.3635 N   0  0  0  0  0  0
  -26.4294  -37.3747   23.9409 N   0  0  0  0  0  0
  -24.7069  -31.0389   22.0937 N   0  0  0  0  0  0
  -23.4200  -28.8119   23.3028 O   0  0  0  0  0  0
  -28.3040  -26.2522   20.2563 O   0  0  0  0  0  0
  -26.5650  -34.8902   22.4654 O   0  0  0  0  0  0
  -23.5507  -32.1346   23.7186 O   0  0  0  0  0  0
  -27.5176  -23.3623   21.8243 C   0  0  0  0  0  0
  -28.1866  -19.6464   22.9493 C   0  0  0  0  0  0
  -29.8971  -16.2518   21.0573 C   0  0  0  0  0  0
  -30.0052  -19.1786   20.4379 C   0  0  0  0  0  0
  -28.2901  -24.7758   19.8130 C   0  0  0  0  0  0
  -28.6206  -23.4476   20.7558 C   0  0  2  0  0  0
  -29.4918  -17.6120   20.1710 C   0  0  2  0  0  0
  -29.1941  -20.5390   20.9721 C   0  0  1  0  0  0
  -28.9021  -21.9323   20.0997 C   0  0  1  0  0  0
  -28.0490  -17.6318   19.8563 N   0  3  0  0  0  0
  -27.9907  -20.1327   21.6249 O   0  0  0  0  0  0
  -27.8877  -21.6570   19.2773 F   0  0  0  0  0  0
  -31.4754  -12.6623   19.2059 H   0  0  0  0  0  0
  -30.3949  -11.5594   20.0027 H   0  0  0  0  0  0
  -29.8299  -11.7411   17.5642 H   0  0  0  0  0  0
  -29.6307  -13.4697   17.7157 H   0  0  0  0  0  0
  -27.9303  -11.2748   18.9435 H   0  0  0  0  0  0
  -27.3923  -12.4806   17.8072 H   0  0  0  0  0  0
  -27.6223  -14.2481   19.4529 H   0  0  0  0  0  0
  -28.7299  -12.2117   21.4343 H   0  0  0  0  0  0
  -28.3681  -13.8746   21.7992 H   0  0  0  0  0  0
  -25.2746   -9.5693   22.4777 H   0  0  0  0  0  0
  -24.0011   -7.4619   22.7461 H   0  0  0  0  0  0
  -21.0846   -8.8780   19.8921 H   0  0  0  0  0  0
  -22.3701  -10.9688   19.6192 H   0  0  0  0  0  0
  -21.2007   -7.6137   23.9734 H   0  0  0  0  0  0
  -21.1468   -6.0494   25.9078 H   0  0  0  0  0  0
  -22.0595   -2.7608   23.2847 H   0  0  0  0  0  0
  -22.3967  -11.9897   22.4895 H   0  0  0  0  0  0
  -21.1017  -13.1271   22.2560 H   0  0  0  0  0  0
  -24.5232  -15.6789   20.4301 H   0  0  0  0  0  0
  -25.8196  -15.3641   19.4569 H   0  0  0  0  0  0
  -26.7216  -32.5321   23.1012 H   0  0  0  0  0  0
  -25.0094  -33.9642   25.0360 H   0  0  0  0  0  0
  -22.7364  -31.2930   21.3886 H   0  0  0  0  0  0
  -23.3778  -35.9565   23.3304 H   0  0  0  0  0  0
  -24.3591  -36.8885   22.2061 H   0  0  0  0  0  0
  -23.7240  -37.6446   23.6676 H   0  0  0  0  0  0
  -26.1467  -31.4971   20.6225 H   0  0  0  0  0  0
  -26.8579  -30.7764   22.0325 H   0  0  0  0  0  0
  -28.1136  -28.8414   21.2402 H   0  0  0  0  0  0
  -25.9042  -25.8817   18.9835 H   0  0  0  0  0  0
  -23.9785  -27.3076   18.9814 H   0  0  0  0  0  0
  -23.7830  -30.5763   19.3977 H   0  0  0  0  0  0
  -22.7761  -29.2375   19.8531 H   0  0  0  0  0  0
  -25.1319  -36.1879   25.0816 H   0  0  0  0  0  0
  -20.9989  -28.3265   24.1386 H   0  0  0  0  0  0
  -20.5685  -26.2293   23.3622 H   0  0  0  0  0  0
  -21.6642  -26.7415   22.1203 H   0  0  0  0  0  0
  -19.6914  -25.6282   21.1245 H   0  0  0  0  0  0
  -19.6687  -27.3179   20.6751 H   0  0  0  0  0  0
  -17.4206  -26.6675   21.4021 H   0  0  0  0  0  0
  -18.0314  -26.0050   22.9013 H   0  0  0  0  0  0
  -19.7950  -30.7277   24.2224 H   0  0  0  0  0  0
  -17.5022  -31.6261   24.5145 H   0  0  0  0  0  0
  -15.5358  -30.2956   23.7677 H   0  0  0  0  0  0
  -15.8681  -28.0791   22.7097 H   0  0  0  0  0  0
  -24.5913  -30.7060   25.7750 H   0  0  0  0  0  0
  -24.8914  -32.2888   26.4819 H   0  0  0  0  0  0
  -25.8039  -30.8916   27.0212 H   0  0  0  0  0  0
  -26.2996  -29.6674   24.1282 H   0  0  0  0  0  0
  -27.4030  -29.7252   25.4822 H   0  0  0  0  0  0
  -27.8887  -30.4213   23.9556 H   0  0  0  0  0  0
  -27.2635  -33.3651   26.2001 H   0  0  0  0  0  0
  -28.3875  -32.6864   25.0316 H   0  0  0  0  0  0
  -28.0691  -31.8498   26.5451 H   0  0  0  0  0  0
  -28.2594  -38.0080   24.7518 H   0  0  0  0  0  0
  -28.1077  -36.2615   24.6302 H   0  0  0  0  0  0
  -27.2290  -37.1431   25.8869 H   0  0  0  0  0  0
  -20.9425  -29.8747   21.6833 H   0  0  0  0  0  0
  -26.0174  -38.2819   24.1408 H   0  0  0  0  0  0
  -27.3764  -24.3236   22.3217 H   0  0  0  0  0  0
  -27.7573  -22.6315   22.5968 H   0  0  0  0  0  0
  -26.5642  -23.0792   21.3775 H   0  0  0  0  0  0
  -28.6285  -20.4044   23.5986 H   0  0  0  0  0  0
  -28.8317  -18.7674   22.9662 H   0  0  0  0  0  0
  -27.2290  -19.3607   23.3841 H   0  0  0  0  0  0
  -29.0433  -15.9782   21.6745 H   0  0  0  0  0  0
  -30.6268  -16.5938   21.7899 H   0  0  0  0  0  0
  -30.4511  -19.4982   19.4960 H   0  0  0  0  0  0
  -30.8809  -19.0771   21.0792 H   0  0  0  0  0  0
  -27.3653  -24.5364   19.3009 H   0  0  0  0  0  0
  -29.0279  -24.7493   19.0115 H   0  0  0  0  0  0
  -29.5435  -23.6943   21.2818 H   0  0  0  0  0  0
  -29.9552  -17.3801   19.2111 H   0  0  0  0  0  0
  -29.8602  -20.9336   21.7427 H   0  0  0  0  0  0
  -29.7582  -22.0560   19.4350 H   0  0  0  0  0  0
  -27.5103  -17.9409   20.6487 H   0  0  0  0  0  0
  -27.7178  -16.7277   19.5786 H   0  0  0  0  0  0
  -27.8698  -18.2730   19.1023 H   0  0  0  0  0  0
  1 25  1  0  0  0
  1 30  2  0  0  0
  1 73  1  0  0  0
  2  3  1  0  0  0
  2 25  1  0  0  0
  2 83  1  0  0  0
  2 84  1  0  0  0
  3  4  1  0  0  0
  3 85  1  0  0  0
  3 86  1  0  0  0
  4  5  1  0  0  0
  4 87  1  0  0  0
  4 88  1  0  0  0
  5  6  1  0  0  0
  5 26  1  0  0  0
  5 89  1  0  0  0
  6 25  1  0  0  0
  6 90  1  0  0  0
  6 91  1  0  0  0
  7  8  2  0  0  0
  7 26  1  0  0  0
  7 29  1  0  0  0
  8  9  1  0  0  0
  8 22  1  0  0  0
  9 10  1  0  0  0
  9 27  2  0  0  0
 10 11  2  0  0  0
 10 15  1  0  0  0
 11 12  1  0  0  0
 11 92  1  0  0  0
 12 13  2  0  0  0
 12 93  1  0  0  0
 13 14  1  0  0  0
 13 31  1  0  0  0
 14 15  2  0  0  0
 14 94  1  0  0  0
 15 95  1  0  0  0
 16 17  2  0  0  0
 16 21  1  0  0  0
 16 31  1  0  0  0
 17 18  1  0  0  0
 17 96  1  0  0  0
 18 19  2  0  0  0
 18 97  1  0  0  0
 19 20  1  0  0  0
 19 24  1  0  0  0
 20 21  2  0  0  0
 20 98  1  0  0  0
 21 23  1  0  0  0
 22 28  1  0  0  0
 22 32  2  0  0  0
 26 27  1  0  0  0
 28 99  1  0  0  0
 28100  1  0  0  0
 29101  1  0  0  0
 29102  1  0  0  0
 33 34  1  0  0  0
 33 66  1  0  0  0
 33 70  2  0  0  0
 34 36  1  0  0  0
 34 59  1  0  0  0
 34103  1  0  0  0
 35 44  2  0  0  0
 35 45  1  0  0  0
 35 68  1  0  0  0
 36 56  1  0  0  0
 36104  1  0  0  0
 37 39  1  0  0  0
 37 47  1  0  0  0
 37 66  1  0  0  0
 37105  1  0  0  0
 38 43  2  0  0  0
 38 46  1  0  0  0
 38 47  1  0  0  0
 39 64  1  0  0  0
 39 67  2  0  0  0
 40 52  1  0  0  0
 40 53  2  0  0  0
 40 58  1  0  0  0
 41106  1  0  0  0
 41107  1  0  0  0
 41108  1  0  0  0
 41 48  1  0  0  0
 42 43  1  0  0  0
 42 66  1  0  0  0
 42109  1  0  0  0
 42110  1  0  0  0
 43 44  1  0  0  0
 44111  1  0  0  0
 45 46  2  0  0  0
 45112  1  0  0  0
 46113  1  0  0  0
 47114  1  0  0  0
 47115  1  0  0  0
 48 56  1  0  0  0
 48 65  1  0  0  0
 48116  1  0  0  0
 49 50  1  0  0  0
 49 53  1  0  0  0
 49 64  1  0  0  0
 49117  1  0  0  0
 50 51  1  0  0  0
 50118  1  0  0  0
 50119  1  0  0  0
 51 52  1  0  0  0
 51120  1  0  0  0
 51121  1  0  0  0
 52122  1  0  0  0
 52123  1  0  0  0
 53 54  1  0  0  0
 54 55  2  0  0  0
 54124  1  0  0  0
 55 57  1  0  0  0
 55125  1  0  0  0
 56 69  2  0  0  0
 57 58  2  0  0  0
 57126  1  0  0  0
 58127  1  0  0  0
 59 60  1  0  0  0
 59 61  1  0  0  0
 59 62  1  0  0  0
 60128  1  0  0  0
 60129  1  0  0  0
 60130  1  0  0  0
 61131  1  0  0  0
 61132  1  0  0  0
 61133  1  0  0  0
 62134  1  0  0  0
 62135  1  0  0  0
 62136  1  0  0  0
 63 65  1  0  0  0
 63137  1  0  0  0
 63138  1  0  0  0
 63139  1  0  0  0
 64140  1  0  0  0
 65141  1  0  0  0
 68 75  1  0  0  0
 71142  1  0  0  0
 71143  1  0  0  0
 71144  1  0  0  0
 71 76  1  0  0  0
 72 81  1  0  0  0
 72145  1  0  0  0
 72146  1  0  0  0
 72147  1  0  0  0
 73 77  1  0  0  0
 73148  1  0  0  0
 73149  1  0  0  0
 74 77  1  0  0  0
 74150  1  0  0  0
 74151  1  0  0  0
 74 78  1  0  0  0
 75 76  1  0  0  0
 75152  1  0  0  0
 75153  1  0  0  0
 76 79  1  0  0  0
 76154  1  0  0  0
 77 80  1  0  0  0
 77155  1  0  0  0
 78 79  1  0  0  0
 78 81  1  0  0  0
 78156  1  0  0  0
 79 82  1  0  0  0
 79157  1  0  0  0
 80158  1  0  0  0
 80159  1  0  0  0
 80160  1  0  0  0
M  CHG  1  80   1
M  ISO  4   1 100  68 101  73 100  75 101
M  END
> <chiral flag>
0

> <version>
0

> <s_m_source_file>
/data/baiqing/PycharmProjects/Reinvent-master-3.2/result/LINK_invent/BTK/process_docking_weight1_custom_sum_contain_oxygen_bond_distance_aromatic_linkinvent_7_9_3/rearranged_h_0107.sdf

> <i_m_source_file_index>
61

> <r_mmod_Potential_Energy-OPLS-2005>
271.547210693359

> <r_mmod_Stretch_Energy-OPLS-2005>
234.23258972168

> <r_mmod_Bend_Energy-OPLS-2005>
282.975769042969

> <r_mmod_Torsional_Energy-OPLS-2005>
236.119995117188

> <r_mmod_Improper_Torsional_Energy-OPLS-2005>
8.02977657318115

> <r_mmod_Van_der_Waal_Energy-OPLS-2005>
110.346153259277

> <r_mmod_Electrostatic_Energy-OPLS-2005>
-276.423217773438

> <r_mmod_Solvation_Energy-OPLS-2005>
-462.847320556641

> <b_mmod_Minimization_Converged-OPLS-2005>
0

> <r_mmod_RMS_Derivative-OPLS-2005>
2.05992531776428

$$$$
63
                    3D
 Structure written by MMmdl.
184192  0  0  1  0            999 V2000
  -30.4472  -15.1541   20.4514 C   0  0  0  0  0  0
  -30.4440  -12.7364   19.5288 C   0  0  0  0  0  0
  -29.5306  -12.5917   18.2824 C   0  0  0  0  0  0
  -28.0664  -12.3402   18.6841 C   0  0  0  0  0  0
  -27.6222  -13.2625   19.8434 C   0  0  2  0  0  0
  -28.6577  -13.2992   20.9828 C   0  0  0  0  0  0
  -25.2356  -13.8245   20.5627 C   0  0  0  0  0  0
  -24.1708  -13.0425   20.9198 C   0  0  0  0  0  0
  -24.6380  -11.6933   20.8785 C   0  0  0  0  0  0
  -23.9083  -10.4291   21.0454 C   0  0  0  0  0  0
  -24.3633   -9.4198   21.9218 C   0  0  0  0  0  0
  -23.6287   -8.2245   22.0788 C   0  0  0  0  0  0
  -22.4272   -8.0291   21.3573 C   0  0  0  0  0  0
  -21.9921   -9.0259   20.4659 C   0  0  0  0  0  0
  -22.7269  -10.2129   20.3075 C   0  0  0  0  0  0
  -21.6825   -6.0734   22.5292 C   0  0  0  0  0  0
  -21.3998   -6.5634   23.8224 C   0  0  0  0  0  0
  -21.3655   -5.6797   24.9194 C   0  0  0  0  0  0
  -21.6047   -4.3055   24.7249 C   0  0  0  0  0  0
  -21.8811   -3.8137   23.4371 C   0  0  0  0  0  0
  -21.9173   -4.6961   22.3417 C   0  0  0  0  0  0
  -22.7719  -13.5196   21.1832 C   0  0  0  0  0  0
  -22.1634   -4.2142   21.0996 F   0  0  0  0  0  0
  -21.5652   -3.4546   25.7769 F   0  0  0  0  0  0
  -29.9046  -13.8382   20.4130 N   0  0  0  0  0  0
  -26.2821  -12.9495   20.3233 N   0  0  0  0  0  0
  -25.9303  -11.6611   20.5731 N   0  0  0  0  0  0
  -22.0339  -12.8230   22.0423 N   0  0  0  0  0  0
  -25.3928  -15.1960   20.3974 N   0  0  0  0  0  0
  -31.6149  -15.1637   20.0344 O   0  0  0  0  0  0
  -21.6623   -6.8887   21.4263 O   0  0  0  0  0  0
  -22.3387  -14.5466   20.6642 O   0  0  0  0  0  0
  -24.6520  -31.8336   23.1804 C   0  0  0  0  0  0
  -25.9272  -32.4636   23.8215 C   0  0  1  0  0  0
  -27.1942  -27.0044   20.2043 C   0  0  0  0  0  0
  -25.5982  -33.8433   24.2140 N   0  0  0  0  0  0
  -23.4590  -30.4498   21.5288 C   0  0  2  0  0  0
  -24.9068  -28.8453   20.1202 C   0  0  0  0  0  0
  -22.7612  -29.4475   22.4829 C   0  0  0  0  0  0
  -18.0299  -28.1409   22.8466 C   0  0  0  0  0  0
  -24.1494  -36.7241   23.2638 C   0  0  0  0  0  0
  -26.0206  -30.6663   21.3955 C   0  0  0  0  0  0
  -26.0861  -29.2585   20.7544 C   0  0  0  0  0  0
  -27.2307  -28.3577   20.7708 C   0  0  0  0  0  0
  -25.9973  -26.7261   19.5164 C   0  0  0  0  0  0
  -24.8816  -27.5956   19.4805 C   0  0  0  0  0  0
  -23.6928  -29.7687   20.1536 C   0  0  0  0  0  0
  -25.4125  -36.2999   24.0298 C   0  0  1  0  0  0
  -20.5914  -28.3733   23.1217 C   0  0  2  0  0  0
  -20.6793  -26.9426   22.5381 C   0  0  0  0  0  0
  -19.5753  -26.6363   21.5217 C   0  0  0  0  0  0
  -18.1938  -26.7937   22.1633 C   0  0  0  0  0  0
  -19.1558  -28.8887   23.2838 C   0  0  0  0  0  0
  -18.9479  -30.1488   23.8861 C   0  0  0  0  0  0
  -17.6477  -30.6612   24.0562 C   0  0  0  0  0  0
  -25.9074  -34.9378   23.5048 C   0  0  0  0  0  0
  -16.5365  -29.9103   23.6349 C   0  0  0  0  0  0
  -16.7289  -28.6533   23.0355 C   0  0  0  0  0  0
  -26.4555  -31.6531   25.0697 C   0  0  0  0  0  0
  -25.3713  -31.3734   26.1387 C   0  0  0  0  0  0
  -27.0444  -30.2916   24.6331 C   0  0  0  0  0  0
  -27.6071  -32.4302   25.7507 C   0  0  0  0  0  0
  -27.5574  -37.1774   24.8458 C   0  0  0  0  0  0
  -21.4281  -29.3069   22.3619 N   0  0  0  0  0  0
  -26.4279  -37.3728   23.9393 N   0  0  0  0  0  0
  -24.7320  -31.0081   22.0909 N   0  0  0  0  0  0
  -23.4224  -28.7983   23.2979 O   0  0  0  0  0  0
  -28.2655  -26.0097   20.1279 O   0  0  0  0  0  0
  -26.5669  -34.8901   22.4632 O   0  0  0  0  0  0
  -23.5626  -32.1244   23.6980 O   0  0  0  0  0  0
  -27.4255  -18.9002   14.9940 C   0  0  0  0  0  0
  -27.3472  -17.4213   15.3887 C   0  0  0  0  0  0
  -28.6345  -19.5644   15.6646 C   0  0  0  0  0  0
  -27.2831  -17.2666   16.9166 C   0  0  0  0  0  0
  -28.5852  -19.4170   17.1964 C   0  0  0  0  0  0
  -28.4613  -17.9469   17.6505 C   0  0  0  0  0  0
  -25.5450  -23.5548   20.8073 C   0  0  0  0  0  0
  -25.9449  -21.3056   19.9168 C   0  0  0  0  0  0
  -28.4954  -24.6150   22.1888 C   0  0  0  0  0  0
  -28.6738  -16.4450   22.0061 C   0  0  0  0  0  0
  -30.9883  -17.2203   21.8976 C   0  0  0  0  0  0
  -28.2458  -17.7836   19.1732 C   0  0  0  0  0  0
  -28.9593  -19.7521   20.8163 C   0  0  0  0  0  0
  -29.0603  -21.4205   20.2381 C   0  0  0  0  0  0
  -26.5987  -22.4304   20.7465 C   0  0  0  0  0  0
  -29.3993  -18.1749   20.1374 C   0  0  1  0  0  0
  -28.0108  -22.8431   20.2087 C   0  0  1  0  0  0
  -28.4424  -24.4919   20.6588 C   0  0  1  0  0  0
  -29.8277  -16.6971   21.0157 C   0  0  0  0  0  0
  -31.4591  -12.9375   19.1885 H   0  0  0  0  0  0
  -30.5211  -11.7944   20.0760 H   0  0  0  0  0  0
  -29.8926  -11.7902   17.6360 H   0  0  0  0  0  0
  -29.5909  -13.5069   17.6910 H   0  0  0  0  0  0
  -27.9730  -11.2950   18.9834 H   0  0  0  0  0  0
  -27.4095  -12.4769   17.8251 H   0  0  0  0  0  0
  -27.5840  -14.2646   19.4165 H   0  0  0  0  0  0
  -28.8068  -12.2969   21.3897 H   0  0  0  0  0  0
  -28.2929  -13.8885   21.8178 H   0  0  0  0  0  0
  -25.2784   -9.5637   22.4793 H   0  0  0  0  0  0
  -23.9961   -7.4634   22.7519 H   0  0  0  0  0  0
  -21.0852   -8.8802   19.8952 H   0  0  0  0  0  0
  -22.3767  -10.9673   19.6176 H   0  0  0  0  0  0
  -21.1996   -7.6140   23.9714 H   0  0  0  0  0  0
  -21.1471   -6.0543   25.9099 H   0  0  0  0  0  0
  -22.0592   -2.7588   23.2889 H   0  0  0  0  0  0
  -22.3897  -11.9938   22.4898 H   0  0  0  0  0  0
  -21.0937  -13.1230   22.2536 H   0  0  0  0  0  0
  -24.6182  -15.8435   20.5061 H   0  0  0  0  0  0
  -26.2341  -15.6382   20.0546 H   0  0  0  0  0  0
  -26.7319  -32.5224   23.0911 H   0  0  0  0  0  0
  -25.0122  -33.9510   25.0290 H   0  0  0  0  0  0
  -22.7689  -31.2791   21.3677 H   0  0  0  0  0  0
  -23.3772  -35.9567   23.3269 H   0  0  0  0  0  0
  -24.3565  -36.8911   22.2060 H   0  0  0  0  0  0
  -23.7241  -37.6414   23.6705 H   0  0  0  0  0  0
  -26.1792  -31.4044   20.6083 H   0  0  0  0  0  0
  -26.8916  -30.7343   22.0334 H   0  0  0  0  0  0
  -28.1391  -28.6759   21.2613 H   0  0  0  0  0  0
  -25.9192  -25.7849   18.9937 H   0  0  0  0  0  0
  -23.9896  -27.2838   18.9521 H   0  0  0  0  0  0
  -23.8384  -30.5371   19.3945 H   0  0  0  0  0  0
  -22.8045  -29.2151   19.8431 H   0  0  0  0  0  0
  -25.1320  -36.1820   25.0783 H   0  0  0  0  0  0
  -20.9979  -28.3331   24.1351 H   0  0  0  0  0  0
  -20.5724  -26.2334   23.3598 H   0  0  0  0  0  0
  -21.6652  -26.7459   22.1134 H   0  0  0  0  0  0
  -19.6904  -25.6255   21.1300 H   0  0  0  0  0  0
  -19.6696  -27.3139   20.6713 H   0  0  0  0  0  0
  -17.4194  -26.6663   21.4052 H   0  0  0  0  0  0
  -18.0349  -26.0109   22.9057 H   0  0  0  0  0  0
  -19.7962  -30.7306   24.2212 H   0  0  0  0  0  0
  -17.5044  -31.6291   24.5181 H   0  0  0  0  0  0
  -15.5375  -30.3000   23.7707 H   0  0  0  0  0  0
  -15.8676  -28.0868   22.7057 H   0  0  0  0  0  0
  -24.5938  -30.7025   25.7702 H   0  0  0  0  0  0
  -24.8857  -32.2918   26.4700 H   0  0  0  0  0  0
  -25.7991  -30.8991   27.0239 H   0  0  0  0  0  0
  -26.3080  -29.6604   24.1334 H   0  0  0  0  0  0
  -27.4036  -29.7246   25.4939 H   0  0  0  0  0  0
  -27.9002  -30.4134   23.9683 H   0  0  0  0  0  0
  -27.2659  -33.3637   26.1999 H   0  0  0  0  0  0
  -28.3946  -32.6785   25.0375 H   0  0  0  0  0  0
  -28.0675  -31.8473   26.5499 H   0  0  0  0  0  0
  -28.2562  -38.0099   24.7519 H   0  0  0  0  0  0
  -28.1099  -36.2625   24.6277 H   0  0  0  0  0  0
  -27.2286  -37.1406   25.8858 H   0  0  0  0  0  0
  -20.9487  -29.8878   21.6881 H   0  0  0  0  0  0
  -26.0155  -38.2793   24.1415 H   0  0  0  0  0  0
  -26.5094  -19.4140   15.2909 H   0  0  0  0  0  0
  -27.4958  -18.9951   13.9082 H   0  0  0  0  0  0
  -28.2166  -16.8906   14.9979 H   0  0  0  0  0  0
  -26.4715  -16.9596   14.9292 H   0  0  0  0  0  0
  -28.6665  -20.6204   15.3959 H   0  0  0  0  0  0
  -29.5557  -19.1225   15.2830 H   0  0  0  0  0  0
  -27.2498  -16.2059   17.1684 H   0  0  0  0  0  0
  -26.3463  -17.6940   17.2784 H   0  0  0  0  0  0
  -27.7513  -20.0034   17.5840 H   0  0  0  0  0  0
  -29.4930  -19.8518   17.6100 H   0  0  0  0  0  0
  -29.3775  -17.4217   17.3721 H   0  0  0  0  0  0
  -24.6557  -23.2145   21.3417 H   0  0  0  0  0  0
  -25.2252  -23.8400   19.8056 H   0  0  0  0  0  0
  -25.8751  -24.4500   21.3254 H   0  0  0  0  0  0
  -25.0344  -20.9444   20.3962 H   0  0  0  0  0  0
  -26.5819  -20.4416   19.7673 H   0  0  0  0  0  0
  -25.6675  -21.6551   18.9213 H   0  0  0  0  0  0
  -28.6806  -23.6487   22.6615 H   0  0  0  0  0  0
  -27.5711  -25.0136   22.6009 H   0  0  0  0  0  0
  -29.2947  -25.2922   22.4917 H   0  0  0  0  0  0
  -28.3756  -17.3662   22.5088 H   0  0  0  0  0  0
  -28.9684  -15.7392   22.7845 H   0  0  0  0  0  0
  -27.7827  -16.0645   21.5148 H   0  0  0  0  0  0
  -31.7820  -17.6492   21.2865 H   0  0  0  0  0  0
  -31.4420  -16.4318   22.4986 H   0  0  0  0  0  0
  -30.6622  -17.9882   22.6015 H   0  0  0  0  0  0
  -28.0041  -16.7353   19.3404 H   0  0  0  0  0  0
  -27.3365  -18.3123   19.4605 H   0  0  0  0  0  0
  -27.9607  -19.6345   21.2364 H   0  0  0  0  0  0
  -29.5602  -19.8005   21.7238 H   0  0  0  0  0  0
  -29.3935  -21.3314   19.2079 H   0  0  0  0  0  0
  -29.9536  -21.7989   20.7335 H   0  0  0  0  0  0
  -26.7416  -22.0685   21.7644 H   0  0  0  0  0  0
  -30.2756  -18.3738   19.5221 H   0  0  0  0  0  0
  -27.8472  -22.9715   19.1363 H   0  0  0  0  0  0
  -29.4976  -24.4188   20.3878 H   0  0  0  0  0  0
  1 25  1  0  0  0
  1 30  2  0  0  0
  1 89  1  0  0  0
  2  3  1  0  0  0
  2 25  1  0  0  0
  2 90  1  0  0  0
  2 91  1  0  0  0
  3  4  1  0  0  0
  3 92  1  0  0  0
  3 93  1  0  0  0
  4  5  1  0  0  0
  4 94  1  0  0  0
  4 95  1  0  0  0
  5  6  1  0  0  0
  5 26  1  0  0  0
  5 96  1  0  0  0
  6 25  1  0  0  0
  6 97  1  0  0  0
  6 98  1  0  0  0
  7  8  2  0  0  0
  7 26  1  0  0  0
  7 29  1  0  0  0
  8  9  1  0  0  0
  8 22  1  0  0  0
  9 10  1  0  0  0
  9 27  2  0  0  0
 10 11  2  0  0  0
 10 15  1  0  0  0
 11 12  1  0  0  0
 11 99  1  0  0  0
 12 13  2  0  0  0
 12100  1  0  0  0
 13 14  1  0  0  0
 13 31  1  0  0  0
 14 15  2  0  0  0
 14101  1  0  0  0
 15102  1  0  0  0
 16 17  2  0  0  0
 16 21  1  0  0  0
 16 31  1  0  0  0
 17 18  1  0  0  0
 17103  1  0  0  0
 18 19  2  0  0  0
 18104  1  0  0  0
 19 20  1  0  0  0
 19 24  1  0  0  0
 20 21  2  0  0  0
 20105  1  0  0  0
 21 23  1  0  0  0
 22 28  1  0  0  0
 22 32  2  0  0  0
 26 27  1  0  0  0
 28106  1  0  0  0
 28107  1  0  0  0
 29108  1  0  0  0
 29109  1  0  0  0
 33 34  1  0  0  0
 33 66  1  0  0  0
 33 70  2  0  0  0
 34 36  1  0  0  0
 34 59  1  0  0  0
 34110  1  0  0  0
 35 44  2  0  0  0
 35 45  1  0  0  0
 35 68  1  0  0  0
 36 56  1  0  0  0
 36111  1  0  0  0
 37 39  1  0  0  0
 37 47  1  0  0  0
 37 66  1  0  0  0
 37112  1  0  0  0
 38 43  2  0  0  0
 38 46  1  0  0  0
 38 47  1  0  0  0
 39 64  1  0  0  0
 39 67  2  0  0  0
 40 52  1  0  0  0
 40 53  2  0  0  0
 40 58  1  0  0  0
 41113  1  0  0  0
 41114  1  0  0  0
 41115  1  0  0  0
 41 48  1  0  0  0
 42 43  1  0  0  0
 42 66  1  0  0  0
 42116  1  0  0  0
 42117  1  0  0  0
 43 44  1  0  0  0
 44118  1  0  0  0
 45 46  2  0  0  0
 45119  1  0  0  0
 46120  1  0  0  0
 47121  1  0  0  0
 47122  1  0  0  0
 48 56  1  0  0  0
 48 65  1  0  0  0
 48123  1  0  0  0
 49 50  1  0  0  0
 49 53  1  0  0  0
 49 64  1  0  0  0
 49124  1  0  0  0
 50 51  1  0  0  0
 50125  1  0  0  0
 50126  1  0  0  0
 51 52  1  0  0  0
 51127  1  0  0  0
 51128  1  0  0  0
 52129  1  0  0  0
 52130  1  0  0  0
 53 54  1  0  0  0
 54 55  2  0  0  0
 54131  1  0  0  0
 55 57  1  0  0  0
 55132  1  0  0  0
 56 69  2  0  0  0
 57 58  2  0  0  0
 57133  1  0  0  0
 58134  1  0  0  0
 59 60  1  0  0  0
 59 61  1  0  0  0
 59 62  1  0  0  0
 60135  1  0  0  0
 60136  1  0  0  0
 60137  1  0  0  0
 61138  1  0  0  0
 61139  1  0  0  0
 61140  1  0  0  0
 62141  1  0  0  0
 62142  1  0  0  0
 62143  1  0  0  0
 63 65  1  0  0  0
 63144  1  0  0  0
 63145  1  0  0  0
 63146  1  0  0  0
 64147  1  0  0  0
 65148  1  0  0  0
 68 88  1  0  0  0
 71 72  1  0  0  0
 71 73  1  0  0  0
 71149  1  0  0  0
 71150  1  0  0  0
 72 74  1  0  0  0
 72151  1  0  0  0
 72152  1  0  0  0
 73 75  1  0  0  0
 73153  1  0  0  0
 73154  1  0  0  0
 74 76  1  0  0  0
 74155  1  0  0  0
 74156  1  0  0  0
 75 76  1  0  0  0
 75157  1  0  0  0
 75158  1  0  0  0
 76 82  1  0  0  0
 76159  1  0  0  0
 77160  1  0  0  0
 77161  1  0  0  0
 77162  1  0  0  0
 77 85  1  0  0  0
 78 85  1  0  0  0
 78163  1  0  0  0
 78164  1  0  0  0
 78165  1  0  0  0
 79166  1  0  0  0
 79167  1  0  0  0
 79168  1  0  0  0
 79 88  1  0  0  0
 80169  1  0  0  0
 80170  1  0  0  0
 80171  1  0  0  0
 80 89  1  0  0  0
 81 89  1  0  0  0
 81172  1  0  0  0
 81173  1  0  0  0
 81174  1  0  0  0
 82175  1  0  0  0
 82176  1  0  0  0
 82 86  1  0  0  0
 83 84  1  0  0  0
 83 86  1  0  0  0
 83177  1  0  0  0
 83178  1  0  0  0
 84179  1  0  0  0
 84180  1  0  0  0
 84 87  1  0  0  0
 85 87  1  0  0  0
 85181  1  0  0  0
 86 89  1  0  0  0
 86182  1  0  0  0
 87 88  1  0  0  0
 87183  1  0  0  0
 88184  1  0  0  0
M  ISO  4   1 100  68 101  88 101  89 100
M  END
> <chiral flag>
0

> <version>
0

> <s_m_source_file>
/data/baiqing/PycharmProjects/Reinvent-master-3.2/result/LINK_invent/BTK/process_docking_weight1_custom_sum_contain_oxygen_bond_distance_aromatic_linkinvent_7_9_3/rearranged_h_0107.sdf

> <i_m_source_file_index>
62

> <r_mmod_Potential_Energy-OPLS-2005>
1332.47424316406

> <r_mmod_Stretch_Energy-OPLS-2005>
546.587524414062

> <r_mmod_Bend_Energy-OPLS-2005>
520.631958007812

> <r_mmod_Torsional_Energy-OPLS-2005>
292.633819580078

> <r_mmod_Improper_Torsional_Energy-OPLS-2005>
2.49393224716187

> <r_mmod_Van_der_Waal_Energy-OPLS-2005>
107.166114807129

> <r_mmod_Electrostatic_Energy-OPLS-2005>
-297.632781982422

> <r_mmod_Solvation_Energy-OPLS-2005>
-160.145751953125

> <b_mmod_Minimization_Converged-OPLS-2005>
0

> <r_mmod_RMS_Derivative-OPLS-2005>
3.91692757606506

$$$$
64
                    3D
 Structure written by MMmdl.
169177  0  0  1  0            999 V2000
  -30.6220  -14.7175   20.4851 C   0  0  0  0  0  0
  -30.4290  -12.4432   19.4713 C   0  0  0  0  0  0
  -29.5070  -12.5035   18.2339 C   0  0  0  0  0  0
  -28.0346  -12.3320   18.6528 C   0  0  0  0  0  0
  -27.6436  -13.2290   19.8573 C   0  0  2  0  0  0
  -28.6850  -13.1504   20.9931 C   0  0  0  0  0  0
  -25.2528  -13.8172   20.5703 C   0  0  0  0  0  0
  -24.1816  -13.0430   20.9180 C   0  0  0  0  0  0
  -24.6401  -11.6897   20.8737 C   0  0  0  0  0  0
  -23.9078  -10.4284   21.0394 C   0  0  0  0  0  0
  -24.3628   -9.4194   21.9154 C   0  0  0  0  0  0
  -23.6316   -8.2225   22.0731 C   0  0  0  0  0  0
  -22.4288   -8.0274   21.3537 C   0  0  0  0  0  0
  -21.9934   -9.0239   20.4621 C   0  0  0  0  0  0
  -22.7260  -10.2121   20.3040 C   0  0  0  0  0  0
  -21.6848   -6.0741   22.5269 C   0  0  0  0  0  0
  -21.4013   -6.5643   23.8202 C   0  0  0  0  0  0
  -21.3659   -5.6786   24.9164 C   0  0  0  0  0  0
  -21.6048   -4.3048   24.7207 C   0  0  0  0  0  0
  -21.8833   -3.8151   23.4326 C   0  0  0  0  0  0
  -21.9194   -4.6972   22.3388 C   0  0  0  0  0  0
  -22.7847  -13.5206   21.1869 C   0  0  0  0  0  0
  -22.1671   -4.2171   21.0965 F   0  0  0  0  0  0
  -21.5637   -3.4527   25.7720 F   0  0  0  0  0  0
  -29.9872  -13.4985   20.4136 N   0  0  0  0  0  0
  -26.2944  -12.9373   20.3303 N   0  0  0  0  0  0
  -25.9318  -11.6517   20.5760 N   0  0  0  0  0  0
  -22.0531  -12.8150   22.0418 N   0  0  0  0  0  0
  -25.4263  -15.1886   20.4108 N   0  0  0  0  0  0
  -31.8008  -14.8140   20.1374 O   0  0  0  0  0  0
  -21.6645   -6.8884   21.4237 O   0  0  0  0  0  0
  -22.3521  -14.5524   20.6752 O   0  0  0  0  0  0
  -24.6272  -31.8571   23.1972 C   0  0  0  0  0  0
  -25.9118  -32.4741   23.8300 C   0  0  1  0  0  0
  -27.2030  -27.2534   20.1437 C   0  0  0  0  0  0
  -25.5938  -33.8555   24.2210 N   0  0  0  0  0  0
  -23.4231  -30.4755   21.5483 C   0  0  2  0  0  0
  -24.8705  -28.9367   20.1059 C   0  0  0  0  0  0
  -22.7502  -29.4542   22.4966 C   0  0  0  0  0  0
  -18.0311  -28.1308   22.8500 C   0  0  0  0  0  0
  -24.1510  -36.7266   23.2638 C   0  0  0  0  0  0
  -25.9726  -30.7665   21.3841 C   0  0  0  0  0  0
  -26.0457  -29.3952   20.7164 C   0  0  0  0  0  0
  -27.2165  -28.5703   20.7195 C   0  0  0  0  0  0
  -26.0068  -26.8765   19.4909 C   0  0  0  0  0  0
  -24.8587  -27.6866   19.4756 C   0  0  0  0  0  0
  -23.6397  -29.8156   20.1623 C   0  0  0  0  0  0
  -25.4135  -36.3045   24.0302 C   0  0  1  0  0  0
  -20.5919  -28.3586   23.1313 C   0  0  2  0  0  0
  -20.6786  -26.9302   22.5414 C   0  0  0  0  0  0
  -19.5769  -26.6326   21.5209 C   0  0  0  0  0  0
  -18.1944  -26.7856   22.1625 C   0  0  0  0  0  0
  -19.1577  -28.8773   23.2889 C   0  0  0  0  0  0
  -18.9531  -30.1411   23.8850 C   0  0  0  0  0  0
  -17.6538  -30.6546   24.0540 C   0  0  0  0  0  0
  -25.9082  -34.9423   23.5042 C   0  0  0  0  0  0
  -16.5410  -29.9042   23.6342 C   0  0  0  0  0  0
  -16.7311  -28.6454   23.0367 C   0  0  0  0  0  0
  -26.4500  -31.6562   25.0680 C   0  0  0  0  0  0
  -25.3684  -31.3746   26.1364 C   0  0  0  0  0  0
  -27.0361  -30.2954   24.6214 C   0  0  0  0  0  0
  -27.6040  -32.4338   25.7450 C   0  0  0  0  0  0
  -27.5578  -37.1783   24.8456 C   0  0  0  0  0  0
  -21.4219  -29.2969   22.3739 N   0  0  0  0  0  0
  -26.4297  -37.3749   23.9395 N   0  0  0  0  0  0
  -24.6931  -31.0485   22.0988 N   0  0  0  0  0  0
  -23.4227  -28.8048   23.3014 O   0  0  0  0  0  0
  -28.2667  -26.3178   20.2404 O   0  0  0  0  0  0
  -26.5675  -34.8902   22.4631 O   0  0  0  0  0  0
  -23.5413  -32.1440   23.7239 O   0  0  0  0  0  0
  -28.1158  -18.6500   21.2454 C   0  0  0  0  0  0
  -29.6355  -19.8815   20.2463 C   0  0  0  0  0  0
  -29.4189  -18.5694   20.6847 C   0  0  0  0  0  0
  -27.5610  -19.9078   21.0824 C   0  0  0  0  0  0
  -25.4424  -19.1889   22.2853 C   0  0  0  0  0  0
  -25.2292  -20.4715   20.2094 C   0  0  0  0  0  0
  -26.0947  -21.5649   22.3377 C   0  0  0  0  0  0
  -29.0609  -23.5223   22.0408 C   0  0  0  0  0  0
  -30.2547  -23.8264   19.8641 C   0  0  0  0  0  0
  -30.3737  -17.2961   20.6324 C   0  0  0  0  0  0
  -28.3071  -22.1691   19.9127 C   0  0  0  0  0  0
  -27.9228  -24.8498   20.1206 C   0  0  0  0  0  0
  -26.1291  -20.3025   21.4561 C   0  0  0  0  0  0
  -28.8754  -23.5815   20.5064 C   0  0  0  0  0  0
  -28.5222  -20.7418   20.4604 N   0  0  0  0  0  0
  -29.8813  -15.8572   20.7503 N   0  0  0  0  0  0
  -31.4711  -12.5630   19.1695 H   0  0  0  0  0  0
  -30.3660  -11.4607   19.9421 H   0  0  0  0  0  0
  -29.7816  -11.7259   17.5206 H   0  0  0  0  0  0
  -29.6339  -13.4538   17.7127 H   0  0  0  0  0  0
  -27.8910  -11.2837   18.9146 H   0  0  0  0  0  0
  -27.3728  -12.5296   17.8100 H   0  0  0  0  0  0
  -27.6466  -14.2541   19.4856 H   0  0  0  0  0  0
  -28.7139  -12.1496   21.4235 H   0  0  0  0  0  0
  -28.4226  -13.8297   21.8038 H   0  0  0  0  0  0
  -25.2780   -9.5662   22.4727 H   0  0  0  0  0  0
  -24.0033   -7.4603   22.7423 H   0  0  0  0  0  0
  -21.0883   -8.8745   19.8909 H   0  0  0  0  0  0
  -22.3711  -10.9660   19.6154 H   0  0  0  0  0  0
  -21.2011   -7.6151   23.9719 H   0  0  0  0  0  0
  -21.1476   -6.0507   25.9065 H   0  0  0  0  0  0
  -22.0625   -2.7622   23.2802 H   0  0  0  0  0  0
  -22.4226  -11.9823   22.4767 H   0  0  0  0  0  0
  -21.1144  -13.1129   22.2674 H   0  0  0  0  0  0
  -24.6647  -15.8520   20.5117 H   0  0  0  0  0  0
  -26.2801  -15.6137   20.0756 H   0  0  0  0  0  0
  -26.7168  -32.5354   23.1023 H   0  0  0  0  0  0
  -25.0038  -33.9736   25.0311 H   0  0  0  0  0  0
  -22.7156  -31.2944   21.4067 H   0  0  0  0  0  0
  -23.3772  -35.9601   23.3295 H   0  0  0  0  0  0
  -24.3599  -36.8912   22.2060 H   0  0  0  0  0  0
  -23.7295  -37.6458   23.6693 H   0  0  0  0  0  0
  -26.1234  -31.5345   20.6241 H   0  0  0  0  0  0
  -26.8426  -30.7973   22.0279 H   0  0  0  0  0  0
  -28.1102  -28.9188   21.2164 H   0  0  0  0  0  0
  -25.9086  -25.9175   19.0103 H   0  0  0  0  0  0
  -23.9594  -27.3326   18.9897 H   0  0  0  0  0  0
  -23.7554  -30.5971   19.4113 H   0  0  0  0  0  0
  -22.7569  -29.2467   19.8623 H   0  0  0  0  0  0
  -25.1333  -36.1856   25.0796 H   0  0  0  0  0  0
  -21.0002  -28.3135   24.1437 H   0  0  0  0  0  0
  -20.5620  -26.2151   23.3579 H   0  0  0  0  0  0
  -21.6654  -26.7275   22.1261 H   0  0  0  0  0  0
  -19.6944  -25.6248   21.1207 H   0  0  0  0  0  0
  -19.6697  -27.3150   20.6760 H   0  0  0  0  0  0
  -17.4197  -26.6641   21.4045 H   0  0  0  0  0  0
  -18.0322  -25.9971   22.9005 H   0  0  0  0  0  0
  -19.8034  -30.7240   24.2143 H   0  0  0  0  0  0
  -17.5111  -31.6234   24.5136 H   0  0  0  0  0  0
  -15.5414  -30.2941   23.7684 H   0  0  0  0  0  0
  -15.8714  -28.0765   22.7083 H   0  0  0  0  0  0
  -24.5839  -30.7153   25.7639 H   0  0  0  0  0  0
  -24.8907  -32.2939   26.4749 H   0  0  0  0  0  0
  -25.7936  -30.8891   27.0154 H   0  0  0  0  0  0
  -26.2957  -29.6675   24.1231 H   0  0  0  0  0  0
  -27.4006  -29.7250   25.4772 H   0  0  0  0  0  0
  -27.8854  -30.4195   23.9489 H   0  0  0  0  0  0
  -27.2613  -33.3644   26.1990 H   0  0  0  0  0  0
  -28.3838  -32.6912   25.0267 H   0  0  0  0  0  0
  -28.0713  -31.8492   26.5385 H   0  0  0  0  0  0
  -28.2582  -38.0090   24.7492 H   0  0  0  0  0  0
  -28.1094  -36.2618   24.6294 H   0  0  0  0  0  0
  -27.2277  -37.1410   25.8854 H   0  0  0  0  0  0
  -20.9317  -29.8839   21.7138 H   0  0  0  0  0  0
  -26.0152  -38.2808   24.1413 H   0  0  0  0  0  0
  -27.6080  -17.8151   21.7084 H   0  0  0  0  0  0
  -30.5056  -20.2840   19.7413 H   0  0  0  0  0  0
  -25.3888  -18.2449   21.7399 H   0  0  0  0  0  0
  -24.4125  -19.4508   22.5386 H   0  0  0  0  0  0
  -25.9628  -19.0046   23.2259 H   0  0  0  0  0  0
  -25.2052  -19.5522   19.6211 H   0  0  0  0  0  0
  -25.5244  -21.2654   19.5314 H   0  0  0  0  0  0
  -24.2021  -20.6986   20.4944 H   0  0  0  0  0  0
  -26.8016  -21.4722   23.1639 H   0  0  0  0  0  0
  -25.1069  -21.7203   22.7729 H   0  0  0  0  0  0
  -26.3318  -22.4735   21.7929 H   0  0  0  0  0  0
  -29.5875  -22.6201   22.3537 H   0  0  0  0  0  0
  -28.1132  -23.5429   22.5758 H   0  0  0  0  0  0
  -29.6338  -24.3751   22.4079 H   0  0  0  0  0  0
  -30.9572  -23.0280   20.1093 H   0  0  0  0  0  0
  -30.6872  -24.7701   20.2025 H   0  0  0  0  0  0
  -30.1879  -23.8720   18.7756 H   0  0  0  0  0  0
  -31.1083  -17.4385   21.4276 H   0  0  0  0  0  0
  -30.9385  -17.3658   19.7036 H   0  0  0  0  0  0
  -28.6016  -22.1183   18.8654 H   0  0  0  0  0  0
  -27.2402  -22.3195   19.8312 H   0  0  0  0  0  0
  -27.0110  -24.7038   20.7033 H   0  0  0  0  0  0
  -27.6363  -24.6897   19.0808 H   0  0  0  0  0  0
  -28.9164  -15.7224   21.0080 H   0  0  0  0  0  0
  1 25  1  0  0  0
  1 30  2  0  0  0
  1 86  1  0  0  0
  2  3  1  0  0  0
  2 25  1  0  0  0
  2 87  1  0  0  0
  2 88  1  0  0  0
  3  4  1  0  0  0
  3 89  1  0  0  0
  3 90  1  0  0  0
  4  5  1  0  0  0
  4 91  1  0  0  0
  4 92  1  0  0  0
  5  6  1  0  0  0
  5 26  1  0  0  0
  5 93  1  0  0  0
  6 25  1  0  0  0
  6 94  1  0  0  0
  6 95  1  0  0  0
  7  8  2  0  0  0
  7 26  1  0  0  0
  7 29  1  0  0  0
  8  9  1  0  0  0
  8 22  1  0  0  0
  9 10  1  0  0  0
  9 27  2  0  0  0
 10 11  2  0  0  0
 10 15  1  0  0  0
 11 12  1  0  0  0
 11 96  1  0  0  0
 12 13  2  0  0  0
 12 97  1  0  0  0
 13 14  1  0  0  0
 13 31  1  0  0  0
 14 15  2  0  0  0
 14 98  1  0  0  0
 15 99  1  0  0  0
 16 17  2  0  0  0
 16 21  1  0  0  0
 16 31  1  0  0  0
 17 18  1  0  0  0
 17100  1  0  0  0
 18 19  2  0  0  0
 18101  1  0  0  0
 19 20  1  0  0  0
 19 24  1  0  0  0
 20 21  2  0  0  0
 20102  1  0  0  0
 21 23  1  0  0  0
 22 28  1  0  0  0
 22 32  2  0  0  0
 26 27  1  0  0  0
 28103  1  0  0  0
 28104  1  0  0  0
 29105  1  0  0  0
 29106  1  0  0  0
 33 34  1  0  0  0
 33 66  1  0  0  0
 33 70  2  0  0  0
 34 36  1  0  0  0
 34 59  1  0  0  0
 34107  1  0  0  0
 35 44  2  0  0  0
 35 45  1  0  0  0
 35 68  1  0  0  0
 36 56  1  0  0  0
 36108  1  0  0  0
 37 39  1  0  0  0
 37 47  1  0  0  0
 37 66  1  0  0  0
 37109  1  0  0  0
 38 43  2  0  0  0
 38 46  1  0  0  0
 38 47  1  0  0  0
 39 64  1  0  0  0
 39 67  2  0  0  0
 40 52  1  0  0  0
 40 53  2  0  0  0
 40 58  1  0  0  0
 41110  1  0  0  0
 41111  1  0  0  0
 41112  1  0  0  0
 41 48  1  0  0  0
 42 43  1  0  0  0
 42 66  1  0  0  0
 42113  1  0  0  0
 42114  1  0  0  0
 43 44  1  0  0  0
 44115  1  0  0  0
 45 46  2  0  0  0
 45116  1  0  0  0
 46117  1  0  0  0
 47118  1  0  0  0
 47119  1  0  0  0
 48 56  1  0  0  0
 48 65  1  0  0  0
 48120  1  0  0  0
 49 50  1  0  0  0
 49 53  1  0  0  0
 49 64  1  0  0  0
 49121  1  0  0  0
 50 51  1  0  0  0
 50122  1  0  0  0
 50123  1  0  0  0
 51 52  1  0  0  0
 51124  1  0  0  0
 51125  1  0  0  0
 52126  1  0  0  0
 52127  1  0  0  0
 53 54  1  0  0  0
 54 55  2  0  0  0
 54128  1  0  0  0
 55 57  1  0  0  0
 55129  1  0  0  0
 56 69  2  0  0  0
 57 58  2  0  0  0
 57130  1  0  0  0
 58131  1  0  0  0
 59 60  1  0  0  0
 59 61  1  0  0  0
 59 62  1  0  0  0
 60132  1  0  0  0
 60133  1  0  0  0
 60134  1  0  0  0
 61135  1  0  0  0
 61136  1  0  0  0
 61137  1  0  0  0
 62138  1  0  0  0
 62139  1  0  0  0
 62140  1  0  0  0
 63 65  1  0  0  0
 63141  1  0  0  0
 63142  1  0  0  0
 63143  1  0  0  0
 64144  1  0  0  0
 65145  1  0  0  0
 68 82  1  0  0  0
 71 73  1  0  0  0
 71 74  2  0  0  0
 71146  1  0  0  0
 72 73  2  0  0  0
 72 85  1  0  0  0
 72147  1  0  0  0
 73 80  1  0  0  0
 74 83  1  0  0  0
 74 85  1  0  0  0
 75148  1  0  0  0
 75149  1  0  0  0
 75150  1  0  0  0
 75 83  1  0  0  0
 76 83  1  0  0  0
 76151  1  0  0  0
 76152  1  0  0  0
 76153  1  0  0  0
 77 83  1  0  0  0
 77154  1  0  0  0
 77155  1  0  0  0
 77156  1  0  0  0
 78157  1  0  0  0
 78158  1  0  0  0
 78159  1  0  0  0
 78 84  1  0  0  0
 79 84  1  0  0  0
 79160  1  0  0  0
 79161  1  0  0  0
 79162  1  0  0  0
 80 86  1  0  0  0
 80163  1  0  0  0
 80164  1  0  0  0
 81 84  1  0  0  0
 81 85  1  0  0  0
 81165  1  0  0  0
 81166  1  0  0  0
 82 84  1  0  0  0
 82167  1  0  0  0
 82168  1  0  0  0
 86169  1  0  0  0
M  ISO  4   1 100  68 101  82 101  86 100
M  END
> <chiral flag>
0

> <version>
0

> <s_m_source_file>
/data/baiqing/PycharmProjects/Reinvent-master-3.2/result/LINK_invent/BTK/process_docking_weight1_custom_sum_contain_oxygen_bond_distance_aromatic_linkinvent_7_9_3/rearranged_h_0107.sdf

> <i_m_source_file_index>
63

> <r_mmod_Potential_Energy-OPLS-2005>
136.780303955078

> <r_mmod_Stretch_Energy-OPLS-2005>
130.911987304688

> <r_mmod_Bend_Energy-OPLS-2005>
204.014877319336

> <r_mmod_Torsional_Energy-OPLS-2005>
230.352813720703

> <r_mmod_Improper_Torsional_Energy-OPLS-2005>
6.13405418395996

> <r_mmod_Van_der_Waal_Energy-OPLS-2005>
125.737892150879

> <r_mmod_Electrostatic_Energy-OPLS-2005>
-450.561584472656

> <r_mmod_Solvation_Energy-OPLS-2005>
-196.168395996094

> <b_mmod_Minimization_Converged-OPLS-2005>
0

> <r_mmod_RMS_Derivative-OPLS-2005>
4.4041485786438

$$$$
65
                    3D
 Structure written by MMmdl.
162169  0  0  1  0            999 V2000
  -30.4267  -15.2262   20.3988 C   0  0  0  0  0  0
  -30.4641  -12.7770   19.5293 C   0  0  0  0  0  0
  -29.5500  -12.5931   18.2868 C   0  0  0  0  0  0
  -28.0808  -12.3363   18.6854 C   0  0  0  0  0  0
  -27.6215  -13.2635   19.8381 C   0  0  2  0  0  0
  -28.6692  -13.3451   20.9679 C   0  0  0  0  0  0
  -25.2356  -13.8198   20.5625 C   0  0  0  0  0  0
  -24.1738  -13.0409   20.9232 C   0  0  0  0  0  0
  -24.6409  -11.6911   20.8764 C   0  0  0  0  0  0
  -23.9113  -10.4286   21.0413 C   0  0  0  0  0  0
  -24.3668   -9.4208   21.9187 C   0  0  0  0  0  0
  -23.6330   -8.2251   22.0751 C   0  0  0  0  0  0
  -22.4304   -8.0290   21.3549 C   0  0  0  0  0  0
  -21.9949   -9.0268   20.4649 C   0  0  0  0  0  0
  -22.7288  -10.2143   20.3062 C   0  0  0  0  0  0
  -21.6871   -6.0767   22.5278 C   0  0  0  0  0  0
  -21.4015   -6.5647   23.8215 C   0  0  0  0  0  0
  -21.3648   -5.6786   24.9164 C   0  0  0  0  0  0
  -21.6057   -4.3060   24.7205 C   0  0  0  0  0  0
  -21.8810   -3.8160   23.4316 C   0  0  0  0  0  0
  -21.9202   -4.6989   22.3386 C   0  0  0  0  0  0
  -22.7753  -13.5167   21.1874 C   0  0  0  0  0  0
  -22.1676   -4.2177   21.0967 F   0  0  0  0  0  0
  -21.5626   -3.4536   25.7718 F   0  0  0  0  0  0
  -29.9127  -13.8927   20.3814 N   0  0  0  0  0  0
  -26.2849  -12.9466   20.3231 N   0  0  0  0  0  0
  -25.9354  -11.6596   20.5723 N   0  0  0  0  0  0
  -22.0440  -12.8181   22.0469 N   0  0  0  0  0  0
  -25.3821  -15.1919   20.3850 N   0  0  0  0  0  0
  -31.6466  -15.2530   20.1745 O   0  0  0  0  0  0
  -21.6659   -6.8910   21.4241 O   0  0  0  0  0  0
  -22.3424  -14.5462   20.6700 O   0  0  0  0  0  0
  -24.6548  -31.8301   23.1730 C   0  0  0  0  0  0
  -25.9260  -32.4626   23.8176 C   0  0  1  0  0  0
  -27.2245  -26.9884   20.2104 C   0  0  0  0  0  0
  -25.5960  -33.8437   24.2095 N   0  0  0  0  0  0
  -23.4663  -30.4418   21.5213 C   0  0  2  0  0  0
  -24.9197  -28.8306   20.1230 C   0  0  0  0  0  0
  -22.7627  -29.4481   22.4796 C   0  0  0  0  0  0
  -18.0317  -28.1412   22.8457 C   0  0  0  0  0  0
  -24.1495  -36.7235   23.2647 C   0  0  0  0  0  0
  -26.0315  -30.6573   21.3947 C   0  0  0  0  0  0
  -26.1000  -29.2484   20.7513 C   0  0  0  0  0  0
  -27.2491  -28.3496   20.7651 C   0  0  0  0  0  0
  -26.0147  -26.6979   19.5402 C   0  0  0  0  0  0
  -24.8980  -27.5714   19.4995 C   0  0  0  0  0  0
  -23.7048  -29.7532   20.1489 C   0  0  0  0  0  0
  -25.4132  -36.2990   24.0299 C   0  0  1  0  0  0
  -20.5934  -28.3754   23.1196 C   0  0  2  0  0  0
  -20.6803  -26.9442   22.5402 C   0  0  0  0  0  0
  -19.5783  -26.6381   21.5216 C   0  0  0  0  0  0
  -18.1959  -26.7948   22.1612 C   0  0  0  0  0  0
  -19.1578  -28.8914   23.2820 C   0  0  0  0  0  0
  -18.9491  -30.1495   23.8849 C   0  0  0  0  0  0
  -17.6482  -30.6611   24.0560 C   0  0  0  0  0  0
  -25.9093  -34.9365   23.5020 C   0  0  0  0  0  0
  -16.5372  -29.9090   23.6339 C   0  0  0  0  0  0
  -16.7303  -28.6517   23.0356 C   0  0  0  0  0  0
  -26.4531  -31.6534   25.0684 C   0  0  0  0  0  0
  -25.3671  -31.3768   26.1347 C   0  0  0  0  0  0
  -27.0478  -30.2916   24.6398 C   0  0  0  0  0  0
  -27.5996  -32.4343   25.7514 C   0  0  0  0  0  0
  -27.5571  -37.1780   24.8457 C   0  0  0  0  0  0
  -21.4296  -29.3059   22.3543 N   0  0  0  0  0  0
  -26.4289  -37.3705   23.9395 N   0  0  0  0  0  0
  -24.7384  -31.0027   22.0838 N   0  0  0  0  0  0
  -23.4200  -28.8078   23.3027 O   0  0  0  0  0  0
  -28.2904  -25.9668   20.1879 O   0  0  0  0  0  0
  -26.5699  -34.8863   22.4615 O   0  0  0  0  0  0
  -23.5643  -32.1246   23.6864 O   0  0  0  0  0  0
  -28.9529  -21.2777   22.2564 C   0  0  0  0  0  0
  -27.2161  -24.3963   21.8335 C   0  0  0  0  0  0
  -28.7896  -16.7709   19.0510 C   0  0  0  0  0  0
  -28.4866  -16.5851   21.5596 C   0  0  0  0  0  0
  -31.4225  -18.4899   20.1752 C   0  0  0  0  0  0
  -28.5541  -22.8215   20.1012 C   0  0  0  0  0  0
  -29.1273  -19.6451   20.2064 C   0  0  0  0  0  0
  -29.2687  -21.3236   20.7561 C   0  0  2  0  0  0
  -28.3263  -24.4495   20.7737 C   0  0  1  0  0  0
  -29.5156  -16.7431   20.4185 C   0  0  0  0  0  0
  -30.0203  -18.3077   20.6099 N   0  3  1  0  0  0
  -31.4821  -12.9894   19.1991 H   0  0  0  0  0  0
  -30.5389  -11.8464   20.0954 H   0  0  0  0  0  0
  -29.9159  -11.7793   17.6607 H   0  0  0  0  0  0
  -29.6015  -13.4922   17.6714 H   0  0  0  0  0  0
  -28.0016  -11.2946   18.9994 H   0  0  0  0  0  0
  -27.4262  -12.4489   17.8188 H   0  0  0  0  0  0
  -27.5390  -14.2504   19.3943 H   0  0  0  0  0  0
  -28.8292  -12.3567   21.4014 H   0  0  0  0  0  0
  -28.3207  -13.9482   21.8020 H   0  0  0  0  0  0
  -25.2827   -9.5696   22.4735 H   0  0  0  0  0  0
  -24.0047   -7.4651   22.7457 H   0  0  0  0  0  0
  -21.0888   -8.8809   19.8955 H   0  0  0  0  0  0
  -22.3767  -10.9689   19.6162 H   0  0  0  0  0  0
  -21.2013   -7.6154   23.9721 H   0  0  0  0  0  0
  -21.1473   -6.0519   25.9071 H   0  0  0  0  0  0
  -22.0606   -2.7625   23.2802 H   0  0  0  0  0  0
  -22.4081  -11.9854   22.4863 H   0  0  0  0  0  0
  -21.1037  -13.1157   22.2633 H   0  0  0  0  0  0
  -24.5950  -15.8246   20.4773 H   0  0  0  0  0  0
  -26.1970  -15.6378   19.9894 H   0  0  0  0  0  0
  -26.7338  -32.5175   23.0912 H   0  0  0  0  0  0
  -25.0038  -33.9506   25.0197 H   0  0  0  0  0  0
  -22.7769  -31.2712   21.3523 H   0  0  0  0  0  0
  -23.3742  -35.9581   23.3295 H   0  0  0  0  0  0
  -24.3570  -36.8894   22.2065 H   0  0  0  0  0  0
  -23.7266  -37.6428   23.6711 H   0  0  0  0  0  0
  -26.2008  -31.3984   20.6118 H   0  0  0  0  0  0
  -26.8953  -30.7170   22.0440 H   0  0  0  0  0  0
  -28.1521  -28.6780   21.2593 H   0  0  0  0  0  0
  -25.9199  -25.7345   19.0586 H   0  0  0  0  0  0
  -23.9984  -27.2446   18.9928 H   0  0  0  0  0  0
  -23.8560  -30.5207   19.3892 H   0  0  0  0  0  0
  -22.8163  -29.2043   19.8340 H   0  0  0  0  0  0
  -25.1333  -36.1787   25.0792 H   0  0  0  0  0  0
  -21.0014  -28.3364   24.1321 H   0  0  0  0  0  0
  -20.5699  -26.2373   23.3635 H   0  0  0  0  0  0
  -21.6665  -26.7435   22.1205 H   0  0  0  0  0  0
  -19.6942  -25.6281   21.1287 H   0  0  0  0  0  0
  -19.6731  -27.3151   20.6721 H   0  0  0  0  0  0
  -17.4224  -26.6678   21.4021 H   0  0  0  0  0  0
  -18.0360  -26.0117   22.9041 H   0  0  0  0  0  0
  -19.7979  -30.7336   24.2181 H   0  0  0  0  0  0
  -17.5050  -31.6282   24.5184 H   0  0  0  0  0  0
  -15.5380  -30.2995   23.7715 H   0  0  0  0  0  0
  -15.8693  -28.0843   22.7086 H   0  0  0  0  0  0
  -24.5803  -30.7196   25.7641 H   0  0  0  0  0  0
  -24.8921  -32.2988   26.4708 H   0  0  0  0  0  0
  -25.7878  -30.8939   27.0175 H   0  0  0  0  0  0
  -26.3188  -29.6555   24.1384 H   0  0  0  0  0  0
  -27.4059  -29.7289   25.5038 H   0  0  0  0  0  0
  -27.9052  -30.4154   23.9781 H   0  0  0  0  0  0
  -27.2534  -33.3676   26.1967 H   0  0  0  0  0  0
  -28.3883  -32.6846   25.0416 H   0  0  0  0  0  0
  -28.0570  -31.8554   26.5552 H   0  0  0  0  0  0
  -28.2569  -38.0090   24.7473 H   0  0  0  0  0  0
  -28.1081  -36.2609   24.6317 H   0  0  0  0  0  0
  -27.2285  -37.1458   25.8859 H   0  0  0  0  0  0
  -20.9540  -29.8720   21.6655 H   0  0  0  0  0  0
  -26.0139  -38.2767   24.1370 H   0  0  0  0  0  0
  -29.2215  -22.2091   22.7521 H   0  0  0  0  0  0
  -29.5041  -20.4790   22.7551 H   0  0  0  0  0  0
  -27.8906  -21.0989   22.4292 H   0  0  0  0  0  0
  -27.2551  -25.2622   22.4951 H   0  0  0  0  0  0
  -27.3069  -23.5104   22.4626 H   0  0  0  0  0  0
  -26.2285  -24.3721   21.3708 H   0  0  0  0  0  0
  -29.3261  -17.4001   18.3422 H   0  0  0  0  0  0
  -27.7778  -17.1697   19.1318 H   0  0  0  0  0  0
  -28.7241  -15.8012   18.5652 H   0  0  0  0  0  0
  -28.9598  -16.2090   22.4669 H   0  0  0  0  0  0
  -27.6820  -15.9130   21.2932 H   0  0  0  0  0  0
  -27.9999  -17.5235   21.8264 H   0  0  0  0  0  0
  -31.7750  -19.4932   20.4172 H   0  0  0  0  0  0
  -31.5243  -18.3455   19.0986 H   0  0  0  0  0  0
  -32.0863  -17.7892   20.6803 H   0  0  0  0  0  0
  -27.5574  -22.5295   19.7678 H   0  0  0  0  0  0
  -29.0818  -22.9797   19.1602 H   0  0  0  0  0  0
  -29.1557  -19.6868   19.1186 H   0  0  0  0  0  0
  -28.0958  -19.3690   20.4301 H   0  0  0  0  0  0
  -30.3380  -21.5245   20.6993 H   0  0  0  0  0  0
  -29.2406  -24.5332   21.3600 H   0  0  0  0  0  0
  -30.0987  -18.3775   21.6134 H   0  0  0  0  0  0
  1 25  1  0  0  0
  1 30  2  0  0  0
  1 80  1  0  0  0
  2  3  1  0  0  0
  2 25  1  0  0  0
  2 82  1  0  0  0
  2 83  1  0  0  0
  3  4  1  0  0  0
  3 84  1  0  0  0
  3 85  1  0  0  0
  4  5  1  0  0  0
  4 86  1  0  0  0
  4 87  1  0  0  0
  5  6  1  0  0  0
  5 26  1  0  0  0
  5 88  1  0  0  0
  6 25  1  0  0  0
  6 89  1  0  0  0
  6 90  1  0  0  0
  7  8  2  0  0  0
  7 26  1  0  0  0
  7 29  1  0  0  0
  8  9  1  0  0  0
  8 22  1  0  0  0
  9 10  1  0  0  0
  9 27  2  0  0  0
 10 11  2  0  0  0
 10 15  1  0  0  0
 11 12  1  0  0  0
 11 91  1  0  0  0
 12 13  2  0  0  0
 12 92  1  0  0  0
 13 14  1  0  0  0
 13 31  1  0  0  0
 14 15  2  0  0  0
 14 93  1  0  0  0
 15 94  1  0  0  0
 16 17  2  0  0  0
 16 21  1  0  0  0
 16 31  1  0  0  0
 17 18  1  0  0  0
 17 95  1  0  0  0
 18 19  2  0  0  0
 18 96  1  0  0  0
 19 20  1  0  0  0
 19 24  1  0  0  0
 20 21  2  0  0  0
 20 97  1  0  0  0
 21 23  1  0  0  0
 22 28  1  0  0  0
 22 32  2  0  0  0
 26 27  1  0  0  0
 28 98  1  0  0  0
 28 99  1  0  0  0
 29100  1  0  0  0
 29101  1  0  0  0
 33 34  1  0  0  0
 33 66  1  0  0  0
 33 70  2  0  0  0
 34 36  1  0  0  0
 34 59  1  0  0  0
 34102  1  0  0  0
 35 44  2  0  0  0
 35 45  1  0  0  0
 35 68  1  0  0  0
 36 56  1  0  0  0
 36103  1  0  0  0
 37 39  1  0  0  0
 37 47  1  0  0  0
 37 66  1  0  0  0
 37104  1  0  0  0
 38 43  2  0  0  0
 38 46  1  0  0  0
 38 47  1  0  0  0
 39 64  1  0  0  0
 39 67  2  0  0  0
 40 52  1  0  0  0
 40 53  2  0  0  0
 40 58  1  0  0  0
 41105  1  0  0  0
 41106  1  0  0  0
 41107  1  0  0  0
 41 48  1  0  0  0
 42 43  1  0  0  0
 42 66  1  0  0  0
 42108  1  0  0  0
 42109  1  0  0  0
 43 44  1  0  0  0
 44110  1  0  0  0
 45 46  2  0  0  0
 45111  1  0  0  0
 46112  1  0  0  0
 47113  1  0  0  0
 47114  1  0  0  0
 48 56  1  0  0  0
 48 65  1  0  0  0
 48115  1  0  0  0
 49 50  1  0  0  0
 49 53  1  0  0  0
 49 64  1  0  0  0
 49116  1  0  0  0
 50 51  1  0  0  0
 50117  1  0  0  0
 50118  1  0  0  0
 51 52  1  0  0  0
 51119  1  0  0  0
 51120  1  0  0  0
 52121  1  0  0  0
 52122  1  0  0  0
 53 54  1  0  0  0
 54 55  2  0  0  0
 54123  1  0  0  0
 55 57  1  0  0  0
 55124  1  0  0  0
 56 69  2  0  0  0
 57 58  2  0  0  0
 57125  1  0  0  0
 58126  1  0  0  0
 59 60  1  0  0  0
 59 61  1  0  0  0
 59 62  1  0  0  0
 60127  1  0  0  0
 60128  1  0  0  0
 60129  1  0  0  0
 61130  1  0  0  0
 61131  1  0  0  0
 61132  1  0  0  0
 62133  1  0  0  0
 62134  1  0  0  0
 62135  1  0  0  0
 63 65  1  0  0  0
 63136  1  0  0  0
 63137  1  0  0  0
 63138  1  0  0  0
 64139  1  0  0  0
 65140  1  0  0  0
 68 79  1  0  0  0
 71141  1  0  0  0
 71142  1  0  0  0
 71143  1  0  0  0
 71 78  1  0  0  0
 72144  1  0  0  0
 72145  1  0  0  0
 72146  1  0  0  0
 72 79  1  0  0  0
 73147  1  0  0  0
 73148  1  0  0  0
 73149  1  0  0  0
 73 80  1  0  0  0
 74 80  1  0  0  0
 74150  1  0  0  0
 74151  1  0  0  0
 74152  1  0  0  0
 75153  1  0  0  0
 75154  1  0  0  0
 75155  1  0  0  0
 75 81  1  0  0  0
 76 78  1  0  0  0
 76 79  1  0  0  0
 76156  1  0  0  0
 76157  1  0  0  0
 77 78  1  0  0  0
 77 81  1  0  0  0
 77158  1  0  0  0
 77159  1  0  0  0
 78160  1  0  0  0
 79161  1  0  0  0
 80 81  1  0  0  0
 81162  1  0  0  0
M  CHG  1  81   1
M  ISO  4   1 100  68 101  79 101  80 100
M  END
> <chiral flag>
0

> <version>
0

> <s_m_source_file>
/data/baiqing/PycharmProjects/Reinvent-master-3.2/result/LINK_invent/BTK/process_docking_weight1_custom_sum_contain_oxygen_bond_distance_aromatic_linkinvent_7_9_3/rearranged_h_0107.sdf

> <i_m_source_file_index>
64

> <r_mmod_Potential_Energy-OPLS-2005>
1132.75695800781

> <r_mmod_Stretch_Energy-OPLS-2005>
557.521484375

> <r_mmod_Bend_Energy-OPLS-2005>
442.910064697266

> <r_mmod_Torsional_Energy-OPLS-2005>
269.331573486328

> <r_mmod_Improper_Torsional_Energy-OPLS-2005>
5.95675945281982

> <r_mmod_Van_der_Waal_Energy-OPLS-2005>
108.342468261719

> <r_mmod_Electrostatic_Energy-OPLS-2005>
-218.375930786133

> <r_mmod_Solvation_Energy-OPLS-2005>
-409.995422363281

> <b_mmod_Minimization_Converged-OPLS-2005>
0

> <r_mmod_RMS_Derivative-OPLS-2005>
3.88238191604614

$$$$
66
                    3D
 Structure written by MMmdl.
146153  0  0  1  0            999 V2000
  -30.1589  -16.0082   20.3092 C   0  0  0  0  0  0
  -30.3921  -13.3731   19.5221 C   0  0  0  0  0  0
  -29.5601  -12.7514   18.3519 C   0  0  0  0  0  0
  -28.1669  -12.3118   18.8198 C   0  0  0  0  0  0
  -27.5828  -13.3440   19.8038 C   0  0  2  0  0  0
  -28.5772  -13.8385   20.8899 C   0  0  0  0  0  0
  -25.2274  -13.8330   20.5856 C   0  0  0  0  0  0
  -24.1698  -13.0433   20.9316 C   0  0  0  0  0  0
  -24.6448  -11.6960   20.8762 C   0  0  0  0  0  0
  -23.9153  -10.4294   21.0384 C   0  0  0  0  0  0
  -24.3674   -9.4205   21.9172 C   0  0  0  0  0  0
  -23.6325   -8.2251   22.0751 C   0  0  0  0  0  0
  -22.4306   -8.0293   21.3545 C   0  0  0  0  0  0
  -21.9959   -9.0270   20.4642 C   0  0  0  0  0  0
  -22.7313  -10.2136   20.3042 C   0  0  0  0  0  0
  -21.6862   -6.0747   22.5280 C   0  0  0  0  0  0
  -21.4019   -6.5645   23.8213 C   0  0  0  0  0  0
  -21.3660   -5.6796   24.9175 C   0  0  0  0  0  0
  -21.6044   -4.3059   24.7223 C   0  0  0  0  0  0
  -21.8819   -3.8153   23.4344 C   0  0  0  0  0  0
  -21.9196   -4.6972   22.3402 C   0  0  0  0  0  0
  -22.7698  -13.5137   21.1937 C   0  0  0  0  0  0
  -22.1664   -4.2158   21.0980 F   0  0  0  0  0  0
  -21.5627   -3.4540   25.7734 F   0  0  0  0  0  0
  -29.6753  -14.5834   20.1938 N   0  0  0  0  0  0
  -26.2762  -12.9731   20.3287 N   0  0  0  0  0  0
  -25.9408  -11.6760   20.5677 N   0  0  0  0  0  0
  -22.0369  -12.8103   22.0483 N   0  0  0  0  0  0
  -25.3813  -15.2079   20.4308 N   0  0  0  0  0  0
  -31.4066  -15.8731   20.2795 O   0  0  0  0  0  0
  -21.6655   -6.8897   21.4246 O   0  0  0  0  0  0
  -22.3363  -14.5432   20.6771 O   0  0  0  0  0  0
  -24.7090  -31.7701   23.1306 C   0  0  0  0  0  0
  -25.9547  -32.4318   23.7948 C   0  0  1  0  0  0
  -27.2343  -26.4362   20.2519 C   0  0  0  0  0  0
  -25.6021  -33.8157   24.1811 N   0  0  0  0  0  0
  -23.5465  -30.3607   21.4919 C   0  0  2  0  0  0
  -25.0043  -28.6419   20.1360 C   0  0  0  0  0  0
  -22.7873  -29.4165   22.4656 C   0  0  0  0  0  0
  -18.0353  -28.1437   22.8440 C   0  0  0  0  0  0
  -24.1499  -36.7082   23.2662 C   0  0  0  0  0  0
  -26.1380  -30.4161   21.4343 C   0  0  0  0  0  0
  -26.2004  -28.9492   20.7947 C   0  0  0  0  0  0
  -27.2906  -27.8865   20.8050 C   0  0  0  0  0  0
  -25.9991  -26.4046   19.5352 C   0  0  0  0  0  0
  -24.9582  -27.3974   19.4808 C   0  0  0  0  0  0
  -23.8151  -29.6312   20.1408 C   0  0  0  0  0  0
  -25.4161  -36.2808   24.0264 C   0  0  1  0  0  0
  -20.5999  -28.3811   23.1092 C   0  0  2  0  0  0
  -20.6805  -26.9447   22.5404 C   0  0  0  0  0  0
  -19.5786  -26.6367   21.5215 C   0  0  0  0  0  0
  -18.1970  -26.7957   22.1614 C   0  0  0  0  0  0
  -19.1625  -28.8954   23.2737 C   0  0  0  0  0  0
  -18.9524  -30.1530   23.8796 C   0  0  0  0  0  0
  -17.6511  -30.6612   24.0546 C   0  0  0  0  0  0
  -25.9156  -34.9204   23.4892 C   0  0  0  0  0  0
  -16.5401  -29.9087   23.6359 C   0  0  0  0  0  0
  -16.7330  -28.6513   23.0371 C   0  0  0  0  0  0
  -26.4645  -31.6455   25.0673 C   0  0  0  0  0  0
  -25.3645  -31.3835   26.1241 C   0  0  0  0  0  0
  -27.0627  -30.2768   24.6761 C   0  0  0  0  0  0
  -27.6042  -32.4377   25.7511 C   0  0  0  0  0  0
  -27.5554  -37.1704   24.8473 C   0  0  0  0  0  0
  -21.4500  -29.3006   22.3386 N   0  0  0  0  0  0
  -26.4270  -37.3593   23.9400 N   0  0  0  0  0  0
  -24.8246  -30.8884   22.0708 N   0  0  0  0  0  0
  -23.4188  -28.7812   23.3128 O   0  0  0  0  0  0
  -28.1945  -25.1194   20.2228 O   0  0  0  0  0  0
  -26.5828  -34.8832   22.4533 O   0  0  0  0  0  0
  -23.6054  -32.0902   23.6090 O   0  0  0  0  0  0
  -29.3282  -21.4235   18.6201 C   0  0  0  0  0  0
  -29.1772  -19.4213   22.1093 C   0  0  0  0  0  0
  -28.2208  -23.2443   20.5359 C   0  0  0  0  0  0
  -28.6911  -21.2540   20.0019 C   0  0  2  0  0  0
  -29.4036  -19.3635   20.5949 C   0  0  1  0  0  0
  -29.4094  -17.4770   20.2802 N   0  0  0  0  0  0
  -31.3456  -13.7023   19.1078 H   0  0  0  0  0  0
  -30.6604  -12.6100   20.2552 H   0  0  0  0  0  0
  -30.0922  -11.9102   17.9058 H   0  0  0  0  0  0
  -29.4529  -13.4979   17.5637 H   0  0  0  0  0  0
  -28.2645  -11.3487   19.3219 H   0  0  0  0  0  0
  -27.5015  -12.1543   17.9700 H   0  0  0  0  0  0
  -27.3914  -14.2109   19.1692 H   0  0  0  0  0  0
  -28.9316  -13.0239   21.5232 H   0  0  0  0  0  0
  -28.0737  -14.5372   21.5594 H   0  0  0  0  0  0
  -25.2809   -9.5678   22.4761 H   0  0  0  0  0  0
  -24.0022   -7.4645   22.7479 H   0  0  0  0  0  0
  -21.0886   -8.8802   19.8947 H   0  0  0  0  0  0
  -22.3769  -10.9679   19.6154 H   0  0  0  0  0  0
  -21.2014   -7.6153   23.9720 H   0  0  0  0  0  0
  -21.1480   -6.0525   25.9078 H   0  0  0  0  0  0
  -22.0596   -2.7615   23.2843 H   0  0  0  0  0  0
  -22.4023  -11.9788   22.4887 H   0  0  0  0  0  0
  -21.0968  -13.1080   22.2672 H   0  0  0  0  0  0
  -24.6093  -15.8547   20.5504 H   0  0  0  0  0  0
  -26.2260  -15.6542   20.0998 H   0  0  0  0  0  0
  -26.7655  -32.4729   23.0675 H   0  0  0  0  0  0
  -25.0039  -33.9153   24.9881 H   0  0  0  0  0  0
  -22.8873  -31.2046   21.2779 H   0  0  0  0  0  0
  -23.3780  -35.9393   23.3282 H   0  0  0  0  0  0
  -24.3546  -36.8798   22.2083 H   0  0  0  0  0  0
  -23.7249  -37.6238   23.6784 H   0  0  0  0  0  0
  -26.3663  -31.1204   20.6336 H   0  0  0  0  0  0
  -26.9799  -30.4963   22.1089 H   0  0  0  0  0  0
  -28.1962  -28.1485   21.3342 H   0  0  0  0  0  0
  -25.7920  -25.4852   19.0061 H   0  0  0  0  0  0
  -24.0647  -27.1476   18.9248 H   0  0  0  0  0  0
  -24.0150  -30.3778   19.3713 H   0  0  0  0  0  0
  -22.9141  -29.1116   19.8105 H   0  0  0  0  0  0
  -25.1386  -36.1540   25.0753 H   0  0  0  0  0  0
  -21.0068  -28.3458   24.1224 H   0  0  0  0  0  0
  -20.5641  -26.2447   23.3690 H   0  0  0  0  0  0
  -21.6664  -26.7347   22.1242 H   0  0  0  0  0  0
  -19.6938  -25.6253   21.1308 H   0  0  0  0  0  0
  -19.6732  -27.3125   20.6703 H   0  0  0  0  0  0
  -17.4237  -26.6697   21.4021 H   0  0  0  0  0  0
  -18.0355  -26.0124   22.9033 H   0  0  0  0  0  0
  -19.8001  -30.7372   24.2120 H   0  0  0  0  0  0
  -17.5061  -31.6280   24.5172 H   0  0  0  0  0  0
  -15.5397  -30.2956   23.7743 H   0  0  0  0  0  0
  -15.8730  -28.0799   22.7141 H   0  0  0  0  0  0
  -24.5881  -30.7136   25.7529 H   0  0  0  0  0  0
  -24.8784  -32.3074   26.4384 H   0  0  0  0  0  0
  -25.7770  -30.9182   27.0202 H   0  0  0  0  0  0
  -26.3401  -29.6296   24.1783 H   0  0  0  0  0  0
  -27.3985  -29.7320   25.5594 H   0  0  0  0  0  0
  -27.9400  -30.3840   24.0382 H   0  0  0  0  0  0
  -27.2543  -33.3767   26.1814 H   0  0  0  0  0  0
  -28.3992  -32.6797   25.0444 H   0  0  0  0  0  0
  -28.0563  -31.8697   26.5653 H   0  0  0  0  0  0
  -28.2548  -38.0018   24.7486 H   0  0  0  0  0  0
  -28.1072  -36.2532   24.6349 H   0  0  0  0  0  0
  -27.2256  -37.1392   25.8873 H   0  0  0  0  0  0
  -20.9873  -29.8609   21.6364 H   0  0  0  0  0  0
  -26.0075  -38.2636   24.1393 H   0  0  0  0  0  0
  -29.3015  -20.4909   18.0553 H   0  0  0  0  0  0
  -30.3699  -21.7328   18.7089 H   0  0  0  0  0  0
  -28.8038  -22.1796   18.0352 H   0  0  0  0  0  0
  -29.7770  -18.6770   22.6340 H   0  0  0  0  0  0
  -28.1299  -19.2445   22.3560 H   0  0  0  0  0  0
  -29.4493  -20.3986   22.5092 H   0  0  0  0  0  0
  -28.7236  -23.2794   21.5026 H   0  0  0  0  0  0
  -27.1749  -23.1207   20.8177 H   0  0  0  0  0  0
  -27.6674  -20.9438   19.7887 H   0  0  0  0  0  0
  -30.4740  -19.5318   20.4700 H   0  0  0  0  0  0
  -28.4452  -17.2342   20.0950 H   0  0  0  0  0  0
  1 25  1  0  0  0
  1 30  2  0  0  0
  1 76  1  0  0  0
  2  3  1  0  0  0
  2 25  1  0  0  0
  2 77  1  0  0  0
  2 78  1  0  0  0
  3  4  1  0  0  0
  3 79  1  0  0  0
  3 80  1  0  0  0
  4  5  1  0  0  0
  4 81  1  0  0  0
  4 82  1  0  0  0
  5  6  1  0  0  0
  5 26  1  0  0  0
  5 83  1  0  0  0
  6 25  1  0  0  0
  6 84  1  0  0  0
  6 85  1  0  0  0
  7  8  2  0  0  0
  7 26  1  0  0  0
  7 29  1  0  0  0
  8  9  1  0  0  0
  8 22  1  0  0  0
  9 10  1  0  0  0
  9 27  2  0  0  0
 10 11  2  0  0  0
 10 15  1  0  0  0
 11 12  1  0  0  0
 11 86  1  0  0  0
 12 13  2  0  0  0
 12 87  1  0  0  0
 13 14  1  0  0  0
 13 31  1  0  0  0
 14 15  2  0  0  0
 14 88  1  0  0  0
 15 89  1  0  0  0
 16 17  2  0  0  0
 16 21  1  0  0  0
 16 31  1  0  0  0
 17 18  1  0  0  0
 17 90  1  0  0  0
 18 19  2  0  0  0
 18 91  1  0  0  0
 19 20  1  0  0  0
 19 24  1  0  0  0
 20 21  2  0  0  0
 20 92  1  0  0  0
 21 23  1  0  0  0
 22 28  1  0  0  0
 22 32  2  0  0  0
 26 27  1  0  0  0
 28 93  1  0  0  0
 28 94  1  0  0  0
 29 95  1  0  0  0
 29 96  1  0  0  0
 33 34  1  0  0  0
 33 66  1  0  0  0
 33 70  2  0  0  0
 34 36  1  0  0  0
 34 59  1  0  0  0
 34 97  1  0  0  0
 35 44  2  0  0  0
 35 45  1  0  0  0
 35 68  1  0  0  0
 36 56  1  0  0  0
 36 98  1  0  0  0
 37 39  1  0  0  0
 37 47  1  0  0  0
 37 66  1  0  0  0
 37 99  1  0  0  0
 38 43  2  0  0  0
 38 46  1  0  0  0
 38 47  1  0  0  0
 39 64  1  0  0  0
 39 67  2  0  0  0
 40 52  1  0  0  0
 40 53  2  0  0  0
 40 58  1  0  0  0
 41100  1  0  0  0
 41101  1  0  0  0
 41102  1  0  0  0
 41 48  1  0  0  0
 42 43  1  0  0  0
 42 66  1  0  0  0
 42103  1  0  0  0
 42104  1  0  0  0
 43 44  1  0  0  0
 44105  1  0  0  0
 45 46  2  0  0  0
 45106  1  0  0  0
 46107  1  0  0  0
 47108  1  0  0  0
 47109  1  0  0  0
 48 56  1  0  0  0
 48 65  1  0  0  0
 48110  1  0  0  0
 49 50  1  0  0  0
 49 53  1  0  0  0
 49 64  1  0  0  0
 49111  1  0  0  0
 50 51  1  0  0  0
 50112  1  0  0  0
 50113  1  0  0  0
 51 52  1  0  0  0
 51114  1  0  0  0
 51115  1  0  0  0
 52116  1  0  0  0
 52117  1  0  0  0
 53 54  1  0  0  0
 54 55  2  0  0  0
 54118  1  0  0  0
 55 57  1  0  0  0
 55119  1  0  0  0
 56 69  2  0  0  0
 57 58  2  0  0  0
 57120  1  0  0  0
 58121  1  0  0  0
 59 60  1  0  0  0
 59 61  1  0  0  0
 59 62  1  0  0  0
 60122  1  0  0  0
 60123  1  0  0  0
 60124  1  0  0  0
 61125  1  0  0  0
 61126  1  0  0  0
 61127  1  0  0  0
 62128  1  0  0  0
 62129  1  0  0  0
 62130  1  0  0  0
 63 65  1  0  0  0
 63131  1  0  0  0
 63132  1  0  0  0
 63133  1  0  0  0
 64134  1  0  0  0
 65135  1  0  0  0
 68 73  1  0  0  0
 71136  1  0  0  0
 71137  1  0  0  0
 71138  1  0  0  0
 71 74  1  0  0  0
 72139  1  0  0  0
 72140  1  0  0  0
 72141  1  0  0  0
 72 75  1  0  0  0
 73 74  1  0  0  0
 73142  1  0  0  0
 73143  1  0  0  0
 74 75  1  0  0  0
 74144  1  0  0  0
 75 76  1  0  0  0
 75145  1  0  0  0
 76146  1  0  0  0
M  ISO  4   1 100  68 101  73 101  76 100
M  END
> <chiral flag>
0

> <version>
0

> <s_m_source_file>
/data/baiqing/PycharmProjects/Reinvent-master-3.2/result/LINK_invent/BTK/process_docking_weight1_custom_sum_contain_oxygen_bond_distance_aromatic_linkinvent_7_9_3/rearranged_h_0107.sdf

> <i_m_source_file_index>
65

> <r_mmod_Potential_Energy-OPLS-2005>
4202.91796875

> <r_mmod_Stretch_Energy-OPLS-2005>
1936.40075683594

> <r_mmod_Bend_Energy-OPLS-2005>
906.09423828125

> <r_mmod_Torsional_Energy-OPLS-2005>
263.818481445312

> <r_mmod_Improper_Torsional_Energy-OPLS-2005>
4.84743976593018

> <r_mmod_Van_der_Waal_Energy-OPLS-2005>
109.840316772461

> <r_mmod_Electrostatic_Energy-OPLS-2005>
-346.356811523438

> <r_mmod_Solvation_Energy-OPLS-2005>
-214.001419067383

> <b_mmod_Minimization_Converged-OPLS-2005>
0

> <r_mmod_RMS_Derivative-OPLS-2005>
0.621893286705017

$$$$
67
                    3D
 Structure written by MMmdl.
157165  0  0  1  0            999 V2000
  -30.3855  -15.3848   20.3278 C   0  0  0  0  0  0
  -30.4206  -12.8815   19.5179 C   0  0  0  0  0  0
  -29.5282  -12.5882   18.2845 C   0  0  0  0  0  0
  -28.0817  -12.2994   18.7167 C   0  0  0  0  0  0
  -27.5989  -13.2812   19.8110 C   0  0  2  0  0  0
  -28.6266  -13.5117   20.9341 C   0  0  0  0  0  0
  -25.2379  -13.8232   20.5805 C   0  0  0  0  0  0
  -24.1718  -13.0429   20.9265 C   0  0  0  0  0  0
  -24.6376  -11.6903   20.8738 C   0  0  0  0  0  0
  -23.9057  -10.4288   21.0408 C   0  0  0  0  0  0
  -24.3592   -9.4233   21.9218 C   0  0  0  0  0  0
  -23.6282   -8.2247   22.0766 C   0  0  0  0  0  0
  -22.4249   -8.0286   21.3556 C   0  0  0  0  0  0
  -21.9910   -9.0242   20.4632 C   0  0  0  0  0  0
  -22.7223  -10.2134   20.3080 C   0  0  0  0  0  0
  -21.6847   -6.0755   22.5285 C   0  0  0  0  0  0
  -21.3988   -6.5658   23.8212 C   0  0  0  0  0  0
  -21.3639   -5.6803   24.9170 C   0  0  0  0  0  0
  -21.6038   -4.3068   24.7208 C   0  0  0  0  0  0
  -21.8835   -3.8172   23.4334 C   0  0  0  0  0  0
  -21.9203   -4.6998   22.3399 C   0  0  0  0  0  0
  -22.7756  -13.5157   21.1918 C   0  0  0  0  0  0
  -22.1710   -4.2194   21.0970 F   0  0  0  0  0  0
  -21.5614   -3.4578   25.7719 F   0  0  0  0  0  0
  -29.8377  -14.0547   20.2872 N   0  0  0  0  0  0
  -26.2771  -12.9506   20.3200 N   0  0  0  0  0  0
  -25.9311  -11.6592   20.5676 N   0  0  0  0  0  0
  -22.0434  -12.8105   22.0413 N   0  0  0  0  0  0
  -25.4100  -15.1962   20.4326 N   0  0  0  0  0  0
  -31.6159  -15.3582   20.1696 O   0  0  0  0  0  0
  -21.6619   -6.8885   21.4258 O   0  0  0  0  0  0
  -22.3477  -14.5534   20.6845 O   0  0  0  0  0  0
  -24.6734  -31.8126   23.1612 C   0  0  0  0  0  0
  -25.9391  -32.4506   23.8087 C   0  0  1  0  0  0
  -27.2311  -26.8290   20.1877 C   0  0  0  0  0  0
  -25.6046  -33.8316   24.2020 N   0  0  0  0  0  0
  -23.4914  -30.4219   21.5078 C   0  0  2  0  0  0
  -24.9526  -28.7890   20.1022 C   0  0  0  0  0  0
  -22.7697  -29.4410   22.4703 C   0  0  0  0  0  0
  -18.0358  -28.1458   22.8491 C   0  0  0  0  0  0
  -24.1475  -36.7077   23.2653 C   0  0  0  0  0  0
  -26.0659  -30.5791   21.4130 C   0  0  0  0  0  0
  -26.1307  -29.1622   20.7575 C   0  0  0  0  0  0
  -27.2531  -28.2008   20.7833 C   0  0  0  0  0  0
  -26.0271  -26.6413   19.4651 C   0  0  0  0  0  0
  -24.9327  -27.5513   19.4368 C   0  0  0  0  0  0
  -23.7402  -29.7268   20.1374 C   0  0  0  0  0  0
  -25.4132  -36.2884   24.0300 C   0  0  1  0  0  0
  -20.5980  -28.3815   23.1151 C   0  0  2  0  0  0
  -20.6811  -26.9481   22.5409 C   0  0  0  0  0  0
  -19.5767  -26.6424   21.5228 C   0  0  0  0  0  0
  -18.1953  -26.8004   22.1635 C   0  0  0  0  0  0
  -19.1622  -28.8956   23.2811 C   0  0  0  0  0  0
  -18.9546  -30.1550   23.8851 C   0  0  0  0  0  0
  -17.6541  -30.6648   24.0586 C   0  0  0  0  0  0
  -25.9133  -34.9289   23.4982 C   0  0  0  0  0  0
  -16.5418  -29.9132   23.6370 C   0  0  0  0  0  0
  -16.7334  -28.6558   23.0394 C   0  0  0  0  0  0
  -26.4626  -31.6475   25.0637 C   0  0  0  0  0  0
  -25.3741  -31.3721   26.1277 C   0  0  0  0  0  0
  -27.0598  -30.2856   24.6453 C   0  0  0  0  0  0
  -27.6129  -32.4321   25.7421 C   0  0  0  0  0  0
  -27.5549  -37.1695   24.8500 C   0  0  0  0  0  0
  -21.4354  -29.3060   22.3437 N   0  0  0  0  0  0
  -26.4248  -37.3664   23.9449 N   0  0  0  0  0  0
  -24.7647  -30.9692   22.0792 N   0  0  0  0  0  0
  -23.4198  -28.8018   23.3009 O   0  0  0  0  0  0
  -28.1943  -25.6643   20.3602 O   0  0  0  0  0  0
  -26.5735  -34.8865   22.4576 O   0  0  0  0  0  0
  -23.5782  -32.1171   23.6639 O   0  0  0  0  0  0
  -27.8261  -20.3563   20.8935 C   0  0  0  0  0  0
  -29.3913  -21.3820   19.9099 C   0  0  0  0  0  0
  -29.0962  -19.9861   20.3050 C   0  0  0  0  0  0
  -27.4996  -21.7347   20.8969 C   0  0  0  0  0  0
  -26.6415  -21.2916   23.8321 C   0  0  0  0  0  0
  -25.1518  -22.5758   20.4190 C   0  0  0  0  0  0
  -29.9421  -18.3668   20.2066 C   0  0  0  0  0  0
  -25.6533  -21.6719   22.7147 C   0  0  0  0  0  0
  -28.2238  -24.1710   19.6447 C   0  0  0  0  0  0
  -26.2597  -22.3842   21.4740 C   0  0  1  0  0  0
  -28.4375  -22.5391   20.2038 N   0  0  0  0  0  0
  -29.6234  -16.6936   20.3407 N   0  0  0  0  0  0
  -31.4413  -13.0863   19.1842 H   0  0  0  0  0  0
  -30.4925  -11.9973   20.1499 H   0  0  0  0  0  0
  -29.9125  -11.7463   17.7069 H   0  0  0  0  0  0
  -29.5467  -13.4506   17.6137 H   0  0  0  0  0  0
  -28.0418  -11.2786   19.0945 H   0  0  0  0  0  0
  -27.4097  -12.3418   17.8568 H   0  0  0  0  0  0
  -27.4858  -14.2320   19.2828 H   0  0  0  0  0  0
  -28.8105  -12.5919   21.4919 H   0  0  0  0  0  0
  -28.2402  -14.2389   21.6522 H   0  0  0  0  0  0
  -25.2747   -9.5728   22.4785 H   0  0  0  0  0  0
  -24.0034   -7.4633   22.7474 H   0  0  0  0  0  0
  -21.0901   -8.8743   19.8876 H   0  0  0  0  0  0
  -22.3724  -10.9678   19.6186 H   0  0  0  0  0  0
  -21.1969   -7.6182   23.9706 H   0  0  0  0  0  0
  -21.1432   -6.0554   25.9075 H   0  0  0  0  0  0
  -22.0624   -2.7645   23.2795 H   0  0  0  0  0  0
  -22.4109  -11.9742   22.4732 H   0  0  0  0  0  0
  -21.1081  -13.1115   22.2666 H   0  0  0  0  0  0
  -24.6489  -15.8527   20.5573 H   0  0  0  0  0  0
  -26.2394  -15.6295   20.0511 H   0  0  0  0  0  0
  -26.7432  -32.5037   23.0755 H   0  0  0  0  0  0
  -25.0193  -33.9360   25.0178 H   0  0  0  0  0  0
  -22.8123  -31.2596   21.3259 H   0  0  0  0  0  0
  -23.3804  -35.9341   23.3298 H   0  0  0  0  0  0
  -24.3528  -36.8742   22.2068 H   0  0  0  0  0  0
  -23.7181  -37.6225   23.6734 H   0  0  0  0  0  0
  -26.2686  -31.3157   20.6347 H   0  0  0  0  0  0
  -26.9165  -30.6381   22.0794 H   0  0  0  0  0  0
  -28.1259  -28.4780   21.3573 H   0  0  0  0  0  0
  -25.8744  -25.6969   18.9686 H   0  0  0  0  0  0
  -24.0432  -27.2590   18.8956 H   0  0  0  0  0  0
  -23.8996  -30.4910   19.3760 H   0  0  0  0  0  0
  -22.8494  -29.1823   19.8201 H   0  0  0  0  0  0
  -25.1337  -36.1618   25.0792 H   0  0  0  0  0  0
  -21.0114  -28.3474   24.1251 H   0  0  0  0  0  0
  -20.5686  -26.2456   23.3665 H   0  0  0  0  0  0
  -21.6670  -26.7413   22.1234 H   0  0  0  0  0  0
  -19.6918  -25.6320   21.1287 H   0  0  0  0  0  0
  -19.6708  -27.3213   20.6719 H   0  0  0  0  0  0
  -17.4230  -26.6814   21.4025 H   0  0  0  0  0  0
  -18.0315  -26.0142   22.9014 H   0  0  0  0  0  0
  -19.8016  -30.7399   24.2166 H   0  0  0  0  0  0
  -17.5091  -31.6321   24.5216 H   0  0  0  0  0  0
  -15.5426  -30.3044   23.7694 H   0  0  0  0  0  0
  -15.8741  -28.0857   22.7130 H   0  0  0  0  0  0
  -24.6015  -30.6964   25.7577 H   0  0  0  0  0  0
  -24.8822  -32.2899   26.4500 H   0  0  0  0  0  0
  -25.7983  -30.9044   27.0169 H   0  0  0  0  0  0
  -26.3338  -29.6484   24.1390 H   0  0  0  0  0  0
  -27.4059  -29.7256   25.5148 H   0  0  0  0  0  0
  -27.9283  -30.4056   23.9975 H   0  0  0  0  0  0
  -27.2749  -33.3745   26.1734 H   0  0  0  0  0  0
  -28.4038  -32.6662   25.0283 H   0  0  0  0  0  0
  -28.0666  -31.8604   26.5522 H   0  0  0  0  0  0
  -28.2551  -37.9998   24.7563 H   0  0  0  0  0  0
  -28.1060  -36.2539   24.6325 H   0  0  0  0  0  0
  -27.2259  -37.1314   25.8895 H   0  0  0  0  0  0
  -20.9641  -29.8702   21.6512 H   0  0  0  0  0  0
  -26.0065  -38.2691   24.1546 H   0  0  0  0  0  0
  -27.1587  -19.6190   21.3254 H   0  0  0  0  0  0
  -30.2740  -21.6766   19.3586 H   0  0  0  0  0  0
  -26.1133  -21.0283   24.7510 H   0  0  0  0  0  0
  -27.3285  -22.1030   24.0718 H   0  0  0  0  0  0
  -27.2285  -20.4173   23.5545 H   0  0  0  0  0  0
  -25.4437  -23.2614   19.6259 H   0  0  0  0  0  0
  -24.2518  -22.9978   20.8706 H   0  0  0  0  0  0
  -24.8722  -21.6320   19.9538 H   0  0  0  0  0  0
  -30.7345  -18.4860   20.9430 H   0  0  0  0  0  0
  -30.4831  -18.4210   19.2590 H   0  0  0  0  0  0
  -24.8843  -22.3132   23.1484 H   0  0  0  0  0  0
  -25.1318  -20.7670   22.3930 H   0  0  0  0  0  0
  -27.3439  -24.1255   19.0089 H   0  0  0  0  0  0
  -29.0349  -24.2975   18.9232 H   0  0  0  0  0  0
  -26.5465  -23.3843   21.8133 H   0  0  0  0  0  0
  -28.6294  -16.5195   20.3576 H   0  0  0  0  0  0
  1 25  1  0  0  0
  1 30  2  0  0  0
  1 82  1  0  0  0
  2  3  1  0  0  0
  2 25  1  0  0  0
  2 83  1  0  0  0
  2 84  1  0  0  0
  3  4  1  0  0  0
  3 85  1  0  0  0
  3 86  1  0  0  0
  4  5  1  0  0  0
  4 87  1  0  0  0
  4 88  1  0  0  0
  5  6  1  0  0  0
  5 26  1  0  0  0
  5 89  1  0  0  0
  6 25  1  0  0  0
  6 90  1  0  0  0
  6 91  1  0  0  0
  7  8  2  0  0  0
  7 26  1  0  0  0
  7 29  1  0  0  0
  8  9  1  0  0  0
  8 22  1  0  0  0
  9 10  1  0  0  0
  9 27  2  0  0  0
 10 11  2  0  0  0
 10 15  1  0  0  0
 11 12  1  0  0  0
 11 92  1  0  0  0
 12 13  2  0  0  0
 12 93  1  0  0  0
 13 14  1  0  0  0
 13 31  1  0  0  0
 14 15  2  0  0  0
 14 94  1  0  0  0
 15 95  1  0  0  0
 16 17  2  0  0  0
 16 21  1  0  0  0
 16 31  1  0  0  0
 17 18  1  0  0  0
 17 96  1  0  0  0
 18 19  2  0  0  0
 18 97  1  0  0  0
 19 20  1  0  0  0
 19 24  1  0  0  0
 20 21  2  0  0  0
 20 98  1  0  0  0
 21 23  1  0  0  0
 22 28  1  0  0  0
 22 32  2  0  0  0
 26 27  1  0  0  0
 28 99  1  0  0  0
 28100  1  0  0  0
 29101  1  0  0  0
 29102  1  0  0  0
 33 34  1  0  0  0
 33 66  1  0  0  0
 33 70  2  0  0  0
 34 36  1  0  0  0
 34 59  1  0  0  0
 34103  1  0  0  0
 35 44  2  0  0  0
 35 45  1  0  0  0
 35 68  1  0  0  0
 36 56  1  0  0  0
 36104  1  0  0  0
 37 39  1  0  0  0
 37 47  1  0  0  0
 37 66  1  0  0  0
 37105  1  0  0  0
 38 43  2  0  0  0
 38 46  1  0  0  0
 38 47  1  0  0  0
 39 64  1  0  0  0
 39 67  2  0  0  0
 40 52  1  0  0  0
 40 53  2  0  0  0
 40 58  1  0  0  0
 41106  1  0  0  0
 41107  1  0  0  0
 41108  1  0  0  0
 41 48  1  0  0  0
 42 43  1  0  0  0
 42 66  1  0  0  0
 42109  1  0  0  0
 42110  1  0  0  0
 43 44  1  0  0  0
 44111  1  0  0  0
 45 46  2  0  0  0
 45112  1  0  0  0
 46113  1  0  0  0
 47114  1  0  0  0
 47115  1  0  0  0
 48 56  1  0  0  0
 48 65  1  0  0  0
 48116  1  0  0  0
 49 50  1  0  0  0
 49 53  1  0  0  0
 49 64  1  0  0  0
 49117  1  0  0  0
 50 51  1  0  0  0
 50118  1  0  0  0
 50119  1  0  0  0
 51 52  1  0  0  0
 51120  1  0  0  0
 51121  1  0  0  0
 52122  1  0  0  0
 52123  1  0  0  0
 53 54  1  0  0  0
 54 55  2  0  0  0
 54124  1  0  0  0
 55 57  1  0  0  0
 55125  1  0  0  0
 56 69  2  0  0  0
 57 58  2  0  0  0
 57126  1  0  0  0
 58127  1  0  0  0
 59 60  1  0  0  0
 59 61  1  0  0  0
 59 62  1  0  0  0
 60128  1  0  0  0
 60129  1  0  0  0
 60130  1  0  0  0
 61131  1  0  0  0
 61132  1  0  0  0
 61133  1  0  0  0
 62134  1  0  0  0
 62135  1  0  0  0
 62136  1  0  0  0
 63 65  1  0  0  0
 63137  1  0  0  0
 63138  1  0  0  0
 63139  1  0  0  0
 64140  1  0  0  0
 65141  1  0  0  0
 68 79  1  0  0  0
 71 73  1  0  0  0
 71 74  2  0  0  0
 71142  1  0  0  0
 72 73  2  0  0  0
 72 81  1  0  0  0
 72143  1  0  0  0
 73 77  1  0  0  0
 74 80  1  0  0  0
 74 81  1  0  0  0
 75 78  1  0  0  0
 75144  1  0  0  0
 75145  1  0  0  0
 75146  1  0  0  0
 76147  1  0  0  0
 76148  1  0  0  0
 76149  1  0  0  0
 76 80  1  0  0  0
 77 82  1  0  0  0
 77150  1  0  0  0
 77151  1  0  0  0
 78 80  1  0  0  0
 78152  1  0  0  0
 78153  1  0  0  0
 79 81  1  0  0  0
 79154  1  0  0  0
 79155  1  0  0  0
 80156  1  0  0  0
 82157  1  0  0  0
M  ISO  4   1 100  68 101  79 101  82 100
M  END
> <chiral flag>
0

> <version>
0

> <s_m_source_file>
/data/baiqing/PycharmProjects/Reinvent-master-3.2/result/LINK_invent/BTK/process_docking_weight1_custom_sum_contain_oxygen_bond_distance_aromatic_linkinvent_7_9_3/rearranged_h_0107.sdf

> <i_m_source_file_index>
66

> <r_mmod_Potential_Energy-OPLS-2005>
1596.12438964844

> <r_mmod_Stretch_Energy-OPLS-2005>
732.237609863281

> <r_mmod_Bend_Energy-OPLS-2005>
534.489440917969

> <r_mmod_Torsional_Energy-OPLS-2005>
221.004364013672

> <r_mmod_Improper_Torsional_Energy-OPLS-2005>
8.17293930053711

> <r_mmod_Van_der_Waal_Energy-OPLS-2005>
105.537910461426

> <r_mmod_Electrostatic_Energy-OPLS-2005>
-402.372100830078

> <r_mmod_Solvation_Energy-OPLS-2005>
-215.289535522461

> <b_mmod_Minimization_Converged-OPLS-2005>
0

> <r_mmod_RMS_Derivative-OPLS-2005>
6.26320600509644

$$$$
68
                    3D
 Structure written by MMmdl.
167175  0  0  1  0            999 V2000
  -30.6888  -14.5390   20.5649 C   0  0  0  0  0  0
  -30.4237  -12.3494   19.4315 C   0  0  0  0  0  0
  -29.4961  -12.5059   18.2095 C   0  0  0  0  0  0
  -28.0202  -12.3523   18.6266 C   0  0  0  0  0  0
  -27.6549  -13.2131   19.8658 C   0  0  2  0  0  0
  -28.6979  -13.0379   20.9911 C   0  0  0  0  0  0
  -25.2557  -13.8166   20.5684 C   0  0  0  0  0  0
  -24.1819  -13.0435   20.9190 C   0  0  0  0  0  0
  -24.6383  -11.6906   20.8741 C   0  0  0  0  0  0
  -23.9057  -10.4291   21.0409 C   0  0  0  0  0  0
  -24.3609   -9.4209   21.9189 C   0  0  0  0  0  0
  -23.6284   -8.2245   22.0758 C   0  0  0  0  0  0
  -22.4265   -8.0283   21.3549 C   0  0  0  0  0  0
  -21.9902   -9.0259   20.4652 C   0  0  0  0  0  0
  -22.7232  -10.2137   20.3061 C   0  0  0  0  0  0
  -21.6851   -6.0735   22.5285 C   0  0  0  0  0  0
  -21.4015   -6.5638   23.8220 C   0  0  0  0  0  0
  -21.3662   -5.6791   24.9181 C   0  0  0  0  0  0
  -21.6042   -4.3052   24.7230 C   0  0  0  0  0  0
  -21.8816   -3.8147   23.4351 C   0  0  0  0  0  0
  -21.9187   -4.6963   22.3407 C   0  0  0  0  0  0
  -22.7844  -13.5239   21.1849 C   0  0  0  0  0  0
  -22.1656   -4.2147   21.0985 F   0  0  0  0  0  0
  -21.5630   -3.4538   25.7744 F   0  0  0  0  0  0
  -30.0187  -13.3580   20.4269 N   0  0  0  0  0  0
  -26.2988  -12.9348   20.3325 N   0  0  0  0  0  0
  -25.9308  -11.6506   20.5753 N   0  0  0  0  0  0
  -22.0466  -12.8254   22.0407 N   0  0  0  0  0  0
  -25.4258  -15.1888   20.4115 N   0  0  0  0  0  0
  -31.8334  -14.6945   20.1327 O   0  0  0  0  0  0
  -21.6635   -6.8878   21.4246 O   0  0  0  0  0  0
  -22.3547  -14.5547   20.6690 O   0  0  0  0  0  0
  -24.6188  -31.8663   23.2098 C   0  0  0  0  0  0
  -25.9060  -32.4822   23.8405 C   0  0  1  0  0  0
  -27.2278  -27.3852   20.1108 C   0  0  0  0  0  0
  -25.5901  -33.8623   24.2334 N   0  0  0  0  0  0
  -23.4112  -30.4883   21.5506 C   0  0  2  0  0  0
  -24.8609  -28.9495   20.1183 C   0  0  0  0  0  0
  -22.7439  -29.4641   22.4979 C   0  0  0  0  0  0
  -18.0278  -28.1381   22.8495 C   0  0  0  0  0  0
  -24.1483  -36.7310   23.2638 C   0  0  0  0  0  0
  -25.9452  -30.8114   21.3771 C   0  0  0  0  0  0
  -26.0219  -29.4388   20.7329 C   0  0  0  0  0  0
  -27.2093  -28.6600   20.7391 C   0  0  0  0  0  0
  -26.0602  -26.9400   19.4623 C   0  0  0  0  0  0
  -24.8757  -27.6979   19.4819 C   0  0  0  0  0  0
  -23.6255  -29.8222   20.1658 C   0  0  0  0  0  0
  -25.4108  -36.3118   24.0335 C   0  0  1  0  0  0
  -20.5872  -28.3677   23.1304 C   0  0  2  0  0  0
  -20.6771  -26.9409   22.5415 C   0  0  0  0  0  0
  -19.5750  -26.6389   21.5215 C   0  0  0  0  0  0
  -18.1927  -26.7929   22.1624 C   0  0  0  0  0  0
  -19.1528  -28.8845   23.2892 C   0  0  0  0  0  0
  -18.9454  -30.1452   23.8908 C   0  0  0  0  0  0
  -17.6454  -30.6588   24.0566 C   0  0  0  0  0  0
  -25.9037  -34.9480   23.5131 C   0  0  0  0  0  0
  -16.5347  -29.9090   23.6329 C   0  0  0  0  0  0
  -16.7265  -28.6502   23.0356 C   0  0  0  0  0  0
  -26.4476  -31.6612   25.0746 C   0  0  0  0  0  0
  -25.3726  -31.3725   26.1482 C   0  0  0  0  0  0
  -27.0319  -30.3052   24.6150 C   0  0  0  0  0  0
  -27.6053  -32.4335   25.7499 C   0  0  0  0  0  0
  -27.5580  -37.1814   24.8467 C   0  0  0  0  0  0
  -21.4161  -29.3039   22.3706 N   0  0  0  0  0  0
  -26.4299  -37.3800   23.9406 N   0  0  0  0  0  0
  -24.6762  -31.0713   22.1034 N   0  0  0  0  0  0
  -23.4189  -28.8179   23.3034 O   0  0  0  0  0  0
  -28.3387  -26.5592   20.0399 O   0  0  0  0  0  0
  -26.5598  -34.8928   22.4698 O   0  0  0  0  0  0
  -23.5361  -32.1444   23.7450 O   0  0  0  0  0  0
  -29.8437  -20.5754   19.4897 C   0  0  0  0  0  0
  -30.3738  -19.4122   18.9048 C   0  0  0  0  0  0
  -29.3962  -20.5417   20.8232 C   0  0  0  0  0  0
  -29.5187  -19.2849   21.5070 C   0  0  0  0  0  0
  -30.1284  -18.1656   20.8504 C   0  0  0  0  0  0
  -29.0086  -19.1359   22.9390 C   0  0  0  0  0  0
  -26.8251  -24.3456   21.3850 C   0  0  0  0  0  0
  -28.7721  -21.8036   21.4870 C   0  0  0  0  0  0
  -30.5597  -16.8605   21.5739 C   0  0  0  0  0  0
  -29.0750  -23.2589   20.9300 C   0  0  0  0  0  0
  -28.5219  -24.3602   23.2099 C   0  0  0  0  0  0
  -28.8121  -25.9383   21.2556 C   0  0  0  0  0  0
  -28.3383  -24.4700   21.6616 C   0  0  2  0  0  0
  -30.5226  -18.2429   19.5632 N   0  0  0  0  0  0
  -30.0009  -15.5650   21.1165 N   0  0  0  0  0  0
  -29.9279  -24.3825   23.6641 N   0  3  0  0  0  0
  -31.4675  -12.4525   19.1302 H   0  0  0  0  0  0
  -30.3348  -11.3479   19.8559 H   0  0  0  0  0  0
  -29.7486  -11.7681   17.4472 H   0  0  0  0  0  0
  -29.6498  -13.4846   17.7516 H   0  0  0  0  0  0
  -27.8495  -11.2984   18.8495 H   0  0  0  0  0  0
  -27.3642  -12.5955   17.7902 H   0  0  0  0  0  0
  -27.6859  -14.2539   19.5429 H   0  0  0  0  0  0
  -28.6919  -12.0120   21.3617 H   0  0  0  0  0  0
  -28.4494  -13.6604   21.8520 H   0  0  0  0  0  0
  -25.2750   -9.5688   22.4772 H   0  0  0  0  0  0
  -23.9993   -7.4636   22.7476 H   0  0  0  0  0  0
  -21.0834   -8.8784   19.8956 H   0  0  0  0  0  0
  -22.3691  -10.9681   19.6177 H   0  0  0  0  0  0
  -21.2013   -7.6148   23.9725 H   0  0  0  0  0  0
  -21.1483   -6.0520   25.9083 H   0  0  0  0  0  0
  -22.0589   -2.7608   23.2852 H   0  0  0  0  0  0
  -22.4055  -11.9920   22.4829 H   0  0  0  0  0  0
  -21.1080  -13.1301   22.2580 H   0  0  0  0  0  0
  -24.6563  -15.8398   20.5231 H   0  0  0  0  0  0
  -26.2717  -15.6314   20.0756 H   0  0  0  0  0  0
  -26.7128  -32.5524   23.1159 H   0  0  0  0  0  0
  -25.0058  -33.9792   25.0481 H   0  0  0  0  0  0
  -22.7019  -31.3061   21.4089 H   0  0  0  0  0  0
  -23.3747  -35.9642   23.3323 H   0  0  0  0  0  0
  -24.3570  -36.8908   22.2048 H   0  0  0  0  0  0
  -23.7227  -37.6517   23.6641 H   0  0  0  0  0  0
  -26.0646  -31.5704   20.6026 H   0  0  0  0  0  0
  -26.8302  -30.8688   21.9983 H   0  0  0  0  0  0
  -28.1041  -29.0332   21.2177 H   0  0  0  0  0  0
  -26.0640  -25.9905   18.9466 H   0  0  0  0  0  0
  -23.9894  -27.3200   18.9912 H   0  0  0  0  0  0
  -23.7398  -30.5978   19.4074 H   0  0  0  0  0  0
  -22.7489  -29.2448   19.8665 H   0  0  0  0  0  0
  -25.1285  -36.1995   25.0828 H   0  0  0  0  0  0
  -20.9963  -28.3253   24.1424 H   0  0  0  0  0  0
  -20.5685  -26.2287   23.3604 H   0  0  0  0  0  0
  -21.6639  -26.7459   22.1200 H   0  0  0  0  0  0
  -19.6914  -25.6304   21.1235 H   0  0  0  0  0  0
  -19.6686  -27.3204   20.6749 H   0  0  0  0  0  0
  -17.4198  -26.6682   21.4022 H   0  0  0  0  0  0
  -18.0323  -26.0064   22.9012 H   0  0  0  0  0  0
  -19.7930  -30.7261   24.2290 H   0  0  0  0  0  0
  -17.5012  -31.6272   24.5160 H   0  0  0  0  0  0
  -15.5349  -30.2995   23.7649 H   0  0  0  0  0  0
  -15.8664  -28.0823   22.7080 H   0  0  0  0  0  0
  -24.5889  -30.7094   25.7804 H   0  0  0  0  0  0
  -24.8920  -32.2882   26.4941 H   0  0  0  0  0  0
  -25.8055  -30.8875   27.0240 H   0  0  0  0  0  0
  -26.2887  -29.6809   24.1179 H   0  0  0  0  0  0
  -27.4051  -29.7301   25.4634 H   0  0  0  0  0  0
  -27.8737  -30.4370   23.9346 H   0  0  0  0  0  0
  -27.2685  -33.3630   26.2102 H   0  0  0  0  0  0
  -28.3839  -32.6911   25.0307 H   0  0  0  0  0  0
  -28.0749  -31.8448   26.5388 H   0  0  0  0  0  0
  -28.2618  -38.0094   24.7514 H   0  0  0  0  0  0
  -28.1059  -36.2629   24.6304 H   0  0  0  0  0  0
  -27.2297  -37.1477   25.8871 H   0  0  0  0  0  0
  -20.9338  -29.8752   21.6906 H   0  0  0  0  0  0
  -26.0194  -38.2885   24.1400 H   0  0  0  0  0  0
  -29.7738  -21.4747   18.8947 H   0  0  0  0  0  0
  -30.7092  -19.4267   17.8781 H   0  0  0  0  0  0
  -28.2000  -19.8282   23.1694 H   0  0  0  0  0  0
  -29.8139  -19.2989   23.6557 H   0  0  0  0  0  0
  -28.5931  -18.1428   23.1099 H   0  0  0  0  0  0
  -26.3898  -23.4554   21.8394 H   0  0  0  0  0  0
  -26.6241  -24.2845   20.3163 H   0  0  0  0  0  0
  -26.2735  -25.1993   21.7805 H   0  0  0  0  0  0
  -29.0911  -21.7793   22.5264 H   0  0  0  0  0  0
  -27.6954  -21.6376   21.4909 H   0  0  0  0  0  0
  -30.3663  -16.9280   22.6423 H   0  0  0  0  0  0
  -31.6491  -16.8256   21.5169 H   0  0  0  0  0  0
  -28.8108  -23.2963   19.8737 H   0  0  0  0  0  0
  -30.1529  -23.4191   20.9564 H   0  0  0  0  0  0
  -28.0521  -23.4542   23.5928 H   0  0  0  0  0  0
  -27.9934  -25.1731   23.7118 H   0  0  0  0  0  0
  -29.9007  -25.9445   21.1950 H   0  0  0  0  0  0
  -28.5830  -26.6278   22.0704 H   0  0  0  0  0  0
  -29.0418  -15.3833   21.3668 H   0  0  0  0  0  0
  -30.3793  -25.2496   23.4352 H   0  0  0  0  0  0
  -30.4611  -23.6261   23.2749 H   0  0  0  0  0  0
  -29.9567  -24.2880   24.6650 H   0  0  0  0  0  0
  1 25  1  0  0  0
  1 30  2  0  0  0
  1 85  1  0  0  0
  2  3  1  0  0  0
  2 25  1  0  0  0
  2 87  1  0  0  0
  2 88  1  0  0  0
  3  4  1  0  0  0
  3 89  1  0  0  0
  3 90  1  0  0  0
  4  5  1  0  0  0
  4 91  1  0  0  0
  4 92  1  0  0  0
  5  6  1  0  0  0
  5 26  1  0  0  0
  5 93  1  0  0  0
  6 25  1  0  0  0
  6 94  1  0  0  0
  6 95  1  0  0  0
  7  8  2  0  0  0
  7 26  1  0  0  0
  7 29  1  0  0  0
  8  9  1  0  0  0
  8 22  1  0  0  0
  9 10  1  0  0  0
  9 27  2  0  0  0
 10 11  2  0  0  0
 10 15  1  0  0  0
 11 12  1  0  0  0
 11 96  1  0  0  0
 12 13  2  0  0  0
 12 97  1  0  0  0
 13 14  1  0  0  0
 13 31  1  0  0  0
 14 15  2  0  0  0
 14 98  1  0  0  0
 15 99  1  0  0  0
 16 17  2  0  0  0
 16 21  1  0  0  0
 16 31  1  0  0  0
 17 18  1  0  0  0
 17100  1  0  0  0
 18 19  2  0  0  0
 18101  1  0  0  0
 19 20  1  0  0  0
 19 24  1  0  0  0
 20 21  2  0  0  0
 20102  1  0  0  0
 21 23  1  0  0  0
 22 28  1  0  0  0
 22 32  2  0  0  0
 26 27  1  0  0  0
 28103  1  0  0  0
 28104  1  0  0  0
 29105  1  0  0  0
 29106  1  0  0  0
 33 34  1  0  0  0
 33 66  1  0  0  0
 33 70  2  0  0  0
 34 36  1  0  0  0
 34 59  1  0  0  0
 34107  1  0  0  0
 35 44  2  0  0  0
 35 45  1  0  0  0
 35 68  1  0  0  0
 36 56  1  0  0  0
 36108  1  0  0  0
 37 39  1  0  0  0
 37 47  1  0  0  0
 37 66  1  0  0  0
 37109  1  0  0  0
 38 43  2  0  0  0
 38 46  1  0  0  0
 38 47  1  0  0  0
 39 64  1  0  0  0
 39 67  2  0  0  0
 40 52  1  0  0  0
 40 53  2  0  0  0
 40 58  1  0  0  0
 41110  1  0  0  0
 41111  1  0  0  0
 41112  1  0  0  0
 41 48  1  0  0  0
 42 43  1  0  0  0
 42 66  1  0  0  0
 42113  1  0  0  0
 42114  1  0  0  0
 43 44  1  0  0  0
 44115  1  0  0  0
 45 46  2  0  0  0
 45116  1  0  0  0
 46117  1  0  0  0
 47118  1  0  0  0
 47119  1  0  0  0
 48 56  1  0  0  0
 48 65  1  0  0  0
 48120  1  0  0  0
 49 50  1  0  0  0
 49 53  1  0  0  0
 49 64  1  0  0  0
 49121  1  0  0  0
 50 51  1  0  0  0
 50122  1  0  0  0
 50123  1  0  0  0
 51 52  1  0  0  0
 51124  1  0  0  0
 51125  1  0  0  0
 52126  1  0  0  0
 52127  1  0  0  0
 53 54  1  0  0  0
 54 55  2  0  0  0
 54128  1  0  0  0
 55 57  1  0  0  0
 55129  1  0  0  0
 56 69  2  0  0  0
 57 58  2  0  0  0
 57130  1  0  0  0
 58131  1  0  0  0
 59 60  1  0  0  0
 59 61  1  0  0  0
 59 62  1  0  0  0
 60132  1  0  0  0
 60133  1  0  0  0
 60134  1  0  0  0
 61135  1  0  0  0
 61136  1  0  0  0
 61137  1  0  0  0
 62138  1  0  0  0
 62139  1  0  0  0
 62140  1  0  0  0
 63 65  1  0  0  0
 63141  1  0  0  0
 63142  1  0  0  0
 63143  1  0  0  0
 64144  1  0  0  0
 65145  1  0  0  0
 68 82  1  0  0  0
 71 72  2  0  0  0
 71 73  1  0  0  0
 71146  1  0  0  0
 72 84  1  0  0  0
 72147  1  0  0  0
 73 74  2  0  0  0
 73 78  1  0  0  0
 74 75  1  0  0  0
 74 76  1  0  0  0
 75 79  1  0  0  0
 75 84  2  0  0  0
 76148  1  0  0  0
 76149  1  0  0  0
 76150  1  0  0  0
 77151  1  0  0  0
 77152  1  0  0  0
 77153  1  0  0  0
 77 83  1  0  0  0
 78 80  1  0  0  0
 78154  1  0  0  0
 78155  1  0  0  0
 79 85  1  0  0  0
 79156  1  0  0  0
 79157  1  0  0  0
 80 83  1  0  0  0
 80158  1  0  0  0
 80159  1  0  0  0
 81 83  1  0  0  0
 81 86  1  0  0  0
 81160  1  0  0  0
 81161  1  0  0  0
 82 83  1  0  0  0
 82162  1  0  0  0
 82163  1  0  0  0
 85164  1  0  0  0
 86165  1  0  0  0
 86166  1  0  0  0
 86167  1  0  0  0
M  CHG  1  86   1
M  ISO  4   1 100  68 101  82 101  85 100
M  END
> <chiral flag>
0

> <version>
0

> <s_m_source_file>
/data/baiqing/PycharmProjects/Reinvent-master-3.2/result/LINK_invent/BTK/process_docking_weight1_custom_sum_contain_oxygen_bond_distance_aromatic_linkinvent_7_9_3/rearranged_h_0107.sdf

> <i_m_source_file_index>
67

> <r_mmod_Potential_Energy-OPLS-2005>
-476.040985107422

> <r_mmod_Stretch_Energy-OPLS-2005>
61.9929466247559

> <r_mmod_Bend_Energy-OPLS-2005>
134.1787109375

> <r_mmod_Torsional_Energy-OPLS-2005>
248.713653564453

> <r_mmod_Improper_Torsional_Energy-OPLS-2005>
3.18697953224182

> <r_mmod_Van_der_Waal_Energy-OPLS-2005>
153.410720825195

> <r_mmod_Electrostatic_Energy-OPLS-2005>
-564.0634765625

> <r_mmod_Solvation_Energy-OPLS-2005>
-537.37841796875

> <b_mmod_Minimization_Converged-OPLS-2005>
0

> <r_mmod_RMS_Derivative-OPLS-2005>
1.22305309772491

$$$$
69
                    3D
 Structure written by MMmdl.
190198  0  0  1  0            999 V2000
  -30.7284  -14.4914   20.4399 C   0  0  0  0  0  0
  -30.4185  -12.2750   19.4504 C   0  0  0  0  0  0
  -29.5075  -12.4336   18.2143 C   0  0  0  0  0  0
  -28.0211  -12.3507   18.6130 C   0  0  0  0  0  0
  -27.6606  -13.2134   19.8524 C   0  0  2  0  0  0
  -28.7080  -13.0731   20.9841 C   0  0  0  0  0  0
  -25.2604  -13.8176   20.5650 C   0  0  0  0  0  0
  -24.1842  -13.0467   20.9172 C   0  0  0  0  0  0
  -24.6424  -11.6926   20.8713 C   0  0  0  0  0  0
  -23.9087  -10.4332   21.0384 C   0  0  0  0  0  0
  -24.3655   -9.4246   21.9149 C   0  0  0  0  0  0
  -23.6355   -8.2259   22.0712 C   0  0  0  0  0  0
  -22.4306   -8.0338   21.3548 C   0  0  0  0  0  0
  -21.9949   -9.0298   20.4618 C   0  0  0  0  0  0
  -22.7268  -10.2176   20.3033 C   0  0  0  0  0  0
  -21.6874   -6.0771   22.5289 C   0  0  0  0  0  0
  -21.3998   -6.5644   23.8239 C   0  0  0  0  0  0
  -21.3653   -5.6784   24.9193 C   0  0  0  0  0  0
  -21.6048   -4.3055   24.7201 C   0  0  0  0  0  0
  -21.8821   -3.8150   23.4314 C   0  0  0  0  0  0
  -21.9187   -4.6984   22.3382 C   0  0  0  0  0  0
  -22.7882  -13.5264   21.1874 C   0  0  0  0  0  0
  -22.1665   -4.2156   21.0962 F   0  0  0  0  0  0
  -21.5672   -3.4543   25.7713 F   0  0  0  0  0  0
  -30.0411  -13.3205   20.4127 N   0  0  0  0  0  0
  -26.3059  -12.9384   20.3285 N   0  0  0  0  0  0
  -25.9367  -11.6545   20.5726 N   0  0  0  0  0  0
  -22.0520  -12.8229   22.0430 N   0  0  0  0  0  0
  -25.4326  -15.1897   20.4067 N   0  0  0  0  0  0
  -31.9278  -14.5575   20.1689 O   0  0  0  0  0  0
  -21.6660   -6.8920   21.4280 O   0  0  0  0  0  0
  -22.3551  -14.5566   20.6730 O   0  0  0  0  0  0
  -24.6170  -31.8660   23.2093 C   0  0  0  0  0  0
  -25.9070  -32.4808   23.8382 C   0  0  1  0  0  0
  -27.2324  -27.4133   20.1050 C   0  0  0  0  0  0
  -25.5928  -33.8606   24.2316 N   0  0  0  0  0  0
  -23.4059  -30.4918   21.5494 C   0  0  2  0  0  0
  -24.8527  -28.9629   20.1088 C   0  0  0  0  0  0
  -22.7418  -29.4645   22.4973 C   0  0  0  0  0  0
  -18.0267  -28.1380   22.8475 C   0  0  0  0  0  0
  -24.1484  -36.7299   23.2638 C   0  0  0  0  0  0
  -25.9383  -30.8279   21.3664 C   0  0  0  0  0  0
  -26.0155  -29.4648   20.7070 C   0  0  0  0  0  0
  -27.2089  -28.7012   20.6965 C   0  0  0  0  0  0
  -26.0499  -26.9431   19.4831 C   0  0  0  0  0  0
  -24.8677  -27.7039   19.4895 C   0  0  0  0  0  0
  -23.6148  -29.8299   20.1630 C   0  0  0  0  0  0
  -25.4106  -36.3098   24.0337 C   0  0  1  0  0  0
  -20.5855  -28.3663   23.1315 C   0  0  2  0  0  0
  -20.6752  -26.9401   22.5420 C   0  0  0  0  0  0
  -19.5747  -26.6378   21.5208 C   0  0  0  0  0  0
  -18.1921  -26.7927   22.1600 C   0  0  0  0  0  0
  -19.1519  -28.8827   23.2891 C   0  0  0  0  0  0
  -18.9452  -30.1437   23.8901 C   0  0  0  0  0  0
  -17.6455  -30.6580   24.0557 C   0  0  0  0  0  0
  -25.9053  -34.9469   23.5125 C   0  0  0  0  0  0
  -16.5353  -29.9073   23.6328 C   0  0  0  0  0  0
  -16.7263  -28.6503   23.0339 C   0  0  0  0  0  0
  -26.4486  -31.6584   25.0711 C   0  0  0  0  0  0
  -25.3755  -31.3720   26.1475 C   0  0  0  0  0  0
  -27.0309  -30.3004   24.6111 C   0  0  0  0  0  0
  -27.6066  -32.4292   25.7468 C   0  0  0  0  0  0
  -27.5592  -37.1789   24.8450 C   0  0  0  0  0  0
  -21.4145  -29.3029   22.3711 N   0  0  0  0  0  0
  -26.4282  -37.3797   23.9430 N   0  0  0  0  0  0
  -24.6725  -31.0758   22.1002 N   0  0  0  0  0  0
  -23.4184  -28.8190   23.3016 O   0  0  0  0  0  0
  -28.3776  -26.6344   20.1700 O   0  0  0  0  0  0
  -26.5599  -34.8929   22.4677 O   0  0  0  0  0  0
  -23.5368  -32.1425   23.7477 O   0  0  0  0  0  0
  -31.1078  -23.6968   21.9505 C   0  0  0  0  0  0
  -30.1010  -24.7105   21.8720 C   0  0  0  0  0  0
  -30.9386  -22.8477   20.8956 C   0  0  0  0  0  0
  -29.3535  -24.4586   20.7411 C   0  0  0  0  0  0
  -32.2044  -23.5588   22.9775 C   0  0  0  0  0  0
  -31.7844  -21.6709   20.5029 C   0  0  0  0  0  0
  -28.6748  -26.3463   26.5442 C   0  0  0  0  0  0
  -30.7286  -27.3647   25.5269 C   0  0  0  0  0  0
  -27.2721  -21.2612   18.0689 C   0  0  0  0  0  0
  -31.4909  -17.1422   19.0621 C   0  0  0  0  0  0
  -29.2104  -16.4742   18.2892 C   0  0  0  0  0  0
  -29.9525  -25.8786   22.8411 C   0  0  0  0  0  0
  -28.1599  -25.2055   20.1707 C   0  0  0  0  0  0
  -29.4581  -25.5066   24.2585 C   0  0  0  0  0  0
  -29.4449  -18.0356   20.2751 C   0  0  0  0  0  0
  -29.2876  -22.5462   19.0048 C   0  0  0  0  0  0
  -29.1085  -19.2679   19.3749 C   0  0  0  0  0  0
  -29.3620  -26.7220   25.2195 C   0  0  0  0  0  0
  -28.0942  -21.6039   19.3309 C   0  0  2  0  0  0
  -30.0510  -16.7978   19.5403 C   0  0  0  0  0  0
  -29.8256  -23.2592   20.1766 N   0  0  0  0  0  0
  -29.9533  -15.5983   20.4254 N   0  0  0  0  0  0
  -28.4745  -20.3921   20.1205 N   0  3  0  0  0  0
  -31.4683  -12.3369   19.1572 H   0  0  0  0  0  0
  -30.2969  -11.2866   19.8959 H   0  0  0  0  0  0
  -29.7415  -11.6556   17.4872 H   0  0  0  0  0  0
  -29.7060  -13.3780   17.7116 H   0  0  0  0  0  0
  -27.7976  -11.3043   18.8158 H   0  0  0  0  0  0
  -27.3892  -12.6350   17.7681 H   0  0  0  0  0  0
  -27.6836  -14.2454   19.5123 H   0  0  0  0  0  0
  -28.6751  -12.0745   21.4193 H   0  0  0  0  0  0
  -28.4925  -13.7733   21.7933 H   0  0  0  0  0  0
  -25.2797   -9.5770   22.4721 H   0  0  0  0  0  0
  -24.0109   -7.4630   22.7404 H   0  0  0  0  0  0
  -21.0883   -8.8804   19.8914 H   0  0  0  0  0  0
  -22.3705  -10.9737   19.6142 H   0  0  0  0  0  0
  -21.1958   -7.6135   23.9750 H   0  0  0  0  0  0
  -21.1511   -6.0485   25.9103 H   0  0  0  0  0  0
  -22.0589   -2.7615   23.2778 H   0  0  0  0  0  0
  -22.4117  -11.9858   22.4778 H   0  0  0  0  0  0
  -21.1141  -13.1274   22.2651 H   0  0  0  0  0  0
  -24.6653  -15.8467   20.5048 H   0  0  0  0  0  0
  -26.2864  -15.6300   20.0960 H   0  0  0  0  0  0
  -26.7129  -32.5502   23.1139 H   0  0  0  0  0  0
  -25.0090  -33.9751   25.0463 H   0  0  0  0  0  0
  -22.6939  -31.3091   21.4132 H   0  0  0  0  0  0
  -23.3765  -35.9616   23.3281 H   0  0  0  0  0  0
  -24.3594  -36.8932   22.2059 H   0  0  0  0  0  0
  -23.7206  -37.6486   23.6659 H   0  0  0  0  0  0
  -26.0561  -31.5960   20.6009 H   0  0  0  0  0  0
  -26.8251  -30.8734   21.9881 H   0  0  0  0  0  0
  -28.1037  -29.0838   21.1675 H   0  0  0  0  0  0
  -26.0119  -25.9823   18.9903 H   0  0  0  0  0  0
  -23.9796  -27.3080   19.0157 H   0  0  0  0  0  0
  -23.7252  -30.6079   19.4073 H   0  0  0  0  0  0
  -22.7387  -29.2511   19.8662 H   0  0  0  0  0  0
  -25.1268  -36.1958   25.0825 H   0  0  0  0  0  0
  -20.9952  -28.3236   24.1435 H   0  0  0  0  0  0
  -20.5646  -26.2271   23.3604 H   0  0  0  0  0  0
  -21.6625  -26.7440   22.1234 H   0  0  0  0  0  0
  -19.6924  -25.6293   21.1217 H   0  0  0  0  0  0
  -19.6721  -27.3190   20.6742 H   0  0  0  0  0  0
  -17.4212  -26.6688   21.3979 H   0  0  0  0  0  0
  -18.0324  -26.0060   22.8982 H   0  0  0  0  0  0
  -19.7927  -30.7234   24.2281 H   0  0  0  0  0  0
  -17.5024  -31.6266   24.5157 H   0  0  0  0  0  0
  -15.5352  -30.2989   23.7668 H   0  0  0  0  0  0
  -15.8652  -28.0841   22.7040 H   0  0  0  0  0  0
  -24.5929  -30.7058   25.7830 H   0  0  0  0  0  0
  -24.8953  -32.2893   26.4892 H   0  0  0  0  0  0
  -25.8127  -30.8919   27.0244 H   0  0  0  0  0  0
  -26.2849  -29.6771   24.1175 H   0  0  0  0  0  0
  -27.4064  -29.7234   25.4574 H   0  0  0  0  0  0
  -27.8694  -30.4283   23.9265 H   0  0  0  0  0  0
  -27.2693  -33.3579   26.2082 H   0  0  0  0  0  0
  -28.3867  -32.6881   25.0297 H   0  0  0  0  0  0
  -28.0758  -31.8400   26.5358 H   0  0  0  0  0  0
  -28.2576  -38.0121   24.7560 H   0  0  0  0  0  0
  -28.1117  -36.2656   24.6174 H   0  0  0  0  0  0
  -27.2339  -37.1327   25.8860 H   0  0  0  0  0  0
  -20.9294  -29.8760   21.6945 H   0  0  0  0  0  0
  -26.0169  -38.2869   24.1471 H   0  0  0  0  0  0
  -32.1186  -24.2843   23.7831 H   0  0  0  0  0  0
  -33.1738  -23.6984   22.4985 H   0  0  0  0  0  0
  -32.1838  -22.5606   23.4169 H   0  0  0  0  0  0
  -32.4801  -21.3926   21.2941 H   0  0  0  0  0  0
  -32.3749  -21.8976   19.6153 H   0  0  0  0  0  0
  -31.1947  -20.7853   20.2957 H   0  0  0  0  0  0
  -28.5596  -27.2183   27.1911 H   0  0  0  0  0  0
  -29.2505  -25.6053   27.1008 H   0  0  0  0  0  0
  -27.6780  -25.9385   26.3772 H   0  0  0  0  0  0
  -30.6184  -28.2122   26.2054 H   0  0  0  0  0  0
  -31.2141  -27.7497   24.6303 H   0  0  0  0  0  0
  -31.4103  -26.6561   26.0004 H   0  0  0  0  0  0
  -26.8565  -22.1651   17.6233 H   0  0  0  0  0  0
  -26.4341  -20.6024   18.2985 H   0  0  0  0  0  0
  -27.8805  -20.7818   17.3002 H   0  0  0  0  0  0
  -31.5061  -18.0253   18.4257 H   0  0  0  0  0  0
  -31.9288  -16.3493   18.4540 H   0  0  0  0  0  0
  -32.1689  -17.3281   19.8952 H   0  0  0  0  0  0
  -29.2991  -17.2490   17.5283 H   0  0  0  0  0  0
  -28.1510  -16.3669   18.5284 H   0  0  0  0  0  0
  -29.5471  -15.5609   17.8062 H   0  0  0  0  0  0
  -29.2892  -26.6356   22.4270 H   0  0  0  0  0  0
  -30.9337  -26.3454   22.9086 H   0  0  0  0  0  0
  -27.2855  -24.9406   20.7669 H   0  0  0  0  0  0
  -27.9545  -24.9009   19.1475 H   0  0  0  0  0  0
  -30.1006  -24.7462   24.7003 H   0  0  0  0  0  0
  -28.4741  -25.0415   24.1724 H   0  0  0  0  0  0
  -28.5255  -17.7328   20.7752 H   0  0  0  0  0  0
  -30.1260  -18.3396   21.0746 H   0  0  0  0  0  0
  -28.9910  -23.2772   18.2576 H   0  0  0  0  0  0
  -30.0859  -21.9927   18.5079 H   0  0  0  0  0  0
  -28.4079  -18.9471   18.6042 H   0  0  0  0  0  0
  -29.9993  -19.6210   18.8510 H   0  0  0  0  0  0
  -28.7393  -27.4795   24.7390 H   0  0  0  0  0  0
  -27.4196  -22.1682   19.9763 H   0  0  0  0  0  0
  -29.0292  -15.4173   20.7859 H   0  0  0  0  0  0
  -29.0675  -20.6798   20.8849 H   0  0  0  0  0  0
  -27.6317  -20.0408   20.5456 H   0  0  0  0  0  0
  1 25  1  0  0  0
  1 30  2  0  0  0
  1 92  1  0  0  0
  2  3  1  0  0  0
  2 25  1  0  0  0
  2 94  1  0  0  0
  2 95  1  0  0  0
  3  4  1  0  0  0
  3 96  1  0  0  0
  3 97  1  0  0  0
  4  5  1  0  0  0
  4 98  1  0  0  0
  4 99  1  0  0  0
  5  6  1  0  0  0
  5 26  1  0  0  0
  5100  1  0  0  0
  6 25  1  0  0  0
  6101  1  0  0  0
  6102  1  0  0  0
  7  8  2  0  0  0
  7 26  1  0  0  0
  7 29  1  0  0  0
  8  9  1  0  0  0
  8 22  1  0  0  0
  9 10  1  0  0  0
  9 27  2  0  0  0
 10 11  2  0  0  0
 10 15  1  0  0  0
 11 12  1  0  0  0
 11103  1  0  0  0
 12 13  2  0  0  0
 12104  1  0  0  0
 13 14  1  0  0  0
 13 31  1  0  0  0
 14 15  2  0  0  0
 14105  1  0  0  0
 15106  1  0  0  0
 16 17  2  0  0  0
 16 21  1  0  0  0
 16 31  1  0  0  0
 17 18  1  0  0  0
 17107  1  0  0  0
 18 19  2  0  0  0
 18108  1  0  0  0
 19 20  1  0  0  0
 19 24  1  0  0  0
 20 21  2  0  0  0
 20109  1  0  0  0
 21 23  1  0  0  0
 22 28  1  0  0  0
 22 32  2  0  0  0
 26 27  1  0  0  0
 28110  1  0  0  0
 28111  1  0  0  0
 29112  1  0  0  0
 29113  1  0  0  0
 33 34  1  0  0  0
 33 66  1  0  0  0
 33 70  2  0  0  0
 34 36  1  0  0  0
 34 59  1  0  0  0
 34114  1  0  0  0
 35 44  2  0  0  0
 35 45  1  0  0  0
 35 68  1  0  0  0
 36 56  1  0  0  0
 36115  1  0  0  0
 37 39  1  0  0  0
 37 47  1  0  0  0
 37 66  1  0  0  0
 37116  1  0  0  0
 38 43  2  0  0  0
 38 46  1  0  0  0
 38 47  1  0  0  0
 39 64  1  0  0  0
 39 67  2  0  0  0
 40 52  1  0  0  0
 40 53  2  0  0  0
 40 58  1  0  0  0
 41117  1  0  0  0
 41118  1  0  0  0
 41119  1  0  0  0
 41 48  1  0  0  0
 42 43  1  0  0  0
 42 66  1  0  0  0
 42120  1  0  0  0
 42121  1  0  0  0
 43 44  1  0  0  0
 44122  1  0  0  0
 45 46  2  0  0  0
 45123  1  0  0  0
 46124  1  0  0  0
 47125  1  0  0  0
 47126  1  0  0  0
 48 56  1  0  0  0
 48 65  1  0  0  0
 48127  1  0  0  0
 49 50  1  0  0  0
 49 53  1  0  0  0
 49 64  1  0  0  0
 49128  1  0  0  0
 50 51  1  0  0  0
 50129  1  0  0  0
 50130  1  0  0  0
 51 52  1  0  0  0
 51131  1  0  0  0
 51132  1  0  0  0
 52133  1  0  0  0
 52134  1  0  0  0
 53 54  1  0  0  0
 54 55  2  0  0  0
 54135  1  0  0  0
 55 57  1  0  0  0
 55136  1  0  0  0
 56 69  2  0  0  0
 57 58  2  0  0  0
 57137  1  0  0  0
 58138  1  0  0  0
 59 60  1  0  0  0
 59 61  1  0  0  0
 59 62  1  0  0  0
 60139  1  0  0  0
 60140  1  0  0  0
 60141  1  0  0  0
 61142  1  0  0  0
 61143  1  0  0  0
 61144  1  0  0  0
 62145  1  0  0  0
 62146  1  0  0  0
 62147  1  0  0  0
 63 65  1  0  0  0
 63148  1  0  0  0
 63149  1  0  0  0
 63150  1  0  0  0
 64151  1  0  0  0
 65152  1  0  0  0
 68 83  1  0  0  0
 71 72  1  0  0  0
 71 73  2  0  0  0
 71 75  1  0  0  0
 72 74  2  0  0  0
 72 82  1  0  0  0
 73 76  1  0  0  0
 73 91  1  0  0  0
 74 83  1  0  0  0
 74 91  1  0  0  0
 75153  1  0  0  0
 75154  1  0  0  0
 75155  1  0  0  0
 76156  1  0  0  0
 76157  1  0  0  0
 76158  1  0  0  0
 77159  1  0  0  0
 77160  1  0  0  0
 77161  1  0  0  0
 77 88  1  0  0  0
 78 88  1  0  0  0
 78162  1  0  0  0
 78163  1  0  0  0
 78164  1  0  0  0
 79165  1  0  0  0
 79166  1  0  0  0
 79167  1  0  0  0
 79 89  1  0  0  0
 80168  1  0  0  0
 80169  1  0  0  0
 80170  1  0  0  0
 80 90  1  0  0  0
 81 90  1  0  0  0
 81171  1  0  0  0
 81172  1  0  0  0
 81173  1  0  0  0
 82 84  1  0  0  0
 82174  1  0  0  0
 82175  1  0  0  0
 83176  1  0  0  0
 83177  1  0  0  0
 84 88  1  0  0  0
 84178  1  0  0  0
 84179  1  0  0  0
 85 87  1  0  0  0
 85 90  1  0  0  0
 85180  1  0  0  0
 85181  1  0  0  0
 86 89  1  0  0  0
 86 91  1  0  0  0
 86182  1  0  0  0
 86183  1  0  0  0
 87 93  1  0  0  0
 87184  1  0  0  0
 87185  1  0  0  0
 88186  1  0  0  0
 89 93  1  0  0  0
 89187  1  0  0  0
 90 92  1  0  0  0
 92188  1  0  0  0
 93189  1  0  0  0
 93190  1  0  0  0
M  CHG  1  93   1
M  ISO  4   1 100  68 101  83 101  92 100
M  END
> <chiral flag>
0

> <version>
0

> <s_m_source_file>
/data/baiqing/PycharmProjects/Reinvent-master-3.2/result/LINK_invent/BTK/process_docking_weight1_custom_sum_contain_oxygen_bond_distance_aromatic_linkinvent_7_9_3/rearranged_h_0107.sdf

> <i_m_source_file_index>
68

> <r_mmod_Potential_Energy-OPLS-2005>
-125.958366394043

> <r_mmod_Stretch_Energy-OPLS-2005>
48.1616554260254

> <r_mmod_Bend_Energy-OPLS-2005>
124.268707275391

> <r_mmod_Torsional_Energy-OPLS-2005>
264.034454345703

> <r_mmod_Improper_Torsional_Energy-OPLS-2005>
11.2357883453369

> <r_mmod_Van_der_Waal_Energy-OPLS-2005>
125.013053894043

> <r_mmod_Electrostatic_Energy-OPLS-2005>
-254.489685058594

> <r_mmod_Solvation_Energy-OPLS-2005>
-472.333068847656

> <b_mmod_Minimization_Converged-OPLS-2005>
0

> <r_mmod_RMS_Derivative-OPLS-2005>
4.99635124206543

$$$$
70
                    3D
 Structure written by MMmdl.
179187  0  0  1  0            999 V2000
  -31.0180  -13.8420   20.4893 C   0  0  0  0  0  0
  -30.6272  -11.5783   19.1085 C   0  0  0  0  0  0
  -29.6611  -12.4469   17.6288 C   0  0  0  0  0  0
  -28.4851  -13.9598   18.0481 C   0  0  0  0  0  0
  -28.2532  -14.6752   20.0675 C   0  0  2  0  0  0
  -29.1733  -13.7018   21.4809 C   0  0  0  0  0  0
  -25.0017  -14.2289   20.7149 C   0  0  0  0  0  0
  -23.9136  -13.2719   20.9975 C   0  0  0  0  0  0
  -24.4346  -12.1649   20.3907 C   0  0  0  0  0  0
  -23.8201  -10.7824   20.8868 C   0  0  0  0  0  0
  -24.3311   -9.7869   21.8070 C   0  0  0  0  0  0
  -23.6834   -8.5193   22.0456 C   0  0  0  0  0  0
  -22.4917   -8.1655   21.3632 C   0  0  0  0  0  0
  -22.0097   -9.1044   20.4407 C   0  0  0  0  0  0
  -22.6580  -10.3408   20.2050 C   0  0  0  0  0  0
  -21.7614   -6.1334   22.5268 C   0  0  0  0  0  0
  -21.4522   -6.6077   23.8209 C   0  0  0  0  0  0
  -21.3787   -5.7094   24.9072 C   0  0  0  0  0  0
  -21.6043   -4.3336   24.7046 C   0  0  0  0  0  0
  -21.8806   -3.8527   23.4120 C   0  0  0  0  0  0
  -21.9472   -4.7461   22.3282 C   0  0  0  0  0  0
  -22.4344  -13.5642   21.1870 C   0  0  0  0  0  0
  -22.1871   -4.2613   21.0857 F   0  0  0  0  0  0
  -21.5473   -3.4713   25.7485 F   0  0  0  0  0  0
  -30.4608  -12.6982   20.6486 N   0  0  0  0  0  0
  -26.4777  -14.5767   21.0087 N   0  0  0  0  0  0
  -24.8499  -13.6021   20.5401 N   0  0  0  0  0  0
  -21.8212  -12.7716   22.0449 N   0  0  0  0  0  0
  -26.5524  -14.9195   21.3267 N   0  0  0  0  0  0
  -32.0445  -14.3636   20.0712 O   0  0  0  0  0  0
  -21.7993   -6.9612   21.4251 O   0  0  0  0  0  0
  -21.9321  -14.5191   20.6125 O   0  0  0  0  0  0
  -24.7156  -31.7564   23.1396 C   0  0  0  0  0  0
  -25.9600  -32.4219   23.7948 C   0  0  1  0  0  0
  -26.6773  -26.1704   20.2301 C   0  0  0  0  0  0
  -25.6063  -33.8085   24.1762 N   0  0  0  0  0  0
  -23.5279  -30.3874   21.5069 C   0  0  2  0  0  0
  -24.8835  -28.6732   20.0805 C   0  0  0  0  0  0
  -22.7793  -29.4140   22.4581 C   0  0  0  0  0  0
  -18.0364  -28.1423   22.8471 C   0  0  0  0  0  0
  -24.1515  -36.7060   23.2658 C   0  0  0  0  0  0
  -26.1122  -30.2893   21.4766 C   0  0  0  0  0  0
  -26.0644  -28.8198   20.8078 C   0  0  0  0  0  0
  -26.9728  -27.5898   20.8454 C   0  0  0  0  0  0
  -25.6081  -26.3958   19.3543 C   0  0  0  0  0  0
  -24.7397  -27.5153   19.3115 C   0  0  0  0  0  0
  -23.7714  -29.7258   20.1238 C   0  0  0  0  0  0
  -25.4173  -36.2755   24.0248 C   0  0  1  0  0  0
  -20.5996  -28.3779   23.1099 C   0  0  2  0  0  0
  -20.6801  -26.9408   22.5404 C   0  0  0  0  0  0
  -19.5763  -26.6349   21.5238 C   0  0  0  0  0  0
  -18.1957  -26.7955   22.1644 C   0  0  0  0  0  0
  -19.1627  -28.8937   23.2778 C   0  0  0  0  0  0
  -18.9525  -30.1520   23.8819 C   0  0  0  0  0  0
  -17.6506  -30.6592   24.0549 C   0  0  0  0  0  0
  -25.9169  -34.9150   23.4862 C   0  0  0  0  0  0
  -16.5401  -29.9058   23.6352 C   0  0  0  0  0  0
  -16.7346  -28.6489   23.0370 C   0  0  0  0  0  0
  -26.4665  -31.6456   25.0746 C   0  0  0  0  0  0
  -25.3620  -31.3908   26.1288 C   0  0  0  0  0  0
  -27.0625  -30.2737   24.6979 C   0  0  0  0  0  0
  -27.6063  -32.4429   25.7536 C   0  0  0  0  0  0
  -27.5561  -37.1688   24.8451 C   0  0  0  0  0  0
  -21.4426  -29.2984   22.3367 N   0  0  0  0  0  0
  -26.4259  -37.3571   23.9402 N   0  0  0  0  0  0
  -24.8208  -30.8603   22.0885 N   0  0  0  0  0  0
  -23.4161  -28.7667   23.2926 O   0  0  0  0  0  0
  -27.1295  -24.5928   20.3147 O   0  0  0  0  0  0
  -26.5834  -34.8799   22.4501 O   0  0  0  0  0  0
  -23.6130  -32.0881   23.6128 O   0  0  0  0  0  0
  -25.3490  -13.9980   23.0202 C   0  0  0  0  0  0
  -26.4206  -12.5299   21.8687 C   0  0  0  0  0  0
  -24.7751  -15.9349   22.2140 C   0  0  0  0  0  0
  -26.8231  -12.8688   19.7144 C   0  0  0  0  0  0
  -25.3507  -16.5259   20.1964 C   0  0  0  0  0  0
  -25.3806  -17.1984   25.1755 C   0  0  0  0  0  0
  -23.0392  -15.7477   23.9923 C   0  0  0  0  0  0
  -22.8124  -17.4598   22.1957 C   0  0  0  0  0  0
  -24.8759  -20.7450   25.1768 C   0  0  0  0  0  0
  -22.6927  -20.5005   26.2603 C   0  0  0  0  0  0
  -25.4984  -18.5843   19.8901 C   0  0  0  0  0  0
  -28.3969  -12.3008   19.7118 C   0  0  0  0  0  0
  -26.3639  -20.5754   20.2732 C   0  0  0  0  0  0
  -23.4249  -18.7870   24.6941 C   0  0  0  0  0  0
  -26.3599  -22.7803   20.0593 C   0  0  0  0  0  0
  -24.5046  -17.8324   24.0663 C   0  0  2  0  0  0
  -23.8237  -16.7602   23.1168 C   0  0  0  0  0  0
  -26.1438  -14.9426   18.8876 N   0  0  0  0  0  0
  -30.1851  -13.5974   19.5809 N   0  0  0  0  0  0
  -23.8678  -19.7923   25.6917 N   0  3  0  0  0  0
  -31.6829  -11.4993   18.8491 H   0  0  0  0  0  0
  -30.2990  -10.5562   19.3044 H   0  0  0  0  0  0
  -29.1388  -11.7086   17.0243 H   0  0  0  0  0  0
  -30.4213  -12.8350   16.9440 H   0  0  0  0  0  0
  -27.5867  -13.8108   17.4379 H   0  0  0  0  0  0
  -28.9417  -14.8092   17.5254 H   0  0  0  0  0  0
  -28.5891  -15.7173   20.0670 H   0  0  0  0  0  0
  -28.6356  -13.0700   22.1675 H   0  0  0  0  0  0
  -29.5390  -14.4489   22.1933 H   0  0  0  0  0  0
  -25.2458   -9.9992   22.3398 H   0  0  0  0  0  0
  -24.1273   -7.8330   22.7503 H   0  0  0  0  0  0
  -21.1203   -8.8543   19.8840 H   0  0  0  0  0  0
  -22.2186  -10.9924   19.4630 H   0  0  0  0  0  0
  -21.2737   -7.6621   23.9787 H   0  0  0  0  0  0
  -21.1488   -6.0806   25.8934 H   0  0  0  0  0  0
  -22.0355   -2.7980   23.2439 H   0  0  0  0  0  0
  -22.3600  -12.0199   22.4404 H   0  0  0  0  0  0
  -20.8349  -12.8488   22.2343 H   0  0  0  0  0  0
  -26.0046  -15.5580   21.9239 H   0  0  0  0  0  0
  -26.8288  -15.3903   20.4536 H   0  0  0  0  0  0
  -26.7607  -32.4461   23.0554 H   0  0  0  0  0  0
  -25.0121  -33.9066   24.9859 H   0  0  0  0  0  0
  -22.8767  -31.2469   21.3341 H   0  0  0  0  0  0
  -23.3812  -35.9350   23.3196 H   0  0  0  0  0  0
  -24.3589  -36.8874   22.2101 H   0  0  0  0  0  0
  -23.7237  -37.6178   23.6842 H   0  0  0  0  0  0
  -26.3995  -30.9747   20.6799 H   0  0  0  0  0  0
  -26.9523  -30.3147   22.1563 H   0  0  0  0  0  0
  -27.8521  -27.6591   21.4744 H   0  0  0  0  0  0
  -25.3035  -25.5519   18.7510 H   0  0  0  0  0  0
  -23.8647  -27.4324   18.6825 H   0  0  0  0  0  0
  -24.0354  -30.4941   19.3976 H   0  0  0  0  0  0
  -22.8451  -29.2822   19.7594 H   0  0  0  0  0  0
  -25.1399  -36.1478   25.0735 H   0  0  0  0  0  0
  -21.0122  -28.3447   24.1218 H   0  0  0  0  0  0
  -20.5666  -26.2407   23.3688 H   0  0  0  0  0  0
  -21.6644  -26.7308   22.1205 H   0  0  0  0  0  0
  -19.6859  -25.6241   21.1309 H   0  0  0  0  0  0
  -19.6690  -27.3133   20.6745 H   0  0  0  0  0  0
  -17.4220  -26.6767   21.4037 H   0  0  0  0  0  0
  -18.0287  -26.0116   22.9053 H   0  0  0  0  0  0
  -19.7984  -30.7378   24.2133 H   0  0  0  0  0  0
  -17.5030  -31.6259   24.5171 H   0  0  0  0  0  0
  -15.5380  -30.2906   23.7702 H   0  0  0  0  0  0
  -15.8779  -28.0758   22.7096 H   0  0  0  0  0  0
  -24.5852  -30.7230   25.7561 H   0  0  0  0  0  0
  -24.8767  -32.3166   26.4373 H   0  0  0  0  0  0
  -25.7680  -30.9270   27.0279 H   0  0  0  0  0  0
  -26.3316  -29.6191   24.2245 H   0  0  0  0  0  0
  -27.4094  -29.7431   25.5848 H   0  0  0  0  0  0
  -27.9328  -30.3741   24.0509 H   0  0  0  0  0  0
  -27.2583  -33.3853   26.1768 H   0  0  0  0  0  0
  -28.4027  -32.6791   25.0471 H   0  0  0  0  0  0
  -28.0567  -31.8817   26.5725 H   0  0  0  0  0  0
  -28.2488  -38.0069   24.7547 H   0  0  0  0  0  0
  -28.1148  -36.2584   24.6224 H   0  0  0  0  0  0
  -27.2270  -37.1253   25.8849 H   0  0  0  0  0  0
  -20.9736  -29.8716   21.6494 H   0  0  0  0  0  0
  -26.0044  -38.2593   24.1461 H   0  0  0  0  0  0
  -25.1035  -13.7394   24.0376 H   0  0  0  0  0  0
  -26.8133  -11.6547   22.3596 H   0  0  0  0  0  0
  -26.0044  -17.9404   25.6725 H   0  0  0  0  0  0
  -26.0552  -16.4384   24.7796 H   0  0  0  0  0  0
  -24.7731  -16.7328   25.9539 H   0  0  0  0  0  0
  -22.5677  -14.9808   23.3963 H   0  0  0  0  0  0
  -22.2308  -16.1906   24.5622 H   0  0  0  0  0  0
  -23.6696  -15.2343   24.7115 H   0  0  0  0  0  0
  -22.4896  -16.8341   21.3723 H   0  0  0  0  0  0
  -23.2388  -18.3667   21.7828 H   0  0  0  0  0  0
  -21.9048  -17.7385   22.7284 H   0  0  0  0  0  0
  -25.1311  -21.4817   25.9405 H   0  0  0  0  0  0
  -24.5034  -21.2831   24.3048 H   0  0  0  0  0  0
  -25.7973  -20.2352   24.8985 H   0  0  0  0  0  0
  -22.9803  -21.1899   27.0541 H   0  0  0  0  0  0
  -21.9767  -19.7958   26.6871 H   0  0  0  0  0  0
  -22.1662  -21.0733   25.4933 H   0  0  0  0  0  0
  -24.4460  -18.8195   20.0529 H   0  0  0  0  0  0
  -25.5570  -18.5580   18.8026 H   0  0  0  0  0  0
  -28.2276  -11.4606   19.0394 H   0  0  0  0  0  0
  -28.4125  -11.6191   20.5706 H   0  0  0  0  0  0
  -27.3644  -20.3705   19.8991 H   0  0  0  0  0  0
  -26.4798  -20.5051   21.3525 H   0  0  0  0  0  0
  -22.6609  -18.1895   25.1872 H   0  0  0  0  0  0
  -22.9166  -19.3499   23.9133 H   0  0  0  0  0  0
  -25.3752  -22.9986   20.4662 H   0  0  0  0  0  0
  -26.2281  -22.8423   18.9786 H   0  0  0  0  0  0
  -25.1645  -18.4398   23.4424 H   0  0  0  0  0  0
  -30.2914  -14.0802   18.7062 H   0  0  0  0  0  0
  -24.2912  -19.2947   26.4615 H   0  0  0  0  0  0
  1 25  1  0  0  0
  1 30  2  0  0  0
  1 89  1  0  0  0
  2  3  1  0  0  0
  2 25  1  0  0  0
  2 91  1  0  0  0
  2 92  1  0  0  0
  3  4  1  0  0  0
  3 93  1  0  0  0
  3 94  1  0  0  0
  4  5  1  0  0  0
  4 95  1  0  0  0
  4 96  1  0  0  0
  5  6  1  0  0  0
  5 26  1  0  0  0
  5 97  1  0  0  0
  6 25  1  0  0  0
  6 98  1  0  0  0
  6 99  1  0  0  0
  7  8  2  0  0  0
  7 26  1  0  0  0
  7 29  1  0  0  0
  8  9  1  0  0  0
  8 22  1  0  0  0
  9 10  1  0  0  0
  9 27  2  0  0  0
 10 11  2  0  0  0
 10 15  1  0  0  0
 11 12  1  0  0  0
 11100  1  0  0  0
 12 13  2  0  0  0
 12101  1  0  0  0
 13 14  1  0  0  0
 13 31  1  0  0  0
 14 15  2  0  0  0
 14102  1  0  0  0
 15103  1  0  0  0
 16 17  2  0  0  0
 16 21  1  0  0  0
 16 31  1  0  0  0
 17 18  1  0  0  0
 17104  1  0  0  0
 18 19  2  0  0  0
 18105  1  0  0  0
 19 20  1  0  0  0
 19 24  1  0  0  0
 20 21  2  0  0  0
 20106  1  0  0  0
 21 23  1  0  0  0
 22 28  1  0  0  0
 22 32  2  0  0  0
 26 27  1  0  0  0
 28107  1  0  0  0
 28108  1  0  0  0
 29109  1  0  0  0
 29110  1  0  0  0
 33 34  1  0  0  0
 33 66  1  0  0  0
 33 70  2  0  0  0
 34 36  1  0  0  0
 34 59  1  0  0  0
 34111  1  0  0  0
 35 44  2  0  0  0
 35 45  1  0  0  0
 35 68  1  0  0  0
 36 56  1  0  0  0
 36112  1  0  0  0
 37 39  1  0  0  0
 37 47  1  0  0  0
 37 66  1  0  0  0
 37113  1  0  0  0
 38 43  2  0  0  0
 38 46  1  0  0  0
 38 47  1  0  0  0
 39 64  1  0  0  0
 39 67  2  0  0  0
 40 52  1  0  0  0
 40 53  2  0  0  0
 40 58  1  0  0  0
 41114  1  0  0  0
 41115  1  0  0  0
 41116  1  0  0  0
 41 48  1  0  0  0
 42 43  1  0  0  0
 42 66  1  0  0  0
 42117  1  0  0  0
 42118  1  0  0  0
 43 44  1  0  0  0
 44119  1  0  0  0
 45 46  2  0  0  0
 45120  1  0  0  0
 46121  1  0  0  0
 47122  1  0  0  0
 47123  1  0  0  0
 48 56  1  0  0  0
 48 65  1  0  0  0
 48124  1  0  0  0
 49 50  1  0  0  0
 49 53  1  0  0  0
 49 64  1  0  0  0
 49125  1  0  0  0
 50 51  1  0  0  0
 50126  1  0  0  0
 50127  1  0  0  0
 51 52  1  0  0  0
 51128  1  0  0  0
 51129  1  0  0  0
 52130  1  0  0  0
 52131  1  0  0  0
 53 54  1  0  0  0
 54 55  2  0  0  0
 54132  1  0  0  0
 55 57  1  0  0  0
 55133  1  0  0  0
 56 69  2  0  0  0
 57 58  2  0  0  0
 57134  1  0  0  0
 58135  1  0  0  0
 59 60  1  0  0  0
 59 61  1  0  0  0
 59 62  1  0  0  0
 60136  1  0  0  0
 60137  1  0  0  0
 60138  1  0  0  0
 61139  1  0  0  0
 61140  1  0  0  0
 61141  1  0  0  0
 62142  1  0  0  0
 62143  1  0  0  0
 62144  1  0  0  0
 63 65  1  0  0  0
 63145  1  0  0  0
 63146  1  0  0  0
 63147  1  0  0  0
 64148  1  0  0  0
 65149  1  0  0  0
 68 85  1  0  0  0
 71 72  2  0  0  0
 71 73  1  0  0  0
 71150  1  0  0  0
 72 74  1  0  0  0
 72151  1  0  0  0
 73 75  2  0  0  0
 73 87  1  0  0  0
 74 82  1  0  0  0
 74 88  2  0  0  0
 75 81  1  0  0  0
 75 88  1  0  0  0
 76152  1  0  0  0
 76153  1  0  0  0
 76154  1  0  0  0
 76 86  1  0  0  0
 77155  1  0  0  0
 77156  1  0  0  0
 77157  1  0  0  0
 77 87  1  0  0  0
 78 87  1  0  0  0
 78158  1  0  0  0
 78159  1  0  0  0
 78160  1  0  0  0
 79161  1  0  0  0
 79162  1  0  0  0
 79163  1  0  0  0
 79 90  1  0  0  0
 80 90  1  0  0  0
 80164  1  0  0  0
 80165  1  0  0  0
 80166  1  0  0  0
 81 83  1  0  0  0
 81167  1  0  0  0
 81168  1  0  0  0
 82 89  1  0  0  0
 82169  1  0  0  0
 82170  1  0  0  0
 83 85  1  0  0  0
 83171  1  0  0  0
 83172  1  0  0  0
 84 86  1  0  0  0
 84 90  1  0  0  0
 84173  1  0  0  0
 84174  1  0  0  0
 85175  1  0  0  0
 85176  1  0  0  0
 86 87  1  0  0  0
 86177  1  0  0  0
 89178  1  0  0  0
 90179  1  0  0  0
M  CHG  1  90   1
M  ISO  4   1 100  68 101  85 101  89 100
M  END
> <chiral flag>
0

> <version>
0

> <s_m_source_file>
/data/baiqing/PycharmProjects/Reinvent-master-3.2/result/LINK_invent/BTK/process_docking_weight1_custom_sum_contain_oxygen_bond_distance_aromatic_linkinvent_7_9_3/rearranged_h_0107.sdf

> <i_m_source_file_index>
69

> <r_mmod_Potential_Energy-OPLS-2005>
27479.23046875

> <r_mmod_Stretch_Energy-OPLS-2005>
14501.6328125

> <r_mmod_Bend_Energy-OPLS-2005>
3915.6064453125

> <r_mmod_Torsional_Energy-OPLS-2005>
737.539733886719

> <r_mmod_Improper_Torsional_Energy-OPLS-2005>
157.139312744141

> <r_mmod_Van_der_Waal_Energy-OPLS-2005>
5925.53173828125

> <r_mmod_Electrostatic_Energy-OPLS-2005>
-528.117370605469

> <r_mmod_Solvation_Energy-OPLS-2005>
-463.417205810547

> <b_mmod_Minimization_Converged-OPLS-2005>
0

> <r_mmod_RMS_Derivative-OPLS-2005>
11.72887134552

$$$$
71
                    3D
 Structure written by MMmdl.
162170  0  0  1  0            999 V2000
  -30.2675  -15.8652   20.3063 C   0  0  0  0  0  0
  -30.4035  -13.2635   19.5276 C   0  0  0  0  0  0
  -29.5584  -12.7042   18.3459 C   0  0  0  0  0  0
  -28.1610  -12.2896   18.8156 C   0  0  0  0  0  0
  -27.5897  -13.3275   19.8048 C   0  0  2  0  0  0
  -28.5882  -13.7849   20.9002 C   0  0  0  0  0  0
  -25.2316  -13.8318   20.5805 C   0  0  0  0  0  0
  -24.1723  -13.0440   20.9269 C   0  0  0  0  0  0
  -24.6449  -11.6963   20.8753 C   0  0  0  0  0  0
  -23.9141  -10.4301   21.0388 C   0  0  0  0  0  0
  -24.3666   -9.4204   21.9170 C   0  0  0  0  0  0
  -23.6298   -8.2262   22.0756 C   0  0  0  0  0  0
  -22.4273   -8.0319   21.3549 C   0  0  0  0  0  0
  -21.9930   -9.0294   20.4638 C   0  0  0  0  0  0
  -22.7302  -10.2153   20.3031 C   0  0  0  0  0  0
  -21.6857   -6.0738   22.5273 C   0  0  0  0  0  0
  -21.4034   -6.5636   23.8210 C   0  0  0  0  0  0
  -21.3644   -5.6791   24.9171 C   0  0  0  0  0  0
  -21.6040   -4.3051   24.7224 C   0  0  0  0  0  0
  -21.8811   -3.8136   23.4345 C   0  0  0  0  0  0
  -21.9191   -4.6963   22.3395 C   0  0  0  0  0  0
  -22.7724  -13.5178   21.1907 C   0  0  0  0  0  0
  -22.1644   -4.2135   21.0977 F   0  0  0  0  0  0
  -21.5613   -3.4535   25.7732 F   0  0  0  0  0  0
  -29.7169  -14.4805   20.2126 N   0  0  0  0  0  0
  -26.2782  -12.9672   20.3235 N   0  0  0  0  0  0
  -25.9408  -11.6713   20.5646 N   0  0  0  0  0  0
  -22.0395  -12.8145   22.0471 N   0  0  0  0  0  0
  -25.3916  -15.2065   20.4283 N   0  0  0  0  0  0
  -31.5038  -15.6817   20.1832 O   0  0  0  0  0  0
  -21.6644   -6.8907   21.4244 O   0  0  0  0  0  0
  -22.3382  -14.5464   20.6746 O   0  0  0  0  0  0
  -24.6991  -31.7857   23.1397 C   0  0  0  0  0  0
  -25.9485  -32.4434   23.8004 C   0  0  1  0  0  0
  -27.2267  -26.5498   20.2425 C   0  0  0  0  0  0
  -25.6023  -33.8279   24.1890 N   0  0  0  0  0  0
  -23.5328  -30.3800   21.4992 C   0  0  2  0  0  0
  -24.9938  -28.6876   20.1286 C   0  0  0  0  0  0
  -22.7830  -29.4232   22.4671 C   0  0  0  0  0  0
  -18.0314  -28.1463   22.8444 C   0  0  0  0  0  0
  -24.1457  -36.7138   23.2646 C   0  0  0  0  0  0
  -26.1208  -30.4693   21.4262 C   0  0  0  0  0  0
  -26.1857  -29.0151   20.7855 C   0  0  0  0  0  0
  -27.2823  -27.9779   20.8025 C   0  0  0  0  0  0
  -26.0029  -26.4712   19.5213 C   0  0  0  0  0  0
  -24.9513  -27.4457   19.4701 C   0  0  0  0  0  0
  -23.8013  -29.6676   20.1400 C   0  0  0  0  0  0
  -25.4125  -36.2893   24.0264 C   0  0  1  0  0  0
  -20.5967  -28.3842   23.1104 C   0  0  2  0  0  0
  -20.6793  -26.9486   22.5406 C   0  0  0  0  0  0
  -19.5774  -26.6394   21.5226 C   0  0  0  0  0  0
  -18.1946  -26.7977   22.1622 C   0  0  0  0  0  0
  -19.1588  -28.8972   23.2761 C   0  0  0  0  0  0
  -18.9504  -30.1535   23.8840 C   0  0  0  0  0  0
  -17.6503  -30.6649   24.0559 C   0  0  0  0  0  0
  -25.9119  -34.9288   23.4919 C   0  0  0  0  0  0
  -16.5389  -29.9144   23.6366 C   0  0  0  0  0  0
  -16.7301  -28.6561   23.0386 C   0  0  0  0  0  0
  -26.4602  -31.6532   25.0687 C   0  0  0  0  0  0
  -25.3624  -31.3928   26.1266 C   0  0  0  0  0  0
  -27.0558  -30.2872   24.6664 C   0  0  0  0  0  0
  -27.6029  -32.4416   25.7539 C   0  0  0  0  0  0
  -27.5525  -37.1729   24.8470 C   0  0  0  0  0  0
  -21.4450  -29.3066   22.3425 N   0  0  0  0  0  0
  -26.4229  -37.3686   23.9411 N   0  0  0  0  0  0
  -24.8105  -30.9128   22.0757 N   0  0  0  0  0  0
  -23.4198  -28.7831   23.3072 O   0  0  0  0  0  0
  -28.1678  -25.2600   20.3050 O   0  0  0  0  0  0
  -26.5774  -34.8877   22.4539 O   0  0  0  0  0  0
  -23.5973  -32.0980   23.6256 O   0  0  0  0  0  0
  -28.1582  -20.0485   20.9797 C   0  0  0  0  0  0
  -28.3877  -18.2879   20.5998 C   0  0  0  0  0  0
  -30.3794  -18.8200   19.9353 C   0  0  0  0  0  0
  -28.8354  -21.5608   20.4216 C   0  0  2  0  0  0
  -29.7100  -20.4366   19.4266 C   0  0  1  0  0  0
  -31.1099  -23.3960   17.0496 C   0  0  0  0  0  0
  -32.0260  -21.5143   19.4712 C   0  0  0  0  0  0
  -31.2460  -20.3543   17.3644 C   0  0  0  0  0  0
  -27.9940  -23.4306   20.2489 C   0  0  0  0  0  0
  -30.2385  -22.5817   18.0366 C   0  0  0  0  0  0
  -30.7989  -21.2191   18.5801 C   0  0  0  0  0  0
  -29.6860  -17.3873   20.2666 N   0  0  0  0  0  0
  -31.3701  -13.5486   19.1107 H   0  0  0  0  0  0
  -30.6385  -12.4773   20.2458 H   0  0  0  0  0  0
  -30.0691  -11.8605   17.8774 H   0  0  0  0  0  0
  -29.4725  -13.4752   17.5794 H   0  0  0  0  0  0
  -28.2549  -11.3286   19.3230 H   0  0  0  0  0  0
  -27.4931  -12.1336   17.9666 H   0  0  0  0  0  0
  -27.4138  -14.2064   19.1827 H   0  0  0  0  0  0
  -28.9088  -12.9517   21.5256 H   0  0  0  0  0  0
  -28.1046  -14.4993   21.5679 H   0  0  0  0  0  0
  -25.2817   -9.5652   22.4759 H   0  0  0  0  0  0
  -23.9965   -7.4649   22.7492 H   0  0  0  0  0  0
  -21.0838   -8.8839   19.8962 H   0  0  0  0  0  0
  -22.3764  -10.9694   19.6134 H   0  0  0  0  0  0
  -21.2067   -7.6151   23.9698 H   0  0  0  0  0  0
  -21.1454   -6.0531   25.9066 H   0  0  0  0  0  0
  -22.0611   -2.7593   23.2859 H   0  0  0  0  0  0
  -22.3987  -11.9825   22.4898 H   0  0  0  0  0  0
  -21.1004  -13.1160   22.2640 H   0  0  0  0  0  0
  -24.6277  -15.8597   20.5567 H   0  0  0  0  0  0
  -26.2475  -15.6514   20.1200 H   0  0  0  0  0  0
  -26.7589  -32.4879   23.0726 H   0  0  0  0  0  0
  -25.0161  -33.9335   25.0039 H   0  0  0  0  0  0
  -22.8684  -31.2222   21.2965 H   0  0  0  0  0  0
  -23.3751  -35.9431   23.3282 H   0  0  0  0  0  0
  -24.3485  -36.8849   22.2059 H   0  0  0  0  0  0
  -23.7167  -37.6287   23.6760 H   0  0  0  0  0  0
  -26.3257  -31.1736   20.6199 H   0  0  0  0  0  0
  -26.9738  -30.5562   22.0869 H   0  0  0  0  0  0
  -28.1787  -28.2421   21.3469 H   0  0  0  0  0  0
  -25.8136  -25.5364   19.0118 H   0  0  0  0  0  0
  -24.0579  -27.1873   18.9199 H   0  0  0  0  0  0
  -24.0106  -30.4267   19.3868 H   0  0  0  0  0  0
  -22.9015  -29.1569   19.7955 H   0  0  0  0  0  0
  -25.1322  -36.1637   25.0754 H   0  0  0  0  0  0
  -21.0023  -28.3480   24.1245 H   0  0  0  0  0  0
  -20.5662  -26.2469   23.3686 H   0  0  0  0  0  0
  -21.6644  -26.7419   22.1222 H   0  0  0  0  0  0
  -19.6934  -25.6278   21.1334 H   0  0  0  0  0  0
  -19.6719  -27.3131   20.6700 H   0  0  0  0  0  0
  -17.4209  -26.6693   21.4047 H   0  0  0  0  0  0
  -18.0342  -26.0161   22.9062 H   0  0  0  0  0  0
  -19.7990  -30.7346   24.2211 H   0  0  0  0  0  0
  -17.5078  -31.6324   24.5171 H   0  0  0  0  0  0
  -15.5398  -30.3059   23.7740 H   0  0  0  0  0  0
  -15.8674  -28.0880   22.7173 H   0  0  0  0  0  0
  -24.5760  -30.7362   25.7525 H   0  0  0  0  0  0
  -24.8888  -32.3229   26.4460 H   0  0  0  0  0  0
  -25.7728  -30.9183   27.0199 H   0  0  0  0  0  0
  -26.3298  -29.6444   24.1699 H   0  0  0  0  0  0
  -27.4006  -29.7355   25.5418 H   0  0  0  0  0  0
  -27.9264  -30.3978   24.0197 H   0  0  0  0  0  0
  -27.2542  -33.3781   26.1896 H   0  0  0  0  0  0
  -28.3988  -32.6889   25.0505 H   0  0  0  0  0  0
  -28.0545  -31.8709   26.5657 H   0  0  0  0  0  0
  -28.2541  -38.0027   24.7508 H   0  0  0  0  0  0
  -28.1026  -36.2558   24.6321 H   0  0  0  0  0  0
  -27.2250  -37.1393   25.8879 H   0  0  0  0  0  0
  -20.9779  -29.8754   21.6494 H   0  0  0  0  0  0
  -26.0040  -38.2713   24.1520 H   0  0  0  0  0  0
  -28.2560  -20.0995   22.0654 H   0  0  0  0  0  0
  -27.0881  -20.1880   20.8267 H   0  0  0  0  0  0
  -27.7648  -18.1150   19.7212 H   0  0  0  0  0  0
  -27.8685  -17.7410   21.3864 H   0  0  0  0  0  0
  -31.0127  -19.0117   20.8016 H   0  0  0  0  0  0
  -31.0866  -18.5005   19.1804 H   0  0  0  0  0  0
  -29.5669  -21.8002   21.1938 H   0  0  0  0  0  0
  -28.9641  -20.1716   18.6713 H   0  0  0  0  0  0
  -30.6340  -24.3495   16.8147 H   0  0  0  0  0  0
  -31.2589  -22.8945   16.0958 H   0  0  0  0  0  0
  -32.0913  -23.6338   17.4588 H   0  0  0  0  0  0
  -32.4911  -20.6050   19.8504 H   0  0  0  0  0  0
  -31.7683  -22.1275   20.3375 H   0  0  0  0  0  0
  -32.7958  -22.0529   18.9183 H   0  0  0  0  0  0
  -31.9149  -19.5379   17.6277 H   0  0  0  0  0  0
  -31.8195  -20.9153   16.6336 H   0  0  0  0  0  0
  -30.3968  -19.9194   16.8339 H   0  0  0  0  0  0
  -27.3060  -23.3091   19.4109 H   0  0  0  0  0  0
  -27.3314  -23.3739   21.1140 H   0  0  0  0  0  0
  -29.2542  -22.4345   17.5862 H   0  0  0  0  0  0
  -30.0880  -23.2602   18.8731 H   0  0  0  0  0  0
  1 25  1  0  0  0
  1 30  2  0  0  0
  1 82  1  0  0  0
  2  3  1  0  0  0
  2 25  1  0  0  0
  2 83  1  0  0  0
  2 84  1  0  0  0
  3  4  1  0  0  0
  3 85  1  0  0  0
  3 86  1  0  0  0
  4  5  1  0  0  0
  4 87  1  0  0  0
  4 88  1  0  0  0
  5  6  1  0  0  0
  5 26  1  0  0  0
  5 89  1  0  0  0
  6 25  1  0  0  0
  6 90  1  0  0  0
  6 91  1  0  0  0
  7  8  2  0  0  0
  7 26  1  0  0  0
  7 29  1  0  0  0
  8  9  1  0  0  0
  8 22  1  0  0  0
  9 10  1  0  0  0
  9 27  2  0  0  0
 10 11  2  0  0  0
 10 15  1  0  0  0
 11 12  1  0  0  0
 11 92  1  0  0  0
 12 13  2  0  0  0
 12 93  1  0  0  0
 13 14  1  0  0  0
 13 31  1  0  0  0
 14 15  2  0  0  0
 14 94  1  0  0  0
 15 95  1  0  0  0
 16 17  2  0  0  0
 16 21  1  0  0  0
 16 31  1  0  0  0
 17 18  1  0  0  0
 17 96  1  0  0  0
 18 19  2  0  0  0
 18 97  1  0  0  0
 19 20  1  0  0  0
 19 24  1  0  0  0
 20 21  2  0  0  0
 20 98  1  0  0  0
 21 23  1  0  0  0
 22 28  1  0  0  0
 22 32  2  0  0  0
 26 27  1  0  0  0
 28 99  1  0  0  0
 28100  1  0  0  0
 29101  1  0  0  0
 29102  1  0  0  0
 33 34  1  0  0  0
 33 66  1  0  0  0
 33 70  2  0  0  0
 34 36  1  0  0  0
 34 59  1  0  0  0
 34103  1  0  0  0
 35 44  2  0  0  0
 35 45  1  0  0  0
 35 68  1  0  0  0
 36 56  1  0  0  0
 36104  1  0  0  0
 37 39  1  0  0  0
 37 47  1  0  0  0
 37 66  1  0  0  0
 37105  1  0  0  0
 38 43  2  0  0  0
 38 46  1  0  0  0
 38 47  1  0  0  0
 39 64  1  0  0  0
 39 67  2  0  0  0
 40 52  1  0  0  0
 40 53  2  0  0  0
 40 58  1  0  0  0
 41106  1  0  0  0
 41107  1  0  0  0
 41108  1  0  0  0
 41 48  1  0  0  0
 42 43  1  0  0  0
 42 66  1  0  0  0
 42109  1  0  0  0
 42110  1  0  0  0
 43 44  1  0  0  0
 44111  1  0  0  0
 45 46  2  0  0  0
 45112  1  0  0  0
 46113  1  0  0  0
 47114  1  0  0  0
 47115  1  0  0  0
 48 56  1  0  0  0
 48 65  1  0  0  0
 48116  1  0  0  0
 49 50  1  0  0  0
 49 53  1  0  0  0
 49 64  1  0  0  0
 49117  1  0  0  0
 50 51  1  0  0  0
 50118  1  0  0  0
 50119  1  0  0  0
 51 52  1  0  0  0
 51120  1  0  0  0
 51121  1  0  0  0
 52122  1  0  0  0
 52123  1  0  0  0
 53 54  1  0  0  0
 54 55  2  0  0  0
 54124  1  0  0  0
 55 57  1  0  0  0
 55125  1  0  0  0
 56 69  2  0  0  0
 57 58  2  0  0  0
 57126  1  0  0  0
 58127  1  0  0  0
 59 60  1  0  0  0
 59 61  1  0  0  0
 59 62  1  0  0  0
 60128  1  0  0  0
 60129  1  0  0  0
 60130  1  0  0  0
 61131  1  0  0  0
 61132  1  0  0  0
 61133  1  0  0  0
 62134  1  0  0  0
 62135  1  0  0  0
 62136  1  0  0  0
 63 65  1  0  0  0
 63137  1  0  0  0
 63138  1  0  0  0
 63139  1  0  0  0
 64140  1  0  0  0
 65141  1  0  0  0
 68 79  1  0  0  0
 71 72  1  0  0  0
 71 74  1  0  0  0
 71142  1  0  0  0
 71143  1  0  0  0
 72 82  1  0  0  0
 72144  1  0  0  0
 72145  1  0  0  0
 73 82  1  0  0  0
 73146  1  0  0  0
 73147  1  0  0  0
 73 75  1  0  0  0
 74 75  1  0  0  0
 74 79  1  0  0  0
 74148  1  0  0  0
 75 81  1  0  0  0
 75149  1  0  0  0
 76 80  1  0  0  0
 76150  1  0  0  0
 76151  1  0  0  0
 76152  1  0  0  0
 77153  1  0  0  0
 77154  1  0  0  0
 77155  1  0  0  0
 77 81  1  0  0  0
 78 81  1  0  0  0
 78156  1  0  0  0
 78157  1  0  0  0
 78158  1  0  0  0
 79159  1  0  0  0
 79160  1  0  0  0
 80 81  1  0  0  0
 80161  1  0  0  0
 80162  1  0  0  0
M  ISO  4   1 100  68 101  79 101  82 100
M  END
> <chiral flag>
0

> <version>
0

> <s_m_source_file>
/data/baiqing/PycharmProjects/Reinvent-master-3.2/result/LINK_invent/BTK/process_docking_weight1_custom_sum_contain_oxygen_bond_distance_aromatic_linkinvent_7_9_3/rearranged_h_0107.sdf

> <i_m_source_file_index>
70

> <r_mmod_Potential_Energy-OPLS-2005>
3632.50317382812

> <r_mmod_Stretch_Energy-OPLS-2005>
1405.34045410156

> <r_mmod_Bend_Energy-OPLS-2005>
971.317321777344

> <r_mmod_Torsional_Energy-OPLS-2005>
350.820709228516

> <r_mmod_Improper_Torsional_Energy-OPLS-2005>
7.05623769760132

> <r_mmod_Van_der_Waal_Energy-OPLS-2005>
138.535095214844

> <r_mmod_Electrostatic_Energy-OPLS-2005>
-299.022613525391

> <r_mmod_Solvation_Energy-OPLS-2005>
-198.885528564453

> <b_mmod_Minimization_Converged-OPLS-2005>
0

> <r_mmod_RMS_Derivative-OPLS-2005>
4.15694808959961

$$$$
72
                    3D
 Structure written by MMmdl.
159167  0  0  1  0            999 V2000
  -30.6034  -14.7388   20.4792 C   0  0  0  0  0  0
  -30.4335  -12.4490   19.4820 C   0  0  0  0  0  0
  -29.5131  -12.5137   18.2407 C   0  0  0  0  0  0
  -28.0380  -12.3387   18.6504 C   0  0  0  0  0  0
  -27.6454  -13.2313   19.8587 C   0  0  2  0  0  0
  -28.6877  -13.1481   20.9976 C   0  0  0  0  0  0
  -25.2499  -13.8193   20.5661 C   0  0  0  0  0  0
  -24.1804  -13.0438   20.9186 C   0  0  0  0  0  0
  -24.6401  -11.6920   20.8747 C   0  0  0  0  0  0
  -23.9076  -10.4301   21.0434 C   0  0  0  0  0  0
  -24.3627   -9.4204   21.9202 C   0  0  0  0  0  0
  -23.6294   -8.2247   22.0762 C   0  0  0  0  0  0
  -22.4272   -8.0286   21.3566 C   0  0  0  0  0  0
  -21.9922   -9.0262   20.4657 C   0  0  0  0  0  0
  -22.7260  -10.2136   20.3072 C   0  0  0  0  0  0
  -21.6838   -6.0730   22.5273 C   0  0  0  0  0  0
  -21.4014   -6.5635   23.8206 C   0  0  0  0  0  0
  -21.3663   -5.6796   24.9174 C   0  0  0  0  0  0
  -21.6043   -4.3059   24.7239 C   0  0  0  0  0  0
  -21.8820   -3.8149   23.4361 C   0  0  0  0  0  0
  -21.9192   -4.6960   22.3417 C   0  0  0  0  0  0
  -22.7825  -13.5212   21.1872 C   0  0  0  0  0  0
  -22.1664   -4.2138   21.0995 F   0  0  0  0  0  0
  -21.5645   -3.4553   25.7758 F   0  0  0  0  0  0
  -29.9922  -13.5057   20.4251 N   0  0  0  0  0  0
  -26.2937  -12.9405   20.3287 N   0  0  0  0  0  0
  -25.9325  -11.6540   20.5744 N   0  0  0  0  0  0
  -22.0493  -12.8180   22.0427 N   0  0  0  0  0  0
  -25.4210  -15.1912   20.4044 N   0  0  0  0  0  0
  -31.7747  -14.8631   20.1048 O   0  0  0  0  0  0
  -21.6638   -6.8878   21.4237 O   0  0  0  0  0  0
  -22.3502  -14.5525   20.6738 O   0  0  0  0  0  0
  -24.6296  -31.8555   23.1969 C   0  0  0  0  0  0
  -25.9119  -32.4761   23.8326 C   0  0  1  0  0  0
  -27.2203  -27.2661   20.1458 C   0  0  0  0  0  0
  -25.5917  -33.8563   24.2244 N   0  0  0  0  0  0
  -23.4256  -30.4776   21.5380 C   0  0  2  0  0  0
  -24.8757  -28.9253   20.1072 C   0  0  0  0  0  0
  -22.7494  -29.4598   22.4882 C   0  0  0  0  0  0
  -18.0291  -28.1386   22.8481 C   0  0  0  0  0  0
  -24.1486  -36.7287   23.2640 C   0  0  0  0  0  0
  -25.9707  -30.7729   21.3758 C   0  0  0  0  0  0
  -26.0446  -29.3950   20.7198 C   0  0  0  0  0  0
  -27.2188  -28.5779   20.7269 C   0  0  0  0  0  0
  -26.0332  -26.8650   19.4924 C   0  0  0  0  0  0
  -24.8764  -27.6701   19.4786 C   0  0  0  0  0  0
  -23.6451  -29.8104   20.1540 C   0  0  0  0  0  0
  -25.4114  -36.3071   24.0325 C   0  0  1  0  0  0
  -20.5892  -28.3701   23.1260 C   0  0  2  0  0  0
  -20.6775  -26.9412   22.5408 C   0  0  0  0  0  0
  -19.5754  -26.6380   21.5208 C   0  0  0  0  0  0
  -18.1932  -26.7933   22.1618 C   0  0  0  0  0  0
  -19.1544  -28.8859   23.2871 C   0  0  0  0  0  0
  -18.9471  -30.1458   23.8893 C   0  0  0  0  0  0
  -17.6476  -30.6587   24.0565 C   0  0  0  0  0  0
  -25.9058  -34.9444   23.5091 C   0  0  0  0  0  0
  -16.5363  -29.9087   23.6333 C   0  0  0  0  0  0
  -16.7286  -28.6504   23.0353 C   0  0  0  0  0  0
  -26.4504  -31.6582   25.0708 C   0  0  0  0  0  0
  -25.3728  -31.3737   26.1428 C   0  0  0  0  0  0
  -27.0349  -30.2990   24.6197 C   0  0  0  0  0  0
  -27.6046  -32.4336   25.7489 C   0  0  0  0  0  0
  -27.5580  -37.1791   24.8463 C   0  0  0  0  0  0
  -21.4196  -29.3049   22.3641 N   0  0  0  0  0  0
  -26.4291  -37.3765   23.9409 N   0  0  0  0  0  0
  -24.6936  -31.0541   22.0931 N   0  0  0  0  0  0
  -23.4209  -28.8156   23.2989 O   0  0  0  0  0  0
  -28.3165  -26.3788   20.2300 O   0  0  0  0  0  0
  -26.5636  -34.8916   22.4667 O   0  0  0  0  0  0
  -23.5452  -32.1376   23.7272 O   0  0  0  0  0  0
  -28.5395  -20.3874   19.5077 C   0  0  0  0  0  0
  -29.0139  -22.2761   20.5428 C   0  0  0  0  0  0
  -29.4573  -21.1542   21.2924 C   0  0  0  0  0  0
  -30.2120  -21.1461   22.5884 C   0  0  0  0  0  0
  -30.5461  -24.2306   20.0580 C   0  0  0  0  0  0
  -29.3016  -24.2100   22.2161 C   0  0  0  0  0  0
  -29.1421  -18.4619   21.1074 C   0  0  0  0  0  0
  -30.1024  -17.3369   20.4516 C   0  0  0  0  0  0
  -28.0910  -24.8894   20.1410 C   0  0  0  0  0  0
  -29.2076  -23.8617   20.7182 C   0  0  0  0  0  0
  -28.4789  -21.7234   19.3735 N   0  0  0  0  0  0
  -29.1014  -19.9271   20.6392 N   0  0  0  0  0  0
  -29.8258  -15.8552   20.7502 N   0  0  0  0  0  0
  -31.4767  -12.5695   19.1836 H   0  0  0  0  0  0
  -30.3769  -11.4685   19.9571 H   0  0  0  0  0  0
  -29.7920  -11.7479   17.5162 H   0  0  0  0  0  0
  -29.6416  -13.4728   17.7363 H   0  0  0  0  0  0
  -27.8909  -11.2894   18.9067 H   0  0  0  0  0  0
  -27.3800  -12.5413   17.8043 H   0  0  0  0  0  0
  -27.6454  -14.2554   19.4876 H   0  0  0  0  0  0
  -28.7152  -12.1440   21.4237 H   0  0  0  0  0  0
  -28.4238  -13.8147   21.8201 H   0  0  0  0  0  0
  -25.2785   -9.5667   22.4756 H   0  0  0  0  0  0
  -24.0016   -7.4627   22.7462 H   0  0  0  0  0  0
  -21.0873   -8.8784   19.8949 H   0  0  0  0  0  0
  -22.3742  -10.9676   19.6182 H   0  0  0  0  0  0
  -21.1998   -7.6139   23.9706 H   0  0  0  0  0  0
  -21.1481   -6.0532   25.9073 H   0  0  0  0  0  0
  -22.0594   -2.7609   23.2861 H   0  0  0  0  0  0
  -22.4120  -11.9848   22.4808 H   0  0  0  0  0  0
  -21.1103  -13.1171   22.2649 H   0  0  0  0  0  0
  -24.6527  -15.8458   20.5072 H   0  0  0  0  0  0
  -26.2614  -15.6217   20.0401 H   0  0  0  0  0  0
  -26.7189  -32.5421   23.1074 H   0  0  0  0  0  0
  -25.0038  -33.9700   25.0371 H   0  0  0  0  0  0
  -22.7218  -31.2993   21.3907 H   0  0  0  0  0  0
  -23.3750  -35.9613   23.3292 H   0  0  0  0  0  0
  -24.3579  -36.8933   22.2057 H   0  0  0  0  0  0
  -23.7247  -37.6484   23.6686 H   0  0  0  0  0  0
  -26.1075  -31.5339   20.6065 H   0  0  0  0  0  0
  -26.8490  -30.8243   22.0082 H   0  0  0  0  0  0
  -28.1113  -28.9293   21.2260 H   0  0  0  0  0  0
  -25.9767  -25.9039   19.0019 H   0  0  0  0  0  0
  -23.9827  -27.3118   18.9853 H   0  0  0  0  0  0
  -23.7664  -30.5857   19.3971 H   0  0  0  0  0  0
  -22.7662  -29.2401   19.8509 H   0  0  0  0  0  0
  -25.1292  -36.1910   25.0817 H   0  0  0  0  0  0
  -20.9993  -28.3295   24.1380 H   0  0  0  0  0  0
  -20.5666  -26.2314   23.3616 H   0  0  0  0  0  0
  -21.6646  -26.7425   22.1212 H   0  0  0  0  0  0
  -19.6914  -25.6290   21.1242 H   0  0  0  0  0  0
  -19.6696  -27.3186   20.6733 H   0  0  0  0  0  0
  -17.4198  -26.6682   21.4022 H   0  0  0  0  0  0
  -18.0339  -26.0073   22.9016 H   0  0  0  0  0  0
  -19.7949  -30.7266   24.2265 H   0  0  0  0  0  0
  -17.5033  -31.6268   24.5163 H   0  0  0  0  0  0
  -15.5367  -30.2995   23.7650 H   0  0  0  0  0  0
  -15.8684  -28.0825   22.7071 H   0  0  0  0  0  0
  -24.5878  -30.7122   25.7752 H   0  0  0  0  0  0
  -24.8954  -32.2914   26.4868 H   0  0  0  0  0  0
  -25.8036  -30.8890   27.0195 H   0  0  0  0  0  0
  -26.2925  -29.6733   24.1221 H   0  0  0  0  0  0
  -27.4031  -29.7267   25.4727 H   0  0  0  0  0  0
  -27.8813  -30.4265   23.9437 H   0  0  0  0  0  0
  -27.2625  -33.3629   26.2056 H   0  0  0  0  0  0
  -28.3852  -32.6907   25.0317 H   0  0  0  0  0  0
  -28.0711  -31.8470   26.5415 H   0  0  0  0  0  0
  -28.2573  -38.0105   24.7515 H   0  0  0  0  0  0
  -28.1090  -36.2634   24.6268 H   0  0  0  0  0  0
  -27.2301  -37.1427   25.8865 H   0  0  0  0  0  0
  -20.9374  -29.8782   21.6849 H   0  0  0  0  0  0
  -26.0162  -38.2832   24.1423 H   0  0  0  0  0  0
  -28.1265  -19.7188   18.7656 H   0  0  0  0  0  0
  -29.6537  -21.6524   23.3759 H   0  0  0  0  0  0
  -31.1693  -21.6560   22.4714 H   0  0  0  0  0  0
  -30.4308  -20.1428   22.9451 H   0  0  0  0  0  0
  -31.3739  -23.7034   20.5321 H   0  0  0  0  0  0
  -30.7497  -25.2999   20.1393 H   0  0  0  0  0  0
  -30.5447  -23.9682   19.0003 H   0  0  0  0  0  0
  -30.1897  -23.7922   22.6827 H   0  0  0  0  0  0
  -28.4268  -23.8467   22.7558 H   0  0  0  0  0  0
  -29.3564  -25.2875   22.3737 H   0  0  0  0  0  0
  -29.2998  -18.4575   22.1846 H   0  0  0  0  0  0
  -28.1212  -18.0974   20.9935 H   0  0  0  0  0  0
  -31.1332  -17.5554   20.7350 H   0  0  0  0  0  0
  -30.0658  -17.4504   19.3679 H   0  0  0  0  0  0
  -27.1550  -24.6547   20.6502 H   0  0  0  0  0  0
  -27.9257  -24.6539   19.0896 H   0  0  0  0  0  0
  -28.8888  -15.6433   21.0599 H   0  0  0  0  0  0
  1 25  1  0  0  0
  1 30  2  0  0  0
  1 83  1  0  0  0
  2  3  1  0  0  0
  2 25  1  0  0  0
  2 84  1  0  0  0
  2 85  1  0  0  0
  3  4  1  0  0  0
  3 86  1  0  0  0
  3 87  1  0  0  0
  4  5  1  0  0  0
  4 88  1  0  0  0
  4 89  1  0  0  0
  5  6  1  0  0  0
  5 26  1  0  0  0
  5 90  1  0  0  0
  6 25  1  0  0  0
  6 91  1  0  0  0
  6 92  1  0  0  0
  7  8  2  0  0  0
  7 26  1  0  0  0
  7 29  1  0  0  0
  8  9  1  0  0  0
  8 22  1  0  0  0
  9 10  1  0  0  0
  9 27  2  0  0  0
 10 11  2  0  0  0
 10 15  1  0  0  0
 11 12  1  0  0  0
 11 93  1  0  0  0
 12 13  2  0  0  0
 12 94  1  0  0  0
 13 14  1  0  0  0
 13 31  1  0  0  0
 14 15  2  0  0  0
 14 95  1  0  0  0
 15 96  1  0  0  0
 16 17  2  0  0  0
 16 21  1  0  0  0
 16 31  1  0  0  0
 17 18  1  0  0  0
 17 97  1  0  0  0
 18 19  2  0  0  0
 18 98  1  0  0  0
 19 20  1  0  0  0
 19 24  1  0  0  0
 20 21  2  0  0  0
 20 99  1  0  0  0
 21 23  1  0  0  0
 22 28  1  0  0  0
 22 32  2  0  0  0
 26 27  1  0  0  0
 28100  1  0  0  0
 28101  1  0  0  0
 29102  1  0  0  0
 29103  1  0  0  0
 33 34  1  0  0  0
 33 66  1  0  0  0
 33 70  2  0  0  0
 34 36  1  0  0  0
 34 59  1  0  0  0
 34104  1  0  0  0
 35 44  2  0  0  0
 35 45  1  0  0  0
 35 68  1  0  0  0
 36 56  1  0  0  0
 36105  1  0  0  0
 37 39  1  0  0  0
 37 47  1  0  0  0
 37 66  1  0  0  0
 37106  1  0  0  0
 38 43  2  0  0  0
 38 46  1  0  0  0
 38 47  1  0  0  0
 39 64  1  0  0  0
 39 67  2  0  0  0
 40 52  1  0  0  0
 40 53  2  0  0  0
 40 58  1  0  0  0
 41107  1  0  0  0
 41108  1  0  0  0
 41109  1  0  0  0
 41 48  1  0  0  0
 42 43  1  0  0  0
 42 66  1  0  0  0
 42110  1  0  0  0
 42111  1  0  0  0
 43 44  1  0  0  0
 44112  1  0  0  0
 45 46  2  0  0  0
 45113  1  0  0  0
 46114  1  0  0  0
 47115  1  0  0  0
 47116  1  0  0  0
 48 56  1  0  0  0
 48 65  1  0  0  0
 48117  1  0  0  0
 49 50  1  0  0  0
 49 53  1  0  0  0
 49 64  1  0  0  0
 49118  1  0  0  0
 50 51  1  0  0  0
 50119  1  0  0  0
 50120  1  0  0  0
 51 52  1  0  0  0
 51121  1  0  0  0
 51122  1  0  0  0
 52123  1  0  0  0
 52124  1  0  0  0
 53 54  1  0  0  0
 54 55  2  0  0  0
 54125  1  0  0  0
 55 57  1  0  0  0
 55126  1  0  0  0
 56 69  2  0  0  0
 57 58  2  0  0  0
 57127  1  0  0  0
 58128  1  0  0  0
 59 60  1  0  0  0
 59 61  1  0  0  0
 59 62  1  0  0  0
 60129  1  0  0  0
 60130  1  0  0  0
 60131  1  0  0  0
 61132  1  0  0  0
 61133  1  0  0  0
 61134  1  0  0  0
 62135  1  0  0  0
 62136  1  0  0  0
 62137  1  0  0  0
 63 65  1  0  0  0
 63138  1  0  0  0
 63139  1  0  0  0
 63140  1  0  0  0
 64141  1  0  0  0
 65142  1  0  0  0
 68 79  1  0  0  0
 71 81  2  0  0  0
 71 82  1  0  0  0
 71143  1  0  0  0
 72 73  2  0  0  0
 72 80  1  0  0  0
 72 81  1  0  0  0
 73 74  1  0  0  0
 73 82  1  0  0  0
 74144  1  0  0  0
 74145  1  0  0  0
 74146  1  0  0  0
 75147  1  0  0  0
 75148  1  0  0  0
 75149  1  0  0  0
 75 80  1  0  0  0
 76 80  1  0  0  0
 76150  1  0  0  0
 76151  1  0  0  0
 76152  1  0  0  0
 77 78  1  0  0  0
 77 82  1  0  0  0
 77153  1  0  0  0
 77154  1  0  0  0
 78 83  1  0  0  0
 78155  1  0  0  0
 78156  1  0  0  0
 79 80  1  0  0  0
 79157  1  0  0  0
 79158  1  0  0  0
 83159  1  0  0  0
M  ISO  4   1 100  68 101  79 101  83 100
M  END
> <chiral flag>
0

> <version>
0

> <s_m_source_file>
/data/baiqing/PycharmProjects/Reinvent-master-3.2/result/LINK_invent/BTK/process_docking_weight1_custom_sum_contain_oxygen_bond_distance_aromatic_linkinvent_7_9_3/rearranged_h_0107.sdf

> <i_m_source_file_index>
71

> <r_mmod_Potential_Energy-OPLS-2005>
109.669342041016

> <r_mmod_Stretch_Energy-OPLS-2005>
130.191116333008

> <r_mmod_Bend_Energy-OPLS-2005>
170.755554199219

> <r_mmod_Torsional_Energy-OPLS-2005>
217.18359375

> <r_mmod_Improper_Torsional_Energy-OPLS-2005>
6.56250095367432

> <r_mmod_Van_der_Waal_Energy-OPLS-2005>
117.144142150879

> <r_mmod_Electrostatic_Energy-OPLS-2005>
-389.857513427734

> <r_mmod_Solvation_Energy-OPLS-2005>
-225.090393066406

> <b_mmod_Minimization_Converged-OPLS-2005>
0

> <r_mmod_RMS_Derivative-OPLS-2005>
2.52879476547241

$$$$
73
                    3D
 Structure written by MMmdl.
169177  0  0  1  0            999 V2000
  -30.5830  -14.8980   20.4261 C   0  0  0  0  0  0
  -30.4323  -12.5467   19.5161 C   0  0  0  0  0  0
  -29.5329  -12.5378   18.2579 C   0  0  0  0  0  0
  -28.0569  -12.3394   18.6555 C   0  0  0  0  0  0
  -27.6330  -13.2562   19.8355 C   0  0  2  0  0  0
  -28.6724  -13.2624   20.9790 C   0  0  0  0  0  0
  -25.2482  -13.8242   20.5715 C   0  0  0  0  0  0
  -24.1805  -13.0454   20.9203 C   0  0  0  0  0  0
  -24.6418  -11.6944   20.8713 C   0  0  0  0  0  0
  -23.9081  -10.4308   21.0380 C   0  0  0  0  0  0
  -24.3623   -9.4227   21.9144 C   0  0  0  0  0  0
  -23.6304   -8.2244   22.0715 C   0  0  0  0  0  0
  -22.4275   -8.0271   21.3518 C   0  0  0  0  0  0
  -21.9920   -9.0249   20.4615 C   0  0  0  0  0  0
  -22.7255  -10.2131   20.3037 C   0  0  0  0  0  0
  -21.6866   -6.0741   22.5284 C   0  0  0  0  0  0
  -21.4016   -6.5634   23.8222 C   0  0  0  0  0  0
  -21.3667   -5.6769   24.9172 C   0  0  0  0  0  0
  -21.6046   -4.3040   24.7210 C   0  0  0  0  0  0
  -21.8819   -3.8146   23.4335 C   0  0  0  0  0  0
  -21.9186   -4.6967   22.3400 C   0  0  0  0  0  0
  -22.7800  -13.5218   21.1831 C   0  0  0  0  0  0
  -22.1663   -4.2165   21.0967 F   0  0  0  0  0  0
  -21.5618   -3.4514   25.7712 F   0  0  0  0  0  0
  -29.9649  -13.6506   20.4031 N   0  0  0  0  0  0
  -26.2902  -12.9493   20.3180 N   0  0  0  0  0  0
  -25.9345  -11.6620   20.5675 N   0  0  0  0  0  0
  -22.0432  -12.8242   22.0415 N   0  0  0  0  0  0
  -25.4113  -15.1957   20.4160 N   0  0  0  0  0  0
  -31.7722  -14.9327   20.0979 O   0  0  0  0  0  0
  -21.6632   -6.8882   21.4248 O   0  0  0  0  0  0
  -22.3478  -14.5499   20.6648 O   0  0  0  0  0  0
  -24.6436  -31.8457   23.1886 C   0  0  0  0  0  0
  -25.9235  -32.4692   23.8250 C   0  0  1  0  0  0
  -27.2124  -27.1566   20.1535 C   0  0  0  0  0  0
  -25.6002  -33.8499   24.2213 N   0  0  0  0  0  0
  -23.4438  -30.4686   21.5317 C   0  0  2  0  0  0
  -24.8916  -28.9020   20.0975 C   0  0  0  0  0  0
  -22.7555  -29.4584   22.4837 C   0  0  0  0  0  0
  -18.0306  -28.1402   22.8469 C   0  0  0  0  0  0
  -24.1498  -36.7285   23.2632 C   0  0  0  0  0  0
  -25.9929  -30.7285   21.3780 C   0  0  0  0  0  0
  -26.0613  -29.3392   20.7276 C   0  0  0  0  0  0
  -27.2181  -28.4785   20.7479 C   0  0  0  0  0  0
  -26.0233  -26.8253   19.4583 C   0  0  0  0  0  0
  -24.8887  -27.6615   19.4409 C   0  0  0  0  0  0
  -23.6662  -29.8022   20.1461 C   0  0  0  0  0  0
  -25.4121  -36.3046   24.0316 C   0  0  1  0  0  0
  -20.5917  -28.3741   23.1240 C   0  0  2  0  0  0
  -20.6815  -26.9453   22.5403 C   0  0  0  0  0  0
  -19.5785  -26.6402   21.5215 C   0  0  0  0  0  0
  -18.1965  -26.7942   22.1617 C   0  0  0  0  0  0
  -19.1565  -28.8886   23.2847 C   0  0  0  0  0  0
  -18.9482  -30.1482   23.8872 C   0  0  0  0  0  0
  -17.6471  -30.6590   24.0570 C   0  0  0  0  0  0
  -25.9065  -34.9410   23.5063 C   0  0  0  0  0  0
  -16.5368  -29.9090   23.6313 C   0  0  0  0  0  0
  -16.7298  -28.6522   23.0327 C   0  0  0  0  0  0
  -26.4566  -31.6519   25.0651 C   0  0  0  0  0  0
  -25.3766  -31.3691   26.1351 C   0  0  0  0  0  0
  -27.0404  -30.2924   24.6158 C   0  0  0  0  0  0
  -27.6101  -32.4251   25.7449 C   0  0  0  0  0  0
  -27.5585  -37.1802   24.8463 C   0  0  0  0  0  0
  -21.4246  -29.3068   22.3601 N   0  0  0  0  0  0
  -26.4288  -37.3766   23.9414 N   0  0  0  0  0  0
  -24.7138  -31.0344   22.0895 N   0  0  0  0  0  0
  -23.4211  -28.8124   23.2967 O   0  0  0  0  0  0
  -28.2806  -26.2039   20.2843 O   0  0  0  0  0  0
  -26.5617  -34.8923   22.4617 O   0  0  0  0  0  0
  -23.5573  -32.1318   23.7134 O   0  0  0  0  0  0
  -31.8441  -19.9672   22.1370 C   0  0  0  0  0  0
  -31.3182  -19.0644   18.4892 C   0  0  0  0  0  0
  -30.9001  -17.6341   18.8285 C   0  0  0  0  0  0
  -32.0184  -19.7223   19.6860 C   0  0  0  0  0  0
  -29.8943  -17.5669   20.0054 C   0  0  1  0  0  0
  -29.9263  -19.0030   20.8947 C   0  0  2  0  0  0
  -33.1838  -20.7029   22.1263 C   0  0  0  0  0  0
  -26.8169  -21.5915   18.6623 C   0  0  0  0  0  0
  -28.9080  -20.3560   20.8151 C   0  0  0  0  0  0
  -28.3482  -21.7376   18.6334 C   0  0  0  0  0  0
  -28.6206  -23.3347   20.6899 C   0  0  0  0  0  0
  -28.2588  -24.7251   19.8219 C   0  0  0  0  0  0
  -29.0311  -21.8409   20.0181 C   0  0  1  0  0  0
  -31.3012  -19.5479   20.9624 N   0  0  0  0  0  0
  -29.8309  -16.0931   20.5997 N   0  0  0  0  0  0
  -31.2948  -19.8082   23.2308 O   0  0  0  0  0  0
  -31.4802  -12.6527   19.2304 H   0  0  0  0  0  0
  -30.3682  -11.5928   20.0391 H   0  0  0  0  0  0
  -29.8536  -11.7544   17.5682 H   0  0  0  0  0  0
  -29.6442  -13.4831   17.7229 H   0  0  0  0  0  0
  -27.9340  -11.2944   18.9389 H   0  0  0  0  0  0
  -27.4096  -12.4965   17.7905 H   0  0  0  0  0  0
  -27.6053  -14.2659   19.4218 H   0  0  0  0  0  0
  -28.7400  -12.2840   21.4553 H   0  0  0  0  0  0
  -28.3797  -13.9668   21.7575 H   0  0  0  0  0  0
  -25.2788   -9.5686   22.4701 H   0  0  0  0  0  0
  -24.0010   -7.4633   22.7441 H   0  0  0  0  0  0
  -21.0835   -8.8772   19.8937 H   0  0  0  0  0  0
  -22.3717  -10.9635   19.6114 H   0  0  0  0  0  0
  -21.2044   -7.6139   23.9749 H   0  0  0  0  0  0
  -21.1480   -6.0479   25.9070 H   0  0  0  0  0  0
  -22.0601   -2.7600   23.2819 H   0  0  0  0  0  0
  -22.4046  -11.9977   22.4961 H   0  0  0  0  0  0
  -21.0997  -13.1210   22.2498 H   0  0  0  0  0  0
  -24.6324  -15.8377   20.5247 H   0  0  0  0  0  0
  -26.2527  -15.6458   20.0825 H   0  0  0  0  0  0
  -26.7287  -32.5331   23.0968 H   0  0  0  0  0  0
  -25.0221  -33.9607   25.0419 H   0  0  0  0  0  0
  -22.7428  -31.2932   21.3818 H   0  0  0  0  0  0
  -23.3754  -35.9624   23.3259 H   0  0  0  0  0  0
  -24.3602  -36.8945   22.2056 H   0  0  0  0  0  0
  -23.7261  -37.6485   23.6667 H   0  0  0  0  0  0
  -26.1298  -31.4773   20.5960 H   0  0  0  0  0  0
  -26.8733  -30.7918   22.0070 H   0  0  0  0  0  0
  -28.1031  -28.8040   21.2766 H   0  0  0  0  0  0
  -25.9184  -25.8926   18.9287 H   0  0  0  0  0  0
  -24.0040  -27.3332   18.9126 H   0  0  0  0  0  0
  -23.8004  -30.5806   19.3925 H   0  0  0  0  0  0
  -22.7802  -29.2456   19.8362 H   0  0  0  0  0  0
  -25.1309  -36.1867   25.0808 H   0  0  0  0  0  0
  -21.0009  -28.3343   24.1361 H   0  0  0  0  0  0
  -20.5750  -26.2358   23.3621 H   0  0  0  0  0  0
  -21.6682  -26.7491   22.1183 H   0  0  0  0  0  0
  -19.6958  -25.6312   21.1260 H   0  0  0  0  0  0
  -19.6717  -27.3191   20.6731 H   0  0  0  0  0  0
  -17.4245  -26.6681   21.4009 H   0  0  0  0  0  0
  -18.0353  -26.0089   22.9020 H   0  0  0  0  0  0
  -19.7957  -30.7317   24.2218 H   0  0  0  0  0  0
  -17.5026  -31.6245   24.5214 H   0  0  0  0  0  0
  -15.5370  -30.2990   23.7651 H   0  0  0  0  0  0
  -15.8701  -28.0849   22.7009 H   0  0  0  0  0  0
  -24.5981  -30.6981   25.7707 H   0  0  0  0  0  0
  -24.8900  -32.2850   26.4698 H   0  0  0  0  0  0
  -25.8077  -30.8949   27.0173 H   0  0  0  0  0  0
  -26.2974  -29.6637   24.1222 H   0  0  0  0  0  0
  -27.4131  -29.7223   25.4682 H   0  0  0  0  0  0
  -27.8842  -30.4195   23.9369 H   0  0  0  0  0  0
  -27.2714  -33.3596   26.1943 H   0  0  0  0  0  0
  -28.3963  -32.6717   25.0294 H   0  0  0  0  0  0
  -28.0685  -31.8392   26.5433 H   0  0  0  0  0  0
  -28.2583  -38.0120   24.7517 H   0  0  0  0  0  0
  -28.1096  -36.2643   24.6255 H   0  0  0  0  0  0
  -27.2299  -37.1415   25.8867 H   0  0  0  0  0  0
  -20.9446  -29.8810   21.6811 H   0  0  0  0  0  0
  -26.0148  -38.2844   24.1387 H   0  0  0  0  0  0
  -30.4476  -19.6418   18.1962 H   0  0  0  0  0  0
  -31.9791  -19.0713   17.6219 H   0  0  0  0  0  0
  -31.8193  -17.1086   19.0749 H   0  0  0  0  0  0
  -30.4881  -17.1483   17.9436 H   0  0  0  0  0  0
  -32.1597  -20.7838   19.4772 H   0  0  0  0  0  0
  -33.0127  -19.2837   19.7833 H   0  0  0  0  0  0
  -28.9132  -17.6284   19.5346 H   0  0  0  0  0  0
  -29.6753  -18.6042   21.8788 H   0  0  0  0  0  0
  -33.9937  -20.0130   21.8926 H   0  0  0  0  0  0
  -33.3784  -21.1472   23.1035 H   0  0  0  0  0  0
  -33.1832  -21.5186   21.4026 H   0  0  0  0  0  0
  -26.4277  -21.5102   17.6489 H   0  0  0  0  0  0
  -26.3210  -22.4408   19.1292 H   0  0  0  0  0  0
  -26.5068  -20.6939   19.1916 H   0  0  0  0  0  0
  -28.9218  -20.6881   21.8529 H   0  0  0  0  0  0
  -27.8912  -19.9804   20.7175 H   0  0  0  0  0  0
  -28.6038  -22.6097   18.0322 H   0  0  0  0  0  0
  -28.7572  -20.9001   18.0754 H   0  0  0  0  0  0
  -27.7625  -23.1614   21.3395 H   0  0  0  0  0  0
  -29.4212  -23.5925   21.3825 H   0  0  0  0  0  0
  -27.3005  -24.5003   19.3690 H   0  0  0  0  0  0
  -28.9438  -24.7293   18.9750 H   0  0  0  0  0  0
  -30.0953  -21.9506   19.8049 H   0  0  0  0  0  0
  -28.9211  -15.8893   20.9894 H   0  0  0  0  0  0
  1 25  1  0  0  0
  1 30  2  0  0  0
  1 85  1  0  0  0
  2  3  1  0  0  0
  2 25  1  0  0  0
  2 87  1  0  0  0
  2 88  1  0  0  0
  3  4  1  0  0  0
  3 89  1  0  0  0
  3 90  1  0  0  0
  4  5  1  0  0  0
  4 91  1  0  0  0
  4 92  1  0  0  0
  5  6  1  0  0  0
  5 26  1  0  0  0
  5 93  1  0  0  0
  6 25  1  0  0  0
  6 94  1  0  0  0
  6 95  1  0  0  0
  7  8  2  0  0  0
  7 26  1  0  0  0
  7 29  1  0  0  0
  8  9  1  0  0  0
  8 22  1  0  0  0
  9 10  1  0  0  0
  9 27  2  0  0  0
 10 11  2  0  0  0
 10 15  1  0  0  0
 11 12  1  0  0  0
 11 96  1  0  0  0
 12 13  2  0  0  0
 12 97  1  0  0  0
 13 14  1  0  0  0
 13 31  1  0  0  0
 14 15  2  0  0  0
 14 98  1  0  0  0
 15 99  1  0  0  0
 16 17  2  0  0  0
 16 21  1  0  0  0
 16 31  1  0  0  0
 17 18  1  0  0  0
 17100  1  0  0  0
 18 19  2  0  0  0
 18101  1  0  0  0
 19 20  1  0  0  0
 19 24  1  0  0  0
 20 21  2  0  0  0
 20102  1  0  0  0
 21 23  1  0  0  0
 22 28  1  0  0  0
 22 32  2  0  0  0
 26 27  1  0  0  0
 28103  1  0  0  0
 28104  1  0  0  0
 29105  1  0  0  0
 29106  1  0  0  0
 33 34  1  0  0  0
 33 66  1  0  0  0
 33 70  2  0  0  0
 34 36  1  0  0  0
 34 59  1  0  0  0
 34107  1  0  0  0
 35 44  2  0  0  0
 35 45  1  0  0  0
 35 68  1  0  0  0
 36 56  1  0  0  0
 36108  1  0  0  0
 37 39  1  0  0  0
 37 47  1  0  0  0
 37 66  1  0  0  0
 37109  1  0  0  0
 38 43  2  0  0  0
 38 46  1  0  0  0
 38 47  1  0  0  0
 39 64  1  0  0  0
 39 67  2  0  0  0
 40 52  1  0  0  0
 40 53  2  0  0  0
 40 58  1  0  0  0
 41110  1  0  0  0
 41111  1  0  0  0
 41112  1  0  0  0
 41 48  1  0  0  0
 42 43  1  0  0  0
 42 66  1  0  0  0
 42113  1  0  0  0
 42114  1  0  0  0
 43 44  1  0  0  0
 44115  1  0  0  0
 45 46  2  0  0  0
 45116  1  0  0  0
 46117  1  0  0  0
 47118  1  0  0  0
 47119  1  0  0  0
 48 56  1  0  0  0
 48 65  1  0  0  0
 48120  1  0  0  0
 49 50  1  0  0  0
 49 53  1  0  0  0
 49 64  1  0  0  0
 49121  1  0  0  0
 50 51  1  0  0  0
 50122  1  0  0  0
 50123  1  0  0  0
 51 52  1  0  0  0
 51124  1  0  0  0
 51125  1  0  0  0
 52126  1  0  0  0
 52127  1  0  0  0
 53 54  1  0  0  0
 54 55  2  0  0  0
 54128  1  0  0  0
 55 57  1  0  0  0
 55129  1  0  0  0
 56 69  2  0  0  0
 57 58  2  0  0  0
 57130  1  0  0  0
 58131  1  0  0  0
 59 60  1  0  0  0
 59 61  1  0  0  0
 59 62  1  0  0  0
 60132  1  0  0  0
 60133  1  0  0  0
 60134  1  0  0  0
 61135  1  0  0  0
 61136  1  0  0  0
 61137  1  0  0  0
 62138  1  0  0  0
 62139  1  0  0  0
 62140  1  0  0  0
 63 65  1  0  0  0
 63141  1  0  0  0
 63142  1  0  0  0
 63143  1  0  0  0
 64144  1  0  0  0
 65145  1  0  0  0
 68 82  1  0  0  0
 71 77  1  0  0  0
 71 84  1  0  0  0
 71 86  2  0  0  0
 72 73  1  0  0  0
 72 74  1  0  0  0
 72146  1  0  0  0
 72147  1  0  0  0
 73 75  1  0  0  0
 73148  1  0  0  0
 73149  1  0  0  0
 74 84  1  0  0  0
 74150  1  0  0  0
 74151  1  0  0  0
 75 76  1  0  0  0
 75 85  1  0  0  0
 75152  1  0  0  0
 76 79  1  0  0  0
 76 84  1  0  0  0
 76153  1  0  0  0
 77154  1  0  0  0
 77155  1  0  0  0
 77156  1  0  0  0
 78 80  1  0  0  0
 78157  1  0  0  0
 78158  1  0  0  0
 78159  1  0  0  0
 79160  1  0  0  0
 79161  1  0  0  0
 79 83  1  0  0  0
 80 83  1  0  0  0
 80162  1  0  0  0
 80163  1  0  0  0
 81 82  1  0  0  0
 81 83  1  0  0  0
 81164  1  0  0  0
 81165  1  0  0  0
 82166  1  0  0  0
 82167  1  0  0  0
 83168  1  0  0  0
 85169  1  0  0  0
M  ISO  4   1 100  68 101  82 101  85 100
M  END
> <chiral flag>
0

> <version>
0

> <s_m_source_file>
/data/baiqing/PycharmProjects/Reinvent-master-3.2/result/LINK_invent/BTK/process_docking_weight1_custom_sum_contain_oxygen_bond_distance_aromatic_linkinvent_7_9_3/rearranged_h_0107.sdf

> <i_m_source_file_index>
72

> <r_mmod_Potential_Energy-OPLS-2005>
624.304565429688

> <r_mmod_Stretch_Energy-OPLS-2005>
275.136077880859

> <r_mmod_Bend_Energy-OPLS-2005>
326.439453125

> <r_mmod_Torsional_Energy-OPLS-2005>
336.526489257812

> <r_mmod_Improper_Torsional_Energy-OPLS-2005>
5.92485952377319

> <r_mmod_Van_der_Waal_Energy-OPLS-2005>
132.559631347656

> <r_mmod_Electrostatic_Energy-OPLS-2005>
-396.629058837891

> <r_mmod_Solvation_Energy-OPLS-2005>
-220.259918212891

> <b_mmod_Minimization_Converged-OPLS-2005>
0

> <r_mmod_RMS_Derivative-OPLS-2005>
4.38862609863281

$$$$
74
                    3D
 Structure written by MMmdl.
166174  0  0  1  0            999 V2000
  -30.3794  -15.3785   20.3858 C   0  0  0  0  0  0
  -30.4411  -12.8959   19.5304 C   0  0  0  0  0  0
  -29.5369  -12.6156   18.2985 C   0  0  0  0  0  0
  -28.0882  -12.3213   18.7245 C   0  0  0  0  0  0
  -27.6084  -13.2885   19.8328 C   0  0  2  0  0  0
  -28.6456  -13.4826   20.9615 C   0  0  0  0  0  0
  -25.2353  -13.8268   20.5806 C   0  0  0  0  0  0
  -24.1707  -13.0426   20.9302 C   0  0  0  0  0  0
  -24.6393  -11.6942   20.8784 C   0  0  0  0  0  0
  -23.9093  -10.4290   21.0422 C   0  0  0  0  0  0
  -24.3631   -9.4199   21.9201 C   0  0  0  0  0  0
  -23.6305   -8.2230   22.0767 C   0  0  0  0  0  0
  -22.4292   -8.0265   21.3557 C   0  0  0  0  0  0
  -21.9943   -9.0236   20.4641 C   0  0  0  0  0  0
  -22.7268  -10.2118   20.3058 C   0  0  0  0  0  0
  -21.6854   -6.0726   22.5281 C   0  0  0  0  0  0
  -21.4007   -6.5634   23.8205 C   0  0  0  0  0  0
  -21.3660   -5.6796   24.9178 C   0  0  0  0  0  0
  -21.6048   -4.3052   24.7226 C   0  0  0  0  0  0
  -21.8821   -3.8139   23.4346 C   0  0  0  0  0  0
  -21.9193   -4.6959   22.3405 C   0  0  0  0  0  0
  -22.7722  -13.5160   21.1925 C   0  0  0  0  0  0
  -22.1666   -4.2146   21.0988 F   0  0  0  0  0  0
  -21.5632   -3.4534   25.7744 F   0  0  0  0  0  0
  -29.8536  -14.0418   20.3253 N   0  0  0  0  0  0
  -26.2805  -12.9562   20.3319 N   0  0  0  0  0  0
  -25.9351  -11.6651   20.5794 N   0  0  0  0  0  0
  -22.0384  -12.8120   22.0465 N   0  0  0  0  0  0
  -25.3932  -15.2002   20.4173 N   0  0  0  0  0  0
  -31.6092  -15.3956   20.2123 O   0  0  0  0  0  0
  -21.6642   -6.8876   21.4247 O   0  0  0  0  0  0
  -22.3394  -14.5470   20.6786 O   0  0  0  0  0  0
  -24.6743  -31.8112   23.1641 C   0  0  0  0  0  0
  -25.9385  -32.4498   23.8150 C   0  0  1  0  0  0
  -27.2259  -26.8304   20.2002 C   0  0  0  0  0  0
  -25.6063  -33.8328   24.2066 N   0  0  0  0  0  0
  -23.4935  -30.4222   21.5124 C   0  0  2  0  0  0
  -24.9486  -28.7865   20.1136 C   0  0  0  0  0  0
  -22.7691  -29.4413   22.4717 C   0  0  0  0  0  0
  -18.0318  -28.1425   22.8463 C   0  0  0  0  0  0
  -24.1486  -36.7096   23.2667 C   0  0  0  0  0  0
  -26.0695  -30.5819   21.4152 C   0  0  0  0  0  0
  -26.1349  -29.1649   20.7556 C   0  0  0  0  0  0
  -27.2632  -28.2126   20.7683 C   0  0  0  0  0  0
  -26.0085  -26.6265   19.5064 C   0  0  0  0  0  0
  -24.9171  -27.5407   19.4659 C   0  0  0  0  0  0
  -23.7422  -29.7306   20.1428 C   0  0  0  0  0  0
  -25.4149  -36.2891   24.0292 C   0  0  1  0  0  0
  -20.5953  -28.3814   23.1121 C   0  0  2  0  0  0
  -20.6812  -26.9488   22.5371 C   0  0  0  0  0  0
  -19.5780  -26.6406   21.5191 C   0  0  0  0  0  0
  -18.1958  -26.7960   22.1590 C   0  0  0  0  0  0
  -19.1593  -28.8924   23.2780 C   0  0  0  0  0  0
  -18.9501  -30.1498   23.8846 C   0  0  0  0  0  0
  -17.6508  -30.6622   24.0569 C   0  0  0  0  0  0
  -25.9136  -34.9289   23.4988 C   0  0  0  0  0  0
  -16.5386  -29.9117   23.6383 C   0  0  0  0  0  0
  -16.7305  -28.6520   23.0429 C   0  0  0  0  0  0
  -26.4648  -31.6473   25.0707 C   0  0  0  0  0  0
  -25.3789  -31.3607   26.1354 C   0  0  0  0  0  0
  -27.0656  -30.2859   24.6528 C   0  0  0  0  0  0
  -27.6091  -32.4377   25.7496 C   0  0  0  0  0  0
  -27.5541  -37.1711   24.8503 C   0  0  0  0  0  0
  -21.4350  -29.3061   22.3420 N   0  0  0  0  0  0
  -26.4256  -37.3662   23.9432 N   0  0  0  0  0  0
  -24.7678  -30.9689   22.0823 N   0  0  0  0  0  0
  -23.4165  -28.8001   23.3025 O   0  0  0  0  0  0
  -28.2310  -25.6923   20.2492 O   0  0  0  0  0  0
  -26.5706  -34.8824   22.4567 O   0  0  0  0  0  0
  -23.5795  -32.1158   23.6652 O   0  0  0  0  0  0
  -30.3573  -19.0562   21.5892 C   0  0  0  0  0  0
  -30.1179  -20.4069   21.5588 C   0  0  0  0  0  0
  -28.9977  -19.4842   19.9671 C   0  0  0  0  0  0
  -31.2270  -18.2843   22.5681 C   0  0  0  0  0  0
  -27.2622  -23.8372   21.6685 C   0  0  0  0  0  0
  -30.7406  -21.4227   22.5137 C   0  0  0  0  0  0
  -29.7536  -22.0117   23.5310 C   0  0  0  0  0  0
  -30.4060  -23.0826   24.4293 C   0  0  0  0  0  0
  -29.0524  -22.4874   20.0497 C   0  0  0  0  0  0
  -29.4440  -23.7727   25.4212 C   0  0  0  0  0  0
  -28.0177  -24.0099   20.3499 C   0  0  2  0  0  0
  -29.2193  -20.8298   20.5335 N   0  0  0  0  0  0
  -29.7072  -18.3522   20.5756 N   0  0  0  0  0  0
  -29.5416  -16.6292   20.4433 N   0  0  0  0  0  0
  -29.0142  -22.9001   26.5296 N   0  3  0  0  0  0
  -28.2561  -19.3034   18.9955 O   0  0  0  0  0  0
  -31.4472  -13.1382   19.1911 H   0  0  0  0  0  0
  -30.5459  -11.9991   20.1447 H   0  0  0  0  0  0
  -29.9275  -11.7855   17.7088 H   0  0  0  0  0  0
  -29.5482  -13.4884   17.6445 H   0  0  0  0  0  0
  -28.0500  -11.2943   19.0913 H   0  0  0  0  0  0
  -27.4195  -12.3667   17.8633 H   0  0  0  0  0  0
  -27.5093  -14.2529   19.3334 H   0  0  0  0  0  0
  -28.8477  -12.5477   21.4856 H   0  0  0  0  0  0
  -28.2740  -14.1795   21.7140 H   0  0  0  0  0  0
  -25.2755   -9.5677   22.4795 H   0  0  0  0  0  0
  -23.9996   -7.4627   22.7495 H   0  0  0  0  0  0
  -21.0876   -8.8739   19.8938 H   0  0  0  0  0  0
  -22.3708  -10.9656   19.6164 H   0  0  0  0  0  0
  -21.1991   -7.6138   23.9692 H   0  0  0  0  0  0
  -21.1488   -6.0542   25.9079 H   0  0  0  0  0  0
  -22.0600   -2.7597   23.2856 H   0  0  0  0  0  0
  -22.4029  -11.9767   22.4793 H   0  0  0  0  0  0
  -21.0996  -13.1110   22.2691 H   0  0  0  0  0  0
  -24.6096  -15.8405   20.4957 H   0  0  0  0  0  0
  -26.2034  -15.6268   19.9911 H   0  0  0  0  0  0
  -26.7437  -32.5002   23.0844 H   0  0  0  0  0  0
  -25.0363  -33.9422   25.0326 H   0  0  0  0  0  0
  -22.8139  -31.2592   21.3316 H   0  0  0  0  0  0
  -23.3799  -35.9377   23.3318 H   0  0  0  0  0  0
  -24.3560  -36.8780   22.2087 H   0  0  0  0  0  0
  -23.7180  -37.6236   23.6768 H   0  0  0  0  0  0
  -26.2821  -31.3202   20.6402 H   0  0  0  0  0  0
  -26.9157  -30.6271   22.0887 H   0  0  0  0  0  0
  -28.1603  -28.5055   21.2932 H   0  0  0  0  0  0
  -25.8728  -25.6817   19.0002 H   0  0  0  0  0  0
  -24.0222  -27.2481   18.9338 H   0  0  0  0  0  0
  -23.9142  -30.4970   19.3851 H   0  0  0  0  0  0
  -22.8479  -29.1958   19.8183 H   0  0  0  0  0  0
  -25.1354  -36.1667   25.0775 H   0  0  0  0  0  0
  -21.0042  -28.3478   24.1249 H   0  0  0  0  0  0
  -20.5737  -26.2450   23.3636 H   0  0  0  0  0  0
  -21.6674  -26.7502   22.1147 H   0  0  0  0  0  0
  -19.6986  -25.6318   21.1238 H   0  0  0  0  0  0
  -19.6709  -27.3192   20.6693 H   0  0  0  0  0  0
  -17.4238  -26.6730   21.3974 H   0  0  0  0  0  0
  -18.0341  -26.0096   22.8965 H   0  0  0  0  0  0
  -19.7990  -30.7307   24.2211 H   0  0  0  0  0  0
  -17.5088  -31.6305   24.5189 H   0  0  0  0  0  0
  -15.5409  -30.3035   23.7734 H   0  0  0  0  0  0
  -15.8682  -28.0803   22.7267 H   0  0  0  0  0  0
  -24.6031  -30.6912   25.7609 H   0  0  0  0  0  0
  -24.8919  -32.2733   26.4784 H   0  0  0  0  0  0
  -25.8070  -30.8761   27.0137 H   0  0  0  0  0  0
  -26.3412  -29.6430   24.1510 H   0  0  0  0  0  0
  -27.4160  -29.7303   25.5234 H   0  0  0  0  0  0
  -27.9333  -30.4063   24.0036 H   0  0  0  0  0  0
  -27.2654  -33.3793   26.1784 H   0  0  0  0  0  0
  -28.4008  -32.6764   25.0383 H   0  0  0  0  0  0
  -28.0644  -31.8719   26.5636 H   0  0  0  0  0  0
  -28.2535  -38.0028   24.7607 H   0  0  0  0  0  0
  -28.1057  -36.2560   24.6317 H   0  0  0  0  0  0
  -27.2240  -37.1312   25.8896 H   0  0  0  0  0  0
  -20.9642  -29.8677   21.6466 H   0  0  0  0  0  0
  -26.0074  -38.2676   24.1550 H   0  0  0  0  0  0
  -32.2703  -18.3266   22.2491 H   0  0  0  0  0  0
  -30.9292  -17.2400   22.6469 H   0  0  0  0  0  0
  -31.1534  -18.7137   23.5685 H   0  0  0  0  0  0
  -26.3279  -24.3980   21.6748 H   0  0  0  0  0  0
  -27.8571  -24.2057   22.5007 H   0  0  0  0  0  0
  -27.0102  -22.7894   21.8384 H   0  0  0  0  0  0
  -31.2201  -22.2139   21.9369 H   0  0  0  0  0  0
  -31.5535  -20.9437   23.0594 H   0  0  0  0  0  0
  -29.3158  -21.2141   24.1322 H   0  0  0  0  0  0
  -28.9354  -22.4519   22.9823 H   0  0  0  0  0  0
  -30.8237  -23.8591   23.7856 H   0  0  0  0  0  0
  -31.2564  -22.6593   24.9639 H   0  0  0  0  0  0
  -30.0656  -22.8680   20.1647 H   0  0  0  0  0  0
  -28.9828  -22.3700   18.9679 H   0  0  0  0  0  0
  -28.5696  -24.1584   24.8972 H   0  0  0  0  0  0
  -29.9441  -24.6376   25.8602 H   0  0  0  0  0  0
  -27.2463  -23.8664   19.5937 H   0  0  0  0  0  0
  -28.5490  -16.4482   20.4634 H   0  0  0  0  0  0
  -28.4637  -22.1300   26.1986 H   0  0  0  0  0  0
  -28.4485  -23.4318   27.1691 H   0  0  0  0  0  0
  -29.8031  -22.5448   27.0401 H   0  0  0  0  0  0
  1 25  1  0  0  0
  1 30  2  0  0  0
  1 84  1  0  0  0
  2  3  1  0  0  0
  2 25  1  0  0  0
  2 87  1  0  0  0
  2 88  1  0  0  0
  3  4  1  0  0  0
  3 89  1  0  0  0
  3 90  1  0  0  0
  4  5  1  0  0  0
  4 91  1  0  0  0
  4 92  1  0  0  0
  5  6  1  0  0  0
  5 26  1  0  0  0
  5 93  1  0  0  0
  6 25  1  0  0  0
  6 94  1  0  0  0
  6 95  1  0  0  0
  7  8  2  0  0  0
  7 26  1  0  0  0
  7 29  1  0  0  0
  8  9  1  0  0  0
  8 22  1  0  0  0
  9 10  1  0  0  0
  9 27  2  0  0  0
 10 11  2  0  0  0
 10 15  1  0  0  0
 11 12  1  0  0  0
 11 96  1  0  0  0
 12 13  2  0  0  0
 12 97  1  0  0  0
 13 14  1  0  0  0
 13 31  1  0  0  0
 14 15  2  0  0  0
 14 98  1  0  0  0
 15 99  1  0  0  0
 16 17  2  0  0  0
 16 21  1  0  0  0
 16 31  1  0  0  0
 17 18  1  0  0  0
 17100  1  0  0  0
 18 19  2  0  0  0
 18101  1  0  0  0
 19 20  1  0  0  0
 19 24  1  0  0  0
 20 21  2  0  0  0
 20102  1  0  0  0
 21 23  1  0  0  0
 22 28  1  0  0  0
 22 32  2  0  0  0
 26 27  1  0  0  0
 28103  1  0  0  0
 28104  1  0  0  0
 29105  1  0  0  0
 29106  1  0  0  0
 33 34  1  0  0  0
 33 66  1  0  0  0
 33 70  2  0  0  0
 34 36  1  0  0  0
 34 59  1  0  0  0
 34107  1  0  0  0
 35 44  2  0  0  0
 35 45  1  0  0  0
 35 68  1  0  0  0
 36 56  1  0  0  0
 36108  1  0  0  0
 37 39  1  0  0  0
 37 47  1  0  0  0
 37 66  1  0  0  0
 37109  1  0  0  0
 38 43  2  0  0  0
 38 46  1  0  0  0
 38 47  1  0  0  0
 39 64  1  0  0  0
 39 67  2  0  0  0
 40 52  1  0  0  0
 40 53  2  0  0  0
 40 58  1  0  0  0
 41110  1  0  0  0
 41111  1  0  0  0
 41112  1  0  0  0
 41 48  1  0  0  0
 42 43  1  0  0  0
 42 66  1  0  0  0
 42113  1  0  0  0
 42114  1  0  0  0
 43 44  1  0  0  0
 44115  1  0  0  0
 45 46  2  0  0  0
 45116  1  0  0  0
 46117  1  0  0  0
 47118  1  0  0  0
 47119  1  0  0  0
 48 56  1  0  0  0
 48 65  1  0  0  0
 48120  1  0  0  0
 49 50  1  0  0  0
 49 53  1  0  0  0
 49 64  1  0  0  0
 49121  1  0  0  0
 50 51  1  0  0  0
 50122  1  0  0  0
 50123  1  0  0  0
 51 52  1  0  0  0
 51124  1  0  0  0
 51125  1  0  0  0
 52126  1  0  0  0
 52127  1  0  0  0
 53 54  1  0  0  0
 54 55  2  0  0  0
 54128  1  0  0  0
 55 57  1  0  0  0
 55129  1  0  0  0
 56 69  2  0  0  0
 57 58  2  0  0  0
 57130  1  0  0  0
 58131  1  0  0  0
 59 60  1  0  0  0
 59 61  1  0  0  0
 59 62  1  0  0  0
 60132  1  0  0  0
 60133  1  0  0  0
 60134  1  0  0  0
 61135  1  0  0  0
 61136  1  0  0  0
 61137  1  0  0  0
 62138  1  0  0  0
 62139  1  0  0  0
 62140  1  0  0  0
 63 65  1  0  0  0
 63141  1  0  0  0
 63142  1  0  0  0
 63143  1  0  0  0
 64144  1  0  0  0
 65145  1  0  0  0
 68 81  1  0  0  0
 71 72  2  0  0  0
 71 74  1  0  0  0
 71 83  1  0  0  0
 72 76  1  0  0  0
 72 82  1  0  0  0
 73 82  1  0  0  0
 73 83  1  0  0  0
 73 86  2  0  0  0
 74146  1  0  0  0
 74147  1  0  0  0
 74148  1  0  0  0
 75149  1  0  0  0
 75150  1  0  0  0
 75151  1  0  0  0
 75 81  1  0  0  0
 76 77  1  0  0  0
 76152  1  0  0  0
 76153  1  0  0  0
 77 78  1  0  0  0
 77154  1  0  0  0
 77155  1  0  0  0
 78 80  1  0  0  0
 78156  1  0  0  0
 78157  1  0  0  0
 79 81  1  0  0  0
 79 82  1  0  0  0
 79158  1  0  0  0
 79159  1  0  0  0
 80 85  1  0  0  0
 80160  1  0  0  0
 80161  1  0  0  0
 81162  1  0  0  0
 83 84  1  0  0  0
 84163  1  0  0  0
 85164  1  0  0  0
 85165  1  0  0  0
 85166  1  0  0  0
M  CHG  1  85   1
M  ISO  4   1 100  68 101  81 101  84 100
M  END
> <chiral flag>
0

> <version>
0

> <s_m_source_file>
/data/baiqing/PycharmProjects/Reinvent-master-3.2/result/LINK_invent/BTK/process_docking_weight1_custom_sum_contain_oxygen_bond_distance_aromatic_linkinvent_7_9_3/rearranged_h_0107.sdf

> <i_m_source_file_index>
73

> <r_mmod_Potential_Energy-OPLS-2005>
1455.51477050781

> <r_mmod_Stretch_Energy-OPLS-2005>
771.947814941406

> <r_mmod_Bend_Energy-OPLS-2005>
605.141174316406

> <r_mmod_Torsional_Energy-OPLS-2005>
301.943908691406

> <r_mmod_Improper_Torsional_Energy-OPLS-2005>
5.91721963882446

> <r_mmod_Van_der_Waal_Energy-OPLS-2005>
97.2994155883789

> <r_mmod_Electrostatic_Energy-OPLS-2005>
-392.398468017578

> <r_mmod_Solvation_Energy-OPLS-2005>
-529.345947265625

> <b_mmod_Minimization_Converged-OPLS-2005>
0

> <r_mmod_RMS_Derivative-OPLS-2005>
3.87849378585815

$$$$
75
                    3D
 Structure written by MMmdl.
161170  0  0  1  0            999 V2000
  -30.4858  -15.1962   20.3856 C   0  0  0  0  0  0
  -30.4374  -12.7629   19.5216 C   0  0  0  0  0  0
  -29.5348  -12.5690   18.2790 C   0  0  0  0  0  0
  -28.0782  -12.3100   18.7006 C   0  0  0  0  0  0
  -27.6165  -13.2745   19.8217 C   0  0  2  0  0  0
  -28.6514  -13.4286   20.9574 C   0  0  0  0  0  0
  -25.2431  -13.8254   20.5748 C   0  0  0  0  0  0
  -24.1773  -13.0444   20.9245 C   0  0  0  0  0  0
  -24.6426  -11.6939   20.8742 C   0  0  0  0  0  0
  -23.9117  -10.4292   21.0395 C   0  0  0  0  0  0
  -24.3653   -9.4208   21.9180 C   0  0  0  0  0  0
  -23.6308   -8.2247   22.0752 C   0  0  0  0  0  0
  -22.4289   -8.0289   21.3549 C   0  0  0  0  0  0
  -21.9933   -9.0275   20.4653 C   0  0  0  0  0  0
  -22.7276  -10.2139   20.3055 C   0  0  0  0  0  0
  -21.6862   -6.0747   22.5282 C   0  0  0  0  0  0
  -21.4018   -6.5651   23.8218 C   0  0  0  0  0  0
  -21.3655   -5.6801   24.9182 C   0  0  0  0  0  0
  -21.6031   -4.3061   24.7225 C   0  0  0  0  0  0
  -21.8819   -3.8162   23.4351 C   0  0  0  0  0  0
  -21.9197   -4.6977   22.3410 C   0  0  0  0  0  0
  -22.7787  -13.5188   21.1890 C   0  0  0  0  0  0
  -22.1668   -4.2165   21.0986 F   0  0  0  0  0  0
  -21.5621   -3.4542   25.7743 F   0  0  0  0  0  0
  -29.8953  -13.9082   20.3369 N   0  0  0  0  0  0
  -26.2853  -12.9520   20.3193 N   0  0  0  0  0  0
  -25.9362  -11.6633   20.5704 N   0  0  0  0  0  0
  -22.0435  -12.8170   22.0428 N   0  0  0  0  0  0
  -25.4088  -15.1976   20.4198 N   0  0  0  0  0  0
  -31.7032  -15.1852   20.1629 O   0  0  0  0  0  0
  -21.6648   -6.8886   21.4247 O   0  0  0  0  0  0
  -22.3450  -14.5489   20.6721 O   0  0  0  0  0  0
  -24.6606  -31.8301   23.1751 C   0  0  0  0  0  0
  -25.9319  -32.4611   23.8190 C   0  0  1  0  0  0
  -27.2120  -26.9755   20.1582 C   0  0  0  0  0  0
  -25.6009  -33.8417   24.2103 N   0  0  0  0  0  0
  -23.4715  -30.4478   21.5234 C   0  0  2  0  0  0
  -24.9209  -28.8478   20.1093 C   0  0  0  0  0  0
  -22.7647  -29.4497   22.4779 C   0  0  0  0  0  0
  -18.0323  -28.1422   22.8470 C   0  0  0  0  0  0
  -24.1490  -36.7206   23.2635 C   0  0  0  0  0  0
  -26.0394  -30.6492   21.3996 C   0  0  0  0  0  0
  -26.1072  -29.2462   20.7397 C   0  0  0  0  0  0
  -27.2499  -28.3312   20.7408 C   0  0  0  0  0  0
  -25.9955  -26.7255   19.4811 C   0  0  0  0  0  0
  -24.8879  -27.6059   19.4606 C   0  0  0  0  0  0
  -23.7089  -29.7730   20.1469 C   0  0  0  0  0  0
  -25.4122  -36.2975   24.0303 C   0  0  1  0  0  0
  -20.5949  -28.3766   23.1187 C   0  0  2  0  0  0
  -20.6812  -26.9450   22.5397 C   0  0  0  0  0  0
  -19.5777  -26.6392   21.5218 C   0  0  0  0  0  0
  -18.1959  -26.7956   22.1624 C   0  0  0  0  0  0
  -19.1585  -28.8911   23.2823 C   0  0  0  0  0  0
  -18.9490  -30.1503   23.8848 C   0  0  0  0  0  0
  -17.6483  -30.6601   24.0574 C   0  0  0  0  0  0
  -25.9089  -34.9357   23.5007 C   0  0  0  0  0  0
  -16.5376  -29.9090   23.6351 C   0  0  0  0  0  0
  -16.7305  -28.6526   23.0349 C   0  0  0  0  0  0
  -26.4570  -31.6534   25.0699 C   0  0  0  0  0  0
  -25.3702  -31.3796   26.1366 C   0  0  0  0  0  0
  -27.0445  -30.2888   24.6417 C   0  0  0  0  0  0
  -27.6068  -32.4334   25.7495 C   0  0  0  0  0  0
  -27.5581  -37.1744   24.8444 C   0  0  0  0  0  0
  -21.4322  -29.3057   22.3516 N   0  0  0  0  0  0
  -26.4264  -37.3723   23.9432 N   0  0  0  0  0  0
  -24.7447  -31.0011   22.0857 N   0  0  0  0  0  0
  -23.4216  -28.8052   23.2995 O   0  0  0  0  0  0
  -28.2018  -25.8721   20.2275 O   0  0  0  0  0  0
  -26.5696  -34.8891   22.4597 O   0  0  0  0  0  0
  -23.5694  -32.1251   23.6881 O   0  0  0  0  0  0
  -28.6540  -21.7942   19.0552 C   0  0  0  0  0  0
  -28.9449  -22.0010   21.3215 C   0  0  0  0  0  0
  -29.0620  -20.3690   19.1127 C   0  0  0  0  0  0
  -29.4262  -19.6108   20.2978 C   0  0  0  0  0  0
  -28.5672  -22.7600   20.1409 C   0  0  0  0  0  0
  -29.3504  -20.5650   21.4123 C   0  0  0  0  0  0
  -29.1900  -19.6353   17.7800 C   0  0  0  0  0  0
  -30.7222  -18.0627   18.7488 C   0  0  0  0  0  0
  -30.1818  -18.0479   20.1922 C   0  0  2  0  0  0
  -28.7198  -20.3593   23.8707 C   0  0  0  0  0  0
  -31.1493  -20.6663   23.1633 C   0  0  0  0  0  0
  -27.8001  -24.3124   20.0216 C   0  0  0  0  0  0
  -29.7803  -20.0769   22.7898 C   0  0  0  0  0  0
  -29.7606  -16.4758   20.4661 N   0  0  0  0  0  0
  -29.6116  -18.2708   17.8773 O   0  0  0  0  0  0
  -31.4621  -12.9456   19.1939 H   0  0  0  0  0  0
  -30.4820  -11.8495   20.1165 H   0  0  0  0  0  0
  -29.8999  -11.7446   17.6649 H   0  0  0  0  0  0
  -29.5829  -13.4620   17.6526 H   0  0  0  0  0  0
  -28.0153  -11.2803   19.0553 H   0  0  0  0  0  0
  -27.4150  -12.3815   17.8381 H   0  0  0  0  0  0
  -27.5400  -14.2471   19.3337 H   0  0  0  0  0  0
  -28.8010  -12.4933   21.4989 H   0  0  0  0  0  0
  -28.3047  -14.1620   21.6866 H   0  0  0  0  0  0
  -25.2795   -9.5685   22.4760 H   0  0  0  0  0  0
  -24.0034   -7.4632   22.7462 H   0  0  0  0  0  0
  -21.0864   -8.8787   19.8951 H   0  0  0  0  0  0
  -22.3733  -10.9682   19.6165 H   0  0  0  0  0  0
  -21.2016   -7.6158   23.9717 H   0  0  0  0  0  0
  -21.1463   -6.0537   25.9078 H   0  0  0  0  0  0
  -22.0596   -2.7623   23.2847 H   0  0  0  0  0  0
  -22.4085  -11.9879   22.4888 H   0  0  0  0  0  0
  -21.1036  -13.1164   22.2593 H   0  0  0  0  0  0
  -24.6432  -15.8511   20.5421 H   0  0  0  0  0  0
  -26.2487  -15.6375   20.0664 H   0  0  0  0  0  0
  -26.7396  -32.5166   23.0917 H   0  0  0  0  0  0
  -25.0133  -33.9497   25.0246 H   0  0  0  0  0  0
  -22.7847  -31.2806   21.3599 H   0  0  0  0  0  0
  -23.3770  -35.9515   23.3225 H   0  0  0  0  0  0
  -24.3579  -36.8918   22.2063 H   0  0  0  0  0  0
  -23.7227  -37.6364   23.6728 H   0  0  0  0  0  0
  -26.2250  -31.3957   20.6266 H   0  0  0  0  0  0
  -26.8990  -30.6966   22.0562 H   0  0  0  0  0  0
  -28.1484  -28.6306   21.2626 H   0  0  0  0  0  0
  -25.8516  -25.7840   18.9746 H   0  0  0  0  0  0
  -23.9872  -27.2977   18.9471 H   0  0  0  0  0  0
  -23.8653  -30.5453   19.3931 H   0  0  0  0  0  0
  -22.8182  -29.2317   19.8256 H   0  0  0  0  0  0
  -25.1316  -36.1757   25.0796 H   0  0  0  0  0  0
  -21.0064  -28.3383   24.1301 H   0  0  0  0  0  0
  -20.5698  -26.2377   23.3627 H   0  0  0  0  0  0
  -21.6680  -26.7432   22.1206 H   0  0  0  0  0  0
  -19.6927  -25.6291   21.1281 H   0  0  0  0  0  0
  -19.6725  -27.3171   20.6723 H   0  0  0  0  0  0
  -17.4235  -26.6705   21.4024 H   0  0  0  0  0  0
  -18.0350  -26.0111   22.9028 H   0  0  0  0  0  0
  -19.7959  -30.7358   24.2178 H   0  0  0  0  0  0
  -17.5024  -31.6268   24.5201 H   0  0  0  0  0  0
  -15.5372  -30.2978   23.7691 H   0  0  0  0  0  0
  -15.8714  -28.0840   22.7062 H   0  0  0  0  0  0
  -24.5902  -30.7118   25.7697 H   0  0  0  0  0  0
  -24.8873  -32.2999   26.4652 H   0  0  0  0  0  0
  -25.7950  -30.9074   27.0235 H   0  0  0  0  0  0
  -26.3098  -29.6574   24.1406 H   0  0  0  0  0  0
  -27.3949  -29.7252   25.5076 H   0  0  0  0  0  0
  -27.9066  -30.4044   23.9842 H   0  0  0  0  0  0
  -27.2641  -33.3676   26.1958 H   0  0  0  0  0  0
  -28.3935  -32.6832   25.0363 H   0  0  0  0  0  0
  -28.0669  -31.8537   26.5508 H   0  0  0  0  0  0
  -28.2520  -38.0113   24.7588 H   0  0  0  0  0  0
  -28.1157  -36.2652   24.6142 H   0  0  0  0  0  0
  -27.2318  -37.1236   25.8844 H   0  0  0  0  0  0
  -20.9547  -29.8729   21.6657 H   0  0  0  0  0  0
  -26.0094  -38.2766   24.1500 H   0  0  0  0  0  0
  -28.3774  -22.1675   18.0793 H   0  0  0  0  0  0
  -28.9167  -22.5717   22.2369 H   0  0  0  0  0  0
  -29.8943  -20.1748   17.1439 H   0  0  0  0  0  0
  -28.2252  -19.6595   17.2716 H   0  0  0  0  0  0
  -31.2284  -17.1374   18.4796 H   0  0  0  0  0  0
  -31.4644  -18.8536   18.6170 H   0  0  0  0  0  0
  -31.0559  -18.1530   20.8382 H   0  0  0  0  0  0
  -27.7549  -19.9283   23.6004 H   0  0  0  0  0  0
  -28.5653  -21.4240   24.0473 H   0  0  0  0  0  0
  -29.0157  -19.9218   24.8234 H   0  0  0  0  0  0
  -31.9052  -20.3920   22.4272 H   0  0  0  0  0  0
  -31.4881  -20.3000   24.1321 H   0  0  0  0  0  0
  -31.1211  -21.7560   23.2101 H   0  0  0  0  0  0
  -26.9154  -24.1938   20.6481 H   0  0  0  0  0  0
  -27.4174  -24.2872   19.0024 H   0  0  0  0  0  0
  -29.8898  -18.9930   22.7487 H   0  0  0  0  0  0
  -28.7720  -16.3566   20.6317 H   0  0  0  0  0  0
  1 25  1  0  0  0
  1 30  2  0  0  0
  1 84  1  0  0  0
  2  3  1  0  0  0
  2 25  1  0  0  0
  2 86  1  0  0  0
  2 87  1  0  0  0
  3  4  1  0  0  0
  3 88  1  0  0  0
  3 89  1  0  0  0
  4  5  1  0  0  0
  4 90  1  0  0  0
  4 91  1  0  0  0
  5  6  1  0  0  0
  5 26  1  0  0  0
  5 92  1  0  0  0
  6 25  1  0  0  0
  6 93  1  0  0  0
  6 94  1  0  0  0
  7  8  2  0  0  0
  7 26  1  0  0  0
  7 29  1  0  0  0
  8  9  1  0  0  0
  8 22  1  0  0  0
  9 10  1  0  0  0
  9 27  2  0  0  0
 10 11  2  0  0  0
 10 15  1  0  0  0
 11 12  1  0  0  0
 11 95  1  0  0  0
 12 13  2  0  0  0
 12 96  1  0  0  0
 13 14  1  0  0  0
 13 31  1  0  0  0
 14 15  2  0  0  0
 14 97  1  0  0  0
 15 98  1  0  0  0
 16 17  2  0  0  0
 16 21  1  0  0  0
 16 31  1  0  0  0
 17 18  1  0  0  0
 17 99  1  0  0  0
 18 19  2  0  0  0
 18100  1  0  0  0
 19 20  1  0  0  0
 19 24  1  0  0  0
 20 21  2  0  0  0
 20101  1  0  0  0
 21 23  1  0  0  0
 22 28  1  0  0  0
 22 32  2  0  0  0
 26 27  1  0  0  0
 28102  1  0  0  0
 28103  1  0  0  0
 29104  1  0  0  0
 29105  1  0  0  0
 33 34  1  0  0  0
 33 66  1  0  0  0
 33 70  2  0  0  0
 34 36  1  0  0  0
 34 59  1  0  0  0
 34106  1  0  0  0
 35 44  2  0  0  0
 35 45  1  0  0  0
 35 68  1  0  0  0
 36 56  1  0  0  0
 36107  1  0  0  0
 37 39  1  0  0  0
 37 47  1  0  0  0
 37 66  1  0  0  0
 37108  1  0  0  0
 38 43  2  0  0  0
 38 46  1  0  0  0
 38 47  1  0  0  0
 39 64  1  0  0  0
 39 67  2  0  0  0
 40 52  1  0  0  0
 40 53  2  0  0  0
 40 58  1  0  0  0
 41109  1  0  0  0
 41110  1  0  0  0
 41111  1  0  0  0
 41 48  1  0  0  0
 42 43  1  0  0  0
 42 66  1  0  0  0
 42112  1  0  0  0
 42113  1  0  0  0
 43 44  1  0  0  0
 44114  1  0  0  0
 45 46  2  0  0  0
 45115  1  0  0  0
 46116  1  0  0  0
 47117  1  0  0  0
 47118  1  0  0  0
 48 56  1  0  0  0
 48 65  1  0  0  0
 48119  1  0  0  0
 49 50  1  0  0  0
 49 53  1  0  0  0
 49 64  1  0  0  0
 49120  1  0  0  0
 50 51  1  0  0  0
 50121  1  0  0  0
 50122  1  0  0  0
 51 52  1  0  0  0
 51123  1  0  0  0
 51124  1  0  0  0
 52125  1  0  0  0
 52126  1  0  0  0
 53 54  1  0  0  0
 54 55  2  0  0  0
 54127  1  0  0  0
 55 57  1  0  0  0
 55128  1  0  0  0
 56 69  2  0  0  0
 57 58  2  0  0  0
 57129  1  0  0  0
 58130  1  0  0  0
 59 60  1  0  0  0
 59 61  1  0  0  0
 59 62  1  0  0  0
 60131  1  0  0  0
 60132  1  0  0  0
 60133  1  0  0  0
 61134  1  0  0  0
 61135  1  0  0  0
 61136  1  0  0  0
 62137  1  0  0  0
 62138  1  0  0  0
 62139  1  0  0  0
 63 65  1  0  0  0
 63140  1  0  0  0
 63141  1  0  0  0
 63142  1  0  0  0
 64143  1  0  0  0
 65144  1  0  0  0
 68 82  1  0  0  0
 71 73  2  0  0  0
 71 75  1  0  0  0
 71145  1  0  0  0
 72 75  2  0  0  0
 72 76  1  0  0  0
 72146  1  0  0  0
 73 74  1  0  0  0
 73 77  1  0  0  0
 74 76  2  0  0  0
 74 79  1  0  0  0
 75 82  1  0  0  0
 76 83  1  0  0  0
 77 85  1  0  0  0
 77147  1  0  0  0
 77148  1  0  0  0
 78 79  1  0  0  0
 78 85  1  0  0  0
 78149  1  0  0  0
 78150  1  0  0  0
 79 84  1  0  0  0
 79151  1  0  0  0
 80152  1  0  0  0
 80153  1  0  0  0
 80154  1  0  0  0
 80 83  1  0  0  0
 81 83  1  0  0  0
 81155  1  0  0  0
 81156  1  0  0  0
 81157  1  0  0  0
 82158  1  0  0  0
 82159  1  0  0  0
 83160  1  0  0  0
 84161  1  0  0  0
M  ISO  4   1 100  68 101  82 101  84 100
M  END
> <chiral flag>
0

> <version>
0

> <s_m_source_file>
/data/baiqing/PycharmProjects/Reinvent-master-3.2/result/LINK_invent/BTK/process_docking_weight1_custom_sum_contain_oxygen_bond_distance_aromatic_linkinvent_7_9_3/rearranged_h_0107.sdf

> <i_m_source_file_index>
74

> <r_mmod_Potential_Energy-OPLS-2005>
1026.86462402344

> <r_mmod_Stretch_Energy-OPLS-2005>
454.30078125

> <r_mmod_Bend_Energy-OPLS-2005>
421.186065673828

> <r_mmod_Torsional_Energy-OPLS-2005>
239.883926391602

> <r_mmod_Improper_Torsional_Energy-OPLS-2005>
10.7135486602783

> <r_mmod_Van_der_Waal_Energy-OPLS-2005>
140.288299560547

> <r_mmod_Electrostatic_Energy-OPLS-2005>
-424.631042480469

> <r_mmod_Solvation_Energy-OPLS-2005>
-205.625869750977

> <b_mmod_Minimization_Converged-OPLS-2005>
0

> <r_mmod_RMS_Derivative-OPLS-2005>
2.7053427696228

$$$$
76
                    3D
 Structure written by MMmdl.
178186  0  0  1  0            999 V2000
  -30.7550  -14.3513   20.6526 C   0  0  0  0  0  0
  -30.4120  -12.2638   19.3969 C   0  0  0  0  0  0
  -29.4844  -12.5205   18.1934 C   0  0  0  0  0  0
  -28.0072  -12.3796   18.6066 C   0  0  0  0  0  0
  -27.6650  -13.2005   19.8764 C   0  0  2  0  0  0
  -28.7001  -12.9308   20.9925 C   0  0  0  0  0  0
  -25.2575  -13.8160   20.5664 C   0  0  0  0  0  0
  -24.1818  -13.0434   20.9149 C   0  0  0  0  0  0
  -24.6365  -11.6898   20.8713 C   0  0  0  0  0  0
  -23.9030  -10.4289   21.0401 C   0  0  0  0  0  0
  -24.3602   -9.4206   21.9182 C   0  0  0  0  0  0
  -23.6280   -8.2245   22.0753 C   0  0  0  0  0  0
  -22.4256   -8.0286   21.3550 C   0  0  0  0  0  0
  -21.9882   -9.0247   20.4646 C   0  0  0  0  0  0
  -22.7208  -10.2125   20.3041 C   0  0  0  0  0  0
  -21.6831   -6.0747   22.5279 C   0  0  0  0  0  0
  -21.4030   -6.5640   23.8231 C   0  0  0  0  0  0
  -21.3662   -5.6776   24.9182 C   0  0  0  0  0  0
  -21.6037   -4.3043   24.7214 C   0  0  0  0  0  0
  -21.8805   -3.8137   23.4333 C   0  0  0  0  0  0
  -21.9184   -4.6970   22.3399 C   0  0  0  0  0  0
  -22.7837  -13.5237   21.1797 C   0  0  0  0  0  0
  -22.1638   -4.2161   21.0975 F   0  0  0  0  0  0
  -21.5621   -3.4518   25.7730 F   0  0  0  0  0  0
  -30.0500  -13.2072   20.4616 N   0  0  0  0  0  0
  -26.3017  -12.9325   20.3341 N   0  0  0  0  0  0
  -25.9287  -11.6479   20.5739 N   0  0  0  0  0  0
  -22.0463  -12.8293   22.0387 N   0  0  0  0  0  0
  -25.4263  -15.1895   20.4147 N   0  0  0  0  0  0
  -31.7738  -14.6372   20.0167 O   0  0  0  0  0  0
  -21.6607   -6.8887   21.4247 O   0  0  0  0  0  0
  -22.3518  -14.5525   20.6615 O   0  0  0  0  0  0
  -24.6103  -31.8701   23.2134 C   0  0  0  0  0  0
  -25.9007  -32.4831   23.8410 C   0  0  1  0  0  0
  -27.2325  -27.4798   20.0757 C   0  0  0  0  0  0
  -25.5856  -33.8630   24.2328 N   0  0  0  0  0  0
  -23.3954  -30.4967   21.5545 C   0  0  2  0  0  0
  -24.8383  -28.9680   20.1148 C   0  0  0  0  0  0
  -22.7388  -29.4677   22.5019 C   0  0  0  0  0  0
  -18.0264  -28.1388   22.8506 C   0  0  0  0  0  0
  -24.1468  -36.7322   23.2648 C   0  0  0  0  0  0
  -25.9195  -30.8529   21.3553 C   0  0  0  0  0  0
  -25.9975  -29.4892   20.7029 C   0  0  0  0  0  0
  -27.1999  -28.7535   20.6781 C   0  0  0  0  0  0
  -26.0590  -26.9655   19.4807 C   0  0  0  0  0  0
  -24.8615  -27.7037   19.5029 C   0  0  0  0  0  0
  -23.5984  -29.8303   20.1682 C   0  0  0  0  0  0
  -25.4091  -36.3122   24.0345 C   0  0  1  0  0  0
  -20.5859  -28.3656   23.1350 C   0  0  2  0  0  0
  -20.6742  -26.9391   22.5449 C   0  0  0  0  0  0
  -19.5728  -26.6399   21.5232 C   0  0  0  0  0  0
  -18.1909  -26.7943   22.1633 C   0  0  0  0  0  0
  -19.1522  -28.8836   23.2928 C   0  0  0  0  0  0
  -18.9444  -30.1444   23.8940 C   0  0  0  0  0  0
  -17.6449  -30.6590   24.0593 C   0  0  0  0  0  0
  -25.9024  -34.9483   23.5136 C   0  0  0  0  0  0
  -16.5339  -29.9112   23.6320 C   0  0  0  0  0  0
  -16.7260  -28.6531   23.0335 C   0  0  0  0  0  0
  -26.4448  -31.6615   25.0729 C   0  0  0  0  0  0
  -25.3725  -31.3720   26.1492 C   0  0  0  0  0  0
  -27.0266  -30.3064   24.6067 C   0  0  0  0  0  0
  -27.6038  -32.4344   25.7461 C   0  0  0  0  0  0
  -27.5573  -37.1804   24.8464 C   0  0  0  0  0  0
  -21.4128  -29.3024   22.3752 N   0  0  0  0  0  0
  -26.4275  -37.3806   23.9423 N   0  0  0  0  0  0
  -24.6603  -31.0858   22.1000 N   0  0  0  0  0  0
  -23.4185  -28.8206   23.3039 O   0  0  0  0  0  0
  -28.4141  -26.7814   20.0444 O   0  0  0  0  0  0
  -26.5613  -34.8936   22.4718 O   0  0  0  0  0  0
  -23.5305  -32.1435   23.7556 O   0  0  0  0  0  0
  -31.4666  -19.1095   22.4052 C   0  0  0  0  0  0
  -31.3792  -18.1709   23.4514 C   0  0  0  0  0  0
  -30.7449  -17.4223   20.8203 C   0  0  0  0  0  0
  -31.1159  -18.7622   21.0758 C   0  0  0  0  0  0
  -30.6939  -16.4694   21.8643 C   0  0  0  0  0  0
  -30.9637  -16.8496   23.1910 C   0  0  0  0  0  0
  -26.3053  -17.5990   24.9404 C   0  0  0  0  0  0
  -32.5180  -20.4794   19.8903 C   0  0  0  0  0  0
  -30.7607  -19.2742   18.5839 C   0  0  0  0  0  0
  -27.7363  -17.4740   25.4786 C   0  0  0  0  0  0
  -28.5046  -16.2982   24.8558 C   0  0  0  0  0  0
  -29.1285  -24.5024   19.5657 C   0  0  0  0  0  0
  -28.9391  -23.0467   20.0196 C   0  0  0  0  0  0
  -30.0216  -20.8842   20.3761 C   0  0  0  0  0  0
  -29.9903  -16.2724   25.2756 C   0  0  0  0  0  0
  -28.3419  -25.4346   20.4969 C   0  0  0  0  0  0
  -31.1093  -19.8498   19.9794 C   0  0  0  0  0  0
  -30.2888  -15.1405   21.6227 N   0  0  0  0  0  0
  -30.0063  -22.1264   19.5724 N   0  3  0  0  0  0
  -30.8261  -15.9049   24.1821 O   0  0  0  0  0  0
  -31.4579  -12.3544   19.0997 H   0  0  0  0  0  0
  -30.2959  -11.2405   19.7591 H   0  0  0  0  0  0
  -29.7166  -11.8309   17.3820 H   0  0  0  0  0  0
  -29.6580  -13.5232   17.7997 H   0  0  0  0  0  0
  -27.8066  -11.3223   18.7886 H   0  0  0  0  0  0
  -27.3575  -12.6741   17.7816 H   0  0  0  0  0  0
  -27.7248  -14.2543   19.6039 H   0  0  0  0  0  0
  -28.6510  -11.8868   21.3021 H   0  0  0  0  0  0
  -28.4443  -13.5043   21.8832 H   0  0  0  0  0  0
  -25.2761   -9.5676   22.4748 H   0  0  0  0  0  0
  -23.9970   -7.4632   22.7485 H   0  0  0  0  0  0
  -21.0803   -8.8782   19.8966 H   0  0  0  0  0  0
  -22.3680  -10.9669   19.6143 H   0  0  0  0  0  0
  -21.2054   -7.6151   23.9747 H   0  0  0  0  0  0
  -21.1485   -6.0505   25.9096 H   0  0  0  0  0  0
  -22.0589   -2.7604   23.2814 H   0  0  0  0  0  0
  -22.4014  -11.9991   22.4876 H   0  0  0  0  0  0
  -21.1104  -13.1394   22.2577 H   0  0  0  0  0  0
  -24.6581  -15.8420   20.5318 H   0  0  0  0  0  0
  -26.2914  -15.6394   20.1410 H   0  0  0  0  0  0
  -26.7080  -32.5568   23.1181 H   0  0  0  0  0  0
  -24.9910  -33.9783   25.0407 H   0  0  0  0  0  0
  -22.6825  -31.3132   21.4206 H   0  0  0  0  0  0
  -23.3722  -35.9664   23.3324 H   0  0  0  0  0  0
  -24.3552  -36.8932   22.2060 H   0  0  0  0  0  0
  -23.7227  -37.6530   23.6659 H   0  0  0  0  0  0
  -26.0182  -31.6208   20.5863 H   0  0  0  0  0  0
  -26.8126  -30.9115   21.9650 H   0  0  0  0  0  0
  -28.1003  -29.1575   21.1207 H   0  0  0  0  0  0
  -26.0704  -26.0051   18.9866 H   0  0  0  0  0  0
  -23.9709  -27.3012   19.0402 H   0  0  0  0  0  0
  -23.6954  -30.6062   19.4082 H   0  0  0  0  0  0
  -22.7248  -29.2449   19.8777 H   0  0  0  0  0  0
  -25.1261  -36.1979   25.0836 H   0  0  0  0  0  0
  -20.9956  -28.3220   24.1472 H   0  0  0  0  0  0
  -20.5632  -26.2261   23.3631 H   0  0  0  0  0  0
  -21.6616  -26.7428   22.1253 H   0  0  0  0  0  0
  -19.6878  -25.6318   21.1242 H   0  0  0  0  0  0
  -19.6680  -27.3232   20.6781 H   0  0  0  0  0  0
  -17.4181  -26.6721   21.4029 H   0  0  0  0  0  0
  -18.0285  -26.0085   22.9023 H   0  0  0  0  0  0
  -19.7917  -30.7253   24.2344 H   0  0  0  0  0  0
  -17.4999  -31.6270   24.5205 H   0  0  0  0  0  0
  -15.5340  -30.3022   23.7622 H   0  0  0  0  0  0
  -15.8661  -28.0872   22.7004 H   0  0  0  0  0  0
  -24.5867  -30.7096   25.7836 H   0  0  0  0  0  0
  -24.8937  -32.2878   26.4975 H   0  0  0  0  0  0
  -25.8077  -30.8859   27.0232 H   0  0  0  0  0  0
  -26.2782  -29.6829   24.1147 H   0  0  0  0  0  0
  -27.4087  -29.7294   25.4503 H   0  0  0  0  0  0
  -27.8600  -30.4408   23.9163 H   0  0  0  0  0  0
  -27.2647  -33.3615   26.2097 H   0  0  0  0  0  0
  -28.3774  -32.6963   25.0231 H   0  0  0  0  0  0
  -28.0784  -31.8445   26.5310 H   0  0  0  0  0  0
  -28.2606  -38.0085   24.7490 H   0  0  0  0  0  0
  -28.1037  -36.2614   24.6284 H   0  0  0  0  0  0
  -27.2297  -37.1472   25.8870 H   0  0  0  0  0  0
  -20.9273  -29.8728   21.6959 H   0  0  0  0  0  0
  -26.0160  -38.2879   24.1442 H   0  0  0  0  0  0
  -31.7849  -20.1132   22.6471 H   0  0  0  0  0  0
  -31.6398  -18.4778   24.4535 H   0  0  0  0  0  0
  -30.4749  -17.1001   19.8262 H   0  0  0  0  0  0
  -25.7934  -18.4507   25.3889 H   0  0  0  0  0  0
  -25.7128  -16.7092   25.1517 H   0  0  0  0  0  0
  -26.3050  -17.7543   23.8609 H   0  0  0  0  0  0
  -33.2659  -19.7103   19.6942 H   0  0  0  0  0  0
  -32.8133  -20.9819   20.8109 H   0  0  0  0  0  0
  -32.5959  -21.2100   19.0845 H   0  0  0  0  0  0
  -31.4757  -18.5115   18.2762 H   0  0  0  0  0  0
  -30.7708  -20.0436   17.8128 H   0  0  0  0  0  0
  -29.7679  -18.8220   18.5635 H   0  0  0  0  0  0
  -27.7199  -17.3681   26.5640 H   0  0  0  0  0  0
  -28.2682  -18.4031   25.2637 H   0  0  0  0  0  0
  -28.4155  -16.3666   23.7721 H   0  0  0  0  0  0
  -28.0363  -15.3504   25.1239 H   0  0  0  0  0  0
  -28.7871  -24.6204   18.5363 H   0  0  0  0  0  0
  -30.1815  -24.7853   19.5859 H   0  0  0  0  0  0
  -27.9713  -22.6712   19.6814 H   0  0  0  0  0  0
  -28.9066  -23.0308   21.1099 H   0  0  0  0  0  0
  -30.1518  -21.1813   21.4169 H   0  0  0  0  0  0
  -29.0381  -20.4115   20.3231 H   0  0  0  0  0  0
  -30.1310  -15.5381   26.0691 H   0  0  0  0  0  0
  -30.2971  -17.2235   25.7090 H   0  0  0  0  0  0
  -28.7804  -25.4072   21.4962 H   0  0  0  0  0  0
  -27.3241  -25.0608   20.6173 H   0  0  0  0  0  0
  -29.6186  -14.7399   22.2630 H   0  0  0  0  0  0
  -30.8977  -22.5775   19.6976 H   0  0  0  0  0  0
  -29.8922  -21.9154   18.5942 H   0  0  0  0  0  0
  1 25  1  0  0  0
  1 30  2  0  0  0
  1 88  1  0  0  0
  2  3  1  0  0  0
  2 25  1  0  0  0
  2 91  1  0  0  0
  2 92  1  0  0  0
  3  4  1  0  0  0
  3 93  1  0  0  0
  3 94  1  0  0  0
  4  5  1  0  0  0
  4 95  1  0  0  0
  4 96  1  0  0  0
  5  6  1  0  0  0
  5 26  1  0  0  0
  5 97  1  0  0  0
  6 25  1  0  0  0
  6 98  1  0  0  0
  6 99  1  0  0  0
  7  8  2  0  0  0
  7 26  1  0  0  0
  7 29  1  0  0  0
  8  9  1  0  0  0
  8 22  1  0  0  0
  9 10  1  0  0  0
  9 27  2  0  0  0
 10 11  2  0  0  0
 10 15  1  0  0  0
 11 12  1  0  0  0
 11100  1  0  0  0
 12 13  2  0  0  0
 12101  1  0  0  0
 13 14  1  0  0  0
 13 31  1  0  0  0
 14 15  2  0  0  0
 14102  1  0  0  0
 15103  1  0  0  0
 16 17  2  0  0  0
 16 21  1  0  0  0
 16 31  1  0  0  0
 17 18  1  0  0  0
 17104  1  0  0  0
 18 19  2  0  0  0
 18105  1  0  0  0
 19 20  1  0  0  0
 19 24  1  0  0  0
 20 21  2  0  0  0
 20106  1  0  0  0
 21 23  1  0  0  0
 22 28  1  0  0  0
 22 32  2  0  0  0
 26 27  1  0  0  0
 28107  1  0  0  0
 28108  1  0  0  0
 29109  1  0  0  0
 29110  1  0  0  0
 33 34  1  0  0  0
 33 66  1  0  0  0
 33 70  2  0  0  0
 34 36  1  0  0  0
 34 59  1  0  0  0
 34111  1  0  0  0
 35 44  2  0  0  0
 35 45  1  0  0  0
 35 68  1  0  0  0
 36 56  1  0  0  0
 36112  1  0  0  0
 37 39  1  0  0  0
 37 47  1  0  0  0
 37 66  1  0  0  0
 37113  1  0  0  0
 38 43  2  0  0  0
 38 46  1  0  0  0
 38 47  1  0  0  0
 39 64  1  0  0  0
 39 67  2  0  0  0
 40 52  1  0  0  0
 40 53  2  0  0  0
 40 58  1  0  0  0
 41114  1  0  0  0
 41115  1  0  0  0
 41116  1  0  0  0
 41 48  1  0  0  0
 42 43  1  0  0  0
 42 66  1  0  0  0
 42117  1  0  0  0
 42118  1  0  0  0
 43 44  1  0  0  0
 44119  1  0  0  0
 45 46  2  0  0  0
 45120  1  0  0  0
 46121  1  0  0  0
 47122  1  0  0  0
 47123  1  0  0  0
 48 56  1  0  0  0
 48 65  1  0  0  0
 48124  1  0  0  0
 49 50  1  0  0  0
 49 53  1  0  0  0
 49 64  1  0  0  0
 49125  1  0  0  0
 50 51  1  0  0  0
 50126  1  0  0  0
 50127  1  0  0  0
 51 52  1  0  0  0
 51128  1  0  0  0
 51129  1  0  0  0
 52130  1  0  0  0
 52131  1  0  0  0
 53 54  1  0  0  0
 54 55  2  0  0  0
 54132  1  0  0  0
 55 57  1  0  0  0
 55133  1  0  0  0
 56 69  2  0  0  0
 57 58  2  0  0  0
 57134  1  0  0  0
 58135  1  0  0  0
 59 60  1  0  0  0
 59 61  1  0  0  0
 59 62  1  0  0  0
 60136  1  0  0  0
 60137  1  0  0  0
 60138  1  0  0  0
 61139  1  0  0  0
 61140  1  0  0  0
 61141  1  0  0  0
 62142  1  0  0  0
 62143  1  0  0  0
 62144  1  0  0  0
 63 65  1  0  0  0
 63145  1  0  0  0
 63146  1  0  0  0
 63147  1  0  0  0
 64148  1  0  0  0
 65149  1  0  0  0
 68 86  1  0  0  0
 71 72  2  0  0  0
 71 74  1  0  0  0
 71150  1  0  0  0
 72 76  1  0  0  0
 72151  1  0  0  0
 73 74  2  0  0  0
 73 75  1  0  0  0
 73152  1  0  0  0
 74 87  1  0  0  0
 75 76  2  0  0  0
 75 88  1  0  0  0
 76 90  1  0  0  0
 77 80  1  0  0  0
 77153  1  0  0  0
 77154  1  0  0  0
 77155  1  0  0  0
 78156  1  0  0  0
 78157  1  0  0  0
 78158  1  0  0  0
 78 87  1  0  0  0
 79 87  1  0  0  0
 79159  1  0  0  0
 79160  1  0  0  0
 79161  1  0  0  0
 80 81  1  0  0  0
 80162  1  0  0  0
 80163  1  0  0  0
 81 85  1  0  0  0
 81164  1  0  0  0
 81165  1  0  0  0
 82 83  1  0  0  0
 82 86  1  0  0  0
 82166  1  0  0  0
 82167  1  0  0  0
 83 89  1  0  0  0
 83168  1  0  0  0
 83169  1  0  0  0
 84 87  1  0  0  0
 84 89  1  0  0  0
 84170  1  0  0  0
 84171  1  0  0  0
 85 90  1  0  0  0
 85172  1  0  0  0
 85173  1  0  0  0
 86174  1  0  0  0
 86175  1  0  0  0
 88176  1  0  0  0
 89177  1  0  0  0
 89178  1  0  0  0
M  CHG  1  89   1
M  ISO  4   1 100  68 101  86 101  88 100
M  END
> <chiral flag>
0

> <version>
0

> <s_m_source_file>
/data/baiqing/PycharmProjects/Reinvent-master-3.2/result/LINK_invent/BTK/process_docking_weight1_custom_sum_contain_oxygen_bond_distance_aromatic_linkinvent_7_9_3/rearranged_h_0107.sdf

> <i_m_source_file_index>
75

> <r_mmod_Potential_Energy-OPLS-2005>
-211.457504272461

> <r_mmod_Stretch_Energy-OPLS-2005>
34.5107078552246

> <r_mmod_Bend_Energy-OPLS-2005>
100.199775695801

> <r_mmod_Torsional_Energy-OPLS-2005>
283.323394775391

> <r_mmod_Improper_Torsional_Energy-OPLS-2005>
2.26274490356445

> <r_mmod_Van_der_Waal_Energy-OPLS-2005>
170.374633789062

> <r_mmod_Electrostatic_Energy-OPLS-2005>
-345.287933349609

> <r_mmod_Solvation_Energy-OPLS-2005>
-463.938751220703

> <b_mmod_Minimization_Converged-OPLS-2005>
0

> <r_mmod_RMS_Derivative-OPLS-2005>
3.00609421730042

$$$$
77
                    3D
 Structure written by MMmdl.
159167  0  0  1  0            999 V2000
  -29.6688  -14.7026   19.4734 C   0  0  0  0  0  0
  -30.8033  -12.6533   19.3237 C   0  0  0  0  0  0
  -29.7031  -11.9412   18.5582 C   0  0  0  0  0  0
  -28.8636  -11.4539   19.7747 C   0  0  0  0  0  0
  -28.2807  -12.5831   20.8717 C   0  0  2  0  0  0
  -29.4634  -13.2342   21.3863 C   0  0  0  0  0  0
  -25.9486  -13.9149   20.8736 C   0  0  0  0  0  0
  -24.2953  -13.5769   20.1597 C   0  0  0  0  0  0
  -24.2784  -12.3848   19.6637 C   0  0  0  0  0  0
  -23.8629  -10.9498   20.1081 C   0  0  0  0  0  0
  -24.6885   -9.6249   20.9962 C   0  0  0  0  0  0
  -23.8863   -8.6507   21.9624 C   0  0  0  0  0  0
  -22.3530   -8.6699   22.0303 C   0  0  0  0  0  0
  -21.5833   -9.8672   21.3659 C   0  0  0  0  0  0
  -22.2441  -10.9748   20.3976 C   0  0  0  0  0  0
  -21.7423   -6.3027   22.6864 C   0  0  0  0  0  0
  -21.4310   -6.6371   24.0088 C   0  0  0  0  0  0
  -21.3637   -5.6624   25.0150 C   0  0  0  0  0  0
  -21.5967   -4.3131   24.7156 C   0  0  0  0  0  0
  -21.8684   -3.9332   23.3890 C   0  0  0  0  0  0
  -21.9290   -4.9104   22.3655 C   0  0  0  0  0  0
  -22.7212  -13.9374   20.6005 C   0  0  0  0  0  0
  -22.1645   -4.4685   21.1004 F   0  0  0  0  0  0
  -21.5587   -3.3972   25.7108 F   0  0  0  0  0  0
  -30.1452  -13.6552   20.1763 N   0  0  0  0  0  0
  -26.9986  -13.5771   20.9525 N   0  0  0  0  0  0
  -25.1952  -13.4620   20.2532 N   0  0  0  0  0  0
  -22.0262  -13.4052   21.6314 N   0  0  0  0  0  0
  -26.8194  -14.7923   21.7035 N   0  0  0  0  0  0
  -30.6713  -15.4515   19.3914 O   0  0  0  0  0  0
  -21.7513   -7.3757   21.7925 O   0  0  0  0  0  0
  -22.1465  -14.8499   20.0578 O   0  0  0  0  0  0
  -24.7159  -31.7476   23.1297 C   0  0  0  0  0  0
  -25.9628  -32.4135   23.7888 C   0  0  1  0  0  0
  -26.4647  -25.9070   20.5516 C   0  0  0  0  0  0
  -25.6079  -33.8027   24.1667 N   0  0  0  0  0  0
  -23.5313  -30.3723   21.4881 C   0  0  2  0  0  0
  -24.8846  -28.5877   20.1107 C   0  0  0  0  0  0
  -22.7739  -29.4136   22.4469 C   0  0  0  0  0  0
  -18.0313  -28.1416   22.8427 C   0  0  0  0  0  0
  -24.1480  -36.7004   23.2651 C   0  0  0  0  0  0
  -26.0982  -30.1890   21.5291 C   0  0  0  0  0  0
  -26.0136  -28.6861   20.9191 C   0  0  0  0  0  0
  -26.8059  -27.3729   21.1026 C   0  0  0  0  0  0
  -25.5676  -26.2369   19.5034 C   0  0  0  0  0  0
  -24.7755  -27.4208   19.3395 C   0  0  0  0  0  0
  -23.8018  -29.6904   20.1083 C   0  0  0  0  0  0
  -25.4155  -36.2690   24.0218 C   0  0  1  0  0  0
  -20.5954  -28.3800   23.1045 C   0  0  2  0  0  0
  -20.6759  -26.9417   22.5401 C   0  0  0  0  0  0
  -19.5753  -26.6329   21.5199 C   0  0  0  0  0  0
  -18.1930  -26.7939   22.1585 C   0  0  0  0  0  0
  -19.1586  -28.8923   23.2729 C   0  0  0  0  0  0
  -18.9517  -30.1498   23.8796 C   0  0  0  0  0  0
  -17.6516  -30.6606   24.0536 C   0  0  0  0  0  0
  -25.9190  -34.9115   23.4797 C   0  0  0  0  0  0
  -16.5394  -29.9104   23.6347 C   0  0  0  0  0  0
  -16.7302  -28.6514   23.0380 C   0  0  0  0  0  0
  -26.4675  -31.6505   25.0798 C   0  0  0  0  0  0
  -25.3651  -31.4091   26.1371 C   0  0  0  0  0  0
  -27.0767  -30.2790   24.7278 C   0  0  0  0  0  0
  -27.5957  -32.4590   25.7633 C   0  0  0  0  0  0
  -27.5543  -37.1641   24.8433 C   0  0  0  0  0  0
  -21.4369  -29.3024   22.3300 N   0  0  0  0  0  0
  -26.4202  -37.3554   23.9430 N   0  0  0  0  0  0
  -24.8185  -30.8349   22.0883 N   0  0  0  0  0  0
  -23.4060  -28.7699   23.2882 O   0  0  0  0  0  0
  -26.7498  -24.2348   20.8278 O   0  0  0  0  0  0
  -26.5881  -34.8793   22.4452 O   0  0  0  0  0  0
  -23.6139  -32.0957   23.5972 O   0  0  0  0  0  0
  -25.6272  -15.6473   19.4991 C   0  0  0  0  0  0
  -25.8971  -11.6512   21.3551 C   0  0  0  0  0  0
  -24.6205  -15.5834   21.3907 C   0  0  0  0  0  0
  -24.6024  -13.0342   22.3978 C   0  0  0  0  0  0
  -26.7416  -14.0613   18.6729 C   0  0  0  0  0  0
  -25.7914  -20.2110   22.9296 C   0  0  0  0  0  0
  -22.9716   -8.9039   19.7419 C   0  0  0  0  0  0
  -25.8802  -22.2944   20.9189 C   0  0  0  0  0  0
  -24.7619  -17.7980   21.6060 C   0  0  1  0  0  0
  -25.7556  -19.9613   21.4000 C   0  0  2  0  0  0
  -23.5462  -11.1204   22.2480 C   0  0  0  0  0  0
  -26.5630  -12.0640   19.2919 N   0  0  0  0  0  0
  -28.3002  -14.7364   18.7498 N   0  0  0  0  0  0
  -23.5550  -18.2741   21.0517 O   0  0  0  0  0  0
  -22.5039  -11.3822   23.0638 F   0  0  0  0  0  0
  -24.3326  -10.6825   23.2649 F   0  0  0  0  0  0
  -31.4974  -13.1240   18.6221 H   0  0  0  0  0  0
  -31.4213  -11.9775   19.9191 H   0  0  0  0  0  0
  -30.1277  -11.0975   18.0177 H   0  0  0  0  0  0
  -29.1470  -12.5330   17.8274 H   0  0  0  0  0  0
  -29.5541  -10.8713   20.3879 H   0  0  0  0  0  0
  -28.2473  -10.5904   19.5097 H   0  0  0  0  0  0
  -28.3057  -12.9087   19.9499 H   0  0  0  0  0  0
  -30.0860  -12.5442   21.9553 H   0  0  0  0  0  0
  -29.2690  -14.0879   22.0367 H   0  0  0  0  0  0
  -25.7239   -9.3579   20.7999 H   0  0  0  0  0  0
  -24.4089   -7.7842   22.3322 H   0  0  0  0  0  0
  -20.5044   -9.8172   21.3766 H   0  0  0  0  0  0
  -21.6041  -11.6888   19.9049 H   0  0  0  0  0  0
  -21.2428   -7.6674   24.2720 H   0  0  0  0  0  0
  -21.1397   -5.9549   26.0298 H   0  0  0  0  0  0
  -22.0250   -2.8901   23.1554 H   0  0  0  0  0  0
  -21.0621  -13.6537   21.7848 H   0  0  0  0  0  0
  -22.4877  -12.7484   22.2534 H   0  0  0  0  0  0
  -26.3247  -15.3365   22.3922 H   0  0  0  0  0  0
  -27.6381  -14.3679   22.1133 H   0  0  0  0  0  0
  -26.7710  -32.4329   23.0545 H   0  0  0  0  0  0
  -25.0114  -33.9008   24.9754 H   0  0  0  0  0  0
  -22.8909  -31.2371   21.3042 H   0  0  0  0  0  0
  -23.3796  -35.9270   23.3142 H   0  0  0  0  0  0
  -24.3545  -36.8902   22.2105 H   0  0  0  0  0  0
  -23.7173  -37.6072   23.6914 H   0  0  0  0  0  0
  -26.4364  -30.8364   20.7181 H   0  0  0  0  0  0
  -26.9223  -30.2179   22.2236 H   0  0  0  0  0  0
  -27.5722  -27.4283   21.8669 H   0  0  0  0  0  0
  -25.2637  -25.4011   18.8879 H   0  0  0  0  0  0
  -23.9815  -27.3721   18.6090 H   0  0  0  0  0  0
  -24.1090  -30.4544   19.3929 H   0  0  0  0  0  0
  -22.8719  -29.2865   19.7065 H   0  0  0  0  0  0
  -25.1378  -36.1333   25.0700 H   0  0  0  0  0  0
  -21.0070  -28.3455   24.1155 H   0  0  0  0  0  0
  -20.5545  -26.2432   23.3701 H   0  0  0  0  0  0
  -21.6618  -26.7269   22.1257 H   0  0  0  0  0  0
  -19.6905  -25.6200   21.1317 H   0  0  0  0  0  0
  -19.6717  -27.3052   20.6658 H   0  0  0  0  0  0
  -17.4203  -26.6675   21.3989 H   0  0  0  0  0  0
  -18.0305  -26.0106   22.8998 H   0  0  0  0  0  0
  -19.8015  -30.7314   24.2130 H   0  0  0  0  0  0
  -17.5097  -31.6277   24.5150 H   0  0  0  0  0  0
  -15.5407  -30.3002   23.7746 H   0  0  0  0  0  0
  -15.8682  -28.0818   22.7189 H   0  0  0  0  0  0
  -24.5802  -30.7437   25.7781 H   0  0  0  0  0  0
  -24.8898  -32.3433   26.4381 H   0  0  0  0  0  0
  -25.7748  -30.9568   27.0417 H   0  0  0  0  0  0
  -26.3547  -29.6072   24.2644 H   0  0  0  0  0  0
  -27.4268  -29.7652   25.6247 H   0  0  0  0  0  0
  -27.9516  -30.3793   24.0855 H   0  0  0  0  0  0
  -27.2325  -33.4003   26.1781 H   0  0  0  0  0  0
  -28.3975  -32.7014   25.0652 H   0  0  0  0  0  0
  -28.0413  -31.9086   26.5932 H   0  0  0  0  0  0
  -28.2381  -38.0104   24.7619 H   0  0  0  0  0  0
  -28.1206  -36.2619   24.6053 H   0  0  0  0  0  0
  -27.2294  -37.1023   25.8840 H   0  0  0  0  0  0
  -20.9682  -29.8718   21.6397 H   0  0  0  0  0  0
  -25.9937  -38.2531   24.1596 H   0  0  0  0  0  0
  -25.8594  -16.6483   19.1755 H   0  0  0  0  0  0
  -26.3949  -10.8787   21.9266 H   0  0  0  0  0  0
  -26.3173  -21.1298   23.2002 H   0  0  0  0  0  0
  -26.2772  -19.4052   23.4752 H   0  0  0  0  0  0
  -24.7766  -20.2885   23.3330 H   0  0  0  0  0  0
  -22.0734   -9.0268   19.1163 H   0  0  0  0  0  0
  -22.9646   -7.8200   19.8990 H   0  0  0  0  0  0
  -23.7217   -8.8896   18.9355 H   0  0  0  0  0  0
  -25.5257  -22.2574   19.8896 H   0  0  0  0  0  0
  -25.0146  -22.6102   21.5033 H   0  0  0  0  0  0
  -24.5518  -17.8211   22.6772 H   0  0  0  0  0  0
  -26.7543  -19.6573   21.0814 H   0  0  0  0  0  0
  -28.3049  -15.5643   18.1811 H   0  0  0  0  0  0
  -22.8615  -18.0178   21.6521 H   0  0  0  0  0  0
  1 25  1  0  0  0
  1 30  2  0  0  0
  1 83  1  0  0  0
  2  3  1  0  0  0
  2 25  1  0  0  0
  2 87  1  0  0  0
  2 88  1  0  0  0
  3  4  1  0  0  0
  3 89  1  0  0  0
  3 90  1  0  0  0
  4  5  1  0  0  0
  4 91  1  0  0  0
  4 92  1  0  0  0
  5  6  1  0  0  0
  5 26  1  0  0  0
  5 93  1  0  0  0
  6 25  1  0  0  0
  6 94  1  0  0  0
  6 95  1  0  0  0
  7  8  2  0  0  0
  7 26  1  0  0  0
  7 29  1  0  0  0
  8  9  1  0  0  0
  8 22  1  0  0  0
  9 10  1  0  0  0
  9 27  2  0  0  0
 10 11  2  0  0  0
 10 15  1  0  0  0
 11 12  1  0  0  0
 11 96  1  0  0  0
 12 13  2  0  0  0
 12 97  1  0  0  0
 13 14  1  0  0  0
 13 31  1  0  0  0
 14 15  2  0  0  0
 14 98  1  0  0  0
 15 99  1  0  0  0
 16 17  2  0  0  0
 16 21  1  0  0  0
 16 31  1  0  0  0
 17 18  1  0  0  0
 17100  1  0  0  0
 18 19  2  0  0  0
 18101  1  0  0  0
 19 20  1  0  0  0
 19 24  1  0  0  0
 20 21  2  0  0  0
 20102  1  0  0  0
 21 23  1  0  0  0
 22 28  1  0  0  0
 22 32  2  0  0  0
 26 27  1  0  0  0
 28103  1  0  0  0
 28104  1  0  0  0
 29105  1  0  0  0
 29106  1  0  0  0
 33 34  1  0  0  0
 33 66  1  0  0  0
 33 70  2  0  0  0
 34 36  1  0  0  0
 34 59  1  0  0  0
 34107  1  0  0  0
 35 44  2  0  0  0
 35 45  1  0  0  0
 35 68  1  0  0  0
 36 56  1  0  0  0
 36108  1  0  0  0
 37 39  1  0  0  0
 37 47  1  0  0  0
 37 66  1  0  0  0
 37109  1  0  0  0
 38 43  2  0  0  0
 38 46  1  0  0  0
 38 47  1  0  0  0
 39 64  1  0  0  0
 39 67  2  0  0  0
 40 52  1  0  0  0
 40 53  2  0  0  0
 40 58  1  0  0  0
 41110  1  0  0  0
 41111  1  0  0  0
 41112  1  0  0  0
 41 48  1  0  0  0
 42 43  1  0  0  0
 42 66  1  0  0  0
 42113  1  0  0  0
 42114  1  0  0  0
 43 44  1  0  0  0
 44115  1  0  0  0
 45 46  2  0  0  0
 45116  1  0  0  0
 46117  1  0  0  0
 47118  1  0  0  0
 47119  1  0  0  0
 48 56  1  0  0  0
 48 65  1  0  0  0
 48120  1  0  0  0
 49 50  1  0  0  0
 49 53  1  0  0  0
 49 64  1  0  0  0
 49121  1  0  0  0
 50 51  1  0  0  0
 50122  1  0  0  0
 50123  1  0  0  0
 51 52  1  0  0  0
 51124  1  0  0  0
 51125  1  0  0  0
 52126  1  0  0  0
 52127  1  0  0  0
 53 54  1  0  0  0
 54 55  2  0  0  0
 54128  1  0  0  0
 55 57  1  0  0  0
 55129  1  0  0  0
 56 69  2  0  0  0
 57 58  2  0  0  0
 57130  1  0  0  0
 58131  1  0  0  0
 59 60  1  0  0  0
 59 61  1  0  0  0
 59 62  1  0  0  0
 60132  1  0  0  0
 60133  1  0  0  0
 60134  1  0  0  0
 61135  1  0  0  0
 61136  1  0  0  0
 61137  1  0  0  0
 62138  1  0  0  0
 62139  1  0  0  0
 62140  1  0  0  0
 63 65  1  0  0  0
 63141  1  0  0  0
 63142  1  0  0  0
 63143  1  0  0  0
 64144  1  0  0  0
 65145  1  0  0  0
 68 78  1  0  0  0
 71 73  2  0  0  0
 71 75  1  0  0  0
 71146  1  0  0  0
 72 74  2  0  0  0
 72 82  1  0  0  0
 72147  1  0  0  0
 73 74  1  0  0  0
 73 79  1  0  0  0
 74 81  1  0  0  0
 75 82  2  0  0  0
 75 83  1  0  0  0
 76148  1  0  0  0
 76149  1  0  0  0
 76150  1  0  0  0
 76 80  1  0  0  0
 77151  1  0  0  0
 77152  1  0  0  0
 77153  1  0  0  0
 77 81  1  0  0  0
 78 80  1  0  0  0
 78154  1  0  0  0
 78155  1  0  0  0
 79 80  1  0  0  0
 79 84  1  0  0  0
 79156  1  0  0  0
 80157  1  0  0  0
 81 85  1  0  0  0
 81 86  1  0  0  0
 83158  1  0  0  0
 84159  1  0  0  0
M  ISO  4   1 100  68 101  78 101  83 100
M  END
> <chiral flag>
0

> <version>
0

> <s_m_source_file>
/data/baiqing/PycharmProjects/Reinvent-master-3.2/result/LINK_invent/BTK/process_docking_weight1_custom_sum_contain_oxygen_bond_distance_aromatic_linkinvent_7_9_3/rearranged_h_0107.sdf

> <i_m_source_file_index>
76

> <r_mmod_Potential_Energy-OPLS-2005>
35366.28125

> <r_mmod_Stretch_Energy-OPLS-2005>
19826.3671875

> <r_mmod_Bend_Energy-OPLS-2005>
3734.51879882812

> <r_mmod_Torsional_Energy-OPLS-2005>
827.823120117188

> <r_mmod_Improper_Torsional_Energy-OPLS-2005>
137.0087890625

> <r_mmod_Van_der_Waal_Energy-OPLS-2005>
6558.88134765625

> <r_mmod_Electrostatic_Energy-OPLS-2005>
-491.358917236328

> <r_mmod_Solvation_Energy-OPLS-2005>
-238.394638061523

> <b_mmod_Minimization_Converged-OPLS-2005>
0

> <r_mmod_RMS_Derivative-OPLS-2005>
12.9169101715088

$$$$
78
                    3D
 Structure written by MMmdl.
175183  0  0  1  0            999 V2000
  -30.7408  -14.5639   20.5397 C   0  0  0  0  0  0
  -30.4083  -12.3560   19.4613 C   0  0  0  0  0  0
  -29.5060  -12.5086   18.2231 C   0  0  0  0  0  0
  -28.0276  -12.3618   18.6308 C   0  0  0  0  0  0
  -27.6544  -13.2343   19.8612 C   0  0  2  0  0  0
  -28.6960  -13.1087   20.9968 C   0  0  0  0  0  0
  -25.2528  -13.8206   20.5701 C   0  0  0  0  0  0
  -24.1815  -13.0450   20.9196 C   0  0  0  0  0  0
  -24.6415  -11.6928   20.8704 C   0  0  0  0  0  0
  -23.9097  -10.4297   21.0354 C   0  0  0  0  0  0
  -24.3636   -9.4210   21.9144 C   0  0  0  0  0  0
  -23.6300   -8.2248   22.0728 C   0  0  0  0  0  0
  -22.4272   -8.0295   21.3534 C   0  0  0  0  0  0
  -21.9921   -9.0271   20.4629 C   0  0  0  0  0  0
  -22.7257  -10.2140   20.3022 C   0  0  0  0  0  0
  -21.6848   -6.0748   22.5272 C   0  0  0  0  0  0
  -21.4025   -6.5643   23.8215 C   0  0  0  0  0  0
  -21.3661   -5.6776   24.9166 C   0  0  0  0  0  0
  -21.6028   -4.3042   24.7204 C   0  0  0  0  0  0
  -21.8817   -3.8154   23.4322 C   0  0  0  0  0  0
  -21.9192   -4.6980   22.3383 C   0  0  0  0  0  0
  -22.7820  -13.5235   21.1837 C   0  0  0  0  0  0
  -22.1652   -4.2174   21.0959 F   0  0  0  0  0  0
  -21.5634   -3.4524   25.7721 F   0  0  0  0  0  0
  -30.0192  -13.4032   20.4312 N   0  0  0  0  0  0
  -26.3000  -12.9444   20.3321 N   0  0  0  0  0  0
  -25.9359  -11.6573   20.5728 N   0  0  0  0  0  0
  -22.0432  -12.8259   22.0391 N   0  0  0  0  0  0
  -25.4220  -15.1924   20.4115 N   0  0  0  0  0  0
  -31.8640  -14.6376   20.0426 O   0  0  0  0  0  0
  -21.6631   -6.8897   21.4234 O   0  0  0  0  0  0
  -22.3513  -14.5542   20.6672 O   0  0  0  0  0  0
  -24.6208  -31.8649   23.2060 C   0  0  0  0  0  0
  -25.9089  -32.4816   23.8335 C   0  0  1  0  0  0
  -27.2185  -27.3750   20.1066 C   0  0  0  0  0  0
  -25.5937  -33.8595   24.2304 N   0  0  0  0  0  0
  -23.4105  -30.4892   21.5471 C   0  0  2  0  0  0
  -24.8551  -28.9486   20.1116 C   0  0  0  0  0  0
  -22.7428  -29.4663   22.4966 C   0  0  0  0  0  0
  -18.0282  -28.1364   22.8478 C   0  0  0  0  0  0
  -24.1490  -36.7287   23.2644 C   0  0  0  0  0  0
  -25.9440  -30.8145   21.3654 C   0  0  0  0  0  0
  -26.0207  -29.4439   20.7113 C   0  0  0  0  0  0
  -27.2106  -28.6668   20.6981 C   0  0  0  0  0  0
  -26.0406  -26.9186   19.4809 C   0  0  0  0  0  0
  -24.8634  -27.6883   19.4902 C   0  0  0  0  0  0
  -23.6206  -29.8243   20.1620 C   0  0  0  0  0  0
  -25.4110  -36.3103   24.0350 C   0  0  1  0  0  0
  -20.5870  -28.3666   23.1302 C   0  0  2  0  0  0
  -20.6765  -26.9399   22.5405 C   0  0  0  0  0  0
  -19.5756  -26.6395   21.5178 C   0  0  0  0  0  0
  -18.1934  -26.7927   22.1597 C   0  0  0  0  0  0
  -19.1527  -28.8825   23.2895 C   0  0  0  0  0  0
  -18.9470  -30.1424   23.8908 C   0  0  0  0  0  0
  -17.6470  -30.6581   24.0548 C   0  0  0  0  0  0
  -25.9047  -34.9469   23.5131 C   0  0  0  0  0  0
  -16.5351  -29.9084   23.6322 C   0  0  0  0  0  0
  -16.7268  -28.6496   23.0354 C   0  0  0  0  0  0
  -26.4486  -31.6594   25.0677 C   0  0  0  0  0  0
  -25.3748  -31.3692   26.1429 C   0  0  0  0  0  0
  -27.0306  -30.3035   24.6059 C   0  0  0  0  0  0
  -27.6072  -32.4279   25.7449 C   0  0  0  0  0  0
  -27.5578  -37.1799   24.8474 C   0  0  0  0  0  0
  -21.4153  -29.3046   22.3706 N   0  0  0  0  0  0
  -26.4301  -37.3788   23.9418 N   0  0  0  0  0  0
  -24.6761  -31.0716   22.0979 N   0  0  0  0  0  0
  -23.4177  -28.8202   23.3034 O   0  0  0  0  0  0
  -28.3332  -26.5491   20.1274 O   0  0  0  0  0  0
  -26.5586  -34.8933   22.4681 O   0  0  0  0  0  0
  -23.5390  -32.1382   23.7472 O   0  0  0  0  0  0
  -31.4017  -19.0394   21.2223 C   0  0  0  0  0  0
  -32.4292  -18.3644   21.8155 C   0  0  0  0  0  0
  -32.0100  -17.0041   21.9594 C   0  0  0  0  0  0
  -30.8033  -16.8885   21.2983 C   0  0  0  0  0  0
  -32.8046  -15.9278   22.6673 C   0  0  0  0  0  0
  -33.6371  -20.4134   22.7040 C   0  0  0  0  0  0
  -34.7287  -18.8917   21.0065 C   0  0  0  0  0  0
  -30.1948  -24.0855   19.8163 C   0  0  0  0  0  0
  -26.7186  -22.4348   20.1240 C   0  0  0  0  0  0
  -28.5436  -20.0177   20.7024 C   0  0  0  0  0  0
  -29.1552  -18.6371   20.2225 C   0  0  0  0  0  0
  -28.9396  -21.3754   19.9796 C   0  0  0  0  0  0
  -28.1272  -25.2226   20.7145 C   0  0  0  0  0  0
  -33.7654  -18.9672   22.1983 C   0  0  0  0  0  0
  -28.6562  -23.9771   19.8884 C   0  0  2  0  0  0
  -30.3667  -18.1774   20.9209 N   0  0  0  0  0  0
  -30.1553  -15.6845   21.0686 N   0  0  0  0  0  0
  -28.1701  -22.6196   20.4069 N   0  3  1  0  0  0
  -31.4592  -12.4099   19.1726 H   0  0  0  0  0  0
  -30.2799  -11.3672   19.9058 H   0  0  0  0  0  0
  -29.7665  -11.7628   17.4708 H   0  0  0  0  0  0
  -29.6776  -13.4811   17.7570 H   0  0  0  0  0  0
  -27.8464  -11.3103   18.8592 H   0  0  0  0  0  0
  -27.3823  -12.6007   17.7852 H   0  0  0  0  0  0
  -27.6794  -14.2701   19.5210 H   0  0  0  0  0  0
  -28.6876  -12.1018   21.4164 H   0  0  0  0  0  0
  -28.4496  -13.7804   21.8197 H   0  0  0  0  0  0
  -25.2771   -9.5716   22.4724 H   0  0  0  0  0  0
  -24.0013   -7.4642   22.7442 H   0  0  0  0  0  0
  -21.0854   -8.8800   19.8932 H   0  0  0  0  0  0
  -22.3702  -10.9683   19.6145 H   0  0  0  0  0  0
  -21.2028   -7.6149   23.9745 H   0  0  0  0  0  0
  -21.1475   -6.0488   25.9073 H   0  0  0  0  0  0
  -22.0598   -2.7621   23.2795 H   0  0  0  0  0  0
  -22.4044  -11.9987   22.4895 H   0  0  0  0  0  0
  -21.1034  -13.1283   22.2505 H   0  0  0  0  0  0
  -24.6538  -15.8461   20.5172 H   0  0  0  0  0  0
  -26.2758  -15.6312   20.0924 H   0  0  0  0  0  0
  -26.7151  -32.5513   23.1073 H   0  0  0  0  0  0
  -25.0154  -33.9708   25.0501 H   0  0  0  0  0  0
  -22.7007  -31.3067   21.4068 H   0  0  0  0  0  0
  -23.3786  -35.9591   23.3310 H   0  0  0  0  0  0
  -24.3610  -36.8881   22.2061 H   0  0  0  0  0  0
  -23.7180  -37.6477   23.6628 H   0  0  0  0  0  0
  -26.0646  -31.5817   20.5983 H   0  0  0  0  0  0
  -26.8296  -30.8653   21.9874 H   0  0  0  0  0  0
  -28.1129  -29.0413   21.1615 H   0  0  0  0  0  0
  -26.0276  -25.9544   18.9917 H   0  0  0  0  0  0
  -23.9705  -27.3044   19.0154 H   0  0  0  0  0  0
  -23.7310  -30.5978   19.4000 H   0  0  0  0  0  0
  -22.7395  -29.2512   19.8679 H   0  0  0  0  0  0
  -25.1284  -36.1979   25.0840 H   0  0  0  0  0  0
  -20.9940  -28.3246   24.1430 H   0  0  0  0  0  0
  -20.5629  -26.2267   23.3594 H   0  0  0  0  0  0
  -21.6644  -26.7415   22.1213 H   0  0  0  0  0  0
  -19.6915  -25.6311   21.1218 H   0  0  0  0  0  0
  -19.6728  -27.3186   20.6689 H   0  0  0  0  0  0
  -17.4194  -26.6634   21.4017 H   0  0  0  0  0  0
  -18.0363  -26.0067   22.8989 H   0  0  0  0  0  0
  -19.7942  -30.7219   24.2295 H   0  0  0  0  0  0
  -17.5040  -31.6269   24.5131 H   0  0  0  0  0  0
  -15.5357  -30.2986   23.7662 H   0  0  0  0  0  0
  -15.8658  -28.0817   22.7085 H   0  0  0  0  0  0
  -24.5970  -30.6983   25.7769 H   0  0  0  0  0  0
  -24.8894  -32.2834   26.4841 H   0  0  0  0  0  0
  -25.8133  -30.8902   27.0191 H   0  0  0  0  0  0
  -26.2822  -29.6811   24.1161 H   0  0  0  0  0  0
  -27.4126  -29.7258   25.4481 H   0  0  0  0  0  0
  -27.8623  -30.4367   23.9150 H   0  0  0  0  0  0
  -27.2739  -33.3613   26.1983 H   0  0  0  0  0  0
  -28.3911  -32.6771   25.0289 H   0  0  0  0  0  0
  -28.0680  -31.8409   26.5404 H   0  0  0  0  0  0
  -28.2611  -38.0086   24.7536 H   0  0  0  0  0  0
  -28.1064  -36.2628   24.6286 H   0  0  0  0  0  0
  -27.2317  -37.1406   25.8885 H   0  0  0  0  0  0
  -20.9308  -29.8761   21.6925 H   0  0  0  0  0  0
  -26.0217  -38.2881   24.1424 H   0  0  0  0  0  0
  -31.3445  -20.0828   20.9604 H   0  0  0  0  0  0
  -33.3198  -16.3233   23.5425 H   0  0  0  0  0  0
  -33.5524  -15.5104   21.9927 H   0  0  0  0  0  0
  -32.1564  -15.1225   23.0147 H   0  0  0  0  0  0
  -32.9485  -20.4710   23.5466 H   0  0  0  0  0  0
  -33.2735  -21.0868   21.9264 H   0  0  0  0  0  0
  -34.6025  -20.7961   23.0406 H   0  0  0  0  0  0
  -34.8581  -17.8620   20.6726 H   0  0  0  0  0  0
  -35.7115  -19.2894   21.2605 H   0  0  0  0  0  0
  -34.3529  -19.4630   20.1576 H   0  0  0  0  0  0
  -30.4964  -25.0878   19.5087 H   0  0  0  0  0  0
  -30.6300  -23.4014   19.0875 H   0  0  0  0  0  0
  -30.6518  -23.8968   20.7882 H   0  0  0  0  0  0
  -26.2921  -21.6450   20.7371 H   0  0  0  0  0  0
  -26.5591  -22.1668   19.0786 H   0  0  0  0  0  0
  -26.1090  -23.3114   20.3259 H   0  0  0  0  0  0
  -28.6944  -20.1274   21.7765 H   0  0  0  0  0  0
  -27.4718  -19.8758   20.5875 H   0  0  0  0  0  0
  -29.3723  -18.6694   19.1547 H   0  0  0  0  0  0
  -28.4059  -17.8540   20.3510 H   0  0  0  0  0  0
  -28.8244  -21.2545   18.9013 H   0  0  0  0  0  0
  -30.0010  -21.5371   20.1402 H   0  0  0  0  0  0
  -28.6346  -25.2394   21.6795 H   0  0  0  0  0  0
  -27.0811  -25.0864   20.9810 H   0  0  0  0  0  0
  -34.1830  -18.3736   23.0112 H   0  0  0  0  0  0
  -28.2750  -24.0764   18.8711 H   0  0  0  0  0  0
  -29.1711  -15.6407   21.2824 H   0  0  0  0  0  0
  -28.2577  -22.6646   21.4137 H   0  0  0  0  0  0
  1 25  1  0  0  0
  1 30  2  0  0  0
  1 87  1  0  0  0
  2  3  1  0  0  0
  2 25  1  0  0  0
  2 89  1  0  0  0
  2 90  1  0  0  0
  3  4  1  0  0  0
  3 91  1  0  0  0
  3 92  1  0  0  0
  4  5  1  0  0  0
  4 93  1  0  0  0
  4 94  1  0  0  0
  5  6  1  0  0  0
  5 26  1  0  0  0
  5 95  1  0  0  0
  6 25  1  0  0  0
  6 96  1  0  0  0
  6 97  1  0  0  0
  7  8  2  0  0  0
  7 26  1  0  0  0
  7 29  1  0  0  0
  8  9  1  0  0  0
  8 22  1  0  0  0
  9 10  1  0  0  0
  9 27  2  0  0  0
 10 11  2  0  0  0
 10 15  1  0  0  0
 11 12  1  0  0  0
 11 98  1  0  0  0
 12 13  2  0  0  0
 12 99  1  0  0  0
 13 14  1  0  0  0
 13 31  1  0  0  0
 14 15  2  0  0  0
 14100  1  0  0  0
 15101  1  0  0  0
 16 17  2  0  0  0
 16 21  1  0  0  0
 16 31  1  0  0  0
 17 18  1  0  0  0
 17102  1  0  0  0
 18 19  2  0  0  0
 18103  1  0  0  0
 19 20  1  0  0  0
 19 24  1  0  0  0
 20 21  2  0  0  0
 20104  1  0  0  0
 21 23  1  0  0  0
 22 28  1  0  0  0
 22 32  2  0  0  0
 26 27  1  0  0  0
 28105  1  0  0  0
 28106  1  0  0  0
 29107  1  0  0  0
 29108  1  0  0  0
 33 34  1  0  0  0
 33 66  1  0  0  0
 33 70  2  0  0  0
 34 36  1  0  0  0
 34 59  1  0  0  0
 34109  1  0  0  0
 35 44  2  0  0  0
 35 45  1  0  0  0
 35 68  1  0  0  0
 36 56  1  0  0  0
 36110  1  0  0  0
 37 39  1  0  0  0
 37 47  1  0  0  0
 37 66  1  0  0  0
 37111  1  0  0  0
 38 43  2  0  0  0
 38 46  1  0  0  0
 38 47  1  0  0  0
 39 64  1  0  0  0
 39 67  2  0  0  0
 40 52  1  0  0  0
 40 53  2  0  0  0
 40 58  1  0  0  0
 41112  1  0  0  0
 41113  1  0  0  0
 41114  1  0  0  0
 41 48  1  0  0  0
 42 43  1  0  0  0
 42 66  1  0  0  0
 42115  1  0  0  0
 42116  1  0  0  0
 43 44  1  0  0  0
 44117  1  0  0  0
 45 46  2  0  0  0
 45118  1  0  0  0
 46119  1  0  0  0
 47120  1  0  0  0
 47121  1  0  0  0
 48 56  1  0  0  0
 48 65  1  0  0  0
 48122  1  0  0  0
 49 50  1  0  0  0
 49 53  1  0  0  0
 49 64  1  0  0  0
 49123  1  0  0  0
 50 51  1  0  0  0
 50124  1  0  0  0
 50125  1  0  0  0
 51 52  1  0  0  0
 51126  1  0  0  0
 51127  1  0  0  0
 52128  1  0  0  0
 52129  1  0  0  0
 53 54  1  0  0  0
 54 55  2  0  0  0
 54130  1  0  0  0
 55 57  1  0  0  0
 55131  1  0  0  0
 56 69  2  0  0  0
 57 58  2  0  0  0
 57132  1  0  0  0
 58133  1  0  0  0
 59 60  1  0  0  0
 59 61  1  0  0  0
 59 62  1  0  0  0
 60134  1  0  0  0
 60135  1  0  0  0
 60136  1  0  0  0
 61137  1  0  0  0
 61138  1  0  0  0
 61139  1  0  0  0
 62140  1  0  0  0
 62141  1  0  0  0
 62142  1  0  0  0
 63 65  1  0  0  0
 63143  1  0  0  0
 63144  1  0  0  0
 63145  1  0  0  0
 64146  1  0  0  0
 65147  1  0  0  0
 68 83  1  0  0  0
 71 72  2  0  0  0
 71 86  1  0  0  0
 71148  1  0  0  0
 72 73  1  0  0  0
 72 84  1  0  0  0
 73 74  2  0  0  0
 73 75  1  0  0  0
 74 86  1  0  0  0
 74 87  1  0  0  0
 75149  1  0  0  0
 75150  1  0  0  0
 75151  1  0  0  0
 76152  1  0  0  0
 76153  1  0  0  0
 76154  1  0  0  0
 76 84  1  0  0  0
 77 84  1  0  0  0
 77155  1  0  0  0
 77156  1  0  0  0
 77157  1  0  0  0
 78158  1  0  0  0
 78159  1  0  0  0
 78160  1  0  0  0
 78 85  1  0  0  0
 79161  1  0  0  0
 79162  1  0  0  0
 79163  1  0  0  0
 79 88  1  0  0  0
 80 81  1  0  0  0
 80 82  1  0  0  0
 80164  1  0  0  0
 80165  1  0  0  0
 81 86  1  0  0  0
 81166  1  0  0  0
 81167  1  0  0  0
 82 88  1  0  0  0
 82168  1  0  0  0
 82169  1  0  0  0
 83 85  1  0  0  0
 83170  1  0  0  0
 83171  1  0  0  0
 84172  1  0  0  0
 85 88  1  0  0  0
 85173  1  0  0  0
 87174  1  0  0  0
 88175  1  0  0  0
M  CHG  1  88   1
M  ISO  4   1 100  68 101  83 101  87 100
M  END
> <chiral flag>
0

> <version>
0

> <s_m_source_file>
/data/baiqing/PycharmProjects/Reinvent-master-3.2/result/LINK_invent/BTK/process_docking_weight1_custom_sum_contain_oxygen_bond_distance_aromatic_linkinvent_7_9_3/rearranged_h_0107.sdf

> <i_m_source_file_index>
77

> <r_mmod_Potential_Energy-OPLS-2005>
-40.8331756591797

> <r_mmod_Stretch_Energy-OPLS-2005>
69.2094116210938

> <r_mmod_Bend_Energy-OPLS-2005>
146.960891723633

> <r_mmod_Torsional_Energy-OPLS-2005>
274.622772216797

> <r_mmod_Improper_Torsional_Energy-OPLS-2005>
3.59488821029663

> <r_mmod_Van_der_Waal_Energy-OPLS-2005>
135.782562255859

> <r_mmod_Electrostatic_Energy-OPLS-2005>
-260.717956542969

> <r_mmod_Solvation_Energy-OPLS-2005>
-441.158325195312

> <b_mmod_Minimization_Converged-OPLS-2005>
0

> <r_mmod_RMS_Derivative-OPLS-2005>
3.83859825134277

$$$$
79
                    3D
 Structure written by MMmdl.
150158  0  0  1  0            999 V2000
  -30.4960  -15.0414   20.3568 C   0  0  0  0  0  0
  -30.4324  -12.6434   19.4886 C   0  0  0  0  0  0
  -29.5214  -12.5396   18.2440 C   0  0  0  0  0  0
  -28.0538  -12.3181   18.6608 C   0  0  0  0  0  0
  -27.6186  -13.2546   19.8189 C   0  0  2  0  0  0
  -28.6614  -13.3272   20.9518 C   0  0  0  0  0  0
  -25.2424  -13.8188   20.5656 C   0  0  0  0  0  0
  -24.1758  -13.0417   20.9168 C   0  0  0  0  0  0
  -24.6377  -11.6893   20.8688 C   0  0  0  0  0  0
  -23.9062  -10.4259   21.0366 C   0  0  0  0  0  0
  -24.3640   -9.4194   21.9158 C   0  0  0  0  0  0
  -23.6287   -8.2250   22.0776 C   0  0  0  0  0  0
  -22.4273   -8.0276   21.3584 C   0  0  0  0  0  0
  -21.9885   -9.0231   20.4668 C   0  0  0  0  0  0
  -22.7214  -10.2101   20.3032 C   0  0  0  0  0  0
  -21.6873   -6.0697   22.5268 C   0  0  0  0  0  0
  -21.4028   -6.5613   23.8190 C   0  0  0  0  0  0
  -21.3666   -5.6787   24.9161 C   0  0  0  0  0  0
  -21.6059   -4.3047   24.7230 C   0  0  0  0  0  0
  -21.8818   -3.8114   23.4354 C   0  0  0  0  0  0
  -21.9198   -4.6921   22.3406 C   0  0  0  0  0  0
  -22.7782  -13.5171   21.1837 C   0  0  0  0  0  0
  -22.1678   -4.2092   21.0979 F   0  0  0  0  0  0
  -21.5638   -3.4550   25.7757 F   0  0  0  0  0  0
  -29.9162  -13.7664   20.3316 N   0  0  0  0  0  0
  -26.2830  -12.9433   20.3137 N   0  0  0  0  0  0
  -25.9309  -11.6560   20.5659 N   0  0  0  0  0  0
  -22.0484  -12.8176   22.0438 N   0  0  0  0  0  0
  -25.4052  -15.1947   20.4113 N   0  0  0  0  0  0
  -31.7145  -15.0791   20.1513 O   0  0  0  0  0  0
  -21.6672   -6.8859   21.4246 O   0  0  0  0  0  0
  -22.3451  -14.5481   20.6656 O   0  0  0  0  0  0
  -24.6522  -31.8428   23.1850 C   0  0  0  0  0  0
  -25.9263  -32.4681   23.8271 C   0  0  1  0  0  0
  -27.2024  -27.0773   20.1367 C   0  0  0  0  0  0
  -25.5979  -33.8482   24.2221 N   0  0  0  0  0  0
  -23.4551  -30.4614   21.5336 C   0  0  2  0  0  0
  -24.8976  -28.8779   20.1065 C   0  0  0  0  0  0
  -22.7608  -29.4557   22.4865 C   0  0  0  0  0  0
  -18.0315  -28.1433   22.8512 C   0  0  0  0  0  0
  -24.1495  -36.7252   23.2647 C   0  0  0  0  0  0
  -26.0170  -30.6903   21.3913 C   0  0  0  0  0  0
  -26.0798  -29.2995   20.7276 C   0  0  0  0  0  0
  -27.2330  -28.4165   20.7212 C   0  0  0  0  0  0
  -25.9899  -26.7690   19.4820 C   0  0  0  0  0  0
  -24.8678  -27.6287   19.4716 C   0  0  0  0  0  0
  -23.6781  -29.7895   20.1534 C   0  0  0  0  0  0
  -25.4118  -36.3033   24.0340 C   0  0  1  0  0  0
  -20.5932  -28.3766   23.1240 C   0  0  2  0  0  0
  -20.6801  -26.9458   22.5421 C   0  0  0  0  0  0
  -19.5763  -26.6407   21.5243 C   0  0  0  0  0  0
  -18.1949  -26.7973   22.1663 C   0  0  0  0  0  0
  -19.1567  -28.8920   23.2876 C   0  0  0  0  0  0
  -18.9470  -30.1510   23.8918 C   0  0  0  0  0  0
  -17.6469  -30.6643   24.0552 C   0  0  0  0  0  0
  -25.9087  -34.9414   23.5109 C   0  0  0  0  0  0
  -16.5369  -29.9128   23.6319 C   0  0  0  0  0  0
  -16.7293  -28.6534   23.0378 C   0  0  0  0  0  0
  -26.4495  -31.6551   25.0739 C   0  0  0  0  0  0
  -25.3606  -31.3832   26.1400 C   0  0  0  0  0  0
  -27.0337  -30.2928   24.6347 C   0  0  0  0  0  0
  -27.6030  -32.4325   25.7531 C   0  0  0  0  0  0
  -27.5588  -37.1773   24.8455 C   0  0  0  0  0  0
  -21.4295  -29.3058   22.3582 N   0  0  0  0  0  0
  -26.4273  -37.3753   23.9437 N   0  0  0  0  0  0
  -24.7293  -31.0211   22.0917 N   0  0  0  0  0  0
  -23.4226  -28.8113   23.3043 O   0  0  0  0  0  0
  -28.2346  -26.0533   20.2006 O   0  0  0  0  0  0
  -26.5663  -34.8916   22.4683 O   0  0  0  0  0  0
  -23.5629  -32.1371   23.7032 O   0  0  0  0  0  0
  -27.9576  -19.4824   19.5409 C   0  0  0  0  0  0
  -29.2329  -19.2294   20.1533 C   0  0  0  0  0  0
  -27.6922  -20.8590   19.5417 C   0  0  0  0  0  0
  -26.4805  -21.5713   19.0196 C   0  0  0  0  0  0
  -30.1246  -17.8126   20.3762 C   0  0  0  0  0  0
  -28.9680  -23.1619   20.3664 C   0  0  0  0  0  0
  -27.9825  -24.5068   19.9452 C   0  0  0  0  0  0
  -29.6648  -20.5297   20.4722 N   0  0  0  0  0  0
  -28.7448  -21.5787   20.1148 N   0  0  0  0  0  0
  -29.7192  -16.2581   20.4062 N   0  0  0  0  0  0
  -31.4655  -12.8072   19.1790 H   0  0  0  0  0  0
  -30.4386  -11.7051   20.0461 H   0  0  0  0  0  0
  -29.8580  -11.7344   17.5879 H   0  0  0  0  0  0
  -29.5962  -13.4602   17.6633 H   0  0  0  0  0  0
  -27.9421  -11.2748   18.9610 H   0  0  0  0  0  0
  -27.3962  -12.4538   17.8018 H   0  0  0  0  0  0
  -27.5617  -14.2476   19.3725 H   0  0  0  0  0  0
  -28.7741  -12.3586   21.4389 H   0  0  0  0  0  0
  -28.3482  -14.0313   21.7248 H   0  0  0  0  0  0
  -25.2793   -9.5675   22.4718 H   0  0  0  0  0  0
  -23.9996   -7.4659   22.7514 H   0  0  0  0  0  0
  -21.0828   -8.8712   19.8959 H   0  0  0  0  0  0
  -22.3674  -10.9628   19.6122 H   0  0  0  0  0  0
  -21.2046   -7.6125   23.9676 H   0  0  0  0  0  0
  -21.1508   -6.0530   25.9069 H   0  0  0  0  0  0
  -22.0596   -2.7568   23.2878 H   0  0  0  0  0  0
  -22.4129  -11.9836   22.4790 H   0  0  0  0  0  0
  -21.1097  -13.1166   22.2653 H   0  0  0  0  0  0
  -24.6353  -15.8421   20.5317 H   0  0  0  0  0  0
  -26.2419  -15.6422   20.0623 H   0  0  0  0  0  0
  -26.7325  -32.5234   23.0990 H   0  0  0  0  0  0
  -24.9946  -33.9561   25.0246 H   0  0  0  0  0  0
  -22.7595  -31.2870   21.3760 H   0  0  0  0  0  0
  -23.3773  -35.9560   23.3248 H   0  0  0  0  0  0
  -24.3558  -36.8935   22.2065 H   0  0  0  0  0  0
  -23.7220  -37.6429   23.6687 H   0  0  0  0  0  0
  -26.1773  -31.4349   20.6116 H   0  0  0  0  0  0
  -26.8940  -30.7430   22.0263 H   0  0  0  0  0  0
  -28.1358  -28.7310   21.2263 H   0  0  0  0  0  0
  -25.8684  -25.8130   18.9912 H   0  0  0  0  0  0
  -23.9609  -27.2976   18.9856 H   0  0  0  0  0  0
  -23.8175  -30.5682   19.4017 H   0  0  0  0  0  0
  -22.7865  -29.2374   19.8464 H   0  0  0  0  0  0
  -25.1283  -36.1847   25.0819 H   0  0  0  0  0  0
  -21.0016  -28.3376   24.1367 H   0  0  0  0  0  0
  -20.5747  -26.2383   23.3654 H   0  0  0  0  0  0
  -21.6666  -26.7515   22.1174 H   0  0  0  0  0  0
  -19.6925  -25.6301   21.1320 H   0  0  0  0  0  0
  -19.6706  -27.3196   20.6747 H   0  0  0  0  0  0
  -17.4212  -26.6743   21.4055 H   0  0  0  0  0  0
  -18.0335  -26.0128   22.9077 H   0  0  0  0  0  0
  -19.7929  -30.7313   24.2351 H   0  0  0  0  0  0
  -17.5008  -31.6327   24.5148 H   0  0  0  0  0  0
  -15.5373  -30.3025   23.7651 H   0  0  0  0  0  0
  -15.8692  -28.0835   22.7131 H   0  0  0  0  0  0
  -24.5762  -30.7203   25.7735 H   0  0  0  0  0  0
  -24.8792  -32.3049   26.4679 H   0  0  0  0  0  0
  -25.7782  -30.9089   27.0289 H   0  0  0  0  0  0
  -26.2973  -29.6664   24.1310 H   0  0  0  0  0  0
  -27.3867  -29.7209   25.4935 H   0  0  0  0  0  0
  -27.8913  -30.4158   23.9740 H   0  0  0  0  0  0
  -27.2615  -33.3652   26.2059 H   0  0  0  0  0  0
  -28.3860  -32.6873   25.0366 H   0  0  0  0  0  0
  -28.0670  -31.8477   26.5488 H   0  0  0  0  0  0
  -28.2570  -38.0109   24.7518 H   0  0  0  0  0  0
  -28.1124  -36.2629   24.6231 H   0  0  0  0  0  0
  -27.2288  -37.1362   25.8853 H   0  0  0  0  0  0
  -20.9533  -29.8726   21.6702 H   0  0  0  0  0  0
  -26.0144  -38.2833   24.1390 H   0  0  0  0  0  0
  -27.3015  -18.7310   19.1203 H   0  0  0  0  0  0
  -25.7979  -20.8882   18.5126 H   0  0  0  0  0  0
  -26.7546  -22.3363   18.2915 H   0  0  0  0  0  0
  -25.9293  -22.0557   19.8285 H   0  0  0  0  0  0
  -30.6465  -17.9464   21.3233 H   0  0  0  0  0  0
  -30.9284  -17.8545   19.6411 H   0  0  0  0  0  0
  -29.1223  -23.2502   21.4406 H   0  0  0  0  0  0
  -29.9470  -23.3789   19.9395 H   0  0  0  0  0  0
  -26.9996  -24.2858   20.3635 H   0  0  0  0  0  0
  -27.8489  -24.4383   18.8659 H   0  0  0  0  0  0
  -28.7290  -16.1034   20.5149 H   0  0  0  0  0  0
  1 25  1  0  0  0
  1 30  2  0  0  0
  1 80  1  0  0  0
  2  3  1  0  0  0
  2 25  1  0  0  0
  2 81  1  0  0  0
  2 82  1  0  0  0
  3  4  1  0  0  0
  3 83  1  0  0  0
  3 84  1  0  0  0
  4  5  1  0  0  0
  4 85  1  0  0  0
  4 86  1  0  0  0
  5  6  1  0  0  0
  5 26  1  0  0  0
  5 87  1  0  0  0
  6 25  1  0  0  0
  6 88  1  0  0  0
  6 89  1  0  0  0
  7  8  2  0  0  0
  7 26  1  0  0  0
  7 29  1  0  0  0
  8  9  1  0  0  0
  8 22  1  0  0  0
  9 10  1  0  0  0
  9 27  2  0  0  0
 10 11  2  0  0  0
 10 15  1  0  0  0
 11 12  1  0  0  0
 11 90  1  0  0  0
 12 13  2  0  0  0
 12 91  1  0  0  0
 13 14  1  0  0  0
 13 31  1  0  0  0
 14 15  2  0  0  0
 14 92  1  0  0  0
 15 93  1  0  0  0
 16 17  2  0  0  0
 16 21  1  0  0  0
 16 31  1  0  0  0
 17 18  1  0  0  0
 17 94  1  0  0  0
 18 19  2  0  0  0
 18 95  1  0  0  0
 19 20  1  0  0  0
 19 24  1  0  0  0
 20 21  2  0  0  0
 20 96  1  0  0  0
 21 23  1  0  0  0
 22 28  1  0  0  0
 22 32  2  0  0  0
 26 27  1  0  0  0
 28 97  1  0  0  0
 28 98  1  0  0  0
 29 99  1  0  0  0
 29100  1  0  0  0
 33 34  1  0  0  0
 33 66  1  0  0  0
 33 70  2  0  0  0
 34 36  1  0  0  0
 34 59  1  0  0  0
 34101  1  0  0  0
 35 44  2  0  0  0
 35 45  1  0  0  0
 35 68  1  0  0  0
 36 56  1  0  0  0
 36102  1  0  0  0
 37 39  1  0  0  0
 37 47  1  0  0  0
 37 66  1  0  0  0
 37103  1  0  0  0
 38 43  2  0  0  0
 38 46  1  0  0  0
 38 47  1  0  0  0
 39 64  1  0  0  0
 39 67  2  0  0  0
 40 52  1  0  0  0
 40 53  2  0  0  0
 40 58  1  0  0  0
 41104  1  0  0  0
 41105  1  0  0  0
 41106  1  0  0  0
 41 48  1  0  0  0
 42 43  1  0  0  0
 42 66  1  0  0  0
 42107  1  0  0  0
 42108  1  0  0  0
 43 44  1  0  0  0
 44109  1  0  0  0
 45 46  2  0  0  0
 45110  1  0  0  0
 46111  1  0  0  0
 47112  1  0  0  0
 47113  1  0  0  0
 48 56  1  0  0  0
 48 65  1  0  0  0
 48114  1  0  0  0
 49 50  1  0  0  0
 49 53  1  0  0  0
 49 64  1  0  0  0
 49115  1  0  0  0
 50 51  1  0  0  0
 50116  1  0  0  0
 50117  1  0  0  0
 51 52  1  0  0  0
 51118  1  0  0  0
 51119  1  0  0  0
 52120  1  0  0  0
 52121  1  0  0  0
 53 54  1  0  0  0
 54 55  2  0  0  0
 54122  1  0  0  0
 55 57  1  0  0  0
 55123  1  0  0  0
 56 69  2  0  0  0
 57 58  2  0  0  0
 57124  1  0  0  0
 58125  1  0  0  0
 59 60  1  0  0  0
 59 61  1  0  0  0
 59 62  1  0  0  0
 60126  1  0  0  0
 60127  1  0  0  0
 60128  1  0  0  0
 61129  1  0  0  0
 61130  1  0  0  0
 61131  1  0  0  0
 62132  1  0  0  0
 62133  1  0  0  0
 62134  1  0  0  0
 63 65  1  0  0  0
 63135  1  0  0  0
 63136  1  0  0  0
 63137  1  0  0  0
 64138  1  0  0  0
 65139  1  0  0  0
 68 77  1  0  0  0
 71 72  1  0  0  0
 71 73  2  0  0  0
 71140  1  0  0  0
 72 75  1  0  0  0
 72 78  2  0  0  0
 73 74  1  0  0  0
 73 79  1  0  0  0
 74141  1  0  0  0
 74142  1  0  0  0
 74143  1  0  0  0
 75 80  1  0  0  0
 75144  1  0  0  0
 75145  1  0  0  0
 76 77  1  0  0  0
 76 79  1  0  0  0
 76146  1  0  0  0
 76147  1  0  0  0
 77148  1  0  0  0
 77149  1  0  0  0
 78 79  1  0  0  0
 80150  1  0  0  0
M  ISO  4   1 100  68 101  77 101  80 100
M  END
> <chiral flag>
0

> <version>
0

> <s_m_source_file>
/data/baiqing/PycharmProjects/Reinvent-master-3.2/result/LINK_invent/BTK/process_docking_weight1_custom_sum_contain_oxygen_bond_distance_aromatic_linkinvent_7_9_3/rearranged_h_0107.sdf

> <i_m_source_file_index>
78

> <r_mmod_Potential_Energy-OPLS-2005>
530.40234375

> <r_mmod_Stretch_Energy-OPLS-2005>
332.036102294922

> <r_mmod_Bend_Energy-OPLS-2005>
307.3134765625

> <r_mmod_Torsional_Energy-OPLS-2005>
212.352584838867

> <r_mmod_Improper_Torsional_Energy-OPLS-2005>
4.43497371673584

> <r_mmod_Van_der_Waal_Energy-OPLS-2005>
106.69970703125

> <r_mmod_Electrostatic_Energy-OPLS-2005>
-457.108123779297

> <r_mmod_Solvation_Energy-OPLS-2005>
-234.984817504883

> <b_mmod_Minimization_Converged-OPLS-2005>
0

> <r_mmod_RMS_Derivative-OPLS-2005>
4.48298311233521

$$$$
80
                    3D
 Structure written by MMmdl.
156164  0  0  1  0            999 V2000
  -30.6521  -14.7374   20.5206 C   0  0  0  0  0  0
  -30.4270  -12.4646   19.4776 C   0  0  0  0  0  0
  -29.5079  -12.5197   18.2379 C   0  0  0  0  0  0
  -28.0349  -12.3421   18.6473 C   0  0  0  0  0  0
  -27.6420  -13.2381   19.8512 C   0  0  2  0  0  0
  -28.6832  -13.1676   20.9889 C   0  0  0  0  0  0
  -25.2503  -13.8226   20.5689 C   0  0  0  0  0  0
  -24.1795  -13.0454   20.9191 C   0  0  0  0  0  0
  -24.6387  -11.6934   20.8723 C   0  0  0  0  0  0
  -23.9071  -10.4303   21.0391 C   0  0  0  0  0  0
  -24.3630   -9.4225   21.9164 C   0  0  0  0  0  0
  -23.6319   -8.2254   22.0740 C   0  0  0  0  0  0
  -22.4299   -8.0285   21.3536 C   0  0  0  0  0  0
  -21.9933   -9.0248   20.4633 C   0  0  0  0  0  0
  -22.7242  -10.2137   20.3044 C   0  0  0  0  0  0
  -21.6867   -6.0744   22.5280 C   0  0  0  0  0  0
  -21.4009   -6.5646   23.8211 C   0  0  0  0  0  0
  -21.3661   -5.6800   24.9173 C   0  0  0  0  0  0
  -21.6046   -4.3061   24.7229 C   0  0  0  0  0  0
  -21.8819   -3.8152   23.4349 C   0  0  0  0  0  0
  -21.9197   -4.6971   22.3406 C   0  0  0  0  0  0
  -22.7818  -13.5221   21.1887 C   0  0  0  0  0  0
  -22.1673   -4.2159   21.0984 F   0  0  0  0  0  0
  -21.5634   -3.4542   25.7741 F   0  0  0  0  0  0
  -29.9920  -13.5253   20.4222 N   0  0  0  0  0  0
  -26.2928  -12.9437   20.3269 N   0  0  0  0  0  0
  -25.9318  -11.6572   20.5716 N   0  0  0  0  0  0
  -22.0501  -12.8172   22.0444 N   0  0  0  0  0  0
  -25.4258  -15.1949   20.4147 N   0  0  0  0  0  0
  -31.7956  -14.8351   20.0590 O   0  0  0  0  0  0
  -21.6657   -6.8886   21.4240 O   0  0  0  0  0  0
  -22.3481  -14.5530   20.6777 O   0  0  0  0  0  0
  -24.6314  -31.8569   23.2012 C   0  0  0  0  0  0
  -25.9151  -32.4754   23.8347 C   0  0  1  0  0  0
  -27.2015  -27.2486   20.1329 C   0  0  0  0  0  0
  -25.5952  -33.8556   24.2259 N   0  0  0  0  0  0
  -23.4272  -30.4826   21.5458 C   0  0  2  0  0  0
  -24.8724  -28.9355   20.1069 C   0  0  0  0  0  0
  -22.7494  -29.4614   22.4915 C   0  0  0  0  0  0
  -18.0295  -28.1389   22.8485 C   0  0  0  0  0  0
  -24.1499  -36.7279   23.2635 C   0  0  0  0  0  0
  -25.9754  -30.7629   21.3889 C   0  0  0  0  0  0
  -26.0438  -29.3857   20.7296 C   0  0  0  0  0  0
  -27.2125  -28.5532   20.7366 C   0  0  0  0  0  0
  -26.0295  -26.9049   19.4272 C   0  0  0  0  0  0
  -24.8709  -27.7016   19.4426 C   0  0  0  0  0  0
  -23.6444  -29.8240   20.1596 C   0  0  0  0  0  0
  -25.4125  -36.3064   24.0321 C   0  0  1  0  0  0
  -20.5893  -28.3700   23.1263 C   0  0  2  0  0  0
  -20.6783  -26.9420   22.5399 C   0  0  0  0  0  0
  -19.5760  -26.6380   21.5207 C   0  0  0  0  0  0
  -18.1939  -26.7935   22.1620 C   0  0  0  0  0  0
  -19.1545  -28.8859   23.2873 C   0  0  0  0  0  0
  -18.9472  -30.1457   23.8899 C   0  0  0  0  0  0
  -17.6472  -30.6591   24.0554 C   0  0  0  0  0  0
  -25.9064  -34.9438   23.5087 C   0  0  0  0  0  0
  -16.5364  -29.9086   23.6333 C   0  0  0  0  0  0
  -16.7280  -28.6497   23.0366 C   0  0  0  0  0  0
  -26.4508  -31.6579   25.0736 C   0  0  0  0  0  0
  -25.3711  -31.3734   26.1435 C   0  0  0  0  0  0
  -27.0361  -30.2993   24.6245 C   0  0  0  0  0  0
  -27.6071  -32.4300   25.7507 C   0  0  0  0  0  0
  -27.5585  -37.1793   24.8460 C   0  0  0  0  0  0
  -21.4202  -29.3051   22.3654 N   0  0  0  0  0  0
  -26.4299  -37.3765   23.9401 N   0  0  0  0  0  0
  -24.6971  -31.0517   22.1010 N   0  0  0  0  0  0
  -23.4189  -28.8152   23.3014 O   0  0  0  0  0  0
  -28.2739  -26.3200   20.1615 O   0  0  0  0  0  0
  -26.5630  -34.8909   22.4651 O   0  0  0  0  0  0
  -23.5464  -32.1415   23.7294 O   0  0  0  0  0  0
  -30.0719  -18.4531   21.0610 C   0  0  0  0  0  0
  -29.1121  -18.7765   19.1657 C   0  0  0  0  0  0
  -29.8130  -17.1866   20.4939 C   0  0  0  0  0  0
  -26.6633  -24.3708   20.8203 C   0  0  0  0  0  0
  -30.1149  -15.8742   22.5709 C   0  0  0  0  0  0
  -28.7735  -22.1205   20.4977 C   0  0  0  0  0  0
  -29.0402  -23.6920   20.1235 C   0  0  0  0  0  0
  -29.9080  -21.0058   20.1993 C   0  0  0  0  0  0
  -28.1079  -24.8988   20.6938 C   0  0  1  0  0  0
  -29.1740  -17.4345   19.2761 N   0  0  0  0  0  0
  -29.6504  -19.4926   20.1753 N   0  0  0  0  0  0
  -30.0417  -15.8481   21.1070 N   0  0  0  0  0  0
  -31.4685  -12.5736   19.1733 H   0  0  0  0  0  0
  -30.3635  -11.4854   19.9561 H   0  0  0  0  0  0
  -29.7897  -11.7474   17.5219 H   0  0  0  0  0  0
  -29.6356  -13.4750   17.7261 H   0  0  0  0  0  0
  -27.8851  -11.2918   18.9009 H   0  0  0  0  0  0
  -27.3813  -12.5418   17.7970 H   0  0  0  0  0  0
  -27.6399  -14.2634   19.4806 H   0  0  0  0  0  0
  -28.7157  -12.1699   21.4270 H   0  0  0  0  0  0
  -28.3939  -13.8401   21.7958 H   0  0  0  0  0  0
  -25.2773   -9.5721   22.4735 H   0  0  0  0  0  0
  -24.0054   -7.4640   22.7441 H   0  0  0  0  0  0
  -21.0879   -8.8738   19.8921 H   0  0  0  0  0  0
  -22.3685  -10.9670   19.6156 H   0  0  0  0  0  0
  -21.1999   -7.6150   23.9718 H   0  0  0  0  0  0
  -21.1487   -6.0528   25.9077 H   0  0  0  0  0  0
  -22.0605   -2.7620   23.2843 H   0  0  0  0  0  0
  -22.4166  -11.9839   22.4802 H   0  0  0  0  0  0
  -21.1098  -13.1133   22.2641 H   0  0  0  0  0  0
  -24.6729  -15.8645   20.5305 H   0  0  0  0  0  0
  -26.2951  -15.6260   20.1232 H   0  0  0  0  0  0
  -26.7207  -32.5395   23.1078 H   0  0  0  0  0  0
  -25.0075  -33.9690   25.0388 H   0  0  0  0  0  0
  -22.7255  -31.3075   21.4040 H   0  0  0  0  0  0
  -23.3766  -35.9606   23.3289 H   0  0  0  0  0  0
  -24.3590  -36.8911   22.2050 H   0  0  0  0  0  0
  -23.7252  -37.6475   23.6673 H   0  0  0  0  0  0
  -26.1203  -31.5254   20.6224 H   0  0  0  0  0  0
  -26.8510  -30.8069   22.0250 H   0  0  0  0  0  0
  -28.1055  -28.8907   21.2433 H   0  0  0  0  0  0
  -25.9878  -25.9833   18.8686 H   0  0  0  0  0  0
  -23.9833  -27.3655   18.9228 H   0  0  0  0  0  0
  -23.7650  -30.6061   19.4088 H   0  0  0  0  0  0
  -22.7618  -29.2602   19.8530 H   0  0  0  0  0  0
  -25.1307  -36.1914   25.0816 H   0  0  0  0  0  0
  -20.9987  -28.3283   24.1383 H   0  0  0  0  0  0
  -20.5687  -26.2314   23.3606 H   0  0  0  0  0  0
  -21.6653  -26.7440   22.1198 H   0  0  0  0  0  0
  -19.6925  -25.6286   21.1250 H   0  0  0  0  0  0
  -19.6705  -27.3181   20.6732 H   0  0  0  0  0  0
  -17.4209  -26.6680   21.4022 H   0  0  0  0  0  0
  -18.0346  -26.0077   22.9016 H   0  0  0  0  0  0
  -19.7944  -30.7267   24.2287 H   0  0  0  0  0  0
  -17.5027  -31.6281   24.5142 H   0  0  0  0  0  0
  -15.5367  -30.2989   23.7659 H   0  0  0  0  0  0
  -15.8680  -28.0806   22.7104 H   0  0  0  0  0  0
  -24.5891  -30.7089   25.7741 H   0  0  0  0  0  0
  -24.8890  -32.2906   26.4837 H   0  0  0  0  0  0
  -25.7992  -30.8908   27.0233 H   0  0  0  0  0  0
  -26.2959  -29.6730   24.1255 H   0  0  0  0  0  0
  -27.4018  -29.7270   25.4782 H   0  0  0  0  0  0
  -27.8850  -30.4260   23.9523 H   0  0  0  0  0  0
  -27.2704  -33.3606   26.2093 H   0  0  0  0  0  0
  -28.3890  -32.6846   25.0336 H   0  0  0  0  0  0
  -28.0745  -31.8417   26.5417 H   0  0  0  0  0  0
  -28.2589  -38.0101   24.7517 H   0  0  0  0  0  0
  -28.1097  -36.2630   24.6284 H   0  0  0  0  0  0
  -27.2296  -37.1432   25.8860 H   0  0  0  0  0  0
  -20.9403  -29.8753   21.6833 H   0  0  0  0  0  0
  -26.0178  -38.2839   24.1404 H   0  0  0  0  0  0
  -30.5622  -18.6984   21.9941 H   0  0  0  0  0  0
  -28.7043  -19.2569   18.2867 H   0  0  0  0  0  0
  -26.6294  -23.4757   21.4397 H   0  0  0  0  0  0
  -26.2470  -24.0888   19.8542 H   0  0  0  0  0  0
  -25.9962  -25.0820   21.3066 H   0  0  0  0  0  0
  -31.0369  -16.3605   22.8937 H   0  0  0  0  0  0
  -30.0892  -14.8810   23.0214 H   0  0  0  0  0  0
  -29.2759  -16.4392   22.9814 H   0  0  0  0  0  0
  -27.8612  -21.8095   19.9884 H   0  0  0  0  0  0
  -28.5403  -22.0583   21.5612 H   0  0  0  0  0  0
  -29.0292  -23.7607   19.0356 H   0  0  0  0  0  0
  -30.0663  -23.9290   20.4099 H   0  0  0  0  0  0
  -30.7332  -21.1775   20.8902 H   0  0  0  0  0  0
  -30.3238  -21.2439   19.2185 H   0  0  0  0  0  0
  -28.4254  -25.0169   21.7303 H   0  0  0  0  0  0
  1 25  1  0  0  0
  1 30  2  0  0  0
  1 82  1  0  0  0
  2  3  1  0  0  0
  2 25  1  0  0  0
  2 83  1  0  0  0
  2 84  1  0  0  0
  3  4  1  0  0  0
  3 85  1  0  0  0
  3 86  1  0  0  0
  4  5  1  0  0  0
  4 87  1  0  0  0
  4 88  1  0  0  0
  5  6  1  0  0  0
  5 26  1  0  0  0
  5 89  1  0  0  0
  6 25  1  0  0  0
  6 90  1  0  0  0
  6 91  1  0  0  0
  7  8  2  0  0  0
  7 26  1  0  0  0
  7 29  1  0  0  0
  8  9  1  0  0  0
  8 22  1  0  0  0
  9 10  1  0  0  0
  9 27  2  0  0  0
 10 11  2  0  0  0
 10 15  1  0  0  0
 11 12  1  0  0  0
 11 92  1  0  0  0
 12 13  2  0  0  0
 12 93  1  0  0  0
 13 14  1  0  0  0
 13 31  1  0  0  0
 14 15  2  0  0  0
 14 94  1  0  0  0
 15 95  1  0  0  0
 16 17  2  0  0  0
 16 21  1  0  0  0
 16 31  1  0  0  0
 17 18  1  0  0  0
 17 96  1  0  0  0
 18 19  2  0  0  0
 18 97  1  0  0  0
 19 20  1  0  0  0
 19 24  1  0  0  0
 20 21  2  0  0  0
 20 98  1  0  0  0
 21 23  1  0  0  0
 22 28  1  0  0  0
 22 32  2  0  0  0
 26 27  1  0  0  0
 28 99  1  0  0  0
 28100  1  0  0  0
 29101  1  0  0  0
 29102  1  0  0  0
 33 34  1  0  0  0
 33 66  1  0  0  0
 33 70  2  0  0  0
 34 36  1  0  0  0
 34 59  1  0  0  0
 34103  1  0  0  0
 35 44  2  0  0  0
 35 45  1  0  0  0
 35 68  1  0  0  0
 36 56  1  0  0  0
 36104  1  0  0  0
 37 39  1  0  0  0
 37 47  1  0  0  0
 37 66  1  0  0  0
 37105  1  0  0  0
 38 43  2  0  0  0
 38 46  1  0  0  0
 38 47  1  0  0  0
 39 64  1  0  0  0
 39 67  2  0  0  0
 40 52  1  0  0  0
 40 53  2  0  0  0
 40 58  1  0  0  0
 41106  1  0  0  0
 41107  1  0  0  0
 41108  1  0  0  0
 41 48  1  0  0  0
 42 43  1  0  0  0
 42 66  1  0  0  0
 42109  1  0  0  0
 42110  1  0  0  0
 43 44  1  0  0  0
 44111  1  0  0  0
 45 46  2  0  0  0
 45112  1  0  0  0
 46113  1  0  0  0
 47114  1  0  0  0
 47115  1  0  0  0
 48 56  1  0  0  0
 48 65  1  0  0  0
 48116  1  0  0  0
 49 50  1  0  0  0
 49 53  1  0  0  0
 49 64  1  0  0  0
 49117  1  0  0  0
 50 51  1  0  0  0
 50118  1  0  0  0
 50119  1  0  0  0
 51 52  1  0  0  0
 51120  1  0  0  0
 51121  1  0  0  0
 52122  1  0  0  0
 52123  1  0  0  0
 53 54  1  0  0  0
 54 55  2  0  0  0
 54124  1  0  0  0
 55 57  1  0  0  0
 55125  1  0  0  0
 56 69  2  0  0  0
 57 58  2  0  0  0
 57126  1  0  0  0
 58127  1  0  0  0
 59 60  1  0  0  0
 59 61  1  0  0  0
 59 62  1  0  0  0
 60128  1  0  0  0
 60129  1  0  0  0
 60130  1  0  0  0
 61131  1  0  0  0
 61132  1  0  0  0
 61133  1  0  0  0
 62134  1  0  0  0
 62135  1  0  0  0
 62136  1  0  0  0
 63 65  1  0  0  0
 63137  1  0  0  0
 63138  1  0  0  0
 63139  1  0  0  0
 64140  1  0  0  0
 65141  1  0  0  0
 68 79  1  0  0  0
 71 73  2  0  0  0
 71 81  1  0  0  0
 71142  1  0  0  0
 72 80  2  0  0  0
 72 81  1  0  0  0
 72143  1  0  0  0
 73 80  1  0  0  0
 73 82  1  0  0  0
 74144  1  0  0  0
 74145  1  0  0  0
 74146  1  0  0  0
 74 79  1  0  0  0
 75 82  1  0  0  0
 75147  1  0  0  0
 75148  1  0  0  0
 75149  1  0  0  0
 76 77  1  0  0  0
 76 78  1  0  0  0
 76150  1  0  0  0
 76151  1  0  0  0
 77 79  1  0  0  0
 77152  1  0  0  0
 77153  1  0  0  0
 78 81  1  0  0  0
 78154  1  0  0  0
 78155  1  0  0  0
 79156  1  0  0  0
M  ISO  4   1 100  68 101  79 101  82 100
M  END
> <chiral flag>
0

> <version>
0

> <s_m_source_file>
/data/baiqing/PycharmProjects/Reinvent-master-3.2/result/LINK_invent/BTK/process_docking_weight1_custom_sum_contain_oxygen_bond_distance_aromatic_linkinvent_7_9_3/rearranged_h_0107.sdf

> <i_m_source_file_index>
79

> <r_mmod_Potential_Energy-OPLS-2005>
373.322692871094

> <r_mmod_Stretch_Energy-OPLS-2005>
135.6689453125

> <r_mmod_Bend_Energy-OPLS-2005>
199.937240600586

> <r_mmod_Torsional_Energy-OPLS-2005>
319.234069824219

> <r_mmod_Improper_Torsional_Energy-OPLS-2005>
4.80733489990234

> <r_mmod_Van_der_Waal_Energy-OPLS-2005>
122.379325866699

> <r_mmod_Electrostatic_Energy-OPLS-2005>
-294.3115234375

> <r_mmod_Solvation_Energy-OPLS-2005>
-201.591751098633

> <b_mmod_Minimization_Converged-OPLS-2005>
0

> <r_mmod_RMS_Derivative-OPLS-2005>
2.07877278327942

$$$$
81
                    3D
 Structure written by MMmdl.
170178  0  0  1  0            999 V2000
  -30.5294  -14.9946   20.4234 C   0  0  0  0  0  0
  -30.4334  -12.6150   19.5173 C   0  0  0  0  0  0
  -29.5266  -12.5368   18.2674 C   0  0  0  0  0  0
  -28.0620  -12.3086   18.6811 C   0  0  0  0  0  0
  -27.6275  -13.2508   19.8336 C   0  0  2  0  0  0
  -28.6594  -13.3109   20.9789 C   0  0  0  0  0  0
  -25.2472  -13.8229   20.5726 C   0  0  0  0  0  0
  -24.1787  -13.0444   20.9261 C   0  0  0  0  0  0
  -24.6404  -11.6934   20.8743 C   0  0  0  0  0  0
  -23.9113  -10.4282   21.0371 C   0  0  0  0  0  0
  -24.3652   -9.4198   21.9168 C   0  0  0  0  0  0
  -23.6316   -8.2226   22.0745 C   0  0  0  0  0  0
  -22.4295   -8.0266   21.3529 C   0  0  0  0  0  0
  -21.9929   -9.0249   20.4644 C   0  0  0  0  0  0
  -22.7265  -10.2127   20.3039 C   0  0  0  0  0  0
  -21.6888   -6.0746   22.5283 C   0  0  0  0  0  0
  -21.4036   -6.5645   23.8224 C   0  0  0  0  0  0
  -21.3659   -5.6779   24.9174 C   0  0  0  0  0  0
  -21.6034   -4.3042   24.7232 C   0  0  0  0  0  0
  -21.8823   -3.8155   23.4351 C   0  0  0  0  0  0
  -21.9211   -4.6969   22.3410 C   0  0  0  0  0  0
  -22.7793  -13.5213   21.1888 C   0  0  0  0  0  0
  -22.1659   -4.2166   21.0980 F   0  0  0  0  0  0
  -21.5638   -3.4513   25.7747 F   0  0  0  0  0  0
  -29.9344  -13.7276   20.3851 N   0  0  0  0  0  0
  -26.2891  -12.9465   20.3210 N   0  0  0  0  0  0
  -25.9348  -11.6604   20.5751 N   0  0  0  0  0  0
  -22.0453  -12.8172   22.0431 N   0  0  0  0  0  0
  -25.4125  -15.1951   20.4096 N   0  0  0  0  0  0
  -31.7301  -15.0313   20.1340 O   0  0  0  0  0  0
  -21.6637   -6.8876   21.4245 O   0  0  0  0  0  0
  -22.3451  -14.5495   20.6714 O   0  0  0  0  0  0
  -24.6333  -31.8408   23.1955 C   0  0  0  0  0  0
  -25.9113  -32.4698   23.8322 C   0  0  1  0  0  0
  -27.2140  -27.1328   20.2003 C   0  0  0  0  0  0
  -25.5853  -33.8520   24.2230 N   0  0  0  0  0  0
  -23.4420  -30.4613   21.5254 C   0  0  2  0  0  0
  -24.9028  -28.8864   20.1135 C   0  0  0  0  0  0
  -22.7537  -29.4522   22.4784 C   0  0  0  0  0  0
  -18.0270  -28.1403   22.8408 C   0  0  0  0  0  0
  -24.1502  -36.7292   23.2652 C   0  0  0  0  0  0
  -25.9976  -30.7122   21.4047 C   0  0  0  0  0  0
  -26.0679  -29.3186   20.7629 C   0  0  0  0  0  0
  -27.2226  -28.4569   20.7953 C   0  0  0  0  0  0
  -26.0491  -26.8125   19.4820 C   0  0  0  0  0  0
  -24.9127  -27.6512   19.4460 C   0  0  0  0  0  0
  -23.6757  -29.7841   20.1452 C   0  0  0  0  0  0
  -25.4125  -36.3082   24.0342 C   0  0  1  0  0  0
  -20.5870  -28.3739   23.1218 C   0  0  2  0  0  0
  -20.6748  -26.9459   22.5376 C   0  0  0  0  0  0
  -19.5741  -26.6369   21.5196 C   0  0  0  0  0  0
  -18.1911  -26.7919   22.1589 C   0  0  0  0  0  0
  -19.1520  -28.8884   23.2790 C   0  0  0  0  0  0
  -18.9455  -30.1443   23.8841 C   0  0  0  0  0  0
  -17.6471  -30.6597   24.0527 C   0  0  0  0  0  0
  -25.9057  -34.9436   23.5131 C   0  0  0  0  0  0
  -16.5354  -29.9081   23.6352 C   0  0  0  0  0  0
  -16.7247  -28.6507   23.0351 C   0  0  0  0  0  0
  -26.4481  -31.6589   25.0791 C   0  0  0  0  0  0
  -25.3667  -31.3738   26.1505 C   0  0  0  0  0  0
  -27.0362  -30.2981   24.6433 C   0  0  0  0  0  0
  -27.6062  -32.4336   25.7509 C   0  0  0  0  0  0
  -27.5605  -37.1775   24.8452 C   0  0  0  0  0  0
  -21.4235  -29.3075   22.3589 N   0  0  0  0  0  0
  -26.4300  -37.3781   23.9423 N   0  0  0  0  0  0
  -24.7098  -31.0254   22.0968 N   0  0  0  0  0  0
  -23.4215  -28.8077   23.2913 O   0  0  0  0  0  0
  -28.3064  -26.2089   20.1157 O   0  0  0  0  0  0
  -26.5697  -34.8907   22.4745 O   0  0  0  0  0  0
  -23.5460  -32.1283   23.7117 O   0  0  0  0  0  0
  -27.9352  -21.9136   22.4055 C   0  0  0  0  0  0
  -26.8301  -22.6483   22.8570 C   0  0  0  0  0  0
  -28.3628  -22.0372   21.0643 C   0  0  0  0  0  0
  -26.0995  -23.3953   21.9266 C   0  0  0  0  0  0
  -27.8983  -23.3481   20.4662 C   0  0  0  0  0  0
  -23.7290  -22.8925   22.7761 C   0  0  0  0  0  0
  -24.1123  -24.9727   21.3768 C   0  0  0  0  0  0
  -31.4641  -18.1349   20.6929 C   0  0  0  0  0  0
  -28.8996  -18.8628   22.3622 C   0  0  0  0  0  0
  -27.5798  -18.6581   20.2885 C   0  0  0  0  0  0
  -29.1584  -20.7106   20.4234 C   0  0  0  0  0  0
  -28.5150  -24.8372   20.8294 C   0  0  0  0  0  0
  -24.7398  -23.9694   22.3520 C   0  0  0  0  0  0
  -30.0127  -17.7688   20.3156 C   0  0  1  0  0  0
  -28.9710  -19.0313   20.8321 C   0  0  0  0  0  0
  -26.5739  -23.5895   20.6670 N   0  0  0  0  0  0
  -29.7633  -16.2018   20.5806 N   0  0  0  0  0  0
  -31.4690  -12.7691   19.2120 H   0  0  0  0  0  0
  -30.4265  -11.6719   20.0639 H   0  0  0  0  0  0
  -29.8544  -11.7333   17.6075 H   0  0  0  0  0  0
  -29.6100  -13.4647   17.7004 H   0  0  0  0  0  0
  -27.9672  -11.2685   18.9921 H   0  0  0  0  0  0
  -27.4007  -12.4253   17.8239 H   0  0  0  0  0  0
  -27.5796  -14.2462   19.3900 H   0  0  0  0  0  0
  -28.7548  -12.3449   21.4739 H   0  0  0  0  0  0
  -28.3453  -14.0224   21.7442 H   0  0  0  0  0  0
  -25.2805   -9.5699   22.4735 H   0  0  0  0  0  0
  -24.0061   -7.4632   22.7434 H   0  0  0  0  0  0
  -21.0889   -8.8770   19.8933 H   0  0  0  0  0  0
  -22.3729  -10.9671   19.6142 H   0  0  0  0  0  0
  -21.1999   -7.6147   23.9765 H   0  0  0  0  0  0
  -21.1481   -6.0477   25.9092 H   0  0  0  0  0  0
  -22.0603   -2.7619   23.2839 H   0  0  0  0  0  0
  -22.4128  -11.9882   22.4856 H   0  0  0  0  0  0
  -21.1058  -13.1191   22.2634 H   0  0  0  0  0  0
  -24.6390  -15.8408   20.5223 H   0  0  0  0  0  0
  -26.2452  -15.6387   20.0436 H   0  0  0  0  0  0
  -26.7171  -32.5301   23.1026 H   0  0  0  0  0  0
  -24.9914  -33.9633   25.0317 H   0  0  0  0  0  0
  -22.7433  -31.2837   21.3578 H   0  0  0  0  0  0
  -23.3804  -35.9575   23.3309 H   0  0  0  0  0  0
  -24.3616  -36.8942   22.2071 H   0  0  0  0  0  0
  -23.7216  -37.6472   23.6696 H   0  0  0  0  0  0
  -26.1668  -31.4544   20.6216 H   0  0  0  0  0  0
  -26.8657  -30.7665   22.0491 H   0  0  0  0  0  0
  -28.1118  -28.7834   21.3170 H   0  0  0  0  0  0
  -26.0166  -25.8645   18.9625 H   0  0  0  0  0  0
  -24.0470  -27.3267   18.8863 H   0  0  0  0  0  0
  -23.8018  -30.5500   19.3776 H   0  0  0  0  0  0
  -22.7968  -29.2119   19.8397 H   0  0  0  0  0  0
  -25.1302  -36.1967   25.0830 H   0  0  0  0  0  0
  -20.9914  -28.3317   24.1360 H   0  0  0  0  0  0
  -20.5771  -26.2307   23.3564 H   0  0  0  0  0  0
  -21.6582  -26.7649   22.1062 H   0  0  0  0  0  0
  -19.6946  -25.6286   21.1232 H   0  0  0  0  0  0
  -19.6685  -27.3168   20.6729 H   0  0  0  0  0  0
  -17.4169  -26.6611   21.4008 H   0  0  0  0  0  0
  -18.0304  -26.0107   22.9035 H   0  0  0  0  0  0
  -19.7956  -30.7209   24.2229 H   0  0  0  0  0  0
  -17.5071  -31.6279   24.5136 H   0  0  0  0  0  0
  -15.5366  -30.2991   23.7738 H   0  0  0  0  0  0
  -15.8621  -28.0824   22.7141 H   0  0  0  0  0  0
  -24.5858  -30.7058   25.7862 H   0  0  0  0  0  0
  -24.8782  -32.2873   26.4925 H   0  0  0  0  0  0
  -25.7941  -30.8941   27.0322 H   0  0  0  0  0  0
  -26.3019  -29.6668   24.1432 H   0  0  0  0  0  0
  -27.3968  -29.7350   25.5054 H   0  0  0  0  0  0
  -27.8923  -30.4248   23.9811 H   0  0  0  0  0  0
  -27.2764  -33.3665   26.2079 H   0  0  0  0  0  0
  -28.3847  -32.6831   25.0298 H   0  0  0  0  0  0
  -28.0779  -31.8449   26.5386 H   0  0  0  0  0  0
  -28.2607  -38.0087   24.7573 H   0  0  0  0  0  0
  -28.1115  -36.2634   24.6199 H   0  0  0  0  0  0
  -27.2325  -37.1368   25.8845 H   0  0  0  0  0  0
  -20.9439  -29.8861   21.6815 H   0  0  0  0  0  0
  -26.0220  -38.2868   24.1418 H   0  0  0  0  0  0
  -28.3604  -21.1966   23.0790 H   0  0  0  0  0  0
  -26.4725  -22.5235   23.8702 H   0  0  0  0  0  0
  -24.1005  -22.3085   23.6188 H   0  0  0  0  0  0
  -23.5066  -22.2090   21.9598 H   0  0  0  0  0  0
  -22.7924  -23.3508   23.0994 H   0  0  0  0  0  0
  -24.5997  -25.9406   21.4846 H   0  0  0  0  0  0
  -23.0581  -25.1305   21.5939 H   0  0  0  0  0  0
  -24.1795  -24.6480   20.3365 H   0  0  0  0  0  0
  -31.6573  -17.9689   21.7527 H   0  0  0  0  0  0
  -31.6759  -19.1818   20.4777 H   0  0  0  0  0  0
  -32.1915  -17.5594   20.1156 H   0  0  0  0  0  0
  -27.9080  -19.1077   22.7489 H   0  0  0  0  0  0
  -29.6353  -19.4884   22.8652 H   0  0  0  0  0  0
  -29.1073  -17.8391   22.6746 H   0  0  0  0  0  0
  -26.8364  -19.4066   20.5743 H   0  0  0  0  0  0
  -27.2347  -17.6930   20.6632 H   0  0  0  0  0  0
  -27.5816  -18.6085   19.2000 H   0  0  0  0  0  0
  -30.2137  -20.9501   20.5509 H   0  0  0  0  0  0
  -29.0075  -20.7867   19.3444 H   0  0  0  0  0  0
  -29.5940  -24.6844   20.8151 H   0  0  0  0  0  0
  -28.3134  -25.0314   21.8839 H   0  0  0  0  0  0
  -24.9535  -24.5493   23.2526 H   0  0  0  0  0  0
  -29.9778  -17.8355   19.2281 H   0  0  0  0  0  0
  -28.7986  -15.9995   20.7956 H   0  0  0  0  0  0
  1 25  1  0  0  0
  1 30  2  0  0  0
  1 87  1  0  0  0
  2  3  1  0  0  0
  2 25  1  0  0  0
  2 88  1  0  0  0
  2 89  1  0  0  0
  3  4  1  0  0  0
  3 90  1  0  0  0
  3 91  1  0  0  0
  4  5  1  0  0  0
  4 92  1  0  0  0
  4 93  1  0  0  0
  5  6  1  0  0  0
  5 26  1  0  0  0
  5 94  1  0  0  0
  6 25  1  0  0  0
  6 95  1  0  0  0
  6 96  1  0  0  0
  7  8  2  0  0  0
  7 26  1  0  0  0
  7 29  1  0  0  0
  8  9  1  0  0  0
  8 22  1  0  0  0
  9 10  1  0  0  0
  9 27  2  0  0  0
 10 11  2  0  0  0
 10 15  1  0  0  0
 11 12  1  0  0  0
 11 97  1  0  0  0
 12 13  2  0  0  0
 12 98  1  0  0  0
 13 14  1  0  0  0
 13 31  1  0  0  0
 14 15  2  0  0  0
 14 99  1  0  0  0
 15100  1  0  0  0
 16 17  2  0  0  0
 16 21  1  0  0  0
 16 31  1  0  0  0
 17 18  1  0  0  0
 17101  1  0  0  0
 18 19  2  0  0  0
 18102  1  0  0  0
 19 20  1  0  0  0
 19 24  1  0  0  0
 20 21  2  0  0  0
 20103  1  0  0  0
 21 23  1  0  0  0
 22 28  1  0  0  0
 22 32  2  0  0  0
 26 27  1  0  0  0
 28104  1  0  0  0
 28105  1  0  0  0
 29106  1  0  0  0
 29107  1  0  0  0
 33 34  1  0  0  0
 33 66  1  0  0  0
 33 70  2  0  0  0
 34 36  1  0  0  0
 34 59  1  0  0  0
 34108  1  0  0  0
 35 44  2  0  0  0
 35 45  1  0  0  0
 35 68  1  0  0  0
 36 56  1  0  0  0
 36109  1  0  0  0
 37 39  1  0  0  0
 37 47  1  0  0  0
 37 66  1  0  0  0
 37110  1  0  0  0
 38 43  2  0  0  0
 38 46  1  0  0  0
 38 47  1  0  0  0
 39 64  1  0  0  0
 39 67  2  0  0  0
 40 52  1  0  0  0
 40 53  2  0  0  0
 40 58  1  0  0  0
 41111  1  0  0  0
 41112  1  0  0  0
 41113  1  0  0  0
 41 48  1  0  0  0
 42 43  1  0  0  0
 42 66  1  0  0  0
 42114  1  0  0  0
 42115  1  0  0  0
 43 44  1  0  0  0
 44116  1  0  0  0
 45 46  2  0  0  0
 45117  1  0  0  0
 46118  1  0  0  0
 47119  1  0  0  0
 47120  1  0  0  0
 48 56  1  0  0  0
 48 65  1  0  0  0
 48121  1  0  0  0
 49 50  1  0  0  0
 49 53  1  0  0  0
 49 64  1  0  0  0
 49122  1  0  0  0
 50 51  1  0  0  0
 50123  1  0  0  0
 50124  1  0  0  0
 51 52  1  0  0  0
 51125  1  0  0  0
 51126  1  0  0  0
 52127  1  0  0  0
 52128  1  0  0  0
 53 54  1  0  0  0
 54 55  2  0  0  0
 54129  1  0  0  0
 55 57  1  0  0  0
 55130  1  0  0  0
 56 69  2  0  0  0
 57 58  2  0  0  0
 57131  1  0  0  0
 58132  1  0  0  0
 59 60  1  0  0  0
 59 61  1  0  0  0
 59 62  1  0  0  0
 60133  1  0  0  0
 60134  1  0  0  0
 60135  1  0  0  0
 61136  1  0  0  0
 61137  1  0  0  0
 61138  1  0  0  0
 62139  1  0  0  0
 62140  1  0  0  0
 62141  1  0  0  0
 63 65  1  0  0  0
 63142  1  0  0  0
 63143  1  0  0  0
 63144  1  0  0  0
 64145  1  0  0  0
 65146  1  0  0  0
 68 82  1  0  0  0
 71 72  2  0  0  0
 71 73  1  0  0  0
 71147  1  0  0  0
 72 74  1  0  0  0
 72148  1  0  0  0
 73 75  2  0  0  0
 73 81  1  0  0  0
 74 83  1  0  0  0
 74 86  2  0  0  0
 75 82  1  0  0  0
 75 86  1  0  0  0
 76149  1  0  0  0
 76150  1  0  0  0
 76151  1  0  0  0
 76 83  1  0  0  0
 77 83  1  0  0  0
 77152  1  0  0  0
 77153  1  0  0  0
 77154  1  0  0  0
 78155  1  0  0  0
 78156  1  0  0  0
 78157  1  0  0  0
 78 84  1  0  0  0
 79158  1  0  0  0
 79159  1  0  0  0
 79160  1  0  0  0
 79 85  1  0  0  0
 80 85  1  0  0  0
 80161  1  0  0  0
 80162  1  0  0  0
 80163  1  0  0  0
 81 85  1  0  0  0
 81164  1  0  0  0
 81165  1  0  0  0
 82166  1  0  0  0
 82167  1  0  0  0
 83168  1  0  0  0
 84 85  1  0  0  0
 84 87  1  0  0  0
 84169  1  0  0  0
 87170  1  0  0  0
M  ISO  4   1 100  68 101  82 101  87 100
M  END
> <chiral flag>
0

> <version>
0

> <s_m_source_file>
/data/baiqing/PycharmProjects/Reinvent-master-3.2/result/LINK_invent/BTK/process_docking_weight1_custom_sum_contain_oxygen_bond_distance_aromatic_linkinvent_7_9_3/rearranged_h_0107.sdf

> <i_m_source_file_index>
80

> <r_mmod_Potential_Energy-OPLS-2005>
685.620422363281

> <r_mmod_Stretch_Energy-OPLS-2005>
328.736389160156

> <r_mmod_Bend_Energy-OPLS-2005>
353.797790527344

> <r_mmod_Torsional_Energy-OPLS-2005>
421.066253662109

> <r_mmod_Improper_Torsional_Energy-OPLS-2005>
22.3928031921387

> <r_mmod_Van_der_Waal_Energy-OPLS-2005>
133.178955078125

> <r_mmod_Electrostatic_Energy-OPLS-2005>
-570.189208984375

> <r_mmod_Solvation_Energy-OPLS-2005>
-204.085021972656

> <b_mmod_Minimization_Converged-OPLS-2005>
0

> <r_mmod_RMS_Derivative-OPLS-2005>
5.9529824256897

$$$$
82
                    3D
 Structure written by MMmdl.
154162  0  0  1  0            999 V2000
  -30.5014  -15.0060   20.3987 C   0  0  0  0  0  0
  -30.4395  -12.6144   19.5072 C   0  0  0  0  0  0
  -29.5251  -12.5462   18.2604 C   0  0  0  0  0  0
  -28.0544  -12.3339   18.6703 C   0  0  0  0  0  0
  -27.6289  -13.2539   19.8425 C   0  0  2  0  0  0
  -28.6712  -13.2859   20.9800 C   0  0  0  0  0  0
  -25.2458  -13.8207   20.5714 C   0  0  0  0  0  0
  -24.1783  -13.0426   20.9208 C   0  0  0  0  0  0
  -24.6389  -11.6910   20.8719 C   0  0  0  0  0  0
  -23.9048  -10.4294   21.0367 C   0  0  0  0  0  0
  -24.3599   -9.4222   21.9158 C   0  0  0  0  0  0
  -23.6295   -8.2246   22.0740 C   0  0  0  0  0  0
  -22.4291   -8.0264   21.3519 C   0  0  0  0  0  0
  -21.9900   -9.0221   20.4623 C   0  0  0  0  0  0
  -22.7206  -10.2113   20.3028 C   0  0  0  0  0  0
  -21.6865   -6.0715   22.5263 C   0  0  0  0  0  0
  -21.4019   -6.5621   23.8195 C   0  0  0  0  0  0
  -21.3674   -5.6783   24.9159 C   0  0  0  0  0  0
  -21.6052   -4.3044   24.7222 C   0  0  0  0  0  0
  -21.8817   -3.8131   23.4341 C   0  0  0  0  0  0
  -21.9197   -4.6937   22.3393 C   0  0  0  0  0  0
  -22.7803  -13.5184   21.1881 C   0  0  0  0  0  0
  -22.1669   -4.2117   21.0973 F   0  0  0  0  0  0
  -21.5641   -3.4532   25.7734 F   0  0  0  0  0  0
  -29.9418  -13.7207   20.3831 N   0  0  0  0  0  0
  -26.2886  -12.9448   20.3255 N   0  0  0  0  0  0
  -25.9327  -11.6564   20.5704 N   0  0  0  0  0  0
  -22.0462  -12.8173   22.0436 N   0  0  0  0  0  0
  -25.4133  -15.1940   20.4127 N   0  0  0  0  0  0
  -31.7009  -15.0878   20.1044 O   0  0  0  0  0  0
  -21.6656   -6.8859   21.4230 O   0  0  0  0  0  0
  -22.3475  -14.5488   20.6731 O   0  0  0  0  0  0
  -24.6468  -31.8380   23.1822 C   0  0  0  0  0  0
  -25.9208  -32.4673   23.8227 C   0  0  1  0  0  0
  -27.2187  -27.0882   20.1487 C   0  0  0  0  0  0
  -25.5939  -33.8483   24.2135 N   0  0  0  0  0  0
  -23.4556  -30.4544   21.5300 C   0  0  2  0  0  0
  -24.9040  -28.8709   20.1124 C   0  0  0  0  0  0
  -22.7599  -29.4507   22.4845 C   0  0  0  0  0  0
  -18.0313  -28.1435   22.8498 C   0  0  0  0  0  0
  -24.1478  -36.7249   23.2639 C   0  0  0  0  0  0
  -26.0129  -30.6934   21.3891 C   0  0  0  0  0  0
  -26.0841  -29.2987   20.7343 C   0  0  0  0  0  0
  -27.2420  -28.4249   20.7342 C   0  0  0  0  0  0
  -26.0130  -26.7779   19.4814 C   0  0  0  0  0  0
  -24.8832  -27.6257   19.4700 C   0  0  0  0  0  0
  -23.6841  -29.7790   20.1517 C   0  0  0  0  0  0
  -25.4118  -36.3017   24.0300 C   0  0  1  0  0  0
  -20.5936  -28.3736   23.1250 C   0  0  2  0  0  0
  -20.6801  -26.9438   22.5409 C   0  0  0  0  0  0
  -19.5757  -26.6410   21.5233 C   0  0  0  0  0  0
  -18.1944  -26.7984   22.1645 C   0  0  0  0  0  0
  -19.1573  -28.8908   23.2870 C   0  0  0  0  0  0
  -18.9484  -30.1519   23.8881 C   0  0  0  0  0  0
  -17.6472  -30.6624   24.0576 C   0  0  0  0  0  0
  -25.9074  -34.9395   23.5028 C   0  0  0  0  0  0
  -16.5367  -29.9118   23.6351 C   0  0  0  0  0  0
  -16.7297  -28.6545   23.0360 C   0  0  0  0  0  0
  -26.4511  -31.6589   25.0709 C   0  0  0  0  0  0
  -25.3669  -31.3826   26.1399 C   0  0  0  0  0  0
  -27.0341  -30.2962   24.6318 C   0  0  0  0  0  0
  -27.6037  -32.4367   25.7503 C   0  0  0  0  0  0
  -27.5570  -37.1782   24.8462 C   0  0  0  0  0  0
  -21.4280  -29.3047   22.3612 N   0  0  0  0  0  0
  -26.4273  -37.3740   23.9419 N   0  0  0  0  0  0
  -24.7257  -31.0184   22.0885 N   0  0  0  0  0  0
  -23.4221  -28.8044   23.3009 O   0  0  0  0  0  0
  -28.2637  -26.0751   20.1821 O   0  0  0  0  0  0
  -26.5665  -34.8906   22.4612 O   0  0  0  0  0  0
  -23.5576  -32.1267   23.7013 O   0  0  0  0  0  0
  -28.8381  -18.6527   20.6720 C   0  0  0  0  0  0
  -29.2881  -20.0443   20.3368 C   0  0  0  0  0  0
  -30.5562  -19.7582   19.8543 C   0  0  0  0  0  0
  -29.7789  -17.6171   20.4088 C   0  0  0  0  0  0
  -31.5756  -20.7096   19.3150 C   0  0  0  0  0  0
  -27.5914  -24.5225   21.9131 C   0  0  0  0  0  0
  -28.4914  -21.5262   20.4917 C   0  0  0  0  0  0
  -28.9504  -23.1445   20.1543 C   0  0  0  0  0  0
  -27.9747  -24.5366   20.4274 C   0  0  2  0  0  0
  -30.8345  -18.3628   19.9030 N   0  0  0  0  0  0
  -29.6768  -16.1720   20.5743 N   0  0  0  0  0  0
  -31.4745  -12.7760   19.2004 H   0  0  0  0  0  0
  -30.4303  -11.6622   20.0414 H   0  0  0  0  0  0
  -29.8489  -11.7480   17.5912 H   0  0  0  0  0  0
  -29.6170  -13.4753   17.6958 H   0  0  0  0  0  0
  -27.9433  -11.2895   18.9618 H   0  0  0  0  0  0
  -27.3944  -12.4813   17.8144 H   0  0  0  0  0  0
  -27.5897  -14.2585   19.4206 H   0  0  0  0  0  0
  -28.7673  -12.3070   21.4526 H   0  0  0  0  0  0
  -28.3623  -13.9769   21.7667 H   0  0  0  0  0  0
  -25.2719   -9.5721   22.4752 H   0  0  0  0  0  0
  -23.9998   -7.4647   22.7470 H   0  0  0  0  0  0
  -21.0823   -8.8699   19.8943 H   0  0  0  0  0  0
  -22.3609  -10.9635   19.6160 H   0  0  0  0  0  0
  -21.2005   -7.6128   23.9674 H   0  0  0  0  0  0
  -21.1518   -6.0522   25.9058 H   0  0  0  0  0  0
  -22.0590   -2.7586   23.2837 H   0  0  0  0  0  0
  -22.4087  -11.9839   22.4824 H   0  0  0  0  0  0
  -21.1064  -13.1171   22.2616 H   0  0  0  0  0  0
  -24.6370  -15.8394   20.5058 H   0  0  0  0  0  0
  -26.2377  -15.6237   20.0136 H   0  0  0  0  0  0
  -26.7276  -32.5254   23.0958 H   0  0  0  0  0  0
  -25.0070  -33.9594   25.0272 H   0  0  0  0  0  0
  -22.7600  -31.2807   21.3710 H   0  0  0  0  0  0
  -23.3743  -35.9580   23.3287 H   0  0  0  0  0  0
  -24.3558  -36.8899   22.2057 H   0  0  0  0  0  0
  -23.7233  -37.6437   23.6695 H   0  0  0  0  0  0
  -26.1668  -31.4394   20.6082 H   0  0  0  0  0  0
  -26.8853  -30.7531   22.0276 H   0  0  0  0  0  0
  -28.1404  -28.7444   21.2433 H   0  0  0  0  0  0
  -25.9133  -25.8362   18.9612 H   0  0  0  0  0  0
  -23.9873  -27.2982   18.9600 H   0  0  0  0  0  0
  -23.8224  -30.5469   19.3910 H   0  0  0  0  0  0
  -22.7992  -29.2196   19.8434 H   0  0  0  0  0  0
  -25.1312  -36.1824   25.0790 H   0  0  0  0  0  0
  -21.0030  -28.3319   24.1372 H   0  0  0  0  0  0
  -20.5725  -26.2330   23.3616 H   0  0  0  0  0  0
  -21.6661  -26.7459   22.1175 H   0  0  0  0  0  0
  -19.6894  -25.6310   21.1278 H   0  0  0  0  0  0
  -19.6713  -27.3211   20.6757 H   0  0  0  0  0  0
  -17.4211  -26.6745   21.4050 H   0  0  0  0  0  0
  -18.0330  -26.0152   22.9059 H   0  0  0  0  0  0
  -19.7949  -30.7368   24.2222 H   0  0  0  0  0  0
  -17.5013  -31.6300   24.5191 H   0  0  0  0  0  0
  -15.5365  -30.2996   23.7709 H   0  0  0  0  0  0
  -15.8703  -28.0862   22.7060 H   0  0  0  0  0  0
  -24.5890  -30.7111   25.7755 H   0  0  0  0  0  0
  -24.8804  -32.3010   26.4680 H   0  0  0  0  0  0
  -25.7942  -30.9133   27.0261 H   0  0  0  0  0  0
  -26.2930  -29.6735   24.1290 H   0  0  0  0  0  0
  -27.3872  -29.7255   25.4917 H   0  0  0  0  0  0
  -27.8892  -30.4187   23.9671 H   0  0  0  0  0  0
  -27.2626  -33.3712   26.1976 H   0  0  0  0  0  0
  -28.3902  -32.6853   25.0365 H   0  0  0  0  0  0
  -28.0624  -31.8543   26.5499 H   0  0  0  0  0  0
  -28.2572  -38.0091   24.7515 H   0  0  0  0  0  0
  -28.1074  -36.2620   24.6276 H   0  0  0  0  0  0
  -27.2291  -37.1415   25.8863 H   0  0  0  0  0  0
  -20.9487  -29.8759   21.6790 H   0  0  0  0  0  0
  -26.0121  -38.2791   24.1465 H   0  0  0  0  0  0
  -27.8594  -18.4361   21.0818 H   0  0  0  0  0  0
  -32.4933  -20.1997   19.0187 H   0  0  0  0  0  0
  -31.8363  -21.4651   20.0574 H   0  0  0  0  0  0
  -31.1825  -21.2369   18.4435 H   0  0  0  0  0  0
  -27.1920  -23.5553   22.2182 H   0  0  0  0  0  0
  -26.8301  -25.2705   22.1344 H   0  0  0  0  0  0
  -28.4606  -24.7383   22.5385 H   0  0  0  0  0  0
  -28.1920  -21.5336   21.5381 H   0  0  0  0  0  0
  -27.5538  -21.3783   19.9547 H   0  0  0  0  0  0
  -29.2294  -23.1685   19.1000 H   0  0  0  0  0  0
  -29.8861  -23.3153   20.6869 H   0  0  0  0  0  0
  -27.0709  -24.3094   19.8681 H   0  0  0  0  0  0
  -31.7059  -17.9477   19.5832 H   0  0  0  0  0  0
  -28.7475  -15.8893   20.8453 H   0  0  0  0  0  0
  1 25  1  0  0  0
  1 30  2  0  0  0
  1 81  1  0  0  0
  2  3  1  0  0  0
  2 25  1  0  0  0
  2 82  1  0  0  0
  2 83  1  0  0  0
  3  4  1  0  0  0
  3 84  1  0  0  0
  3 85  1  0  0  0
  4  5  1  0  0  0
  4 86  1  0  0  0
  4 87  1  0  0  0
  5  6  1  0  0  0
  5 26  1  0  0  0
  5 88  1  0  0  0
  6 25  1  0  0  0
  6 89  1  0  0  0
  6 90  1  0  0  0
  7  8  2  0  0  0
  7 26  1  0  0  0
  7 29  1  0  0  0
  8  9  1  0  0  0
  8 22  1  0  0  0
  9 10  1  0  0  0
  9 27  2  0  0  0
 10 11  2  0  0  0
 10 15  1  0  0  0
 11 12  1  0  0  0
 11 91  1  0  0  0
 12 13  2  0  0  0
 12 92  1  0  0  0
 13 14  1  0  0  0
 13 31  1  0  0  0
 14 15  2  0  0  0
 14 93  1  0  0  0
 15 94  1  0  0  0
 16 17  2  0  0  0
 16 21  1  0  0  0
 16 31  1  0  0  0
 17 18  1  0  0  0
 17 95  1  0  0  0
 18 19  2  0  0  0
 18 96  1  0  0  0
 19 20  1  0  0  0
 19 24  1  0  0  0
 20 21  2  0  0  0
 20 97  1  0  0  0
 21 23  1  0  0  0
 22 28  1  0  0  0
 22 32  2  0  0  0
 26 27  1  0  0  0
 28 98  1  0  0  0
 28 99  1  0  0  0
 29100  1  0  0  0
 29101  1  0  0  0
 33 34  1  0  0  0
 33 66  1  0  0  0
 33 70  2  0  0  0
 34 36  1  0  0  0
 34 59  1  0  0  0
 34102  1  0  0  0
 35 44  2  0  0  0
 35 45  1  0  0  0
 35 68  1  0  0  0
 36 56  1  0  0  0
 36103  1  0  0  0
 37 39  1  0  0  0
 37 47  1  0  0  0
 37 66  1  0  0  0
 37104  1  0  0  0
 38 43  2  0  0  0
 38 46  1  0  0  0
 38 47  1  0  0  0
 39 64  1  0  0  0
 39 67  2  0  0  0
 40 52  1  0  0  0
 40 53  2  0  0  0
 40 58  1  0  0  0
 41105  1  0  0  0
 41106  1  0  0  0
 41107  1  0  0  0
 41 48  1  0  0  0
 42 43  1  0  0  0
 42 66  1  0  0  0
 42108  1  0  0  0
 42109  1  0  0  0
 43 44  1  0  0  0
 44110  1  0  0  0
 45 46  2  0  0  0
 45111  1  0  0  0
 46112  1  0  0  0
 47113  1  0  0  0
 47114  1  0  0  0
 48 56  1  0  0  0
 48 65  1  0  0  0
 48115  1  0  0  0
 49 50  1  0  0  0
 49 53  1  0  0  0
 49 64  1  0  0  0
 49116  1  0  0  0
 50 51  1  0  0  0
 50117  1  0  0  0
 50118  1  0  0  0
 51 52  1  0  0  0
 51119  1  0  0  0
 51120  1  0  0  0
 52121  1  0  0  0
 52122  1  0  0  0
 53 54  1  0  0  0
 54 55  2  0  0  0
 54123  1  0  0  0
 55 57  1  0  0  0
 55124  1  0  0  0
 56 69  2  0  0  0
 57 58  2  0  0  0
 57125  1  0  0  0
 58126  1  0  0  0
 59 60  1  0  0  0
 59 61  1  0  0  0
 59 62  1  0  0  0
 60127  1  0  0  0
 60128  1  0  0  0
 60129  1  0  0  0
 61130  1  0  0  0
 61131  1  0  0  0
 61132  1  0  0  0
 62133  1  0  0  0
 62134  1  0  0  0
 62135  1  0  0  0
 63 65  1  0  0  0
 63136  1  0  0  0
 63137  1  0  0  0
 63138  1  0  0  0
 64139  1  0  0  0
 65140  1  0  0  0
 68 79  1  0  0  0
 71 72  1  0  0  0
 71 74  2  0  0  0
 71141  1  0  0  0
 72 73  2  0  0  0
 72 77  1  0  0  0
 73 75  1  0  0  0
 73 80  1  0  0  0
 74 80  1  0  0  0
 74 81  1  0  0  0
 75142  1  0  0  0
 75143  1  0  0  0
 75144  1  0  0  0
 76145  1  0  0  0
 76146  1  0  0  0
 76147  1  0  0  0
 76 79  1  0  0  0
 77 78  1  0  0  0
 77148  1  0  0  0
 77149  1  0  0  0
 78 79  1  0  0  0
 78150  1  0  0  0
 78151  1  0  0  0
 79152  1  0  0  0
 80153  1  0  0  0
 81154  1  0  0  0
M  ISO  4   1 100  68 101  79 101  81 100
M  END
> <chiral flag>
0

> <version>
0

> <s_m_source_file>
/data/baiqing/PycharmProjects/Reinvent-master-3.2/result/LINK_invent/BTK/process_docking_weight1_custom_sum_contain_oxygen_bond_distance_aromatic_linkinvent_7_9_3/rearranged_h_0107.sdf

> <i_m_source_file_index>
81

> <r_mmod_Potential_Energy-OPLS-2005>
585.488037109375

> <r_mmod_Stretch_Energy-OPLS-2005>
306.221099853516

> <r_mmod_Bend_Energy-OPLS-2005>
304.233154296875

> <r_mmod_Torsional_Energy-OPLS-2005>
209.998397827148

> <r_mmod_Improper_Torsional_Energy-OPLS-2005>
3.90308332443237

> <r_mmod_Van_der_Waal_Energy-OPLS-2005>
106.273979187012

> <r_mmod_Electrostatic_Energy-OPLS-2005>
-373.41455078125

> <r_mmod_Solvation_Energy-OPLS-2005>
-205.786026000977

> <b_mmod_Minimization_Converged-OPLS-2005>
0

> <r_mmod_RMS_Derivative-OPLS-2005>
3.00763440132141

$$$$
83
                    3D
 Structure written by MMmdl.
171180  0  0  1  0            999 V2000
  -30.5935  -14.7450   20.4747 C   0  0  0  0  0  0
  -30.4367  -12.4592   19.4544 C   0  0  0  0  0  0
  -29.5052  -12.5050   18.2235 C   0  0  0  0  0  0
  -28.0320  -12.3251   18.6429 C   0  0  0  0  0  0
  -27.6392  -13.2222   19.8464 C   0  0  2  0  0  0
  -28.6882  -13.1516   20.9758 C   0  0  0  0  0  0
  -25.2515  -13.8170   20.5693 C   0  0  0  0  0  0
  -24.1801  -13.0422   20.9203 C   0  0  0  0  0  0
  -24.6380  -11.6902   20.8745 C   0  0  0  0  0  0
  -23.9058  -10.4282   21.0401 C   0  0  0  0  0  0
  -24.3613   -9.4200   21.9177 C   0  0  0  0  0  0
  -23.6288   -8.2237   22.0751 C   0  0  0  0  0  0
  -22.4270   -8.0273   21.3541 C   0  0  0  0  0  0
  -21.9904   -9.0247   20.4642 C   0  0  0  0  0  0
  -22.7233  -10.2125   20.3048 C   0  0  0  0  0  0
  -21.6852   -6.0727   22.5277 C   0  0  0  0  0  0
  -21.4019   -6.5635   23.8211 C   0  0  0  0  0  0
  -21.3661   -5.6788   24.9173 C   0  0  0  0  0  0
  -21.6039   -4.3051   24.7227 C   0  0  0  0  0  0
  -21.8822   -3.8138   23.4351 C   0  0  0  0  0  0
  -21.9198   -4.6953   22.3402 C   0  0  0  0  0  0
  -22.7828  -13.5212   21.1862 C   0  0  0  0  0  0
  -22.1663   -4.2140   21.0981 F   0  0  0  0  0  0
  -21.5626   -3.4535   25.7741 F   0  0  0  0  0  0
  -29.9806  -13.5155   20.3832 N   0  0  0  0  0  0
  -26.2928  -12.9355   20.3272 N   0  0  0  0  0  0
  -25.9305  -11.6511   20.5752 N   0  0  0  0  0  0
  -22.0485  -12.8198   22.0422 N   0  0  0  0  0  0
  -25.4181  -15.1902   20.4103 N   0  0  0  0  0  0
  -31.8001  -14.8445   20.2278 O   0  0  0  0  0  0
  -21.6638   -6.8867   21.4238 O   0  0  0  0  0  0
  -22.3513  -14.5519   20.6709 O   0  0  0  0  0  0
  -24.6318  -31.8551   23.1988 C   0  0  0  0  0  0
  -25.9139  -32.4759   23.8338 C   0  0  1  0  0  0
  -27.2117  -27.2541   20.1324 C   0  0  0  0  0  0
  -25.5939  -33.8565   24.2255 N   0  0  0  0  0  0
  -23.4288  -30.4809   21.5412 C   0  0  2  0  0  0
  -24.8756  -28.9294   20.1089 C   0  0  0  0  0  0
  -22.7510  -29.4605   22.4878 C   0  0  0  0  0  0
  -18.0298  -28.1382   22.8487 C   0  0  0  0  0  0
  -24.1488  -36.7285   23.2642 C   0  0  0  0  0  0
  -25.9764  -30.7666   21.3814 C   0  0  0  0  0  0
  -26.0487  -29.3892   20.7221 C   0  0  0  0  0  0
  -27.2216  -28.5664   20.7192 C   0  0  0  0  0  0
  -26.0225  -26.8749   19.4713 C   0  0  0  0  0  0
  -24.8696  -27.6810   19.4705 C   0  0  0  0  0  0
  -23.6495  -29.8193   20.1569 C   0  0  0  0  0  0
  -25.4112  -36.3075   24.0332 C   0  0  1  0  0  0
  -20.5895  -28.3701   23.1248 C   0  0  2  0  0  0
  -20.6780  -26.9411   22.5396 C   0  0  0  0  0  0
  -19.5755  -26.6367   21.5209 C   0  0  0  0  0  0
  -18.1932  -26.7923   22.1621 C   0  0  0  0  0  0
  -19.1550  -28.8854   23.2871 C   0  0  0  0  0  0
  -18.9480  -30.1451   23.8885 C   0  0  0  0  0  0
  -17.6481  -30.6581   24.0568 C   0  0  0  0  0  0
  -25.9051  -34.9449   23.5093 C   0  0  0  0  0  0
  -16.5370  -29.9084   23.6330 C   0  0  0  0  0  0
  -16.7284  -28.6498   23.0354 C   0  0  0  0  0  0
  -26.4505  -31.6592   25.0734 C   0  0  0  0  0  0
  -25.3723  -31.3766   26.1456 C   0  0  0  0  0  0
  -27.0361  -30.3004   24.6226 C   0  0  0  0  0  0
  -27.6041  -32.4358   25.7511 C   0  0  0  0  0  0
  -27.5580  -37.1798   24.8468 C   0  0  0  0  0  0
  -21.4215  -29.3058   22.3639 N   0  0  0  0  0  0
  -26.4287  -37.3769   23.9420 N   0  0  0  0  0  0
  -24.6985  -31.0519   22.0962 N   0  0  0  0  0  0
  -23.4218  -28.8119   23.2953 O   0  0  0  0  0  0
  -28.2931  -26.3406   20.1732 O   0  0  0  0  0  0
  -26.5615  -34.8925   22.4658 O   0  0  0  0  0  0
  -23.5464  -32.1375   23.7263 O   0  0  0  0  0  0
  -30.5912  -18.5195   23.0141 C   0  0  0  0  0  0
  -30.4753  -17.2928   22.3510 C   0  0  0  0  0  0
  -30.2449  -19.7372   22.3843 C   0  0  0  0  0  0
  -29.7455  -19.6951   21.0468 C   0  0  0  0  0  0
  -29.9868  -17.2341   21.0400 C   0  0  0  0  0  0
  -32.1789  -22.4625   24.4211 C   0  0  0  0  0  0
  -31.2752  -22.4340   25.6673 C   0  0  0  0  0  0
  -29.6078  -21.0564   24.4757 C   0  0  0  0  0  0
  -30.4921  -21.0198   23.1960 C   0  0  1  0  0  0
  -31.9909  -21.1985   23.5610 C   0  0  1  0  0  0
  -32.9056  -21.2305   22.3239 C   0  0  0  0  0  0
  -29.5595  -21.0434   20.1847 C   0  0  0  0  0  0
  -29.0130  -23.6712   20.1466 C   0  0  0  0  0  0
  -28.0126  -24.8958   20.5295 C   0  0  0  0  0  0
  -29.6110  -18.4398   20.4328 N   0  0  0  0  0  0
  -29.7703  -15.8649   20.5271 N   0  0  0  0  0  0
  -29.8559  -22.2639   25.2932 N   0  3  0  0  0  0
  -28.6882  -22.2333   20.6382 N   0  3  0  0  0  0
  -31.4735  -12.6037   19.1460 H   0  0  0  0  0  0
  -30.3983  -11.4803   19.9353 H   0  0  0  0  0  0
  -29.7863  -11.7337   17.5048 H   0  0  0  0  0  0
  -29.6244  -13.4598   17.7087 H   0  0  0  0  0  0
  -27.8896  -11.2752   18.9028 H   0  0  0  0  0  0
  -27.3714  -12.5191   17.7966 H   0  0  0  0  0  0
  -27.6313  -14.2429   19.4650 H   0  0  0  0  0  0
  -28.7321  -12.1511   21.4086 H   0  0  0  0  0  0
  -28.4273  -13.8281   21.7921 H   0  0  0  0  0  0
  -25.2759   -9.5678   22.4748 H   0  0  0  0  0  0
  -23.9998   -7.4627   22.7467 H   0  0  0  0  0  0
  -21.0835   -8.8755   19.8949 H   0  0  0  0  0  0
  -22.3683  -10.9658   19.6153 H   0  0  0  0  0  0
  -21.2013   -7.6146   23.9712 H   0  0  0  0  0  0
  -21.1477   -6.0520   25.9075 H   0  0  0  0  0  0
  -22.0602   -2.7604   23.2852 H   0  0  0  0  0  0
  -22.4117  -11.9847   22.4776 H   0  0  0  0  0  0
  -21.1107  -13.1208   22.2647 H   0  0  0  0  0  0
  -24.6433  -15.8358   20.5219 H   0  0  0  0  0  0
  -26.2510  -15.6385   20.0530 H   0  0  0  0  0  0
  -26.7196  -32.5395   23.1072 H   0  0  0  0  0  0
  -25.0140  -33.9706   25.0434 H   0  0  0  0  0  0
  -22.7256  -31.3025   21.3951 H   0  0  0  0  0  0
  -23.3757  -35.9612   23.3304 H   0  0  0  0  0  0
  -24.3571  -36.8898   22.2055 H   0  0  0  0  0  0
  -23.7235  -37.6485   23.6662 H   0  0  0  0  0  0
  -26.1182  -31.5273   20.6129 H   0  0  0  0  0  0
  -26.8530  -30.8114   22.0160 H   0  0  0  0  0  0
  -28.1194  -28.9169   21.2085 H   0  0  0  0  0  0
  -25.9607  -25.9366   18.9400 H   0  0  0  0  0  0
  -23.9759  -27.3303   18.9720 H   0  0  0  0  0  0
  -23.7807  -30.6001   19.4072 H   0  0  0  0  0  0
  -22.7662  -29.2590   19.8458 H   0  0  0  0  0  0
  -25.1284  -36.1924   25.0820 H   0  0  0  0  0  0
  -20.9999  -28.3277   24.1365 H   0  0  0  0  0  0
  -20.5650  -26.2319   23.3603 H   0  0  0  0  0  0
  -21.6651  -26.7406   22.1204 H   0  0  0  0  0  0
  -19.6925  -25.6270   21.1248 H   0  0  0  0  0  0
  -19.6704  -27.3171   20.6727 H   0  0  0  0  0  0
  -17.4203  -26.6679   21.4018 H   0  0  0  0  0  0
  -18.0338  -26.0054   22.8999 H   0  0  0  0  0  0
  -19.7959  -30.7267   24.2247 H   0  0  0  0  0  0
  -17.5044  -31.6264   24.5170 H   0  0  0  0  0  0
  -15.5372  -30.2998   23.7650 H   0  0  0  0  0  0
  -15.8684  -28.0822   22.7073 H   0  0  0  0  0  0
  -24.5901  -30.7108   25.7795 H   0  0  0  0  0  0
  -24.8927  -32.2958   26.4836 H   0  0  0  0  0  0
  -25.8036  -30.8985   27.0259 H   0  0  0  0  0  0
  -26.2959  -29.6750   24.1225 H   0  0  0  0  0  0
  -27.4020  -29.7261   25.4744 H   0  0  0  0  0  0
  -27.8839  -30.4278   23.9492 H   0  0  0  0  0  0
  -27.2626  -33.3667   26.2050 H   0  0  0  0  0  0
  -28.3875  -32.6909   25.0366 H   0  0  0  0  0  0
  -28.0693  -31.8526   26.5470 H   0  0  0  0  0  0
  -28.2577  -38.0110   24.7502 H   0  0  0  0  0  0
  -28.1086  -36.2634   24.6290 H   0  0  0  0  0  0
  -27.2299  -37.1427   25.8870 H   0  0  0  0  0  0
  -20.9375  -29.8826   21.6903 H   0  0  0  0  0  0
  -26.0171  -38.2839   24.1429 H   0  0  0  0  0  0
  -30.9737  -18.5128   24.0246 H   0  0  0  0  0  0
  -30.7422  -16.3911   22.8848 H   0  0  0  0  0  0
  -33.2195  -22.5447   24.7371 H   0  0  0  0  0  0
  -31.9724  -23.3567   23.8315 H   0  0  0  0  0  0
  -31.3923  -23.3542   26.2410 H   0  0  0  0  0  0
  -31.5742  -21.6168   26.3248 H   0  0  0  0  0  0
  -29.7918  -20.1842   25.1034 H   0  0  0  0  0  0
  -28.5515  -21.0219   24.2081 H   0  0  0  0  0  0
  -30.2273  -21.8880   22.6015 H   0  0  0  0  0  0
  -32.3107  -20.3528   24.1716 H   0  0  0  0  0  0
  -32.6589  -22.0635   21.6655 H   0  0  0  0  0  0
  -32.8320  -20.3112   21.7414 H   0  0  0  0  0  0
  -33.9504  -21.3407   22.6165 H   0  0  0  0  0  0
  -29.2294  -20.7603   19.1848 H   0  0  0  0  0  0
  -30.5692  -21.4299   20.0435 H   0  0  0  0  0  0
  -30.0112  -23.9272   20.5038 H   0  0  0  0  0  0
  -29.0887  -23.6364   19.0589 H   0  0  0  0  0  0
  -27.8968  -24.8931   21.6143 H   0  0  0  0  0  0
  -27.0359  -24.5966   20.1571 H   0  0  0  0  0  0
  -28.8023  -15.6514   20.3582 H   0  0  0  0  0  0
  -29.5355  -23.0854   24.8072 H   0  0  0  0  0  0
  -29.3099  -22.1941   26.1379 H   0  0  0  0  0  0
  -28.6845  -22.2339   21.6422 H   0  0  0  0  0  0
  -27.7481  -22.0001   20.3580 H   0  0  0  0  0  0
  1 25  1  0  0  0
  1 30  2  0  0  0
  1 86  1  0  0  0
  2  3  1  0  0  0
  2 25  1  0  0  0
  2 89  1  0  0  0
  2 90  1  0  0  0
  3  4  1  0  0  0
  3 91  1  0  0  0
  3 92  1  0  0  0
  4  5  1  0  0  0
  4 93  1  0  0  0
  4 94  1  0  0  0
  5  6  1  0  0  0
  5 26  1  0  0  0
  5 95  1  0  0  0
  6 25  1  0  0  0
  6 96  1  0  0  0
  6 97  1  0  0  0
  7  8  2  0  0  0
  7 26  1  0  0  0
  7 29  1  0  0  0
  8  9  1  0  0  0
  8 22  1  0  0  0
  9 10  1  0  0  0
  9 27  2  0  0  0
 10 11  2  0  0  0
 10 15  1  0  0  0
 11 12  1  0  0  0
 11 98  1  0  0  0
 12 13  2  0  0  0
 12 99  1  0  0  0
 13 14  1  0  0  0
 13 31  1  0  0  0
 14 15  2  0  0  0
 14100  1  0  0  0
 15101  1  0  0  0
 16 17  2  0  0  0
 16 21  1  0  0  0
 16 31  1  0  0  0
 17 18  1  0  0  0
 17102  1  0  0  0
 18 19  2  0  0  0
 18103  1  0  0  0
 19 20  1  0  0  0
 19 24  1  0  0  0
 20 21  2  0  0  0
 20104  1  0  0  0
 21 23  1  0  0  0
 22 28  1  0  0  0
 22 32  2  0  0  0
 26 27  1  0  0  0
 28105  1  0  0  0
 28106  1  0  0  0
 29107  1  0  0  0
 29108  1  0  0  0
 33 34  1  0  0  0
 33 66  1  0  0  0
 33 70  2  0  0  0
 34 36  1  0  0  0
 34 59  1  0  0  0
 34109  1  0  0  0
 35 44  2  0  0  0
 35 45  1  0  0  0
 35 68  1  0  0  0
 36 56  1  0  0  0
 36110  1  0  0  0
 37 39  1  0  0  0
 37 47  1  0  0  0
 37 66  1  0  0  0
 37111  1  0  0  0
 38 43  2  0  0  0
 38 46  1  0  0  0
 38 47  1  0  0  0
 39 64  1  0  0  0
 39 67  2  0  0  0
 40 52  1  0  0  0
 40 53  2  0  0  0
 40 58  1  0  0  0
 41112  1  0  0  0
 41113  1  0  0  0
 41114  1  0  0  0
 41 48  1  0  0  0
 42 43  1  0  0  0
 42 66  1  0  0  0
 42115  1  0  0  0
 42116  1  0  0  0
 43 44  1  0  0  0
 44117  1  0  0  0
 45 46  2  0  0  0
 45118  1  0  0  0
 46119  1  0  0  0
 47120  1  0  0  0
 47121  1  0  0  0
 48 56  1  0  0  0
 48 65  1  0  0  0
 48122  1  0  0  0
 49 50  1  0  0  0
 49 53  1  0  0  0
 49 64  1  0  0  0
 49123  1  0  0  0
 50 51  1  0  0  0
 50124  1  0  0  0
 50125  1  0  0  0
 51 52  1  0  0  0
 51126  1  0  0  0
 51127  1  0  0  0
 52128  1  0  0  0
 52129  1  0  0  0
 53 54  1  0  0  0
 54 55  2  0  0  0
 54130  1  0  0  0
 55 57  1  0  0  0
 55131  1  0  0  0
 56 69  2  0  0  0
 57 58  2  0  0  0
 57132  1  0  0  0
 58133  1  0  0  0
 59 60  1  0  0  0
 59 61  1  0  0  0
 59 62  1  0  0  0
 60134  1  0  0  0
 60135  1  0  0  0
 60136  1  0  0  0
 61137  1  0  0  0
 61138  1  0  0  0
 61139  1  0  0  0
 62140  1  0  0  0
 62141  1  0  0  0
 62142  1  0  0  0
 63 65  1  0  0  0
 63143  1  0  0  0
 63144  1  0  0  0
 63145  1  0  0  0
 64146  1  0  0  0
 65147  1  0  0  0
 68 84  1  0  0  0
 71 72  2  0  0  0
 71 73  1  0  0  0
 71148  1  0  0  0
 72 75  1  0  0  0
 72149  1  0  0  0
 73 74  2  0  0  0
 73 79  1  0  0  0
 74 82  1  0  0  0
 74 85  1  0  0  0
 75 85  2  0  0  0
 75 86  1  0  0  0
 76 77  1  0  0  0
 76 80  1  0  0  0
 76150  1  0  0  0
 76151  1  0  0  0
 77 87  1  0  0  0
 77152  1  0  0  0
 77153  1  0  0  0
 78 79  1  0  0  0
 78 87  1  0  0  0
 78154  1  0  0  0
 78155  1  0  0  0
 79 80  1  0  0  0
 79156  1  0  0  0
 80 81  1  0  0  0
 80157  1  0  0  0
 81158  1  0  0  0
 81159  1  0  0  0
 81160  1  0  0  0
 82 88  1  0  0  0
 82161  1  0  0  0
 82162  1  0  0  0
 83 84  1  0  0  0
 83 88  1  0  0  0
 83163  1  0  0  0
 83164  1  0  0  0
 84165  1  0  0  0
 84166  1  0  0  0
 86167  1  0  0  0
 87168  1  0  0  0
 87169  1  0  0  0
 88170  1  0  0  0
 88171  1  0  0  0
M  CHG  2  87   1  88   1
M  ISO  4   1 100  68 101  84 101  86 100
M  END
> <chiral flag>
0

> <version>
0

> <s_m_source_file>
/data/baiqing/PycharmProjects/Reinvent-master-3.2/result/LINK_invent/BTK/process_docking_weight1_custom_sum_contain_oxygen_bond_distance_aromatic_linkinvent_7_9_3/rearranged_h_0107.sdf

> <i_m_source_file_index>
82

> <r_mmod_Potential_Energy-OPLS-2005>
-288.586242675781

> <r_mmod_Stretch_Energy-OPLS-2005>
136.077285766602

> <r_mmod_Bend_Energy-OPLS-2005>
178.248229980469

> <r_mmod_Torsional_Energy-OPLS-2005>
285.684875488281

> <r_mmod_Improper_Torsional_Energy-OPLS-2005>
9.98919296264648

> <r_mmod_Van_der_Waal_Energy-OPLS-2005>
141.955856323242

> <r_mmod_Electrostatic_Energy-OPLS-2005>
-115.584838867188

> <r_mmod_Solvation_Energy-OPLS-2005>
-1015.10620117188

> <b_mmod_Minimization_Converged-OPLS-2005>
0

> <r_mmod_RMS_Derivative-OPLS-2005>
1.84372568130493

$$$$
84
                    3D
 Structure written by MMmdl.
155162  0  0  1  0            999 V2000
  -30.6452  -14.6523   20.5101 C   0  0  0  0  0  0
  -30.4364  -12.4066   19.4592 C   0  0  0  0  0  0
  -29.5080  -12.4964   18.2290 C   0  0  0  0  0  0
  -28.0314  -12.3399   18.6400 C   0  0  0  0  0  0
  -27.6503  -13.2205   19.8595 C   0  0  2  0  0  0
  -28.6944  -13.1042   20.9905 C   0  0  0  0  0  0
  -25.2542  -13.8177   20.5669 C   0  0  0  0  0  0
  -24.1813  -13.0438   20.9178 C   0  0  0  0  0  0
  -24.6377  -11.6909   20.8724 C   0  0  0  0  0  0
  -23.9043  -10.4303   21.0389 C   0  0  0  0  0  0
  -24.3596   -9.4225   21.9166 C   0  0  0  0  0  0
  -23.6282   -8.2249   22.0744 C   0  0  0  0  0  0
  -22.4265   -8.0269   21.3531 C   0  0  0  0  0  0
  -21.9904   -9.0234   20.4627 C   0  0  0  0  0  0
  -22.7219  -10.2120   20.3043 C   0  0  0  0  0  0
  -21.6858   -6.0710   22.5259 C   0  0  0  0  0  0
  -21.4014   -6.5623   23.8186 C   0  0  0  0  0  0
  -21.3668   -5.6785   24.9151 C   0  0  0  0  0  0
  -21.6054   -4.3049   24.7208 C   0  0  0  0  0  0
  -21.8831   -3.8129   23.4335 C   0  0  0  0  0  0
  -21.9200   -4.6941   22.3392 C   0  0  0  0  0  0
  -22.7831  -13.5233   21.1838 C   0  0  0  0  0  0
  -22.1668   -4.2131   21.0969 F   0  0  0  0  0  0
  -21.5639   -3.4543   25.7724 F   0  0  0  0  0  0
  -30.0042  -13.4428   20.4186 N   0  0  0  0  0  0
  -26.2964  -12.9359   20.3296 N   0  0  0  0  0  0
  -25.9312  -11.6505   20.5745 N   0  0  0  0  0  0
  -22.0482  -12.8209   22.0385 N   0  0  0  0  0  0
  -25.4293  -15.1892   20.4051 N   0  0  0  0  0  0
  -31.8175  -14.7798   20.1487 O   0  0  0  0  0  0
  -21.6638   -6.8845   21.4219 O   0  0  0  0  0  0
  -22.3535  -14.5543   20.6693 O   0  0  0  0  0  0
  -24.6254  -31.8576   23.2013 C   0  0  0  0  0  0
  -25.9098  -32.4772   23.8331 C   0  0  1  0  0  0
  -27.2195  -27.3196   20.1361 C   0  0  0  0  0  0
  -25.5921  -33.8574   24.2262 N   0  0  0  0  0  0
  -23.4190  -30.4777   21.5441 C   0  0  2  0  0  0
  -24.8667  -28.9315   20.1127 C   0  0  0  0  0  0
  -22.7464  -29.4582   22.4939 C   0  0  0  0  0  0
  -18.0274  -28.1374   22.8433 C   0  0  0  0  0  0
  -24.1502  -36.7295   23.2639 C   0  0  0  0  0  0
  -25.9564  -30.7946   21.3662 C   0  0  0  0  0  0
  -26.0336  -29.4190   20.7142 C   0  0  0  0  0  0
  -27.2177  -28.6255   20.7136 C   0  0  0  0  0  0
  -26.0384  -26.8827   19.5045 C   0  0  0  0  0  0
  -24.8700  -27.6712   19.4948 C   0  0  0  0  0  0
  -23.6346  -29.8119   20.1588 C   0  0  0  0  0  0
  -25.4117  -36.3070   24.0330 C   0  0  1  0  0  0
  -20.5892  -28.3653   23.1300 C   0  0  2  0  0  0
  -20.6776  -26.9383   22.5408 C   0  0  0  0  0  0
  -19.5759  -26.6381   21.5200 C   0  0  0  0  0  0
  -18.1926  -26.7906   22.1602 C   0  0  0  0  0  0
  -19.1539  -28.8824   23.2855 C   0  0  0  0  0  0
  -18.9456  -30.1430   23.8859 C   0  0  0  0  0  0
  -17.6466  -30.6564   24.0547 C   0  0  0  0  0  0
  -25.9064  -34.9444   23.5093 C   0  0  0  0  0  0
  -16.5346  -29.9055   23.6360 C   0  0  0  0  0  0
  -16.7270  -28.6506   23.0314 C   0  0  0  0  0  0
  -26.4492  -31.6562   25.0679 C   0  0  0  0  0  0
  -25.3748  -31.3673   26.1414 C   0  0  0  0  0  0
  -27.0326  -30.3003   24.6075 C   0  0  0  0  0  0
  -27.6056  -32.4285   25.7449 C   0  0  0  0  0  0
  -27.5568  -37.1790   24.8457 C   0  0  0  0  0  0
  -21.4187  -29.3016   22.3682 N   0  0  0  0  0  0
  -26.4275  -37.3776   23.9413 N   0  0  0  0  0  0
  -24.6861  -31.0584   22.0959 N   0  0  0  0  0  0
  -23.4184  -28.8099   23.3012 O   0  0  0  0  0  0
  -28.3272  -26.4661   20.1545 O   0  0  0  0  0  0
  -26.5628  -34.8903   22.4650 O   0  0  0  0  0  0
  -23.5428  -32.1365   23.7348 O   0  0  0  0  0  0
  -28.6605  -25.3260   22.2312 C   0  0  0  0  0  0
  -29.0548  -21.0806   20.1406 C   0  0  0  0  0  0
  -29.7284  -19.8478   20.9036 C   0  0  0  0  0  0
  -28.9509  -22.4864   20.8974 C   0  0  0  0  0  0
  -29.4259  -18.3488   20.4374 C   0  0  0  0  0  0
  -28.8108  -23.8585   20.0794 C   0  0  0  0  0  0
  -30.3349  -17.1812   21.0350 C   0  0  0  0  0  0
  -28.1602  -25.1386   20.7923 C   0  0  2  0  0  0
  -29.8919  -15.7478   20.8514 N   0  0  0  0  0  0
  -31.4752  -12.5346   19.1486 H   0  0  0  0  0  0
  -30.3805  -11.4188   19.9186 H   0  0  0  0  0  0
  -29.7743  -11.7279   17.5024 H   0  0  0  0  0  0
  -29.6520  -13.4531   17.7258 H   0  0  0  0  0  0
  -27.8659  -11.2908   18.8781 H   0  0  0  0  0  0
  -27.3795  -12.5614   17.7941 H   0  0  0  0  0  0
  -27.6632  -14.2516   19.5075 H   0  0  0  0  0  0
  -28.7126  -12.0944   21.4002 H   0  0  0  0  0  0
  -28.4373  -13.7607   21.8232 H   0  0  0  0  0  0
  -25.2740   -9.5711   22.4737 H   0  0  0  0  0  0
  -23.9998   -7.4653   22.7482 H   0  0  0  0  0  0
  -21.0834   -8.8727   19.8935 H   0  0  0  0  0  0
  -22.3656  -10.9638   19.6145 H   0  0  0  0  0  0
  -21.2002   -7.6132   23.9682 H   0  0  0  0  0  0
  -21.1485   -6.0509   25.9049 H   0  0  0  0  0  0
  -22.0611   -2.7594   23.2835 H   0  0  0  0  0  0
  -22.4107  -11.9851   22.4743 H   0  0  0  0  0  0
  -21.1087  -13.1182   22.2590 H   0  0  0  0  0  0
  -24.6679  -15.8520   20.5069 H   0  0  0  0  0  0
  -26.2806  -15.6158   20.0610 H   0  0  0  0  0  0
  -26.7123  -32.5458   23.1039 H   0  0  0  0  0  0
  -25.0066  -33.9715   25.0406 H   0  0  0  0  0  0
  -22.7135  -31.2962   21.3984 H   0  0  0  0  0  0
  -23.3752  -35.9647   23.3307 H   0  0  0  0  0  0
  -24.3581  -36.8928   22.2054 H   0  0  0  0  0  0
  -23.7280  -37.6504   23.6663 H   0  0  0  0  0  0
  -26.0750  -31.5580   20.5974 H   0  0  0  0  0  0
  -26.8402  -30.8529   21.9885 H   0  0  0  0  0  0
  -28.1173  -28.9925   21.1909 H   0  0  0  0  0  0
  -26.0120  -25.9118   19.0304 H   0  0  0  0  0  0
  -23.9766  -27.2929   19.0189 H   0  0  0  0  0  0
  -23.7554  -30.5886   19.4023 H   0  0  0  0  0  0
  -22.7562  -29.2388   19.8582 H   0  0  0  0  0  0
  -25.1314  -36.1892   25.0830 H   0  0  0  0  0  0
  -20.9947  -28.3188   24.1446 H   0  0  0  0  0  0
  -20.5717  -26.2227   23.3578 H   0  0  0  0  0  0
  -21.6631  -26.7452   22.1161 H   0  0  0  0  0  0
  -19.6949  -25.6314   21.1187 H   0  0  0  0  0  0
  -19.6707  -27.3228   20.6760 H   0  0  0  0  0  0
  -17.4211  -26.6643   21.3989 H   0  0  0  0  0  0
  -18.0280  -26.0082   22.9025 H   0  0  0  0  0  0
  -19.7956  -30.7229   24.2193 H   0  0  0  0  0  0
  -17.5050  -31.6258   24.5124 H   0  0  0  0  0  0
  -15.5342  -30.2929   23.7744 H   0  0  0  0  0  0
  -15.8674  -28.0835   22.6998 H   0  0  0  0  0  0
  -24.5962  -30.6978   25.7744 H   0  0  0  0  0  0
  -24.8888  -32.2836   26.4805 H   0  0  0  0  0  0
  -25.8112  -30.8883   27.0191 H   0  0  0  0  0  0
  -26.2880  -29.6739   24.1158 H   0  0  0  0  0  0
  -27.4146  -29.7257   25.4519 H   0  0  0  0  0  0
  -27.8688  -30.4317   23.9202 H   0  0  0  0  0  0
  -27.2689  -33.3606   26.1971 H   0  0  0  0  0  0
  -28.3886  -32.6794   25.0292 H   0  0  0  0  0  0
  -28.0680  -31.8433   26.5403 H   0  0  0  0  0  0
  -28.2559  -38.0105   24.7534 H   0  0  0  0  0  0
  -28.1092  -36.2647   24.6264 H   0  0  0  0  0  0
  -27.2286  -37.1430   25.8855 H   0  0  0  0  0  0
  -20.9333  -29.8769   21.6923 H   0  0  0  0  0  0
  -26.0155  -38.2835   24.1468 H   0  0  0  0  0  0
  -28.5167  -24.4252   22.8274 H   0  0  0  0  0  0
  -28.1125  -26.1224   22.7347 H   0  0  0  0  0  0
  -29.7189  -25.5852   22.2535 H   0  0  0  0  0  0
  -28.0431  -20.7904   19.8577 H   0  0  0  0  0  0
  -29.5806  -21.2225   19.1932 H   0  0  0  0  0  0
  -29.4715  -19.9243   21.9605 H   0  0  0  0  0  0
  -30.8078  -20.0018   20.8675 H   0  0  0  0  0  0
  -29.8271  -22.5854   21.5405 H   0  0  0  0  0  0
  -28.1052  -22.4126   21.5811 H   0  0  0  0  0  0
  -29.4945  -18.2991   19.3496 H   0  0  0  0  0  0
  -28.3827  -18.1383   20.6785 H   0  0  0  0  0  0
  -28.2327  -23.6660   19.1751 H   0  0  0  0  0  0
  -29.8028  -24.1409   19.7243 H   0  0  0  0  0  0
  -30.4292  -17.3374   22.1103 H   0  0  0  0  0  0
  -31.3485  -17.3013   20.6478 H   0  0  0  0  0  0
  -27.0973  -24.9136   20.8757 H   0  0  0  0  0  0
  -28.9316  -15.5475   21.0904 H   0  0  0  0  0  0
  1 25  1  0  0  0
  1 30  2  0  0  0
  1 79  1  0  0  0
  2  3  1  0  0  0
  2 25  1  0  0  0
  2 80  1  0  0  0
  2 81  1  0  0  0
  3  4  1  0  0  0
  3 82  1  0  0  0
  3 83  1  0  0  0
  4  5  1  0  0  0
  4 84  1  0  0  0
  4 85  1  0  0  0
  5  6  1  0  0  0
  5 26  1  0  0  0
  5 86  1  0  0  0
  6 25  1  0  0  0
  6 87  1  0  0  0
  6 88  1  0  0  0
  7  8  2  0  0  0
  7 26  1  0  0  0
  7 29  1  0  0  0
  8  9  1  0  0  0
  8 22  1  0  0  0
  9 10  1  0  0  0
  9 27  2  0  0  0
 10 11  2  0  0  0
 10 15  1  0  0  0
 11 12  1  0  0  0
 11 89  1  0  0  0
 12 13  2  0  0  0
 12 90  1  0  0  0
 13 14  1  0  0  0
 13 31  1  0  0  0
 14 15  2  0  0  0
 14 91  1  0  0  0
 15 92  1  0  0  0
 16 17  2  0  0  0
 16 21  1  0  0  0
 16 31  1  0  0  0
 17 18  1  0  0  0
 17 93  1  0  0  0
 18 19  2  0  0  0
 18 94  1  0  0  0
 19 20  1  0  0  0
 19 24  1  0  0  0
 20 21  2  0  0  0
 20 95  1  0  0  0
 21 23  1  0  0  0
 22 28  1  0  0  0
 22 32  2  0  0  0
 26 27  1  0  0  0
 28 96  1  0  0  0
 28 97  1  0  0  0
 29 98  1  0  0  0
 29 99  1  0  0  0
 33 34  1  0  0  0
 33 66  1  0  0  0
 33 70  2  0  0  0
 34 36  1  0  0  0
 34 59  1  0  0  0
 34100  1  0  0  0
 35 44  2  0  0  0
 35 45  1  0  0  0
 35 68  1  0  0  0
 36 56  1  0  0  0
 36101  1  0  0  0
 37 39  1  0  0  0
 37 47  1  0  0  0
 37 66  1  0  0  0
 37102  1  0  0  0
 38 43  2  0  0  0
 38 46  1  0  0  0
 38 47  1  0  0  0
 39 64  1  0  0  0
 39 67  2  0  0  0
 40 52  1  0  0  0
 40 53  2  0  0  0
 40 58  1  0  0  0
 41103  1  0  0  0
 41104  1  0  0  0
 41105  1  0  0  0
 41 48  1  0  0  0
 42 43  1  0  0  0
 42 66  1  0  0  0
 42106  1  0  0  0
 42107  1  0  0  0
 43 44  1  0  0  0
 44108  1  0  0  0
 45 46  2  0  0  0
 45109  1  0  0  0
 46110  1  0  0  0
 47111  1  0  0  0
 47112  1  0  0  0
 48 56  1  0  0  0
 48 65  1  0  0  0
 48113  1  0  0  0
 49 50  1  0  0  0
 49 53  1  0  0  0
 49 64  1  0  0  0
 49114  1  0  0  0
 50 51  1  0  0  0
 50115  1  0  0  0
 50116  1  0  0  0
 51 52  1  0  0  0
 51117  1  0  0  0
 51118  1  0  0  0
 52119  1  0  0  0
 52120  1  0  0  0
 53 54  1  0  0  0
 54 55  2  0  0  0
 54121  1  0  0  0
 55 57  1  0  0  0
 55122  1  0  0  0
 56 69  2  0  0  0
 57 58  2  0  0  0
 57123  1  0  0  0
 58124  1  0  0  0
 59 60  1  0  0  0
 59 61  1  0  0  0
 59 62  1  0  0  0
 60125  1  0  0  0
 60126  1  0  0  0
 60127  1  0  0  0
 61128  1  0  0  0
 61129  1  0  0  0
 61130  1  0  0  0
 62131  1  0  0  0
 62132  1  0  0  0
 62133  1  0  0  0
 63 65  1  0  0  0
 63134  1  0  0  0
 63135  1  0  0  0
 63136  1  0  0  0
 64137  1  0  0  0
 65138  1  0  0  0
 68 78  1  0  0  0
 71139  1  0  0  0
 71140  1  0  0  0
 71141  1  0  0  0
 71 78  1  0  0  0
 72 73  1  0  0  0
 72 74  1  0  0  0
 72142  1  0  0  0
 72143  1  0  0  0
 73 75  1  0  0  0
 73144  1  0  0  0
 73145  1  0  0  0
 74 76  1  0  0  0
 74146  1  0  0  0
 74147  1  0  0  0
 75 77  1  0  0  0
 75148  1  0  0  0
 75149  1  0  0  0
 76 78  1  0  0  0
 76150  1  0  0  0
 76151  1  0  0  0
 77 79  1  0  0  0
 77152  1  0  0  0
 77153  1  0  0  0
 78154  1  0  0  0
 79155  1  0  0  0
M  ISO  4   1 100  68 101  78 101  79 100
M  END
> <chiral flag>
0

> <version>
0

> <s_m_source_file>
/data/baiqing/PycharmProjects/Reinvent-master-3.2/result/LINK_invent/BTK/process_docking_weight1_custom_sum_contain_oxygen_bond_distance_aromatic_linkinvent_7_9_3/rearranged_h_0107.sdf

> <i_m_source_file_index>
83

> <r_mmod_Potential_Energy-OPLS-2005>
58.4643783569336

> <r_mmod_Stretch_Energy-OPLS-2005>
85.464714050293

> <r_mmod_Bend_Energy-OPLS-2005>
133.252960205078

> <r_mmod_Torsional_Energy-OPLS-2005>
230.735488891602

> <r_mmod_Improper_Torsional_Energy-OPLS-2005>
3.69085192680359

> <r_mmod_Van_der_Waal_Energy-OPLS-2005>
118.525039672852

> <r_mmod_Electrostatic_Energy-OPLS-2005>
-367.426605224609

> <r_mmod_Solvation_Energy-OPLS-2005>
-197.044998168945

> <b_mmod_Minimization_Converged-OPLS-2005>
0

> <r_mmod_RMS_Derivative-OPLS-2005>
3.73361563682556

$$$$
85
                    3D
 Structure written by MMmdl.
167174  0  0  1  0            999 V2000
  -30.6449  -14.6679   20.5403 C   0  0  0  0  0  0
  -30.4317  -12.4202   19.4667 C   0  0  0  0  0  0
  -29.5086  -12.5185   18.2321 C   0  0  0  0  0  0
  -28.0320  -12.3506   18.6395 C   0  0  0  0  0  0
  -27.6498  -13.2251   19.8622 C   0  0  2  0  0  0
  -28.6891  -13.0970   20.9951 C   0  0  0  0  0  0
  -25.2541  -13.8186   20.5692 C   0  0  0  0  0  0
  -24.1814  -13.0438   20.9178 C   0  0  0  0  0  0
  -24.6393  -11.6914   20.8723 C   0  0  0  0  0  0
  -23.9066  -10.4293   21.0394 C   0  0  0  0  0  0
  -24.3617   -9.4213   21.9176 C   0  0  0  0  0  0
  -23.6291   -8.2249   22.0752 C   0  0  0  0  0  0
  -22.4275   -8.0283   21.3545 C   0  0  0  0  0  0
  -21.9908   -9.0254   20.4646 C   0  0  0  0  0  0
  -22.7235  -10.2134   20.3049 C   0  0  0  0  0  0
  -21.6858   -6.0731   22.5277 C   0  0  0  0  0  0
  -21.4017   -6.5634   23.8209 C   0  0  0  0  0  0
  -21.3662   -5.6788   24.9172 C   0  0  0  0  0  0
  -21.6047   -4.3050   24.7225 C   0  0  0  0  0  0
  -21.8821   -3.8142   23.4346 C   0  0  0  0  0  0
  -21.9196   -4.6956   22.3401 C   0  0  0  0  0  0
  -22.7837  -13.5224   21.1851 C   0  0  0  0  0  0
  -22.1662   -4.2141   21.0978 F   0  0  0  0  0  0
  -21.5632   -3.4536   25.7739 F   0  0  0  0  0  0
  -30.0036  -13.4527   20.4384 N   0  0  0  0  0  0
  -26.2970  -12.9383   20.3309 N   0  0  0  0  0  0
  -25.9324  -11.6528   20.5741 N   0  0  0  0  0  0
  -22.0493  -12.8207   22.0413 N   0  0  0  0  0  0
  -25.4261  -15.1908   20.4139 N   0  0  0  0  0  0
  -31.7760  -14.8129   20.0645 O   0  0  0  0  0  0
  -21.6644   -6.8875   21.4240 O   0  0  0  0  0  0
  -22.3515  -14.5529   20.6706 O   0  0  0  0  0  0
  -24.6274  -31.8588   23.2031 C   0  0  0  0  0  0
  -25.9119  -32.4771   23.8361 C   0  0  1  0  0  0
  -27.2125  -27.2910   20.1356 C   0  0  0  0  0  0
  -25.5931  -33.8573   24.2283 N   0  0  0  0  0  0
  -23.4229  -30.4826   21.5452 C   0  0  2  0  0  0
  -24.8713  -28.9369   20.1100 C   0  0  0  0  0  0
  -22.7485  -29.4615   22.4927 C   0  0  0  0  0  0
  -18.0288  -28.1387   22.8484 C   0  0  0  0  0  0
  -24.1490  -36.7291   23.2639 C   0  0  0  0  0  0
  -25.9661  -30.7782   21.3833 C   0  0  0  0  0  0
  -26.0385  -29.4022   20.7304 C   0  0  0  0  0  0
  -27.2134  -28.5883   20.7408 C   0  0  0  0  0  0
  -26.0432  -26.9114   19.4435 C   0  0  0  0  0  0
  -24.8760  -27.6962   19.4562 C   0  0  0  0  0  0
  -23.6404  -29.8196   20.1598 C   0  0  0  0  0  0
  -25.4115  -36.3079   24.0330 C   0  0  1  0  0  0
  -20.5889  -28.3694   23.1276 C   0  0  2  0  0  0
  -20.6777  -26.9416   22.5408 C   0  0  0  0  0  0
  -19.5753  -26.6385   21.5210 C   0  0  0  0  0  0
  -18.1933  -26.7929   22.1623 C   0  0  0  0  0  0
  -19.1541  -28.8857   23.2875 C   0  0  0  0  0  0
  -18.9464  -30.1457   23.8895 C   0  0  0  0  0  0
  -17.6465  -30.6589   24.0562 C   0  0  0  0  0  0
  -25.9053  -34.9447   23.5105 C   0  0  0  0  0  0
  -16.5355  -29.9087   23.6332 C   0  0  0  0  0  0
  -16.7275  -28.6504   23.0352 C   0  0  0  0  0  0
  -26.4499  -31.6583   25.0735 C   0  0  0  0  0  0
  -25.3727  -31.3729   26.1459 C   0  0  0  0  0  0
  -27.0345  -30.3000   24.6209 C   0  0  0  0  0  0
  -27.6054  -32.4323   25.7507 C   0  0  0  0  0  0
  -27.5579  -37.1802   24.8465 C   0  0  0  0  0  0
  -21.4197  -29.3045   22.3669 N   0  0  0  0  0  0
  -26.4292  -37.3774   23.9407 N   0  0  0  0  0  0
  -24.6906  -31.0576   22.1001 N   0  0  0  0  0  0
  -23.4197  -28.8149   23.3011 O   0  0  0  0  0  0
  -28.3008  -26.3966   20.1450 O   0  0  0  0  0  0
  -26.5619  -34.8912   22.4671 O   0  0  0  0  0  0
  -23.5432  -32.1405   23.7340 O   0  0  0  0  0  0
  -29.6113  -16.8605   18.7393 C   0  0  0  0  0  0
  -26.7892  -24.5664   21.1480 C   0  0  0  0  0  0
  -28.8272  -25.4513   22.2334 C   0  0  0  0  0  0
  -29.8428  -15.9104   22.4674 C   0  0  0  0  0  0
  -27.8551  -22.1899   18.9354 C   0  0  0  0  0  0
  -29.0478  -19.7624   20.2606 C   0  0  0  0  0  0
  -29.9103  -18.4879   20.7420 C   0  0  0  0  0  0
  -29.5345  -21.2785   20.5431 C   0  0  0  0  0  0
  -29.1265  -23.8758   20.2442 C   0  0  0  0  0  0
  -29.4473  -17.0123   20.2651 C   0  0  2  0  0  0
  -28.2266  -25.0758   20.8669 C   0  0  0  0  0  0
  -29.9293  -15.7622   21.0124 N   0  0  0  0  0  0
  -28.5751  -22.4360   20.2103 N   0  3  1  0  0  0
  -31.4742  -12.5372   19.1661 H   0  0  0  0  0  0
  -30.3659  -11.4287   19.9176 H   0  0  0  0  0  0
  -29.7813  -11.7611   17.4958 H   0  0  0  0  0  0
  -29.6480  -13.4845   17.7445 H   0  0  0  0  0  0
  -27.8728  -11.2979   18.8758 H   0  0  0  0  0  0
  -27.3784  -12.5753   17.7959 H   0  0  0  0  0  0
  -27.6638  -14.2598   19.5195 H   0  0  0  0  0  0
  -28.7081  -12.0798   21.3888 H   0  0  0  0  0  0
  -28.4063  -13.7339   21.8316 H   0  0  0  0  0  0
  -25.2763   -9.5690   22.4747 H   0  0  0  0  0  0
  -24.0005   -7.4641   22.7468 H   0  0  0  0  0  0
  -21.0843   -8.8770   19.8947 H   0  0  0  0  0  0
  -22.3694  -10.9670   19.6156 H   0  0  0  0  0  0
  -21.2009   -7.6143   23.9709 H   0  0  0  0  0  0
  -21.1483   -6.0518   25.9074 H   0  0  0  0  0  0
  -22.0598   -2.7603   23.2850 H   0  0  0  0  0  0
  -22.4118  -11.9863   22.4783 H   0  0  0  0  0  0
  -21.1113  -13.1228   22.2637 H   0  0  0  0  0  0
  -24.6645  -15.8498   20.5311 H   0  0  0  0  0  0
  -26.2881  -15.6289   20.1157 H   0  0  0  0  0  0
  -26.7183  -32.5435   23.1104 H   0  0  0  0  0  0
  -25.0078  -33.9721   25.0426 H   0  0  0  0  0  0
  -22.7174  -31.3036   21.4017 H   0  0  0  0  0  0
  -23.3750  -35.9626   23.3302 H   0  0  0  0  0  0
  -24.3580  -36.8911   22.2053 H   0  0  0  0  0  0
  -23.7248  -37.6495   23.6660 H   0  0  0  0  0  0
  -26.1024  -31.5380   20.6125 H   0  0  0  0  0  0
  -26.8447  -30.8277   22.0146 H   0  0  0  0  0  0
  -28.1055  -28.9357   21.2429 H   0  0  0  0  0  0
  -26.0197  -25.9784   18.9006 H   0  0  0  0  0  0
  -23.9900  -27.3443   18.9456 H   0  0  0  0  0  0
  -23.7618  -30.5974   19.4050 H   0  0  0  0  0  0
  -22.7600  -29.2509   19.8554 H   0  0  0  0  0  0
  -25.1296  -36.1932   25.0824 H   0  0  0  0  0  0
  -20.9978  -28.3270   24.1398 H   0  0  0  0  0  0
  -20.5677  -26.2306   23.3610 H   0  0  0  0  0  0
  -21.6646  -26.7444   22.1202 H   0  0  0  0  0  0
  -19.6917  -25.6295   21.1244 H   0  0  0  0  0  0
  -19.6692  -27.3191   20.6738 H   0  0  0  0  0  0
  -17.4202  -26.6673   21.4025 H   0  0  0  0  0  0
  -18.0334  -26.0072   22.9021 H   0  0  0  0  0  0
  -19.7941  -30.7271   24.2264 H   0  0  0  0  0  0
  -17.5021  -31.6269   24.5165 H   0  0  0  0  0  0
  -15.5356  -30.2988   23.7660 H   0  0  0  0  0  0
  -15.8673  -28.0823   22.7071 H   0  0  0  0  0  0
  -24.5903  -30.7076   25.7790 H   0  0  0  0  0  0
  -24.8917  -32.2897   26.4876 H   0  0  0  0  0  0
  -25.8047  -30.8914   27.0241 H   0  0  0  0  0  0
  -26.2930  -29.6748   24.1220 H   0  0  0  0  0  0
  -27.4016  -29.7260   25.4728 H   0  0  0  0  0  0
  -27.8814  -30.4275   23.9461 H   0  0  0  0  0  0
  -27.2660  -33.3622   26.2081 H   0  0  0  0  0  0
  -28.3864  -32.6885   25.0335 H   0  0  0  0  0  0
  -28.0721  -31.8452   26.5427 H   0  0  0  0  0  0
  -28.2596  -38.0098   24.7504 H   0  0  0  0  0  0
  -28.1074  -36.2629   24.6299 H   0  0  0  0  0  0
  -27.2295  -37.1459   25.8867 H   0  0  0  0  0  0
  -20.9377  -29.8776   21.6885 H   0  0  0  0  0  0
  -26.0174  -38.2852   24.1400 H   0  0  0  0  0  0
  -29.0941  -17.6515   18.1978 H   0  0  0  0  0  0
  -29.1952  -15.9190   18.3797 H   0  0  0  0  0  0
  -30.6609  -16.8972   18.4450 H   0  0  0  0  0  0
  -26.7968  -23.6970   21.8049 H   0  0  0  0  0  0
  -26.2568  -24.2781   20.2451 H   0  0  0  0  0  0
  -26.1866  -25.3145   21.6635 H   0  0  0  0  0  0
  -28.8639  -24.5937   22.9058 H   0  0  0  0  0  0
  -28.2425  -26.2294   22.7252 H   0  0  0  0  0  0
  -29.8437  -25.8302   22.1266 H   0  0  0  0  0  0
  -30.6423  -16.5584   22.8280 H   0  0  0  0  0  0
  -29.9428  -14.9613   22.9971 H   0  0  0  0  0  0
  -28.8865  -16.3468   22.7578 H   0  0  0  0  0  0
  -27.1977  -21.3237   19.0098 H   0  0  0  0  0  0
  -28.5588  -22.0153   18.1208 H   0  0  0  0  0  0
  -27.2326  -23.0361   18.6483 H   0  0  0  0  0  0
  -28.0502  -19.6470   20.6856 H   0  0  0  0  0  0
  -28.9142  -19.6684   19.1841 H   0  0  0  0  0  0
  -29.9274  -18.5256   21.8307 H   0  0  0  0  0  0
  -30.9473  -18.6338   20.4371 H   0  0  0  0  0  0
  -30.4591  -21.4402   19.9875 H   0  0  0  0  0  0
  -29.8034  -21.3718   21.5959 H   0  0  0  0  0  0
  -30.0807  -23.8484   20.7717 H   0  0  0  0  0  0
  -29.4054  -24.1555   19.2276 H   0  0  0  0  0  0
  -28.3703  -16.9899   20.4390 H   0  0  0  0  0  0
  -27.8702  -22.4045   20.9333 H   0  0  0  0  0  0
  1 25  1  0  0  0
  1 30  2  0  0  0
  1 82  1  0  0  0
  2  3  1  0  0  0
  2 25  1  0  0  0
  2 84  1  0  0  0
  2 85  1  0  0  0
  3  4  1  0  0  0
  3 86  1  0  0  0
  3 87  1  0  0  0
  4  5  1  0  0  0
  4 88  1  0  0  0
  4 89  1  0  0  0
  5  6  1  0  0  0
  5 26  1  0  0  0
  5 90  1  0  0  0
  6 25  1  0  0  0
  6 91  1  0  0  0
  6 92  1  0  0  0
  7  8  2  0  0  0
  7 26  1  0  0  0
  7 29  1  0  0  0
  8  9  1  0  0  0
  8 22  1  0  0  0
  9 10  1  0  0  0
  9 27  2  0  0  0
 10 11  2  0  0  0
 10 15  1  0  0  0
 11 12  1  0  0  0
 11 93  1  0  0  0
 12 13  2  0  0  0
 12 94  1  0  0  0
 13 14  1  0  0  0
 13 31  1  0  0  0
 14 15  2  0  0  0
 14 95  1  0  0  0
 15 96  1  0  0  0
 16 17  2  0  0  0
 16 21  1  0  0  0
 16 31  1  0  0  0
 17 18  1  0  0  0
 17 97  1  0  0  0
 18 19  2  0  0  0
 18 98  1  0  0  0
 19 20  1  0  0  0
 19 24  1  0  0  0
 20 21  2  0  0  0
 20 99  1  0  0  0
 21 23  1  0  0  0
 22 28  1  0  0  0
 22 32  2  0  0  0
 26 27  1  0  0  0
 28100  1  0  0  0
 28101  1  0  0  0
 29102  1  0  0  0
 29103  1  0  0  0
 33 34  1  0  0  0
 33 66  1  0  0  0
 33 70  2  0  0  0
 34 36  1  0  0  0
 34 59  1  0  0  0
 34104  1  0  0  0
 35 44  2  0  0  0
 35 45  1  0  0  0
 35 68  1  0  0  0
 36 56  1  0  0  0
 36105  1  0  0  0
 37 39  1  0  0  0
 37 47  1  0  0  0
 37 66  1  0  0  0
 37106  1  0  0  0
 38 43  2  0  0  0
 38 46  1  0  0  0
 38 47  1  0  0  0
 39 64  1  0  0  0
 39 67  2  0  0  0
 40 52  1  0  0  0
 40 53  2  0  0  0
 40 58  1  0  0  0
 41107  1  0  0  0
 41108  1  0  0  0
 41109  1  0  0  0
 41 48  1  0  0  0
 42 43  1  0  0  0
 42 66  1  0  0  0
 42110  1  0  0  0
 42111  1  0  0  0
 43 44  1  0  0  0
 44112  1  0  0  0
 45 46  2  0  0  0
 45113  1  0  0  0
 46114  1  0  0  0
 47115  1  0  0  0
 47116  1  0  0  0
 48 56  1  0  0  0
 48 65  1  0  0  0
 48117  1  0  0  0
 49 50  1  0  0  0
 49 53  1  0  0  0
 49 64  1  0  0  0
 49118  1  0  0  0
 50 51  1  0  0  0
 50119  1  0  0  0
 50120  1  0  0  0
 51 52  1  0  0  0
 51121  1  0  0  0
 51122  1  0  0  0
 52123  1  0  0  0
 52124  1  0  0  0
 53 54  1  0  0  0
 54 55  2  0  0  0
 54125  1  0  0  0
 55 57  1  0  0  0
 55126  1  0  0  0
 56 69  2  0  0  0
 57 58  2  0  0  0
 57127  1  0  0  0
 58128  1  0  0  0
 59 60  1  0  0  0
 59 61  1  0  0  0
 59 62  1  0  0  0
 60129  1  0  0  0
 60130  1  0  0  0
 60131  1  0  0  0
 61132  1  0  0  0
 61133  1  0  0  0
 61134  1  0  0  0
 62135  1  0  0  0
 62136  1  0  0  0
 62137  1  0  0  0
 63 65  1  0  0  0
 63138  1  0  0  0
 63139  1  0  0  0
 63140  1  0  0  0
 64141  1  0  0  0
 65142  1  0  0  0
 68 81  1  0  0  0
 71143  1  0  0  0
 71144  1  0  0  0
 71145  1  0  0  0
 71 80  1  0  0  0
 72146  1  0  0  0
 72147  1  0  0  0
 72148  1  0  0  0
 72 81  1  0  0  0
 73 81  1  0  0  0
 73149  1  0  0  0
 73150  1  0  0  0
 73151  1  0  0  0
 74 82  1  0  0  0
 74152  1  0  0  0
 74153  1  0  0  0
 74154  1  0  0  0
 75155  1  0  0  0
 75156  1  0  0  0
 75157  1  0  0  0
 75 83  1  0  0  0
 76 77  1  0  0  0
 76 78  1  0  0  0
 76158  1  0  0  0
 76159  1  0  0  0
 77 80  1  0  0  0
 77160  1  0  0  0
 77161  1  0  0  0
 78 83  1  0  0  0
 78162  1  0  0  0
 78163  1  0  0  0
 79 81  1  0  0  0
 79 83  1  0  0  0
 79164  1  0  0  0
 79165  1  0  0  0
 80 82  1  0  0  0
 80166  1  0  0  0
 83167  1  0  0  0
M  CHG  1  83   1
M  ISO  4   1 100  68 101  81 101  82 100
M  END
> <chiral flag>
0

> <version>
0

> <s_m_source_file>
/data/baiqing/PycharmProjects/Reinvent-master-3.2/result/LINK_invent/BTK/process_docking_weight1_custom_sum_contain_oxygen_bond_distance_aromatic_linkinvent_7_9_3/rearranged_h_0107.sdf

> <i_m_source_file_index>
84

> <r_mmod_Potential_Energy-OPLS-2005>
268.752349853516

> <r_mmod_Stretch_Energy-OPLS-2005>
121.06470489502

> <r_mmod_Bend_Energy-OPLS-2005>
171.548629760742

> <r_mmod_Torsional_Energy-OPLS-2005>
351.694610595703

> <r_mmod_Improper_Torsional_Energy-OPLS-2005>
4.3610200881958

> <r_mmod_Van_der_Waal_Energy-OPLS-2005>
129.026718139648

> <r_mmod_Electrostatic_Energy-OPLS-2005>
-165.622787475586

> <r_mmod_Solvation_Energy-OPLS-2005>
-403.19091796875

> <b_mmod_Minimization_Converged-OPLS-2005>
0

> <r_mmod_RMS_Derivative-OPLS-2005>
0.435855269432068

$$$$
86
                    3D
 Structure written by MMmdl.
155162  0  0  1  0            999 V2000
  -30.3440  -15.5564   20.3343 C   0  0  0  0  0  0
  -30.4282  -13.0237   19.5246 C   0  0  0  0  0  0
  -29.5440  -12.6372   18.3076 C   0  0  0  0  0  0
  -28.1101  -12.3033   18.7484 C   0  0  0  0  0  0
  -27.5996  -13.3016   19.8129 C   0  0  2  0  0  0
  -28.6268  -13.6046   20.9286 C   0  0  0  0  0  0
  -25.2350  -13.8279   20.5804 C   0  0  0  0  0  0
  -24.1723  -13.0449   20.9295 C   0  0  0  0  0  0
  -24.6409  -11.6950   20.8772 C   0  0  0  0  0  0
  -23.9105  -10.4300   21.0403 C   0  0  0  0  0  0
  -24.3642   -9.4215   21.9184 C   0  0  0  0  0  0
  -23.6314   -8.2250   22.0754 C   0  0  0  0  0  0
  -22.4298   -8.0280   21.3545 C   0  0  0  0  0  0
  -21.9939   -9.0258   20.4652 C   0  0  0  0  0  0
  -22.7268  -10.2137   20.3058 C   0  0  0  0  0  0
  -21.6862   -6.0734   22.5272 C   0  0  0  0  0  0
  -21.4022   -6.5639   23.8204 C   0  0  0  0  0  0
  -21.3664   -5.6793   24.9171 C   0  0  0  0  0  0
  -21.6049   -4.3054   24.7226 C   0  0  0  0  0  0
  -21.8815   -3.8142   23.4343 C   0  0  0  0  0  0
  -21.9197   -4.6960   22.3403 C   0  0  0  0  0  0
  -22.7732  -13.5187   21.1918 C   0  0  0  0  0  0
  -22.1655   -4.2146   21.0978 F   0  0  0  0  0  0
  -21.5636   -3.4537   25.7736 F   0  0  0  0  0  0
  -29.8078  -14.2044   20.2697 N   0  0  0  0  0  0
  -26.2797  -12.9597   20.3252 N   0  0  0  0  0  0
  -25.9358  -11.6678   20.5725 N   0  0  0  0  0  0
  -22.0377  -12.8180   22.0463 N   0  0  0  0  0  0
  -25.3983  -15.2023   20.4231 N   0  0  0  0  0  0
  -31.5789  -15.4976   20.1947 O   0  0  0  0  0  0
  -21.6658   -6.8880   21.4234 O   0  0  0  0  0  0
  -22.3419  -14.5490   20.6744 O   0  0  0  0  0  0
  -24.6823  -31.8000   23.1515 C   0  0  0  0  0  0
  -25.9413  -32.4469   23.8051 C   0  0  1  0  0  0
  -27.2346  -26.7352   20.2065 C   0  0  0  0  0  0
  -25.6002  -33.8290   24.1952 N   0  0  0  0  0  0
  -23.5077  -30.4027   21.5040 C   0  0  2  0  0  0
  -24.9652  -28.7464   20.1190 C   0  0  0  0  0  0
  -22.7768  -29.4323   22.4705 C   0  0  0  0  0  0
  -18.0351  -28.1420   22.8461 C   0  0  0  0  0  0
  -24.1501  -36.7157   23.2650 C   0  0  0  0  0  0
  -26.0867  -30.5428   21.4127 C   0  0  0  0  0  0
  -26.1532  -29.1110   20.7629 C   0  0  0  0  0  0
  -27.2732  -28.1314   20.7758 C   0  0  0  0  0  0
  -26.0129  -26.5685   19.5086 C   0  0  0  0  0  0
  -24.9315  -27.4998   19.4695 C   0  0  0  0  0  0
  -23.7603  -29.6977   20.1405 C   0  0  0  0  0  0
  -25.4149  -36.2894   24.0280 C   0  0  1  0  0  0
  -20.5985  -28.3781   23.1152 C   0  0  2  0  0  0
  -20.6826  -26.9444   22.5409 C   0  0  0  0  0  0
  -19.5800  -26.6373   21.5226 C   0  0  0  0  0  0
  -18.1980  -26.7953   22.1620 C   0  0  0  0  0  0
  -19.1613  -28.8926   23.2786 C   0  0  0  0  0  0
  -18.9511  -30.1512   23.8825 C   0  0  0  0  0  0
  -17.6500  -30.6603   24.0555 C   0  0  0  0  0  0
  -25.9124  -34.9286   23.4949 C   0  0  0  0  0  0
  -16.5392  -29.9082   23.6354 C   0  0  0  0  0  0
  -16.7327  -28.6508   23.0368 C   0  0  0  0  0  0
  -26.4601  -31.6493   25.0663 C   0  0  0  0  0  0
  -25.3671  -31.3804   26.1279 C   0  0  0  0  0  0
  -27.0541  -30.2835   24.6555 C   0  0  0  0  0  0
  -27.6046  -32.4350   25.7483 C   0  0  0  0  0  0
  -27.5569  -37.1739   24.8462 C   0  0  0  0  0  0
  -21.4418  -29.3022   22.3462 N   0  0  0  0  0  0
  -26.4278  -37.3655   23.9402 N   0  0  0  0  0  0
  -24.7818  -30.9493   22.0742 N   0  0  0  0  0  0
  -23.4228  -28.7925   23.3037 O   0  0  0  0  0  0
  -28.2144  -25.5423   20.2850 O   0  0  0  0  0  0
  -26.5758  -34.8861   22.4562 O   0  0  0  0  0  0
  -23.5852  -32.1043   23.6503 O   0  0  0  0  0  0
  -29.3629  -20.3514   17.6465 C   0  0  0  0  0  0
  -30.5143  -18.8903   21.7907 C   0  0  0  0  0  0
  -27.5661  -19.9851   21.0859 C   0  0  0  0  0  0
  -28.2896  -20.0909   18.7164 C   0  0  0  0  0  0
  -29.0045  -22.1566   20.3608 C   0  0  0  0  0  0
  -28.0456  -23.8121   20.1095 C   0  0  0  0  0  0
  -29.8232  -18.6588   20.4418 C   0  0  2  0  0  0
  -28.7759  -20.2492   20.1742 C   0  0  2  0  0  0
  -29.5921  -16.9107   20.3674 N   0  0  0  0  0  0
  -31.4250  -13.2739   19.1626 H   0  0  0  0  0  0
  -30.5746  -12.1679   20.1848 H   0  0  0  0  0  0
  -29.9796  -11.7953   17.7692 H   0  0  0  0  0  0
  -29.5238  -13.4699   17.6034 H   0  0  0  0  0  0
  -28.1144  -11.2959   19.1649 H   0  0  0  0  0  0
  -27.4400  -12.2787   17.8875 H   0  0  0  0  0  0
  -27.4733  -14.2327   19.2595 H   0  0  0  0  0  0
  -28.8721  -12.7144   21.5098 H   0  0  0  0  0  0
  -28.2175  -14.3316   21.6310 H   0  0  0  0  0  0
  -25.2768   -9.5703   22.4786 H   0  0  0  0  0  0
  -24.0014   -7.4652   22.7485 H   0  0  0  0  0  0
  -21.0860   -8.8780   19.8973 H   0  0  0  0  0  0
  -22.3699  -10.9684   19.6187 H   0  0  0  0  0  0
  -21.2002   -7.6144   23.9706 H   0  0  0  0  0  0
  -21.1498   -6.0526   25.9078 H   0  0  0  0  0  0
  -22.0589   -2.7603   23.2846 H   0  0  0  0  0  0
  -22.3994  -11.9853   22.4872 H   0  0  0  0  0  0
  -21.0992  -13.1201   22.2654 H   0  0  0  0  0  0
  -24.6320  -15.8565   20.5372 H   0  0  0  0  0  0
  -26.2404  -15.6371   20.0717 H   0  0  0  0  0  0
  -26.7487  -32.4951   23.0757 H   0  0  0  0  0  0
  -25.0102  -33.9321   25.0078 H   0  0  0  0  0  0
  -22.8316  -31.2389   21.3147 H   0  0  0  0  0  0
  -23.3779  -35.9470   23.3258 H   0  0  0  0  0  0
  -24.3573  -36.8872   22.2076 H   0  0  0  0  0  0
  -23.7251  -37.6319   23.6757 H   0  0  0  0  0  0
  -26.2927  -31.2663   20.6234 H   0  0  0  0  0  0
  -26.9366  -30.6059   22.0791 H   0  0  0  0  0  0
  -28.1671  -28.4126   21.3143 H   0  0  0  0  0  0
  -25.8556  -25.6223   19.0105 H   0  0  0  0  0  0
  -24.0336  -27.2133   18.9400 H   0  0  0  0  0  0
  -23.9345  -30.4535   19.3744 H   0  0  0  0  0  0
  -22.8661  -29.1610   19.8196 H   0  0  0  0  0  0
  -25.1365  -36.1651   25.0771 H   0  0  0  0  0  0
  -21.0076  -28.3412   24.1272 H   0  0  0  0  0  0
  -20.5734  -26.2392   23.3665 H   0  0  0  0  0  0
  -21.6683  -26.7419   22.1196 H   0  0  0  0  0  0
  -19.6960  -25.6267   21.1298 H   0  0  0  0  0  0
  -19.6744  -27.3150   20.6733 H   0  0  0  0  0  0
  -17.4259  -26.6710   21.4013 H   0  0  0  0  0  0
  -18.0351  -26.0107   22.9023 H   0  0  0  0  0  0
  -19.7981  -30.7357   24.2154 H   0  0  0  0  0  0
  -17.5045  -31.6275   24.5169 H   0  0  0  0  0  0
  -15.5389  -30.2958   23.7716 H   0  0  0  0  0  0
  -15.8732  -28.0804   22.7113 H   0  0  0  0  0  0
  -24.5860  -30.7155   25.7573 H   0  0  0  0  0  0
  -24.8856  -32.3027   26.4531 H   0  0  0  0  0  0
  -25.7841  -30.9065   27.0172 H   0  0  0  0  0  0
  -26.3257  -29.6442   24.1556 H   0  0  0  0  0  0
  -27.3994  -29.7281   25.5286 H   0  0  0  0  0  0
  -27.9227  -30.3973   24.0066 H   0  0  0  0  0  0
  -27.2582  -33.3711   26.1875 H   0  0  0  0  0  0
  -28.3955  -32.6822   25.0387 H   0  0  0  0  0  0
  -28.0610  -31.8606   26.5555 H   0  0  0  0  0  0
  -28.2552  -38.0068   24.7520 H   0  0  0  0  0  0
  -28.1103  -36.2592   24.6280 H   0  0  0  0  0  0
  -27.2282  -37.1361   25.8864 H   0  0  0  0  0  0
  -20.9722  -29.8639   21.6496 H   0  0  0  0  0  0
  -26.0104  -38.2703   24.1406 H   0  0  0  0  0  0
  -28.9399  -20.2394   16.6483 H   0  0  0  0  0  0
  -30.1939  -19.6504   17.7128 H   0  0  0  0  0  0
  -29.7677  -21.3609   17.7127 H   0  0  0  0  0  0
  -30.8860  -19.9137   21.8676 H   0  0  0  0  0  0
  -31.3636  -18.2202   21.9243 H   0  0  0  0  0  0
  -29.8283  -18.7243   22.6208 H   0  0  0  0  0  0
  -27.8392  -20.0823   22.1363 H   0  0  0  0  0  0
  -27.1647  -18.9807   20.9428 H   0  0  0  0  0  0
  -26.7578  -20.6910   20.8921 H   0  0  0  0  0  0
  -27.8903  -19.0860   18.5697 H   0  0  0  0  0  0
  -27.4561  -20.7701   18.5356 H   0  0  0  0  0  0
  -29.9266  -22.3389   19.8098 H   0  0  0  0  0  0
  -29.3321  -22.2434   21.3966 H   0  0  0  0  0  0
  -27.1114  -23.6359   20.6412 H   0  0  0  0  0  0
  -27.7511  -23.7453   19.0616 H   0  0  0  0  0  0
  -30.6247  -18.7774   19.7132 H   0  0  0  0  0  0
  -28.6028  -16.7079   20.3830 H   0  0  0  0  0  0
  1 25  1  0  0  0
  1 30  2  0  0  0
  1 79  1  0  0  0
  2  3  1  0  0  0
  2 25  1  0  0  0
  2 80  1  0  0  0
  2 81  1  0  0  0
  3  4  1  0  0  0
  3 82  1  0  0  0
  3 83  1  0  0  0
  4  5  1  0  0  0
  4 84  1  0  0  0
  4 85  1  0  0  0
  5  6  1  0  0  0
  5 26  1  0  0  0
  5 86  1  0  0  0
  6 25  1  0  0  0
  6 87  1  0  0  0
  6 88  1  0  0  0
  7  8  2  0  0  0
  7 26  1  0  0  0
  7 29  1  0  0  0
  8  9  1  0  0  0
  8 22  1  0  0  0
  9 10  1  0  0  0
  9 27  2  0  0  0
 10 11  2  0  0  0
 10 15  1  0  0  0
 11 12  1  0  0  0
 11 89  1  0  0  0
 12 13  2  0  0  0
 12 90  1  0  0  0
 13 14  1  0  0  0
 13 31  1  0  0  0
 14 15  2  0  0  0
 14 91  1  0  0  0
 15 92  1  0  0  0
 16 17  2  0  0  0
 16 21  1  0  0  0
 16 31  1  0  0  0
 17 18  1  0  0  0
 17 93  1  0  0  0
 18 19  2  0  0  0
 18 94  1  0  0  0
 19 20  1  0  0  0
 19 24  1  0  0  0
 20 21  2  0  0  0
 20 95  1  0  0  0
 21 23  1  0  0  0
 22 28  1  0  0  0
 22 32  2  0  0  0
 26 27  1  0  0  0
 28 96  1  0  0  0
 28 97  1  0  0  0
 29 98  1  0  0  0
 29 99  1  0  0  0
 33 34  1  0  0  0
 33 66  1  0  0  0
 33 70  2  0  0  0
 34 36  1  0  0  0
 34 59  1  0  0  0
 34100  1  0  0  0
 35 44  2  0  0  0
 35 45  1  0  0  0
 35 68  1  0  0  0
 36 56  1  0  0  0
 36101  1  0  0  0
 37 39  1  0  0  0
 37 47  1  0  0  0
 37 66  1  0  0  0
 37102  1  0  0  0
 38 43  2  0  0  0
 38 46  1  0  0  0
 38 47  1  0  0  0
 39 64  1  0  0  0
 39 67  2  0  0  0
 40 52  1  0  0  0
 40 53  2  0  0  0
 40 58  1  0  0  0
 41103  1  0  0  0
 41104  1  0  0  0
 41105  1  0  0  0
 41 48  1  0  0  0
 42 43  1  0  0  0
 42 66  1  0  0  0
 42106  1  0  0  0
 42107  1  0  0  0
 43 44  1  0  0  0
 44108  1  0  0  0
 45 46  2  0  0  0
 45109  1  0  0  0
 46110  1  0  0  0
 47111  1  0  0  0
 47112  1  0  0  0
 48 56  1  0  0  0
 48 65  1  0  0  0
 48113  1  0  0  0
 49 50  1  0  0  0
 49 53  1  0  0  0
 49 64  1  0  0  0
 49114  1  0  0  0
 50 51  1  0  0  0
 50115  1  0  0  0
 50116  1  0  0  0
 51 52  1  0  0  0
 51117  1  0  0  0
 51118  1  0  0  0
 52119  1  0  0  0
 52120  1  0  0  0
 53 54  1  0  0  0
 54 55  2  0  0  0
 54121  1  0  0  0
 55 57  1  0  0  0
 55122  1  0  0  0
 56 69  2  0  0  0
 57 58  2  0  0  0
 57123  1  0  0  0
 58124  1  0  0  0
 59 60  1  0  0  0
 59 61  1  0  0  0
 59 62  1  0  0  0
 60125  1  0  0  0
 60126  1  0  0  0
 60127  1  0  0  0
 61128  1  0  0  0
 61129  1  0  0  0
 61130  1  0  0  0
 62131  1  0  0  0
 62132  1  0  0  0
 62133  1  0  0  0
 63 65  1  0  0  0
 63134  1  0  0  0
 63135  1  0  0  0
 63136  1  0  0  0
 64137  1  0  0  0
 65138  1  0  0  0
 68 76  1  0  0  0
 71 74  1  0  0  0
 71139  1  0  0  0
 71140  1  0  0  0
 71141  1  0  0  0
 72142  1  0  0  0
 72143  1  0  0  0
 72144  1  0  0  0
 72 77  1  0  0  0
 73145  1  0  0  0
 73146  1  0  0  0
 73147  1  0  0  0
 73 78  1  0  0  0
 74 78  1  0  0  0
 74148  1  0  0  0
 74149  1  0  0  0
 75 76  1  0  0  0
 75 78  1  0  0  0
 75150  1  0  0  0
 75151  1  0  0  0
 76152  1  0  0  0
 76153  1  0  0  0
 77 78  1  0  0  0
 77 79  1  0  0  0
 77154  1  0  0  0
 79155  1  0  0  0
M  ISO  4   1 100  68 101  76 101  79 100
M  END
> <chiral flag>
0

> <version>
0

> <s_m_source_file>
/data/baiqing/PycharmProjects/Reinvent-master-3.2/result/LINK_invent/BTK/process_docking_weight1_custom_sum_contain_oxygen_bond_distance_aromatic_linkinvent_7_9_3/rearranged_h_0107.sdf

> <i_m_source_file_index>
85

> <r_mmod_Potential_Energy-OPLS-2005>
2275.90209960938

> <r_mmod_Stretch_Energy-OPLS-2005>
1105.77709960938

> <r_mmod_Bend_Energy-OPLS-2005>
611.589904785156

> <r_mmod_Torsional_Energy-OPLS-2005>
235.018829345703

> <r_mmod_Improper_Torsional_Energy-OPLS-2005>
3.73159861564636

> <r_mmod_Van_der_Waal_Energy-OPLS-2005>
103.696655273438

> <r_mmod_Electrostatic_Energy-OPLS-2005>
-386.523376464844

> <r_mmod_Solvation_Energy-OPLS-2005>
-202.50032043457

> <b_mmod_Minimization_Converged-OPLS-2005>
0

> <r_mmod_RMS_Derivative-OPLS-2005>
1.743696808815

$$$$
87
                    3D
 Structure written by MMmdl.
164172  0  0  1  0            999 V2000
  -30.7206  -14.4637   20.5259 C   0  0  0  0  0  0
  -30.4102  -12.2852   19.4358 C   0  0  0  0  0  0
  -29.4926  -12.4702   18.2105 C   0  0  0  0  0  0
  -28.0120  -12.3462   18.6189 C   0  0  0  0  0  0
  -27.6526  -13.2108   19.8574 C   0  0  2  0  0  0
  -28.6930  -13.0497   20.9866 C   0  0  0  0  0  0
  -25.2572  -13.8173   20.5675 C   0  0  0  0  0  0
  -24.1824  -13.0452   20.9174 C   0  0  0  0  0  0
  -24.6384  -11.6917   20.8740 C   0  0  0  0  0  0
  -23.9060  -10.4300   21.0411 C   0  0  0  0  0  0
  -24.3623   -9.4221   21.9185 C   0  0  0  0  0  0
  -23.6300   -8.2249   22.0751 C   0  0  0  0  0  0
  -22.4279   -8.0290   21.3545 C   0  0  0  0  0  0
  -21.9916   -9.0259   20.4642 C   0  0  0  0  0  0
  -22.7240  -10.2141   20.3052 C   0  0  0  0  0  0
  -21.6855   -6.0747   22.5286 C   0  0  0  0  0  0
  -21.4011   -6.5651   23.8220 C   0  0  0  0  0  0
  -21.3653   -5.6797   24.9178 C   0  0  0  0  0  0
  -21.6042   -4.3059   24.7222 C   0  0  0  0  0  0
  -21.8819   -3.8155   23.4344 C   0  0  0  0  0  0
  -21.9192   -4.6978   22.3405 C   0  0  0  0  0  0
  -22.7850  -13.5252   21.1865 C   0  0  0  0  0  0
  -22.1662   -4.2164   21.0982 F   0  0  0  0  0  0
  -21.5628   -3.4539   25.7736 F   0  0  0  0  0  0
  -30.0265  -13.3001   20.4275 N   0  0  0  0  0  0
  -26.2991  -12.9345   20.3308 N   0  0  0  0  0  0
  -25.9306  -11.6505   20.5751 N   0  0  0  0  0  0
  -22.0497  -12.8223   22.0412 N   0  0  0  0  0  0
  -25.4331  -15.1889   20.4108 N   0  0  0  0  0  0
  -31.8854  -14.5829   20.1391 O   0  0  0  0  0  0
  -21.6643   -6.8886   21.4246 O   0  0  0  0  0  0
  -22.3529  -14.5573   20.6742 O   0  0  0  0  0  0
  -24.6125  -31.8690   23.2104 C   0  0  0  0  0  0
  -25.9023  -32.4833   23.8386 C   0  0  1  0  0  0
  -27.2316  -27.4478   20.1075 C   0  0  0  0  0  0
  -25.5882  -33.8633   24.2320 N   0  0  0  0  0  0
  -23.4003  -30.4920   21.5487 C   0  0  2  0  0  0
  -24.8488  -28.9613   20.1119 C   0  0  0  0  0  0
  -22.7408  -29.4663   22.4984 C   0  0  0  0  0  0
  -18.0286  -28.1369   22.8485 C   0  0  0  0  0  0
  -24.1497  -36.7316   23.2634 C   0  0  0  0  0  0
  -25.9267  -30.8401   21.3613 C   0  0  0  0  0  0
  -26.0070  -29.4762   20.7092 C   0  0  0  0  0  0
  -27.2049  -28.7283   20.7008 C   0  0  0  0  0  0
  -26.0625  -26.9448   19.4983 C   0  0  0  0  0  0
  -24.8711  -27.6938   19.5024 C   0  0  0  0  0  0
  -23.6090  -29.8239   20.1636 C   0  0  0  0  0  0
  -25.4109  -36.3117   24.0339 C   0  0  1  0  0  0
  -20.5873  -28.3645   23.1320 C   0  0  2  0  0  0
  -20.6783  -26.9387   22.5410 C   0  0  0  0  0  0
  -19.5760  -26.6368   21.5218 C   0  0  0  0  0  0
  -18.1931  -26.7910   22.1621 C   0  0  0  0  0  0
  -19.1530  -28.8820   23.2905 C   0  0  0  0  0  0
  -18.9464  -30.1430   23.8912 C   0  0  0  0  0  0
  -17.6464  -30.6572   24.0559 C   0  0  0  0  0  0
  -25.9028  -34.9485   23.5123 C   0  0  0  0  0  0
  -16.5356  -29.9073   23.6326 C   0  0  0  0  0  0
  -16.7272  -28.6498   23.0329 C   0  0  0  0  0  0
  -26.4462  -31.6611   25.0702 C   0  0  0  0  0  0
  -25.3727  -31.3732   26.1450 C   0  0  0  0  0  0
  -27.0289  -30.3061   24.6040 C   0  0  0  0  0  0
  -27.6031  -32.4334   25.7470 C   0  0  0  0  0  0
  -27.5594  -37.1804   24.8460 C   0  0  0  0  0  0
  -21.4134  -29.3030   22.3738 N   0  0  0  0  0  0
  -26.4305  -37.3794   23.9412 N   0  0  0  0  0  0
  -24.6645  -31.0807   22.0995 N   0  0  0  0  0  0
  -23.4198  -28.8208   23.3005 O   0  0  0  0  0  0
  -28.3759  -26.6880   20.1216 O   0  0  0  0  0  0
  -26.5599  -34.8938   22.4689 O   0  0  0  0  0  0
  -23.5327  -32.1419   23.7511 O   0  0  0  0  0  0
  -30.0959  -16.2985   22.1536 C   0  0  0  0  0  0
  -29.6323  -17.6050   22.4174 C   0  0  0  0  0  0
  -28.9131  -17.8081   20.1042 C   0  0  0  0  0  0
  -29.9949  -15.7447   20.8576 C   0  0  0  0  0  0
  -29.0672  -18.3788   21.3826 C   0  0  0  0  0  0
  -29.3817  -16.4993   19.8209 C   0  0  0  0  0  0
  -28.8751  -15.8914   16.2056 C   0  0  0  0  0  0
  -28.6757  -19.8381   21.6092 C   0  0  0  0  0  0
  -29.9046  -20.7754   21.7230 C   0  0  0  0  0  0
  -29.8968  -22.0252   20.8061 C   0  0  0  0  0  0
  -29.1245  -24.3634   20.4337 C   0  0  0  0  0  0
  -28.7830  -16.7170   17.4898 C   0  0  0  0  0  0
  -28.2963  -25.5421   20.9857 C   0  0  0  0  0  0
  -29.0755  -23.1551   21.3065 N   0  3  0  0  0  0
  -29.3145  -15.9424   18.5584 O   0  0  0  0  0  0
  -31.4569  -12.3604   19.1362 H   0  0  0  0  0  0
  -30.2926  -11.2867   19.8595 H   0  0  0  0  0  0
  -29.7306  -11.7254   17.4505 H   0  0  0  0  0  0
  -29.6725  -13.4431   17.7523 H   0  0  0  0  0  0
  -27.8196  -11.2944   18.8333 H   0  0  0  0  0  0
  -27.3675  -12.6070   17.7787 H   0  0  0  0  0  0
  -27.6749  -14.2479   19.5282 H   0  0  0  0  0  0
  -28.6551  -12.0429   21.4046 H   0  0  0  0  0  0
  -28.4701  -13.7290   21.8113 H   0  0  0  0  0  0
  -25.2770   -9.5700   22.4761 H   0  0  0  0  0  0
  -24.0017   -7.4637   22.7464 H   0  0  0  0  0  0
  -21.0851   -8.8773   19.8940 H   0  0  0  0  0  0
  -22.3706  -10.9681   19.6159 H   0  0  0  0  0  0
  -21.2000   -7.6155   23.9735 H   0  0  0  0  0  0
  -21.1471   -6.0520   25.9083 H   0  0  0  0  0  0
  -22.0602   -2.7616   23.2840 H   0  0  0  0  0  0
  -22.4115  -11.9866   22.4765 H   0  0  0  0  0  0
  -21.1113  -13.1232   22.2637 H   0  0  0  0  0  0
  -24.6788  -15.8544   20.5378 H   0  0  0  0  0  0
  -26.3082  -15.6252   20.1480 H   0  0  0  0  0  0
  -26.7083  -32.5545   23.1147 H   0  0  0  0  0  0
  -25.0065  -33.9815   25.0482 H   0  0  0  0  0  0
  -22.6877  -31.3076   21.4092 H   0  0  0  0  0  0
  -23.3774  -35.9640   23.3295 H   0  0  0  0  0  0
  -24.3593  -36.8925   22.2050 H   0  0  0  0  0  0
  -23.7243  -37.6514   23.6651 H   0  0  0  0  0  0
  -26.0337  -31.6072   20.5941 H   0  0  0  0  0  0
  -26.8158  -30.8934   21.9767 H   0  0  0  0  0  0
  -28.1001  -29.1221   21.1624 H   0  0  0  0  0  0
  -26.0724  -25.9706   19.0294 H   0  0  0  0  0  0
  -23.9800  -27.2936   19.0394 H   0  0  0  0  0  0
  -23.7138  -30.5990   19.4039 H   0  0  0  0  0  0
  -22.7333  -29.2423   19.8686 H   0  0  0  0  0  0
  -25.1291  -36.1978   25.0835 H   0  0  0  0  0  0
  -20.9964  -28.3209   24.1440 H   0  0  0  0  0  0
  -20.5702  -26.2254   23.3593 H   0  0  0  0  0  0
  -21.6644  -26.7438   22.1181 H   0  0  0  0  0  0
  -19.6933  -25.6291   21.1221 H   0  0  0  0  0  0
  -19.6708  -27.3199   20.6773 H   0  0  0  0  0  0
  -17.4207  -26.6672   21.4019 H   0  0  0  0  0  0
  -18.0324  -26.0034   22.8998 H   0  0  0  0  0  0
  -19.7948  -30.7240   24.2282 H   0  0  0  0  0  0
  -17.5023  -31.6262   24.5147 H   0  0  0  0  0  0
  -15.5355  -30.2980   23.7651 H   0  0  0  0  0  0
  -15.8674  -28.0831   22.7018 H   0  0  0  0  0  0
  -24.5885  -30.7093   25.7792 H   0  0  0  0  0  0
  -24.8934  -32.2900   26.4897 H   0  0  0  0  0  0
  -25.8055  -30.8896   27.0209 H   0  0  0  0  0  0
  -26.2821  -29.6832   24.1096 H   0  0  0  0  0  0
  -27.4096  -29.7276   25.4464 H   0  0  0  0  0  0
  -27.8633  -30.4408   23.9155 H   0  0  0  0  0  0
  -27.2634  -33.3624   26.2063 H   0  0  0  0  0  0
  -28.3838  -32.6909   25.0301 H   0  0  0  0  0  0
  -28.0688  -31.8438   26.5372 H   0  0  0  0  0  0
  -28.2589  -38.0127   24.7536 H   0  0  0  0  0  0
  -28.1123  -36.2655   24.6257 H   0  0  0  0  0  0
  -27.2310  -37.1399   25.8863 H   0  0  0  0  0  0
  -20.9295  -29.8763   21.6972 H   0  0  0  0  0  0
  -26.0203  -38.2879   24.1413 H   0  0  0  0  0  0
  -30.5857  -15.7406   22.9397 H   0  0  0  0  0  0
  -29.7545  -18.0267   23.4061 H   0  0  0  0  0  0
  -28.4693  -18.4200   19.3334 H   0  0  0  0  0  0
  -28.5163  -16.4638   15.3498 H   0  0  0  0  0  0
  -28.2753  -14.9842   16.2772 H   0  0  0  0  0  0
  -29.9059  -15.6009   16.0027 H   0  0  0  0  0  0
  -28.0649  -19.9104   22.5105 H   0  0  0  0  0  0
  -28.0297  -20.1614   20.7920 H   0  0  0  0  0  0
  -30.7906  -20.2011   21.4460 H   0  0  0  0  0  0
  -30.0746  -21.0531   22.7645 H   0  0  0  0  0  0
  -29.5830  -21.7509   19.7976 H   0  0  0  0  0  0
  -30.9240  -22.3832   20.7133 H   0  0  0  0  0  0
  -30.1608  -24.6828   20.3128 H   0  0  0  0  0  0
  -28.7566  -24.1009   19.4409 H   0  0  0  0  0  0
  -27.7421  -16.9795   17.6865 H   0  0  0  0  0  0
  -29.3509  -17.6404   17.3655 H   0  0  0  0  0  0
  -28.6722  -25.8325   21.9681 H   0  0  0  0  0  0
  -27.2662  -25.2133   21.1376 H   0  0  0  0  0  0
  -29.4060  -23.4042   22.2269 H   0  0  0  0  0  0
  -28.1175  -22.8523   21.4006 H   0  0  0  0  0  0
  1 25  1  0  0  0
  1 30  2  0  0  0
  1 74  1  0  0  0
  2  3  1  0  0  0
  2 25  1  0  0  0
  2 86  1  0  0  0
  2 87  1  0  0  0
  3  4  1  0  0  0
  3 88  1  0  0  0
  3 89  1  0  0  0
  4  5  1  0  0  0
  4 90  1  0  0  0
  4 91  1  0  0  0
  5  6  1  0  0  0
  5 26  1  0  0  0
  5 92  1  0  0  0
  6 25  1  0  0  0
  6 93  1  0  0  0
  6 94  1  0  0  0
  7  8  2  0  0  0
  7 26  1  0  0  0
  7 29  1  0  0  0
  8  9  1  0  0  0
  8 22  1  0  0  0
  9 10  1  0  0  0
  9 27  2  0  0  0
 10 11  2  0  0  0
 10 15  1  0  0  0
 11 12  1  0  0  0
 11 95  1  0  0  0
 12 13  2  0  0  0
 12 96  1  0  0  0
 13 14  1  0  0  0
 13 31  1  0  0  0
 14 15  2  0  0  0
 14 97  1  0  0  0
 15 98  1  0  0  0
 16 17  2  0  0  0
 16 21  1  0  0  0
 16 31  1  0  0  0
 17 18  1  0  0  0
 17 99  1  0  0  0
 18 19  2  0  0  0
 18100  1  0  0  0
 19 20  1  0  0  0
 19 24  1  0  0  0
 20 21  2  0  0  0
 20101  1  0  0  0
 21 23  1  0  0  0
 22 28  1  0  0  0
 22 32  2  0  0  0
 26 27  1  0  0  0
 28102  1  0  0  0
 28103  1  0  0  0
 29104  1  0  0  0
 29105  1  0  0  0
 33 34  1  0  0  0
 33 66  1  0  0  0
 33 70  2  0  0  0
 34 36  1  0  0  0
 34 59  1  0  0  0
 34106  1  0  0  0
 35 44  2  0  0  0
 35 45  1  0  0  0
 35 68  1  0  0  0
 36 56  1  0  0  0
 36107  1  0  0  0
 37 39  1  0  0  0
 37 47  1  0  0  0
 37 66  1  0  0  0
 37108  1  0  0  0
 38 43  2  0  0  0
 38 46  1  0  0  0
 38 47  1  0  0  0
 39 64  1  0  0  0
 39 67  2  0  0  0
 40 52  1  0  0  0
 40 53  2  0  0  0
 40 58  1  0  0  0
 41109  1  0  0  0
 41110  1  0  0  0
 41111  1  0  0  0
 41 48  1  0  0  0
 42 43  1  0  0  0
 42 66  1  0  0  0
 42112  1  0  0  0
 42113  1  0  0  0
 43 44  1  0  0  0
 44114  1  0  0  0
 45 46  2  0  0  0
 45115  1  0  0  0
 46116  1  0  0  0
 47117  1  0  0  0
 47118  1  0  0  0
 48 56  1  0  0  0
 48 65  1  0  0  0
 48119  1  0  0  0
 49 50  1  0  0  0
 49 53  1  0  0  0
 49 64  1  0  0  0
 49120  1  0  0  0
 50 51  1  0  0  0
 50121  1  0  0  0
 50122  1  0  0  0
 51 52  1  0  0  0
 51123  1  0  0  0
 51124  1  0  0  0
 52125  1  0  0  0
 52126  1  0  0  0
 53 54  1  0  0  0
 54 55  2  0  0  0
 54127  1  0  0  0
 55 57  1  0  0  0
 55128  1  0  0  0
 56 69  2  0  0  0
 57 58  2  0  0  0
 57129  1  0  0  0
 58130  1  0  0  0
 59 60  1  0  0  0
 59 61  1  0  0  0
 59 62  1  0  0  0
 60131  1  0  0  0
 60132  1  0  0  0
 60133  1  0  0  0
 61134  1  0  0  0
 61135  1  0  0  0
 61136  1  0  0  0
 62137  1  0  0  0
 62138  1  0  0  0
 62139  1  0  0  0
 63 65  1  0  0  0
 63140  1  0  0  0
 63141  1  0  0  0
 63142  1  0  0  0
 64143  1  0  0  0
 65144  1  0  0  0
 68 83  1  0  0  0
 71 72  2  0  0  0
 71 74  1  0  0  0
 71145  1  0  0  0
 72 75  1  0  0  0
 72146  1  0  0  0
 73 75  2  0  0  0
 73 76  1  0  0  0
 73147  1  0  0  0
 74 76  2  0  0  0
 75 78  1  0  0  0
 76 85  1  0  0  0
 77 82  1  0  0  0
 77148  1  0  0  0
 77149  1  0  0  0
 77150  1  0  0  0
 78 79  1  0  0  0
 78151  1  0  0  0
 78152  1  0  0  0
 79 80  1  0  0  0
 79153  1  0  0  0
 79154  1  0  0  0
 80 84  1  0  0  0
 80155  1  0  0  0
 80156  1  0  0  0
 81 83  1  0  0  0
 81 84  1  0  0  0
 81157  1  0  0  0
 81158  1  0  0  0
 82 85  1  0  0  0
 82159  1  0  0  0
 82160  1  0  0  0
 83161  1  0  0  0
 83162  1  0  0  0
 84163  1  0  0  0
 84164  1  0  0  0
M  CHG  1  84   1
M  ISO  4   1 100  68 101  74 100  83 101
M  END
> <chiral flag>
0

> <version>
0

> <s_m_source_file>
/data/baiqing/PycharmProjects/Reinvent-master-3.2/result/LINK_invent/BTK/process_docking_weight1_custom_sum_contain_oxygen_bond_distance_aromatic_linkinvent_7_9_3/rearranged_h_0107.sdf

> <i_m_source_file_index>
86

> <r_mmod_Potential_Energy-OPLS-2005>
-67.7080612182617

> <r_mmod_Stretch_Energy-OPLS-2005>
35.504280090332

> <r_mmod_Bend_Energy-OPLS-2005>
93.7018585205078

> <r_mmod_Torsional_Energy-OPLS-2005>
252.961822509766

> <r_mmod_Improper_Torsional_Energy-OPLS-2005>
6.57224321365356

> <r_mmod_Van_der_Waal_Energy-OPLS-2005>
138.596084594727

> <r_mmod_Electrostatic_Energy-OPLS-2005>
-169.319885253906

> <r_mmod_Solvation_Energy-OPLS-2005>
-442.345764160156

> <b_mmod_Minimization_Converged-OPLS-2005>
0

> <r_mmod_RMS_Derivative-OPLS-2005>
1.72004628181458

$$$$
88
                    3D
 Structure written by MMmdl.
156163  0  0  1  0            999 V2000
  -30.5561  -14.9485   20.4649 C   0  0  0  0  0  0
  -30.4419  -12.5978   19.5293 C   0  0  0  0  0  0
  -29.5308  -12.5562   18.2769 C   0  0  0  0  0  0
  -28.0616  -12.3511   18.6842 C   0  0  0  0  0  0
  -27.6377  -13.2631   19.8609 C   0  0  2  0  0  0
  -28.6793  -13.2759   21.0036 C   0  0  0  0  0  0
  -25.2478  -13.8299   20.5741 C   0  0  0  0  0  0
  -24.1756  -13.0471   20.9190 C   0  0  0  0  0  0
  -24.6374  -11.6976   20.8738 C   0  0  0  0  0  0
  -23.9087  -10.4294   21.0420 C   0  0  0  0  0  0
  -24.3646   -9.4194   21.9150 C   0  0  0  0  0  0
  -23.6285   -8.2254   22.0746 C   0  0  0  0  0  0
  -22.4275   -8.0276   21.3522 C   0  0  0  0  0  0
  -21.9922   -9.0269   20.4648 C   0  0  0  0  0  0
  -22.7285  -10.2137   20.3037 C   0  0  0  0  0  0
  -21.6859   -6.0746   22.5276 C   0  0  0  0  0  0
  -21.3996   -6.5637   23.8223 C   0  0  0  0  0  0
  -21.3639   -5.6781   24.9161 C   0  0  0  0  0  0
  -21.6049   -4.3038   24.7206 C   0  0  0  0  0  0
  -21.8808   -3.8153   23.4330 C   0  0  0  0  0  0
  -21.9172   -4.6982   22.3387 C   0  0  0  0  0  0
  -22.7778  -13.5235   21.1865 C   0  0  0  0  0  0
  -22.1676   -4.2161   21.0971 F   0  0  0  0  0  0
  -21.5630   -3.4530   25.7726 F   0  0  0  0  0  0
  -29.9601  -13.6911   20.4197 N   0  0  0  0  0  0
  -26.2903  -12.9548   20.3324 N   0  0  0  0  0  0
  -25.9299  -11.6675   20.5762 N   0  0  0  0  0  0
  -22.0397  -12.8230   22.0434 N   0  0  0  0  0  0
  -25.4015  -15.2031   20.4240 N   0  0  0  0  0  0
  -31.7526  -15.0156   20.1476 O   0  0  0  0  0  0
  -21.6646   -6.8871   21.4208 O   0  0  0  0  0  0
  -22.3493  -14.5491   20.6680 O   0  0  0  0  0  0
  -24.6424  -31.8426   23.1928 C   0  0  0  0  0  0
  -25.9195  -32.4684   23.8288 C   0  0  1  0  0  0
  -27.1870  -27.1029   20.1637 C   0  0  0  0  0  0
  -25.5972  -33.8502   24.2212 N   0  0  0  0  0  0
  -23.4487  -30.4651   21.5361 C   0  0  2  0  0  0
  -24.9013  -28.8952   20.1015 C   0  0  0  0  0  0
  -22.7565  -29.4543   22.4850 C   0  0  0  0  0  0
  -18.0293  -28.1417   22.8486 C   0  0  0  0  0  0
  -24.1474  -36.7251   23.2644 C   0  0  0  0  0  0
  -26.0071  -30.7005   21.4042 C   0  0  0  0  0  0
  -26.0741  -29.3106   20.7452 C   0  0  0  0  0  0
  -27.2174  -28.4230   20.7745 C   0  0  0  0  0  0
  -26.0295  -26.8409   19.4027 C   0  0  0  0  0  0
  -24.8923  -27.6764   19.4099 C   0  0  0  0  0  0
  -23.6781  -29.8013   20.1523 C   0  0  0  0  0  0
  -25.4104  -36.3036   24.0311 C   0  0  1  0  0  0
  -20.5916  -28.3742   23.1228 C   0  0  2  0  0  0
  -20.6770  -26.9432   22.5407 C   0  0  0  0  0  0
  -19.5747  -26.6395   21.5208 C   0  0  0  0  0  0
  -18.1942  -26.7938   22.1622 C   0  0  0  0  0  0
  -19.1562  -28.8868   23.2841 C   0  0  0  0  0  0
  -18.9475  -30.1504   23.8869 C   0  0  0  0  0  0
  -17.6481  -30.6593   24.0561 C   0  0  0  0  0  0
  -25.9055  -34.9416   23.5054 C   0  0  0  0  0  0
  -16.5363  -29.9114   23.6351 C   0  0  0  0  0  0
  -16.7290  -28.6520   23.0342 C   0  0  0  0  0  0
  -26.4527  -31.6578   25.0747 C   0  0  0  0  0  0
  -25.3725  -31.3797   26.1454 C   0  0  0  0  0  0
  -27.0398  -30.2963   24.6388 C   0  0  0  0  0  0
  -27.6043  -32.4362   25.7549 C   0  0  0  0  0  0
  -27.5559  -37.1776   24.8471 C   0  0  0  0  0  0
  -21.4270  -29.3069   22.3593 N   0  0  0  0  0  0
  -26.4269  -37.3750   23.9430 N   0  0  0  0  0  0
  -24.7187  -31.0221   22.0980 N   0  0  0  0  0  0
  -23.4184  -28.8079   23.3002 O   0  0  0  0  0  0
  -28.1929  -26.0667   20.2190 O   0  0  0  0  0  0
  -26.5648  -34.8885   22.4644 O   0  0  0  0  0  0
  -23.5561  -32.1345   23.7128 O   0  0  0  0  0  0
  -28.8780  -23.2954   20.2572 C   0  0  0  0  0  0
  -25.7849  -23.1860   19.9648 C   0  0  0  0  0  0
  -26.1419  -23.7501   22.4357 C   0  0  0  0  0  0
  -29.1051  -19.0119   20.4575 C   0  0  0  0  0  0
  -29.5987  -20.6368   20.4848 C   0  0  0  0  0  0
  -30.1739  -17.6812   20.5230 C   0  0  0  0  0  0
  -27.9151  -24.5866   20.7155 C   0  0  2  0  0  0
  -26.4110  -24.1775   20.9828 C   0  0  0  0  0  0
  -28.6648  -21.9178   20.5726 N   0  0  0  0  0  0
  -29.7990  -16.1410   20.6559 N   0  0  0  0  0  0
  -29.9055  -23.5830   19.6430 O   0  0  0  0  0  0
  -31.4826  -12.7563   19.2490 H   0  0  0  0  0  0
  -30.4323  -11.6426   20.0535 H   0  0  0  0  0  0
  -29.8600  -11.7767   17.5875 H   0  0  0  0  0  0
  -29.6252  -13.4911   17.7251 H   0  0  0  0  0  0
  -27.9369  -11.3050   18.9632 H   0  0  0  0  0  0
  -27.4116  -12.5132   17.8297 H   0  0  0  0  0  0
  -27.5969  -14.2697   19.4399 H   0  0  0  0  0  0
  -28.7610  -12.3015   21.4836 H   0  0  0  0  0  0
  -28.3691  -13.9604   21.7909 H   0  0  0  0  0  0
  -25.2773   -9.5737   22.4774 H   0  0  0  0  0  0
  -23.9986   -7.4660   22.7505 H   0  0  0  0  0  0
  -21.0844   -8.8822   19.9006 H   0  0  0  0  0  0
  -22.3703  -10.9682   19.6222 H   0  0  0  0  0  0
  -21.2024   -7.6158   23.9730 H   0  0  0  0  0  0
  -21.1469   -6.0514   25.9069 H   0  0  0  0  0  0
  -22.0608   -2.7616   23.2831 H   0  0  0  0  0  0
  -22.4022  -11.9921   22.4873 H   0  0  0  0  0  0
  -21.1000  -13.1371   22.2580 H   0  0  0  0  0  0
  -24.6322  -15.8555   20.5437 H   0  0  0  0  0  0
  -26.2284  -15.6412   20.0462 H   0  0  0  0  0  0
  -26.7252  -32.5271   23.1010 H   0  0  0  0  0  0
  -25.0096  -33.9637   25.0339 H   0  0  0  0  0  0
  -22.7516  -31.2918   21.3840 H   0  0  0  0  0  0
  -23.3748  -35.9572   23.3294 H   0  0  0  0  0  0
  -24.3568  -36.8911   22.2068 H   0  0  0  0  0  0
  -23.7199  -37.6428   23.6687 H   0  0  0  0  0  0
  -26.1651  -31.4507   20.6291 H   0  0  0  0  0  0
  -26.8729  -30.7545   22.0495 H   0  0  0  0  0  0
  -28.1008  -28.7165   21.3214 H   0  0  0  0  0  0
  -25.9635  -25.9103   18.8544 H   0  0  0  0  0  0
  -24.0080  -27.3783   18.8625 H   0  0  0  0  0  0
  -23.8139  -30.5819   19.4035 H   0  0  0  0  0  0
  -22.7910  -29.2506   19.8332 H   0  0  0  0  0  0
  -25.1279  -36.1869   25.0798 H   0  0  0  0  0  0
  -21.0007  -28.3337   24.1349 H   0  0  0  0  0  0
  -20.5650  -26.2353   23.3642 H   0  0  0  0  0  0
  -21.6632  -26.7410   22.1216 H   0  0  0  0  0  0
  -19.6899  -25.6301   21.1266 H   0  0  0  0  0  0
  -19.6676  -27.3169   20.6718 H   0  0  0  0  0  0
  -17.4193  -26.6696   21.4058 H   0  0  0  0  0  0
  -18.0354  -26.0097   22.9031 H   0  0  0  0  0  0
  -19.7962  -30.7323   24.2217 H   0  0  0  0  0  0
  -17.5032  -31.6276   24.5178 H   0  0  0  0  0  0
  -15.5373  -30.2978   23.7686 H   0  0  0  0  0  0
  -15.8702  -28.0834   22.7061 H   0  0  0  0  0  0
  -24.5890  -30.7142   25.7812 H   0  0  0  0  0  0
  -24.8905  -32.2982   26.4813 H   0  0  0  0  0  0
  -25.7995  -30.9034   27.0292 H   0  0  0  0  0  0
  -26.3036  -29.6698   24.1337 H   0  0  0  0  0  0
  -27.3928  -29.7256   25.4996 H   0  0  0  0  0  0
  -27.8981  -30.4184   23.9776 H   0  0  0  0  0  0
  -27.2621  -33.3686   26.2066 H   0  0  0  0  0  0
  -28.3884  -32.6914   25.0405 H   0  0  0  0  0  0
  -28.0671  -31.8538   26.5543 H   0  0  0  0  0  0
  -28.2551  -38.0092   24.7499 H   0  0  0  0  0  0
  -28.1062  -36.2614   24.6280 H   0  0  0  0  0  0
  -27.2285  -37.1396   25.8876 H   0  0  0  0  0  0
  -20.9495  -29.8801   21.6785 H   0  0  0  0  0  0
  -26.0139  -38.2816   24.1461 H   0  0  0  0  0  0
  -24.6928  -23.2726   19.9571 H   0  0  0  0  0  0
  -26.0265  -22.1473   20.2099 H   0  0  0  0  0  0
  -26.1192  -23.3656   18.9416 H   0  0  0  0  0  0
  -25.0814  -23.5247   22.5843 H   0  0  0  0  0  0
  -26.3850  -24.5696   23.1207 H   0  0  0  0  0  0
  -26.7225  -22.8760   22.7313 H   0  0  0  0  0  0
  -28.5171  -18.9081   19.5462 H   0  0  0  0  0  0
  -28.3639  -18.8826   21.2495 H   0  0  0  0  0  0
  -30.2664  -20.8090   19.6356 H   0  0  0  0  0  0
  -30.2455  -20.7010   21.3702 H   0  0  0  0  0  0
  -30.8774  -17.8768   21.3389 H   0  0  0  0  0  0
  -30.7886  -17.7333   19.6224 H   0  0  0  0  0  0
  -28.3205  -24.7089   21.7218 H   0  0  0  0  0  0
  -25.7900  -25.0542   20.9412 H   0  0  0  0  0  0
  -27.7857  -21.7535   21.0476 H   0  0  0  0  0  0
  -28.8650  -15.9749   21.0004 H   0  0  0  0  0  0
  1 25  1  0  0  0
  1 30  2  0  0  0
  1 80  1  0  0  0
  2  3  1  0  0  0
  2 25  1  0  0  0
  2 82  1  0  0  0
  2 83  1  0  0  0
  3  4  1  0  0  0
  3 84  1  0  0  0
  3 85  1  0  0  0
  4  5  1  0  0  0
  4 86  1  0  0  0
  4 87  1  0  0  0
  5  6  1  0  0  0
  5 26  1  0  0  0
  5 88  1  0  0  0
  6 25  1  0  0  0
  6 89  1  0  0  0
  6 90  1  0  0  0
  7  8  2  0  0  0
  7 26  1  0  0  0
  7 29  1  0  0  0
  8  9  1  0  0  0
  8 22  1  0  0  0
  9 10  1  0  0  0
  9 27  2  0  0  0
 10 11  2  0  0  0
 10 15  1  0  0  0
 11 12  1  0  0  0
 11 91  1  0  0  0
 12 13  2  0  0  0
 12 92  1  0  0  0
 13 14  1  0  0  0
 13 31  1  0  0  0
 14 15  2  0  0  0
 14 93  1  0  0  0
 15 94  1  0  0  0
 16 17  2  0  0  0
 16 21  1  0  0  0
 16 31  1  0  0  0
 17 18  1  0  0  0
 17 95  1  0  0  0
 18 19  2  0  0  0
 18 96  1  0  0  0
 19 20  1  0  0  0
 19 24  1  0  0  0
 20 21  2  0  0  0
 20 97  1  0  0  0
 21 23  1  0  0  0
 22 28  1  0  0  0
 22 32  2  0  0  0
 26 27  1  0  0  0
 28 98  1  0  0  0
 28 99  1  0  0  0
 29100  1  0  0  0
 29101  1  0  0  0
 33 34  1  0  0  0
 33 66  1  0  0  0
 33 70  2  0  0  0
 34 36  1  0  0  0
 34 59  1  0  0  0
 34102  1  0  0  0
 35 44  2  0  0  0
 35 45  1  0  0  0
 35 68  1  0  0  0
 36 56  1  0  0  0
 36103  1  0  0  0
 37 39  1  0  0  0
 37 47  1  0  0  0
 37 66  1  0  0  0
 37104  1  0  0  0
 38 43  2  0  0  0
 38 46  1  0  0  0
 38 47  1  0  0  0
 39 64  1  0  0  0
 39 67  2  0  0  0
 40 52  1  0  0  0
 40 53  2  0  0  0
 40 58  1  0  0  0
 41105  1  0  0  0
 41106  1  0  0  0
 41107  1  0  0  0
 41 48  1  0  0  0
 42 43  1  0  0  0
 42 66  1  0  0  0
 42108  1  0  0  0
 42109  1  0  0  0
 43 44  1  0  0  0
 44110  1  0  0  0
 45 46  2  0  0  0
 45111  1  0  0  0
 46112  1  0  0  0
 47113  1  0  0  0
 47114  1  0  0  0
 48 56  1  0  0  0
 48 65  1  0  0  0
 48115  1  0  0  0
 49 50  1  0  0  0
 49 53  1  0  0  0
 49 64  1  0  0  0
 49116  1  0  0  0
 50 51  1  0  0  0
 50117  1  0  0  0
 50118  1  0  0  0
 51 52  1  0  0  0
 51119  1  0  0  0
 51120  1  0  0  0
 52121  1  0  0  0
 52122  1  0  0  0
 53 54  1  0  0  0
 54 55  2  0  0  0
 54123  1  0  0  0
 55 57  1  0  0  0
 55124  1  0  0  0
 56 69  2  0  0  0
 57 58  2  0  0  0
 57125  1  0  0  0
 58126  1  0  0  0
 59 60  1  0  0  0
 59 61  1  0  0  0
 59 62  1  0  0  0
 60127  1  0  0  0
 60128  1  0  0  0
 60129  1  0  0  0
 61130  1  0  0  0
 61131  1  0  0  0
 61132  1  0  0  0
 62133  1  0  0  0
 62134  1  0  0  0
 62135  1  0  0  0
 63 65  1  0  0  0
 63136  1  0  0  0
 63137  1  0  0  0
 63138  1  0  0  0
 64139  1  0  0  0
 65140  1  0  0  0
 68 77  1  0  0  0
 71 77  1  0  0  0
 71 79  1  0  0  0
 71 81  2  0  0  0
 72141  1  0  0  0
 72142  1  0  0  0
 72143  1  0  0  0
 72 78  1  0  0  0
 73 78  1  0  0  0
 73144  1  0  0  0
 73145  1  0  0  0
 73146  1  0  0  0
 74 75  1  0  0  0
 74 76  1  0  0  0
 74147  1  0  0  0
 74148  1  0  0  0
 75 79  1  0  0  0
 75149  1  0  0  0
 75150  1  0  0  0
 76 80  1  0  0  0
 76151  1  0  0  0
 76152  1  0  0  0
 77 78  1  0  0  0
 77153  1  0  0  0
 78154  1  0  0  0
 79155  1  0  0  0
 80156  1  0  0  0
M  ISO  4   1 100  68 101  77 101  80 100
M  END
> <chiral flag>
0

> <version>
0

> <s_m_source_file>
/data/baiqing/PycharmProjects/Reinvent-master-3.2/result/LINK_invent/BTK/process_docking_weight1_custom_sum_contain_oxygen_bond_distance_aromatic_linkinvent_7_9_3/rearranged_h_0107.sdf

> <i_m_source_file_index>
87

> <r_mmod_Potential_Energy-OPLS-2005>
584.93017578125

> <r_mmod_Stretch_Energy-OPLS-2005>
297.829467773438

> <r_mmod_Bend_Energy-OPLS-2005>
283.289794921875

> <r_mmod_Torsional_Energy-OPLS-2005>
233.222259521484

> <r_mmod_Improper_Torsional_Energy-OPLS-2005>
5.12757062911987

> <r_mmod_Van_der_Waal_Energy-OPLS-2005>
121.23348236084

> <r_mmod_Electrostatic_Energy-OPLS-2005>
-324.888702392578

> <r_mmod_Solvation_Energy-OPLS-2005>
-243.449615478516

> <b_mmod_Minimization_Converged-OPLS-2005>
0

> <r_mmod_RMS_Derivative-OPLS-2005>
10.3559627532959

$$$$
89
                    3D
 Structure written by MMmdl.
162170  0  0  1  0            999 V2000
  -30.6570  -14.4716   20.6031 C   0  0  0  0  0  0
  -30.4351  -12.3071   19.4218 C   0  0  0  0  0  0
  -29.4987  -12.5269   18.2112 C   0  0  0  0  0  0
  -28.0198  -12.3805   18.6225 C   0  0  0  0  0  0
  -27.6704  -13.2002   19.8919 C   0  0  2  0  0  0
  -28.7079  -12.9344   21.0079 C   0  0  0  0  0  0
  -25.2626  -13.8174   20.5675 C   0  0  0  0  0  0
  -24.1869  -13.0464   20.9127 C   0  0  0  0  0  0
  -24.6400  -11.6930   20.8708 C   0  0  0  0  0  0
  -23.9058  -10.4327   21.0413 C   0  0  0  0  0  0
  -24.3629   -9.4265   21.9189 C   0  0  0  0  0  0
  -23.6332   -8.2286   22.0748 C   0  0  0  0  0  0
  -22.4301   -8.0316   21.3558 C   0  0  0  0  0  0
  -21.9930   -9.0270   20.4643 C   0  0  0  0  0  0
  -22.7236  -10.2172   20.3055 C   0  0  0  0  0  0
  -21.6884   -6.0757   22.5273 C   0  0  0  0  0  0
  -21.4001   -6.5647   23.8196 C   0  0  0  0  0  0
  -21.3651   -5.6804   24.9164 C   0  0  0  0  0  0
  -21.6070   -4.3068   24.7211 C   0  0  0  0  0  0
  -21.8831   -3.8158   23.4334 C   0  0  0  0  0  0
  -21.9207   -4.6980   22.3397 C   0  0  0  0  0  0
  -22.7890  -13.5256   21.1865 C   0  0  0  0  0  0
  -22.1703   -4.2180   21.0973 F   0  0  0  0  0  0
  -21.5639   -3.4546   25.7715 F   0  0  0  0  0  0
  -30.0452  -13.2604   20.4761 N   0  0  0  0  0  0
  -26.3072  -12.9335   20.3436 N   0  0  0  0  0  0
  -25.9332  -11.6500   20.5744 N   0  0  0  0  0  0
  -22.0606  -12.8165   22.0429 N   0  0  0  0  0  0
  -25.4375  -15.1881   20.4060 N   0  0  0  0  0  0
  -31.7327  -14.7480   20.0618 O   0  0  0  0  0  0
  -21.6686   -6.8900   21.4238 O   0  0  0  0  0  0
  -22.3545  -14.5581   20.6781 O   0  0  0  0  0  0
  -24.6149  -31.8688   23.2062 C   0  0  0  0  0  0
  -25.9041  -32.4816   23.8382 C   0  0  1  0  0  0
  -27.2429  -27.4380   20.0931 C   0  0  0  0  0  0
  -25.5914  -33.8615   24.2319 N   0  0  0  0  0  0
  -23.4020  -30.4887   21.5495 C   0  0  2  0  0  0
  -24.8497  -28.9523   20.1134 C   0  0  0  0  0  0
  -22.7423  -29.4673   22.5030 C   0  0  0  0  0  0
  -18.0272  -28.1417   22.8482 C   0  0  0  0  0  0
  -24.1483  -36.7297   23.2636 C   0  0  0  0  0  0
  -25.9291  -30.8297   21.3635 C   0  0  0  0  0  0
  -26.0067  -29.4623   20.7163 C   0  0  0  0  0  0
  -27.1998  -28.7038   20.7174 C   0  0  0  0  0  0
  -26.0711  -26.9430   19.4782 C   0  0  0  0  0  0
  -24.8768  -27.6897   19.4947 C   0  0  0  0  0  0
  -23.6057  -29.8098   20.1674 C   0  0  0  0  0  0
  -25.4118  -36.3102   24.0324 C   0  0  1  0  0  0
  -20.5860  -28.3680   23.1330 C   0  0  2  0  0  0
  -20.6776  -26.9423   22.5408 C   0  0  0  0  0  0
  -19.5746  -26.6410   21.5227 C   0  0  0  0  0  0
  -18.1927  -26.7966   22.1619 C   0  0  0  0  0  0
  -19.1524  -28.8871   23.2900 C   0  0  0  0  0  0
  -18.9440  -30.1485   23.8885 C   0  0  0  0  0  0
  -17.6436  -30.6600   24.0583 C   0  0  0  0  0  0
  -25.9039  -34.9460   23.5116 C   0  0  0  0  0  0
  -16.5332  -29.9074   23.6357 C   0  0  0  0  0  0
  -16.7258  -28.6514   23.0337 C   0  0  0  0  0  0
  -26.4479  -31.6599   25.0706 C   0  0  0  0  0  0
  -25.3720  -31.3691   26.1433 C   0  0  0  0  0  0
  -27.0361  -30.3052   24.6112 C   0  0  0  0  0  0
  -27.6061  -32.4340   25.7456 C   0  0  0  0  0  0
  -27.5590  -37.1803   24.8465 C   0  0  0  0  0  0
  -21.4161  -29.3014   22.3740 N   0  0  0  0  0  0
  -26.4306  -37.3788   23.9385 N   0  0  0  0  0  0
  -24.6657  -31.0780   22.0978 N   0  0  0  0  0  0
  -23.4194  -28.8283   23.3113 O   0  0  0  0  0  0
  -28.4071  -26.7005   20.1612 O   0  0  0  0  0  0
  -26.5601  -34.8915   22.4676 O   0  0  0  0  0  0
  -23.5338  -32.1444   23.7461 O   0  0  0  0  0  0
  -29.7297  -19.9182   20.1804 C   0  0  0  0  0  0
  -29.1731  -21.1460   20.4375 C   0  0  0  0  0  0
  -29.0065  -21.1333   21.8564 C   0  0  0  0  0  0
  -28.3889  -22.1964   22.7236 C   0  0  0  0  0  0
  -29.1419  -24.3545   17.2360 C   0  0  0  0  0  0
  -28.7582  -22.1968   19.4161 C   0  0  0  0  0  0
  -29.1639  -23.6691   19.7092 C   0  0  0  0  0  0
  -30.4248  -17.8909   21.6190 C   0  0  0  0  0  0
  -29.6890  -16.7943   20.8106 C   0  0  0  0  0  0
  -28.9471  -26.1673   18.9564 C   0  0  0  0  0  0
  -28.6248  -24.6760   18.6540 C   0  0  1  0  0  0
  -29.4418  -20.0003   22.4048 N   0  0  0  0  0  0
  -29.8752  -19.2344   21.3739 N   0  0  0  0  0  0
  -29.9099  -15.3979   21.2324 N   0  0  0  0  0  0
  -31.4806  -12.4213   19.1246 H   0  0  0  0  0  0
  -30.3419  -11.2827   19.7860 H   0  0  0  0  0  0
  -29.7328  -11.8255   17.4089 H   0  0  0  0  0  0
  -29.6626  -13.5224   17.7964 H   0  0  0  0  0  0
  -27.8267  -11.3227   18.7996 H   0  0  0  0  0  0
  -27.3711  -12.6791   17.7978 H   0  0  0  0  0  0
  -27.7241  -14.2547   19.6180 H   0  0  0  0  0  0
  -28.6801  -11.8843   21.3024 H   0  0  0  0  0  0
  -28.4583  -13.4812   21.9186 H   0  0  0  0  0  0
  -25.2804   -9.5766   22.4736 H   0  0  0  0  0  0
  -24.0114   -7.4659   22.7416 H   0  0  0  0  0  0
  -21.0912   -8.8753   19.8887 H   0  0  0  0  0  0
  -22.3718  -10.9707   19.6141 H   0  0  0  0  0  0
  -21.1973   -7.6150   23.9696 H   0  0  0  0  0  0
  -21.1468   -6.0539   25.9073 H   0  0  0  0  0  0
  -22.0611   -2.7619   23.2801 H   0  0  0  0  0  0
  -22.4277  -11.9780   22.4682 H   0  0  0  0  0  0
  -21.1200  -13.1072   22.2671 H   0  0  0  0  0  0
  -24.6674  -15.8436   20.4964 H   0  0  0  0  0  0
  -26.2958  -15.6282   20.1051 H   0  0  0  0  0  0
  -26.7124  -32.5531   23.1160 H   0  0  0  0  0  0
  -25.0121  -33.9781   25.0513 H   0  0  0  0  0  0
  -22.6889  -31.3035   21.4089 H   0  0  0  0  0  0
  -23.3745  -35.9630   23.3306 H   0  0  0  0  0  0
  -24.3581  -36.8919   22.2048 H   0  0  0  0  0  0
  -23.7225  -37.6496   23.6660 H   0  0  0  0  0  0
  -26.0474  -31.5947   20.5951 H   0  0  0  0  0  0
  -26.8153  -30.8831   21.9832 H   0  0  0  0  0  0
  -28.0913  -29.0894   21.1938 H   0  0  0  0  0  0
  -26.0510  -25.9801   18.9963 H   0  0  0  0  0  0
  -23.9863  -27.2895   19.0294 H   0  0  0  0  0  0
  -23.6949  -30.5742   19.3958 H   0  0  0  0  0  0
  -22.7310  -29.2167   19.8909 H   0  0  0  0  0  0
  -25.1302  -36.1987   25.0821 H   0  0  0  0  0  0
  -20.9946  -28.3233   24.1459 H   0  0  0  0  0  0
  -20.5752  -26.2269   23.3576 H   0  0  0  0  0  0
  -21.6639  -26.7523   22.1165 H   0  0  0  0  0  0
  -19.6892  -25.6316   21.1256 H   0  0  0  0  0  0
  -19.6703  -27.3219   20.6759 H   0  0  0  0  0  0
  -17.4213  -26.6744   21.3998 H   0  0  0  0  0  0
  -18.0292  -26.0132   22.9025 H   0  0  0  0  0  0
  -19.7910  -30.7356   24.2219 H   0  0  0  0  0  0
  -17.4961  -31.6281   24.5190 H   0  0  0  0  0  0
  -15.5312  -30.2956   23.7706 H   0  0  0  0  0  0
  -15.8676  -28.0844   22.7005 H   0  0  0  0  0  0
  -24.5884  -30.7089   25.7698 H   0  0  0  0  0  0
  -24.8907  -32.2819   26.4941 H   0  0  0  0  0  0
  -25.8006  -30.8772   27.0163 H   0  0  0  0  0  0
  -26.2922  -29.6737   24.1236 H   0  0  0  0  0  0
  -27.4230  -29.7389   25.4596 H   0  0  0  0  0  0
  -27.8697  -30.4394   23.9219 H   0  0  0  0  0  0
  -27.2714  -33.3652   26.2047 H   0  0  0  0  0  0
  -28.3838  -32.6901   25.0242 H   0  0  0  0  0  0
  -28.0771  -31.8461   26.5348 H   0  0  0  0  0  0
  -28.2625  -38.0094   24.7547 H   0  0  0  0  0  0
  -28.1087  -36.2631   24.6283 H   0  0  0  0  0  0
  -27.2299  -37.1434   25.8870 H   0  0  0  0  0  0
  -20.9357  -29.8615   21.6831 H   0  0  0  0  0  0
  -26.0201  -38.2872   24.1375 H   0  0  0  0  0  0
  -30.0030  -19.4614   19.2411 H   0  0  0  0  0  0
  -28.9904  -23.1031   22.7142 H   0  0  0  0  0  0
  -28.2882  -21.8850   23.7641 H   0  0  0  0  0  0
  -27.3963  -22.4666   22.3621 H   0  0  0  0  0  0
  -28.7743  -23.3965   16.8680 H   0  0  0  0  0  0
  -30.2314  -24.3336   17.2082 H   0  0  0  0  0  0
  -28.8141  -25.1050   16.5159 H   0  0  0  0  0  0
  -27.6751  -22.1636   19.2831 H   0  0  0  0  0  0
  -29.1770  -21.9189   18.4482 H   0  0  0  0  0  0
  -30.2480  -23.7516   19.7929 H   0  0  0  0  0  0
  -28.7584  -23.9690   20.6729 H   0  0  0  0  0  0
  -31.4840  -17.9059   21.3591 H   0  0  0  0  0  0
  -30.3651  -17.6747   22.6872 H   0  0  0  0  0  0
  -29.8964  -16.9083   19.7464 H   0  0  0  0  0  0
  -28.6176  -16.9659   20.9294 H   0  0  0  0  0  0
  -28.6426  -26.7983   18.1205 H   0  0  0  0  0  0
  -30.0292  -26.2889   19.0227 H   0  0  0  0  0  0
  -27.5455  -24.5554   18.6309 H   0  0  0  0  0  0
  -29.1277  -14.9915   21.7281 H   0  0  0  0  0  0
  1 25  1  0  0  0
  1 30  2  0  0  0
  1 84  1  0  0  0
  2  3  1  0  0  0
  2 25  1  0  0  0
  2 85  1  0  0  0
  2 86  1  0  0  0
  3  4  1  0  0  0
  3 87  1  0  0  0
  3 88  1  0  0  0
  4  5  1  0  0  0
  4 89  1  0  0  0
  4 90  1  0  0  0
  5  6  1  0  0  0
  5 26  1  0  0  0
  5 91  1  0  0  0
  6 25  1  0  0  0
  6 92  1  0  0  0
  6 93  1  0  0  0
  7  8  2  0  0  0
  7 26  1  0  0  0
  7 29  1  0  0  0
  8  9  1  0  0  0
  8 22  1  0  0  0
  9 10  1  0  0  0
  9 27  2  0  0  0
 10 11  2  0  0  0
 10 15  1  0  0  0
 11 12  1  0  0  0
 11 94  1  0  0  0
 12 13  2  0  0  0
 12 95  1  0  0  0
 13 14  1  0  0  0
 13 31  1  0  0  0
 14 15  2  0  0  0
 14 96  1  0  0  0
 15 97  1  0  0  0
 16 17  2  0  0  0
 16 21  1  0  0  0
 16 31  1  0  0  0
 17 18  1  0  0  0
 17 98  1  0  0  0
 18 19  2  0  0  0
 18 99  1  0  0  0
 19 20  1  0  0  0
 19 24  1  0  0  0
 20 21  2  0  0  0
 20100  1  0  0  0
 21 23  1  0  0  0
 22 28  1  0  0  0
 22 32  2  0  0  0
 26 27  1  0  0  0
 28101  1  0  0  0
 28102  1  0  0  0
 29103  1  0  0  0
 29104  1  0  0  0
 33 34  1  0  0  0
 33 66  1  0  0  0
 33 70  2  0  0  0
 34 36  1  0  0  0
 34 59  1  0  0  0
 34105  1  0  0  0
 35 44  2  0  0  0
 35 45  1  0  0  0
 35 68  1  0  0  0
 36 56  1  0  0  0
 36106  1  0  0  0
 37 39  1  0  0  0
 37 47  1  0  0  0
 37 66  1  0  0  0
 37107  1  0  0  0
 38 43  2  0  0  0
 38 46  1  0  0  0
 38 47  1  0  0  0
 39 64  1  0  0  0
 39 67  2  0  0  0
 40 52  1  0  0  0
 40 53  2  0  0  0
 40 58  1  0  0  0
 41108  1  0  0  0
 41109  1  0  0  0
 41110  1  0  0  0
 41 48  1  0  0  0
 42 43  1  0  0  0
 42 66  1  0  0  0
 42111  1  0  0  0
 42112  1  0  0  0
 43 44  1  0  0  0
 44113  1  0  0  0
 45 46  2  0  0  0
 45114  1  0  0  0
 46115  1  0  0  0
 47116  1  0  0  0
 47117  1  0  0  0
 48 56  1  0  0  0
 48 65  1  0  0  0
 48118  1  0  0  0
 49 50  1  0  0  0
 49 53  1  0  0  0
 49 64  1  0  0  0
 49119  1  0  0  0
 50 51  1  0  0  0
 50120  1  0  0  0
 50121  1  0  0  0
 51 52  1  0  0  0
 51122  1  0  0  0
 51123  1  0  0  0
 52124  1  0  0  0
 52125  1  0  0  0
 53 54  1  0  0  0
 54 55  2  0  0  0
 54126  1  0  0  0
 55 57  1  0  0  0
 55127  1  0  0  0
 56 69  2  0  0  0
 57 58  2  0  0  0
 57128  1  0  0  0
 58129  1  0  0  0
 59 60  1  0  0  0
 59 61  1  0  0  0
 59 62  1  0  0  0
 60130  1  0  0  0
 60131  1  0  0  0
 60132  1  0  0  0
 61133  1  0  0  0
 61134  1  0  0  0
 61135  1  0  0  0
 62136  1  0  0  0
 62137  1  0  0  0
 62138  1  0  0  0
 63 65  1  0  0  0
 63139  1  0  0  0
 63140  1  0  0  0
 63141  1  0  0  0
 64142  1  0  0  0
 65143  1  0  0  0
 68 80  1  0  0  0
 71 72  2  0  0  0
 71 83  1  0  0  0
 71144  1  0  0  0
 72 73  1  0  0  0
 72 76  1  0  0  0
 73 74  1  0  0  0
 73 82  2  0  0  0
 74145  1  0  0  0
 74146  1  0  0  0
 74147  1  0  0  0
 75148  1  0  0  0
 75149  1  0  0  0
 75150  1  0  0  0
 75 81  1  0  0  0
 76 77  1  0  0  0
 76151  1  0  0  0
 76152  1  0  0  0
 77 81  1  0  0  0
 77153  1  0  0  0
 77154  1  0  0  0
 78 79  1  0  0  0
 78 83  1  0  0  0
 78155  1  0  0  0
 78156  1  0  0  0
 79 84  1  0  0  0
 79157  1  0  0  0
 79158  1  0  0  0
 80 81  1  0  0  0
 80159  1  0  0  0
 80160  1  0  0  0
 81161  1  0  0  0
 82 83  1  0  0  0
 84162  1  0  0  0
M  ISO  4   1 100  68 101  80 101  84 100
M  END
> <chiral flag>
0

> <version>
0

> <s_m_source_file>
/data/baiqing/PycharmProjects/Reinvent-master-3.2/result/LINK_invent/BTK/process_docking_weight1_custom_sum_contain_oxygen_bond_distance_aromatic_linkinvent_7_9_3/rearranged_h_0107.sdf

> <i_m_source_file_index>
88

> <r_mmod_Potential_Energy-OPLS-2005>
-86.8352661132812

> <r_mmod_Stretch_Energy-OPLS-2005>
36.9620742797852

> <r_mmod_Bend_Energy-OPLS-2005>
106.665657043457

> <r_mmod_Torsional_Energy-OPLS-2005>
240.419891357422

> <r_mmod_Improper_Torsional_Energy-OPLS-2005>
6.43025922775269

> <r_mmod_Van_der_Waal_Energy-OPLS-2005>
124.587440490723

> <r_mmod_Electrostatic_Energy-OPLS-2005>
-392.954315185547

> <r_mmod_Solvation_Energy-OPLS-2005>
-223.008041381836

> <b_mmod_Minimization_Converged-OPLS-2005>
0

> <r_mmod_RMS_Derivative-OPLS-2005>
4.27900075912476

$$$$
90
                    3D
 Structure written by MMmdl.
178186  0  0  1  0            999 V2000
  -30.8125  -14.3296   20.7416 C   0  0  0  0  0  0
  -30.4138  -12.3051   19.3819 C   0  0  0  0  0  0
  -29.4778  -12.5392   18.1851 C   0  0  0  0  0  0
  -28.0069  -12.3816   18.6084 C   0  0  0  0  0  0
  -27.6655  -13.2054   19.8762 C   0  0  2  0  0  0
  -28.7043  -12.9617   20.9926 C   0  0  0  0  0  0
  -25.2607  -13.8163   20.5671 C   0  0  0  0  0  0
  -24.1852  -13.0443   20.9163 C   0  0  0  0  0  0
  -24.6401  -11.6909   20.8725 C   0  0  0  0  0  0
  -23.9066  -10.4295   21.0400 C   0  0  0  0  0  0
  -24.3614   -9.4213   21.9179 C   0  0  0  0  0  0
  -23.6291   -8.2248   22.0752 C   0  0  0  0  0  0
  -22.4273   -8.0283   21.3543 C   0  0  0  0  0  0
  -21.9908   -9.0258   20.4645 C   0  0  0  0  0  0
  -22.7236  -10.2138   20.3053 C   0  0  0  0  0  0
  -21.6853   -6.0739   22.5279 C   0  0  0  0  0  0
  -21.4013   -6.5641   23.8212 C   0  0  0  0  0  0
  -21.3659   -5.6794   24.9173 C   0  0  0  0  0  0
  -21.6043   -4.3056   24.7225 C   0  0  0  0  0  0
  -21.8820   -3.8149   23.4343 C   0  0  0  0  0  0
  -21.9192   -4.6967   22.3402 C   0  0  0  0  0  0
  -22.7877  -13.5242   21.1834 C   0  0  0  0  0  0
  -22.1662   -4.2151   21.0980 F   0  0  0  0  0  0
  -21.5628   -3.4539   25.7740 F   0  0  0  0  0  0
  -30.0508  -13.2417   20.4562 N   0  0  0  0  0  0
  -26.3046  -12.9331   20.3366 N   0  0  0  0  0  0
  -25.9327  -11.6488   20.5749 N   0  0  0  0  0  0
  -22.0514  -12.8237   22.0391 N   0  0  0  0  0  0
  -25.4350  -15.1879   20.4091 N   0  0  0  0  0  0
  -31.7609  -14.6857   20.0375 O   0  0  0  0  0  0
  -21.6637   -6.8880   21.4240 O   0  0  0  0  0  0
  -22.3564  -14.5553   20.6691 O   0  0  0  0  0  0
  -24.6120  -31.8694   23.2119 C   0  0  0  0  0  0
  -25.9016  -32.4835   23.8411 C   0  0  1  0  0  0
  -27.2351  -27.4565   20.0878 C   0  0  0  0  0  0
  -25.5875  -33.8634   24.2338 N   0  0  0  0  0  0
  -23.3999  -30.4922   21.5525 C   0  0  2  0  0  0
  -24.8476  -28.9588   20.1184 C   0  0  0  0  0  0
  -22.7403  -29.4661   22.5013 C   0  0  0  0  0  0
  -18.0272  -28.1372   22.8496 C   0  0  0  0  0  0
  -24.1483  -36.7330   23.2642 C   0  0  0  0  0  0
  -25.9273  -30.8386   21.3650 C   0  0  0  0  0  0
  -26.0061  -29.4730   20.7158 C   0  0  0  0  0  0
  -27.2054  -28.7262   20.7032 C   0  0  0  0  0  0
  -26.0643  -26.9500   19.4896 C   0  0  0  0  0  0
  -24.8689  -27.6931   19.5066 C   0  0  0  0  0  0
  -23.6084  -29.8241   20.1673 C   0  0  0  0  0  0
  -25.4105  -36.3127   24.0340 C   0  0  1  0  0  0
  -20.5859  -28.3655   23.1331 C   0  0  2  0  0  0
  -20.6769  -26.9397   22.5423 C   0  0  0  0  0  0
  -19.5746  -26.6383   21.5219 C   0  0  0  0  0  0
  -18.1922  -26.7920   22.1626 C   0  0  0  0  0  0
  -19.1520  -28.8830   23.2910 C   0  0  0  0  0  0
  -18.9449  -30.1440   23.8915 C   0  0  0  0  0  0
  -17.6452  -30.6585   24.0565 C   0  0  0  0  0  0
  -25.9026  -34.9487   23.5139 C   0  0  0  0  0  0
  -16.5345  -29.9087   23.6323 C   0  0  0  0  0  0
  -16.7263  -28.6503   23.0347 C   0  0  0  0  0  0
  -26.4451  -31.6609   25.0730 C   0  0  0  0  0  0
  -25.3729  -31.3698   26.1487 C   0  0  0  0  0  0
  -27.0285  -30.3061   24.6083 C   0  0  0  0  0  0
  -27.6030  -32.4331   25.7483 C   0  0  0  0  0  0
  -27.5585  -37.1817   24.8464 C   0  0  0  0  0  0
  -21.4135  -29.3023   22.3747 N   0  0  0  0  0  0
  -26.4301  -37.3803   23.9402 N   0  0  0  0  0  0
  -24.6642  -31.0809   22.1015 N   0  0  0  0  0  0
  -23.4182  -28.8210   23.3052 O   0  0  0  0  0  0
  -28.3923  -26.7180   20.0375 O   0  0  0  0  0  0
  -26.5606  -34.8931   22.4710 O   0  0  0  0  0  0
  -23.5316  -32.1440   23.7518 O   0  0  0  0  0  0
  -29.8115  -20.3553   22.2107 C   0  0  0  0  0  0
  -28.8718  -22.1191   25.5147 C   0  0  0  0  0  0
  -27.8216  -23.0006   24.8577 C   0  0  0  0  0  0
  -29.2310  -21.0276   24.5146 C   0  0  0  0  0  0
  -28.3948  -23.6521   23.5939 C   0  0  0  0  0  0
  -29.7689  -21.5732   23.1614 C   0  0  2  0  0  0
  -27.6869  -23.6187   19.9394 C   0  0  0  0  0  0
  -31.2509  -14.9125   24.2323 C   0  0  0  0  0  0
  -32.8900  -15.6794   22.5405 C   0  0  0  0  0  0
  -30.8330  -17.0918   23.0916 C   0  0  0  0  0  0
  -30.8906  -18.0911   21.9109 C   0  0  0  0  0  0
  -29.7134  -23.4425   21.5166 C   0  0  0  0  0  0
  -28.5394  -25.7695   21.0965 C   0  0  0  0  0  0
  -28.8896  -24.3546   20.5555 C   0  0  2  0  0  0
  -31.3801  -15.6505   22.8841 C   0  0  0  0  0  0
  -30.7765  -19.4533   22.4411 N   0  0  0  0  0  0
  -30.5499  -14.8707   21.9453 N   0  0  0  0  0  0
  -28.9561  -22.7027   22.5827 N   0  3  2  0  0  0
  -28.9443  -20.2107   21.3464 O   0  0  0  0  0  0
  -31.4555  -12.4105   19.0727 H   0  0  0  0  0  0
  -30.3176  -11.2806   19.7443 H   0  0  0  0  0  0
  -29.7122  -11.8407   17.3806 H   0  0  0  0  0  0
  -29.6408  -13.5396   17.7806 H   0  0  0  0  0  0
  -27.8230  -11.3222   18.7922 H   0  0  0  0  0  0
  -27.3479  -12.6666   17.7873 H   0  0  0  0  0  0
  -27.7206  -14.2584   19.5982 H   0  0  0  0  0  0
  -28.6641  -11.9249   21.3300 H   0  0  0  0  0  0
  -28.4428  -13.5633   21.8635 H   0  0  0  0  0  0
  -25.2762   -9.5688   22.4751 H   0  0  0  0  0  0
  -24.0003   -7.4640   22.7473 H   0  0  0  0  0  0
  -21.0838   -8.8775   19.8954 H   0  0  0  0  0  0
  -22.3693  -10.9673   19.6160 H   0  0  0  0  0  0
  -21.2006   -7.6149   23.9716 H   0  0  0  0  0  0
  -21.1478   -6.0523   25.9076 H   0  0  0  0  0  0
  -22.0599   -2.7611   23.2844 H   0  0  0  0  0  0
  -22.4127  -11.9895   22.4778 H   0  0  0  0  0  0
  -21.1132  -13.1260   22.2587 H   0  0  0  0  0  0
  -24.6751  -15.8497   20.5227 H   0  0  0  0  0  0
  -26.2986  -15.6238   20.1098 H   0  0  0  0  0  0
  -26.7089  -32.5552   23.1185 H   0  0  0  0  0  0
  -25.0003  -33.9799   25.0465 H   0  0  0  0  0  0
  -22.6880  -31.3081   21.4133 H   0  0  0  0  0  0
  -23.3739  -35.9668   23.3318 H   0  0  0  0  0  0
  -24.3576  -36.8936   22.2055 H   0  0  0  0  0  0
  -23.7241  -37.6541   23.6649 H   0  0  0  0  0  0
  -26.0378  -31.6040   20.5953 H   0  0  0  0  0  0
  -26.8159  -30.8935   21.9817 H   0  0  0  0  0  0
  -28.1032  -29.1201   21.1582 H   0  0  0  0  0  0
  -26.0745  -25.9876   19.0020 H   0  0  0  0  0  0
  -23.9786  -27.2914   19.0424 H   0  0  0  0  0  0
  -23.7154  -30.5987   19.4066 H   0  0  0  0  0  0
  -22.7324  -29.2432   19.8733 H   0  0  0  0  0  0
  -25.1277  -36.2008   25.0835 H   0  0  0  0  0  0
  -20.9943  -28.3224   24.1456 H   0  0  0  0  0  0
  -20.5684  -26.2264   23.3608 H   0  0  0  0  0  0
  -21.6642  -26.7462   22.1206 H   0  0  0  0  0  0
  -19.6914  -25.6298   21.1239 H   0  0  0  0  0  0
  -19.6686  -27.3207   20.6756 H   0  0  0  0  0  0
  -17.4198  -26.6672   21.4026 H   0  0  0  0  0  0
  -18.0314  -26.0058   22.9013 H   0  0  0  0  0  0
  -19.7929  -30.7243   24.2300 H   0  0  0  0  0  0
  -17.5015  -31.6267   24.5160 H   0  0  0  0  0  0
  -15.5348  -30.2995   23.7640 H   0  0  0  0  0  0
  -15.8662  -28.0833   22.7047 H   0  0  0  0  0  0
  -24.5890  -30.7058   25.7829 H   0  0  0  0  0  0
  -24.8923  -32.2843   26.4977 H   0  0  0  0  0  0
  -25.8087  -30.8842   27.0227 H   0  0  0  0  0  0
  -26.2825  -29.6826   24.1139 H   0  0  0  0  0  0
  -27.4079  -29.7289   25.4524 H   0  0  0  0  0  0
  -27.8645  -30.4400   23.9213 H   0  0  0  0  0  0
  -27.2656  -33.3622   26.2093 H   0  0  0  0  0  0
  -28.3814  -32.6916   25.0291 H   0  0  0  0  0  0
  -28.0728  -31.8440   26.5371 H   0  0  0  0  0  0
  -28.2608  -38.0111   24.7518 H   0  0  0  0  0  0
  -28.1077  -36.2643   24.6285 H   0  0  0  0  0  0
  -27.2301  -37.1472   25.8868 H   0  0  0  0  0  0
  -20.9301  -29.8754   21.6977 H   0  0  0  0  0  0
  -26.0198  -38.2886   24.1395 H   0  0  0  0  0  0
  -28.4800  -21.6797   26.4330 H   0  0  0  0  0  0
  -29.7535  -22.7002   25.7904 H   0  0  0  0  0  0
  -27.4974  -23.7744   25.5546 H   0  0  0  0  0  0
  -26.9314  -22.4184   24.6152 H   0  0  0  0  0  0
  -28.3468  -20.4083   24.3483 H   0  0  0  0  0  0
  -29.9700  -20.3647   24.9679 H   0  0  0  0  0  0
  -29.1606  -24.3725   23.8863 H   0  0  0  0  0  0
  -27.5816  -24.2142   23.1451 H   0  0  0  0  0  0
  -30.7845  -21.9384   23.3237 H   0  0  0  0  0  0
  -27.9695  -22.6258   19.5861 H   0  0  0  0  0  0
  -27.3017  -24.1583   19.0761 H   0  0  0  0  0  0
  -26.8687  -23.5033   20.6500 H   0  0  0  0  0  0
  -31.8274  -15.4039   25.0172 H   0  0  0  0  0  0
  -31.6126  -13.8853   24.1649 H   0  0  0  0  0  0
  -30.2158  -14.8709   24.5749 H   0  0  0  0  0  0
  -33.4581  -16.1996   23.3129 H   0  0  0  0  0  0
  -33.1024  -16.1893   21.6016 H   0  0  0  0  0  0
  -33.3050  -14.6734   22.4641 H   0  0  0  0  0  0
  -29.8010  -17.0402   23.4433 H   0  0  0  0  0  0
  -31.3902  -17.5248   23.9247 H   0  0  0  0  0  0
  -30.1099  -17.8650   21.1822 H   0  0  0  0  0  0
  -31.8409  -18.0228   21.3830 H   0  0  0  0  0  0
  -30.5209  -24.0194   21.9711 H   0  0  0  0  0  0
  -30.2203  -22.7144   20.8821 H   0  0  0  0  0  0
  -29.3431  -26.1330   21.7375 H   0  0  0  0  0  0
  -27.6416  -25.7436   21.7128 H   0  0  0  0  0  0
  -29.5789  -24.5444   19.7303 H   0  0  0  0  0  0
  -31.4571  -19.7035   23.1472 H   0  0  0  0  0  0
  -29.7177  -14.4813   22.3622 H   0  0  0  0  0  0
  -28.1896  -22.2242   22.1286 H   0  0  0  0  0  0
  1 25  1  0  0  0
  1 30  2  0  0  0
  1 87  1  0  0  0
  2  3  1  0  0  0
  2 25  1  0  0  0
  2 90  1  0  0  0
  2 91  1  0  0  0
  3  4  1  0  0  0
  3 92  1  0  0  0
  3 93  1  0  0  0
  4  5  1  0  0  0
  4 94  1  0  0  0
  4 95  1  0  0  0
  5  6  1  0  0  0
  5 26  1  0  0  0
  5 96  1  0  0  0
  6 25  1  0  0  0
  6 97  1  0  0  0
  6 98  1  0  0  0
  7  8  2  0  0  0
  7 26  1  0  0  0
  7 29  1  0  0  0
  8  9  1  0  0  0
  8 22  1  0  0  0
  9 10  1  0  0  0
  9 27  2  0  0  0
 10 11  2  0  0  0
 10 15  1  0  0  0
 11 12  1  0  0  0
 11 99  1  0  0  0
 12 13  2  0  0  0
 12100  1  0  0  0
 13 14  1  0  0  0
 13 31  1  0  0  0
 14 15  2  0  0  0
 14101  1  0  0  0
 15102  1  0  0  0
 16 17  2  0  0  0
 16 21  1  0  0  0
 16 31  1  0  0  0
 17 18  1  0  0  0
 17103  1  0  0  0
 18 19  2  0  0  0
 18104  1  0  0  0
 19 20  1  0  0  0
 19 24  1  0  0  0
 20 21  2  0  0  0
 20105  1  0  0  0
 21 23  1  0  0  0
 22 28  1  0  0  0
 22 32  2  0  0  0
 26 27  1  0  0  0
 28106  1  0  0  0
 28107  1  0  0  0
 29108  1  0  0  0
 29109  1  0  0  0
 33 34  1  0  0  0
 33 66  1  0  0  0
 33 70  2  0  0  0
 34 36  1  0  0  0
 34 59  1  0  0  0
 34110  1  0  0  0
 35 44  2  0  0  0
 35 45  1  0  0  0
 35 68  1  0  0  0
 36 56  1  0  0  0
 36111  1  0  0  0
 37 39  1  0  0  0
 37 47  1  0  0  0
 37 66  1  0  0  0
 37112  1  0  0  0
 38 43  2  0  0  0
 38 46  1  0  0  0
 38 47  1  0  0  0
 39 64  1  0  0  0
 39 67  2  0  0  0
 40 52  1  0  0  0
 40 53  2  0  0  0
 40 58  1  0  0  0
 41113  1  0  0  0
 41114  1  0  0  0
 41115  1  0  0  0
 41 48  1  0  0  0
 42 43  1  0  0  0
 42 66  1  0  0  0
 42116  1  0  0  0
 42117  1  0  0  0
 43 44  1  0  0  0
 44118  1  0  0  0
 45 46  2  0  0  0
 45119  1  0  0  0
 46120  1  0  0  0
 47121  1  0  0  0
 47122  1  0  0  0
 48 56  1  0  0  0
 48 65  1  0  0  0
 48123  1  0  0  0
 49 50  1  0  0  0
 49 53  1  0  0  0
 49 64  1  0  0  0
 49124  1  0  0  0
 50 51  1  0  0  0
 50125  1  0  0  0
 50126  1  0  0  0
 51 52  1  0  0  0
 51127  1  0  0  0
 51128  1  0  0  0
 52129  1  0  0  0
 52130  1  0  0  0
 53 54  1  0  0  0
 54 55  2  0  0  0
 54131  1  0  0  0
 55 57  1  0  0  0
 55132  1  0  0  0
 56 69  2  0  0  0
 57 58  2  0  0  0
 57133  1  0  0  0
 58134  1  0  0  0
 59 60  1  0  0  0
 59 61  1  0  0  0
 59 62  1  0  0  0
 60135  1  0  0  0
 60136  1  0  0  0
 60137  1  0  0  0
 61138  1  0  0  0
 61139  1  0  0  0
 61140  1  0  0  0
 62141  1  0  0  0
 62142  1  0  0  0
 62143  1  0  0  0
 63 65  1  0  0  0
 63144  1  0  0  0
 63145  1  0  0  0
 63146  1  0  0  0
 64147  1  0  0  0
 65148  1  0  0  0
 68 83  1  0  0  0
 71 86  1  0  0  0
 71 89  2  0  0  0
 71 76  1  0  0  0
 72 73  1  0  0  0
 72 74  1  0  0  0
 72149  1  0  0  0
 72150  1  0  0  0
 73 75  1  0  0  0
 73151  1  0  0  0
 73152  1  0  0  0
 74 76  1  0  0  0
 74153  1  0  0  0
 74154  1  0  0  0
 75 88  1  0  0  0
 75155  1  0  0  0
 75156  1  0  0  0
 76 88  1  0  0  0
 76157  1  0  0  0
 77158  1  0  0  0
 77159  1  0  0  0
 77160  1  0  0  0
 77 84  1  0  0  0
 78161  1  0  0  0
 78162  1  0  0  0
 78163  1  0  0  0
 78 85  1  0  0  0
 79 85  1  0  0  0
 79164  1  0  0  0
 79165  1  0  0  0
 79166  1  0  0  0
 80 81  1  0  0  0
 80 85  1  0  0  0
 80167  1  0  0  0
 80168  1  0  0  0
 81 86  1  0  0  0
 81169  1  0  0  0
 81170  1  0  0  0
 82 84  1  0  0  0
 82171  1  0  0  0
 82172  1  0  0  0
 82 88  1  0  0  0
 83 84  1  0  0  0
 83173  1  0  0  0
 83174  1  0  0  0
 84175  1  0  0  0
 85 87  1  0  0  0
 86176  1  0  0  0
 87177  1  0  0  0
 88178  1  0  0  0
M  CHG  1  88   1
M  ISO  4   1 100  68 101  83 101  87 100
M  END
> <chiral flag>
0

> <version>
0

> <s_m_source_file>
/data/baiqing/PycharmProjects/Reinvent-master-3.2/result/LINK_invent/BTK/process_docking_weight1_custom_sum_contain_oxygen_bond_distance_aromatic_linkinvent_7_9_3/rearranged_h_0107.sdf

> <i_m_source_file_index>
89

> <r_mmod_Potential_Energy-OPLS-2005>
-119.88500213623

> <r_mmod_Stretch_Energy-OPLS-2005>
40.632999420166

> <r_mmod_Bend_Energy-OPLS-2005>
131.305114746094

> <r_mmod_Torsional_Energy-OPLS-2005>
292.871246337891

> <r_mmod_Improper_Torsional_Energy-OPLS-2005>
4.53343868255615

> <r_mmod_Van_der_Waal_Energy-OPLS-2005>
140.641967773438

> <r_mmod_Electrostatic_Energy-OPLS-2005>
-315.407165527344

> <r_mmod_Solvation_Energy-OPLS-2005>
-422.30029296875

> <b_mmod_Minimization_Converged-OPLS-2005>
0

> <r_mmod_RMS_Derivative-OPLS-2005>
0.778893768787384

$$$$
91
                    3D
 Structure written by MMmdl.
157165  0  0  1  0            999 V2000
  -30.5444  -14.9931   20.4140 C   0  0  0  0  0  0
  -30.4467  -12.6185   19.5218 C   0  0  0  0  0  0
  -29.5319  -12.5565   18.2776 C   0  0  0  0  0  0
  -28.0727  -12.3098   18.6952 C   0  0  0  0  0  0
  -27.6327  -13.2551   19.8436 C   0  0  2  0  0  0
  -28.6709  -13.3138   20.9878 C   0  0  0  0  0  0
  -25.2464  -13.8256   20.5754 C   0  0  0  0  0  0
  -24.1793  -13.0458   20.9241 C   0  0  0  0  0  0
  -24.6423  -11.6945   20.8756 C   0  0  0  0  0  0
  -23.9091  -10.4315   21.0413 C   0  0  0  0  0  0
  -24.3643   -9.4222   21.9193 C   0  0  0  0  0  0
  -23.6306   -8.2258   22.0763 C   0  0  0  0  0  0
  -22.4287   -8.0302   21.3559 C   0  0  0  0  0  0
  -21.9937   -9.0260   20.4644 C   0  0  0  0  0  0
  -22.7266  -10.2140   20.3048 C   0  0  0  0  0  0
  -21.6856   -6.0748   22.5306 C   0  0  0  0  0  0
  -21.4000   -6.5655   23.8229 C   0  0  0  0  0  0
  -21.3653   -5.6799   24.9202 C   0  0  0  0  0  0
  -21.6044   -4.3058   24.7242 C   0  0  0  0  0  0
  -21.8811   -3.8159   23.4367 C   0  0  0  0  0  0
  -21.9198   -4.6975   22.3403 C   0  0  0  0  0  0
  -22.7787  -13.5186   21.1879 C   0  0  0  0  0  0
  -22.1669   -4.2172   21.0969 F   0  0  0  0  0  0
  -21.5631   -3.4525   25.7742 F   0  0  0  0  0  0
  -29.9527  -13.7251   20.4001 N   0  0  0  0  0  0
  -26.2909  -12.9511   20.3300 N   0  0  0  0  0  0
  -25.9356  -11.6625   20.5760 N   0  0  0  0  0  0
  -22.0426  -12.8176   22.0428 N   0  0  0  0  0  0
  -25.4117  -15.2010   20.4177 N   0  0  0  0  0  0
  -31.7308  -15.0432   20.0683 O   0  0  0  0  0  0
  -21.6642   -6.8901   21.4266 O   0  0  0  0  0  0
  -22.3460  -14.5482   20.6717 O   0  0  0  0  0  0
  -24.6467  -31.8449   23.1834 C   0  0  0  0  0  0
  -25.9223  -32.4735   23.8241 C   0  0  1  0  0  0
  -27.2331  -27.1120   20.1835 C   0  0  0  0  0  0
  -25.5953  -33.8531   24.2199 N   0  0  0  0  0  0
  -23.4526  -30.4568   21.5343 C   0  0  2  0  0  0
  -24.9065  -28.8738   20.1200 C   0  0  0  0  0  0
  -22.7581  -29.4545   22.4901 C   0  0  0  0  0  0
  -18.0319  -28.1395   22.8535 C   0  0  0  0  0  0
  -24.1480  -36.7216   23.2640 C   0  0  0  0  0  0
  -26.0088  -30.7133   21.3834 C   0  0  0  0  0  0
  -26.0838  -29.3171   20.7368 C   0  0  0  0  0  0
  -27.2478  -28.4547   20.7454 C   0  0  0  0  0  0
  -26.0295  -26.7729   19.5290 C   0  0  0  0  0  0
  -24.8940  -27.6156   19.4962 C   0  0  0  0  0  0
  -23.6798  -29.7743   20.1587 C   0  0  0  0  0  0
  -25.4115  -36.3054   24.0343 C   0  0  1  0  0  0
  -20.5929  -28.3713   23.1287 C   0  0  2  0  0  0
  -20.6801  -26.9421   22.5430 C   0  0  0  0  0  0
  -19.5766  -26.6391   21.5251 C   0  0  0  0  0  0
  -18.1944  -26.7949   22.1646 C   0  0  0  0  0  0
  -19.1571  -28.8874   23.2909 C   0  0  0  0  0  0
  -18.9471  -30.1464   23.8931 C   0  0  0  0  0  0
  -17.6465  -30.6605   24.0549 C   0  0  0  0  0  0
  -25.9068  -34.9448   23.5087 C   0  0  0  0  0  0
  -16.5360  -29.9074   23.6349 C   0  0  0  0  0  0
  -16.7298  -28.6478   23.0411 C   0  0  0  0  0  0
  -26.4524  -31.6588   25.0669 C   0  0  0  0  0  0
  -25.3670  -31.3778   26.1317 C   0  0  0  0  0  0
  -27.0392  -30.3015   24.6216 C   0  0  0  0  0  0
  -27.6084  -32.4299   25.7456 C   0  0  0  0  0  0
  -27.5589  -37.1758   24.8475 C   0  0  0  0  0  0
  -21.4267  -29.3027   22.3645 N   0  0  0  0  0  0
  -26.4287  -37.3754   23.9438 N   0  0  0  0  0  0
  -24.7228  -31.0255   22.0904 N   0  0  0  0  0  0
  -23.4212  -28.8107   23.3069 O   0  0  0  0  0  0
  -28.3043  -26.1375   20.2050 O   0  0  0  0  0  0
  -26.5632  -34.8960   22.4651 O   0  0  0  0  0  0
  -23.5581  -32.1328   23.7056 O   0  0  0  0  0  0
  -29.1975  -20.3911   19.8402 C   0  0  0  0  0  0
  -29.2168  -21.7348   20.5521 C   0  0  0  0  0  0
  -29.6718  -21.4422   21.8298 C   0  0  0  0  0  0
  -29.5869  -19.1722   20.5092 C   0  0  0  0  0  0
  -30.1807  -22.3310   22.9058 C   0  0  0  0  0  0
  -30.2804  -23.8555   25.7606 C   0  0  0  0  0  0
  -29.0396  -23.2956   19.9703 C   0  0  0  0  0  0
  -29.9669  -17.6507   19.9584 C   0  0  0  0  0  0
  -30.6109  -22.4050   25.3760 C   0  0  0  0  0  0
  -28.1168  -24.6094   20.5404 C   0  0  0  0  0  0
  -29.9323  -21.9468   24.1656 N   0  0  0  0  0  0
  -29.7939  -16.1989   20.5972 N   0  0  0  0  0  0
  -30.8226  -23.3463   22.6316 O   0  0  0  0  0  0
  -29.9251  -19.6912   22.1411 S   0  0  0  0  0  0
  -31.4761  -12.7765   19.1961 H   0  0  0  0  0  0
  -30.4507  -11.6690   20.0582 H   0  0  0  0  0  0
  -29.8666  -11.7837   17.5859 H   0  0  0  0  0  0
  -29.5994  -13.5032   17.7393 H   0  0  0  0  0  0
  -27.9956  -11.2725   19.0234 H   0  0  0  0  0  0
  -27.4118  -12.4065   17.8328 H   0  0  0  0  0  0
  -27.5901  -14.2488   19.3948 H   0  0  0  0  0  0
  -28.7602  -12.3503   21.4924 H   0  0  0  0  0  0
  -28.3558  -14.0384   21.7395 H   0  0  0  0  0  0
  -25.2801   -9.5692   22.4763 H   0  0  0  0  0  0
  -23.9996   -7.4635   22.7466 H   0  0  0  0  0  0
  -21.0899   -8.8779   19.8921 H   0  0  0  0  0  0
  -22.3749  -10.9668   19.6134 H   0  0  0  0  0  0
  -21.1985   -7.6164   23.9752 H   0  0  0  0  0  0
  -21.1479   -6.0536   25.9092 H   0  0  0  0  0  0
  -22.0594   -2.7620   23.2878 H   0  0  0  0  0  0
  -22.4024  -11.9837   22.4837 H   0  0  0  0  0  0
  -21.1037  -13.1200   22.2583 H   0  0  0  0  0  0
  -24.6333  -15.8473   20.4988 H   0  0  0  0  0  0
  -26.2612  -15.6455   20.0933 H   0  0  0  0  0  0
  -26.7296  -32.5373   23.0980 H   0  0  0  0  0  0
  -25.0103  -33.9623   25.0358 H   0  0  0  0  0  0
  -22.7579  -31.2829   21.3724 H   0  0  0  0  0  0
  -23.3810  -35.9473   23.3272 H   0  0  0  0  0  0
  -24.3572  -36.8846   22.2054 H   0  0  0  0  0  0
  -23.7156  -37.6380   23.6669 H   0  0  0  0  0  0
  -26.1630  -31.4585   20.6017 H   0  0  0  0  0  0
  -26.8812  -30.7746   22.0209 H   0  0  0  0  0  0
  -28.1476  -28.7939   21.2410 H   0  0  0  0  0  0
  -25.9496  -25.8107   19.0471 H   0  0  0  0  0  0
  -23.9992  -27.2685   18.9975 H   0  0  0  0  0  0
  -23.8050  -30.5423   19.3945 H   0  0  0  0  0  0
  -22.7978  -29.2059   19.8602 H   0  0  0  0  0  0
  -25.1322  -36.1870   25.0835 H   0  0  0  0  0  0
  -21.0061  -28.3295   24.1393 H   0  0  0  0  0  0
  -20.5748  -26.2305   23.3637 H   0  0  0  0  0  0
  -21.6653  -26.7455   22.1176 H   0  0  0  0  0  0
  -19.6898  -25.6305   21.1268 H   0  0  0  0  0  0
  -19.6706  -27.3227   20.6810 H   0  0  0  0  0  0
  -17.4228  -26.6787   21.4023 H   0  0  0  0  0  0
  -18.0273  -26.0089   22.9028 H   0  0  0  0  0  0
  -19.7925  -30.7274   24.2351 H   0  0  0  0  0  0
  -17.4993  -31.6307   24.5090 H   0  0  0  0  0  0
  -15.5349  -30.2947   23.7658 H   0  0  0  0  0  0
  -15.8713  -28.0746   22.7166 H   0  0  0  0  0  0
  -24.5880  -30.7134   25.7574 H   0  0  0  0  0  0
  -24.8809  -32.2956   26.4625 H   0  0  0  0  0  0
  -25.7860  -30.8987   27.0168 H   0  0  0  0  0  0
  -26.3016  -29.6731   24.1226 H   0  0  0  0  0  0
  -27.4063  -29.7316   25.4751 H   0  0  0  0  0  0
  -27.8893  -30.4300   23.9517 H   0  0  0  0  0  0
  -27.2770  -33.3646   26.1996 H   0  0  0  0  0  0
  -28.3942  -32.6766   25.0300 H   0  0  0  0  0  0
  -28.0723  -31.8421   26.5390 H   0  0  0  0  0  0
  -28.2597  -38.0068   24.7589 H   0  0  0  0  0  0
  -28.1113  -36.2615   24.6251 H   0  0  0  0  0  0
  -27.2326  -37.1342   25.8879 H   0  0  0  0  0  0
  -20.9478  -29.8681   21.6779 H   0  0  0  0  0  0
  -26.0180  -38.2832   24.1437 H   0  0  0  0  0  0
  -28.9732  -20.3856   18.7825 H   0  0  0  0  0  0
  -30.7350  -24.1146   26.7176 H   0  0  0  0  0  0
  -29.2064  -24.0085   25.8621 H   0  0  0  0  0  0
  -30.6608  -24.5644   25.0241 H   0  0  0  0  0  0
  -28.8017  -23.2154   18.9097 H   0  0  0  0  0  0
  -30.0504  -23.7013   19.9523 H   0  0  0  0  0  0
  -31.0184  -17.6969   19.6725 H   0  0  0  0  0  0
  -29.4494  -17.5545   19.0038 H   0  0  0  0  0  0
  -30.3173  -21.7377   26.1881 H   0  0  0  0  0  0
  -31.6894  -22.2749   25.2582 H   0  0  0  0  0  0
  -28.2115  -24.5786   21.6263 H   0  0  0  0  0  0
  -27.0709  -24.3535   20.3720 H   0  0  0  0  0  0
  -29.3382  -21.1356   24.2664 H   0  0  0  0  0  0
  -28.8782  -16.0339   20.9890 H   0  0  0  0  0  0
  1 25  1  0  0  0
  1 30  2  0  0  0
  1 82  1  0  0  0
  2  3  1  0  0  0
  2 25  1  0  0  0
  2 85  1  0  0  0
  2 86  1  0  0  0
  3  4  1  0  0  0
  3 87  1  0  0  0
  3 88  1  0  0  0
  4  5  1  0  0  0
  4 89  1  0  0  0
  4 90  1  0  0  0
  5  6  1  0  0  0
  5 26  1  0  0  0
  5 91  1  0  0  0
  6 25  1  0  0  0
  6 92  1  0  0  0
  6 93  1  0  0  0
  7  8  2  0  0  0
  7 26  1  0  0  0
  7 29  1  0  0  0
  8  9  1  0  0  0
  8 22  1  0  0  0
  9 10  1  0  0  0
  9 27  2  0  0  0
 10 11  2  0  0  0
 10 15  1  0  0  0
 11 12  1  0  0  0
 11 94  1  0  0  0
 12 13  2  0  0  0
 12 95  1  0  0  0
 13 14  1  0  0  0
 13 31  1  0  0  0
 14 15  2  0  0  0
 14 96  1  0  0  0
 15 97  1  0  0  0
 16 17  2  0  0  0
 16 21  1  0  0  0
 16 31  1  0  0  0
 17 18  1  0  0  0
 17 98  1  0  0  0
 18 19  2  0  0  0
 18 99  1  0  0  0
 19 20  1  0  0  0
 19 24  1  0  0  0
 20 21  2  0  0  0
 20100  1  0  0  0
 21 23  1  0  0  0
 22 28  1  0  0  0
 22 32  2  0  0  0
 26 27  1  0  0  0
 28101  1  0  0  0
 28102  1  0  0  0
 29103  1  0  0  0
 29104  1  0  0  0
 33 34  1  0  0  0
 33 66  1  0  0  0
 33 70  2  0  0  0
 34 36  1  0  0  0
 34 59  1  0  0  0
 34105  1  0  0  0
 35 44  2  0  0  0
 35 45  1  0  0  0
 35 68  1  0  0  0
 36 56  1  0  0  0
 36106  1  0  0  0
 37 39  1  0  0  0
 37 47  1  0  0  0
 37 66  1  0  0  0
 37107  1  0  0  0
 38 43  2  0  0  0
 38 46  1  0  0  0
 38 47  1  0  0  0
 39 64  1  0  0  0
 39 67  2  0  0  0
 40 52  1  0  0  0
 40 53  2  0  0  0
 40 58  1  0  0  0
 41108  1  0  0  0
 41109  1  0  0  0
 41110  1  0  0  0
 41 48  1  0  0  0
 42 43  1  0  0  0
 42 66  1  0  0  0
 42111  1  0  0  0
 42112  1  0  0  0
 43 44  1  0  0  0
 44113  1  0  0  0
 45 46  2  0  0  0
 45114  1  0  0  0
 46115  1  0  0  0
 47116  1  0  0  0
 47117  1  0  0  0
 48 56  1  0  0  0
 48 65  1  0  0  0
 48118  1  0  0  0
 49 50  1  0  0  0
 49 53  1  0  0  0
 49 64  1  0  0  0
 49119  1  0  0  0
 50 51  1  0  0  0
 50120  1  0  0  0
 50121  1  0  0  0
 51 52  1  0  0  0
 51122  1  0  0  0
 51123  1  0  0  0
 52124  1  0  0  0
 52125  1  0  0  0
 53 54  1  0  0  0
 54 55  2  0  0  0
 54126  1  0  0  0
 55 57  1  0  0  0
 55127  1  0  0  0
 56 69  2  0  0  0
 57 58  2  0  0  0
 57128  1  0  0  0
 58129  1  0  0  0
 59 60  1  0  0  0
 59 61  1  0  0  0
 59 62  1  0  0  0
 60130  1  0  0  0
 60131  1  0  0  0
 60132  1  0  0  0
 61133  1  0  0  0
 61134  1  0  0  0
 61135  1  0  0  0
 62136  1  0  0  0
 62137  1  0  0  0
 62138  1  0  0  0
 63 65  1  0  0  0
 63139  1  0  0  0
 63140  1  0  0  0
 63141  1  0  0  0
 64142  1  0  0  0
 65143  1  0  0  0
 68 80  1  0  0  0
 71 72  1  0  0  0
 71 74  2  0  0  0
 71144  1  0  0  0
 72 73  2  0  0  0
 72 77  1  0  0  0
 73 75  1  0  0  0
 73 84  1  0  0  0
 74 78  1  0  0  0
 74 84  1  0  0  0
 75 81  1  0  0  0
 75 83  2  0  0  0
 76 79  1  0  0  0
 76145  1  0  0  0
 76146  1  0  0  0
 76147  1  0  0  0
 77 80  1  0  0  0
 77148  1  0  0  0
 77149  1  0  0  0
 78 82  1  0  0  0
 78150  1  0  0  0
 78151  1  0  0  0
 79 81  1  0  0  0
 79152  1  0  0  0
 79153  1  0  0  0
 80154  1  0  0  0
 80155  1  0  0  0
 81156  1  0  0  0
 82157  1  0  0  0
M  ISO  4   1 100  68 101  80 101  82 100
M  END
> <chiral flag>
0

> <version>
0

> <s_m_source_file>
/data/baiqing/PycharmProjects/Reinvent-master-3.2/result/LINK_invent/BTK/process_docking_weight1_custom_sum_contain_oxygen_bond_distance_aromatic_linkinvent_7_9_3/rearranged_h_0107.sdf

> <i_m_source_file_index>
90

> <r_mmod_Potential_Energy-OPLS-2005>
540.428527832031

> <r_mmod_Stretch_Energy-OPLS-2005>
296.791351318359

> <r_mmod_Bend_Energy-OPLS-2005>
292.417297363281

> <r_mmod_Torsional_Energy-OPLS-2005>
259.443145751953

> <r_mmod_Improper_Torsional_Energy-OPLS-2005>
9.5200777053833

> <r_mmod_Van_der_Waal_Energy-OPLS-2005>
107.990882873535

> <r_mmod_Electrostatic_Energy-OPLS-2005>
-398.473449707031

> <r_mmod_Solvation_Energy-OPLS-2005>
-242.524002075195

> <b_mmod_Minimization_Converged-OPLS-2005>
0

> <r_mmod_RMS_Derivative-OPLS-2005>
4.27601957321167

$$$$
92
                    3D
 Structure written by MMmdl.
157165  0  0  1  0            999 V2000
  -30.3807  -15.3289   20.3822 C   0  0  0  0  0  0
  -30.4335  -12.8519   19.5382 C   0  0  0  0  0  0
  -29.5359  -12.6114   18.2969 C   0  0  0  0  0  0
  -28.0813  -12.3308   18.7065 C   0  0  0  0  0  0
  -27.6081  -13.2841   19.8309 C   0  0  2  0  0  0
  -28.6336  -13.4590   20.9695 C   0  0  0  0  0  0
  -25.2369  -13.8300   20.5729 C   0  0  0  0  0  0
  -24.1734  -13.0450   20.9252 C   0  0  0  0  0  0
  -24.6402  -11.6950   20.8728 C   0  0  0  0  0  0
  -23.9100  -10.4296   21.0384 C   0  0  0  0  0  0
  -24.3661   -9.4210   21.9164 C   0  0  0  0  0  0
  -23.6327   -8.2249   22.0745 C   0  0  0  0  0  0
  -22.4301   -8.0288   21.3545 C   0  0  0  0  0  0
  -21.9939   -9.0256   20.4634 C   0  0  0  0  0  0
  -22.7268  -10.2133   20.3046 C   0  0  0  0  0  0
  -21.6884   -6.0730   22.5279 C   0  0  0  0  0  0
  -21.4003   -6.5616   23.8200 C   0  0  0  0  0  0
  -21.3687   -5.6776   24.9167 C   0  0  0  0  0  0
  -21.6066   -4.3048   24.7217 C   0  0  0  0  0  0
  -21.8818   -3.8136   23.4332 C   0  0  0  0  0  0
  -21.9212   -4.6961   22.3389 C   0  0  0  0  0  0
  -22.7749  -13.5191   21.1901 C   0  0  0  0  0  0
  -22.1665   -4.2143   21.0964 F   0  0  0  0  0  0
  -21.5653   -3.4526   25.7728 F   0  0  0  0  0  0
  -29.8558  -13.9958   20.3532 N   0  0  0  0  0  0
  -26.2795  -12.9572   20.3233 N   0  0  0  0  0  0
  -25.9354  -11.6653   20.5697 N   0  0  0  0  0  0
  -22.0427  -12.8137   22.0459 N   0  0  0  0  0  0
  -25.3983  -15.2038   20.4164 N   0  0  0  0  0  0
  -31.5940  -15.3380   20.1168 O   0  0  0  0  0  0
  -21.6682   -6.8885   21.4243 O   0  0  0  0  0  0
  -22.3385  -14.5460   20.6731 O   0  0  0  0  0  0
  -24.6659  -31.8206   23.1719 C   0  0  0  0  0  0
  -25.9351  -32.4573   23.8157 C   0  0  1  0  0  0
  -27.1880  -26.8596   20.1801 C   0  0  0  0  0  0
  -25.6023  -33.8399   24.2065 N   0  0  0  0  0  0
  -23.4800  -30.4346   21.5252 C   0  0  2  0  0  0
  -24.9343  -28.8248   20.1025 C   0  0  0  0  0  0
  -22.7665  -29.4431   22.4794 C   0  0  0  0  0  0
  -18.0332  -28.1428   22.8463 C   0  0  0  0  0  0
  -24.1493  -36.7162   23.2629 C   0  0  0  0  0  0
  -26.0555  -30.5903   21.4298 C   0  0  0  0  0  0
  -26.1112  -29.1791   20.7708 C   0  0  0  0  0  0
  -27.2243  -28.2123   20.8045 C   0  0  0  0  0  0
  -26.0316  -26.7396   19.3802 C   0  0  0  0  0  0
  -24.9279  -27.6254   19.3766 C   0  0  0  0  0  0
  -23.7216  -29.7563   20.1484 C   0  0  0  0  0  0
  -25.4155  -36.2948   24.0275 C   0  0  1  0  0  0
  -20.5953  -28.3770   23.1188 C   0  0  2  0  0  0
  -20.6823  -26.9459   22.5404 C   0  0  0  0  0  0
  -19.5803  -26.6396   21.5218 C   0  0  0  0  0  0
  -18.1972  -26.7958   22.1613 C   0  0  0  0  0  0
  -19.1592  -28.8923   23.2803 C   0  0  0  0  0  0
  -18.9508  -30.1504   23.8843 C   0  0  0  0  0  0
  -17.6509  -30.6625   24.0571 C   0  0  0  0  0  0
  -25.9128  -34.9342   23.4999 C   0  0  0  0  0  0
  -16.5393  -29.9110   23.6365 C   0  0  0  0  0  0
  -16.7316  -28.6530   23.0373 C   0  0  0  0  0  0
  -26.4601  -31.6531   25.0712 C   0  0  0  0  0  0
  -25.3704  -31.3816   26.1353 C   0  0  0  0  0  0
  -27.0492  -30.2859   24.6530 C   0  0  0  0  0  0
  -27.6094  -32.4341   25.7532 C   0  0  0  0  0  0
  -27.5588  -37.1741   24.8457 C   0  0  0  0  0  0
  -21.4338  -29.3051   22.3527 N   0  0  0  0  0  0
  -26.4278  -37.3714   23.9420 N   0  0  0  0  0  0
  -24.7552  -30.9789   22.0926 N   0  0  0  0  0  0
  -23.4181  -28.8040   23.3081 O   0  0  0  0  0  0
  -28.1031  -25.6592   20.3134 O   0  0  0  0  0  0
  -26.5749  -34.8876   22.4586 O   0  0  0  0  0  0
  -23.5737  -32.1263   23.6767 O   0  0  0  0  0  0
  -29.0371  -21.1641   19.7402 C   0  0  0  0  0  0
  -28.4681  -22.4242   20.4183 C   0  0  0  0  0  0
  -29.1329  -19.8650   20.4347 C   0  0  0  0  0  0
  -28.2549  -21.7450   21.6051 C   0  0  0  0  0  0
  -26.3011  -23.7910   20.1555 C   0  0  0  0  0  0
  -26.7031  -19.2181   22.8960 C   0  0  0  0  0  0
  -28.9044  -19.7850   24.0645 C   0  0  0  0  0  0
  -29.8149  -18.2399   20.0988 C   0  0  0  0  0  0
  -27.8148  -24.0343   19.9462 C   0  0  1  0  0  0
  -28.2213  -19.4114   22.7397 C   0  0  0  0  0  0
  -28.5415  -20.3246   21.6384 N   0  0  0  0  0  0
  -29.5999  -16.6079   20.5070 N   0  0  0  0  0  0
  -27.5049  -22.5351   22.9465 Cl  0  0  0  0  0  0
  -31.4453  -13.0776   19.1959 H   0  0  0  0  0  0
  -30.5245  -11.9411   20.1331 H   0  0  0  0  0  0
  -29.9188  -11.7958   17.6822 H   0  0  0  0  0  0
  -29.5688  -13.5092   17.6779 H   0  0  0  0  0  0
  -28.0150  -11.2930   19.0352 H   0  0  0  0  0  0
  -27.4294  -12.4203   17.8359 H   0  0  0  0  0  0
  -27.5233  -14.2591   19.3493 H   0  0  0  0  0  0
  -28.8182  -12.5198   21.4962 H   0  0  0  0  0  0
  -28.2628  -14.1687   21.7096 H   0  0  0  0  0  0
  -25.2815   -9.5699   22.4721 H   0  0  0  0  0  0
  -24.0055   -7.4655   22.7452 H   0  0  0  0  0  0
  -21.0886   -8.8752   19.8923 H   0  0  0  0  0  0
  -22.3726  -10.9662   19.6140 H   0  0  0  0  0  0
  -21.1967   -7.6114   23.9696 H   0  0  0  0  0  0
  -21.1517   -6.0499   25.9067 H   0  0  0  0  0  0
  -22.0592   -2.7596   23.2838 H   0  0  0  0  0  0
  -22.4098  -11.9828   22.4845 H   0  0  0  0  0  0
  -21.1027  -13.1108   22.2652 H   0  0  0  0  0  0
  -24.6223  -15.8498   20.5177 H   0  0  0  0  0  0
  -26.2264  -15.6439   20.0372 H   0  0  0  0  0  0
  -26.7402  -32.5070   23.0840 H   0  0  0  0  0  0
  -25.0138  -33.9515   25.0198 H   0  0  0  0  0  0
  -22.7952  -31.2703   21.3592 H   0  0  0  0  0  0
  -23.3807  -35.9432   23.3236 H   0  0  0  0  0  0
  -24.3544  -36.8873   22.2048 H   0  0  0  0  0  0
  -23.7190  -37.6303   23.6731 H   0  0  0  0  0  0
  -26.2592  -31.3253   20.6503 H   0  0  0  0  0  0
  -26.9061  -30.6413   22.0957 H   0  0  0  0  0  0
  -28.0895  -28.4702   21.3972 H   0  0  0  0  0  0
  -25.9556  -25.8957   18.7213 H   0  0  0  0  0  0
  -24.0717  -27.3749   18.7650 H   0  0  0  0  0  0
  -23.8809  -30.5342   19.4014 H   0  0  0  0  0  0
  -22.8290  -29.2162   19.8236 H   0  0  0  0  0  0
  -25.1343  -36.1730   25.0761 H   0  0  0  0  0  0
  -21.0027  -28.3395   24.1313 H   0  0  0  0  0  0
  -20.5738  -26.2390   23.3639 H   0  0  0  0  0  0
  -21.6687  -26.7472   22.1190 H   0  0  0  0  0  0
  -19.6979  -25.6291   21.1289 H   0  0  0  0  0  0
  -19.6763  -27.3176   20.6714 H   0  0  0  0  0  0
  -17.4250  -26.6698   21.4006 H   0  0  0  0  0  0
  -18.0373  -26.0112   22.9019 H   0  0  0  0  0  0
  -19.7975  -30.7341   24.2164 H   0  0  0  0  0  0
  -17.5066  -31.6299   24.5183 H   0  0  0  0  0  0
  -15.5393  -30.3015   23.7729 H   0  0  0  0  0  0
  -15.8692  -28.0846   22.7122 H   0  0  0  0  0  0
  -24.5917  -30.7136   25.7656 H   0  0  0  0  0  0
  -24.8877  -32.3036   26.4593 H   0  0  0  0  0  0
  -25.7902  -30.9109   27.0250 H   0  0  0  0  0  0
  -26.3161  -29.6539   24.1508 H   0  0  0  0  0  0
  -27.3921  -29.7231   25.5222 H   0  0  0  0  0  0
  -27.9164  -30.3980   24.0017 H   0  0  0  0  0  0
  -27.2660  -33.3695   26.1960 H   0  0  0  0  0  0
  -28.3999  -32.6812   25.0429 H   0  0  0  0  0  0
  -28.0657  -31.8567   26.5591 H   0  0  0  0  0  0
  -28.2539  -38.0108   24.7585 H   0  0  0  0  0  0
  -28.1156  -36.2635   24.6183 H   0  0  0  0  0  0
  -27.2299  -37.1238   25.8855 H   0  0  0  0  0  0
  -20.9596  -29.8680   21.6598 H   0  0  0  0  0  0
  -26.0111  -38.2742   24.1513 H   0  0  0  0  0  0
  -29.3319  -21.2227   18.7023 H   0  0  0  0  0  0
  -26.0672  -22.7429   20.3385 H   0  0  0  0  0  0
  -25.7023  -24.0107   19.2773 H   0  0  0  0  0  0
  -25.9266  -24.3410   21.0164 H   0  0  0  0  0  0
  -26.4961  -18.4374   23.6291 H   0  0  0  0  0  0
  -26.2385  -18.9025   21.9588 H   0  0  0  0  0  0
  -26.2069  -20.1281   23.2318 H   0  0  0  0  0  0
  -28.7026  -19.0326   24.8254 H   0  0  0  0  0  0
  -28.5572  -20.7340   24.4684 H   0  0  0  0  0  0
  -29.9827  -19.8486   23.9420 H   0  0  0  0  0  0
  -30.8885  -18.3559   20.2450 H   0  0  0  0  0  0
  -29.7288  -18.1638   19.0154 H   0  0  0  0  0  0
  -27.9765  -24.0099   18.8678 H   0  0  0  0  0  0
  -28.6191  -18.4362   22.4668 H   0  0  0  0  0  0
  -28.6455  -16.4064   20.7726 H   0  0  0  0  0  0
  1 25  1  0  0  0
  1 30  2  0  0  0
  1 82  1  0  0  0
  2  3  1  0  0  0
  2 25  1  0  0  0
  2 84  1  0  0  0
  2 85  1  0  0  0
  3  4  1  0  0  0
  3 86  1  0  0  0
  3 87  1  0  0  0
  4  5  1  0  0  0
  4 88  1  0  0  0
  4 89  1  0  0  0
  5  6  1  0  0  0
  5 26  1  0  0  0
  5 90  1  0  0  0
  6 25  1  0  0  0
  6 91  1  0  0  0
  6 92  1  0  0  0
  7  8  2  0  0  0
  7 26  1  0  0  0
  7 29  1  0  0  0
  8  9  1  0  0  0
  8 22  1  0  0  0
  9 10  1  0  0  0
  9 27  2  0  0  0
 10 11  2  0  0  0
 10 15  1  0  0  0
 11 12  1  0  0  0
 11 93  1  0  0  0
 12 13  2  0  0  0
 12 94  1  0  0  0
 13 14  1  0  0  0
 13 31  1  0  0  0
 14 15  2  0  0  0
 14 95  1  0  0  0
 15 96  1  0  0  0
 16 17  2  0  0  0
 16 21  1  0  0  0
 16 31  1  0  0  0
 17 18  1  0  0  0
 17 97  1  0  0  0
 18 19  2  0  0  0
 18 98  1  0  0  0
 19 20  1  0  0  0
 19 24  1  0  0  0
 20 21  2  0  0  0
 20 99  1  0  0  0
 21 23  1  0  0  0
 22 28  1  0  0  0
 22 32  2  0  0  0
 26 27  1  0  0  0
 28100  1  0  0  0
 28101  1  0  0  0
 29102  1  0  0  0
 29103  1  0  0  0
 33 34  1  0  0  0
 33 66  1  0  0  0
 33 70  2  0  0  0
 34 36  1  0  0  0
 34 59  1  0  0  0
 34104  1  0  0  0
 35 44  2  0  0  0
 35 45  1  0  0  0
 35 68  1  0  0  0
 36 56  1  0  0  0
 36105  1  0  0  0
 37 39  1  0  0  0
 37 47  1  0  0  0
 37 66  1  0  0  0
 37106  1  0  0  0
 38 43  2  0  0  0
 38 46  1  0  0  0
 38 47  1  0  0  0
 39 64  1  0  0  0
 39 67  2  0  0  0
 40 52  1  0  0  0
 40 53  2  0  0  0
 40 58  1  0  0  0
 41107  1  0  0  0
 41108  1  0  0  0
 41109  1  0  0  0
 41 48  1  0  0  0
 42 43  1  0  0  0
 42 66  1  0  0  0
 42110  1  0  0  0
 42111  1  0  0  0
 43 44  1  0  0  0
 44112  1  0  0  0
 45 46  2  0  0  0
 45113  1  0  0  0
 46114  1  0  0  0
 47115  1  0  0  0
 47116  1  0  0  0
 48 56  1  0  0  0
 48 65  1  0  0  0
 48117  1  0  0  0
 49 50  1  0  0  0
 49 53  1  0  0  0
 49 64  1  0  0  0
 49118  1  0  0  0
 50 51  1  0  0  0
 50119  1  0  0  0
 50120  1  0  0  0
 51 52  1  0  0  0
 51121  1  0  0  0
 51122  1  0  0  0
 52123  1  0  0  0
 52124  1  0  0  0
 53 54  1  0  0  0
 54 55  2  0  0  0
 54125  1  0  0  0
 55 57  1  0  0  0
 55126  1  0  0  0
 56 69  2  0  0  0
 57 58  2  0  0  0
 57127  1  0  0  0
 58128  1  0  0  0
 59 60  1  0  0  0
 59 61  1  0  0  0
 59 62  1  0  0  0
 60129  1  0  0  0
 60130  1  0  0  0
 60131  1  0  0  0
 61132  1  0  0  0
 61133  1  0  0  0
 61134  1  0  0  0
 62135  1  0  0  0
 62136  1  0  0  0
 62137  1  0  0  0
 63 65  1  0  0  0
 63138  1  0  0  0
 63139  1  0  0  0
 63140  1  0  0  0
 64141  1  0  0  0
 65142  1  0  0  0
 68 79  1  0  0  0
 71 72  1  0  0  0
 71 73  2  0  0  0
 71143  1  0  0  0
 72 74  2  0  0  0
 72 79  1  0  0  0
 73 78  1  0  0  0
 73 81  1  0  0  0
 74 81  1  0  0  0
 74 83  1  0  0  0
 75144  1  0  0  0
 75145  1  0  0  0
 75146  1  0  0  0
 75 79  1  0  0  0
 76147  1  0  0  0
 76148  1  0  0  0
 76149  1  0  0  0
 76 80  1  0  0  0
 77 80  1  0  0  0
 77150  1  0  0  0
 77151  1  0  0  0
 77152  1  0  0  0
 78 82  1  0  0  0
 78153  1  0  0  0
 78154  1  0  0  0
 79155  1  0  0  0
 80 81  1  0  0  0
 80156  1  0  0  0
 82157  1  0  0  0
M  ISO  4   1 100  68 101  79 101  82 100
M  END
> <chiral flag>
0

> <version>
0

> <s_m_source_file>
/data/baiqing/PycharmProjects/Reinvent-master-3.2/result/LINK_invent/BTK/process_docking_weight1_custom_sum_contain_oxygen_bond_distance_aromatic_linkinvent_7_9_3/rearranged_h_0107.sdf

> <i_m_source_file_index>
91

> <r_mmod_Potential_Energy-OPLS-2005>
1538.06396484375

> <r_mmod_Stretch_Energy-OPLS-2005>
670.625122070312

> <r_mmod_Bend_Energy-OPLS-2005>
506.037445068359

> <r_mmod_Torsional_Energy-OPLS-2005>
275.116882324219

> <r_mmod_Improper_Torsional_Energy-OPLS-2005>
9.57008361816406

> <r_mmod_Van_der_Waal_Energy-OPLS-2005>
122.896926879883

> <r_mmod_Electrostatic_Energy-OPLS-2005>
-396.477508544922

> <r_mmod_Solvation_Energy-OPLS-2005>
-209.796264648438

> <b_mmod_Minimization_Converged-OPLS-2005>
0

> <r_mmod_RMS_Derivative-OPLS-2005>
5.48612117767334

$$$$
93
                    3D
 Structure written by MMmdl.
170178  0  0  1  0            999 V2000
  -30.4345  -15.2044   20.3826 C   0  0  0  0  0  0
  -30.4499  -12.7644   19.5150 C   0  0  0  0  0  0
  -29.5349  -12.5656   18.2806 C   0  0  0  0  0  0
  -28.0806  -12.2975   18.7090 C   0  0  0  0  0  0
  -27.6179  -13.2636   19.8276 C   0  0  2  0  0  0
  -28.6570  -13.3994   20.9608 C   0  0  0  0  0  0
  -25.2420  -13.8228   20.5749 C   0  0  0  0  0  0
  -24.1760  -13.0429   20.9256 C   0  0  0  0  0  0
  -24.6401  -11.6923   20.8773 C   0  0  0  0  0  0
  -23.9097  -10.4288   21.0420 C   0  0  0  0  0  0
  -24.3637   -9.4197   21.9198 C   0  0  0  0  0  0
  -23.6300   -8.2241   22.0761 C   0  0  0  0  0  0
  -22.4284   -8.0287   21.3547 C   0  0  0  0  0  0
  -21.9928   -9.0267   20.4655 C   0  0  0  0  0  0
  -22.7270  -10.2136   20.3067 C   0  0  0  0  0  0
  -21.6853   -6.0742   22.5282 C   0  0  0  0  0  0
  -21.4018   -6.5644   23.8216 C   0  0  0  0  0  0
  -21.3659   -5.6796   24.9177 C   0  0  0  0  0  0
  -21.6041   -4.3058   24.7226 C   0  0  0  0  0  0
  -21.8817   -3.8151   23.4347 C   0  0  0  0  0  0
  -21.9188   -4.6969   22.3402 C   0  0  0  0  0  0
  -22.7779  -13.5195   21.1890 C   0  0  0  0  0  0
  -22.1660   -4.2152   21.0980 F   0  0  0  0  0  0
  -21.5623   -3.4541   25.7740 F   0  0  0  0  0  0
  -29.8956  -13.8938   20.3380 N   0  0  0  0  0  0
  -26.2846  -12.9482   20.3241 N   0  0  0  0  0  0
  -25.9336  -11.6602   20.5751 N   0  0  0  0  0  0
  -22.0425  -12.8196   22.0448 N   0  0  0  0  0  0
  -25.4026  -15.1970   20.4169 N   0  0  0  0  0  0
  -31.6613  -15.2444   20.1951 O   0  0  0  0  0  0
  -21.6636   -6.8890   21.4250 O   0  0  0  0  0  0
  -22.3468  -14.5498   20.6721 O   0  0  0  0  0  0
  -24.6583  -31.8273   23.1734 C   0  0  0  0  0  0
  -25.9283  -32.4603   23.8183 C   0  0  1  0  0  0
  -27.2206  -26.9717   20.1816 C   0  0  0  0  0  0
  -25.5969  -33.8417   24.2089 N   0  0  0  0  0  0
  -23.4707  -30.4407   21.5216 C   0  0  2  0  0  0
  -24.9232  -28.8330   20.1142 C   0  0  0  0  0  0
  -22.7637  -29.4469   22.4790 C   0  0  0  0  0  0
  -18.0316  -28.1404   22.8465 C   0  0  0  0  0  0
  -24.1496  -36.7225   23.2644 C   0  0  0  0  0  0
  -26.0363  -30.6488   21.3957 C   0  0  0  0  0  0
  -26.1062  -29.2425   20.7420 C   0  0  0  0  0  0
  -27.2512  -28.3330   20.7496 C   0  0  0  0  0  0
  -26.0072  -26.7004   19.5110 C   0  0  0  0  0  0
  -24.8957  -27.5809   19.4792 C   0  0  0  0  0  0
  -23.7081  -29.7565   20.1477 C   0  0  0  0  0  0
  -25.4132  -36.2977   24.0298 C   0  0  1  0  0  0
  -20.5939  -28.3748   23.1189 C   0  0  2  0  0  0
  -20.6796  -26.9432   22.5396 C   0  0  0  0  0  0
  -19.5772  -26.6375   21.5207 C   0  0  0  0  0  0
  -18.1954  -26.7937   22.1618 C   0  0  0  0  0  0
  -19.1577  -28.8893   23.2820 C   0  0  0  0  0  0
  -18.9492  -30.1483   23.8854 C   0  0  0  0  0  0
  -17.6488  -30.6594   24.0557 C   0  0  0  0  0  0
  -25.9094  -34.9356   23.5013 C   0  0  0  0  0  0
  -16.5377  -29.9085   23.6340 C   0  0  0  0  0  0
  -16.7300  -28.6505   23.0357 C   0  0  0  0  0  0
  -26.4549  -31.6535   25.0693 C   0  0  0  0  0  0
  -25.3689  -31.3787   26.1361 C   0  0  0  0  0  0
  -27.0429  -30.2902   24.6396 C   0  0  0  0  0  0
  -27.6043  -32.4338   25.7497 C   0  0  0  0  0  0
  -27.5574  -37.1766   24.8456 C   0  0  0  0  0  0
  -21.4313  -29.3049   22.3539 N   0  0  0  0  0  0
  -26.4279  -37.3710   23.9407 N   0  0  0  0  0  0
  -24.7428  -30.9982   22.0845 N   0  0  0  0  0  0
  -23.4201  -28.8033   23.3015 O   0  0  0  0  0  0
  -28.2476  -25.9050   20.2447 O   0  0  0  0  0  0
  -26.5701  -34.8889   22.4608 O   0  0  0  0  0  0
  -23.5665  -32.1216   23.6864 O   0  0  0  0  0  0
  -28.6294  -18.7617   19.5461 C   0  0  0  0  0  0
  -28.4349  -20.2331   19.5068 C   0  0  0  0  0  0
  -29.1451  -21.1916   20.3417 C   0  0  0  0  0  0
  -30.0396  -20.3517   21.1607 C   0  0  0  0  0  0
  -29.5634  -18.0031   20.3585 C   0  0  0  0  0  0
  -26.0217  -20.2389   18.7141 C   0  0  0  0  0  0
  -27.9280  -20.5189   17.0505 C   0  0  0  0  0  0
  -30.1468  -23.2638   19.1010 C   0  0  0  0  0  0
  -32.8099  -22.6165   22.4380 C   0  0  0  0  0  0
  -33.1312  -20.5851   21.0973 C   0  0  0  0  0  0
  -30.9479  -21.0239   22.1880 C   0  0  0  0  0  0
  -28.0166  -24.2866   20.1999 C   0  0  0  0  0  0
  -27.4429  -20.7773   18.4843 C   0  0  0  0  0  0
  -29.1817  -22.9447   20.2515 C   0  0  1  0  0  0
  -30.2252  -18.9354   21.1513 N   0  0  0  0  0  0
  -29.5771  -16.3996   20.3887 N   0  0  0  0  0  0
  -32.1648  -21.6045   21.5701 N   0  3  0  0  0  0
  -31.4668  -12.9773   19.1828 H   0  0  0  0  0  0
  -30.5169  -11.8480   20.1037 H   0  0  0  0  0  0
  -29.9004  -11.7463   17.6608 H   0  0  0  0  0  0
  -29.5716  -13.4613   17.6595 H   0  0  0  0  0  0
  -28.0282  -11.2697   19.0694 H   0  0  0  0  0  0
  -27.4108  -12.3551   17.8503 H   0  0  0  0  0  0
  -27.5432  -14.2379   19.3444 H   0  0  0  0  0  0
  -28.8121  -12.4505   21.4766 H   0  0  0  0  0  0
  -28.3098  -14.1080   21.7146 H   0  0  0  0  0  0
  -25.2780   -9.5653   22.4781 H   0  0  0  0  0  0
  -23.9987   -7.4632   22.7484 H   0  0  0  0  0  0
  -21.0853   -8.8805   19.8970 H   0  0  0  0  0  0
  -22.3737  -10.9683   19.6182 H   0  0  0  0  0  0
  -21.2019   -7.6155   23.9724 H   0  0  0  0  0  0
  -21.1483   -6.0526   25.9080 H   0  0  0  0  0  0
  -22.0591   -2.7612   23.2851 H   0  0  0  0  0  0
  -22.4043  -11.9863   22.4840 H   0  0  0  0  0  0
  -21.1050  -13.1231   22.2668 H   0  0  0  0  0  0
  -24.6217  -15.8353   20.5224 H   0  0  0  0  0  0
  -26.2262  -15.6456   20.0401 H   0  0  0  0  0  0
  -26.7346  -32.5157   23.0897 H   0  0  0  0  0  0
  -25.0064  -33.9494   25.0204 H   0  0  0  0  0  0
  -22.7825  -31.2713   21.3523 H   0  0  0  0  0  0
  -23.3762  -35.9551   23.3261 H   0  0  0  0  0  0
  -24.3579  -36.8913   22.2068 H   0  0  0  0  0  0
  -23.7246  -37.6400   23.6725 H   0  0  0  0  0  0
  -26.2090  -31.3911   20.6153 H   0  0  0  0  0  0
  -26.8997  -30.7066   22.0467 H   0  0  0  0  0  0
  -28.1498  -28.6465   21.2625 H   0  0  0  0  0  0
  -25.8862  -25.7451   19.0219 H   0  0  0  0  0  0
  -23.9954  -27.2608   18.9729 H   0  0  0  0  0  0
  -23.8625  -30.5238   19.3885 H   0  0  0  0  0  0
  -22.8183  -29.2097   19.8306 H   0  0  0  0  0  0
  -25.1331  -36.1777   25.0790 H   0  0  0  0  0  0
  -21.0032  -28.3359   24.1312 H   0  0  0  0  0  0
  -20.5670  -26.2371   23.3638 H   0  0  0  0  0  0
  -21.6664  -26.7406   22.1215 H   0  0  0  0  0  0
  -19.6939  -25.6275   21.1268 H   0  0  0  0  0  0
  -19.6716  -27.3157   20.6716 H   0  0  0  0  0  0
  -17.4226  -26.6666   21.4026 H   0  0  0  0  0  0
  -18.0364  -26.0086   22.9022 H   0  0  0  0  0  0
  -19.7967  -30.7306   24.2209 H   0  0  0  0  0  0
  -17.5039  -31.6267   24.5171 H   0  0  0  0  0  0
  -15.5376  -30.2977   23.7683 H   0  0  0  0  0  0
  -15.8700  -28.0809   22.7097 H   0  0  0  0  0  0
  -24.5875  -30.7128   25.7680 H   0  0  0  0  0  0
  -24.8879  -32.2994   26.4673 H   0  0  0  0  0  0
  -25.7933  -30.9030   27.0210 H   0  0  0  0  0  0
  -26.3076  -29.6588   24.1395 H   0  0  0  0  0  0
  -27.3957  -29.7257   25.5037 H   0  0  0  0  0  0
  -27.9024  -30.4077   23.9793 H   0  0  0  0  0  0
  -27.2605  -33.3677   26.1958 H   0  0  0  0  0  0
  -28.3923  -32.6836   25.0379 H   0  0  0  0  0  0
  -28.0632  -31.8540   26.5514 H   0  0  0  0  0  0
  -28.2558  -38.0093   24.7521 H   0  0  0  0  0  0
  -28.1103  -36.2620   24.6260 H   0  0  0  0  0  0
  -27.2293  -37.1380   25.8858 H   0  0  0  0  0  0
  -20.9552  -29.8747   21.6684 H   0  0  0  0  0  0
  -26.0126  -38.2768   24.1426 H   0  0  0  0  0  0
  -28.0186  -18.1747   18.8753 H   0  0  0  0  0  0
  -25.6765  -20.4677   19.7230 H   0  0  0  0  0  0
  -25.9620  -19.1586   18.5804 H   0  0  0  0  0  0
  -25.3179  -20.6933   18.0161 H   0  0  0  0  0  0
  -28.9242  -20.9340   16.8965 H   0  0  0  0  0  0
  -27.2637  -20.9837   16.3221 H   0  0  0  0  0  0
  -27.9754  -19.4541   16.8227 H   0  0  0  0  0  0
  -31.0731  -22.6959   19.1709 H   0  0  0  0  0  0
  -30.4103  -24.3223   19.0919 H   0  0  0  0  0  0
  -29.6928  -23.0350   18.1369 H   0  0  0  0  0  0
  -33.6665  -23.0718   21.9397 H   0  0  0  0  0  0
  -33.1626  -22.1712   23.3693 H   0  0  0  0  0  0
  -32.1179  -23.4209   22.6888 H   0  0  0  0  0  0
  -33.9921  -21.0572   20.6226 H   0  0  0  0  0  0
  -32.6850  -19.9191   20.3588 H   0  0  0  0  0  0
  -33.5004  -19.9773   21.9239 H   0  0  0  0  0  0
  -31.2369  -20.3149   22.9658 H   0  0  0  0  0  0
  -30.3720  -21.7898   22.7073 H   0  0  0  0  0  0
  -27.3243  -24.0998   21.0206 H   0  0  0  0  0  0
  -27.4232  -24.1183   19.3018 H   0  0  0  0  0  0
  -27.3863  -21.8573   18.6070 H   0  0  0  0  0  0
  -29.7170  -23.2096   21.1599 H   0  0  0  0  0  0
  -28.6286  -16.0649   20.3517 H   0  0  0  0  0  0
  -31.8397  -22.0889   20.7486 H   0  0  0  0  0  0
  1 25  1  0  0  0
  1 30  2  0  0  0
  1 86  1  0  0  0
  2  3  1  0  0  0
  2 25  1  0  0  0
  2 88  1  0  0  0
  2 89  1  0  0  0
  3  4  1  0  0  0
  3 90  1  0  0  0
  3 91  1  0  0  0
  4  5  1  0  0  0
  4 92  1  0  0  0
  4 93  1  0  0  0
  5  6  1  0  0  0
  5 26  1  0  0  0
  5 94  1  0  0  0
  6 25  1  0  0  0
  6 95  1  0  0  0
  6 96  1  0  0  0
  7  8  2  0  0  0
  7 26  1  0  0  0
  7 29  1  0  0  0
  8  9  1  0  0  0
  8 22  1  0  0  0
  9 10  1  0  0  0
  9 27  2  0  0  0
 10 11  2  0  0  0
 10 15  1  0  0  0
 11 12  1  0  0  0
 11 97  1  0  0  0
 12 13  2  0  0  0
 12 98  1  0  0  0
 13 14  1  0  0  0
 13 31  1  0  0  0
 14 15  2  0  0  0
 14 99  1  0  0  0
 15100  1  0  0  0
 16 17  2  0  0  0
 16 21  1  0  0  0
 16 31  1  0  0  0
 17 18  1  0  0  0
 17101  1  0  0  0
 18 19  2  0  0  0
 18102  1  0  0  0
 19 20  1  0  0  0
 19 24  1  0  0  0
 20 21  2  0  0  0
 20103  1  0  0  0
 21 23  1  0  0  0
 22 28  1  0  0  0
 22 32  2  0  0  0
 26 27  1  0  0  0
 28104  1  0  0  0
 28105  1  0  0  0
 29106  1  0  0  0
 29107  1  0  0  0
 33 34  1  0  0  0
 33 66  1  0  0  0
 33 70  2  0  0  0
 34 36  1  0  0  0
 34 59  1  0  0  0
 34108  1  0  0  0
 35 44  2  0  0  0
 35 45  1  0  0  0
 35 68  1  0  0  0
 36 56  1  0  0  0
 36109  1  0  0  0
 37 39  1  0  0  0
 37 47  1  0  0  0
 37 66  1  0  0  0
 37110  1  0  0  0
 38 43  2  0  0  0
 38 46  1  0  0  0
 38 47  1  0  0  0
 39 64  1  0  0  0
 39 67  2  0  0  0
 40 52  1  0  0  0
 40 53  2  0  0  0
 40 58  1  0  0  0
 41111  1  0  0  0
 41112  1  0  0  0
 41113  1  0  0  0
 41 48  1  0  0  0
 42 43  1  0  0  0
 42 66  1  0  0  0
 42114  1  0  0  0
 42115  1  0  0  0
 43 44  1  0  0  0
 44116  1  0  0  0
 45 46  2  0  0  0
 45117  1  0  0  0
 46118  1  0  0  0
 47119  1  0  0  0
 47120  1  0  0  0
 48 56  1  0  0  0
 48 65  1  0  0  0
 48121  1  0  0  0
 49 50  1  0  0  0
 49 53  1  0  0  0
 49 64  1  0  0  0
 49122  1  0  0  0
 50 51  1  0  0  0
 50123  1  0  0  0
 50124  1  0  0  0
 51 52  1  0  0  0
 51125  1  0  0  0
 51126  1  0  0  0
 52127  1  0  0  0
 52128  1  0  0  0
 53 54  1  0  0  0
 54 55  2  0  0  0
 54129  1  0  0  0
 55 57  1  0  0  0
 55130  1  0  0  0
 56 69  2  0  0  0
 57 58  2  0  0  0
 57131  1  0  0  0
 58132  1  0  0  0
 59 60  1  0  0  0
 59 61  1  0  0  0
 59 62  1  0  0  0
 60133  1  0  0  0
 60134  1  0  0  0
 60135  1  0  0  0
 61136  1  0  0  0
 61137  1  0  0  0
 61138  1  0  0  0
 62139  1  0  0  0
 62140  1  0  0  0
 62141  1  0  0  0
 63 65  1  0  0  0
 63142  1  0  0  0
 63143  1  0  0  0
 63144  1  0  0  0
 64145  1  0  0  0
 65146  1  0  0  0
 68 82  1  0  0  0
 71 72  2  0  0  0
 71 75  1  0  0  0
 71147  1  0  0  0
 72 73  1  0  0  0
 72 83  1  0  0  0
 73 74  2  0  0  0
 73 84  1  0  0  0
 74 81  1  0  0  0
 74 85  1  0  0  0
 75 85  2  0  0  0
 75 86  1  0  0  0
 76148  1  0  0  0
 76149  1  0  0  0
 76150  1  0  0  0
 76 83  1  0  0  0
 77 83  1  0  0  0
 77151  1  0  0  0
 77152  1  0  0  0
 77153  1  0  0  0
 78154  1  0  0  0
 78155  1  0  0  0
 78156  1  0  0  0
 78 84  1  0  0  0
 79157  1  0  0  0
 79158  1  0  0  0
 79159  1  0  0  0
 79 87  1  0  0  0
 80 87  1  0  0  0
 80160  1  0  0  0
 80161  1  0  0  0
 80162  1  0  0  0
 81 87  1  0  0  0
 81163  1  0  0  0
 81164  1  0  0  0
 82 84  1  0  0  0
 82165  1  0  0  0
 82166  1  0  0  0
 83167  1  0  0  0
 84168  1  0  0  0
 86169  1  0  0  0
 87170  1  0  0  0
M  CHG  1  87   1
M  ISO  4   1 100  68 101  82 101  86 100
M  END
> <chiral flag>
0

> <version>
0

> <s_m_source_file>
/data/baiqing/PycharmProjects/Reinvent-master-3.2/result/LINK_invent/BTK/process_docking_weight1_custom_sum_contain_oxygen_bond_distance_aromatic_linkinvent_7_9_3/rearranged_h_0107.sdf

> <i_m_source_file_index>
92

> <r_mmod_Potential_Energy-OPLS-2005>
705.212463378906

> <r_mmod_Stretch_Energy-OPLS-2005>
473.556335449219

> <r_mmod_Bend_Energy-OPLS-2005>
421.374206542969

> <r_mmod_Torsional_Energy-OPLS-2005>
232.632659912109

> <r_mmod_Improper_Torsional_Energy-OPLS-2005>
7.95544099807739

> <r_mmod_Van_der_Waal_Energy-OPLS-2005>
123.31810760498

> <r_mmod_Electrostatic_Energy-OPLS-2005>
-509.122497558594

> <r_mmod_Solvation_Energy-OPLS-2005>
-439.215209960938

> <b_mmod_Minimization_Converged-OPLS-2005>
0

> <r_mmod_RMS_Derivative-OPLS-2005>
1.37999749183655

$$$$
94
                    3D
 Structure written by MMmdl.
177185  0  0  1  0            999 V2000
  -30.5867  -14.6430   20.5144 C   0  0  0  0  0  0
  -30.4531  -12.4024   19.4355 C   0  0  0  0  0  0
  -29.5104  -12.5133   18.2145 C   0  0  0  0  0  0
  -28.0330  -12.3415   18.6261 C   0  0  0  0  0  0
  -27.6543  -13.2001   19.8608 C   0  0  2  0  0  0
  -28.7020  -13.0298   20.9849 C   0  0  0  0  0  0
  -25.2562  -13.8017   20.5638 C   0  0  0  0  0  0
  -24.1835  -13.0349   20.9233 C   0  0  0  0  0  0
  -24.6384  -11.6825   20.8754 C   0  0  0  0  0  0
  -23.9036  -10.4240   21.0413 C   0  0  0  0  0  0
  -24.3594   -9.4163   21.9190 C   0  0  0  0  0  0
  -23.6268   -8.2206   22.0757 C   0  0  0  0  0  0
  -22.4256   -8.0252   21.3540 C   0  0  0  0  0  0
  -21.9882   -9.0223   20.4645 C   0  0  0  0  0  0
  -22.7210  -10.2098   20.3060 C   0  0  0  0  0  0
  -21.6835   -6.0709   22.5273 C   0  0  0  0  0  0
  -21.3991   -6.5614   23.8202 C   0  0  0  0  0  0
  -21.3661   -5.6775   24.9172 C   0  0  0  0  0  0
  -21.6058   -4.3039   24.7231 C   0  0  0  0  0  0
  -21.8818   -3.8123   23.4350 C   0  0  0  0  0  0
  -21.9186   -4.6939   22.3402 C   0  0  0  0  0  0
  -22.7868  -13.5199   21.1872 C   0  0  0  0  0  0
  -22.1661   -4.2122   21.0981 F   0  0  0  0  0  0
  -21.5645   -3.4527   25.7748 F   0  0  0  0  0  0
  -30.0163  -13.4000   20.4295 N   0  0  0  0  0  0
  -26.2985  -12.9208   20.3263 N   0  0  0  0  0  0
  -25.9308  -11.6384   20.5730 N   0  0  0  0  0  0
  -22.0471  -12.8224   22.0421 N   0  0  0  0  0  0
  -25.4229  -15.1681   20.3865 N   0  0  0  0  0  0
  -31.7384  -14.8641   20.1273 O   0  0  0  0  0  0
  -21.6620   -6.8854   21.4236 O   0  0  0  0  0  0
  -22.3606  -14.5514   20.6695 O   0  0  0  0  0  0
  -24.6225  -31.8610   23.2013 C   0  0  0  0  0  0
  -25.9087  -32.4782   23.8341 C   0  0  1  0  0  0
  -27.2429  -27.3536   20.1170 C   0  0  0  0  0  0
  -25.5913  -33.8582   24.2272 N   0  0  0  0  0  0
  -23.4148  -30.4800   21.5444 C   0  0  2  0  0  0
  -24.8631  -28.9278   20.1202 C   0  0  0  0  0  0
  -22.7452  -29.4625   22.4973 C   0  0  0  0  0  0
  -18.0279  -28.1383   22.8491 C   0  0  0  0  0  0
  -24.1489  -36.7290   23.2639 C   0  0  0  0  0  0
  -25.9505  -30.8033   21.3639 C   0  0  0  0  0  0
  -26.0291  -29.4304   20.7112 C   0  0  0  0  0  0
  -27.2221  -28.6573   20.6921 C   0  0  0  0  0  0
  -26.0514  -26.8793   19.5272 C   0  0  0  0  0  0
  -24.8733  -27.6551   19.5229 C   0  0  0  0  0  0
  -23.6270  -29.8030   20.1640 C   0  0  0  0  0  0
  -25.4115  -36.3082   24.0326 C   0  0  1  0  0  0
  -20.5874  -28.3674   23.1302 C   0  0  2  0  0  0
  -20.6762  -26.9402   22.5420 C   0  0  0  0  0  0
  -19.5740  -26.6382   21.5217 C   0  0  0  0  0  0
  -18.1921  -26.7927   22.1628 C   0  0  0  0  0  0
  -19.1531  -28.8845   23.2891 C   0  0  0  0  0  0
  -18.9459  -30.1450   23.8904 C   0  0  0  0  0  0
  -17.6460  -30.6584   24.0568 C   0  0  0  0  0  0
  -25.9051  -34.9453   23.5100 C   0  0  0  0  0  0
  -16.5350  -29.9086   23.6331 C   0  0  0  0  0  0
  -16.7267  -28.6504   23.0349 C   0  0  0  0  0  0
  -26.4486  -31.6594   25.0709 C   0  0  0  0  0  0
  -25.3730  -31.3740   26.1447 C   0  0  0  0  0  0
  -27.0323  -30.3017   24.6152 C   0  0  0  0  0  0
  -27.6044  -32.4336   25.7478 C   0  0  0  0  0  0
  -27.5579  -37.1798   24.8465 C   0  0  0  0  0  0
  -21.4171  -29.3031   22.3705 N   0  0  0  0  0  0
  -26.4293  -37.3775   23.9408 N   0  0  0  0  0  0
  -24.6812  -31.0647   22.0941 N   0  0  0  0  0  0
  -23.4189  -28.8186   23.3058 O   0  0  0  0  0  0
  -28.4105  -26.5889   20.0981 O   0  0  0  0  0  0
  -26.5628  -34.8918   22.4672 O   0  0  0  0  0  0
  -23.5399  -32.1394   23.7368 O   0  0  0  0  0  0
  -30.8075  -18.0347   20.5482 C   0  0  0  0  0  0
  -30.4673  -19.5606   20.7622 C   0  0  0  0  0  0
  -28.3717  -17.6613   20.1849 C   0  0  0  0  0  0
  -29.6159  -17.1328   20.9569 C   0  0  1  0  0  0
  -29.1872  -20.0569   20.0030 C   0  0  2  0  0  0
  -31.7195  -23.3592   18.0388 C   0  0  0  0  0  0
  -28.0279  -24.0940   18.0989 C   0  0  0  0  0  0
  -25.5577  -18.7133   20.6164 C   0  0  0  0  0  0
  -26.5348  -19.5100   18.4157 C   0  0  0  0  0  0
  -28.7995  -21.6252   20.1310 C   0  0  0  0  0  0
  -30.6479  -22.3551   18.4934 C   0  0  0  0  0  0
  -28.3744  -25.1469   20.3936 C   0  0  0  0  0  0
  -29.0077  -24.2222   19.2819 C   0  0  1  0  0  0
  -29.7258  -22.8237   19.6576 C   0  0  1  0  0  0
  -26.6883  -19.5176   19.9511 C   0  0  0  0  0  0
  -29.7090  -15.6251   20.8775 N   0  0  0  0  0  0
  -28.0656  -19.1228   20.4104 N   0  3  1  0  0  0
  -31.4884  -12.5607   19.1281 H   0  0  0  0  0  0
  -30.4176  -11.4000   19.8637 H   0  0  0  0  0  0
  -29.7765  -11.7677   17.4643 H   0  0  0  0  0  0
  -29.6440  -13.4847   17.7364 H   0  0  0  0  0  0
  -27.8697  -11.2861   18.8470 H   0  0  0  0  0  0
  -27.3802  -12.5790   17.7850 H   0  0  0  0  0  0
  -27.6735  -14.2380   19.5298 H   0  0  0  0  0  0
  -28.7214  -11.9948   21.3290 H   0  0  0  0  0  0
  -28.4415  -13.6233   21.8627 H   0  0  0  0  0  0
  -25.2740   -9.5635   22.4757 H   0  0  0  0  0  0
  -23.9963   -7.4596   22.7480 H   0  0  0  0  0  0
  -21.0801   -8.8744   19.8963 H   0  0  0  0  0  0
  -22.3666  -10.9639   19.6172 H   0  0  0  0  0  0
  -21.1957   -7.6117   23.9693 H   0  0  0  0  0  0
  -21.1501   -6.0510   25.9074 H   0  0  0  0  0  0
  -22.0597   -2.7583   23.2861 H   0  0  0  0  0  0
  -22.4057  -11.9888   22.4847 H   0  0  0  0  0  0
  -21.1098  -13.1290   22.2602 H   0  0  0  0  0  0
  -24.5874  -15.7432   20.3806 H   0  0  0  0  0  0
  -26.1322  -15.5014   19.7502 H   0  0  0  0  0  0
  -26.7160  -32.5465   23.1098 H   0  0  0  0  0  0
  -25.0058  -33.9731   25.0414 H   0  0  0  0  0  0
  -22.7062  -31.2981   21.3978 H   0  0  0  0  0  0
  -23.3747  -35.9627   23.3314 H   0  0  0  0  0  0
  -24.3575  -36.8900   22.2050 H   0  0  0  0  0  0
  -23.7245  -37.6495   23.6659 H   0  0  0  0  0  0
  -26.0762  -31.5677   20.5959 H   0  0  0  0  0  0
  -26.8323  -30.8541   21.9914 H   0  0  0  0  0  0
  -28.1251  -29.0492   21.1392 H   0  0  0  0  0  0
  -26.0239  -25.9038   19.0651 H   0  0  0  0  0  0
  -23.9768  -27.2598   19.0660 H   0  0  0  0  0  0
  -23.7371  -30.5722   19.3987 H   0  0  0  0  0  0
  -22.7491  -29.2237   19.8713 H   0  0  0  0  0  0
  -25.1296  -36.1931   25.0816 H   0  0  0  0  0  0
  -20.9963  -28.3246   24.1424 H   0  0  0  0  0  0
  -20.5652  -26.2287   23.3617 H   0  0  0  0  0  0
  -21.6634  -26.7426   22.1223 H   0  0  0  0  0  0
  -19.6900  -25.6297   21.1238 H   0  0  0  0  0  0
  -19.6675  -27.3199   20.6754 H   0  0  0  0  0  0
  -17.4189  -26.6674   21.4034 H   0  0  0  0  0  0
  -18.0319  -26.0069   22.9023 H   0  0  0  0  0  0
  -19.7935  -30.7264   24.2274 H   0  0  0  0  0  0
  -17.5015  -31.6261   24.5175 H   0  0  0  0  0  0
  -15.5351  -30.2987   23.7652 H   0  0  0  0  0  0
  -15.8669  -28.0824   22.7059 H   0  0  0  0  0  0
  -24.5883  -30.7111   25.7785 H   0  0  0  0  0  0
  -24.8951  -32.2915   26.4890 H   0  0  0  0  0  0
  -25.8058  -30.8902   27.0211 H   0  0  0  0  0  0
  -26.2887  -29.6770   24.1187 H   0  0  0  0  0  0
  -27.4035  -29.7273   25.4651 H   0  0  0  0  0  0
  -27.8750  -30.4304   23.9355 H   0  0  0  0  0  0
  -27.2644  -33.3628   26.2064 H   0  0  0  0  0  0
  -28.3846  -32.6915   25.0304 H   0  0  0  0  0  0
  -28.0724  -31.8464   26.5389 H   0  0  0  0  0  0
  -28.2605  -38.0089   24.7504 H   0  0  0  0  0  0
  -28.1067  -36.2619   24.6299 H   0  0  0  0  0  0
  -27.2298  -37.1455   25.8869 H   0  0  0  0  0  0
  -20.9353  -29.8736   21.6899 H   0  0  0  0  0  0
  -26.0173  -38.2849   24.1410 H   0  0  0  0  0  0
  -31.6871  -17.7717   21.1369 H   0  0  0  0  0  0
  -31.0713  -17.8578   19.5045 H   0  0  0  0  0  0
  -31.3348  -20.1535   20.4802 H   0  0  0  0  0  0
  -30.3386  -19.7492   21.8292 H   0  0  0  0  0  0
  -27.5258  -17.0542   20.4961 H   0  0  0  0  0  0
  -28.4972  -17.4817   19.1165 H   0  0  0  0  0  0
  -29.4369  -17.3195   22.0169 H   0  0  0  0  0  0
  -29.3647  -19.8725   18.9422 H   0  0  0  0  0  0
  -32.4497  -22.8724   17.3912 H   0  0  0  0  0  0
  -32.2618  -23.7785   18.8871 H   0  0  0  0  0  0
  -31.2937  -24.1812   17.4633 H   0  0  0  0  0  0
  -27.7550  -25.0796   17.7213 H   0  0  0  0  0  0
  -27.1055  -23.5916   18.3898 H   0  0  0  0  0  0
  -28.4554  -23.5493   17.2588 H   0  0  0  0  0  0
  -24.6042  -19.2286   20.4981 H   0  0  0  0  0  0
  -25.7201  -18.5767   21.6861 H   0  0  0  0  0  0
  -25.4317  -17.7389   20.1546 H   0  0  0  0  0  0
  -25.5351  -19.8379   18.1298 H   0  0  0  0  0  0
  -26.6778  -18.5140   17.9973 H   0  0  0  0  0  0
  -27.2392  -20.1807   17.9251 H   0  0  0  0  0  0
  -28.4820  -21.8299   21.1542 H   0  0  0  0  0  0
  -27.9161  -21.7791   19.5210 H   0  0  0  0  0  0
  -31.1943  -21.4662   18.7944 H   0  0  0  0  0  0
  -30.0551  -22.0420   17.6343 H   0  0  0  0  0  0
  -28.9562  -25.0191   21.3068 H   0  0  0  0  0  0
  -27.3710  -24.8037   20.6475 H   0  0  0  0  0  0
  -29.8147  -24.8568   18.9235 H   0  0  0  0  0  0
  -30.3944  -23.0346   20.4936 H   0  0  0  0  0  0
  -26.4871  -20.5231   20.3135 H   0  0  0  0  0  0
  -28.8432  -15.1909   21.1623 H   0  0  0  0  0  0
  -28.0200  -19.2168   21.4144 H   0  0  0  0  0  0
  1 25  1  0  0  0
  1 30  2  0  0  0
  1 86  1  0  0  0
  2  3  1  0  0  0
  2 25  1  0  0  0
  2 88  1  0  0  0
  2 89  1  0  0  0
  3  4  1  0  0  0
  3 90  1  0  0  0
  3 91  1  0  0  0
  4  5  1  0  0  0
  4 92  1  0  0  0
  4 93  1  0  0  0
  5  6  1  0  0  0
  5 26  1  0  0  0
  5 94  1  0  0  0
  6 25  1  0  0  0
  6 95  1  0  0  0
  6 96  1  0  0  0
  7  8  2  0  0  0
  7 26  1  0  0  0
  7 29  1  0  0  0
  8  9  1  0  0  0
  8 22  1  0  0  0
  9 10  1  0  0  0
  9 27  2  0  0  0
 10 11  2  0  0  0
 10 15  1  0  0  0
 11 12  1  0  0  0
 11 97  1  0  0  0
 12 13  2  0  0  0
 12 98  1  0  0  0
 13 14  1  0  0  0
 13 31  1  0  0  0
 14 15  2  0  0  0
 14 99  1  0  0  0
 15100  1  0  0  0
 16 17  2  0  0  0
 16 21  1  0  0  0
 16 31  1  0  0  0
 17 18  1  0  0  0
 17101  1  0  0  0
 18 19  2  0  0  0
 18102  1  0  0  0
 19 20  1  0  0  0
 19 24  1  0  0  0
 20 21  2  0  0  0
 20103  1  0  0  0
 21 23  1  0  0  0
 22 28  1  0  0  0
 22 32  2  0  0  0
 26 27  1  0  0  0
 28104  1  0  0  0
 28105  1  0  0  0
 29106  1  0  0  0
 29107  1  0  0  0
 33 34  1  0  0  0
 33 66  1  0  0  0
 33 70  2  0  0  0
 34 36  1  0  0  0
 34 59  1  0  0  0
 34108  1  0  0  0
 35 44  2  0  0  0
 35 45  1  0  0  0
 35 68  1  0  0  0
 36 56  1  0  0  0
 36109  1  0  0  0
 37 39  1  0  0  0
 37 47  1  0  0  0
 37 66  1  0  0  0
 37110  1  0  0  0
 38 43  2  0  0  0
 38 46  1  0  0  0
 38 47  1  0  0  0
 39 64  1  0  0  0
 39 67  2  0  0  0
 40 52  1  0  0  0
 40 53  2  0  0  0
 40 58  1  0  0  0
 41111  1  0  0  0
 41112  1  0  0  0
 41113  1  0  0  0
 41 48  1  0  0  0
 42 43  1  0  0  0
 42 66  1  0  0  0
 42114  1  0  0  0
 42115  1  0  0  0
 43 44  1  0  0  0
 44116  1  0  0  0
 45 46  2  0  0  0
 45117  1  0  0  0
 46118  1  0  0  0
 47119  1  0  0  0
 47120  1  0  0  0
 48 56  1  0  0  0
 48 65  1  0  0  0
 48121  1  0  0  0
 49 50  1  0  0  0
 49 53  1  0  0  0
 49 64  1  0  0  0
 49122  1  0  0  0
 50 51  1  0  0  0
 50123  1  0  0  0
 50124  1  0  0  0
 51 52  1  0  0  0
 51125  1  0  0  0
 51126  1  0  0  0
 52127  1  0  0  0
 52128  1  0  0  0
 53 54  1  0  0  0
 54 55  2  0  0  0
 54129  1  0  0  0
 55 57  1  0  0  0
 55130  1  0  0  0
 56 69  2  0  0  0
 57 58  2  0  0  0
 57131  1  0  0  0
 58132  1  0  0  0
 59 60  1  0  0  0
 59 61  1  0  0  0
 59 62  1  0  0  0
 60133  1  0  0  0
 60134  1  0  0  0
 60135  1  0  0  0
 61136  1  0  0  0
 61137  1  0  0  0
 61138  1  0  0  0
 62139  1  0  0  0
 62140  1  0  0  0
 62141  1  0  0  0
 63 65  1  0  0  0
 63142  1  0  0  0
 63143  1  0  0  0
 63144  1  0  0  0
 64145  1  0  0  0
 65146  1  0  0  0
 68 82  1  0  0  0
 71 72  1  0  0  0
 71 74  1  0  0  0
 71147  1  0  0  0
 71148  1  0  0  0
 72 75  1  0  0  0
 72149  1  0  0  0
 72150  1  0  0  0
 73 74  1  0  0  0
 73151  1  0  0  0
 73152  1  0  0  0
 73 87  1  0  0  0
 74 86  1  0  0  0
 74153  1  0  0  0
 75 80  1  0  0  0
 75 87  1  0  0  0
 75154  1  0  0  0
 76 81  1  0  0  0
 76155  1  0  0  0
 76156  1  0  0  0
 76157  1  0  0  0
 77158  1  0  0  0
 77159  1  0  0  0
 77160  1  0  0  0
 77 83  1  0  0  0
 78161  1  0  0  0
 78162  1  0  0  0
 78163  1  0  0  0
 78 85  1  0  0  0
 79 85  1  0  0  0
 79164  1  0  0  0
 79165  1  0  0  0
 79166  1  0  0  0
 80167  1  0  0  0
 80168  1  0  0  0
 80 84  1  0  0  0
 81 84  1  0  0  0
 81169  1  0  0  0
 81170  1  0  0  0
 82 83  1  0  0  0
 82171  1  0  0  0
 82172  1  0  0  0
 83 84  1  0  0  0
 83173  1  0  0  0
 84174  1  0  0  0
 85 87  1  0  0  0
 85175  1  0  0  0
 86176  1  0  0  0
 87177  1  0  0  0
M  CHG  1  87   1
M  ISO  4   1 100  68 101  82 101  86 100
M  END
> <chiral flag>
0

> <version>
0

> <s_m_source_file>
/data/baiqing/PycharmProjects/Reinvent-master-3.2/result/LINK_invent/BTK/process_docking_weight1_custom_sum_contain_oxygen_bond_distance_aromatic_linkinvent_7_9_3/rearranged_h_0107.sdf

> <i_m_source_file_index>
93

> <r_mmod_Potential_Energy-OPLS-2005>
76.7436981201172

> <r_mmod_Stretch_Energy-OPLS-2005>
86.8444900512695

> <r_mmod_Bend_Energy-OPLS-2005>
191.907989501953

> <r_mmod_Torsional_Energy-OPLS-2005>
284.092529296875

> <r_mmod_Improper_Torsional_Energy-OPLS-2005>
7.41799211502075

> <r_mmod_Van_der_Waal_Energy-OPLS-2005>
131.106170654297

> <r_mmod_Electrostatic_Energy-OPLS-2005>
-236.451690673828

> <r_mmod_Solvation_Energy-OPLS-2005>
-429.29638671875

> <b_mmod_Minimization_Converged-OPLS-2005>
0

> <r_mmod_RMS_Derivative-OPLS-2005>
1.23718178272247

$$$$
95
                    3D
 Structure written by MMmdl.
154162  0  0  1  0            999 V2000
  -30.6029  -14.7877   20.4507 C   0  0  0  0  0  0
  -30.4372  -12.4859   19.4865 C   0  0  0  0  0  0
  -29.5115  -12.5110   18.2497 C   0  0  0  0  0  0
  -28.0479  -12.2990   18.6758 C   0  0  0  0  0  0
  -27.6398  -13.2282   19.8481 C   0  0  2  0  0  0
  -28.6828  -13.2048   20.9884 C   0  0  0  0  0  0
  -25.2522  -13.8180   20.5696 C   0  0  0  0  0  0
  -24.1811  -13.0441   20.9230 C   0  0  0  0  0  0
  -24.6393  -11.6912   20.8782 C   0  0  0  0  0  0
  -23.9069  -10.4285   21.0442 C   0  0  0  0  0  0
  -24.3617   -9.4188   21.9203 C   0  0  0  0  0  0
  -23.6291   -8.2225   22.0756 C   0  0  0  0  0  0
  -22.4273   -8.0268   21.3543 C   0  0  0  0  0  0
  -21.9920   -9.0249   20.4649 C   0  0  0  0  0  0
  -22.7253  -10.2128   20.3083 C   0  0  0  0  0  0
  -21.6849   -6.0733   22.5275 C   0  0  0  0  0  0
  -21.4008   -6.5647   23.8203 C   0  0  0  0  0  0
  -21.3665   -5.6806   24.9168 C   0  0  0  0  0  0
  -21.6047   -4.3067   24.7223 C   0  0  0  0  0  0
  -21.8816   -3.8156   23.4344 C   0  0  0  0  0  0
  -21.9183   -4.6964   22.3398 C   0  0  0  0  0  0
  -22.7833  -13.5227   21.1870 C   0  0  0  0  0  0
  -22.1657   -4.2153   21.0975 F   0  0  0  0  0  0
  -21.5626   -3.4548   25.7735 F   0  0  0  0  0  0
  -29.9827  -13.5566   20.4048 N   0  0  0  0  0  0
  -26.2934  -12.9377   20.3279 N   0  0  0  0  0  0
  -25.9321  -11.6522   20.5777 N   0  0  0  0  0  0
  -22.0501  -12.8207   22.0422 N   0  0  0  0  0  0
  -25.4211  -15.1886   20.4034 N   0  0  0  0  0  0
  -31.7923  -14.8790   20.1363 O   0  0  0  0  0  0
  -21.6634   -6.8869   21.4232 O   0  0  0  0  0  0
  -22.3508  -14.5516   20.6689 O   0  0  0  0  0  0
  -24.6334  -31.8540   23.1954 C   0  0  0  0  0  0
  -25.9152  -32.4753   23.8300 C   0  0  1  0  0  0
  -27.2113  -27.2461   20.1361 C   0  0  0  0  0  0
  -25.5921  -33.8554   24.2216 N   0  0  0  0  0  0
  -23.4277  -30.4768   21.5409 C   0  0  2  0  0  0
  -24.8703  -28.9101   20.1162 C   0  0  0  0  0  0
  -22.7482  -29.4633   22.4924 C   0  0  0  0  0  0
  -18.0296  -28.1392   22.8474 C   0  0  0  0  0  0
  -24.1495  -36.7297   23.2639 C   0  0  0  0  0  0
  -25.9746  -30.7609   21.3739 C   0  0  0  0  0  0
  -26.0442  -29.3801   20.7196 C   0  0  0  0  0  0
  -27.2218  -28.5645   20.7077 C   0  0  0  0  0  0
  -26.0152  -26.8338   19.5174 C   0  0  0  0  0  0
  -24.8609  -27.6463   19.5034 C   0  0  0  0  0  0
  -23.6439  -29.8044   20.1597 C   0  0  0  0  0  0
  -25.4121  -36.3077   24.0322 C   0  0  1  0  0  0
  -20.5884  -28.3734   23.1275 C   0  0  2  0  0  0
  -20.6800  -26.9446   22.5426 C   0  0  0  0  0  0
  -19.5808  -26.6391   21.5216 C   0  0  0  0  0  0
  -18.1979  -26.7948   22.1601 C   0  0  0  0  0  0
  -19.1538  -28.8879   23.2869 C   0  0  0  0  0  0
  -18.9446  -30.1470   23.8898 C   0  0  0  0  0  0
  -17.6446  -30.6591   24.0555 C   0  0  0  0  0  0
  -25.9058  -34.9449   23.5080 C   0  0  0  0  0  0
  -16.5341  -29.9078   23.6321 C   0  0  0  0  0  0
  -16.7276  -28.6487   23.0355 C   0  0  0  0  0  0
  -26.4491  -31.6597   25.0711 C   0  0  0  0  0  0
  -25.3690  -31.3789   26.1422 C   0  0  0  0  0  0
  -27.0334  -30.3004   24.6238 C   0  0  0  0  0  0
  -27.6041  -32.4333   25.7495 C   0  0  0  0  0  0
  -27.5586  -37.1808   24.8461 C   0  0  0  0  0  0
  -21.4188  -29.3082   22.3661 N   0  0  0  0  0  0
  -26.4298  -37.3777   23.9399 N   0  0  0  0  0  0
  -24.6982  -31.0497   22.0929 N   0  0  0  0  0  0
  -23.4175  -28.8166   23.3014 O   0  0  0  0  0  0
  -28.3169  -26.3664   20.1150 O   0  0  0  0  0  0
  -26.5659  -34.8926   22.4665 O   0  0  0  0  0  0
  -23.5479  -32.1367   23.7250 O   0  0  0  0  0  0
  -27.8492  -18.3484   20.8366 C   0  0  0  0  0  0
  -27.3344  -20.7378   20.7022 C   0  0  0  0  0  0
  -26.9187  -19.4070   20.9302 C   0  0  0  0  0  0
  -29.1972  -18.6185   20.5422 C   0  0  0  0  0  0
  -28.6841  -21.0153   20.4302 C   0  0  0  0  0  0
  -25.4786  -19.1202   21.3080 C   0  0  0  0  0  0
  -30.2421  -17.4045   20.4684 C   0  0  0  0  0  0
  -28.3399  -23.5971   19.7885 C   0  0  0  0  0  0
  -28.2089  -24.9651   20.6667 C   0  0  0  0  0  0
  -29.5873  -19.9533   20.3598 N   0  0  0  0  0  0
  -29.1176  -22.3931   20.3226 N   0  0  0  0  0  0
  -29.8334  -15.9309   20.6372 N   0  0  0  0  0  0
  -31.4740  -12.6219   19.1762 H   0  0  0  0  0  0
  -30.3990  -11.5162   19.9855 H   0  0  0  0  0  0
  -29.8129  -11.7458   17.5334 H   0  0  0  0  0  0
  -29.6041  -13.4691   17.7354 H   0  0  0  0  0  0
  -27.9472  -11.2566   18.9813 H   0  0  0  0  0  0
  -27.3775  -12.4324   17.8268 H   0  0  0  0  0  0
  -27.6230  -14.2372   19.4356 H   0  0  0  0  0  0
  -28.7270  -12.2249   21.4659 H   0  0  0  0  0  0
  -28.4043  -13.9149   21.7692 H   0  0  0  0  0  0
  -25.2762   -9.5656   22.4773 H   0  0  0  0  0  0
  -24.0005   -7.4616   22.7478 H   0  0  0  0  0  0
  -21.0853   -8.8777   19.8949 H   0  0  0  0  0  0
  -22.3730  -10.9666   19.6196 H   0  0  0  0  0  0
  -21.2008   -7.6159   23.9699 H   0  0  0  0  0  0
  -21.1496   -6.0545   25.9066 H   0  0  0  0  0  0
  -22.0592   -2.7617   23.2846 H   0  0  0  0  0  0
  -22.4153  -11.9866   22.4774 H   0  0  0  0  0  0
  -21.1110  -13.1201   22.2624 H   0  0  0  0  0  0
  -24.6386  -15.8279   20.4787 H   0  0  0  0  0  0
  -26.2342  -15.6047   19.9697 H   0  0  0  0  0  0
  -26.7214  -32.5390   23.1035 H   0  0  0  0  0  0
  -25.0013  -33.9682   25.0327 H   0  0  0  0  0  0
  -22.7265  -31.3018   21.3946 H   0  0  0  0  0  0
  -23.3757  -35.9633   23.3300 H   0  0  0  0  0  0
  -24.3578  -36.8925   22.2053 H   0  0  0  0  0  0
  -23.7252  -37.6499   23.6666 H   0  0  0  0  0  0
  -26.1161  -31.5171   20.6011 H   0  0  0  0  0  0
  -26.8516  -30.8096   22.0073 H   0  0  0  0  0  0
  -28.1283  -28.9263   21.1740 H   0  0  0  0  0  0
  -25.9674  -25.8637   19.0439 H   0  0  0  0  0  0
  -23.9610  -27.2804   19.0278 H   0  0  0  0  0  0
  -23.7702  -30.5787   19.4019 H   0  0  0  0  0  0
  -22.7580  -29.2435   19.8573 H   0  0  0  0  0  0
  -25.1309  -36.1930   25.0817 H   0  0  0  0  0  0
  -20.9964  -28.3321   24.1405 H   0  0  0  0  0  0
  -20.5681  -26.2338   23.3638 H   0  0  0  0  0  0
  -21.6686  -26.7483   22.1244 H   0  0  0  0  0  0
  -19.6977  -25.6282   21.1291 H   0  0  0  0  0  0
  -19.6757  -27.3163   20.6716 H   0  0  0  0  0  0
  -17.4263  -26.6698   21.3990 H   0  0  0  0  0  0
  -18.0358  -26.0101   22.9000 H   0  0  0  0  0  0
  -19.7923  -30.7276   24.2274 H   0  0  0  0  0  0
  -17.4988  -31.6282   24.5134 H   0  0  0  0  0  0
  -15.5336  -30.2967   23.7637 H   0  0  0  0  0  0
  -15.8672  -28.0787   22.7089 H   0  0  0  0  0  0
  -24.5868  -30.7134   25.7754 H   0  0  0  0  0  0
  -24.8876  -32.2976   26.4781 H   0  0  0  0  0  0
  -25.7971  -30.9012   27.0243 H   0  0  0  0  0  0
  -26.2931  -29.6753   24.1231 H   0  0  0  0  0  0
  -27.3953  -29.7280   25.4790 H   0  0  0  0  0  0
  -27.8836  -30.4257   23.9530 H   0  0  0  0  0  0
  -27.2650  -33.3637   26.2064 H   0  0  0  0  0  0
  -28.3864  -32.6880   25.0335 H   0  0  0  0  0  0
  -28.0694  -31.8460   26.5423 H   0  0  0  0  0  0
  -28.2611  -38.0097   24.7497 H   0  0  0  0  0  0
  -28.1072  -36.2629   24.6299 H   0  0  0  0  0  0
  -27.2300  -37.1479   25.8862 H   0  0  0  0  0  0
  -20.9380  -29.8782   21.6851 H   0  0  0  0  0  0
  -26.0183  -38.2863   24.1370 H   0  0  0  0  0  0
  -27.5256  -17.3322   21.0066 H   0  0  0  0  0  0
  -26.6156  -21.5432   20.7879 H   0  0  0  0  0  0
  -25.3231  -19.2944   22.3738 H   0  0  0  0  0  0
  -25.2144  -18.0859   21.0884 H   0  0  0  0  0  0
  -24.7944  -19.7642   20.7560 H   0  0  0  0  0  0
  -30.7596  -17.4910   19.5111 H   0  0  0  0  0  0
  -30.9968  -17.6041   21.2279 H   0  0  0  0  0  0
  -27.3432  -23.2816   19.4766 H   0  0  0  0  0  0
  -28.8368  -23.8676   18.8565 H   0  0  0  0  0  0
  -27.2879  -24.8980   21.2472 H   0  0  0  0  0  0
  -28.9959  -24.9189   21.4198 H   0  0  0  0  0  0
  -30.1238  -22.5063   20.2596 H   0  0  0  0  0  0
  -28.8658  -15.7787   20.8689 H   0  0  0  0  0  0
  1 25  1  0  0  0
  1 30  2  0  0  0
  1 82  1  0  0  0
  2  3  1  0  0  0
  2 25  1  0  0  0
  2 83  1  0  0  0
  2 84  1  0  0  0
  3  4  1  0  0  0
  3 85  1  0  0  0
  3 86  1  0  0  0
  4  5  1  0  0  0
  4 87  1  0  0  0
  4 88  1  0  0  0
  5  6  1  0  0  0
  5 26  1  0  0  0
  5 89  1  0  0  0
  6 25  1  0  0  0
  6 90  1  0  0  0
  6 91  1  0  0  0
  7  8  2  0  0  0
  7 26  1  0  0  0
  7 29  1  0  0  0
  8  9  1  0  0  0
  8 22  1  0  0  0
  9 10  1  0  0  0
  9 27  2  0  0  0
 10 11  2  0  0  0
 10 15  1  0  0  0
 11 12  1  0  0  0
 11 92  1  0  0  0
 12 13  2  0  0  0
 12 93  1  0  0  0
 13 14  1  0  0  0
 13 31  1  0  0  0
 14 15  2  0  0  0
 14 94  1  0  0  0
 15 95  1  0  0  0
 16 17  2  0  0  0
 16 21  1  0  0  0
 16 31  1  0  0  0
 17 18  1  0  0  0
 17 96  1  0  0  0
 18 19  2  0  0  0
 18 97  1  0  0  0
 19 20  1  0  0  0
 19 24  1  0  0  0
 20 21  2  0  0  0
 20 98  1  0  0  0
 21 23  1  0  0  0
 22 28  1  0  0  0
 22 32  2  0  0  0
 26 27  1  0  0  0
 28 99  1  0  0  0
 28100  1  0  0  0
 29101  1  0  0  0
 29102  1  0  0  0
 33 34  1  0  0  0
 33 66  1  0  0  0
 33 70  2  0  0  0
 34 36  1  0  0  0
 34 59  1  0  0  0
 34103  1  0  0  0
 35 44  2  0  0  0
 35 45  1  0  0  0
 35 68  1  0  0  0
 36 56  1  0  0  0
 36104  1  0  0  0
 37 39  1  0  0  0
 37 47  1  0  0  0
 37 66  1  0  0  0
 37105  1  0  0  0
 38 43  2  0  0  0
 38 46  1  0  0  0
 38 47  1  0  0  0
 39 64  1  0  0  0
 39 67  2  0  0  0
 40 52  1  0  0  0
 40 53  2  0  0  0
 40 58  1  0  0  0
 41106  1  0  0  0
 41107  1  0  0  0
 41108  1  0  0  0
 41 48  1  0  0  0
 42 43  1  0  0  0
 42 66  1  0  0  0
 42109  1  0  0  0
 42110  1  0  0  0
 43 44  1  0  0  0
 44111  1  0  0  0
 45 46  2  0  0  0
 45112  1  0  0  0
 46113  1  0  0  0
 47114  1  0  0  0
 47115  1  0  0  0
 48 56  1  0  0  0
 48 65  1  0  0  0
 48116  1  0  0  0
 49 50  1  0  0  0
 49 53  1  0  0  0
 49 64  1  0  0  0
 49117  1  0  0  0
 50 51  1  0  0  0
 50118  1  0  0  0
 50119  1  0  0  0
 51 52  1  0  0  0
 51120  1  0  0  0
 51121  1  0  0  0
 52122  1  0  0  0
 52123  1  0  0  0
 53 54  1  0  0  0
 54 55  2  0  0  0
 54124  1  0  0  0
 55 57  1  0  0  0
 55125  1  0  0  0
 56 69  2  0  0  0
 57 58  2  0  0  0
 57126  1  0  0  0
 58127  1  0  0  0
 59 60  1  0  0  0
 59 61  1  0  0  0
 59 62  1  0  0  0
 60128  1  0  0  0
 60129  1  0  0  0
 60130  1  0  0  0
 61131  1  0  0  0
 61132  1  0  0  0
 61133  1  0  0  0
 62134  1  0  0  0
 62135  1  0  0  0
 62136  1  0  0  0
 63 65  1  0  0  0
 63137  1  0  0  0
 63138  1  0  0  0
 63139  1  0  0  0
 64140  1  0  0  0
 65141  1  0  0  0
 68 79  1  0  0  0
 71 73  2  0  0  0
 71 74  1  0  0  0
 71142  1  0  0  0
 72 73  1  0  0  0
 72 75  2  0  0  0
 72143  1  0  0  0
 73 76  1  0  0  0
 74 77  1  0  0  0
 74 80  2  0  0  0
 75 80  1  0  0  0
 75 81  1  0  0  0
 76144  1  0  0  0
 76145  1  0  0  0
 76146  1  0  0  0
 77 82  1  0  0  0
 77147  1  0  0  0
 77148  1  0  0  0
 78 79  1  0  0  0
 78 81  1  0  0  0
 78149  1  0  0  0
 78150  1  0  0  0
 79151  1  0  0  0
 79152  1  0  0  0
 81153  1  0  0  0
 82154  1  0  0  0
M  ISO  4   1 100  68 101  79 101  82 100
M  END
> <chiral flag>
0

> <version>
0

> <s_m_source_file>
/data/baiqing/PycharmProjects/Reinvent-master-3.2/result/LINK_invent/BTK/process_docking_weight1_custom_sum_contain_oxygen_bond_distance_aromatic_linkinvent_7_9_3/rearranged_h_0107.sdf

> <i_m_source_file_index>
94

> <r_mmod_Potential_Energy-OPLS-2005>
-173.208648681641

> <r_mmod_Stretch_Energy-OPLS-2005>
129.468627929688

> <r_mmod_Bend_Energy-OPLS-2005>
181.273818969727

> <r_mmod_Torsional_Energy-OPLS-2005>
221.972290039062

> <r_mmod_Improper_Torsional_Energy-OPLS-2005>
7.05081701278687

> <r_mmod_Van_der_Waal_Energy-OPLS-2005>
129.676528930664

> <r_mmod_Electrostatic_Energy-OPLS-2005>
-702.287780761719

> <r_mmod_Solvation_Energy-OPLS-2005>
-239.098876953125

> <b_mmod_Minimization_Converged-OPLS-2005>
0

> <r_mmod_RMS_Derivative-OPLS-2005>
2.62179517745972

$$$$
96
                    3D
 Structure written by MMmdl.
163171  0  0  1  0            999 V2000
  -30.6349  -14.6845   20.4734 C   0  0  0  0  0  0
  -30.4290  -12.4199   19.4598 C   0  0  0  0  0  0
  -29.5043  -12.4972   18.2261 C   0  0  0  0  0  0
  -28.0301  -12.3309   18.6429 C   0  0  0  0  0  0
  -27.6440  -13.2255   19.8513 C   0  0  2  0  0  0
  -28.6899  -13.1356   20.9835 C   0  0  0  0  0  0
  -25.2528  -13.8187   20.5691 C   0  0  0  0  0  0
  -24.1811  -13.0440   20.9199 C   0  0  0  0  0  0
  -24.6394  -11.6916   20.8746 C   0  0  0  0  0  0
  -23.9069  -10.4293   21.0406 C   0  0  0  0  0  0
  -24.3618   -9.4210   21.9182 C   0  0  0  0  0  0
  -23.6290   -8.2247   22.0759 C   0  0  0  0  0  0
  -22.4275   -8.0283   21.3545 C   0  0  0  0  0  0
  -21.9912   -9.0255   20.4647 C   0  0  0  0  0  0
  -22.7242  -10.2133   20.3053 C   0  0  0  0  0  0
  -21.6852   -6.0734   22.5275 C   0  0  0  0  0  0
  -21.4015   -6.5639   23.8208 C   0  0  0  0  0  0
  -21.3660   -5.6791   24.9171 C   0  0  0  0  0  0
  -21.6045   -4.3054   24.7222 C   0  0  0  0  0  0
  -21.8820   -3.8146   23.4343 C   0  0  0  0  0  0
  -21.9194   -4.6962   22.3398 C   0  0  0  0  0  0
  -22.7833  -13.5224   21.1850 C   0  0  0  0  0  0
  -22.1661   -4.2147   21.0975 F   0  0  0  0  0  0
  -21.5630   -3.4539   25.7736 F   0  0  0  0  0  0
  -29.9942  -13.4729   20.4007 N   0  0  0  0  0  0
  -26.2949  -12.9385   20.3285 N   0  0  0  0  0  0
  -25.9321  -11.6533   20.5752 N   0  0  0  0  0  0
  -22.0475  -12.8218   22.0406 N   0  0  0  0  0  0
  -25.4224  -15.1915   20.4115 N   0  0  0  0  0  0
  -31.8207  -14.7842   20.1491 O   0  0  0  0  0  0
  -21.6640   -6.8878   21.4238 O   0  0  0  0  0  0
  -22.3522  -14.5533   20.6700 O   0  0  0  0  0  0
  -24.6281  -31.8566   23.1989 C   0  0  0  0  0  0
  -25.9121  -32.4757   23.8330 C   0  0  1  0  0  0
  -27.2248  -27.2987   20.1325 C   0  0  0  0  0  0
  -25.5930  -33.8558   24.2260 N   0  0  0  0  0  0
  -23.4221  -30.4765   21.5431 C   0  0  2  0  0  0
  -24.8707  -28.9226   20.1152 C   0  0  0  0  0  0
  -22.7482  -29.4592   22.4940 C   0  0  0  0  0  0
  -18.0282  -28.1361   22.8473 C   0  0  0  0  0  0
  -24.1490  -36.7292   23.2636 C   0  0  0  0  0  0
  -25.9633  -30.7831   21.3703 C   0  0  0  0  0  0
  -26.0400  -29.4065   20.7164 C   0  0  0  0  0  0
  -27.2236  -28.6089   20.7079 C   0  0  0  0  0  0
  -26.0351  -26.8647   19.5128 C   0  0  0  0  0  0
  -24.8705  -27.6585   19.5027 C   0  0  0  0  0  0
  -23.6385  -29.8046   20.1609 C   0  0  0  0  0  0
  -25.4114  -36.3072   24.0324 C   0  0  1  0  0  0
  -20.5881  -28.3666   23.1274 C   0  0  2  0  0  0
  -20.6764  -26.9385   22.5405 C   0  0  0  0  0  0
  -19.5748  -26.6366   21.5191 C   0  0  0  0  0  0
  -18.1925  -26.7905   22.1599 C   0  0  0  0  0  0
  -19.1536  -28.8829   23.2859 C   0  0  0  0  0  0
  -18.9457  -30.1433   23.8868 C   0  0  0  0  0  0
  -17.6460  -30.6565   24.0548 C   0  0  0  0  0  0
  -25.9054  -34.9440   23.5096 C   0  0  0  0  0  0
  -16.5351  -29.9061   23.6326 C   0  0  0  0  0  0
  -16.7270  -28.6483   23.0342 C   0  0  0  0  0  0
  -26.4504  -31.6575   25.0710 C   0  0  0  0  0  0
  -25.3736  -31.3710   26.1438 C   0  0  0  0  0  0
  -27.0355  -30.2999   24.6172 C   0  0  0  0  0  0
  -27.6051  -32.4323   25.7494 C   0  0  0  0  0  0
  -27.5576  -37.1799   24.8460 C   0  0  0  0  0  0
  -21.4192  -29.3028   22.3682 N   0  0  0  0  0  0
  -26.4291  -37.3768   23.9403 N   0  0  0  0  0  0
  -24.6901  -31.0560   22.0945 N   0  0  0  0  0  0
  -23.4200  -28.8140   23.3031 O   0  0  0  0  0  0
  -28.3407  -26.4486   20.1324 O   0  0  0  0  0  0
  -26.5623  -34.8908   22.4663 O   0  0  0  0  0  0
  -23.5443  -32.1379   23.7305 O   0  0  0  0  0  0
  -29.3968  -18.4396   20.2853 C   0  0  0  0  0  0
  -31.5993  -18.9763   22.0843 C   0  0  0  0  0  0
  -31.0095  -17.5664   22.1161 C   0  0  0  0  0  0
  -30.5199  -20.0462   21.8249 C   0  0  0  0  0  0
  -30.3462  -17.2569   20.7692 C   0  0  1  0  0  0
  -27.7619  -23.5133   18.6242 C   0  0  0  0  0  0
  -27.3166  -20.8137   20.8627 C   0  0  0  0  0  0
  -29.2534  -22.4702   20.5475 C   0  0  0  0  0  0
  -28.1943  -25.0596   20.6524 C   0  0  0  0  0  0
  -28.7158  -23.8066   19.7931 C   0  0  2  0  0  0
  -28.7299  -20.9596   20.2623 C   0  0  1  0  0  0
  -29.5756  -19.7561   20.7215 N   0  0  0  0  0  0
  -29.8832  -15.8102   20.7236 N   0  0  0  0  0  0
  -28.5156  -18.1419   19.4749 O   0  0  0  0  0  0
  -31.4708  -12.5362   19.1569 H   0  0  0  0  0  0
  -30.3632  -11.4388   19.9326 H   0  0  0  0  0  0
  -29.7760  -11.7282   17.5016 H   0  0  0  0  0  0
  -29.6388  -13.4549   17.7209 H   0  0  0  0  0  0
  -27.8804  -11.2818   18.8997 H   0  0  0  0  0  0
  -27.3720  -12.5319   17.7971 H   0  0  0  0  0  0
  -27.6461  -14.2508   19.4809 H   0  0  0  0  0  0
  -28.7137  -12.1324   21.4116 H   0  0  0  0  0  0
  -28.4362  -13.8098   21.8029 H   0  0  0  0  0  0
  -25.2761   -9.5686   22.4761 H   0  0  0  0  0  0
  -23.9996   -7.4642   22.7484 H   0  0  0  0  0  0
  -21.0845   -8.8775   19.8950 H   0  0  0  0  0  0
  -22.3701  -10.9673   19.6165 H   0  0  0  0  0  0
  -21.2009   -7.6147   23.9709 H   0  0  0  0  0  0
  -21.1480   -6.0523   25.9072 H   0  0  0  0  0  0
  -22.0600   -2.7608   23.2842 H   0  0  0  0  0  0
  -22.4094  -11.9878   22.4789 H   0  0  0  0  0  0
  -21.1092  -13.1246   22.2605 H   0  0  0  0  0  0
  -24.6523  -15.8421   20.5225 H   0  0  0  0  0  0
  -26.2641  -15.6344   20.0658 H   0  0  0  0  0  0
  -26.7184  -32.5429   23.1071 H   0  0  0  0  0  0
  -25.0096  -33.9692   25.0419 H   0  0  0  0  0  0
  -22.7172  -31.2971   21.3953 H   0  0  0  0  0  0
  -23.3748  -35.9624   23.3299 H   0  0  0  0  0  0
  -24.3581  -36.8928   22.2049 H   0  0  0  0  0  0
  -23.7251  -37.6492   23.6674 H   0  0  0  0  0  0
  -26.0926  -31.5431   20.5987 H   0  0  0  0  0  0
  -26.8434  -30.8370   21.9994 H   0  0  0  0  0  0
  -28.1262  -28.9796   21.1736 H   0  0  0  0  0  0
  -26.0006  -25.8938   19.0408 H   0  0  0  0  0  0
  -23.9740  -27.2827   19.0288 H   0  0  0  0  0  0
  -23.7570  -30.5774   19.4011 H   0  0  0  0  0  0
  -22.7587  -29.2319   19.8607 H   0  0  0  0  0  0
  -25.1290  -36.1918   25.0818 H   0  0  0  0  0  0
  -20.9946  -28.3235   24.1403 H   0  0  0  0  0  0
  -20.5628  -26.2277   23.3608 H   0  0  0  0  0  0
  -21.6639  -26.7391   22.1219 H   0  0  0  0  0  0
  -19.6909  -25.6274   21.1226 H   0  0  0  0  0  0
  -19.6690  -27.3168   20.6712 H   0  0  0  0  0  0
  -17.4192  -26.6645   21.4003 H   0  0  0  0  0  0
  -18.0323  -26.0034   22.8982 H   0  0  0  0  0  0
  -19.7939  -30.7243   24.2235 H   0  0  0  0  0  0
  -17.5021  -31.6248   24.5143 H   0  0  0  0  0  0
  -15.5350  -30.2950   23.7669 H   0  0  0  0  0  0
  -15.8675  -28.0798   22.7063 H   0  0  0  0  0  0
  -24.5950  -30.7000   25.7790 H   0  0  0  0  0  0
  -24.8870  -32.2863   26.4814 H   0  0  0  0  0  0
  -25.8074  -30.8954   27.0244 H   0  0  0  0  0  0
  -26.2927  -29.6740   24.1209 H   0  0  0  0  0  0
  -27.4072  -29.7264   25.4674 H   0  0  0  0  0  0
  -27.8790  -30.4286   23.9382 H   0  0  0  0  0  0
  -27.2655  -33.3644   26.2024 H   0  0  0  0  0  0
  -28.3894  -32.6852   25.0347 H   0  0  0  0  0  0
  -28.0683  -31.8477   26.5455 H   0  0  0  0  0  0
  -28.2583  -38.0103   24.7512 H   0  0  0  0  0  0
  -28.1085  -36.2635   24.6286 H   0  0  0  0  0  0
  -27.2297  -37.1447   25.8863 H   0  0  0  0  0  0
  -20.9377  -29.8792   21.6922 H   0  0  0  0  0  0
  -26.0170  -38.2844   24.1404 H   0  0  0  0  0  0
  -32.3660  -19.0352   21.3096 H   0  0  0  0  0  0
  -32.1083  -19.1874   23.0260 H   0  0  0  0  0  0
  -30.2852  -17.4777   22.9269 H   0  0  0  0  0  0
  -31.8045  -16.8492   22.3246 H   0  0  0  0  0  0
  -31.0495  -20.9817   21.6654 H   0  0  0  0  0  0
  -29.9290  -20.1837   22.7311 H   0  0  0  0  0  0
  -31.1448  -17.3031   20.0264 H   0  0  0  0  0  0
  -28.1697  -22.7594   17.9515 H   0  0  0  0  0  0
  -27.5967  -24.4123   18.0295 H   0  0  0  0  0  0
  -26.7859  -23.1720   18.9667 H   0  0  0  0  0  0
  -26.6598  -21.6279   20.5635 H   0  0  0  0  0  0
  -27.3523  -20.8147   21.9526 H   0  0  0  0  0  0
  -26.8335  -19.8877   20.5509 H   0  0  0  0  0  0
  -29.2167  -22.6499   21.6233 H   0  0  0  0  0  0
  -30.3172  -22.4608   20.3117 H   0  0  0  0  0  0
  -28.7585  -25.0609   21.5851 H   0  0  0  0  0  0
  -27.1650  -24.8713   20.9622 H   0  0  0  0  0  0
  -29.6153  -24.2021   19.3188 H   0  0  0  0  0  0
  -28.6503  -20.8567   19.1797 H   0  0  0  0  0  0
  -28.8971  -15.6666   20.8756 H   0  0  0  0  0  0
  1 25  1  0  0  0
  1 30  2  0  0  0
  1 83  1  0  0  0
  2  3  1  0  0  0
  2 25  1  0  0  0
  2 85  1  0  0  0
  2 86  1  0  0  0
  3  4  1  0  0  0
  3 87  1  0  0  0
  3 88  1  0  0  0
  4  5  1  0  0  0
  4 89  1  0  0  0
  4 90  1  0  0  0
  5  6  1  0  0  0
  5 26  1  0  0  0
  5 91  1  0  0  0
  6 25  1  0  0  0
  6 92  1  0  0  0
  6 93  1  0  0  0
  7  8  2  0  0  0
  7 26  1  0  0  0
  7 29  1  0  0  0
  8  9  1  0  0  0
  8 22  1  0  0  0
  9 10  1  0  0  0
  9 27  2  0  0  0
 10 11  2  0  0  0
 10 15  1  0  0  0
 11 12  1  0  0  0
 11 94  1  0  0  0
 12 13  2  0  0  0
 12 95  1  0  0  0
 13 14  1  0  0  0
 13 31  1  0  0  0
 14 15  2  0  0  0
 14 96  1  0  0  0
 15 97  1  0  0  0
 16 17  2  0  0  0
 16 21  1  0  0  0
 16 31  1  0  0  0
 17 18  1  0  0  0
 17 98  1  0  0  0
 18 19  2  0  0  0
 18 99  1  0  0  0
 19 20  1  0  0  0
 19 24  1  0  0  0
 20 21  2  0  0  0
 20100  1  0  0  0
 21 23  1  0  0  0
 22 28  1  0  0  0
 22 32  2  0  0  0
 26 27  1  0  0  0
 28101  1  0  0  0
 28102  1  0  0  0
 29103  1  0  0  0
 29104  1  0  0  0
 33 34  1  0  0  0
 33 66  1  0  0  0
 33 70  2  0  0  0
 34 36  1  0  0  0
 34 59  1  0  0  0
 34105  1  0  0  0
 35 44  2  0  0  0
 35 45  1  0  0  0
 35 68  1  0  0  0
 36 56  1  0  0  0
 36106  1  0  0  0
 37 39  1  0  0  0
 37 47  1  0  0  0
 37 66  1  0  0  0
 37107  1  0  0  0
 38 43  2  0  0  0
 38 46  1  0  0  0
 38 47  1  0  0  0
 39 64  1  0  0  0
 39 67  2  0  0  0
 40 52  1  0  0  0
 40 53  2  0  0  0
 40 58  1  0  0  0
 41108  1  0  0  0
 41109  1  0  0  0
 41110  1  0  0  0
 41 48  1  0  0  0
 42 43  1  0  0  0
 42 66  1  0  0  0
 42111  1  0  0  0
 42112  1  0  0  0
 43 44  1  0  0  0
 44113  1  0  0  0
 45 46  2  0  0  0
 45114  1  0  0  0
 46115  1  0  0  0
 47116  1  0  0  0
 47117  1  0  0  0
 48 56  1  0  0  0
 48 65  1  0  0  0
 48118  1  0  0  0
 49 50  1  0  0  0
 49 53  1  0  0  0
 49 64  1  0  0  0
 49119  1  0  0  0
 50 51  1  0  0  0
 50120  1  0  0  0
 50121  1  0  0  0
 51 52  1  0  0  0
 51122  1  0  0  0
 51123  1  0  0  0
 52124  1  0  0  0
 52125  1  0  0  0
 53 54  1  0  0  0
 54 55  2  0  0  0
 54126  1  0  0  0
 55 57  1  0  0  0
 55127  1  0  0  0
 56 69  2  0  0  0
 57 58  2  0  0  0
 57128  1  0  0  0
 58129  1  0  0  0
 59 60  1  0  0  0
 59 61  1  0  0  0
 59 62  1  0  0  0
 60130  1  0  0  0
 60131  1  0  0  0
 60132  1  0  0  0
 61133  1  0  0  0
 61134  1  0  0  0
 61135  1  0  0  0
 62136  1  0  0  0
 62137  1  0  0  0
 62138  1  0  0  0
 63 65  1  0  0  0
 63139  1  0  0  0
 63140  1  0  0  0
 63141  1  0  0  0
 64142  1  0  0  0
 65143  1  0  0  0
 68 79  1  0  0  0
 71 75  1  0  0  0
 71 82  1  0  0  0
 71 84  2  0  0  0
 72 73  1  0  0  0
 72 74  1  0  0  0
 72144  1  0  0  0
 72145  1  0  0  0
 73 75  1  0  0  0
 73146  1  0  0  0
 73147  1  0  0  0
 74 82  1  0  0  0
 74148  1  0  0  0
 74149  1  0  0  0
 75 83  1  0  0  0
 75150  1  0  0  0
 76151  1  0  0  0
 76152  1  0  0  0
 76153  1  0  0  0
 76 80  1  0  0  0
 77154  1  0  0  0
 77155  1  0  0  0
 77156  1  0  0  0
 77 81  1  0  0  0
 78 80  1  0  0  0
 78 81  1  0  0  0
 78157  1  0  0  0
 78158  1  0  0  0
 79 80  1  0  0  0
 79159  1  0  0  0
 79160  1  0  0  0
 80161  1  0  0  0
 81 82  1  0  0  0
 81162  1  0  0  0
 83163  1  0  0  0
M  ISO  4   1 100  68 101  79 101  83 100
M  END
> <chiral flag>
0

> <version>
0

> <s_m_source_file>
/data/baiqing/PycharmProjects/Reinvent-master-3.2/result/LINK_invent/BTK/process_docking_weight1_custom_sum_contain_oxygen_bond_distance_aromatic_linkinvent_7_9_3/rearranged_h_0107.sdf

> <i_m_source_file_index>
95

> <r_mmod_Potential_Energy-OPLS-2005>
142.299209594727

> <r_mmod_Stretch_Energy-OPLS-2005>
112.978851318359

> <r_mmod_Bend_Energy-OPLS-2005>
171.100509643555

> <r_mmod_Torsional_Energy-OPLS-2005>
280.190277099609

> <r_mmod_Improper_Torsional_Energy-OPLS-2005>
4.37236404418945

> <r_mmod_Van_der_Waal_Energy-OPLS-2005>
128.546051025391

> <r_mmod_Electrostatic_Energy-OPLS-2005>
-403.915435791016

> <r_mmod_Solvation_Energy-OPLS-2005>
-212.120300292969

> <b_mmod_Minimization_Converged-OPLS-2005>
0

> <r_mmod_RMS_Derivative-OPLS-2005>
1.08639299869537

$$$$
