0
                    3D
 Structure written by MMmdl.
168176  0  0  1  0            999 V2000
  -30.5873  -14.6771   20.5044 C   0  0  0  0  0  0
  -30.4478  -12.4220   19.4444 C   0  0  0  0  0  0
  -29.5026  -12.5098   18.2231 C   0  0  0  0  0  0
  -28.0266  -12.3469   18.6370 C   0  0  0  0  0  0
  -27.6509  -13.2162   19.8651 C   0  0  2  0  0  0
  -28.6993  -13.0587   20.9906 C   0  0  0  0  0  0
  -25.2440  -13.8106   20.5439 C   0  0  0  0  0  0
  -24.1789  -13.0407   20.9208 C   0  0  0  0  0  0
  -24.6394  -11.6891   20.8828 C   0  0  0  0  0  0
  -23.9066  -10.4287   21.0472 C   0  0  0  0  0  0
  -24.3621   -9.4194   21.9226 C   0  0  0  0  0  0
  -23.6301   -8.2228   22.0757 C   0  0  0  0  0  0
  -22.4273   -8.0289   21.3551 C   0  0  0  0  0  0
  -21.9926   -9.0265   20.4645 C   0  0  0  0  0  0
  -22.7254  -10.2149   20.3091 C   0  0  0  0  0  0
  -21.6840   -6.0749   22.5284 C   0  0  0  0  0  0
  -21.3998   -6.5648   23.8223 C   0  0  0  0  0  0
  -21.3658   -5.6795   24.9183 C   0  0  0  0  0  0
  -21.6049   -4.3060   24.7219 C   0  0  0  0  0  0
  -21.8823   -3.8162   23.4338 C   0  0  0  0  0  0
  -21.9191   -4.6982   22.3402 C   0  0  0  0  0  0
  -22.7820  -13.5225   21.1884 C   0  0  0  0  0  0
  -22.1659   -4.2175   21.0976 F   0  0  0  0  0  0
  -21.5645   -3.4542   25.7732 F   0  0  0  0  0  0
  -30.0121  -13.4319   20.4318 N   0  0  0  0  0  0
  -26.2968  -12.9338   20.3329 N   0  0  0  0  0  0
  -25.9344  -11.6498   20.5888 N   0  0  0  0  0  0
  -22.0458  -12.8224   22.0450 N   0  0  0  0  0  0
  -25.3872  -15.1747   20.3251 N   0  0  0  0  0  0
  -31.7361  -14.8787   20.0967 O   0  0  0  0  0  0
  -21.6632   -6.8890   21.4245 O   0  0  0  0  0  0
  -22.3520  -14.5549   20.6743 O   0  0  0  0  0  0
  -24.6243  -31.8586   23.2011 C   0  0  0  0  0  0
  -25.9103  -32.4764   23.8315 C   0  0  1  0  0  0
  -27.2374  -27.3201   20.1346 C   0  0  0  0  0  0
  -25.5955  -33.8558   24.2279 N   0  0  0  0  0  0
  -23.4182  -30.4788   21.5407 C   0  0  2  0  0  0
  -24.8686  -28.9205   20.1195 C   0  0  0  0  0  0
  -22.7480  -29.4599   22.4928 C   0  0  0  0  0  0
  -18.0291  -28.1389   22.8454 C   0  0  0  0  0  0
  -24.1492  -36.7249   23.2648 C   0  0  0  0  0  0
  -25.9575  -30.7908   21.3689 C   0  0  0  0  0  0
  -26.0339  -29.4154   20.7152 C   0  0  0  0  0  0
  -27.2220  -28.6281   20.7061 C   0  0  0  0  0  0
  -26.0507  -26.8636   19.5263 C   0  0  0  0  0  0
  -24.8785  -27.6502   19.5171 C   0  0  0  0  0  0
  -23.6377  -29.8046   20.1599 C   0  0  0  0  0  0
  -25.4104  -36.3052   24.0355 C   0  0  1  0  0  0
  -20.5883  -28.3681   23.1294 C   0  0  2  0  0  0
  -20.6791  -26.9409   22.5414 C   0  0  0  0  0  0
  -19.5773  -26.6378   21.5210 C   0  0  0  0  0  0
  -18.1938  -26.7920   22.1598 C   0  0  0  0  0  0
  -19.1547  -28.8845   23.2857 C   0  0  0  0  0  0
  -18.9468  -30.1442   23.8879 C   0  0  0  0  0  0
  -17.6478  -30.6577   24.0545 C   0  0  0  0  0  0
  -25.9058  -34.9438   23.5109 C   0  0  0  0  0  0
  -16.5361  -29.9071   23.6351 C   0  0  0  0  0  0
  -16.7287  -28.6511   23.0322 C   0  0  0  0  0  0
  -26.4516  -31.6560   25.0673 C   0  0  0  0  0  0
  -25.3776  -31.3711   26.1439 C   0  0  0  0  0  0
  -27.0362  -30.2990   24.6086 C   0  0  0  0  0  0
  -27.6070  -32.4307   25.7441 C   0  0  0  0  0  0
  -27.5570  -37.1768   24.8482 C   0  0  0  0  0  0
  -21.4197  -29.3022   22.3686 N   0  0  0  0  0  0
  -26.4278  -37.3750   23.9437 N   0  0  0  0  0  0
  -24.6852  -31.0588   22.0953 N   0  0  0  0  0  0
  -23.4233  -28.8159   23.3009 O   0  0  0  0  0  0
  -28.3937  -26.5332   20.0930 O   0  0  0  0  0  0
  -26.5582  -34.8908   22.4651 O   0  0  0  0  0  0
  -23.5412  -32.1393   23.7345 O   0  0  0  0  0  0
  -30.3709  -19.4673   20.2381 C   0  0  0  0  0  0
  -30.5781  -18.0401   20.2500 C   0  0  0  0  0  0
  -28.2961  -19.1627   21.3939 C   0  0  0  0  0  0
  -29.2125  -20.0762   20.8156 C   0  0  0  0  0  0
  -28.5029  -17.7546   21.4367 C   0  0  0  0  0  0
  -29.6526  -17.1391   20.8590 C   0  0  0  0  0  0
  -27.2867  -15.3290   25.7171 C   0  0  0  0  0  0
  -25.3619  -16.4571   24.5308 C   0  0  0  0  0  0
  -27.4462  -16.9224   22.1537 C   0  0  0  0  0  0
  -28.9059  -21.6288   21.0004 C   0  0  0  0  0  0
  -27.7510  -16.7228   23.6468 C   0  0  0  0  0  0
  -28.3670  -23.8927   19.7322 C   0  0  0  0  0  0
  -28.4258  -25.1723   20.6832 C   0  0  0  0  0  0
  -26.7405  -15.7954   24.3584 C   0  0  0  0  0  0
  -29.7482  -15.6713   20.9433 N   0  0  0  0  0  0
  -29.2780  -22.6807   19.9773 N   0  3  0  0  0  0
  -31.4804  -12.5819   19.1298 H   0  0  0  0  0  0
  -30.4203  -11.4259   19.8869 H   0  0  0  0  0  0
  -29.7647  -11.7447   17.4914 H   0  0  0  0  0  0
  -29.6344  -13.4707   17.7229 H   0  0  0  0  0  0
  -27.8590  -11.2940   18.8664 H   0  0  0  0  0  0
  -27.3697  -12.5802   17.7976 H   0  0  0  0  0  0
  -27.6704  -14.2533   19.5290 H   0  0  0  0  0  0
  -28.7232  -12.0273   21.3464 H   0  0  0  0  0  0
  -28.4323  -13.6590   21.8626 H   0  0  0  0  0  0
  -25.2755   -9.5677   22.4813 H   0  0  0  0  0  0
  -24.0022   -7.4612   22.7449 H   0  0  0  0  0  0
  -21.0881   -8.8795   19.8923 H   0  0  0  0  0  0
  -22.3727  -10.9712   19.6223 H   0  0  0  0  0  0
  -21.1963   -7.6146   23.9738 H   0  0  0  0  0  0
  -21.1474   -6.0512   25.9086 H   0  0  0  0  0  0
  -22.0592   -2.7622   23.2828 H   0  0  0  0  0  0
  -22.4041  -11.9865   22.4840 H   0  0  0  0  0  0
  -21.1107  -13.1326   22.2690 H   0  0  0  0  0  0
  -24.5823  -15.7900   20.3336 H   0  0  0  0  0  0
  -26.1858  -15.5754   19.8511 H   0  0  0  0  0  0
  -26.7158  -32.5457   23.1042 H   0  0  0  0  0  0
  -25.0224  -33.9692   25.0503 H   0  0  0  0  0  0
  -22.7103  -31.2960   21.3901 H   0  0  0  0  0  0
  -23.3777  -35.9564   23.3309 H   0  0  0  0  0  0
  -24.3593  -36.8848   22.2067 H   0  0  0  0  0  0
  -23.7234  -37.6446   23.6659 H   0  0  0  0  0  0
  -26.0856  -31.5527   20.5981 H   0  0  0  0  0  0
  -26.8389  -30.8431   21.9954 H   0  0  0  0  0  0
  -28.1272  -29.0137   21.1515 H   0  0  0  0  0  0
  -26.0333  -25.8962   19.0452 H   0  0  0  0  0  0
  -23.9853  -27.2644   19.0469 H   0  0  0  0  0  0
  -23.7668  -30.5792   19.4027 H   0  0  0  0  0  0
  -22.7578  -29.2403   19.8510 H   0  0  0  0  0  0
  -25.1278  -36.1893   25.0850 H   0  0  0  0  0  0
  -20.9936  -28.3227   24.1424 H   0  0  0  0  0  0
  -20.5725  -26.2260   23.3583 H   0  0  0  0  0  0
  -21.6652  -26.7453   22.1174 H   0  0  0  0  0  0
  -19.6953  -25.6304   21.1223 H   0  0  0  0  0  0
  -19.6734  -27.3193   20.6745 H   0  0  0  0  0  0
  -17.4218  -26.6676   21.3996 H   0  0  0  0  0  0
  -18.0308  -26.0062   22.8991 H   0  0  0  0  0  0
  -19.7963  -30.7238   24.2230 H   0  0  0  0  0  0
  -17.5057  -31.6269   24.5136 H   0  0  0  0  0  0
  -15.5380  -30.2963   23.7707 H   0  0  0  0  0  0
  -15.8672  -28.0846   22.7018 H   0  0  0  0  0  0
  -24.5930  -30.7072   25.7788 H   0  0  0  0  0  0
  -24.9007  -32.2891   26.4873 H   0  0  0  0  0  0
  -25.8125  -30.8896   27.0200 H   0  0  0  0  0  0
  -26.2894  -29.6722   24.1196 H   0  0  0  0  0  0
  -27.4201  -29.7259   25.4532 H   0  0  0  0  0  0
  -27.8710  -30.4311   23.9198 H   0  0  0  0  0  0
  -27.2682  -33.3627   26.1959 H   0  0  0  0  0  0
  -28.3901  -32.6819   25.0290 H   0  0  0  0  0  0
  -28.0704  -31.8485   26.5403 H   0  0  0  0  0  0
  -28.2564  -38.0076   24.7494 H   0  0  0  0  0  0
  -28.1080  -36.2598   24.6335 H   0  0  0  0  0  0
  -27.2298  -37.1439   25.8887 H   0  0  0  0  0  0
  -20.9386  -29.8713   21.6883 H   0  0  0  0  0  0
  -26.0164  -38.2826   24.1439 H   0  0  0  0  0  0
  -31.1345  -20.0909   19.7927 H   0  0  0  0  0  0
  -31.4721  -17.6408   19.7905 H   0  0  0  0  0  0
  -27.4082  -19.5570   21.8697 H   0  0  0  0  0  0
  -26.5544  -14.7224   26.2512 H   0  0  0  0  0  0
  -27.5487  -16.1716   26.3586 H   0  0  0  0  0  0
  -28.1802  -14.7155   25.5930 H   0  0  0  0  0  0
  -24.6882  -15.8131   25.0981 H   0  0  0  0  0  0
  -24.8838  -16.6483   23.5695 H   0  0  0  0  0  0
  -25.4386  -17.4073   25.0623 H   0  0  0  0  0  0
  -27.3591  -15.9499   21.6803 H   0  0  0  0  0  0
  -26.4744  -17.3988   22.0260 H   0  0  0  0  0  0
  -29.3392  -21.9344   21.9540 H   0  0  0  0  0  0
  -27.8293  -21.7148   21.1415 H   0  0  0  0  0  0
  -27.7914  -17.6920   24.1468 H   0  0  0  0  0  0
  -28.7514  -16.2961   23.7360 H   0  0  0  0  0  0
  -28.6227  -24.2492   18.7350 H   0  0  0  0  0  0
  -27.3330  -23.5539   19.6481 H   0  0  0  0  0  0
  -29.3646  -25.1319   21.2357 H   0  0  0  0  0  0
  -27.6582  -25.0897   21.4539 H   0  0  0  0  0  0
  -26.6043  -14.9013   23.7459 H   0  0  0  0  0  0
  -28.9100  -15.2606   21.3232 H   0  0  0  0  0  0
  -29.3263  -22.1908   19.0974 H   0  0  0  0  0  0
  -30.2145  -22.9988   20.1680 H   0  0  0  0  0  0
  1 25  1  0  0  0
  1 30  2  0  0  0
  1 85  1  0  0  0
  2  3  1  0  0  0
  2 25  1  0  0  0
  2 87  1  0  0  0
  2 88  1  0  0  0
  3  4  1  0  0  0
  3 89  1  0  0  0
  3 90  1  0  0  0
  4  5  1  0  0  0
  4 91  1  0  0  0
  4 92  1  0  0  0
  5  6  1  0  0  0
  5 26  1  0  0  0
  5 93  1  0  0  0
  6 25  1  0  0  0
  6 94  1  0  0  0
  6 95  1  0  0  0
  7  8  2  0  0  0
  7 26  1  0  0  0
  7 29  1  0  0  0
  8  9  1  0  0  0
  8 22  1  0  0  0
  9 10  1  0  0  0
  9 27  2  0  0  0
 10 11  2  0  0  0
 10 15  1  0  0  0
 11 12  1  0  0  0
 11 96  1  0  0  0
 12 13  2  0  0  0
 12 97  1  0  0  0
 13 14  1  0  0  0
 13 31  1  0  0  0
 14 15  2  0  0  0
 14 98  1  0  0  0
 15 99  1  0  0  0
 16 17  2  0  0  0
 16 21  1  0  0  0
 16 31  1  0  0  0
 17 18  1  0  0  0
 17100  1  0  0  0
 18 19  2  0  0  0
 18101  1  0  0  0
 19 20  1  0  0  0
 19 24  1  0  0  0
 20 21  2  0  0  0
 20102  1  0  0  0
 21 23  1  0  0  0
 22 28  1  0  0  0
 22 32  2  0  0  0
 26 27  1  0  0  0
 28103  1  0  0  0
 28104  1  0  0  0
 29105  1  0  0  0
 29106  1  0  0  0
 33 34  1  0  0  0
 33 66  1  0  0  0
 33 70  2  0  0  0
 34 36  1  0  0  0
 34 59  1  0  0  0
 34107  1  0  0  0
 35 44  2  0  0  0
 35 45  1  0  0  0
 35 68  1  0  0  0
 36 56  1  0  0  0
 36108  1  0  0  0
 37 39  1  0  0  0
 37 47  1  0  0  0
 37 66  1  0  0  0
 37109  1  0  0  0
 38 43  2  0  0  0
 38 46  1  0  0  0
 38 47  1  0  0  0
 39 64  1  0  0  0
 39 67  2  0  0  0
 40 52  1  0  0  0
 40 53  2  0  0  0
 40 58  1  0  0  0
 41110  1  0  0  0
 41111  1  0  0  0
 41112  1  0  0  0
 41 48  1  0  0  0
 42 43  1  0  0  0
 42 66  1  0  0  0
 42113  1  0  0  0
 42114  1  0  0  0
 43 44  1  0  0  0
 44115  1  0  0  0
 45 46  2  0  0  0
 45116  1  0  0  0
 46117  1  0  0  0
 47118  1  0  0  0
 47119  1  0  0  0
 48 56  1  0  0  0
 48 65  1  0  0  0
 48120  1  0  0  0
 49 50  1  0  0  0
 49 53  1  0  0  0
 49 64  1  0  0  0
 49121  1  0  0  0
 50 51  1  0  0  0
 50122  1  0  0  0
 50123  1  0  0  0
 51 52  1  0  0  0
 51124  1  0  0  0
 51125  1  0  0  0
 52126  1  0  0  0
 52127  1  0  0  0
 53 54  1  0  0  0
 54 55  2  0  0  0
 54128  1  0  0  0
 55 57  1  0  0  0
 55129  1  0  0  0
 56 69  2  0  0  0
 57 58  2  0  0  0
 57130  1  0  0  0
 58131  1  0  0  0
 59 60  1  0  0  0
 59 61  1  0  0  0
 59 62  1  0  0  0
 60132  1  0  0  0
 60133  1  0  0  0
 60134  1  0  0  0
 61135  1  0  0  0
 61136  1  0  0  0
 61137  1  0  0  0
 62138  1  0  0  0
 62139  1  0  0  0
 62140  1  0  0  0
 63 65  1  0  0  0
 63141  1  0  0  0
 63142  1  0  0  0
 63143  1  0  0  0
 64144  1  0  0  0
 65145  1  0  0  0
 68 83  1  0  0  0
 71 72  2  0  0  0
 71 74  1  0  0  0
 71146  1  0  0  0
 72 76  1  0  0  0
 72147  1  0  0  0
 73 74  2  0  0  0
 73 75  1  0  0  0
 73148  1  0  0  0
 74 80  1  0  0  0
 75 76  2  0  0  0
 75 79  1  0  0  0
 76 85  1  0  0  0
 77149  1  0  0  0
 77150  1  0  0  0
 77151  1  0  0  0
 77 84  1  0  0  0
 78 84  1  0  0  0
 78152  1  0  0  0
 78153  1  0  0  0
 78154  1  0  0  0
 79 81  1  0  0  0
 79155  1  0  0  0
 79156  1  0  0  0
 80 86  1  0  0  0
 80157  1  0  0  0
 80158  1  0  0  0
 81 84  1  0  0  0
 81159  1  0  0  0
 81160  1  0  0  0
 82 83  1  0  0  0
 82 86  1  0  0  0
 82161  1  0  0  0
 82162  1  0  0  0
 83163  1  0  0  0
 83164  1  0  0  0
 84165  1  0  0  0
 85166  1  0  0  0
 86167  1  0  0  0
 86168  1  0  0  0
M  CHG  1  86   1
M  ISO  4   1 100  68 101  83 101  85 100
M  END
> <chiral flag>
0

> <version>
0

> <s_m_source_file>
/data/baiqing/PycharmProjects/Reinvent-master-3.2/result/LINK_invent/BTK/process_docking_weight1_custom_sum_contain_oxygen_bond_distance_aromatic_linkinvent_7_9_3/rearranged_h_0134.sdf

> <i_m_source_file_index>
1

> <r_mmod_Potential_Energy-OPLS-2005>
-40.9952278137207

> <r_mmod_Stretch_Energy-OPLS-2005>
89.117546081543

> <r_mmod_Bend_Energy-OPLS-2005>
185.459106445312

> <r_mmod_Torsional_Energy-OPLS-2005>
246.188735961914

> <r_mmod_Improper_Torsional_Energy-OPLS-2005>
5.00545883178711

> <r_mmod_Van_der_Waal_Energy-OPLS-2005>
126.223747253418

> <r_mmod_Electrostatic_Energy-OPLS-2005>
-296.166809082031

> <r_mmod_Solvation_Energy-OPLS-2005>
-448.738708496094

> <b_mmod_Minimization_Converged-OPLS-2005>
0

> <r_mmod_RMS_Derivative-OPLS-2005>
3.6641047000885

$$$$
1
                    3D
 Structure written by MMmdl.
162170  0  0  1  0            999 V2000
  -30.6971  -14.4286   20.5065 C   0  0  0  0  0  0
  -30.4282  -12.2645   19.3822 C   0  0  0  0  0  0
  -29.4811  -12.4618   18.1795 C   0  0  0  0  0  0
  -28.0052  -12.3340   18.6095 C   0  0  0  0  0  0
  -27.6595  -13.1868   19.8571 C   0  0  2  0  0  0
  -28.7164  -12.9742   20.9695 C   0  0  0  0  0  0
  -25.2642  -13.8137   20.5711 C   0  0  0  0  0  0
  -24.1862  -13.0447   20.9148 C   0  0  0  0  0  0
  -24.6380  -11.6896   20.8729 C   0  0  0  0  0  0
  -23.9062  -10.4300   21.0430 C   0  0  0  0  0  0
  -24.3618   -9.4206   21.9213 C   0  0  0  0  0  0
  -23.6301   -8.2241   22.0758 C   0  0  0  0  0  0
  -22.4289   -8.0282   21.3531 C   0  0  0  0  0  0
  -21.9917   -9.0268   20.4643 C   0  0  0  0  0  0
  -22.7235  -10.2157   20.3068 C   0  0  0  0  0  0
  -21.6857   -6.0737   22.5276 C   0  0  0  0  0  0
  -21.4015   -6.5652   23.8208 C   0  0  0  0  0  0
  -21.3646   -5.6798   24.9184 C   0  0  0  0  0  0
  -21.6020   -4.3043   24.7226 C   0  0  0  0  0  0
  -21.8814   -3.8154   23.4345 C   0  0  0  0  0  0
  -21.9191   -4.6971   22.3407 C   0  0  0  0  0  0
  -22.7893  -13.5270   21.1820 C   0  0  0  0  0  0
  -22.1659   -4.2170   21.0970 F   0  0  0  0  0  0
  -21.5625   -3.4505   25.7724 F   0  0  0  0  0  0
  -30.0501  -13.2436   20.3965 N   0  0  0  0  0  0
  -26.3032  -12.9250   20.3307 N   0  0  0  0  0  0
  -25.9275  -11.6424   20.5712 N   0  0  0  0  0  0
  -22.0515  -12.8308   22.0372 N   0  0  0  0  0  0
  -25.4434  -15.1869   20.4162 N   0  0  0  0  0  0
  -31.8713  -14.6313   20.1846 O   0  0  0  0  0  0
  -21.6633   -6.8880   21.4234 O   0  0  0  0  0  0
  -22.3540  -14.5571   20.6660 O   0  0  0  0  0  0
  -24.6121  -31.8673   23.2086 C   0  0  0  0  0  0
  -25.9002  -32.4822   23.8394 C   0  0  1  0  0  0
  -27.2351  -27.4193   20.1550 C   0  0  0  0  0  0
  -25.5894  -33.8628   24.2305 N   0  0  0  0  0  0
  -23.4017  -30.4903   21.5448 C   0  0  2  0  0  0
  -24.8558  -28.9517   20.1119 C   0  0  0  0  0  0
  -22.7393  -29.4646   22.4944 C   0  0  0  0  0  0
  -18.0259  -28.1378   22.8508 C   0  0  0  0  0  0
  -24.1455  -36.7328   23.2638 C   0  0  0  0  0  0
  -25.9323  -30.8358   21.3612 C   0  0  0  0  0  0
  -26.0102  -29.4647   20.7189 C   0  0  0  0  0  0
  -27.2017  -28.7069   20.7388 C   0  0  0  0  0  0
  -26.0780  -26.9294   19.5205 C   0  0  0  0  0  0
  -24.8851  -27.6840   19.5049 C   0  0  0  0  0  0
  -23.6140  -29.8173   20.1593 C   0  0  0  0  0  0
  -25.4067  -36.3117   24.0342 C   0  0  1  0  0  0
  -20.5860  -28.3660   23.1331 C   0  0  2  0  0  0
  -20.6749  -26.9392   22.5445 C   0  0  0  0  0  0
  -19.5737  -26.6376   21.5228 C   0  0  0  0  0  0
  -18.1898  -26.7933   22.1625 C   0  0  0  0  0  0
  -19.1522  -28.8833   23.2907 C   0  0  0  0  0  0
  -18.9464  -30.1445   23.8903 C   0  0  0  0  0  0
  -17.6472  -30.6596   24.0569 C   0  0  0  0  0  0
  -25.9037  -34.9492   23.5123 C   0  0  0  0  0  0
  -16.5348  -29.9113   23.6329 C   0  0  0  0  0  0
  -16.7244  -28.6525   23.0347 C   0  0  0  0  0  0
  -26.4430  -31.6620   25.0730 C   0  0  0  0  0  0
  -25.3697  -31.3793   26.1501 C   0  0  0  0  0  0
  -27.0253  -30.3052   24.6133 C   0  0  0  0  0  0
  -27.5972  -32.4358   25.7501 C   0  0  0  0  0  0
  -27.5531  -37.1812   24.8450 C   0  0  0  0  0  0
  -21.4125  -29.3036   22.3704 N   0  0  0  0  0  0
  -26.4244  -37.3813   23.9408 N   0  0  0  0  0  0
  -24.6669  -31.0809   22.0963 N   0  0  0  0  0  0
  -23.4183  -28.8182   23.2958 O   0  0  0  0  0  0
  -28.3607  -26.6290   20.1995 O   0  0  0  0  0  0
  -26.5619  -34.8912   22.4688 O   0  0  0  0  0  0
  -23.5338  -32.1431   23.7488 O   0  0  0  0  0  0
  -29.0418  -18.8921   21.6072 C   0  0  0  0  0  0
  -30.2306  -17.7957   23.4344 C   0  0  0  0  0  0
  -29.2710  -17.7776   20.7805 C   0  0  0  0  0  0
  -30.4743  -16.6793   22.6090 C   0  0  0  0  0  0
  -29.4783  -18.8880   22.9466 C   0  0  0  0  0  0
  -29.9378  -16.6501   21.3048 C   0  0  0  0  0  0
  -28.5154  -24.4149   24.0441 C   0  0  0  0  0  0
  -29.0407  -19.9999   23.8948 C   0  0  0  0  0  0
  -29.5410  -21.4219   23.5376 C   0  0  0  0  0  0
  -28.5312  -22.3175   22.7513 C   0  0  0  0  0  0
  -28.3209  -24.5179   21.5551 C   0  0  0  0  0  0
  -28.6413  -26.0455   21.4919 C   0  0  0  0  0  0
  -29.8315  -15.4388   20.6033 N   0  0  0  0  0  0
  -28.8727  -23.7820   22.7497 N   0  3  1  0  0  0
  -31.4667  -12.3690   19.0634 H   0  0  0  0  0  0
  -30.3374  -11.2544   19.7792 H   0  0  0  0  0  0
  -29.7005  -11.7242   17.4047 H   0  0  0  0  0  0
  -29.6468  -13.4371   17.7205 H   0  0  0  0  0  0
  -27.8239  -11.2799   18.8278 H   0  0  0  0  0  0
  -27.3434  -12.5906   17.7762 H   0  0  0  0  0  0
  -27.6928  -14.2230   19.5218 H   0  0  0  0  0  0
  -28.6822  -11.9511   21.3479 H   0  0  0  0  0  0
  -28.5033  -13.6110   21.8273 H   0  0  0  0  0  0
  -25.2770   -9.5671   22.4786 H   0  0  0  0  0  0
  -23.9975   -7.4626   22.7488 H   0  0  0  0  0  0
  -21.0832   -8.8804   19.8985 H   0  0  0  0  0  0
  -22.3698  -10.9701   19.6171 H   0  0  0  0  0  0
  -21.2023   -7.6163   23.9721 H   0  0  0  0  0  0
  -21.1467   -6.0536   25.9081 H   0  0  0  0  0  0
  -22.0610   -2.7620   23.2838 H   0  0  0  0  0  0
  -22.4062  -11.9964   22.4783 H   0  0  0  0  0  0
  -21.1137  -13.1364   22.2538 H   0  0  0  0  0  0
  -24.6868  -15.8508   20.5480 H   0  0  0  0  0  0
  -26.3061  -15.6311   20.1342 H   0  0  0  0  0  0
  -26.7045  -32.5524   23.1150 H   0  0  0  0  0  0
  -25.0022  -33.9830   25.0427 H   0  0  0  0  0  0
  -22.6881  -31.3051   21.3996 H   0  0  0  0  0  0
  -23.3729  -35.9658   23.3365 H   0  0  0  0  0  0
  -24.3545  -36.8917   22.2047 H   0  0  0  0  0  0
  -23.7218  -37.6538   23.6643 H   0  0  0  0  0  0
  -26.0460  -31.5990   20.5858 H   0  0  0  0  0  0
  -26.8184  -30.8931   21.9827 H   0  0  0  0  0  0
  -28.0816  -29.1044   21.2205 H   0  0  0  0  0  0
  -26.0836  -25.9479   19.0668 H   0  0  0  0  0  0
  -23.9991  -27.2850   19.0298 H   0  0  0  0  0  0
  -23.7135  -30.5899   19.3962 H   0  0  0  0  0  0
  -22.7389  -29.2321   19.8644 H   0  0  0  0  0  0
  -25.1265  -36.1987   25.0851 H   0  0  0  0  0  0
  -20.9964  -28.3226   24.1443 H   0  0  0  0  0  0
  -20.5631  -26.2246   23.3636 H   0  0  0  0  0  0
  -21.6624  -26.7410   22.1236 H   0  0  0  0  0  0
  -19.6905  -25.6279   21.1254 H   0  0  0  0  0  0
  -19.6688  -27.3189   20.6776 H   0  0  0  0  0  0
  -17.4173  -26.6673   21.4010 H   0  0  0  0  0  0
  -18.0279  -26.0067   22.9019 H   0  0  0  0  0  0
  -19.7940  -30.7259   24.2233 H   0  0  0  0  0  0
  -17.5042  -31.6278   24.5166 H   0  0  0  0  0  0
  -15.5363  -30.3038   23.7661 H   0  0  0  0  0  0
  -15.8633  -28.0875   22.7056 H   0  0  0  0  0  0
  -24.5818  -30.7194   25.7865 H   0  0  0  0  0  0
  -24.8976  -32.3010   26.4938 H   0  0  0  0  0  0
  -25.8072  -30.8964   27.0251 H   0  0  0  0  0  0
  -26.2833  -29.6861   24.1105 H   0  0  0  0  0  0
  -27.3930  -29.7255   25.4605 H   0  0  0  0  0  0
  -27.8683  -30.4363   23.9356 H   0  0  0  0  0  0
  -27.2534  -33.3627   26.2091 H   0  0  0  0  0  0
  -28.3768  -32.7016   25.0350 H   0  0  0  0  0  0
  -28.0640  -31.8515   26.5440 H   0  0  0  0  0  0
  -28.2601  -38.0066   24.7512 H   0  0  0  0  0  0
  -28.1012  -36.2638   24.6291 H   0  0  0  0  0  0
  -27.2301  -37.1472   25.8869 H   0  0  0  0  0  0
  -20.9238  -29.8796   21.6979 H   0  0  0  0  0  0
  -26.0174  -38.2880   24.1473 H   0  0  0  0  0  0
  -28.4527  -19.7158   21.2265 H   0  0  0  0  0  0
  -30.5524  -17.7531   24.4697 H   0  0  0  0  0  0
  -28.8657  -17.7548   19.7737 H   0  0  0  0  0  0
  -30.9638  -15.7998   23.0023 H   0  0  0  0  0  0
  -28.9412  -25.4119   24.1282 H   0  0  0  0  0  0
  -28.9074  -23.8515   24.8917 H   0  0  0  0  0  0
  -27.4361  -24.4971   24.1743 H   0  0  0  0  0  0
  -29.4014  -19.7446   24.8904 H   0  0  0  0  0  0
  -27.9521  -19.9789   23.9708 H   0  0  0  0  0  0
  -30.4994  -21.3614   23.0227 H   0  0  0  0  0  0
  -29.7625  -21.8999   24.4913 H   0  0  0  0  0  0
  -27.5240  -22.1887   23.1566 H   0  0  0  0  0  0
  -28.4868  -21.9488   21.7265 H   0  0  0  0  0  0
  -28.7329  -24.0446   20.6619 H   0  0  0  0  0  0
  -27.2408  -24.3735   21.5089 H   0  0  0  0  0  0
  -29.6987  -26.2072   21.6918 H   0  0  0  0  0  0
  -28.1007  -26.5723   22.2805 H   0  0  0  0  0  0
  -28.8839  -15.1332   20.4674 H   0  0  0  0  0  0
  -29.8787  -23.8314   22.6748 H   0  0  0  0  0  0
  1 25  1  0  0  0
  1 30  2  0  0  0
  1 83  1  0  0  0
  2  3  1  0  0  0
  2 25  1  0  0  0
  2 85  1  0  0  0
  2 86  1  0  0  0
  3  4  1  0  0  0
  3 87  1  0  0  0
  3 88  1  0  0  0
  4  5  1  0  0  0
  4 89  1  0  0  0
  4 90  1  0  0  0
  5  6  1  0  0  0
  5 26  1  0  0  0
  5 91  1  0  0  0
  6 25  1  0  0  0
  6 92  1  0  0  0
  6 93  1  0  0  0
  7  8  2  0  0  0
  7 26  1  0  0  0
  7 29  1  0  0  0
  8  9  1  0  0  0
  8 22  1  0  0  0
  9 10  1  0  0  0
  9 27  2  0  0  0
 10 11  2  0  0  0
 10 15  1  0  0  0
 11 12  1  0  0  0
 11 94  1  0  0  0
 12 13  2  0  0  0
 12 95  1  0  0  0
 13 14  1  0  0  0
 13 31  1  0  0  0
 14 15  2  0  0  0
 14 96  1  0  0  0
 15 97  1  0  0  0
 16 17  2  0  0  0
 16 21  1  0  0  0
 16 31  1  0  0  0
 17 18  1  0  0  0
 17 98  1  0  0  0
 18 19  2  0  0  0
 18 99  1  0  0  0
 19 20  1  0  0  0
 19 24  1  0  0  0
 20 21  2  0  0  0
 20100  1  0  0  0
 21 23  1  0  0  0
 22 28  1  0  0  0
 22 32  2  0  0  0
 26 27  1  0  0  0
 28101  1  0  0  0
 28102  1  0  0  0
 29103  1  0  0  0
 29104  1  0  0  0
 33 34  1  0  0  0
 33 66  1  0  0  0
 33 70  2  0  0  0
 34 36  1  0  0  0
 34 59  1  0  0  0
 34105  1  0  0  0
 35 44  2  0  0  0
 35 45  1  0  0  0
 35 68  1  0  0  0
 36 56  1  0  0  0
 36106  1  0  0  0
 37 39  1  0  0  0
 37 47  1  0  0  0
 37 66  1  0  0  0
 37107  1  0  0  0
 38 43  2  0  0  0
 38 46  1  0  0  0
 38 47  1  0  0  0
 39 64  1  0  0  0
 39 67  2  0  0  0
 40 52  1  0  0  0
 40 53  2  0  0  0
 40 58  1  0  0  0
 41108  1  0  0  0
 41109  1  0  0  0
 41110  1  0  0  0
 41 48  1  0  0  0
 42 43  1  0  0  0
 42 66  1  0  0  0
 42111  1  0  0  0
 42112  1  0  0  0
 43 44  1  0  0  0
 44113  1  0  0  0
 45 46  2  0  0  0
 45114  1  0  0  0
 46115  1  0  0  0
 47116  1  0  0  0
 47117  1  0  0  0
 48 56  1  0  0  0
 48 65  1  0  0  0
 48118  1  0  0  0
 49 50  1  0  0  0
 49 53  1  0  0  0
 49 64  1  0  0  0
 49119  1  0  0  0
 50 51  1  0  0  0
 50120  1  0  0  0
 50121  1  0  0  0
 51 52  1  0  0  0
 51122  1  0  0  0
 51123  1  0  0  0
 52124  1  0  0  0
 52125  1  0  0  0
 53 54  1  0  0  0
 54 55  2  0  0  0
 54126  1  0  0  0
 55 57  1  0  0  0
 55127  1  0  0  0
 56 69  2  0  0  0
 57 58  2  0  0  0
 57128  1  0  0  0
 58129  1  0  0  0
 59 60  1  0  0  0
 59 61  1  0  0  0
 59 62  1  0  0  0
 60130  1  0  0  0
 60131  1  0  0  0
 60132  1  0  0  0
 61133  1  0  0  0
 61134  1  0  0  0
 61135  1  0  0  0
 62136  1  0  0  0
 62137  1  0  0  0
 62138  1  0  0  0
 63 65  1  0  0  0
 63139  1  0  0  0
 63140  1  0  0  0
 63141  1  0  0  0
 64142  1  0  0  0
 65143  1  0  0  0
 68 82  1  0  0  0
 71 73  2  0  0  0
 71 75  1  0  0  0
 71144  1  0  0  0
 72 74  1  0  0  0
 72 75  2  0  0  0
 72145  1  0  0  0
 73 76  1  0  0  0
 73146  1  0  0  0
 74 76  2  0  0  0
 74147  1  0  0  0
 75 78  1  0  0  0
 76 83  1  0  0  0
 77148  1  0  0  0
 77149  1  0  0  0
 77150  1  0  0  0
 77 84  1  0  0  0
 78 79  1  0  0  0
 78151  1  0  0  0
 78152  1  0  0  0
 79 80  1  0  0  0
 79153  1  0  0  0
 79154  1  0  0  0
 80 84  1  0  0  0
 80155  1  0  0  0
 80156  1  0  0  0
 81 82  1  0  0  0
 81 84  1  0  0  0
 81157  1  0  0  0
 81158  1  0  0  0
 82159  1  0  0  0
 82160  1  0  0  0
 83161  1  0  0  0
 84162  1  0  0  0
M  CHG  1  84   1
M  ISO  4   1 100  68 101  82 101  83 100
M  END
> <chiral flag>
0

> <version>
0

> <s_m_source_file>
/data/baiqing/PycharmProjects/Reinvent-master-3.2/result/LINK_invent/BTK/process_docking_weight1_custom_sum_contain_oxygen_bond_distance_aromatic_linkinvent_7_9_3/rearranged_h_0134.sdf

> <i_m_source_file_index>
2

> <r_mmod_Potential_Energy-OPLS-2005>
-56.7046127319336

> <r_mmod_Stretch_Energy-OPLS-2005>
39.7081108093262

> <r_mmod_Bend_Energy-OPLS-2005>
98.7424392700195

> <r_mmod_Torsional_Energy-OPLS-2005>
290.559356689453

> <r_mmod_Improper_Torsional_Energy-OPLS-2005>
14.4691505432129

> <r_mmod_Van_der_Waal_Energy-OPLS-2005>
148.681900024414

> <r_mmod_Electrostatic_Energy-OPLS-2005>
-235.170974731445

> <r_mmod_Solvation_Energy-OPLS-2005>
-433.659942626953

> <b_mmod_Minimization_Converged-OPLS-2005>
0

> <r_mmod_RMS_Derivative-OPLS-2005>
8.0260124206543

$$$$
2
                    3D
 Structure written by MMmdl.
160168  0  0  1  0            999 V2000
  -30.6850  -14.4761   20.5783 C   0  0  0  0  0  0
  -30.4292  -12.3112   19.4115 C   0  0  0  0  0  0
  -29.4923  -12.4940   18.1989 C   0  0  0  0  0  0
  -28.0103  -12.3657   18.6081 C   0  0  0  0  0  0
  -27.6608  -13.2007   19.8690 C   0  0  2  0  0  0
  -28.7046  -12.9706   20.9846 C   0  0  0  0  0  0
  -25.2615  -13.8153   20.5689 C   0  0  0  0  0  0
  -24.1837  -13.0434   20.9157 C   0  0  0  0  0  0
  -24.6366  -11.6900   20.8710 C   0  0  0  0  0  0
  -23.9029  -10.4289   21.0386 C   0  0  0  0  0  0
  -24.3589   -9.4222   21.9167 C   0  0  0  0  0  0
  -23.6281   -8.2248   22.0745 C   0  0  0  0  0  0
  -22.4273   -8.0273   21.3535 C   0  0  0  0  0  0
  -21.9891   -9.0237   20.4634 C   0  0  0  0  0  0
  -22.7195  -10.2127   20.3037 C   0  0  0  0  0  0
  -21.6849   -6.0729   22.5272 C   0  0  0  0  0  0
  -21.4001   -6.5639   23.8201 C   0  0  0  0  0  0
  -21.3656   -5.6794   24.9166 C   0  0  0  0  0  0
  -21.6052   -4.3059   24.7223 C   0  0  0  0  0  0
  -21.8821   -3.8147   23.4343 C   0  0  0  0  0  0
  -21.9200   -4.6958   22.3400 C   0  0  0  0  0  0
  -22.7873  -13.5246   21.1839 C   0  0  0  0  0  0
  -22.1672   -4.2145   21.0975 F   0  0  0  0  0  0
  -21.5639   -3.4541   25.7736 F   0  0  0  0  0  0
  -30.0322  -13.2913   20.4322 N   0  0  0  0  0  0
  -26.3020  -12.9291   20.3345 N   0  0  0  0  0  0
  -25.9293  -11.6457   20.5739 N   0  0  0  0  0  0
  -22.0512  -12.8226   22.0393 N   0  0  0  0  0  0
  -25.4384  -15.1866   20.4137 N   0  0  0  0  0  0
  -31.8117  -14.6898   20.1245 O   0  0  0  0  0  0
  -21.6639   -6.8866   21.4226 O   0  0  0  0  0  0
  -22.3553  -14.5549   20.6695 O   0  0  0  0  0  0
  -24.6146  -31.8656   23.2184 C   0  0  0  0  0  0
  -25.9026  -32.4787   23.8483 C   0  0  1  0  0  0
  -27.2228  -27.3921   20.1049 C   0  0  0  0  0  0
  -25.5887  -33.8609   24.2351 N   0  0  0  0  0  0
  -23.4036  -30.4922   21.5602 C   0  0  2  0  0  0
  -24.8514  -28.9680   20.1125 C   0  0  0  0  0  0
  -22.7394  -29.4646   22.5035 C   0  0  0  0  0  0
  -18.0280  -28.1323   22.8484 C   0  0  0  0  0  0
  -24.1492  -36.7349   23.2640 C   0  0  0  0  0  0
  -25.9394  -30.8177   21.3843 C   0  0  0  0  0  0
  -26.0140  -29.4540   20.7227 C   0  0  0  0  0  0
  -27.1993  -28.6720   20.7203 C   0  0  0  0  0  0
  -26.0427  -26.9636   19.4465 C   0  0  0  0  0  0
  -24.8635  -27.7248   19.4677 C   0  0  0  0  0  0
  -23.6088  -29.8264   20.1751 C   0  0  0  0  0  0
  -25.4102  -36.3089   24.0309 C   0  0  1  0  0  0
  -20.5839  -28.3640   23.1286 C   0  0  2  0  0  0
  -20.6733  -26.9385   22.5380 C   0  0  0  0  0  0
  -19.5727  -26.6346   21.5151 C   0  0  0  0  0  0
  -18.1913  -26.7874   22.1578 C   0  0  0  0  0  0
  -19.1513  -28.8800   23.2884 C   0  0  0  0  0  0
  -18.9444  -30.1406   23.8882 C   0  0  0  0  0  0
  -17.6453  -30.6553   24.0515 C   0  0  0  0  0  0
  -25.9024  -34.9450   23.5114 C   0  0  0  0  0  0
  -16.5343  -29.9014   23.6343 C   0  0  0  0  0  0
  -16.7261  -28.6420   23.0380 C   0  0  0  0  0  0
  -26.4444  -31.6598   25.0850 C   0  0  0  0  0  0
  -25.3664  -31.3719   26.1560 C   0  0  0  0  0  0
  -27.0289  -30.3009   24.6320 C   0  0  0  0  0  0
  -27.6020  -32.4332   25.7581 C   0  0  0  0  0  0
  -27.5568  -37.1803   24.8452 C   0  0  0  0  0  0
  -21.4124  -29.3023   22.3706 N   0  0  0  0  0  0
  -26.4288  -37.3765   23.9386 N   0  0  0  0  0  0
  -24.6702  -31.0719   22.1117 N   0  0  0  0  0  0
  -23.4148  -28.8177   23.3092 O   0  0  0  0  0  0
  -28.3595  -26.5871   20.1778 O   0  0  0  0  0  0
  -26.5587  -34.8857   22.4682 O   0  0  0  0  0  0
  -23.5319  -32.1458   23.7525 O   0  0  0  0  0  0
  -30.4073  -21.3406   21.3467 C   0  0  0  0  0  0
  -29.5466  -21.4858   20.2246 C   0  0  0  0  0  0
  -30.7074  -20.0148   21.5231 C   0  0  0  0  0  0
  -29.3321  -20.2115   19.7530 C   0  0  0  0  0  0
  -31.5953  -19.4151   22.5709 C   0  0  0  0  0  0
  -28.4960  -19.7743   18.5849 C   0  0  0  0  0  0
  -28.9638  -22.7703   19.6261 C   0  0  0  0  0  0
  -29.1619  -24.1187   20.3825 C   0  0  0  0  0  0
  -30.0928  -17.8281   20.2347 C   0  0  0  0  0  0
  -30.3485  -16.8482   21.4131 C   0  0  0  0  0  0
  -28.2151  -25.1975   19.7779 C   0  0  0  0  0  0
  -30.0395  -19.2861   20.5321 N   0  0  0  0  0  0
  -29.9546  -15.4548   21.1435 N   0  0  0  0  0  0
  -31.4688  -12.4316   19.1031 H   0  0  0  0  0  0
  -30.3520  -11.2998   19.8118 H   0  0  0  0  0  0
  -29.7276  -11.7598   17.4275 H   0  0  0  0  0  0
  -29.6597  -13.4729   17.7475 H   0  0  0  0  0  0
  -27.8045  -11.3102   18.7931 H   0  0  0  0  0  0
  -27.3657  -12.6557   17.7776 H   0  0  0  0  0  0
  -27.7054  -14.2485   19.5720 H   0  0  0  0  0  0
  -28.6862  -11.9297   21.3104 H   0  0  0  0  0  0
  -28.4623  -13.5551   21.8734 H   0  0  0  0  0  0
  -25.2729   -9.5726   22.4745 H   0  0  0  0  0  0
  -24.0008   -7.4645   22.7469 H   0  0  0  0  0  0
  -21.0827   -8.8718   19.8935 H   0  0  0  0  0  0
  -22.3624  -10.9653   19.6152 H   0  0  0  0  0  0
  -21.1967   -7.6147   23.9693 H   0  0  0  0  0  0
  -21.1485   -6.0533   25.9072 H   0  0  0  0  0  0
  -22.0608   -2.7607   23.2841 H   0  0  0  0  0  0
  -22.4145  -11.9891   22.4770 H   0  0  0  0  0  0
  -21.1132  -13.1238   22.2599 H   0  0  0  0  0  0
  -24.6751  -15.8479   20.5135 H   0  0  0  0  0  0
  -26.3061  -15.6228   20.1286 H   0  0  0  0  0  0
  -26.7097  -32.5463   23.1247 H   0  0  0  0  0  0
  -24.9973  -33.9780   25.0450 H   0  0  0  0  0  0
  -22.6969  -31.3117   21.4251 H   0  0  0  0  0  0
  -23.3694  -35.9741   23.3299 H   0  0  0  0  0  0
  -24.3602  -36.9023   22.2070 H   0  0  0  0  0  0
  -23.7306  -37.6554   23.6703 H   0  0  0  0  0  0
  -26.0553  -31.5862   20.6196 H   0  0  0  0  0  0
  -26.8203  -30.8692   22.0114 H   0  0  0  0  0  0
  -28.0859  -29.0357   21.2182 H   0  0  0  0  0  0
  -25.9949  -26.0364   18.8975 H   0  0  0  0  0  0
  -23.9716  -27.3554   18.9810 H   0  0  0  0  0  0
  -23.6928  -30.5929   19.4073 H   0  0  0  0  0  0
  -22.7351  -29.2310   19.8975 H   0  0  0  0  0  0
  -25.1284  -36.1932   25.0795 H   0  0  0  0  0  0
  -20.9942  -28.3185   24.1397 H   0  0  0  0  0  0
  -20.5596  -26.2275   23.3578 H   0  0  0  0  0  0
  -21.6620  -26.7403   22.1222 H   0  0  0  0  0  0
  -19.6915  -25.6241   21.1214 H   0  0  0  0  0  0
  -19.6641  -27.3102   20.6623 H   0  0  0  0  0  0
  -17.4199  -26.6609   21.3969 H   0  0  0  0  0  0
  -18.0359  -25.9991   22.8944 H   0  0  0  0  0  0
  -19.7936  -30.7195   24.2261 H   0  0  0  0  0  0
  -17.5016  -31.6252   24.5078 H   0  0  0  0  0  0
  -15.5331  -30.2876   23.7724 H   0  0  0  0  0  0
  -15.8661  -28.0700   22.7143 H   0  0  0  0  0  0
  -24.5969  -30.6897   25.7940 H   0  0  0  0  0  0
  -24.8650  -32.2833   26.4823 H   0  0  0  0  0  0
  -25.8003  -30.9096   27.0441 H   0  0  0  0  0  0
  -26.2884  -29.6707   24.1388 H   0  0  0  0  0  0
  -27.4008  -29.7317   25.4852 H   0  0  0  0  0  0
  -27.8749  -30.4311   23.9579 H   0  0  0  0  0  0
  -27.2741  -33.3756   26.1999 H   0  0  0  0  0  0
  -28.3911  -32.6675   25.0424 H   0  0  0  0  0  0
  -28.0587  -31.8548   26.5626 H   0  0  0  0  0  0
  -28.2563  -38.0119   24.7466 H   0  0  0  0  0  0
  -28.1086  -36.2625   24.6315 H   0  0  0  0  0  0
  -27.2289  -37.1521   25.8860 H   0  0  0  0  0  0
  -20.9312  -29.8801   21.6953 H   0  0  0  0  0  0
  -26.0155  -38.2845   24.1307 H   0  0  0  0  0  0
  -30.7869  -22.1400   21.9675 H   0  0  0  0  0  0
  -31.9864  -20.1848   23.2365 H   0  0  0  0  0  0
  -32.4516  -18.9023   22.1297 H   0  0  0  0  0  0
  -31.0526  -18.7172   23.2063 H   0  0  0  0  0  0
  -28.1052  -20.6275   18.0303 H   0  0  0  0  0  0
  -27.6427  -19.1785   18.9143 H   0  0  0  0  0  0
  -29.0705  -19.1713   17.8825 H   0  0  0  0  0  0
  -27.8940  -22.5987   19.4913 H   0  0  0  0  0  0
  -29.3689  -22.8796   18.6181 H   0  0  0  0  0  0
  -30.2075  -24.4204   20.3339 H   0  0  0  0  0  0
  -28.9200  -23.9874   21.4403 H   0  0  0  0  0  0
  -29.1431  -17.5446   19.7809 H   0  0  0  0  0  0
  -30.8527  -17.6785   19.4672 H   0  0  0  0  0  0
  -29.7640  -17.1630   22.2774 H   0  0  0  0  0  0
  -31.3990  -16.8679   21.6995 H   0  0  0  0  0  0
  -27.2224  -24.8242   20.0356 H   0  0  0  0  0  0
  -28.2917  -25.1700   18.6894 H   0  0  0  0  0  0
  -29.0294  -15.1866   21.4418 H   0  0  0  0  0  0
  1 25  1  0  0  0
  1 30  2  0  0  0
  1 83  1  0  0  0
  2  3  1  0  0  0
  2 25  1  0  0  0
  2 84  1  0  0  0
  2 85  1  0  0  0
  3  4  1  0  0  0
  3 86  1  0  0  0
  3 87  1  0  0  0
  4  5  1  0  0  0
  4 88  1  0  0  0
  4 89  1  0  0  0
  5  6  1  0  0  0
  5 26  1  0  0  0
  5 90  1  0  0  0
  6 25  1  0  0  0
  6 91  1  0  0  0
  6 92  1  0  0  0
  7  8  2  0  0  0
  7 26  1  0  0  0
  7 29  1  0  0  0
  8  9  1  0  0  0
  8 22  1  0  0  0
  9 10  1  0  0  0
  9 27  2  0  0  0
 10 11  2  0  0  0
 10 15  1  0  0  0
 11 12  1  0  0  0
 11 93  1  0  0  0
 12 13  2  0  0  0
 12 94  1  0  0  0
 13 14  1  0  0  0
 13 31  1  0  0  0
 14 15  2  0  0  0
 14 95  1  0  0  0
 15 96  1  0  0  0
 16 17  2  0  0  0
 16 21  1  0  0  0
 16 31  1  0  0  0
 17 18  1  0  0  0
 17 97  1  0  0  0
 18 19  2  0  0  0
 18 98  1  0  0  0
 19 20  1  0  0  0
 19 24  1  0  0  0
 20 21  2  0  0  0
 20 99  1  0  0  0
 21 23  1  0  0  0
 22 28  1  0  0  0
 22 32  2  0  0  0
 26 27  1  0  0  0
 28100  1  0  0  0
 28101  1  0  0  0
 29102  1  0  0  0
 29103  1  0  0  0
 33 34  1  0  0  0
 33 66  1  0  0  0
 33 70  2  0  0  0
 34 36  1  0  0  0
 34 59  1  0  0  0
 34104  1  0  0  0
 35 44  2  0  0  0
 35 45  1  0  0  0
 35 68  1  0  0  0
 36 56  1  0  0  0
 36105  1  0  0  0
 37 39  1  0  0  0
 37 47  1  0  0  0
 37 66  1  0  0  0
 37106  1  0  0  0
 38 43  2  0  0  0
 38 46  1  0  0  0
 38 47  1  0  0  0
 39 64  1  0  0  0
 39 67  2  0  0  0
 40 52  1  0  0  0
 40 53  2  0  0  0
 40 58  1  0  0  0
 41107  1  0  0  0
 41108  1  0  0  0
 41109  1  0  0  0
 41 48  1  0  0  0
 42 43  1  0  0  0
 42 66  1  0  0  0
 42110  1  0  0  0
 42111  1  0  0  0
 43 44  1  0  0  0
 44112  1  0  0  0
 45 46  2  0  0  0
 45113  1  0  0  0
 46114  1  0  0  0
 47115  1  0  0  0
 47116  1  0  0  0
 48 56  1  0  0  0
 48 65  1  0  0  0
 48117  1  0  0  0
 49 50  1  0  0  0
 49 53  1  0  0  0
 49 64  1  0  0  0
 49118  1  0  0  0
 50 51  1  0  0  0
 50119  1  0  0  0
 50120  1  0  0  0
 51 52  1  0  0  0
 51121  1  0  0  0
 51122  1  0  0  0
 52123  1  0  0  0
 52124  1  0  0  0
 53 54  1  0  0  0
 54 55  2  0  0  0
 54125  1  0  0  0
 55 57  1  0  0  0
 55126  1  0  0  0
 56 69  2  0  0  0
 57 58  2  0  0  0
 57127  1  0  0  0
 58128  1  0  0  0
 59 60  1  0  0  0
 59 61  1  0  0  0
 59 62  1  0  0  0
 60129  1  0  0  0
 60130  1  0  0  0
 60131  1  0  0  0
 61132  1  0  0  0
 61133  1  0  0  0
 61134  1  0  0  0
 62135  1  0  0  0
 62136  1  0  0  0
 62137  1  0  0  0
 63 65  1  0  0  0
 63138  1  0  0  0
 63139  1  0  0  0
 63140  1  0  0  0
 64141  1  0  0  0
 65142  1  0  0  0
 68 81  1  0  0  0
 71 72  1  0  0  0
 71 73  2  0  0  0
 71143  1  0  0  0
 72 74  2  0  0  0
 72 77  1  0  0  0
 73 75  1  0  0  0
 73 82  1  0  0  0
 74 76  1  0  0  0
 74 82  1  0  0  0
 75144  1  0  0  0
 75145  1  0  0  0
 75146  1  0  0  0
 76147  1  0  0  0
 76148  1  0  0  0
 76149  1  0  0  0
 77 78  1  0  0  0
 77150  1  0  0  0
 77151  1  0  0  0
 78 81  1  0  0  0
 78152  1  0  0  0
 78153  1  0  0  0
 79 80  1  0  0  0
 79 82  1  0  0  0
 79154  1  0  0  0
 79155  1  0  0  0
 80 83  1  0  0  0
 80156  1  0  0  0
 80157  1  0  0  0
 81158  1  0  0  0
 81159  1  0  0  0
 83160  1  0  0  0
M  ISO  4   1 100  68 101  81 101  83 100
M  END
> <chiral flag>
0

> <version>
0

> <s_m_source_file>
/data/baiqing/PycharmProjects/Reinvent-master-3.2/result/LINK_invent/BTK/process_docking_weight1_custom_sum_contain_oxygen_bond_distance_aromatic_linkinvent_7_9_3/rearranged_h_0134.sdf

> <i_m_source_file_index>
3

> <r_mmod_Potential_Energy-OPLS-2005>
-101.68766784668

> <r_mmod_Stretch_Energy-OPLS-2005>
43.5676879882812

> <r_mmod_Bend_Energy-OPLS-2005>
118.702896118164

> <r_mmod_Torsional_Energy-OPLS-2005>
203.519943237305

> <r_mmod_Improper_Torsional_Energy-OPLS-2005>
3.07384276390076

> <r_mmod_Van_der_Waal_Energy-OPLS-2005>
141.75114440918

> <r_mmod_Electrostatic_Energy-OPLS-2005>
-416.601593017578

> <r_mmod_Solvation_Energy-OPLS-2005>
-215.590225219727

> <b_mmod_Minimization_Converged-OPLS-2005>
0

> <r_mmod_RMS_Derivative-OPLS-2005>
3.76275587081909

$$$$
3
                    3D
 Structure written by MMmdl.
154163  0  0  1  0            999 V2000
  -30.5396  -14.9345   20.4224 C   0  0  0  0  0  0
  -30.4453  -12.5803   19.4858 C   0  0  0  0  0  0
  -29.5201  -12.5277   18.2481 C   0  0  0  0  0  0
  -28.0524  -12.3181   18.6681 C   0  0  0  0  0  0
  -27.6321  -13.2451   19.8383 C   0  0  2  0  0  0
  -28.6788  -13.2594   20.9724 C   0  0  0  0  0  0
  -25.2477  -13.8209   20.5710 C   0  0  0  0  0  0
  -24.1790  -13.0434   20.9232 C   0  0  0  0  0  0
  -24.6403  -11.6919   20.8754 C   0  0  0  0  0  0
  -23.9086  -10.4290   21.0410 C   0  0  0  0  0  0
  -24.3630   -9.4202   21.9190 C   0  0  0  0  0  0
  -23.6299   -8.2237   22.0758 C   0  0  0  0  0  0
  -22.4281   -8.0280   21.3546 C   0  0  0  0  0  0
  -21.9926   -9.0254   20.4643 C   0  0  0  0  0  0
  -22.7259  -10.2131   20.3056 C   0  0  0  0  0  0
  -21.6855   -6.0737   22.5281 C   0  0  0  0  0  0
  -21.4017   -6.5640   23.8212 C   0  0  0  0  0  0
  -21.3660   -5.6796   24.9176 C   0  0  0  0  0  0
  -21.6046   -4.3058   24.7224 C   0  0  0  0  0  0
  -21.8820   -3.8147   23.4347 C   0  0  0  0  0  0
  -21.9196   -4.6965   22.3405 C   0  0  0  0  0  0
  -22.7805  -13.5205   21.1879 C   0  0  0  0  0  0
  -22.1660   -4.2149   21.0982 F   0  0  0  0  0  0
  -21.5631   -3.4540   25.7738 F   0  0  0  0  0  0
  -29.9529  -13.6728   20.3700 N   0  0  0  0  0  0
  -26.2904  -12.9434   20.3250 N   0  0  0  0  0  0
  -25.9339  -11.6565   20.5747 N   0  0  0  0  0  0
  -22.0450  -12.8185   22.0427 N   0  0  0  0  0  0
  -25.4137  -15.1936   20.4117 N   0  0  0  0  0  0
  -31.7476  -15.0138   20.1772 O   0  0  0  0  0  0
  -21.6641   -6.8877   21.4243 O   0  0  0  0  0  0
  -22.3483  -14.5507   20.6721 O   0  0  0  0  0  0
  -24.6429  -31.8433   23.1882 C   0  0  0  0  0  0
  -25.9207  -32.4684   23.8265 C   0  0  1  0  0  0
  -27.2153  -27.1343   20.1523 C   0  0  0  0  0  0
  -25.5955  -33.8490   24.2184 N   0  0  0  0  0  0
  -23.4464  -30.4626   21.5344 C   0  0  2  0  0  0
  -24.8971  -28.8889   20.1120 C   0  0  0  0  0  0
  -22.7560  -29.4542   22.4867 C   0  0  0  0  0  0
  -18.0300  -28.1396   22.8482 C   0  0  0  0  0  0
  -24.1491  -36.7246   23.2642 C   0  0  0  0  0  0
  -26.0032  -30.7146   21.3897 C   0  0  0  0  0  0
  -26.0751  -29.3250   20.7338 C   0  0  0  0  0  0
  -27.2379  -28.4641   20.7379 C   0  0  0  0  0  0
  -26.0177  -26.8080   19.4806 C   0  0  0  0  0  0
  -24.8816  -27.6433   19.4685 C   0  0  0  0  0  0
  -23.6723  -29.7895   20.1551 C   0  0  0  0  0  0
  -25.4123  -36.3023   24.0316 C   0  0  1  0  0  0
  -20.5911  -28.3719   23.1237 C   0  0  2  0  0  0
  -20.6778  -26.9423   22.5405 C   0  0  0  0  0  0
  -19.5754  -26.6386   21.5209 C   0  0  0  0  0  0
  -18.1936  -26.7939   22.1621 C   0  0  0  0  0  0
  -19.1556  -28.8876   23.2852 C   0  0  0  0  0  0
  -18.9476  -30.1476   23.8874 C   0  0  0  0  0  0
  -17.6472  -30.6596   24.0558 C   0  0  0  0  0  0
  -25.9081  -34.9399   23.5061 C   0  0  0  0  0  0
  -16.5363  -29.9087   23.6343 C   0  0  0  0  0  0
  -16.7284  -28.6502   23.0371 C   0  0  0  0  0  0
  -26.4540  -31.6549   25.0702 C   0  0  0  0  0  0
  -25.3729  -31.3717   26.1396 C   0  0  0  0  0  0
  -27.0413  -30.2946   24.6282 C   0  0  0  0  0  0
  -27.6069  -32.4312   25.7491 C   0  0  0  0  0  0
  -27.5578  -37.1771   24.8461 C   0  0  0  0  0  0
  -21.4251  -29.3043   22.3607 N   0  0  0  0  0  0
  -26.4282  -37.3739   23.9414 N   0  0  0  0  0  0
  -24.7173  -31.0287   22.0919 N   0  0  0  0  0  0
  -23.4203  -28.8099   23.3027 O   0  0  0  0  0  0
  -28.2488  -26.1272   20.1745 O   0  0  0  0  0  0
  -26.5671  -34.8898   22.4643 O   0  0  0  0  0  0
  -23.5550  -32.1315   23.7104 O   0  0  0  0  0  0
  -28.8798  -21.2277   18.7713 C   0  0  0  0  0  0
  -28.5787  -22.6227   19.0196 C   0  0  0  0  0  0
  -28.9204  -22.2333   21.3329 C   0  0  0  0  0  0
  -29.1962  -20.2662   19.7879 C   0  0  0  0  0  0
  -29.2339  -20.8203   21.0889 C   0  0  0  0  0  0
  -28.5614  -23.2167   20.3194 C   0  0  0  0  0  0
  -29.4242  -18.6889   19.4972 C   0  0  0  0  0  0
  -29.6350  -19.8366   22.2098 C   0  0  0  0  0  0
  -29.3908  -18.2901   21.9582 C   0  0  0  0  0  0
  -29.9668  -17.6634   20.6441 C   0  0  1  0  0  0
  -27.8932  -24.6950   20.6648 C   0  0  0  0  0  0
  -29.7314  -16.0963   20.5482 N   0  0  0  0  0  0
  -31.4767  -12.7454   19.1702 H   0  0  0  0  0  0
  -30.4429  -11.6260   20.0148 H   0  0  0  0  0  0
  -29.8335  -11.7308   17.5725 H   0  0  0  0  0  0
  -29.6107  -13.4591   17.6866 H   0  0  0  0  0  0
  -27.9429  -11.2751   18.9678 H   0  0  0  0  0  0
  -27.3899  -12.4613   17.8134 H   0  0  0  0  0  0
  -27.5987  -14.2497   19.4157 H   0  0  0  0  0  0
  -28.7643  -12.2781   21.4420 H   0  0  0  0  0  0
  -28.3835  -13.9541   21.7599 H   0  0  0  0  0  0
  -25.2774   -9.5674   22.4767 H   0  0  0  0  0  0
  -24.0009   -7.4630   22.7478 H   0  0  0  0  0  0
  -21.0865   -8.8773   19.8940 H   0  0  0  0  0  0
  -22.3725  -10.9669   19.6160 H   0  0  0  0  0  0
  -21.2008   -7.6150   23.9714 H   0  0  0  0  0  0
  -21.1481   -6.0527   25.9081 H   0  0  0  0  0  0
  -22.0600   -2.7610   23.2851 H   0  0  0  0  0  0
  -22.4077  -11.9859   22.4828 H   0  0  0  0  0  0
  -21.1055  -13.1183   22.2605 H   0  0  0  0  0  0
  -24.6416  -15.8421   20.5193 H   0  0  0  0  0  0
  -26.2490  -15.6344   20.0503 H   0  0  0  0  0  0
  -26.7262  -32.5299   23.0983 H   0  0  0  0  0  0
  -25.0073  -33.9599   25.0311 H   0  0  0  0  0  0
  -22.7483  -31.2882   21.3793 H   0  0  0  0  0  0
  -23.3767  -35.9562   23.3269 H   0  0  0  0  0  0
  -24.3577  -36.8918   22.2064 H   0  0  0  0  0  0
  -23.7231  -37.6421   23.6709 H   0  0  0  0  0  0
  -26.1600  -31.4670   20.6156 H   0  0  0  0  0  0
  -26.8731  -30.7654   22.0328 H   0  0  0  0  0  0
  -28.1347  -28.7927   21.2443 H   0  0  0  0  0  0
  -25.9410  -25.8609   18.9660 H   0  0  0  0  0  0
  -23.9873  -27.3095   18.9599 H   0  0  0  0  0  0
  -23.8013  -30.5611   19.3952 H   0  0  0  0  0  0
  -22.7878  -29.2264   19.8510 H   0  0  0  0  0  0
  -25.1307  -36.1845   25.0806 H   0  0  0  0  0  0
  -21.0006  -28.3315   24.1357 H   0  0  0  0  0  0
  -20.5662  -26.2332   23.3622 H   0  0  0  0  0  0
  -21.6644  -26.7421   22.1211 H   0  0  0  0  0  0
  -19.6913  -25.6296   21.1244 H   0  0  0  0  0  0
  -19.6693  -27.3184   20.6731 H   0  0  0  0  0  0
  -17.4204  -26.6688   21.4028 H   0  0  0  0  0  0
  -18.0338  -26.0085   22.9019 H   0  0  0  0  0  0
  -19.7951  -30.7299   24.2231 H   0  0  0  0  0  0
  -17.5027  -31.6276   24.5162 H   0  0  0  0  0  0
  -15.5363  -30.2982   23.7681 H   0  0  0  0  0  0
  -15.8683  -28.0808   22.7114 H   0  0  0  0  0  0
  -24.5951  -30.7012   25.7718 H   0  0  0  0  0  0
  -24.8868  -32.2884   26.4742 H   0  0  0  0  0  0
  -25.8034  -30.8959   27.0218 H   0  0  0  0  0  0
  -26.3032  -29.6661   24.1286 H   0  0  0  0  0  0
  -27.4025  -29.7249   25.4855 H   0  0  0  0  0  0
  -27.8939  -30.4178   23.9599 H   0  0  0  0  0  0
  -27.2672  -33.3649   26.1980 H   0  0  0  0  0  0
  -28.3931  -32.6804   25.0353 H   0  0  0  0  0  0
  -28.0675  -31.8486   26.5479 H   0  0  0  0  0  0
  -28.2560  -38.0105   24.7550 H   0  0  0  0  0  0
  -28.1116  -36.2634   24.6241 H   0  0  0  0  0  0
  -27.2299  -37.1355   25.8864 H   0  0  0  0  0  0
  -20.9463  -29.8741   21.6768 H   0  0  0  0  0  0
  -26.0147  -38.2798   24.1448 H   0  0  0  0  0  0
  -28.8259  -20.8804   17.7483 H   0  0  0  0  0  0
  -28.2893  -23.2377   18.1790 H   0  0  0  0  0  0
  -28.9102  -22.5655   22.3619 H   0  0  0  0  0  0
  -30.0724  -18.6015   18.6242 H   0  0  0  0  0  0
  -28.4551  -18.3166   19.1642 H   0  0  0  0  0  0
  -29.1206  -20.1319   23.1253 H   0  0  0  0  0  0
  -30.6970  -19.9908   22.4035 H   0  0  0  0  0  0
  -28.3131  -18.1218   21.9661 H   0  0  0  0  0  0
  -29.7774  -17.7379   22.8153 H   0  0  0  0  0  0
  -31.0485  -17.7962   20.6935 H   0  0  0  0  0  0
  -27.9478  -24.7734   21.7508 H   0  0  0  0  0  0
  -26.8329  -24.5325   20.4809 H   0  0  0  0  0  0
  -28.7591  -15.8476   20.6518 H   0  0  0  0  0  0
  1 25  1  0  0  0
  1 30  2  0  0  0
  1 82  1  0  0  0
  2  3  1  0  0  0
  2 25  1  0  0  0
  2 83  1  0  0  0
  2 84  1  0  0  0
  3  4  1  0  0  0
  3 85  1  0  0  0
  3 86  1  0  0  0
  4  5  1  0  0  0
  4 87  1  0  0  0
  4 88  1  0  0  0
  5  6  1  0  0  0
  5 26  1  0  0  0
  5 89  1  0  0  0
  6 25  1  0  0  0
  6 90  1  0  0  0
  6 91  1  0  0  0
  7  8  2  0  0  0
  7 26  1  0  0  0
  7 29  1  0  0  0
  8  9  1  0  0  0
  8 22  1  0  0  0
  9 10  1  0  0  0
  9 27  2  0  0  0
 10 11  2  0  0  0
 10 15  1  0  0  0
 11 12  1  0  0  0
 11 92  1  0  0  0
 12 13  2  0  0  0
 12 93  1  0  0  0
 13 14  1  0  0  0
 13 31  1  0  0  0
 14 15  2  0  0  0
 14 94  1  0  0  0
 15 95  1  0  0  0
 16 17  2  0  0  0
 16 21  1  0  0  0
 16 31  1  0  0  0
 17 18  1  0  0  0
 17 96  1  0  0  0
 18 19  2  0  0  0
 18 97  1  0  0  0
 19 20  1  0  0  0
 19 24  1  0  0  0
 20 21  2  0  0  0
 20 98  1  0  0  0
 21 23  1  0  0  0
 22 28  1  0  0  0
 22 32  2  0  0  0
 26 27  1  0  0  0
 28 99  1  0  0  0
 28100  1  0  0  0
 29101  1  0  0  0
 29102  1  0  0  0
 33 34  1  0  0  0
 33 66  1  0  0  0
 33 70  2  0  0  0
 34 36  1  0  0  0
 34 59  1  0  0  0
 34103  1  0  0  0
 35 44  2  0  0  0
 35 45  1  0  0  0
 35 68  1  0  0  0
 36 56  1  0  0  0
 36104  1  0  0  0
 37 39  1  0  0  0
 37 47  1  0  0  0
 37 66  1  0  0  0
 37105  1  0  0  0
 38 43  2  0  0  0
 38 46  1  0  0  0
 38 47  1  0  0  0
 39 64  1  0  0  0
 39 67  2  0  0  0
 40 52  1  0  0  0
 40 53  2  0  0  0
 40 58  1  0  0  0
 41106  1  0  0  0
 41107  1  0  0  0
 41108  1  0  0  0
 41 48  1  0  0  0
 42 43  1  0  0  0
 42 66  1  0  0  0
 42109  1  0  0  0
 42110  1  0  0  0
 43 44  1  0  0  0
 44111  1  0  0  0
 45 46  2  0  0  0
 45112  1  0  0  0
 46113  1  0  0  0
 47114  1  0  0  0
 47115  1  0  0  0
 48 56  1  0  0  0
 48 65  1  0  0  0
 48116  1  0  0  0
 49 50  1  0  0  0
 49 53  1  0  0  0
 49 64  1  0  0  0
 49117  1  0  0  0
 50 51  1  0  0  0
 50118  1  0  0  0
 50119  1  0  0  0
 51 52  1  0  0  0
 51120  1  0  0  0
 51121  1  0  0  0
 52122  1  0  0  0
 52123  1  0  0  0
 53 54  1  0  0  0
 54 55  2  0  0  0
 54124  1  0  0  0
 55 57  1  0  0  0
 55125  1  0  0  0
 56 69  2  0  0  0
 57 58  2  0  0  0
 57126  1  0  0  0
 58127  1  0  0  0
 59 60  1  0  0  0
 59 61  1  0  0  0
 59 62  1  0  0  0
 60128  1  0  0  0
 60129  1  0  0  0
 60130  1  0  0  0
 61131  1  0  0  0
 61132  1  0  0  0
 61133  1  0  0  0
 62134  1  0  0  0
 62135  1  0  0  0
 62136  1  0  0  0
 63 65  1  0  0  0
 63137  1  0  0  0
 63138  1  0  0  0
 63139  1  0  0  0
 64140  1  0  0  0
 65141  1  0  0  0
 68 81  1  0  0  0
 71 72  2  0  0  0
 71 74  1  0  0  0
 71142  1  0  0  0
 72 76  1  0  0  0
 72143  1  0  0  0
 73 75  1  0  0  0
 73 76  2  0  0  0
 73144  1  0  0  0
 74 75  2  0  0  0
 74 77  1  0  0  0
 75 78  1  0  0  0
 76 81  1  0  0  0
 77 80  1  0  0  0
 77145  1  0  0  0
 77146  1  0  0  0
 78 79  1  0  0  0
 78147  1  0  0  0
 78148  1  0  0  0
 79 80  1  0  0  0
 79149  1  0  0  0
 79150  1  0  0  0
 80 82  1  0  0  0
 80151  1  0  0  0
 81152  1  0  0  0
 81153  1  0  0  0
 82154  1  0  0  0
M  ISO  4   1 100  68 101  81 101  82 100
M  END
> <chiral flag>
0

> <version>
0

> <s_m_source_file>
/data/baiqing/PycharmProjects/Reinvent-master-3.2/result/LINK_invent/BTK/process_docking_weight1_custom_sum_contain_oxygen_bond_distance_aromatic_linkinvent_7_9_3/rearranged_h_0134.sdf

> <i_m_source_file_index>
4

> <r_mmod_Potential_Energy-OPLS-2005>
459.381286621094

> <r_mmod_Stretch_Energy-OPLS-2005>
219.59130859375

> <r_mmod_Bend_Energy-OPLS-2005>
242.499099731445

> <r_mmod_Torsional_Energy-OPLS-2005>
239.750152587891

> <r_mmod_Improper_Torsional_Energy-OPLS-2005>
6.61181402206421

> <r_mmod_Van_der_Waal_Energy-OPLS-2005>
130.917663574219

> <r_mmod_Electrostatic_Energy-OPLS-2005>
-360.459259033203

> <r_mmod_Solvation_Energy-OPLS-2005>
-209.707824707031

> <b_mmod_Minimization_Converged-OPLS-2005>
0

> <r_mmod_RMS_Derivative-OPLS-2005>
0.900226891040802

$$$$
4
                    3D
 Structure written by MMmdl.
174183  0  0  1  0            999 V2000
  -30.7535  -14.4303   20.6002 C   0  0  0  0  0  0
  -30.4118  -12.2923   19.4185 C   0  0  0  0  0  0
  -29.4882  -12.5141   18.2053 C   0  0  0  0  0  0
  -28.0106  -12.3827   18.6173 C   0  0  0  0  0  0
  -27.6647  -13.2119   19.8836 C   0  0  2  0  0  0
  -28.7093  -12.9906   21.0031 C   0  0  0  0  0  0
  -25.2586  -13.8183   20.5681 C   0  0  0  0  0  0
  -24.1839  -13.0444   20.9179 C   0  0  0  0  0  0
  -24.6393  -11.6916   20.8747 C   0  0  0  0  0  0
  -23.9053  -10.4294   21.0405 C   0  0  0  0  0  0
  -24.3608   -9.4213   21.9182 C   0  0  0  0  0  0
  -23.6289   -8.2251   22.0758 C   0  0  0  0  0  0
  -22.4273   -8.0283   21.3545 C   0  0  0  0  0  0
  -21.9906   -9.0253   20.4648 C   0  0  0  0  0  0
  -22.7228  -10.2133   20.3053 C   0  0  0  0  0  0
  -21.6854   -6.0729   22.5271 C   0  0  0  0  0  0
  -21.4015   -6.5636   23.8202 C   0  0  0  0  0  0
  -21.3660   -5.6793   24.9170 C   0  0  0  0  0  0
  -21.6046   -4.3055   24.7223 C   0  0  0  0  0  0
  -21.8821   -3.8141   23.4346 C   0  0  0  0  0  0
  -21.9193   -4.6958   22.3398 C   0  0  0  0  0  0
  -22.7861  -13.5249   21.1825 C   0  0  0  0  0  0
  -22.1662   -4.2141   21.0978 F   0  0  0  0  0  0
  -21.5629   -3.4541   25.7738 F   0  0  0  0  0  0
  -30.0420  -13.2792   20.4467 N   0  0  0  0  0  0
  -26.3041  -12.9357   20.3431 N   0  0  0  0  0  0
  -25.9332  -11.6505   20.5808 N   0  0  0  0  0  0
  -22.0487  -12.8239   22.0375 N   0  0  0  0  0  0
  -25.4291  -15.1897   20.4031 N   0  0  0  0  0  0
  -31.8544  -14.5842   20.0618 O   0  0  0  0  0  0
  -21.6647   -6.8877   21.4232 O   0  0  0  0  0  0
  -22.3556  -14.5554   20.6678 O   0  0  0  0  0  0
  -24.6141  -31.8686   23.2117 C   0  0  0  0  0  0
  -25.9032  -32.4830   23.8421 C   0  0  1  0  0  0
  -27.2502  -27.4377   20.1184 C   0  0  0  0  0  0
  -25.5903  -33.8629   24.2346 N   0  0  0  0  0  0
  -23.4050  -30.4896   21.5480 C   0  0  2  0  0  0
  -24.8616  -28.9529   20.1206 C   0  0  0  0  0  0
  -22.7429  -29.4652   22.4975 C   0  0  0  0  0  0
  -18.0270  -28.1376   22.8500 C   0  0  0  0  0  0
  -24.1489  -36.7295   23.2649 C   0  0  0  0  0  0
  -25.9341  -30.8322   21.3723 C   0  0  0  0  0  0
  -26.0176  -29.4629   20.7293 C   0  0  0  0  0  0
  -27.2156  -28.7108   20.7340 C   0  0  0  0  0  0
  -26.0876  -26.9500   19.4848 C   0  0  0  0  0  0
  -24.8910  -27.6926   19.4978 C   0  0  0  0  0  0
  -23.6218  -29.8203   20.1634 C   0  0  0  0  0  0
  -25.4111  -36.3102   24.0348 C   0  0  1  0  0  0
  -20.5869  -28.3657   23.1316 C   0  0  2  0  0  0
  -20.6751  -26.9390   22.5412 C   0  0  0  0  0  0
  -19.5724  -26.6374   21.5218 C   0  0  0  0  0  0
  -18.1897  -26.7921   22.1619 C   0  0  0  0  0  0
  -19.1526  -28.8836   23.2893 C   0  0  0  0  0  0
  -18.9455  -30.1452   23.8888 C   0  0  0  0  0  0
  -17.6449  -30.6578   24.0572 C   0  0  0  0  0  0
  -25.9032  -34.9474   23.5132 C   0  0  0  0  0  0
  -16.5344  -29.9082   23.6340 C   0  0  0  0  0  0
  -16.7256  -28.6506   23.0344 C   0  0  0  0  0  0
  -26.4484  -31.6616   25.0745 C   0  0  0  0  0  0
  -25.3767  -31.3693   26.1507 C   0  0  0  0  0  0
  -27.0376  -30.3081   24.6135 C   0  0  0  0  0  0
  -27.6040  -32.4377   25.7504 C   0  0  0  0  0  0
  -27.5588  -37.1784   24.8478 C   0  0  0  0  0  0
  -21.4151  -29.3029   22.3720 N   0  0  0  0  0  0
  -26.4297  -37.3784   23.9425 N   0  0  0  0  0  0
  -24.6677  -31.0783   22.1020 N   0  0  0  0  0  0
  -23.4203  -28.8177   23.2997 O   0  0  0  0  0  0
  -28.3922  -26.6669   20.0676 O   0  0  0  0  0  0
  -26.5575  -34.8920   22.4683 O   0  0  0  0  0  0
  -23.5325  -32.1444   23.7485 O   0  0  0  0  0  0
  -31.4482  -19.3322   22.1408 C   0  0  0  0  0  0
  -29.6544  -17.7419   21.7842 C   0  0  0  0  0  0
  -30.0633  -19.0619   22.0889 C   0  0  0  0  0  0
  -32.3422  -18.2728   21.9080 C   0  0  0  0  0  0
  -30.6136  -16.7312   21.5478 C   0  0  0  0  0  0
  -30.9504  -23.2857   24.2680 C   0  0  0  0  0  0
  -30.6090  -24.2688   23.1333 C   0  0  0  0  0  0
  -29.7007  -22.4181   24.4729 C   0  0  0  0  0  0
  -29.1278  -24.0180   22.7908 C   0  0  2  0  0  0
  -28.9228  -22.5100   23.1453 C   0  0  1  0  0  0
  -33.8418  -18.4728   21.9601 C   0  0  0  0  0  0
  -26.7299  -23.3290   20.3594 C   0  0  0  0  0  0
  -29.0208  -20.1248   22.4295 C   0  0  0  0  0  0
  -28.8882  -26.1448   21.3136 C   0  0  0  0  0  0
  -28.6144  -24.6124   21.4299 C   0  0  2  0  0  0
  -31.9326  -17.0207   21.6311 N   0  0  0  0  0  0
  -30.1284  -15.4223   21.2652 N   0  0  0  0  0  0
  -29.4724  -21.5160   22.1770 N   0  3  0  0  0  0
  -27.1500  -24.4216   21.2617 N   0  3  0  0  0  0
  -31.4580  -12.3648   19.1138 H   0  0  0  0  0  0
  -30.2934  -11.2812   19.8125 H   0  0  0  0  0  0
  -29.7223  -11.7988   17.4162 H   0  0  0  0  0  0
  -29.6658  -13.5051   17.7846 H   0  0  0  0  0  0
  -27.8065  -11.3265   18.7958 H   0  0  0  0  0  0
  -27.3644  -12.6810   17.7913 H   0  0  0  0  0  0
  -27.7108  -14.2627   19.5958 H   0  0  0  0  0  0
  -28.6800  -11.9569   21.3514 H   0  0  0  0  0  0
  -28.4777  -13.5966   21.8798 H   0  0  0  0  0  0
  -25.2746   -9.5700   22.4764 H   0  0  0  0  0  0
  -23.9995   -7.4650   22.7484 H   0  0  0  0  0  0
  -21.0838   -8.8761   19.8958 H   0  0  0  0  0  0
  -22.3672  -10.9670   19.6171 H   0  0  0  0  0  0
  -21.2007   -7.6144   23.9701 H   0  0  0  0  0  0
  -21.1482   -6.0528   25.9073 H   0  0  0  0  0  0
  -22.0599   -2.7602   23.2847 H   0  0  0  0  0  0
  -22.4083  -11.9892   22.4752 H   0  0  0  0  0  0
  -21.1101  -13.1273   22.2567 H   0  0  0  0  0  0
  -24.6535  -15.8386   20.4819 H   0  0  0  0  0  0
  -26.2701  -15.6203   20.0404 H   0  0  0  0  0  0
  -26.7120  -32.5546   23.1199 H   0  0  0  0  0  0
  -25.0118  -33.9793   25.0542 H   0  0  0  0  0  0
  -22.6933  -31.3047   21.4057 H   0  0  0  0  0  0
  -23.3755  -35.9622   23.3309 H   0  0  0  0  0  0
  -24.3580  -36.8909   22.2065 H   0  0  0  0  0  0
  -23.7232  -37.6498   23.6664 H   0  0  0  0  0  0
  -26.0501  -31.5949   20.5999 H   0  0  0  0  0  0
  -26.8188  -30.8885   21.9952 H   0  0  0  0  0  0
  -28.1078  -29.1079   21.2009 H   0  0  0  0  0  0
  -26.1084  -25.9973   18.9747 H   0  0  0  0  0  0
  -24.0085  -27.2984   19.0139 H   0  0  0  0  0  0
  -23.7350  -30.5950   19.4029 H   0  0  0  0  0  0
  -22.7471  -29.2401   19.8635 H   0  0  0  0  0  0
  -25.1282  -36.1971   25.0840 H   0  0  0  0  0  0
  -20.9960  -28.3217   24.1443 H   0  0  0  0  0  0
  -20.5674  -26.2252   23.3593 H   0  0  0  0  0  0
  -21.6610  -26.7426   22.1193 H   0  0  0  0  0  0
  -19.6864  -25.6293   21.1230 H   0  0  0  0  0  0
  -19.6663  -27.3212   20.6772 H   0  0  0  0  0  0
  -17.4175  -26.6716   21.4008 H   0  0  0  0  0  0
  -18.0248  -26.0062   22.9007 H   0  0  0  0  0  0
  -19.7943  -30.7274   24.2237 H   0  0  0  0  0  0
  -17.5016  -31.6258   24.5178 H   0  0  0  0  0  0
  -15.5345  -30.2969   23.7691 H   0  0  0  0  0  0
  -15.8653  -28.0836   22.7039 H   0  0  0  0  0  0
  -24.5912  -30.7076   25.7832 H   0  0  0  0  0  0
  -24.8985  -32.2843   26.5038 H   0  0  0  0  0  0
  -25.8141  -30.8798   27.0222 H   0  0  0  0  0  0
  -26.2949  -29.6767   24.1251 H   0  0  0  0  0  0
  -27.4248  -29.7391   25.4596 H   0  0  0  0  0  0
  -27.8721  -30.4440   23.9248 H   0  0  0  0  0  0
  -27.2669  -33.3718   26.2024 H   0  0  0  0  0  0
  -28.3875  -32.6891   25.0339 H   0  0  0  0  0  0
  -28.0687  -31.8548   26.5471 H   0  0  0  0  0  0
  -28.2594  -38.0094   24.7544 H   0  0  0  0  0  0
  -28.1091  -36.2616   24.6288 H   0  0  0  0  0  0
  -27.2287  -37.1418   25.8875 H   0  0  0  0  0  0
  -20.9313  -29.8789   21.6987 H   0  0  0  0  0  0
  -26.0185  -38.2864   24.1427 H   0  0  0  0  0  0
  -31.8443  -20.3100   22.3777 H   0  0  0  0  0  0
  -28.5986  -17.5076   21.7465 H   0  0  0  0  0  0
  -31.2222  -23.8013   25.1904 H   0  0  0  0  0  0
  -31.8043  -22.6666   23.9873 H   0  0  0  0  0  0
  -31.2466  -24.0798   22.2681 H   0  0  0  0  0  0
  -30.7882  -25.2996   23.4432 H   0  0  0  0  0  0
  -29.0944  -22.8500   25.2705 H   0  0  0  0  0  0
  -29.9475  -21.4045   24.7911 H   0  0  0  0  0  0
  -28.5749  -24.5624   23.5615 H   0  0  0  0  0  0
  -27.8631  -22.3000   23.3039 H   0  0  0  0  0  0
  -34.1076  -19.3212   22.5901 H   0  0  0  0  0  0
  -34.2304  -18.6504   20.9575 H   0  0  0  0  0  0
  -34.3372  -17.5889   22.3639 H   0  0  0  0  0  0
  -26.9422  -22.3483   20.7820 H   0  0  0  0  0  0
  -27.2271  -23.4040   19.3910 H   0  0  0  0  0  0
  -25.6562  -23.3911   20.1808 H   0  0  0  0  0  0
  -28.7707  -19.9801   23.4805 H   0  0  0  0  0  0
  -28.1000  -19.9408   21.8745 H   0  0  0  0  0  0
  -29.9625  -26.3279   21.3390 H   0  0  0  0  0  0
  -28.4734  -26.6777   22.1710 H   0  0  0  0  0  0
  -29.1421  -24.1333   20.6031 H   0  0  0  0  0  0
  -29.1835  -15.2247   21.5494 H   0  0  0  0  0  0
  -30.4765  -21.5033   22.2435 H   0  0  0  0  0  0
  -29.2364  -21.7325   21.2235 H   0  0  0  0  0  0
  -26.6719  -24.3455   22.1488 H   0  0  0  0  0  0
  -26.8180  -25.2738   20.8307 H   0  0  0  0  0  0
  1 25  1  0  0  0
  1 30  2  0  0  0
  1 87  1  0  0  0
  2  3  1  0  0  0
  2 25  1  0  0  0
  2 90  1  0  0  0
  2 91  1  0  0  0
  3  4  1  0  0  0
  3 92  1  0  0  0
  3 93  1  0  0  0
  4  5  1  0  0  0
  4 94  1  0  0  0
  4 95  1  0  0  0
  5  6  1  0  0  0
  5 26  1  0  0  0
  5 96  1  0  0  0
  6 25  1  0  0  0
  6 97  1  0  0  0
  6 98  1  0  0  0
  7  8  2  0  0  0
  7 26  1  0  0  0
  7 29  1  0  0  0
  8  9  1  0  0  0
  8 22  1  0  0  0
  9 10  1  0  0  0
  9 27  2  0  0  0
 10 11  2  0  0  0
 10 15  1  0  0  0
 11 12  1  0  0  0
 11 99  1  0  0  0
 12 13  2  0  0  0
 12100  1  0  0  0
 13 14  1  0  0  0
 13 31  1  0  0  0
 14 15  2  0  0  0
 14101  1  0  0  0
 15102  1  0  0  0
 16 17  2  0  0  0
 16 21  1  0  0  0
 16 31  1  0  0  0
 17 18  1  0  0  0
 17103  1  0  0  0
 18 19  2  0  0  0
 18104  1  0  0  0
 19 20  1  0  0  0
 19 24  1  0  0  0
 20 21  2  0  0  0
 20105  1  0  0  0
 21 23  1  0  0  0
 22 28  1  0  0  0
 22 32  2  0  0  0
 26 27  1  0  0  0
 28106  1  0  0  0
 28107  1  0  0  0
 29108  1  0  0  0
 29109  1  0  0  0
 33 34  1  0  0  0
 33 66  1  0  0  0
 33 70  2  0  0  0
 34 36  1  0  0  0
 34 59  1  0  0  0
 34110  1  0  0  0
 35 44  2  0  0  0
 35 45  1  0  0  0
 35 68  1  0  0  0
 36 56  1  0  0  0
 36111  1  0  0  0
 37 39  1  0  0  0
 37 47  1  0  0  0
 37 66  1  0  0  0
 37112  1  0  0  0
 38 43  2  0  0  0
 38 46  1  0  0  0
 38 47  1  0  0  0
 39 64  1  0  0  0
 39 67  2  0  0  0
 40 52  1  0  0  0
 40 53  2  0  0  0
 40 58  1  0  0  0
 41113  1  0  0  0
 41114  1  0  0  0
 41115  1  0  0  0
 41 48  1  0  0  0
 42 43  1  0  0  0
 42 66  1  0  0  0
 42116  1  0  0  0
 42117  1  0  0  0
 43 44  1  0  0  0
 44118  1  0  0  0
 45 46  2  0  0  0
 45119  1  0  0  0
 46120  1  0  0  0
 47121  1  0  0  0
 47122  1  0  0  0
 48 56  1  0  0  0
 48 65  1  0  0  0
 48123  1  0  0  0
 49 50  1  0  0  0
 49 53  1  0  0  0
 49 64  1  0  0  0
 49124  1  0  0  0
 50 51  1  0  0  0
 50125  1  0  0  0
 50126  1  0  0  0
 51 52  1  0  0  0
 51127  1  0  0  0
 51128  1  0  0  0
 52129  1  0  0  0
 52130  1  0  0  0
 53 54  1  0  0  0
 54 55  2  0  0  0
 54131  1  0  0  0
 55 57  1  0  0  0
 55132  1  0  0  0
 56 69  2  0  0  0
 57 58  2  0  0  0
 57133  1  0  0  0
 58134  1  0  0  0
 59 60  1  0  0  0
 59 61  1  0  0  0
 59 62  1  0  0  0
 60135  1  0  0  0
 60136  1  0  0  0
 60137  1  0  0  0
 61138  1  0  0  0
 61139  1  0  0  0
 61140  1  0  0  0
 62141  1  0  0  0
 62142  1  0  0  0
 62143  1  0  0  0
 63 65  1  0  0  0
 63144  1  0  0  0
 63145  1  0  0  0
 63146  1  0  0  0
 64147  1  0  0  0
 65148  1  0  0  0
 68 84  1  0  0  0
 71 73  2  0  0  0
 71 74  1  0  0  0
 71149  1  0  0  0
 72 73  1  0  0  0
 72 75  2  0  0  0
 72150  1  0  0  0
 73 83  1  0  0  0
 74 81  1  0  0  0
 74 86  2  0  0  0
 75 86  1  0  0  0
 75 87  1  0  0  0
 76 77  1  0  0  0
 76 78  1  0  0  0
 76151  1  0  0  0
 76152  1  0  0  0
 77153  1  0  0  0
 77154  1  0  0  0
 77 79  1  0  0  0
 78 80  1  0  0  0
 78155  1  0  0  0
 78156  1  0  0  0
 79 80  1  0  0  0
 79 85  1  0  0  0
 79157  1  0  0  0
 80 88  1  0  0  0
 80158  1  0  0  0
 81159  1  0  0  0
 81160  1  0  0  0
 81161  1  0  0  0
 82 89  1  0  0  0
 82162  1  0  0  0
 82163  1  0  0  0
 82164  1  0  0  0
 83 88  1  0  0  0
 83165  1  0  0  0
 83166  1  0  0  0
 84167  1  0  0  0
 84168  1  0  0  0
 84 85  1  0  0  0
 85 89  1  0  0  0
 85169  1  0  0  0
 87170  1  0  0  0
 88171  1  0  0  0
 88172  1  0  0  0
 89173  1  0  0  0
 89174  1  0  0  0
M  CHG  2  88   1  89   1
M  ISO  4   1 100  68 101  84 101  87 100
M  END
> <chiral flag>
0

> <version>
0

> <s_m_source_file>
/data/baiqing/PycharmProjects/Reinvent-master-3.2/result/LINK_invent/BTK/process_docking_weight1_custom_sum_contain_oxygen_bond_distance_aromatic_linkinvent_7_9_3/rearranged_h_0134.sdf

> <i_m_source_file_index>
5

> <r_mmod_Potential_Energy-OPLS-2005>
-436.457092285156

> <r_mmod_Stretch_Energy-OPLS-2005>
40.6624488830566

> <r_mmod_Bend_Energy-OPLS-2005>
144.667419433594

> <r_mmod_Torsional_Energy-OPLS-2005>
321.221313476562

> <r_mmod_Improper_Torsional_Energy-OPLS-2005>
3.19337916374207

> <r_mmod_Van_der_Waal_Energy-OPLS-2005>
145.212203979492

> <r_mmod_Electrostatic_Energy-OPLS-2005>
-77.7851638793945

> <r_mmod_Solvation_Energy-OPLS-2005>
-1024.33862304688

> <b_mmod_Minimization_Converged-OPLS-2005>
0

> <r_mmod_RMS_Derivative-OPLS-2005>
2.46527600288391

$$$$
5
                    3D
 Structure written by MMmdl.
164172  0  0  1  0            999 V2000
  -30.6953  -14.5076   20.5385 C   0  0  0  0  0  0
  -30.4079  -12.3253   19.4415 C   0  0  0  0  0  0
  -29.4887  -12.5031   18.2143 C   0  0  0  0  0  0
  -28.0049  -12.3742   18.6125 C   0  0  0  0  0  0
  -27.6431  -13.2228   19.8614 C   0  0  2  0  0  0
  -28.6829  -13.0461   20.9914 C   0  0  0  0  0  0
  -25.2488  -13.8198   20.5669 C   0  0  0  0  0  0
  -24.1763  -13.0445   20.9212 C   0  0  0  0  0  0
  -24.6347  -11.6925   20.8744 C   0  0  0  0  0  0
  -23.9021  -10.4295   21.0397 C   0  0  0  0  0  0
  -24.3587   -9.4210   21.9168 C   0  0  0  0  0  0
  -23.6288   -8.2235   22.0729 C   0  0  0  0  0  0
  -22.4272   -8.0272   21.3520 C   0  0  0  0  0  0
  -21.9891   -9.0233   20.4616 C   0  0  0  0  0  0
  -22.7205  -10.2128   20.3039 C   0  0  0  0  0  0
  -21.6849   -6.0728   22.5280 C   0  0  0  0  0  0
  -21.3999   -6.5631   23.8213 C   0  0  0  0  0  0
  -21.3674   -5.6789   24.9178 C   0  0  0  0  0  0
  -21.6056   -4.3050   24.7226 C   0  0  0  0  0  0
  -21.8828   -3.8139   23.4348 C   0  0  0  0  0  0
  -21.9182   -4.6955   22.3400 C   0  0  0  0  0  0
  -22.7785  -13.5203   21.1926 C   0  0  0  0  0  0
  -22.1662   -4.2144   21.0982 F   0  0  0  0  0  0
  -21.5639   -3.4542   25.7733 F   0  0  0  0  0  0
  -30.0116  -13.3363   20.4360 N   0  0  0  0  0  0
  -26.2896  -12.9384   20.3282 N   0  0  0  0  0  0
  -25.9261  -11.6531   20.5720 N   0  0  0  0  0  0
  -22.0464  -12.8127   22.0481 N   0  0  0  0  0  0
  -25.4208  -15.1912   20.4034 N   0  0  0  0  0  0
  -31.8595  -14.6286   20.1470 O   0  0  0  0  0  0
  -21.6641   -6.8868   21.4239 O   0  0  0  0  0  0
  -22.3438  -14.5519   20.6828 O   0  0  0  0  0  0
  -24.6197  -31.8668   23.2113 C   0  0  0  0  0  0
  -25.9076  -32.4814   23.8415 C   0  0  1  0  0  0
  -27.2243  -27.4039   20.0986 C   0  0  0  0  0  0
  -25.5955  -33.8617   24.2346 N   0  0  0  0  0  0
  -23.4113  -30.4918   21.5537 C   0  0  2  0  0  0
  -24.8613  -28.9722   20.0952 C   0  0  0  0  0  0
  -22.7444  -29.4639   22.4990 C   0  0  0  0  0  0
  -18.0288  -28.1380   22.8484 C   0  0  0  0  0  0
  -24.1494  -36.7296   23.2621 C   0  0  0  0  0  0
  -25.9445  -30.8212   21.3764 C   0  0  0  0  0  0
  -26.0214  -29.4583   20.7142 C   0  0  0  0  0  0
  -27.2058  -28.6747   20.7299 C   0  0  0  0  0  0
  -26.0607  -26.9761   19.4187 C   0  0  0  0  0  0
  -24.8775  -27.7317   19.4418 C   0  0  0  0  0  0
  -23.6173  -29.8302   20.1640 C   0  0  0  0  0  0
  -25.4114  -36.3093   24.0323 C   0  0  1  0  0  0
  -20.5878  -28.3666   23.1308 C   0  0  2  0  0  0
  -20.6790  -26.9395   22.5423 C   0  0  0  0  0  0
  -19.5754  -26.6370   21.5230 C   0  0  0  0  0  0
  -18.1920  -26.7929   22.1613 C   0  0  0  0  0  0
  -19.1532  -28.8846   23.2895 C   0  0  0  0  0  0
  -18.9448  -30.1455   23.8897 C   0  0  0  0  0  0
  -17.6441  -30.6573   24.0554 C   0  0  0  0  0  0
  -25.9049  -34.9463   23.5117 C   0  0  0  0  0  0
  -16.5339  -29.9053   23.6345 C   0  0  0  0  0  0
  -16.7282  -28.6490   23.0349 C   0  0  0  0  0  0
  -26.4472  -31.6587   25.0748 C   0  0  0  0  0  0
  -25.3670  -31.3678   26.1431 C   0  0  0  0  0  0
  -27.0304  -30.3026   24.6132 C   0  0  0  0  0  0
  -27.6090  -32.4278   25.7454 C   0  0  0  0  0  0
  -27.5600  -37.1772   24.8437 C   0  0  0  0  0  0
  -21.4177  -29.3011   22.3694 N   0  0  0  0  0  0
  -26.4296  -37.3794   23.9416 N   0  0  0  0  0  0
  -24.6770  -31.0736   22.1050 N   0  0  0  0  0  0
  -23.4178  -28.8167   23.3040 O   0  0  0  0  0  0
  -28.2924  -26.5193   20.2049 O   0  0  0  0  0  0
  -26.5577  -34.8909   22.4658 O   0  0  0  0  0  0
  -23.5397  -32.1467   23.7484 O   0  0  0  0  0  0
  -26.4082  -23.7482   21.7665 C   0  0  0  0  0  0
  -26.9267  -25.0338   21.5888 C   0  0  0  0  0  0
  -27.0058  -22.6643   21.0987 C   0  0  0  0  0  0
  -28.2176  -22.9042   20.3966 C   0  0  0  0  0  0
  -27.9886  -25.2364   20.6856 C   0  0  0  0  0  0
  -25.2030  -21.4118   19.9081 C   0  0  0  0  0  0
  -25.6100  -20.8702   22.3464 C   0  0  0  0  0  0
  -29.0187  -21.7212   19.8132 C   0  0  0  0  0  0
  -30.5038  -16.9745   20.5832 C   0  0  0  0  0  0
  -29.6048  -20.7569   20.8971 C   0  0  0  0  0  0
  -29.5714  -18.1940   20.8691 C   0  0  0  0  0  0
  -26.2503  -21.3266   21.0245 C   0  0  0  0  0  0
  -28.6837  -24.1758   20.1759 N   0  0  0  0  0  0
  -29.9833  -15.6133   20.8614 N   0  0  0  0  0  0
  -30.1710  -19.4749   20.3743 N   0  3  0  0  0  0
  -31.4534  -12.4167   19.1433 H   0  0  0  0  0  0
  -30.3067  -11.3249   19.8629 H   0  0  0  0  0  0
  -29.7280  -11.7669   17.4468 H   0  0  0  0  0  0
  -29.6632  -13.4826   17.7669 H   0  0  0  0  0  0
  -27.7935  -11.3200   18.7982 H   0  0  0  0  0  0
  -27.3691  -12.6614   17.7734 H   0  0  0  0  0  0
  -27.6709  -14.2642   19.5415 H   0  0  0  0  0  0
  -28.6514  -12.0253   21.3736 H   0  0  0  0  0  0
  -28.4442  -13.6893   21.8394 H   0  0  0  0  0  0
  -25.2742   -9.5687   22.4733 H   0  0  0  0  0  0
  -24.0024   -7.4599   22.7410 H   0  0  0  0  0  0
  -21.0849   -8.8719   19.8891 H   0  0  0  0  0  0
  -22.3661  -10.9650   19.6138 H   0  0  0  0  0  0
  -21.1988   -7.6141   23.9708 H   0  0  0  0  0  0
  -21.1498   -6.0523   25.9079 H   0  0  0  0  0  0
  -22.0594   -2.7604   23.2845 H   0  0  0  0  0  0
  -22.4111  -11.9772   22.4797 H   0  0  0  0  0  0
  -21.1065  -13.1079   22.2735 H   0  0  0  0  0  0
  -24.6580  -15.8525   20.4944 H   0  0  0  0  0  0
  -26.2637  -15.6124   20.0344 H   0  0  0  0  0  0
  -26.7164  -32.5513   23.1196 H   0  0  0  0  0  0
  -25.0174  -33.9804   25.0537 H   0  0  0  0  0  0
  -22.7049  -31.3138   21.4188 H   0  0  0  0  0  0
  -23.3765  -35.9616   23.3266 H   0  0  0  0  0  0
  -24.3626  -36.8949   22.2046 H   0  0  0  0  0  0
  -23.7239  -37.6488   23.6663 H   0  0  0  0  0  0
  -26.0671  -31.5871   20.6100 H   0  0  0  0  0  0
  -26.8285  -30.8722   21.9994 H   0  0  0  0  0  0
  -28.0817  -29.0145   21.2652 H   0  0  0  0  0  0
  -26.0464  -26.0155   18.9255 H   0  0  0  0  0  0
  -23.9891  -27.3621   18.9495 H   0  0  0  0  0  0
  -23.7036  -30.6068   19.4038 H   0  0  0  0  0  0
  -22.7437  -29.2397   19.8803 H   0  0  0  0  0  0
  -25.1281  -36.1944   25.0821 H   0  0  0  0  0  0
  -21.0002  -28.3228   24.1413 H   0  0  0  0  0  0
  -20.5749  -26.2239   23.3609 H   0  0  0  0  0  0
  -21.6656  -26.7483   22.1168 H   0  0  0  0  0  0
  -19.6928  -25.6287   21.1253 H   0  0  0  0  0  0
  -19.6706  -27.3174   20.6768 H   0  0  0  0  0  0
  -17.4225  -26.6723   21.3972 H   0  0  0  0  0  0
  -18.0284  -26.0069   22.9005 H   0  0  0  0  0  0
  -19.7921  -30.7287   24.2242 H   0  0  0  0  0  0
  -17.4988  -31.6255   24.5122 H   0  0  0  0  0  0
  -15.5326  -30.2911   23.7719 H   0  0  0  0  0  0
  -15.8700  -28.0809   22.7041 H   0  0  0  0  0  0
  -24.5887  -30.7030   25.7672 H   0  0  0  0  0  0
  -24.8773  -32.2807   26.4828 H   0  0  0  0  0  0
  -25.7909  -30.8827   27.0226 H   0  0  0  0  0  0
  -26.2865  -29.6756   24.1208 H   0  0  0  0  0  0
  -27.4096  -29.7297   25.4601 H   0  0  0  0  0  0
  -27.8685  -30.4358   23.9290 H   0  0  0  0  0  0
  -27.2825  -33.3625   26.2033 H   0  0  0  0  0  0
  -28.3852  -32.6776   25.0200 H   0  0  0  0  0  0
  -28.0807  -31.8384   26.5331 H   0  0  0  0  0  0
  -28.2527  -38.0152   24.7645 H   0  0  0  0  0  0
  -28.1192  -36.2710   24.6077 H   0  0  0  0  0  0
  -27.2345  -37.1198   25.8835 H   0  0  0  0  0  0
  -20.9352  -29.8739   21.6906 H   0  0  0  0  0  0
  -26.0158  -38.2846   24.1490 H   0  0  0  0  0  0
  -25.4988  -23.6247   22.3346 H   0  0  0  0  0  0
  -26.4003  -25.8700   22.0315 H   0  0  0  0  0  0
  -25.6808  -21.5728   18.9401 H   0  0  0  0  0  0
  -24.5071  -22.2344   20.0744 H   0  0  0  0  0  0
  -24.6196  -20.4934   19.8382 H   0  0  0  0  0  0
  -26.3543  -20.7505   23.1335 H   0  0  0  0  0  0
  -25.1341  -19.8969   22.2154 H   0  0  0  0  0  0
  -24.8359  -21.5535   22.6934 H   0  0  0  0  0  0
  -29.8344  -22.1047   19.1968 H   0  0  0  0  0  0
  -28.3720  -21.1765   19.1217 H   0  0  0  0  0  0
  -31.4209  -17.1009   21.1627 H   0  0  0  0  0  0
  -30.7961  -16.9993   19.5310 H   0  0  0  0  0  0
  -28.8709  -20.5417   21.6710 H   0  0  0  0  0  0
  -30.4042  -21.2839   21.4189 H   0  0  0  0  0  0
  -29.4075  -18.2639   21.9474 H   0  0  0  0  0  0
  -28.5930  -18.0562   20.4075 H   0  0  0  0  0  0
  -26.9175  -20.5191   20.7390 H   0  0  0  0  0  0
  -29.0156  -15.4996   21.1295 H   0  0  0  0  0  0
  -31.1419  -19.4665   20.6422 H   0  0  0  0  0  0
  -30.1523  -19.4818   19.3674 H   0  0  0  0  0  0
  1 25  1  0  0  0
  1 30  2  0  0  0
  1 84  1  0  0  0
  2  3  1  0  0  0
  2 25  1  0  0  0
  2 86  1  0  0  0
  2 87  1  0  0  0
  3  4  1  0  0  0
  3 88  1  0  0  0
  3 89  1  0  0  0
  4  5  1  0  0  0
  4 90  1  0  0  0
  4 91  1  0  0  0
  5  6  1  0  0  0
  5 26  1  0  0  0
  5 92  1  0  0  0
  6 25  1  0  0  0
  6 93  1  0  0  0
  6 94  1  0  0  0
  7  8  2  0  0  0
  7 26  1  0  0  0
  7 29  1  0  0  0
  8  9  1  0  0  0
  8 22  1  0  0  0
  9 10  1  0  0  0
  9 27  2  0  0  0
 10 11  2  0  0  0
 10 15  1  0  0  0
 11 12  1  0  0  0
 11 95  1  0  0  0
 12 13  2  0  0  0
 12 96  1  0  0  0
 13 14  1  0  0  0
 13 31  1  0  0  0
 14 15  2  0  0  0
 14 97  1  0  0  0
 15 98  1  0  0  0
 16 17  2  0  0  0
 16 21  1  0  0  0
 16 31  1  0  0  0
 17 18  1  0  0  0
 17 99  1  0  0  0
 18 19  2  0  0  0
 18100  1  0  0  0
 19 20  1  0  0  0
 19 24  1  0  0  0
 20 21  2  0  0  0
 20101  1  0  0  0
 21 23  1  0  0  0
 22 28  1  0  0  0
 22 32  2  0  0  0
 26 27  1  0  0  0
 28102  1  0  0  0
 28103  1  0  0  0
 29104  1  0  0  0
 29105  1  0  0  0
 33 34  1  0  0  0
 33 66  1  0  0  0
 33 70  2  0  0  0
 34 36  1  0  0  0
 34 59  1  0  0  0
 34106  1  0  0  0
 35 44  2  0  0  0
 35 45  1  0  0  0
 35 68  1  0  0  0
 36 56  1  0  0  0
 36107  1  0  0  0
 37 39  1  0  0  0
 37 47  1  0  0  0
 37 66  1  0  0  0
 37108  1  0  0  0
 38 43  2  0  0  0
 38 46  1  0  0  0
 38 47  1  0  0  0
 39 64  1  0  0  0
 39 67  2  0  0  0
 40 52  1  0  0  0
 40 53  2  0  0  0
 40 58  1  0  0  0
 41109  1  0  0  0
 41110  1  0  0  0
 41111  1  0  0  0
 41 48  1  0  0  0
 42 43  1  0  0  0
 42 66  1  0  0  0
 42112  1  0  0  0
 42113  1  0  0  0
 43 44  1  0  0  0
 44114  1  0  0  0
 45 46  2  0  0  0
 45115  1  0  0  0
 46116  1  0  0  0
 47117  1  0  0  0
 47118  1  0  0  0
 48 56  1  0  0  0
 48 65  1  0  0  0
 48119  1  0  0  0
 49 50  1  0  0  0
 49 53  1  0  0  0
 49 64  1  0  0  0
 49120  1  0  0  0
 50 51  1  0  0  0
 50121  1  0  0  0
 50122  1  0  0  0
 51 52  1  0  0  0
 51123  1  0  0  0
 51124  1  0  0  0
 52125  1  0  0  0
 52126  1  0  0  0
 53 54  1  0  0  0
 54 55  2  0  0  0
 54127  1  0  0  0
 55 57  1  0  0  0
 55128  1  0  0  0
 56 69  2  0  0  0
 57 58  2  0  0  0
 57129  1  0  0  0
 58130  1  0  0  0
 59 60  1  0  0  0
 59 61  1  0  0  0
 59 62  1  0  0  0
 60131  1  0  0  0
 60132  1  0  0  0
 60133  1  0  0  0
 61134  1  0  0  0
 61135  1  0  0  0
 61136  1  0  0  0
 62137  1  0  0  0
 62138  1  0  0  0
 62139  1  0  0  0
 63 65  1  0  0  0
 63140  1  0  0  0
 63141  1  0  0  0
 63142  1  0  0  0
 64143  1  0  0  0
 65144  1  0  0  0
 68 75  1  0  0  0
 71 72  2  0  0  0
 71 73  1  0  0  0
 71145  1  0  0  0
 72 75  1  0  0  0
 72146  1  0  0  0
 73 74  2  0  0  0
 73 82  1  0  0  0
 74 78  1  0  0  0
 74 83  1  0  0  0
 75 83  2  0  0  0
 76147  1  0  0  0
 76148  1  0  0  0
 76149  1  0  0  0
 76 82  1  0  0  0
 77 82  1  0  0  0
 77150  1  0  0  0
 77151  1  0  0  0
 77152  1  0  0  0
 78 80  1  0  0  0
 78153  1  0  0  0
 78154  1  0  0  0
 79 81  1  0  0  0
 79 84  1  0  0  0
 79155  1  0  0  0
 79156  1  0  0  0
 80 85  1  0  0  0
 80157  1  0  0  0
 80158  1  0  0  0
 81 85  1  0  0  0
 81159  1  0  0  0
 81160  1  0  0  0
 82161  1  0  0  0
 84162  1  0  0  0
 85163  1  0  0  0
 85164  1  0  0  0
M  CHG  1  85   1
M  ISO  4   1 100  68 101  75 101  84 100
M  END
> <chiral flag>
0

> <version>
0

> <s_m_source_file>
/data/baiqing/PycharmProjects/Reinvent-master-3.2/result/LINK_invent/BTK/process_docking_weight1_custom_sum_contain_oxygen_bond_distance_aromatic_linkinvent_7_9_3/rearranged_h_0134.sdf

> <i_m_source_file_index>
6

> <r_mmod_Potential_Energy-OPLS-2005>
-351.760925292969

> <r_mmod_Stretch_Energy-OPLS-2005>
48.475154876709

> <r_mmod_Bend_Energy-OPLS-2005>
103.096733093262

> <r_mmod_Torsional_Energy-OPLS-2005>
237.547912597656

> <r_mmod_Improper_Torsional_Energy-OPLS-2005>
7.379065990448

> <r_mmod_Van_der_Waal_Energy-OPLS-2005>
161.570419311523

> <r_mmod_Electrostatic_Energy-OPLS-2005>
-440.013793945312

> <r_mmod_Solvation_Energy-OPLS-2005>
-499.459686279297

> <b_mmod_Minimization_Converged-OPLS-2005>
0

> <r_mmod_RMS_Derivative-OPLS-2005>
3.93120574951172

$$$$
6
                    3D
 Structure written by MMmdl.
160169  0  0  1  0            999 V2000
  -30.5202  -14.9161   20.4307 C   0  0  0  0  0  0
  -30.4515  -12.5645   19.4891 C   0  0  0  0  0  0
  -29.5254  -12.5303   18.2503 C   0  0  0  0  0  0
  -28.0563  -12.3161   18.6637 C   0  0  0  0  0  0
  -27.6337  -13.2280   19.8436 C   0  0  2  0  0  0
  -28.6800  -13.2276   20.9796 C   0  0  0  0  0  0
  -25.2416  -13.7837   20.5659 C   0  0  0  0  0  0
  -24.1746  -13.0187   20.9271 C   0  0  0  0  0  0
  -24.6399  -11.6715   20.8805 C   0  0  0  0  0  0
  -23.9063  -10.4155   21.0444 C   0  0  0  0  0  0
  -24.3608   -9.4087   21.9219 C   0  0  0  0  0  0
  -23.6263   -8.2147   22.0767 C   0  0  0  0  0  0
  -22.4251   -8.0221   21.3542 C   0  0  0  0  0  0
  -21.9895   -9.0197   20.4647 C   0  0  0  0  0  0
  -22.7242  -10.2056   20.3072 C   0  0  0  0  0  0
  -21.6821   -6.0708   22.5281 C   0  0  0  0  0  0
  -21.3989   -6.5623   23.8212 C   0  0  0  0  0  0
  -21.3653   -5.6781   24.9178 C   0  0  0  0  0  0
  -21.6046   -4.3045   24.7232 C   0  0  0  0  0  0
  -21.8820   -3.8131   23.4356 C   0  0  0  0  0  0
  -21.9181   -4.6940   22.3408 C   0  0  0  0  0  0
  -22.7793  -13.5068   21.1895 C   0  0  0  0  0  0
  -22.1662   -4.2133   21.0985 F   0  0  0  0  0  0
  -21.5639   -3.4535   25.7750 F   0  0  0  0  0  0
  -29.9617  -13.6422   20.3902 N   0  0  0  0  0  0
  -26.2909  -12.9178   20.3254 N   0  0  0  0  0  0
  -25.9347  -11.6333   20.5779 N   0  0  0  0  0  0
  -22.0403  -12.8130   22.0468 N   0  0  0  0  0  0
  -25.3890  -15.1402   20.3862 N   0  0  0  0  0  0
  -31.7200  -15.0339   20.1550 O   0  0  0  0  0  0
  -21.6596   -6.8842   21.4242 O   0  0  0  0  0  0
  -22.3542  -14.5395   20.6721 O   0  0  0  0  0  0
  -24.6373  -31.8486   23.1905 C   0  0  0  0  0  0
  -25.9163  -32.4723   23.8286 C   0  0  1  0  0  0
  -27.2473  -27.2073   20.1568 C   0  0  0  0  0  0
  -25.5932  -33.8525   24.2214 N   0  0  0  0  0  0
  -23.4399  -30.4641   21.5341 C   0  0  2  0  0  0
  -24.8955  -28.8903   20.1191 C   0  0  0  0  0  0
  -22.7533  -29.4572   22.4895 C   0  0  0  0  0  0
  -18.0293  -28.1399   22.8475 C   0  0  0  0  0  0
  -24.1486  -36.7271   23.2641 C   0  0  0  0  0  0
  -25.9880  -30.7459   21.3769 C   0  0  0  0  0  0
  -26.0673  -29.3587   20.7276 C   0  0  0  0  0  0
  -27.2459  -28.5342   20.7254 C   0  0  0  0  0  0
  -26.0482  -26.8108   19.5271 C   0  0  0  0  0  0
  -24.8938  -27.6262   19.5045 C   0  0  0  0  0  0
  -23.6658  -29.7836   20.1564 C   0  0  0  0  0  0
  -25.4115  -36.3052   24.0321 C   0  0  1  0  0  0
  -20.5900  -28.3720   23.1254 C   0  0  2  0  0  0
  -20.6780  -26.9428   22.5414 C   0  0  0  0  0  0
  -19.5759  -26.6398   21.5209 C   0  0  0  0  0  0
  -18.1940  -26.7947   22.1612 C   0  0  0  0  0  0
  -19.1550  -28.8878   23.2861 C   0  0  0  0  0  0
  -18.9470  -30.1473   23.8892 C   0  0  0  0  0  0
  -17.6469  -30.6596   24.0564 C   0  0  0  0  0  0
  -25.9065  -34.9426   23.5079 C   0  0  0  0  0  0
  -16.5362  -29.9090   23.6326 C   0  0  0  0  0  0
  -16.7279  -28.6505   23.0348 C   0  0  0  0  0  0
  -26.4509  -31.6572   25.0703 C   0  0  0  0  0  0
  -25.3708  -31.3747   26.1406 C   0  0  0  0  0  0
  -27.0369  -30.2983   24.6230 C   0  0  0  0  0  0
  -27.6047  -32.4325   25.7488 C   0  0  0  0  0  0
  -27.5575  -37.1790   24.8465 C   0  0  0  0  0  0
  -21.4232  -29.3049   22.3635 N   0  0  0  0  0  0
  -26.4286  -37.3754   23.9409 N   0  0  0  0  0  0
  -24.7075  -31.0396   22.0905 N   0  0  0  0  0  0
  -23.4193  -28.8130   23.3041 O   0  0  0  0  0  0
  -28.3567  -26.3086   20.1397 O   0  0  0  0  0  0
  -26.5644  -34.8914   22.4656 O   0  0  0  0  0  0
  -23.5504  -32.1334   23.7155 O   0  0  0  0  0  0
  -30.7212  -19.8726   20.7151 C   0  0  0  0  0  0
  -30.8059  -18.4190   20.6540 C   0  0  0  0  0  0
  -28.3969  -19.7696   20.3968 C   0  0  0  0  0  0
  -29.5004  -20.6254   20.6073 C   0  0  0  0  0  0
  -28.4496  -18.3234   20.3531 C   0  0  0  0  0  0
  -29.6703  -17.5524   20.5031 C   0  0  0  0  0  0
  -24.5094  -18.1453   19.9277 C   0  0  0  0  0  0
  -25.1510  -19.3975   20.4379 C   0  0  0  0  0  0
  -25.9685  -18.4260   19.6008 C   0  0  0  0  0  0
  -27.1145  -17.6023   20.2034 C   0  0  0  0  0  0
  -29.2957  -22.1990   20.9969 C   0  0  0  0  0  0
  -28.8953  -23.4911   20.0407 C   0  0  0  0  0  0
  -28.2580  -24.8847   20.6901 C   0  0  0  0  0  0
  -29.6473  -16.0209   20.5744 N   0  0  0  0  0  0
  -31.4835  -12.7354   19.1788 H   0  0  0  0  0  0
  -30.4480  -11.6023   20.0039 H   0  0  0  0  0  0
  -29.8399  -11.7441   17.5627 H   0  0  0  0  0  0
  -29.6156  -13.4693   17.7019 H   0  0  0  0  0  0
  -27.9444  -11.2697   18.9499 H   0  0  0  0  0  0
  -27.3971  -12.4707   17.8088 H   0  0  0  0  0  0
  -27.5998  -14.2369   19.4329 H   0  0  0  0  0  0
  -28.7612  -12.2403   21.4362 H   0  0  0  0  0  0
  -28.3824  -13.9095   21.7776 H   0  0  0  0  0  0
  -25.2755   -9.5552   22.4796 H   0  0  0  0  0  0
  -23.9946   -7.4534   22.7492 H   0  0  0  0  0  0
  -21.0820   -8.8729   19.8964 H   0  0  0  0  0  0
  -22.3721  -10.9608   19.6183 H   0  0  0  0  0  0
  -21.1974   -7.6132   23.9714 H   0  0  0  0  0  0
  -21.1481   -6.0514   25.9081 H   0  0  0  0  0  0
  -22.0610   -2.7597   23.2859 H   0  0  0  0  0  0
  -22.3978  -11.9780   22.4865 H   0  0  0  0  0  0
  -21.1039  -13.1215   22.2669 H   0  0  0  0  0  0
  -24.5778  -15.7462   20.4154 H   0  0  0  0  0  0
  -26.1625  -15.5426   19.8797 H   0  0  0  0  0  0
  -26.7236  -32.5366   23.1029 H   0  0  0  0  0  0
  -25.0064  -33.9649   25.0350 H   0  0  0  0  0  0
  -22.7397  -31.2871   21.3764 H   0  0  0  0  0  0
  -23.3749  -35.9603   23.3298 H   0  0  0  0  0  0
  -24.3576  -36.8906   22.2059 H   0  0  0  0  0  0
  -23.7239  -37.6466   23.6678 H   0  0  0  0  0  0
  -26.1279  -31.4994   20.6004 H   0  0  0  0  0  0
  -26.8640  -30.8054   22.0116 H   0  0  0  0  0  0
  -28.1473  -28.8978   21.1988 H   0  0  0  0  0  0
  -26.0015  -25.8417   19.0511 H   0  0  0  0  0  0
  -23.9987  -27.2614   19.0191 H   0  0  0  0  0  0
  -23.7966  -30.5529   19.3941 H   0  0  0  0  0  0
  -22.7844  -29.2165   19.8518 H   0  0  0  0  0  0
  -25.1301  -36.1890   25.0812 H   0  0  0  0  0  0
  -20.9984  -28.3311   24.1377 H   0  0  0  0  0  0
  -20.5677  -26.2323   23.3622 H   0  0  0  0  0  0
  -21.6648  -26.7442   22.1210 H   0  0  0  0  0  0
  -19.6911  -25.6306   21.1244 H   0  0  0  0  0  0
  -19.6707  -27.3199   20.6734 H   0  0  0  0  0  0
  -17.4212  -26.6688   21.4011 H   0  0  0  0  0  0
  -18.0339  -26.0087   22.8998 H   0  0  0  0  0  0
  -19.7944  -30.7291   24.2263 H   0  0  0  0  0  0
  -17.5019  -31.6273   24.5165 H   0  0  0  0  0  0
  -15.5361  -30.2987   23.7657 H   0  0  0  0  0  0
  -15.8679  -28.0821   22.7067 H   0  0  0  0  0  0
  -24.5884  -30.7101   25.7725 H   0  0  0  0  0  0
  -24.8896  -32.2927   26.4792 H   0  0  0  0  0  0
  -25.7999  -30.8943   27.0208 H   0  0  0  0  0  0
  -26.2974  -29.6714   24.1231 H   0  0  0  0  0  0
  -27.4012  -29.7268   25.4777 H   0  0  0  0  0  0
  -27.8864  -30.4245   23.9513 H   0  0  0  0  0  0
  -27.2643  -33.3633   26.2037 H   0  0  0  0  0  0
  -28.3875  -32.6872   25.0332 H   0  0  0  0  0  0
  -28.0694  -31.8467   26.5428 H   0  0  0  0  0  0
  -28.2587  -38.0089   24.7508 H   0  0  0  0  0  0
  -28.1074  -36.2620   24.6294 H   0  0  0  0  0  0
  -27.2297  -37.1447   25.8867 H   0  0  0  0  0  0
  -20.9450  -29.8757   21.6813 H   0  0  0  0  0  0
  -26.0161  -38.2827   24.1402 H   0  0  0  0  0  0
  -31.6341  -20.4167   20.9137 H   0  0  0  0  0  0
  -31.7789  -17.9662   20.7851 H   0  0  0  0  0  0
  -27.4540  -20.2847   20.3415 H   0  0  0  0  0  0
  -23.7844  -18.2450   19.1223 H   0  0  0  0  0  0
  -24.2410  -17.4345   20.7043 H   0  0  0  0  0  0
  -25.3667  -19.4518   21.5036 H   0  0  0  0  0  0
  -24.8558  -20.3382   19.9767 H   0  0  0  0  0  0
  -26.1655  -18.7433   18.5780 H   0  0  0  0  0  0
  -26.8231  -17.2312   21.1868 H   0  0  0  0  0  0
  -27.2793  -16.7488   19.5478 H   0  0  0  0  0  0
  -30.1941  -22.4882   21.5440 H   0  0  0  0  0  0
  -28.5264  -22.1707   21.7695 H   0  0  0  0  0  0
  -28.1816  -23.1423   19.2936 H   0  0  0  0  0  0
  -29.7859  -23.7589   19.4726 H   0  0  0  0  0  0
  -28.7123  -24.9730   21.6776 H   0  0  0  0  0  0
  -27.2091  -24.6816   20.9081 H   0  0  0  0  0  0
  -28.7130  -15.6713   20.7151 H   0  0  0  0  0  0
  1 25  1  0  0  0
  1 30  2  0  0  0
  1 84  1  0  0  0
  2  3  1  0  0  0
  2 25  1  0  0  0
  2 85  1  0  0  0
  2 86  1  0  0  0
  3  4  1  0  0  0
  3 87  1  0  0  0
  3 88  1  0  0  0
  4  5  1  0  0  0
  4 89  1  0  0  0
  4 90  1  0  0  0
  5  6  1  0  0  0
  5 26  1  0  0  0
  5 91  1  0  0  0
  6 25  1  0  0  0
  6 92  1  0  0  0
  6 93  1  0  0  0
  7  8  2  0  0  0
  7 26  1  0  0  0
  7 29  1  0  0  0
  8  9  1  0  0  0
  8 22  1  0  0  0
  9 10  1  0  0  0
  9 27  2  0  0  0
 10 11  2  0  0  0
 10 15  1  0  0  0
 11 12  1  0  0  0
 11 94  1  0  0  0
 12 13  2  0  0  0
 12 95  1  0  0  0
 13 14  1  0  0  0
 13 31  1  0  0  0
 14 15  2  0  0  0
 14 96  1  0  0  0
 15 97  1  0  0  0
 16 17  2  0  0  0
 16 21  1  0  0  0
 16 31  1  0  0  0
 17 18  1  0  0  0
 17 98  1  0  0  0
 18 19  2  0  0  0
 18 99  1  0  0  0
 19 20  1  0  0  0
 19 24  1  0  0  0
 20 21  2  0  0  0
 20100  1  0  0  0
 21 23  1  0  0  0
 22 28  1  0  0  0
 22 32  2  0  0  0
 26 27  1  0  0  0
 28101  1  0  0  0
 28102  1  0  0  0
 29103  1  0  0  0
 29104  1  0  0  0
 33 34  1  0  0  0
 33 66  1  0  0  0
 33 70  2  0  0  0
 34 36  1  0  0  0
 34 59  1  0  0  0
 34105  1  0  0  0
 35 44  2  0  0  0
 35 45  1  0  0  0
 35 68  1  0  0  0
 36 56  1  0  0  0
 36106  1  0  0  0
 37 39  1  0  0  0
 37 47  1  0  0  0
 37 66  1  0  0  0
 37107  1  0  0  0
 38 43  2  0  0  0
 38 46  1  0  0  0
 38 47  1  0  0  0
 39 64  1  0  0  0
 39 67  2  0  0  0
 40 52  1  0  0  0
 40 53  2  0  0  0
 40 58  1  0  0  0
 41108  1  0  0  0
 41109  1  0  0  0
 41110  1  0  0  0
 41 48  1  0  0  0
 42 43  1  0  0  0
 42 66  1  0  0  0
 42111  1  0  0  0
 42112  1  0  0  0
 43 44  1  0  0  0
 44113  1  0  0  0
 45 46  2  0  0  0
 45114  1  0  0  0
 46115  1  0  0  0
 47116  1  0  0  0
 47117  1  0  0  0
 48 56  1  0  0  0
 48 65  1  0  0  0
 48118  1  0  0  0
 49 50  1  0  0  0
 49 53  1  0  0  0
 49 64  1  0  0  0
 49119  1  0  0  0
 50 51  1  0  0  0
 50120  1  0  0  0
 50121  1  0  0  0
 51 52  1  0  0  0
 51122  1  0  0  0
 51123  1  0  0  0
 52124  1  0  0  0
 52125  1  0  0  0
 53 54  1  0  0  0
 54 55  2  0  0  0
 54126  1  0  0  0
 55 57  1  0  0  0
 55127  1  0  0  0
 56 69  2  0  0  0
 57 58  2  0  0  0
 57128  1  0  0  0
 58129  1  0  0  0
 59 60  1  0  0  0
 59 61  1  0  0  0
 59 62  1  0  0  0
 60130  1  0  0  0
 60131  1  0  0  0
 60132  1  0  0  0
 61133  1  0  0  0
 61134  1  0  0  0
 61135  1  0  0  0
 62136  1  0  0  0
 62137  1  0  0  0
 62138  1  0  0  0
 63 65  1  0  0  0
 63139  1  0  0  0
 63140  1  0  0  0
 63141  1  0  0  0
 64142  1  0  0  0
 65143  1  0  0  0
 68 83  1  0  0  0
 71 72  2  0  0  0
 71 74  1  0  0  0
 71144  1  0  0  0
 72 76  1  0  0  0
 72145  1  0  0  0
 73 74  2  0  0  0
 73 75  1  0  0  0
 73146  1  0  0  0
 74 81  1  0  0  0
 75 76  2  0  0  0
 75 80  1  0  0  0
 76 84  1  0  0  0
 77 78  1  0  0  0
 77 79  1  0  0  0
 77147  1  0  0  0
 77148  1  0  0  0
 78 79  1  0  0  0
 78149  1  0  0  0
 78150  1  0  0  0
 79 80  1  0  0  0
 79151  1  0  0  0
 80152  1  0  0  0
 80153  1  0  0  0
 81 82  1  0  0  0
 81154  1  0  0  0
 81155  1  0  0  0
 82 83  1  0  0  0
 82156  1  0  0  0
 82157  1  0  0  0
 83158  1  0  0  0
 83159  1  0  0  0
 84160  1  0  0  0
M  ISO  4   1 100  68 101  83 101  84 100
M  END
> <chiral flag>
0

> <version>
0

> <s_m_source_file>
/data/baiqing/PycharmProjects/Reinvent-master-3.2/result/LINK_invent/BTK/process_docking_weight1_custom_sum_contain_oxygen_bond_distance_aromatic_linkinvent_7_9_3/rearranged_h_0134.sdf

> <i_m_source_file_index>
7

> <r_mmod_Potential_Energy-OPLS-2005>
444.516082763672

> <r_mmod_Stretch_Energy-OPLS-2005>
192.63330078125

> <r_mmod_Bend_Energy-OPLS-2005>
243.851577758789

> <r_mmod_Torsional_Energy-OPLS-2005>
282.452270507812

> <r_mmod_Improper_Torsional_Energy-OPLS-2005>
8.59253883361816

> <r_mmod_Van_der_Waal_Energy-OPLS-2005>
136.575012207031

> <r_mmod_Electrostatic_Energy-OPLS-2005>
-372.842041015625

> <r_mmod_Solvation_Energy-OPLS-2005>
-196.849029541016

> <b_mmod_Minimization_Converged-OPLS-2005>
0

> <r_mmod_RMS_Derivative-OPLS-2005>
0.989846348762512

$$$$
7
                    3D
 Structure written by MMmdl.
163172  0  0  1  0            999 V2000
  -30.7147  -14.4491   20.4566 C   0  0  0  0  0  0
  -30.4040  -12.2706   19.4180 C   0  0  0  0  0  0
  -29.4999  -12.5424   18.1982 C   0  0  0  0  0  0
  -28.0154  -12.4100   18.5918 C   0  0  0  0  0  0
  -27.6583  -13.2221   19.8677 C   0  0  2  0  0  0
  -28.7053  -13.0185   20.9896 C   0  0  0  0  0  0
  -25.2566  -13.8185   20.5688 C   0  0  0  0  0  0
  -24.1840  -13.0427   20.9179 C   0  0  0  0  0  0
  -24.6420  -11.6906   20.8735 C   0  0  0  0  0  0
  -23.9107  -10.4265   21.0409 C   0  0  0  0  0  0
  -24.3645   -9.4178   21.9181 C   0  0  0  0  0  0
  -23.6304   -8.2225   22.0789 C   0  0  0  0  0  0
  -22.4292   -8.0285   21.3563 C   0  0  0  0  0  0
  -21.9925   -9.0252   20.4663 C   0  0  0  0  0  0
  -22.7282  -10.2108   20.3055 C   0  0  0  0  0  0
  -21.6823   -6.0754   22.5283 C   0  0  0  0  0  0
  -21.4015   -6.5654   23.8224 C   0  0  0  0  0  0
  -21.3681   -5.6810   24.9185 C   0  0  0  0  0  0
  -21.6043   -4.3072   24.7227 C   0  0  0  0  0  0
  -21.8802   -3.8159   23.4348 C   0  0  0  0  0  0
  -21.9187   -4.6982   22.3409 C   0  0  0  0  0  0
  -22.7866  -13.5222   21.1835 C   0  0  0  0  0  0
  -22.1649   -4.2171   21.0988 F   0  0  0  0  0  0
  -21.5639   -3.4546   25.7732 F   0  0  0  0  0  0
  -30.0384  -13.2734   20.4242 N   0  0  0  0  0  0
  -26.3010  -12.9388   20.3304 N   0  0  0  0  0  0
  -25.9355  -11.6525   20.5703 N   0  0  0  0  0  0
  -22.0492  -12.8208   22.0371 N   0  0  0  0  0  0
  -25.4250  -15.1913   20.4184 N   0  0  0  0  0  0
  -31.9216  -14.5329   20.2376 O   0  0  0  0  0  0
  -21.6625   -6.8917   21.4258 O   0  0  0  0  0  0
  -22.3511  -14.5492   20.6649 O   0  0  0  0  0  0
  -24.6157  -31.8668   23.2090 C   0  0  0  0  0  0
  -25.9037  -32.4814   23.8406 C   0  0  1  0  0  0
  -27.2398  -27.4193   20.0827 C   0  0  0  0  0  0
  -25.5861  -33.8605   24.2316 N   0  0  0  0  0  0
  -23.4084  -30.4884   21.5472 C   0  0  2  0  0  0
  -24.8548  -28.9559   20.1050 C   0  0  0  0  0  0
  -22.7432  -29.4643   22.4948 C   0  0  0  0  0  0
  -18.0279  -28.1381   22.8516 C   0  0  0  0  0  0
  -24.1472  -36.7336   23.2644 C   0  0  0  0  0  0
  -25.9393  -30.8136   21.3783 C   0  0  0  0  0  0
  -26.0098  -29.4484   20.7257 C   0  0  0  0  0  0
  -27.1927  -28.6751   20.7341 C   0  0  0  0  0  0
  -26.0759  -26.9661   19.4205 C   0  0  0  0  0  0
  -24.8839  -27.7150   19.4481 C   0  0  0  0  0  0
  -23.6186  -29.8235   20.1588 C   0  0  0  0  0  0
  -25.4094  -36.3110   24.0342 C   0  0  1  0  0  0
  -20.5876  -28.3678   23.1302 C   0  0  2  0  0  0
  -20.6780  -26.9404   22.5429 C   0  0  0  0  0  0
  -19.5742  -26.6387   21.5236 C   0  0  0  0  0  0
  -18.1914  -26.7944   22.1628 C   0  0  0  0  0  0
  -19.1532  -28.8841   23.2917 C   0  0  0  0  0  0
  -18.9462  -30.1450   23.8930 C   0  0  0  0  0  0
  -17.6466  -30.6605   24.0560 C   0  0  0  0  0  0
  -25.9030  -34.9469   23.5137 C   0  0  0  0  0  0
  -16.5357  -29.9117   23.6303 C   0  0  0  0  0  0
  -16.7273  -28.6513   23.0368 C   0  0  0  0  0  0
  -26.4431  -31.6624   25.0766 C   0  0  0  0  0  0
  -25.3685  -31.3767   26.1516 C   0  0  0  0  0  0
  -27.0287  -30.3056   24.6223 C   0  0  0  0  0  0
  -27.5991  -32.4361   25.7531 C   0  0  0  0  0  0
  -27.5585  -37.1816   24.8449 C   0  0  0  0  0  0
  -21.4156  -29.3035   22.3682 N   0  0  0  0  0  0
  -26.4284  -37.3803   23.9412 N   0  0  0  0  0  0
  -24.6721  -31.0733   22.1016 N   0  0  0  0  0  0
  -23.4188  -28.8185   23.3009 O   0  0  0  0  0  0
  -28.4134  -26.6882   20.1485 O   0  0  0  0  0  0
  -26.5603  -34.8929   22.4709 O   0  0  0  0  0  0
  -23.5331  -32.1421   23.7447 O   0  0  0  0  0  0
  -31.3840  -17.8677   17.8128 C   0  0  0  0  0  0
  -30.8604  -19.0936   18.2326 C   0  0  0  0  0  0
  -31.0619  -16.6993   18.5203 C   0  0  0  0  0  0
  -29.6712  -17.9860   20.0598 C   0  0  0  0  0  0
  -29.9922  -19.1687   19.3401 C   0  0  0  0  0  0
  -30.2355  -16.7401   19.6760 C   0  0  0  0  0  0
  -28.3003  -20.6517   20.6624 C   0  0  0  0  0  0
  -30.5102  -21.5173   20.1835 C   0  0  0  0  0  0
  -27.6763  -22.0663   20.6214 C   0  0  0  0  0  0
  -30.0318  -22.9785   20.0909 C   0  0  0  0  0  0
  -29.4431  -20.5588   19.6601 C   0  0  1  0  0  0
  -27.9416  -24.2472   19.5239 C   0  0  0  0  0  0
  -28.6651  -25.6028   19.2409 C   0  0  0  0  0  0
  -29.9401  -15.5529   20.4264 N   0  0  0  0  0  0
  -28.5954  -23.2490   20.4394 N   0  3  1  0  0  0
  -31.4557  -12.3184   19.1357 H   0  0  0  0  0  0
  -30.2391  -11.2625   19.8033 H   0  0  0  0  0  0
  -29.7454  -11.8703   17.3766 H   0  0  0  0  0  0
  -29.6851  -13.5525   17.8196 H   0  0  0  0  0  0
  -27.7962  -11.3521   18.7390 H   0  0  0  0  0  0
  -27.3903  -12.7404   17.7606 H   0  0  0  0  0  0
  -27.6905  -14.2708   19.5761 H   0  0  0  0  0  0
  -28.6644  -11.9967   21.3702 H   0  0  0  0  0  0
  -28.5066  -13.6667   21.8456 H   0  0  0  0  0  0
  -25.2791   -9.5625   22.4746 H   0  0  0  0  0  0
  -23.9972   -7.4626   22.7539 H   0  0  0  0  0  0
  -21.0860   -8.8810   19.8973 H   0  0  0  0  0  0
  -22.3792  -10.9651   19.6160 H   0  0  0  0  0  0
  -21.1991   -7.6154   23.9743 H   0  0  0  0  0  0
  -21.1536   -6.0536   25.9093 H   0  0  0  0  0  0
  -22.0563   -2.7615   23.2843 H   0  0  0  0  0  0
  -22.4064  -11.9864   22.4747 H   0  0  0  0  0  0
  -21.1118  -13.1304   22.2573 H   0  0  0  0  0  0
  -24.6547  -15.8406   20.5474 H   0  0  0  0  0  0
  -26.2609  -15.6382   20.0630 H   0  0  0  0  0  0
  -26.7114  -32.5513   23.1175 H   0  0  0  0  0  0
  -24.9942  -33.9758   25.0411 H   0  0  0  0  0  0
  -22.7015  -31.3075   21.4079 H   0  0  0  0  0  0
  -23.3721  -35.9684   23.3282 H   0  0  0  0  0  0
  -24.3573  -36.8976   22.2066 H   0  0  0  0  0  0
  -23.7229  -37.6539   23.6673 H   0  0  0  0  0  0
  -26.0701  -31.5735   20.6067 H   0  0  0  0  0  0
  -26.8209  -30.8573   22.0068 H   0  0  0  0  0  0
  -28.0783  -29.0383   21.2361 H   0  0  0  0  0  0
  -26.0566  -26.0438   18.8620 H   0  0  0  0  0  0
  -24.0060  -27.3440   18.9345 H   0  0  0  0  0  0
  -23.7315  -30.6004   19.4028 H   0  0  0  0  0  0
  -22.7416  -29.2460   19.8588 H   0  0  0  0  0  0
  -25.1258  -36.1983   25.0839 H   0  0  0  0  0  0
  -20.9989  -28.3279   24.1415 H   0  0  0  0  0  0
  -20.5698  -26.2298   23.3639 H   0  0  0  0  0  0
  -21.6651  -26.7459   22.1210 H   0  0  0  0  0  0
  -19.6906  -25.6299   21.1267 H   0  0  0  0  0  0
  -19.6685  -27.3202   20.6769 H   0  0  0  0  0  0
  -17.4202  -26.6719   21.4009 H   0  0  0  0  0  0
  -18.0278  -26.0090   22.9008 H   0  0  0  0  0  0
  -19.7933  -30.7246   24.2347 H   0  0  0  0  0  0
  -17.5020  -31.6280   24.5160 H   0  0  0  0  0  0
  -15.5361  -30.3024   23.7616 H   0  0  0  0  0  0
  -15.8677  -28.0834   22.7091 H   0  0  0  0  0  0
  -24.5800  -30.7186   25.7843 H   0  0  0  0  0  0
  -24.8955  -32.2954   26.5006 H   0  0  0  0  0  0
  -25.8015  -30.8882   27.0259 H   0  0  0  0  0  0
  -26.2886  -29.6830   24.1193 H   0  0  0  0  0  0
  -27.3910  -29.7289   25.4743 H   0  0  0  0  0  0
  -27.8771  -30.4338   23.9500 H   0  0  0  0  0  0
  -27.2573  -33.3615   26.2184 H   0  0  0  0  0  0
  -28.3763  -32.7016   25.0351 H   0  0  0  0  0  0
  -28.0719  -31.8470   26.5402 H   0  0  0  0  0  0
  -28.2562  -38.0148   24.7532 H   0  0  0  0  0  0
  -28.1115  -36.2683   24.6206 H   0  0  0  0  0  0
  -27.2322  -37.1391   25.8854 H   0  0  0  0  0  0
  -20.9329  -29.8750   21.6887 H   0  0  0  0  0  0
  -26.0165  -38.2878   24.1428 H   0  0  0  0  0  0
  -32.0325  -17.8304   16.9478 H   0  0  0  0  0  0
  -31.1141  -19.9913   17.6865 H   0  0  0  0  0  0
  -31.4781  -15.7705   18.1521 H   0  0  0  0  0  0
  -29.0053  -18.0237   20.9094 H   0  0  0  0  0  0
  -27.5263  -19.9239   20.4169 H   0  0  0  0  0  0
  -28.6448  -20.4007   21.6655 H   0  0  0  0  0  0
  -30.7890  -21.2523   21.2032 H   0  0  0  0  0  0
  -31.4273  -21.4267   19.6025 H   0  0  0  0  0  0
  -27.0802  -22.2191   21.5207 H   0  0  0  0  0  0
  -26.9520  -22.0515   19.8071 H   0  0  0  0  0  0
  -30.2400  -23.3116   19.0745 H   0  0  0  0  0  0
  -30.6555  -23.5915   20.7450 H   0  0  0  0  0  0
  -29.0733  -20.9347   18.7024 H   0  0  0  0  0  0
  -27.8294  -23.7541   18.5553 H   0  0  0  0  0  0
  -26.9296  -24.4165   19.8855 H   0  0  0  0  0  0
  -28.4027  -25.9424   18.2385 H   0  0  0  0  0  0
  -29.7438  -25.4651   19.1994 H   0  0  0  0  0  0
  -28.9957  -15.4453   20.7625 H   0  0  0  0  0  0
  -28.6347  -23.6869   21.3497 H   0  0  0  0  0  0
  1 25  1  0  0  0
  1 30  2  0  0  0
  1 84  1  0  0  0
  2  3  1  0  0  0
  2 25  1  0  0  0
  2 86  1  0  0  0
  2 87  1  0  0  0
  3  4  1  0  0  0
  3 88  1  0  0  0
  3 89  1  0  0  0
  4  5  1  0  0  0
  4 90  1  0  0  0
  4 91  1  0  0  0
  5  6  1  0  0  0
  5 26  1  0  0  0
  5 92  1  0  0  0
  6 25  1  0  0  0
  6 93  1  0  0  0
  6 94  1  0  0  0
  7  8  2  0  0  0
  7 26  1  0  0  0
  7 29  1  0  0  0
  8  9  1  0  0  0
  8 22  1  0  0  0
  9 10  1  0  0  0
  9 27  2  0  0  0
 10 11  2  0  0  0
 10 15  1  0  0  0
 11 12  1  0  0  0
 11 95  1  0  0  0
 12 13  2  0  0  0
 12 96  1  0  0  0
 13 14  1  0  0  0
 13 31  1  0  0  0
 14 15  2  0  0  0
 14 97  1  0  0  0
 15 98  1  0  0  0
 16 17  2  0  0  0
 16 21  1  0  0  0
 16 31  1  0  0  0
 17 18  1  0  0  0
 17 99  1  0  0  0
 18 19  2  0  0  0
 18100  1  0  0  0
 19 20  1  0  0  0
 19 24  1  0  0  0
 20 21  2  0  0  0
 20101  1  0  0  0
 21 23  1  0  0  0
 22 28  1  0  0  0
 22 32  2  0  0  0
 26 27  1  0  0  0
 28102  1  0  0  0
 28103  1  0  0  0
 29104  1  0  0  0
 29105  1  0  0  0
 33 34  1  0  0  0
 33 66  1  0  0  0
 33 70  2  0  0  0
 34 36  1  0  0  0
 34 59  1  0  0  0
 34106  1  0  0  0
 35 44  2  0  0  0
 35 45  1  0  0  0
 35 68  1  0  0  0
 36 56  1  0  0  0
 36107  1  0  0  0
 37 39  1  0  0  0
 37 47  1  0  0  0
 37 66  1  0  0  0
 37108  1  0  0  0
 38 43  2  0  0  0
 38 46  1  0  0  0
 38 47  1  0  0  0
 39 64  1  0  0  0
 39 67  2  0  0  0
 40 52  1  0  0  0
 40 53  2  0  0  0
 40 58  1  0  0  0
 41109  1  0  0  0
 41110  1  0  0  0
 41111  1  0  0  0
 41 48  1  0  0  0
 42 43  1  0  0  0
 42 66  1  0  0  0
 42112  1  0  0  0
 42113  1  0  0  0
 43 44  1  0  0  0
 44114  1  0  0  0
 45 46  2  0  0  0
 45115  1  0  0  0
 46116  1  0  0  0
 47117  1  0  0  0
 47118  1  0  0  0
 48 56  1  0  0  0
 48 65  1  0  0  0
 48119  1  0  0  0
 49 50  1  0  0  0
 49 53  1  0  0  0
 49 64  1  0  0  0
 49120  1  0  0  0
 50 51  1  0  0  0
 50121  1  0  0  0
 50122  1  0  0  0
 51 52  1  0  0  0
 51123  1  0  0  0
 51124  1  0  0  0
 52125  1  0  0  0
 52126  1  0  0  0
 53 54  1  0  0  0
 54 55  2  0  0  0
 54127  1  0  0  0
 55 57  1  0  0  0
 55128  1  0  0  0
 56 69  2  0  0  0
 57 58  2  0  0  0
 57129  1  0  0  0
 58130  1  0  0  0
 59 60  1  0  0  0
 59 61  1  0  0  0
 59 62  1  0  0  0
 60131  1  0  0  0
 60132  1  0  0  0
 60133  1  0  0  0
 61134  1  0  0  0
 61135  1  0  0  0
 61136  1  0  0  0
 62137  1  0  0  0
 62138  1  0  0  0
 62139  1  0  0  0
 63 65  1  0  0  0
 63140  1  0  0  0
 63141  1  0  0  0
 63142  1  0  0  0
 64143  1  0  0  0
 65144  1  0  0  0
 68 83  1  0  0  0
 71 72  2  0  0  0
 71 73  1  0  0  0
 71145  1  0  0  0
 72 75  1  0  0  0
 72146  1  0  0  0
 73 76  2  0  0  0
 73147  1  0  0  0
 74 75  2  0  0  0
 74 76  1  0  0  0
 74148  1  0  0  0
 75 81  1  0  0  0
 76 84  1  0  0  0
 77 79  1  0  0  0
 77 81  1  0  0  0
 77149  1  0  0  0
 77150  1  0  0  0
 78 80  1  0  0  0
 78 81  1  0  0  0
 78151  1  0  0  0
 78152  1  0  0  0
 79 85  1  0  0  0
 79153  1  0  0  0
 79154  1  0  0  0
 80 85  1  0  0  0
 80155  1  0  0  0
 80156  1  0  0  0
 81157  1  0  0  0
 82 83  1  0  0  0
 82158  1  0  0  0
 82159  1  0  0  0
 82 85  1  0  0  0
 83160  1  0  0  0
 83161  1  0  0  0
 84162  1  0  0  0
 85163  1  0  0  0
M  CHG  1  85   1
M  ISO  4   1 100  68 101  83 101  84 100
M  END
> <chiral flag>
0

> <version>
0

> <s_m_source_file>
/data/baiqing/PycharmProjects/Reinvent-master-3.2/result/LINK_invent/BTK/process_docking_weight1_custom_sum_contain_oxygen_bond_distance_aromatic_linkinvent_7_9_3/rearranged_h_0134.sdf

> <i_m_source_file_index>
8

> <r_mmod_Potential_Energy-OPLS-2005>
-0.898796439170837

> <r_mmod_Stretch_Energy-OPLS-2005>
42.8451461791992

> <r_mmod_Bend_Energy-OPLS-2005>
137.483917236328

> <r_mmod_Torsional_Energy-OPLS-2005>
297.32666015625

> <r_mmod_Improper_Torsional_Energy-OPLS-2005>
8.62738704681396

> <r_mmod_Van_der_Waal_Energy-OPLS-2005>
172.238891601562

> <r_mmod_Electrostatic_Energy-OPLS-2005>
-249.885101318359

> <r_mmod_Solvation_Energy-OPLS-2005>
-435.089660644531

> <b_mmod_Minimization_Converged-OPLS-2005>
0

> <r_mmod_RMS_Derivative-OPLS-2005>
5.16309595108032

$$$$
8
                    3D
 Structure written by MMmdl.
160168  0  0  1  0            999 V2000
  -30.7532  -14.3867   20.6749 C   0  0  0  0  0  0
  -30.4198  -12.2989   19.4040 C   0  0  0  0  0  0
  -29.4867  -12.5029   18.1954 C   0  0  0  0  0  0
  -28.0136  -12.3313   18.6144 C   0  0  0  0  0  0
  -27.6583  -13.1796   19.8599 C   0  0  2  0  0  0
  -28.6943  -12.9591   20.9867 C   0  0  0  0  0  0
  -25.2630  -13.8119   20.5624 C   0  0  0  0  0  0
  -24.1870  -13.0452   20.9197 C   0  0  0  0  0  0
  -24.6354  -11.6894   20.8741 C   0  0  0  0  0  0
  -23.9014  -10.4301   21.0429 C   0  0  0  0  0  0
  -24.3594   -9.4217   21.9192 C   0  0  0  0  0  0
  -23.6283   -8.2245   22.0756 C   0  0  0  0  0  0
  -22.4258   -8.0286   21.3552 C   0  0  0  0  0  0
  -21.9888   -9.0253   20.4649 C   0  0  0  0  0  0
  -22.7196  -10.2141   20.3069 C   0  0  0  0  0  0
  -21.6859   -6.0734   22.5278 C   0  0  0  0  0  0
  -21.4007   -6.5640   23.8206 C   0  0  0  0  0  0
  -21.3652   -5.6799   24.9175 C   0  0  0  0  0  0
  -21.6052   -4.3060   24.7229 C   0  0  0  0  0  0
  -21.8823   -3.8147   23.4349 C   0  0  0  0  0  0
  -21.9188   -4.6963   22.3405 C   0  0  0  0  0  0
  -22.7910  -13.5283   21.1866 C   0  0  0  0  0  0
  -22.1666   -4.2154   21.0985 F   0  0  0  0  0  0
  -21.5624   -3.4540   25.7737 F   0  0  0  0  0  0
  -30.0339  -13.2561   20.4504 N   0  0  0  0  0  0
  -26.2987  -12.9204   20.3229 N   0  0  0  0  0  0
  -25.9241  -11.6405   20.5690 N   0  0  0  0  0  0
  -22.0530  -12.8265   22.0394 N   0  0  0  0  0  0
  -25.4455  -15.1832   20.3934 N   0  0  0  0  0  0
  -31.8121  -14.6457   20.0982 O   0  0  0  0  0  0
  -21.6647   -6.8870   21.4233 O   0  0  0  0  0  0
  -22.3638  -14.5617   20.6721 O   0  0  0  0  0  0
  -24.6114  -31.8701   23.2136 C   0  0  0  0  0  0
  -25.9031  -32.4842   23.8421 C   0  0  1  0  0  0
  -27.2289  -27.4588   20.0824 C   0  0  0  0  0  0
  -25.5909  -33.8642   24.2365 N   0  0  0  0  0  0
  -23.3963  -30.4983   21.5528 C   0  0  2  0  0  0
  -24.8383  -28.9635   20.1184 C   0  0  0  0  0  0
  -22.7368  -29.4715   22.4996 C   0  0  0  0  0  0
  -18.0266  -28.1380   22.8497 C   0  0  0  0  0  0
  -24.1492  -36.7323   23.2636 C   0  0  0  0  0  0
  -25.9251  -30.8428   21.3635 C   0  0  0  0  0  0
  -25.9997  -29.4795   20.7078 C   0  0  0  0  0  0
  -27.1971  -28.7354   20.6823 C   0  0  0  0  0  0
  -26.0485  -26.9511   19.4929 C   0  0  0  0  0  0
  -24.8568  -27.6974   19.5090 C   0  0  0  0  0  0
  -23.6023  -29.8308   20.1679 C   0  0  0  0  0  0
  -25.4108  -36.3128   24.0351 C   0  0  1  0  0  0
  -20.5852  -28.3684   23.1292 C   0  0  2  0  0  0
  -20.6774  -26.9410   22.5413 C   0  0  0  0  0  0
  -19.5741  -26.6370   21.5222 C   0  0  0  0  0  0
  -18.1919  -26.7916   22.1653 C   0  0  0  0  0  0
  -19.1513  -28.8848   23.2901 C   0  0  0  0  0  0
  -18.9445  -30.1452   23.8912 C   0  0  0  0  0  0
  -17.6445  -30.6597   24.0555 C   0  0  0  0  0  0
  -25.9035  -34.9493   23.5146 C   0  0  0  0  0  0
  -16.5334  -29.9091   23.6331 C   0  0  0  0  0  0
  -16.7250  -28.6506   23.0356 C   0  0  0  0  0  0
  -26.4456  -31.6612   25.0748 C   0  0  0  0  0  0
  -25.3731  -31.3712   26.1502 C   0  0  0  0  0  0
  -27.0296  -30.3065   24.6127 C   0  0  0  0  0  0
  -27.6051  -32.4307   25.7492 C   0  0  0  0  0  0
  -27.5582  -37.1818   24.8465 C   0  0  0  0  0  0
  -21.4103  -29.3082   22.3716 N   0  0  0  0  0  0
  -26.4294  -37.3808   23.9410 N   0  0  0  0  0  0
  -24.6627  -31.0836   22.1021 N   0  0  0  0  0  0
  -23.4136  -28.8246   23.3024 O   0  0  0  0  0  0
  -28.4160  -26.7642   20.0748 O   0  0  0  0  0  0
  -26.5585  -34.8928   22.4706 O   0  0  0  0  0  0
  -23.5329  -32.1446   23.7569 O   0  0  0  0  0  0
  -28.0097  -21.0266   23.4760 C   0  0  0  0  0  0
  -26.0260  -20.5747   22.1424 C   0  0  0  0  0  0
  -27.9650  -22.3810   23.0922 C   0  0  0  0  0  0
  -25.9949  -21.9267   21.7432 C   0  0  0  0  0  0
  -27.0478  -20.1131   22.9995 C   0  0  0  0  0  0
  -26.9672  -22.8427   22.1986 C   0  0  0  0  0  0
  -27.1306  -18.6447   23.3946 C   0  0  0  0  0  0
  -29.2782  -16.1981   21.3523 C   0  0  0  0  0  0
  -28.7359  -16.8913   22.6172 C   0  0  0  0  0  0
  -27.9823  -25.0068   21.7421 C   0  0  0  0  0  0
  -28.3655  -25.3508   20.2875 C   0  0  0  0  0  0
  -30.3065  -15.1959   21.6426 N   0  0  0  0  0  0
  -27.6638  -17.8501   22.2704 N   0  3  0  0  0  0
  -26.8421  -24.1450   21.7601 O   0  0  0  0  0  0
  -31.4631  -12.4049   19.1023 H   0  0  0  0  0  0
  -30.3291  -11.2835   19.7911 H   0  0  0  0  0  0
  -29.7322  -11.7886   17.4099 H   0  0  0  0  0  0
  -29.6397  -13.4950   17.7678 H   0  0  0  0  0  0
  -27.8486  -11.2735   18.8250 H   0  0  0  0  0  0
  -27.3512  -12.5763   17.7844 H   0  0  0  0  0  0
  -27.7021  -14.2145   19.5300 H   0  0  0  0  0  0
  -28.6657  -11.9237   21.3284 H   0  0  0  0  0  0
  -28.4351  -13.5536   21.8630 H   0  0  0  0  0  0
  -25.2760   -9.5700   22.4731 H   0  0  0  0  0  0
  -24.0013   -7.4644   22.7468 H   0  0  0  0  0  0
  -21.0827   -8.8764   19.8953 H   0  0  0  0  0  0
  -22.3668  -10.9675   19.6165 H   0  0  0  0  0  0
  -21.1996   -7.6156   23.9709 H   0  0  0  0  0  0
  -21.1471   -6.0535   25.9079 H   0  0  0  0  0  0
  -22.0607   -2.7610   23.2854 H   0  0  0  0  0  0
  -22.4131  -11.9885   22.4713 H   0  0  0  0  0  0
  -21.1153  -13.1277   22.2623 H   0  0  0  0  0  0
  -24.5996  -15.7398   20.3282 H   0  0  0  0  0  0
  -26.1406  -15.4806   19.7197 H   0  0  0  0  0  0
  -26.7102  -32.5531   23.1181 H   0  0  0  0  0  0
  -25.0098  -33.9807   25.0533 H   0  0  0  0  0  0
  -22.6869  -31.3176   21.4137 H   0  0  0  0  0  0
  -23.3748  -35.9661   23.3316 H   0  0  0  0  0  0
  -24.3591  -36.8919   22.2042 H   0  0  0  0  0  0
  -23.7243  -37.6541   23.6632 H   0  0  0  0  0  0
  -26.0434  -31.6130   20.5993 H   0  0  0  0  0  0
  -26.8109  -30.8888   21.9854 H   0  0  0  0  0  0
  -28.0962  -29.1332   21.1288 H   0  0  0  0  0  0
  -26.0301  -25.9901   19.0036 H   0  0  0  0  0  0
  -23.9653  -27.2958   19.0468 H   0  0  0  0  0  0
  -23.7134  -30.6066   19.4076 H   0  0  0  0  0  0
  -22.7248  -29.2533   19.8706 H   0  0  0  0  0  0
  -25.1278  -36.2007   25.0841 H   0  0  0  0  0  0
  -20.9943  -28.3249   24.1405 H   0  0  0  0  0  0
  -20.5690  -26.2278   23.3610 H   0  0  0  0  0  0
  -21.6652  -26.7466   22.1211 H   0  0  0  0  0  0
  -19.6886  -25.6269   21.1277 H   0  0  0  0  0  0
  -19.6671  -27.3163   20.6741 H   0  0  0  0  0  0
  -17.4179  -26.6626   21.4076 H   0  0  0  0  0  0
  -18.0332  -26.0085   22.9087 H   0  0  0  0  0  0
  -19.7926  -30.7267   24.2287 H   0  0  0  0  0  0
  -17.5012  -31.6272   24.5151 H   0  0  0  0  0  0
  -15.5349  -30.2998   23.7678 H   0  0  0  0  0  0
  -15.8655  -28.0830   22.7067 H   0  0  0  0  0  0
  -24.5887  -30.7081   25.7828 H   0  0  0  0  0  0
  -24.8931  -32.2865   26.4975 H   0  0  0  0  0  0
  -25.8071  -30.8850   27.0246 H   0  0  0  0  0  0
  -26.2864  -29.6823   24.1153 H   0  0  0  0  0  0
  -27.4047  -29.7308   25.4596 H   0  0  0  0  0  0
  -27.8703  -30.4407   23.9320 H   0  0  0  0  0  0
  -27.2711  -33.3589   26.2137 H   0  0  0  0  0  0
  -28.3821  -32.6881   25.0281 H   0  0  0  0  0  0
  -28.0770  -31.8386   26.5340 H   0  0  0  0  0  0
  -28.2606  -38.0110   24.7500 H   0  0  0  0  0  0
  -28.1075  -36.2634   24.6306 H   0  0  0  0  0  0
  -27.2304  -37.1493   25.8875 H   0  0  0  0  0  0
  -20.9284  -29.8806   21.6917 H   0  0  0  0  0  0
  -26.0194  -38.2900   24.1387 H   0  0  0  0  0  0
  -28.7935  -20.6959   24.1447 H   0  0  0  0  0  0
  -25.2638  -19.8958   21.7826 H   0  0  0  0  0  0
  -28.7092  -23.0346   23.5201 H   0  0  0  0  0  0
  -25.2154  -22.2688   21.0766 H   0  0  0  0  0  0
  -26.1413  -18.2793   23.6709 H   0  0  0  0  0  0
  -27.7626  -18.5432   24.2789 H   0  0  0  0  0  0
  -28.4478  -15.7480   20.8161 H   0  0  0  0  0  0
  -29.7055  -16.9403   20.6757 H   0  0  0  0  0  0
  -28.3405  -16.1534   23.3168 H   0  0  0  0  0  0
  -29.5439  -17.4195   23.1287 H   0  0  0  0  0  0
  -27.7012  -25.9089   22.2852 H   0  0  0  0  0  0
  -28.8666  -24.6355   22.2517 H   0  0  0  0  0  0
  -27.7211  -24.8430   19.5722 H   0  0  0  0  0  0
  -29.3619  -24.9603   20.0866 H   0  0  0  0  0  0
  -31.0828  -15.6163   22.1328 H   0  0  0  0  0  0
  -28.0191  -18.5019   21.5916 H   0  0  0  0  0  0
  -26.8945  -17.3557   21.8473 H   0  0  0  0  0  0
  1 25  1  0  0  0
  1 30  2  0  0  0
  1 82  1  0  0  0
  2  3  1  0  0  0
  2 25  1  0  0  0
  2 85  1  0  0  0
  2 86  1  0  0  0
  3  4  1  0  0  0
  3 87  1  0  0  0
  3 88  1  0  0  0
  4  5  1  0  0  0
  4 89  1  0  0  0
  4 90  1  0  0  0
  5  6  1  0  0  0
  5 26  1  0  0  0
  5 91  1  0  0  0
  6 25  1  0  0  0
  6 92  1  0  0  0
  6 93  1  0  0  0
  7  8  2  0  0  0
  7 26  1  0  0  0
  7 29  1  0  0  0
  8  9  1  0  0  0
  8 22  1  0  0  0
  9 10  1  0  0  0
  9 27  2  0  0  0
 10 11  2  0  0  0
 10 15  1  0  0  0
 11 12  1  0  0  0
 11 94  1  0  0  0
 12 13  2  0  0  0
 12 95  1  0  0  0
 13 14  1  0  0  0
 13 31  1  0  0  0
 14 15  2  0  0  0
 14 96  1  0  0  0
 15 97  1  0  0  0
 16 17  2  0  0  0
 16 21  1  0  0  0
 16 31  1  0  0  0
 17 18  1  0  0  0
 17 98  1  0  0  0
 18 19  2  0  0  0
 18 99  1  0  0  0
 19 20  1  0  0  0
 19 24  1  0  0  0
 20 21  2  0  0  0
 20100  1  0  0  0
 21 23  1  0  0  0
 22 28  1  0  0  0
 22 32  2  0  0  0
 26 27  1  0  0  0
 28101  1  0  0  0
 28102  1  0  0  0
 29103  1  0  0  0
 29104  1  0  0  0
 33 34  1  0  0  0
 33 66  1  0  0  0
 33 70  2  0  0  0
 34 36  1  0  0  0
 34 59  1  0  0  0
 34105  1  0  0  0
 35 44  2  0  0  0
 35 45  1  0  0  0
 35 68  1  0  0  0
 36 56  1  0  0  0
 36106  1  0  0  0
 37 39  1  0  0  0
 37 47  1  0  0  0
 37 66  1  0  0  0
 37107  1  0  0  0
 38 43  2  0  0  0
 38 46  1  0  0  0
 38 47  1  0  0  0
 39 64  1  0  0  0
 39 67  2  0  0  0
 40 52  1  0  0  0
 40 53  2  0  0  0
 40 58  1  0  0  0
 41108  1  0  0  0
 41109  1  0  0  0
 41110  1  0  0  0
 41 48  1  0  0  0
 42 43  1  0  0  0
 42 66  1  0  0  0
 42111  1  0  0  0
 42112  1  0  0  0
 43 44  1  0  0  0
 44113  1  0  0  0
 45 46  2  0  0  0
 45114  1  0  0  0
 46115  1  0  0  0
 47116  1  0  0  0
 47117  1  0  0  0
 48 56  1  0  0  0
 48 65  1  0  0  0
 48118  1  0  0  0
 49 50  1  0  0  0
 49 53  1  0  0  0
 49 64  1  0  0  0
 49119  1  0  0  0
 50 51  1  0  0  0
 50120  1  0  0  0
 50121  1  0  0  0
 51 52  1  0  0  0
 51122  1  0  0  0
 51123  1  0  0  0
 52124  1  0  0  0
 52125  1  0  0  0
 53 54  1  0  0  0
 54 55  2  0  0  0
 54126  1  0  0  0
 55 57  1  0  0  0
 55127  1  0  0  0
 56 69  2  0  0  0
 57 58  2  0  0  0
 57128  1  0  0  0
 58129  1  0  0  0
 59 60  1  0  0  0
 59 61  1  0  0  0
 59 62  1  0  0  0
 60130  1  0  0  0
 60131  1  0  0  0
 60132  1  0  0  0
 61133  1  0  0  0
 61134  1  0  0  0
 61135  1  0  0  0
 62136  1  0  0  0
 62137  1  0  0  0
 62138  1  0  0  0
 63 65  1  0  0  0
 63139  1  0  0  0
 63140  1  0  0  0
 63141  1  0  0  0
 64142  1  0  0  0
 65143  1  0  0  0
 68 81  1  0  0  0
 71 73  2  0  0  0
 71 75  1  0  0  0
 71144  1  0  0  0
 72 74  1  0  0  0
 72 75  2  0  0  0
 72145  1  0  0  0
 73 76  1  0  0  0
 73146  1  0  0  0
 74 76  2  0  0  0
 74147  1  0  0  0
 75 77  1  0  0  0
 76 84  1  0  0  0
 77 83  1  0  0  0
 77148  1  0  0  0
 77149  1  0  0  0
 78 79  1  0  0  0
 78 82  1  0  0  0
 78150  1  0  0  0
 78151  1  0  0  0
 79 83  1  0  0  0
 79152  1  0  0  0
 79153  1  0  0  0
 80 81  1  0  0  0
 80 84  1  0  0  0
 80154  1  0  0  0
 80155  1  0  0  0
 81156  1  0  0  0
 81157  1  0  0  0
 82158  1  0  0  0
 83159  1  0  0  0
 83160  1  0  0  0
M  CHG  1  83   1
M  ISO  4   1 100  68 101  81 101  82 100
M  END
> <chiral flag>
0

> <version>
0

> <s_m_source_file>
/data/baiqing/PycharmProjects/Reinvent-master-3.2/result/LINK_invent/BTK/process_docking_weight1_custom_sum_contain_oxygen_bond_distance_aromatic_linkinvent_7_9_3/rearranged_h_0134.sdf

> <i_m_source_file_index>
9

> <r_mmod_Potential_Energy-OPLS-2005>
-256.303863525391

> <r_mmod_Stretch_Energy-OPLS-2005>
32.6000709533691

> <r_mmod_Bend_Energy-OPLS-2005>
104.403160095215

> <r_mmod_Torsional_Energy-OPLS-2005>
270.790496826172

> <r_mmod_Improper_Torsional_Energy-OPLS-2005>
11.0860061645508

> <r_mmod_Van_der_Waal_Energy-OPLS-2005>
154.164840698242

> <r_mmod_Electrostatic_Energy-OPLS-2005>
-346.932922363281

> <r_mmod_Solvation_Energy-OPLS-2005>
-491.326202392578

> <b_mmod_Minimization_Converged-OPLS-2005>
0

> <r_mmod_RMS_Derivative-OPLS-2005>
2.7075526714325

$$$$
9
                    3D
 Structure written by MMmdl.
165174  0  0  1  0            999 V2000
  -30.7547  -14.5799   20.4723 C   0  0  0  0  0  0
  -30.3906  -12.3654   19.4446 C   0  0  0  0  0  0
  -29.4817  -12.4779   18.2093 C   0  0  0  0  0  0
  -28.0085  -12.3368   18.6310 C   0  0  0  0  0  0
  -27.6356  -13.2373   19.8412 C   0  0  2  0  0  0
  -28.6876  -13.1761   20.9692 C   0  0  0  0  0  0
  -25.2487  -13.8227   20.5717 C   0  0  0  0  0  0
  -24.1788  -13.0455   20.9224 C   0  0  0  0  0  0
  -24.6388  -11.6937   20.8762 C   0  0  0  0  0  0
  -23.9073  -10.4303   21.0411 C   0  0  0  0  0  0
  -24.3622   -9.4211   21.9187 C   0  0  0  0  0  0
  -23.6297   -8.2245   22.0752 C   0  0  0  0  0  0
  -22.4279   -8.0284   21.3541 C   0  0  0  0  0  0
  -21.9917   -9.0260   20.4646 C   0  0  0  0  0  0
  -22.7246  -10.2139   20.3059 C   0  0  0  0  0  0
  -21.6856   -6.0737   22.5279 C   0  0  0  0  0  0
  -21.4016   -6.5641   23.8213 C   0  0  0  0  0  0
  -21.3659   -5.6793   24.9175 C   0  0  0  0  0  0
  -21.6044   -4.3056   24.7226 C   0  0  0  0  0  0
  -21.8819   -3.8148   23.4348 C   0  0  0  0  0  0
  -21.9192   -4.6964   22.3402 C   0  0  0  0  0  0
  -22.7805  -13.5224   21.1874 C   0  0  0  0  0  0
  -22.1659   -4.2149   21.0981 F   0  0  0  0  0  0
  -21.5627   -3.4540   25.7738 F   0  0  0  0  0  0
  -29.9916  -13.4527   20.3615 N   0  0  0  0  0  0
  -26.2916  -12.9448   20.3291 N   0  0  0  0  0  0
  -25.9320  -11.6582   20.5773 N   0  0  0  0  0  0
  -22.0454  -12.8210   22.0426 N   0  0  0  0  0  0
  -25.4165  -15.1953   20.4134 N   0  0  0  0  0  0
  -31.9546  -14.4819   20.2729 O   0  0  0  0  0  0
  -21.6643   -6.8880   21.4240 O   0  0  0  0  0  0
  -22.3489  -14.5527   20.6713 O   0  0  0  0  0  0
  -24.6206  -31.8635   23.2043 C   0  0  0  0  0  0
  -25.9076  -32.4800   23.8363 C   0  0  1  0  0  0
  -27.2182  -27.3659   20.1234 C   0  0  0  0  0  0
  -25.5910  -33.8596   24.2298 N   0  0  0  0  0  0
  -23.4104  -30.4864   21.5461 C   0  0  2  0  0  0
  -24.8544  -28.9367   20.1202 C   0  0  0  0  0  0
  -22.7440  -29.4649   22.4964 C   0  0  0  0  0  0
  -18.0280  -28.1382   22.8497 C   0  0  0  0  0  0
  -24.1484  -36.7301   23.2641 C   0  0  0  0  0  0
  -25.9446  -30.8097   21.3648 C   0  0  0  0  0  0
  -26.0190  -29.4366   20.7170 C   0  0  0  0  0  0
  -27.2083  -28.6620   20.7071 C   0  0  0  0  0  0
  -26.0372  -26.8930   19.5191 C   0  0  0  0  0  0
  -24.8613  -27.6681   19.5145 C   0  0  0  0  0  0
  -23.6221  -29.8146   20.1628 C   0  0  0  0  0  0
  -25.4107  -36.3099   24.0338 C   0  0  1  0  0  0
  -20.5873  -28.3681   23.1302 C   0  0  2  0  0  0
  -20.6769  -26.9412   22.5414 C   0  0  0  0  0  0
  -19.5744  -26.6390   21.5213 C   0  0  0  0  0  0
  -18.1925  -26.7929   22.1628 C   0  0  0  0  0  0
  -19.1529  -28.8847   23.2900 C   0  0  0  0  0  0
  -18.9457  -30.1453   23.8912 C   0  0  0  0  0  0
  -17.6455  -30.6589   24.0567 C   0  0  0  0  0  0
  -25.9038  -34.9465   23.5117 C   0  0  0  0  0  0
  -16.5347  -29.9090   23.6327 C   0  0  0  0  0  0
  -16.7268  -28.6504   23.0354 C   0  0  0  0  0  0
  -26.4480  -31.6592   25.0712 C   0  0  0  0  0  0
  -25.3734  -31.3709   26.1451 C   0  0  0  0  0  0
  -27.0314  -30.3029   24.6118 C   0  0  0  0  0  0
  -27.6053  -32.4309   25.7478 C   0  0  0  0  0  0
  -27.5573  -37.1810   24.8469 C   0  0  0  0  0  0
  -21.4159  -29.3040   22.3703 N   0  0  0  0  0  0
  -26.4291  -37.3784   23.9408 N   0  0  0  0  0  0
  -24.6773  -31.0692   22.0964 N   0  0  0  0  0  0
  -23.4192  -28.8197   23.3026 O   0  0  0  0  0  0
  -28.3673  -26.5942   20.0712 O   0  0  0  0  0  0
  -26.5601  -34.8925   22.4681 O   0  0  0  0  0  0
  -23.5385  -32.1402   23.7412 O   0  0  0  0  0  0
  -30.8420  -19.1900   22.0985 C   0  0  0  0  0  0
  -32.2259  -19.0678   22.2209 C   0  0  0  0  0  0
  -30.1311  -18.2811   21.2906 C   0  0  0  0  0  0
  -30.8265  -17.1113   20.8134 C   0  0  0  0  0  0
  -32.2458  -17.3104   20.7113 C   0  0  0  0  0  0
  -33.6187  -17.7107   18.5179 C   0  0  0  0  0  0
  -32.6412  -16.6139   18.1915 C   0  0  0  0  0  0
  -33.1380  -16.7816   19.6152 C   0  0  0  0  0  0
  -28.7526  -18.7945   20.8331 C   0  0  0  0  0  0
  -28.8698  -20.2008   20.0960 C   0  0  0  0  0  0
  -28.0990  -21.4623   20.6503 C   0  0  0  0  0  0
  -27.8622  -24.0103   20.1091 C   0  0  0  0  0  0
  -28.4030  -25.3253   20.7929 C   0  0  0  0  0  0
  -32.9190  -18.2094   21.4600 N   0  0  0  0  0  0
  -30.1643  -15.8220   20.5318 N   0  0  0  0  0  0
  -28.7317  -22.7856   20.2912 N   0  3  0  0  0  0
  -31.4365  -12.4155   19.1367 H   0  0  0  0  0  0
  -30.2707  -11.3950   19.9291 H   0  0  0  0  0  0
  -29.7369  -11.7079   17.4795 H   0  0  0  0  0  0
  -29.6390  -13.4371   17.7134 H   0  0  0  0  0  0
  -27.8436  -11.2892   18.8842 H   0  0  0  0  0  0
  -27.3519  -12.5502   17.7866 H   0  0  0  0  0  0
  -27.6305  -14.2592   19.4612 H   0  0  0  0  0  0
  -28.6925  -12.1960   21.4483 H   0  0  0  0  0  0
  -28.4598  -13.9047   21.7492 H   0  0  0  0  0  0
  -25.2762   -9.5689   22.4766 H   0  0  0  0  0  0
  -24.0006   -7.4635   22.7469 H   0  0  0  0  0  0
  -21.0850   -8.8782   19.8950 H   0  0  0  0  0  0
  -22.3703  -10.9680   19.6173 H   0  0  0  0  0  0
  -21.2010   -7.6148   23.9718 H   0  0  0  0  0  0
  -21.1481   -6.0523   25.9079 H   0  0  0  0  0  0
  -22.0597   -2.7609   23.2849 H   0  0  0  0  0  0
  -22.4076  -11.9874   22.4821 H   0  0  0  0  0  0
  -21.1067  -13.1225   22.2625 H   0  0  0  0  0  0
  -24.6479  -15.8475   20.5250 H   0  0  0  0  0  0
  -26.2646  -15.6358   20.0818 H   0  0  0  0  0  0
  -26.7152  -32.5486   23.1127 H   0  0  0  0  0  0
  -25.0080  -33.9750   25.0456 H   0  0  0  0  0  0
  -22.7019  -31.3048   21.4032 H   0  0  0  0  0  0
  -23.3742  -35.9640   23.3324 H   0  0  0  0  0  0
  -24.3570  -36.8892   22.2050 H   0  0  0  0  0  0
  -23.7240  -37.6517   23.6636 H   0  0  0  0  0  0
  -26.0625  -31.5697   20.5908 H   0  0  0  0  0  0
  -26.8309  -30.8659   21.9850 H   0  0  0  0  0  0
  -28.1118  -29.0496   21.1576 H   0  0  0  0  0  0
  -26.0231  -25.9257   19.0384 H   0  0  0  0  0  0
  -23.9677  -27.2807   19.0447 H   0  0  0  0  0  0
  -23.7410  -30.5860   19.4013 H   0  0  0  0  0  0
  -22.7429  -29.2410   19.8642 H   0  0  0  0  0  0
  -25.1290  -36.1964   25.0832 H   0  0  0  0  0  0
  -20.9971  -28.3250   24.1419 H   0  0  0  0  0  0
  -20.5670  -26.2292   23.3607 H   0  0  0  0  0  0
  -21.6642  -26.7445   22.1208 H   0  0  0  0  0  0
  -19.6902  -25.6301   21.1238 H   0  0  0  0  0  0
  -19.6679  -27.3206   20.6746 H   0  0  0  0  0  0
  -17.4195  -26.6685   21.4030 H   0  0  0  0  0  0
  -18.0329  -26.0062   22.9018 H   0  0  0  0  0  0
  -19.7932  -30.7271   24.2281 H   0  0  0  0  0  0
  -17.5010  -31.6270   24.5175 H   0  0  0  0  0  0
  -15.5350  -30.3002   23.7633 H   0  0  0  0  0  0
  -15.8670  -28.0830   22.7056 H   0  0  0  0  0  0
  -24.5911  -30.7053   25.7781 H   0  0  0  0  0  0
  -24.8921  -32.2868   26.4890 H   0  0  0  0  0  0
  -25.8078  -30.8880   27.0213 H   0  0  0  0  0  0
  -26.2866  -29.6789   24.1165 H   0  0  0  0  0  0
  -27.4063  -29.7271   25.4592 H   0  0  0  0  0  0
  -27.8715  -30.4343   23.9291 H   0  0  0  0  0  0
  -27.2679  -33.3601   26.2078 H   0  0  0  0  0  0
  -28.3854  -32.6876   25.0298 H   0  0  0  0  0  0
  -28.0734  -31.8417   26.5373 H   0  0  0  0  0  0
  -28.2618  -38.0082   24.7494 H   0  0  0  0  0  0
  -28.1046  -36.2615   24.6332 H   0  0  0  0  0  0
  -27.2290  -37.1506   25.8873 H   0  0  0  0  0  0
  -20.9321  -29.8764   21.6925 H   0  0  0  0  0  0
  -26.0184  -38.2869   24.1390 H   0  0  0  0  0  0
  -30.3481  -20.0326   22.5614 H   0  0  0  0  0  0
  -32.7967  -19.7691   22.8113 H   0  0  0  0  0  0
  -33.2435  -18.7320   18.5196 H   0  0  0  0  0  0
  -34.6380  -17.5859   18.1586 H   0  0  0  0  0  0
  -33.0168  -15.7624   17.6284 H   0  0  0  0  0  0
  -31.6128  -16.8986   17.9787 H   0  0  0  0  0  0
  -33.8755  -16.0812   20.0034 H   0  0  0  0  0  0
  -28.0939  -18.8660   21.6991 H   0  0  0  0  0  0
  -28.3023  -18.0601   20.1652 H   0  0  0  0  0  0
  -28.5603  -20.0563   19.0600 H   0  0  0  0  0  0
  -29.9244  -20.4604   20.0051 H   0  0  0  0  0  0
  -28.0354  -21.4125   21.7380 H   0  0  0  0  0  0
  -27.0717  -21.4306   20.2859 H   0  0  0  0  0  0
  -27.7764  -24.1793   19.0356 H   0  0  0  0  0  0
  -26.8497  -23.8146   20.4643 H   0  0  0  0  0  0
  -29.4583  -25.1756   21.0222 H   0  0  0  0  0  0
  -27.9257  -25.4520   21.7660 H   0  0  0  0  0  0
  -29.1567  -15.8132   20.5761 H   0  0  0  0  0  0
  -29.2343  -22.6610   19.4263 H   0  0  0  0  0  0
  -29.4279  -22.9839   20.9937 H   0  0  0  0  0  0
  1 25  1  0  0  0
  1 30  2  0  0  0
  1 85  1  0  0  0
  2  3  1  0  0  0
  2 25  1  0  0  0
  2 87  1  0  0  0
  2 88  1  0  0  0
  3  4  1  0  0  0
  3 89  1  0  0  0
  3 90  1  0  0  0
  4  5  1  0  0  0
  4 91  1  0  0  0
  4 92  1  0  0  0
  5  6  1  0  0  0
  5 26  1  0  0  0
  5 93  1  0  0  0
  6 25  1  0  0  0
  6 94  1  0  0  0
  6 95  1  0  0  0
  7  8  2  0  0  0
  7 26  1  0  0  0
  7 29  1  0  0  0
  8  9  1  0  0  0
  8 22  1  0  0  0
  9 10  1  0  0  0
  9 27  2  0  0  0
 10 11  2  0  0  0
 10 15  1  0  0  0
 11 12  1  0  0  0
 11 96  1  0  0  0
 12 13  2  0  0  0
 12 97  1  0  0  0
 13 14  1  0  0  0
 13 31  1  0  0  0
 14 15  2  0  0  0
 14 98  1  0  0  0
 15 99  1  0  0  0
 16 17  2  0  0  0
 16 21  1  0  0  0
 16 31  1  0  0  0
 17 18  1  0  0  0
 17100  1  0  0  0
 18 19  2  0  0  0
 18101  1  0  0  0
 19 20  1  0  0  0
 19 24  1  0  0  0
 20 21  2  0  0  0
 20102  1  0  0  0
 21 23  1  0  0  0
 22 28  1  0  0  0
 22 32  2  0  0  0
 26 27  1  0  0  0
 28103  1  0  0  0
 28104  1  0  0  0
 29105  1  0  0  0
 29106  1  0  0  0
 33 34  1  0  0  0
 33 66  1  0  0  0
 33 70  2  0  0  0
 34 36  1  0  0  0
 34 59  1  0  0  0
 34107  1  0  0  0
 35 44  2  0  0  0
 35 45  1  0  0  0
 35 68  1  0  0  0
 36 56  1  0  0  0
 36108  1  0  0  0
 37 39  1  0  0  0
 37 47  1  0  0  0
 37 66  1  0  0  0
 37109  1  0  0  0
 38 43  2  0  0  0
 38 46  1  0  0  0
 38 47  1  0  0  0
 39 64  1  0  0  0
 39 67  2  0  0  0
 40 52  1  0  0  0
 40 53  2  0  0  0
 40 58  1  0  0  0
 41110  1  0  0  0
 41111  1  0  0  0
 41112  1  0  0  0
 41 48  1  0  0  0
 42 43  1  0  0  0
 42 66  1  0  0  0
 42113  1  0  0  0
 42114  1  0  0  0
 43 44  1  0  0  0
 44115  1  0  0  0
 45 46  2  0  0  0
 45116  1  0  0  0
 46117  1  0  0  0
 47118  1  0  0  0
 47119  1  0  0  0
 48 56  1  0  0  0
 48 65  1  0  0  0
 48120  1  0  0  0
 49 50  1  0  0  0
 49 53  1  0  0  0
 49 64  1  0  0  0
 49121  1  0  0  0
 50 51  1  0  0  0
 50122  1  0  0  0
 50123  1  0  0  0
 51 52  1  0  0  0
 51124  1  0  0  0
 51125  1  0  0  0
 52126  1  0  0  0
 52127  1  0  0  0
 53 54  1  0  0  0
 54 55  2  0  0  0
 54128  1  0  0  0
 55 57  1  0  0  0
 55129  1  0  0  0
 56 69  2  0  0  0
 57 58  2  0  0  0
 57130  1  0  0  0
 58131  1  0  0  0
 59 60  1  0  0  0
 59 61  1  0  0  0
 59 62  1  0  0  0
 60132  1  0  0  0
 60133  1  0  0  0
 60134  1  0  0  0
 61135  1  0  0  0
 61136  1  0  0  0
 61137  1  0  0  0
 62138  1  0  0  0
 62139  1  0  0  0
 62140  1  0  0  0
 63 65  1  0  0  0
 63141  1  0  0  0
 63142  1  0  0  0
 63143  1  0  0  0
 64144  1  0  0  0
 65145  1  0  0  0
 68 83  1  0  0  0
 71 72  2  0  0  0
 71 73  1  0  0  0
 71146  1  0  0  0
 72 84  1  0  0  0
 72147  1  0  0  0
 73 74  2  0  0  0
 73 79  1  0  0  0
 74 75  1  0  0  0
 74 85  1  0  0  0
 75 84  2  0  0  0
 75 78  1  0  0  0
 76 77  1  0  0  0
 76 78  1  0  0  0
 76148  1  0  0  0
 76149  1  0  0  0
 77 78  1  0  0  0
 77150  1  0  0  0
 77151  1  0  0  0
 78152  1  0  0  0
 79 80  1  0  0  0
 79153  1  0  0  0
 79154  1  0  0  0
 80 81  1  0  0  0
 80155  1  0  0  0
 80156  1  0  0  0
 81 86  1  0  0  0
 81157  1  0  0  0
 81158  1  0  0  0
 82 83  1  0  0  0
 82 86  1  0  0  0
 82159  1  0  0  0
 82160  1  0  0  0
 83161  1  0  0  0
 83162  1  0  0  0
 85163  1  0  0  0
 86164  1  0  0  0
 86165  1  0  0  0
M  CHG  1  86   1
M  ISO  4   1 100  68 101  83 101  85 100
M  END
> <chiral flag>
0

> <version>
0

> <s_m_source_file>
/data/baiqing/PycharmProjects/Reinvent-master-3.2/result/LINK_invent/BTK/process_docking_weight1_custom_sum_contain_oxygen_bond_distance_aromatic_linkinvent_7_9_3/rearranged_h_0134.sdf

> <i_m_source_file_index>
10

> <r_mmod_Potential_Energy-OPLS-2005>
-95.1610946655273

> <r_mmod_Stretch_Energy-OPLS-2005>
70.0564727783203

> <r_mmod_Bend_Energy-OPLS-2005>
148.221817016602

> <r_mmod_Torsional_Energy-OPLS-2005>
385.183746337891

> <r_mmod_Improper_Torsional_Energy-OPLS-2005>
9.56645011901855

> <r_mmod_Van_der_Waal_Energy-OPLS-2005>
157.665832519531

> <r_mmod_Electrostatic_Energy-OPLS-2005>
-429.610260009766

> <r_mmod_Solvation_Energy-OPLS-2005>
-484.824951171875

> <b_mmod_Minimization_Converged-OPLS-2005>
0

> <r_mmod_RMS_Derivative-OPLS-2005>
0.828626394271851

$$$$
10
                    3D
 Structure written by MMmdl.
159167  0  0  1  0            999 V2000
  -30.7053  -14.3840   20.6741 C   0  0  0  0  0  0
  -30.4270  -12.2967   19.3801 C   0  0  0  0  0  0
  -29.4752  -12.5151   18.1864 C   0  0  0  0  0  0
  -28.0016  -12.3572   18.6086 C   0  0  0  0  0  0
  -27.6619  -13.1763   19.8802 C   0  0  2  0  0  0
  -28.7017  -12.8732   20.9827 C   0  0  0  0  0  0
  -25.2577  -13.8093   20.5582 C   0  0  0  0  0  0
  -24.1809  -13.0438   20.9156 C   0  0  0  0  0  0
  -24.6328  -11.6874   20.8769 C   0  0  0  0  0  0
  -23.9015  -10.4277   21.0450 C   0  0  0  0  0  0
  -24.3590   -9.4201   21.9215 C   0  0  0  0  0  0
  -23.6292   -8.2223   22.0765 C   0  0  0  0  0  0
  -22.4265   -8.0260   21.3567 C   0  0  0  0  0  0
  -21.9902   -9.0228   20.4665 C   0  0  0  0  0  0
  -22.7207  -10.2119   20.3091 C   0  0  0  0  0  0
  -21.6842   -6.0738   22.5276 C   0  0  0  0  0  0
  -21.3995   -6.5644   23.8208 C   0  0  0  0  0  0
  -21.3660   -5.6804   24.9180 C   0  0  0  0  0  0
  -21.6048   -4.3065   24.7225 C   0  0  0  0  0  0
  -21.8829   -3.8155   23.4344 C   0  0  0  0  0  0
  -21.9182   -4.6968   22.3399 C   0  0  0  0  0  0
  -22.7833  -13.5241   21.1840 C   0  0  0  0  0  0
  -22.1658   -4.2159   21.0982 F   0  0  0  0  0  0
  -21.5648   -3.4554   25.7737 F   0  0  0  0  0  0
  -30.0290  -13.2258   20.4515 N   0  0  0  0  0  0
  -26.2993  -12.9207   20.3377 N   0  0  0  0  0  0
  -25.9240  -11.6399   20.5806 N   0  0  0  0  0  0
  -22.0505  -12.8230   22.0406 N   0  0  0  0  0  0
  -25.4397  -15.1799   20.3829 N   0  0  0  0  0  0
  -31.7859  -14.6423   20.1395 O   0  0  0  0  0  0
  -21.6630   -6.8868   21.4234 O   0  0  0  0  0  0
  -22.3519  -14.5539   20.6673 O   0  0  0  0  0  0
  -24.6101  -31.8692   23.2144 C   0  0  0  0  0  0
  -25.9007  -32.4831   23.8419 C   0  0  1  0  0  0
  -27.2433  -27.4852   20.0612 C   0  0  0  0  0  0
  -25.5889  -33.8631   24.2364 N   0  0  0  0  0  0
  -23.3952  -30.4928   21.5567 C   0  0  2  0  0  0
  -24.8389  -28.9577   20.1172 C   0  0  0  0  0  0
  -22.7387  -29.4653   22.5052 C   0  0  0  0  0  0
  -18.0290  -28.1367   22.8500 C   0  0  0  0  0  0
  -24.1487  -36.7334   23.2637 C   0  0  0  0  0  0
  -25.9192  -30.8427   21.3579 C   0  0  0  0  0  0
  -25.9949  -29.4792   20.7103 C   0  0  0  0  0  0
  -27.1983  -28.7474   20.6779 C   0  0  0  0  0  0
  -26.0713  -26.9560   19.4738 C   0  0  0  0  0  0
  -24.8702  -27.6935   19.4997 C   0  0  0  0  0  0
  -23.5989  -29.8225   20.1701 C   0  0  0  0  0  0
  -25.4107  -36.3120   24.0338 C   0  0  1  0  0  0
  -20.5865  -28.3632   23.1408 C   0  0  2  0  0  0
  -20.6779  -26.9363   22.5505 C   0  0  0  0  0  0
  -19.5770  -26.6363   21.5289 C   0  0  0  0  0  0
  -18.1936  -26.7913   22.1676 C   0  0  0  0  0  0
  -19.1527  -28.8824   23.2960 C   0  0  0  0  0  0
  -18.9414  -30.1446   23.8930 C   0  0  0  0  0  0
  -17.6410  -30.6581   24.0518 C   0  0  0  0  0  0
  -25.9027  -34.9479   23.5148 C   0  0  0  0  0  0
  -16.5332  -29.9053   23.6270 C   0  0  0  0  0  0
  -16.7288  -28.6477   23.0331 C   0  0  0  0  0  0
  -26.4469  -31.6592   25.0715 C   0  0  0  0  0  0
  -25.3775  -31.3659   26.1492 C   0  0  0  0  0  0
  -27.0274  -30.3057   24.6000 C   0  0  0  0  0  0
  -27.6046  -32.4315   25.7466 C   0  0  0  0  0  0
  -27.5575  -37.1821   24.8460 C   0  0  0  0  0  0
  -21.4114  -29.3016   22.3818 N   0  0  0  0  0  0
  -26.4300  -37.3799   23.9393 N   0  0  0  0  0  0
  -24.6610  -31.0832   22.1022 N   0  0  0  0  0  0
  -23.4207  -28.8183   23.3048 O   0  0  0  0  0  0
  -28.4408  -26.8122   20.0565 O   0  0  0  0  0  0
  -26.5583  -34.8916   22.4698 O   0  0  0  0  0  0
  -23.5306  -32.1403   23.7586 O   0  0  0  0  0  0
  -27.9735  -20.5111   23.0423 C   0  0  0  0  0  0
  -27.0256  -21.0747   20.8726 C   0  0  0  0  0  0
  -28.1545  -21.8801   23.3179 C   0  0  0  0  0  0
  -27.1919  -22.4464   21.1583 C   0  0  0  0  0  0
  -27.4343  -20.0979   21.8049 C   0  0  0  0  0  0
  -27.7976  -22.8600   22.3681 C   0  0  0  0  0  0
  -27.3044  -18.6260   21.4428 C   0  0  0  0  0  0
  -27.7013  -25.3489   21.8731 C   0  0  0  0  0  0
  -28.9854  -16.0017   21.4384 C   0  0  0  0  0  0
  -28.4170  -25.4629   20.5048 C   0  0  0  0  0  0
  -28.9625  -17.1813   22.4261 C   0  0  0  0  0  0
  -28.0867  -24.1945   22.6804 N   0  0  0  0  0  0
  -30.2143  -15.2144   21.6011 N   0  0  0  0  0  0
  -27.6591  -17.7455   22.5054 O   0  0  0  0  0  0
  -31.4595  -12.4406   19.0560 H   0  0  0  0  0  0
  -30.3720  -11.2635   19.7316 H   0  0  0  0  0  0
  -29.7110  -11.8256   17.3757 H   0  0  0  0  0  0
  -29.6283  -13.5190   17.7878 H   0  0  0  0  0  0
  -27.8196  -11.2976   18.7970 H   0  0  0  0  0  0
  -27.3414  -12.6343   17.7887 H   0  0  0  0  0  0
  -27.7363  -14.2271   19.6038 H   0  0  0  0  0  0
  -28.6778  -11.8077   21.2211 H   0  0  0  0  0  0
  -28.4702  -13.3577   21.9288 H   0  0  0  0  0  0
  -25.2749   -9.5665   22.4773 H   0  0  0  0  0  0
  -24.0028   -7.4604   22.7445 H   0  0  0  0  0  0
  -21.0863   -8.8729   19.8945 H   0  0  0  0  0  0
  -22.3684  -10.9658   19.6179 H   0  0  0  0  0  0
  -21.1981   -7.6150   23.9717 H   0  0  0  0  0  0
  -21.1485   -6.0537   25.9087 H   0  0  0  0  0  0
  -22.0614   -2.7617   23.2839 H   0  0  0  0  0  0
  -22.4113  -11.9813   22.4666 H   0  0  0  0  0  0
  -21.1149  -13.1242   22.2709 H   0  0  0  0  0  0
  -24.6814  -15.8478   20.4666 H   0  0  0  0  0  0
  -26.2848  -15.5947   20.0137 H   0  0  0  0  0  0
  -26.7062  -32.5536   23.1167 H   0  0  0  0  0  0
  -25.0055  -33.9825   25.0520 H   0  0  0  0  0  0
  -22.6827  -31.3098   21.4283 H   0  0  0  0  0  0
  -23.3721  -35.9693   23.3308 H   0  0  0  0  0  0
  -24.3589  -36.8944   22.2052 H   0  0  0  0  0  0
  -23.7283  -37.6559   23.6645 H   0  0  0  0  0  0
  -26.0144  -31.5984   20.5784 H   0  0  0  0  0  0
  -26.8156  -30.9098   21.9635 H   0  0  0  0  0  0
  -28.0943  -29.1399   21.1340 H   0  0  0  0  0  0
  -26.0819  -25.9918   18.9831 H   0  0  0  0  0  0
  -23.9810  -27.2995   19.0260 H   0  0  0  0  0  0
  -23.6928  -30.5976   19.4084 H   0  0  0  0  0  0
  -22.7233  -29.2412   19.8793 H   0  0  0  0  0  0
  -25.1288  -36.1984   25.0839 H   0  0  0  0  0  0
  -20.9952  -28.3225   24.1520 H   0  0  0  0  0  0
  -21.6634  -26.7397   22.1253 H   0  0  0  0  0  0
  -20.5683  -26.2190   23.3659 H   0  0  0  0  0  0
  -19.6925  -25.6290   21.1278 H   0  0  0  0  0  0
  -19.6708  -27.3227   20.6870 H   0  0  0  0  0  0
  -17.4240  -26.6652   21.4049 H   0  0  0  0  0  0
  -18.0247  -26.0078   22.9085 H   0  0  0  0  0  0
  -19.7869  -30.7269   24.2345 H   0  0  0  0  0  0
  -17.4940  -31.6273   24.5062 H   0  0  0  0  0  0
  -15.5309  -30.2920   23.7561 H   0  0  0  0  0  0
  -15.8723  -28.0773   22.7020 H   0  0  0  0  0  0
  -24.5925  -30.7035   25.7829 H   0  0  0  0  0  0
  -24.8997  -32.2805   26.5012 H   0  0  0  0  0  0
  -25.8171  -30.8775   27.0196 H   0  0  0  0  0  0
  -26.2757  -29.6837   24.1131 H   0  0  0  0  0  0
  -27.4167  -29.7268   25.4379 H   0  0  0  0  0  0
  -27.8540  -30.4408   23.9023 H   0  0  0  0  0  0
  -27.2642  -33.3575   26.2107 H   0  0  0  0  0  0
  -28.3808  -32.6947   25.0270 H   0  0  0  0  0  0
  -28.0751  -31.8405   26.5336 H   0  0  0  0  0  0
  -28.2603  -38.0103   24.7484 H   0  0  0  0  0  0
  -28.1058  -36.2639   24.6306 H   0  0  0  0  0  0
  -27.2290  -37.1499   25.8863 H   0  0  0  0  0  0
  -20.9225  -29.8710   21.7042 H   0  0  0  0  0  0
  -26.0173  -38.2865   24.1402 H   0  0  0  0  0  0
  -28.2725  -19.7864   23.7878 H   0  0  0  0  0  0
  -26.5910  -20.7618   19.9321 H   0  0  0  0  0  0
  -28.5827  -22.1733   24.2670 H   0  0  0  0  0  0
  -26.8654  -23.1643   20.4235 H   0  0  0  0  0  0
  -27.8779  -18.4330   20.5344 H   0  0  0  0  0  0
  -26.2600  -18.4357   21.1918 H   0  0  0  0  0  0
  -26.6151  -25.4102   21.7715 H   0  0  0  0  0  0
  -27.9918  -26.2178   22.4639 H   0  0  0  0  0  0
  -28.1017  -15.4025   21.6459 H   0  0  0  0  0  0
  -28.8923  -16.3527   20.4078 H   0  0  0  0  0  0
  -27.9650  -24.8332   19.7455 H   0  0  0  0  0  0
  -29.4561  -25.1432   20.5996 H   0  0  0  0  0  0
  -29.1971  -16.8063   23.4232 H   0  0  0  0  0  0
  -29.7149  -17.9350   22.1890 H   0  0  0  0  0  0
  -28.5725  -24.3972   23.5503 H   0  0  0  0  0  0
  -30.9504  -15.7834   21.9943 H   0  0  0  0  0  0
  1 25  1  0  0  0
  1 30  2  0  0  0
  1 83  1  0  0  0
  2  3  1  0  0  0
  2 25  1  0  0  0
  2 85  1  0  0  0
  2 86  1  0  0  0
  3  4  1  0  0  0
  3 87  1  0  0  0
  3 88  1  0  0  0
  4  5  1  0  0  0
  4 89  1  0  0  0
  4 90  1  0  0  0
  5  6  1  0  0  0
  5 26  1  0  0  0
  5 91  1  0  0  0
  6 25  1  0  0  0
  6 92  1  0  0  0
  6 93  1  0  0  0
  7  8  2  0  0  0
  7 26  1  0  0  0
  7 29  1  0  0  0
  8  9  1  0  0  0
  8 22  1  0  0  0
  9 10  1  0  0  0
  9 27  2  0  0  0
 10 11  2  0  0  0
 10 15  1  0  0  0
 11 12  1  0  0  0
 11 94  1  0  0  0
 12 13  2  0  0  0
 12 95  1  0  0  0
 13 14  1  0  0  0
 13 31  1  0  0  0
 14 15  2  0  0  0
 14 96  1  0  0  0
 15 97  1  0  0  0
 16 17  2  0  0  0
 16 21  1  0  0  0
 16 31  1  0  0  0
 17 18  1  0  0  0
 17 98  1  0  0  0
 18 19  2  0  0  0
 18 99  1  0  0  0
 19 20  1  0  0  0
 19 24  1  0  0  0
 20 21  2  0  0  0
 20100  1  0  0  0
 21 23  1  0  0  0
 22 28  1  0  0  0
 22 32  2  0  0  0
 26 27  1  0  0  0
 28101  1  0  0  0
 28102  1  0  0  0
 29103  1  0  0  0
 29104  1  0  0  0
 33 34  1  0  0  0
 33 66  1  0  0  0
 33 70  2  0  0  0
 34 36  1  0  0  0
 34 59  1  0  0  0
 34105  1  0  0  0
 35 44  2  0  0  0
 35 45  1  0  0  0
 35 68  1  0  0  0
 36 56  1  0  0  0
 36106  1  0  0  0
 37 39  1  0  0  0
 37 47  1  0  0  0
 37 66  1  0  0  0
 37107  1  0  0  0
 38 43  2  0  0  0
 38 46  1  0  0  0
 38 47  1  0  0  0
 39 64  1  0  0  0
 39 67  2  0  0  0
 40 52  1  0  0  0
 40 53  2  0  0  0
 40 58  1  0  0  0
 41108  1  0  0  0
 41109  1  0  0  0
 41110  1  0  0  0
 41 48  1  0  0  0
 42 43  1  0  0  0
 42 66  1  0  0  0
 42111  1  0  0  0
 42112  1  0  0  0
 43 44  1  0  0  0
 44113  1  0  0  0
 45 46  2  0  0  0
 45114  1  0  0  0
 46115  1  0  0  0
 47116  1  0  0  0
 47117  1  0  0  0
 48 56  1  0  0  0
 48 65  1  0  0  0
 48118  1  0  0  0
 49 50  1  0  0  0
 49 53  1  0  0  0
 49 64  1  0  0  0
 49119  1  0  0  0
 50 51  1  0  0  0
 50120  1  0  0  0
 50121  1  0  0  0
 51 52  1  0  0  0
 51122  1  0  0  0
 51123  1  0  0  0
 52124  1  0  0  0
 52125  1  0  0  0
 53 54  1  0  0  0
 54 55  2  0  0  0
 54126  1  0  0  0
 55 57  1  0  0  0
 55127  1  0  0  0
 56 69  2  0  0  0
 57 58  2  0  0  0
 57128  1  0  0  0
 58129  1  0  0  0
 59 60  1  0  0  0
 59 61  1  0  0  0
 59 62  1  0  0  0
 60130  1  0  0  0
 60131  1  0  0  0
 60132  1  0  0  0
 61133  1  0  0  0
 61134  1  0  0  0
 61135  1  0  0  0
 62136  1  0  0  0
 62137  1  0  0  0
 62138  1  0  0  0
 63 65  1  0  0  0
 63139  1  0  0  0
 63140  1  0  0  0
 63141  1  0  0  0
 64142  1  0  0  0
 65143  1  0  0  0
 68 80  1  0  0  0
 71 73  2  0  0  0
 71 75  1  0  0  0
 71144  1  0  0  0
 72 74  1  0  0  0
 72 75  2  0  0  0
 72145  1  0  0  0
 73 76  1  0  0  0
 73146  1  0  0  0
 74 76  2  0  0  0
 74147  1  0  0  0
 75 77  1  0  0  0
 76 82  1  0  0  0
 77 84  1  0  0  0
 77148  1  0  0  0
 77149  1  0  0  0
 78 80  1  0  0  0
 78 82  1  0  0  0
 78150  1  0  0  0
 78151  1  0  0  0
 79 81  1  0  0  0
 79 83  1  0  0  0
 79152  1  0  0  0
 79153  1  0  0  0
 80154  1  0  0  0
 80155  1  0  0  0
 81 84  1  0  0  0
 81156  1  0  0  0
 81157  1  0  0  0
 82158  1  0  0  0
 83159  1  0  0  0
M  ISO  4   1 100  68 101  80 101  83 100
M  END
> <chiral flag>
0

> <version>
0

> <s_m_source_file>
/data/baiqing/PycharmProjects/Reinvent-master-3.2/result/LINK_invent/BTK/process_docking_weight1_custom_sum_contain_oxygen_bond_distance_aromatic_linkinvent_7_9_3/rearranged_h_0134.sdf

> <i_m_source_file_index>
11

> <r_mmod_Potential_Energy-OPLS-2005>
-55.9092750549316

> <r_mmod_Stretch_Energy-OPLS-2005>
32.2341461181641

> <r_mmod_Bend_Energy-OPLS-2005>
120.821624755859

> <r_mmod_Torsional_Energy-OPLS-2005>
263.130462646484

> <r_mmod_Improper_Torsional_Energy-OPLS-2005>
6.92071342468262

> <r_mmod_Van_der_Waal_Energy-OPLS-2005>
155.924880981445

> <r_mmod_Electrostatic_Energy-OPLS-2005>
-423.467559814453

> <r_mmod_Solvation_Energy-OPLS-2005>
-221.382217407227

> <b_mmod_Minimization_Converged-OPLS-2005>
0

> <r_mmod_RMS_Derivative-OPLS-2005>
4.76611185073853

$$$$
11
                    3D
 Structure written by MMmdl.
160168  0  0  1  0            999 V2000
  -30.6942  -14.4724   20.5206 C   0  0  0  0  0  0
  -30.4228  -12.2884   19.4318 C   0  0  0  0  0  0
  -29.4980  -12.4920   18.2129 C   0  0  0  0  0  0
  -28.0182  -12.3569   18.6230 C   0  0  0  0  0  0
  -27.6631  -13.2033   19.8750 C   0  0  2  0  0  0
  -28.7066  -12.9963   20.9996 C   0  0  0  0  0  0
  -25.2611  -13.8152   20.5688 C   0  0  0  0  0  0
  -24.1857  -13.0434   20.9180 C   0  0  0  0  0  0
  -24.6400  -11.6898   20.8735 C   0  0  0  0  0  0
  -23.9060  -10.4288   21.0402 C   0  0  0  0  0  0
  -24.3614   -9.4207   21.9184 C   0  0  0  0  0  0
  -23.6289   -8.2243   22.0756 C   0  0  0  0  0  0
  -22.4275   -8.0278   21.3539 C   0  0  0  0  0  0
  -21.9904   -9.0250   20.4643 C   0  0  0  0  0  0
  -22.7230  -10.2130   20.3055 C   0  0  0  0  0  0
  -21.6853   -6.0733   22.5279 C   0  0  0  0  0  0
  -21.4011   -6.5636   23.8210 C   0  0  0  0  0  0
  -21.3662   -5.6792   24.9176 C   0  0  0  0  0  0
  -21.6051   -4.3055   24.7230 C   0  0  0  0  0  0
  -21.8820   -3.8147   23.4352 C   0  0  0  0  0  0
  -21.9194   -4.6959   22.3407 C   0  0  0  0  0  0
  -22.7880  -13.5236   21.1842 C   0  0  0  0  0  0
  -22.1665   -4.2145   21.0982 F   0  0  0  0  0  0
  -21.5626   -3.4541   25.7745 F   0  0  0  0  0  0
  -30.0409  -13.2826   20.4459 N   0  0  0  0  0  0
  -26.3040  -12.9312   20.3374 N   0  0  0  0  0  0
  -25.9329  -11.6473   20.5778 N   0  0  0  0  0  0
  -22.0520  -12.8227   22.0396 N   0  0  0  0  0  0
  -25.4352  -15.1869   20.4094 N   0  0  0  0  0  0
  -31.8383  -14.6457   20.0953 O   0  0  0  0  0  0
  -21.6638   -6.8874   21.4241 O   0  0  0  0  0  0
  -22.3571  -14.5545   20.6686 O   0  0  0  0  0  0
  -24.6146  -31.8691   23.2121 C   0  0  0  0  0  0
  -25.9043  -32.4824   23.8406 C   0  0  1  0  0  0
  -27.2283  -27.4301   20.0925 C   0  0  0  0  0  0
  -25.5907  -33.8622   24.2338 N   0  0  0  0  0  0
  -23.4027  -30.4960   21.5530 C   0  0  2  0  0  0
  -24.8487  -28.9718   20.1083 C   0  0  0  0  0  0
  -22.7405  -29.4673   22.4983 C   0  0  0  0  0  0
  -18.0267  -28.1382   22.8487 C   0  0  0  0  0  0
  -24.1494  -36.7315   23.2637 C   0  0  0  0  0  0
  -25.9341  -30.8338   21.3685 C   0  0  0  0  0  0
  -26.0115  -29.4719   20.7085 C   0  0  0  0  0  0
  -27.2056  -28.7102   20.6961 C   0  0  0  0  0  0
  -26.0485  -26.9655   19.4623 C   0  0  0  0  0  0
  -24.8635  -27.7178   19.4805 C   0  0  0  0  0  0
  -23.6102  -29.8354   20.1654 C   0  0  0  0  0  0
  -25.4111  -36.3108   24.0338 C   0  0  1  0  0  0
  -20.5858  -28.3666   23.1313 C   0  0  2  0  0  0
  -20.6763  -26.9404   22.5414 C   0  0  0  0  0  0
  -19.5744  -26.6384   21.5211 C   0  0  0  0  0  0
  -18.1917  -26.7925   22.1614 C   0  0  0  0  0  0
  -19.1517  -28.8836   23.2900 C   0  0  0  0  0  0
  -18.9449  -30.1442   23.8913 C   0  0  0  0  0  0
  -17.6456  -30.6590   24.0563 C   0  0  0  0  0  0
  -25.9035  -34.9475   23.5131 C   0  0  0  0  0  0
  -16.5344  -29.9096   23.6331 C   0  0  0  0  0  0
  -16.7256  -28.6511   23.0348 C   0  0  0  0  0  0
  -26.4470  -31.6596   25.0736 C   0  0  0  0  0  0
  -25.3736  -31.3703   26.1485 C   0  0  0  0  0  0
  -27.0303  -30.3034   24.6120 C   0  0  0  0  0  0
  -27.6055  -32.4303   25.7491 C   0  0  0  0  0  0
  -27.5581  -37.1808   24.8462 C   0  0  0  0  0  0
  -21.4130  -29.3043   22.3724 N   0  0  0  0  0  0
  -26.4295  -37.3792   23.9408 N   0  0  0  0  0  0
  -24.6689  -31.0795   22.1026 N   0  0  0  0  0  0
  -23.4179  -28.8210   23.3022 O   0  0  0  0  0  0
  -28.3679  -26.6422   20.1504 O   0  0  0  0  0  0
  -26.5591  -34.8922   22.4690 O   0  0  0  0  0  0
  -23.5335  -32.1450   23.7507 O   0  0  0  0  0  0
  -30.1159  -23.7237   21.2497 C   0  0  0  0  0  0
  -29.4147  -23.5087   18.9023 C   0  0  0  0  0  0
  -28.9464  -24.6696   21.5922 C   0  0  0  0  0  0
  -28.1644  -24.3830   19.0983 C   0  0  0  0  0  0
  -29.7168  -22.6979   20.1735 C   0  0  1  0  0  0
  -28.1328  -25.2348   20.3962 C   0  0  2  0  0  0
  -30.7759  -21.5881   19.9498 C   0  0  0  0  0  0
  -30.0232  -16.8339   20.1581 C   0  0  0  0  0  0
  -30.7237  -20.4076   20.9569 C   0  0  0  0  0  0
  -30.4162  -18.0141   21.0703 C   0  0  0  0  0  0
  -29.9130  -15.5223   20.8187 N   0  0  0  0  0  0
  -30.3733  -19.2023   20.2749 O   0  0  0  0  0  0
  -31.4685  -12.3769   19.1317 H   0  0  0  0  0  0
  -30.3133  -11.2798   19.8328 H   0  0  0  0  0  0
  -29.7350  -11.7664   17.4340 H   0  0  0  0  0  0
  -29.6708  -13.4775   17.7771 H   0  0  0  0  0  0
  -27.8266  -11.3017   18.8225 H   0  0  0  0  0  0
  -27.3715  -12.6293   17.7880 H   0  0  0  0  0  0
  -27.7023  -14.2478   19.5672 H   0  0  0  0  0  0
  -28.6750  -11.9683   21.3629 H   0  0  0  0  0  0
  -28.4806  -13.6223   21.8644 H   0  0  0  0  0  0
  -25.2757   -9.5677   22.4756 H   0  0  0  0  0  0
  -23.9997   -7.4636   22.7474 H   0  0  0  0  0  0
  -21.0839   -8.8761   19.8947 H   0  0  0  0  0  0
  -22.3687  -10.9667   19.6164 H   0  0  0  0  0  0
  -21.1996   -7.6143   23.9711 H   0  0  0  0  0  0
  -21.1484   -6.0525   25.9076 H   0  0  0  0  0  0
  -22.0597   -2.7608   23.2859 H   0  0  0  0  0  0
  -22.4135  -11.9881   22.4765 H   0  0  0  0  0  0
  -21.1141  -13.1258   22.2601 H   0  0  0  0  0  0
  -24.6690  -15.8444   20.5138 H   0  0  0  0  0  0
  -26.2882  -15.6239   20.0839 H   0  0  0  0  0  0
  -26.7116  -32.5539   23.1169 H   0  0  0  0  0  0
  -25.0070  -33.9793   25.0489 H   0  0  0  0  0  0
  -22.6906  -31.3128   21.4167 H   0  0  0  0  0  0
  -23.3751  -35.9654   23.3304 H   0  0  0  0  0  0
  -24.3588  -36.8922   22.2050 H   0  0  0  0  0  0
  -23.7254  -37.6526   23.6644 H   0  0  0  0  0  0
  -26.0523  -31.6035   20.6046 H   0  0  0  0  0  0
  -26.8192  -30.8800   21.9912 H   0  0  0  0  0  0
  -28.0978  -29.0874   21.1753 H   0  0  0  0  0  0
  -26.0215  -26.0081   18.9628 H   0  0  0  0  0  0
  -23.9723  -27.3294   19.0066 H   0  0  0  0  0  0
  -23.7140  -30.6138   19.4091 H   0  0  0  0  0  0
  -22.7341  -29.2557   19.8698 H   0  0  0  0  0  0
  -25.1287  -36.1970   25.0831 H   0  0  0  0  0  0
  -20.9941  -28.3234   24.1438 H   0  0  0  0  0  0
  -20.5666  -26.2276   23.3604 H   0  0  0  0  0  0
  -21.6634  -26.7455   22.1206 H   0  0  0  0  0  0
  -19.6917  -25.6299   21.1236 H   0  0  0  0  0  0
  -19.6692  -27.3197   20.6744 H   0  0  0  0  0  0
  -17.4190  -26.6660   21.4019 H   0  0  0  0  0  0
  -18.0325  -26.0067   22.9008 H   0  0  0  0  0  0
  -19.7930  -30.7244   24.2289 H   0  0  0  0  0  0
  -17.5023  -31.6277   24.5155 H   0  0  0  0  0  0
  -15.5349  -30.3009   23.7668 H   0  0  0  0  0  0
  -15.8643  -28.0849   22.7059 H   0  0  0  0  0  0
  -24.5917  -30.7036   25.7830 H   0  0  0  0  0  0
  -24.8918  -32.2861   26.4924 H   0  0  0  0  0  0
  -25.8094  -30.8886   27.0246 H   0  0  0  0  0  0
  -26.2860  -29.6794   24.1160 H   0  0  0  0  0  0
  -27.4056  -29.7267   25.4582 H   0  0  0  0  0  0
  -27.8700  -30.4351   23.9292 H   0  0  0  0  0  0
  -27.2687  -33.3590   26.2106 H   0  0  0  0  0  0
  -28.3846  -32.6871   25.0305 H   0  0  0  0  0  0
  -28.0741  -31.8398   26.5373 H   0  0  0  0  0  0
  -28.2599  -38.0104   24.7505 H   0  0  0  0  0  0
  -28.1076  -36.2634   24.6288 H   0  0  0  0  0  0
  -27.2297  -37.1458   25.8865 H   0  0  0  0  0  0
  -20.9278  -29.8776   21.6965 H   0  0  0  0  0  0
  -26.0184  -38.2873   24.1399 H   0  0  0  0  0  0
  -30.4419  -23.2145   22.1574 H   0  0  0  0  0  0
  -30.9726  -24.3086   20.9096 H   0  0  0  0  0  0
  -30.2692  -24.1310   18.6319 H   0  0  0  0  0  0
  -29.2463  -22.8395   18.0578 H   0  0  0  0  0  0
  -29.2915  -25.4834   22.2311 H   0  0  0  0  0  0
  -28.2604  -24.0943   22.2166 H   0  0  0  0  0  0
  -27.3012  -23.7145   19.1136 H   0  0  0  0  0  0
  -28.0193  -25.0186   18.2233 H   0  0  0  0  0  0
  -28.7928  -22.2007   20.4748 H   0  0  0  0  0  0
  -27.1146  -25.1358   20.7770 H   0  0  0  0  0  0
  -31.7732  -22.0308   19.9572 H   0  0  0  0  0  0
  -30.6592  -21.1795   18.9450 H   0  0  0  0  0  0
  -30.7163  -16.7910   19.3150 H   0  0  0  0  0  0
  -29.0495  -17.0460   19.7155 H   0  0  0  0  0  0
  -30.0093  -20.6039   21.7580 H   0  0  0  0  0  0
  -31.7007  -20.2886   21.4278 H   0  0  0  0  0  0
  -31.4185  -17.8656   21.4744 H   0  0  0  0  0  0
  -29.7243  -18.0997   21.9092 H   0  0  0  0  0  0
  -29.0048  -15.2900   21.1923 H   0  0  0  0  0  0
  1 25  1  0  0  0
  1 30  2  0  0  0
  1 81  1  0  0  0
  2  3  1  0  0  0
  2 25  1  0  0  0
  2 83  1  0  0  0
  2 84  1  0  0  0
  3  4  1  0  0  0
  3 85  1  0  0  0
  3 86  1  0  0  0
  4  5  1  0  0  0
  4 87  1  0  0  0
  4 88  1  0  0  0
  5  6  1  0  0  0
  5 26  1  0  0  0
  5 89  1  0  0  0
  6 25  1  0  0  0
  6 90  1  0  0  0
  6 91  1  0  0  0
  7  8  2  0  0  0
  7 26  1  0  0  0
  7 29  1  0  0  0
  8  9  1  0  0  0
  8 22  1  0  0  0
  9 10  1  0  0  0
  9 27  2  0  0  0
 10 11  2  0  0  0
 10 15  1  0  0  0
 11 12  1  0  0  0
 11 92  1  0  0  0
 12 13  2  0  0  0
 12 93  1  0  0  0
 13 14  1  0  0  0
 13 31  1  0  0  0
 14 15  2  0  0  0
 14 94  1  0  0  0
 15 95  1  0  0  0
 16 17  2  0  0  0
 16 21  1  0  0  0
 16 31  1  0  0  0
 17 18  1  0  0  0
 17 96  1  0  0  0
 18 19  2  0  0  0
 18 97  1  0  0  0
 19 20  1  0  0  0
 19 24  1  0  0  0
 20 21  2  0  0  0
 20 98  1  0  0  0
 21 23  1  0  0  0
 22 28  1  0  0  0
 22 32  2  0  0  0
 26 27  1  0  0  0
 28 99  1  0  0  0
 28100  1  0  0  0
 29101  1  0  0  0
 29102  1  0  0  0
 33 34  1  0  0  0
 33 66  1  0  0  0
 33 70  2  0  0  0
 34 36  1  0  0  0
 34 59  1  0  0  0
 34103  1  0  0  0
 35 44  2  0  0  0
 35 45  1  0  0  0
 35 68  1  0  0  0
 36 56  1  0  0  0
 36104  1  0  0  0
 37 39  1  0  0  0
 37 47  1  0  0  0
 37 66  1  0  0  0
 37105  1  0  0  0
 38 43  2  0  0  0
 38 46  1  0  0  0
 38 47  1  0  0  0
 39 64  1  0  0  0
 39 67  2  0  0  0
 40 52  1  0  0  0
 40 53  2  0  0  0
 40 58  1  0  0  0
 41106  1  0  0  0
 41107  1  0  0  0
 41108  1  0  0  0
 41 48  1  0  0  0
 42 43  1  0  0  0
 42 66  1  0  0  0
 42109  1  0  0  0
 42110  1  0  0  0
 43 44  1  0  0  0
 44111  1  0  0  0
 45 46  2  0  0  0
 45112  1  0  0  0
 46113  1  0  0  0
 47114  1  0  0  0
 47115  1  0  0  0
 48 56  1  0  0  0
 48 65  1  0  0  0
 48116  1  0  0  0
 49 50  1  0  0  0
 49 53  1  0  0  0
 49 64  1  0  0  0
 49117  1  0  0  0
 50 51  1  0  0  0
 50118  1  0  0  0
 50119  1  0  0  0
 51 52  1  0  0  0
 51120  1  0  0  0
 51121  1  0  0  0
 52122  1  0  0  0
 52123  1  0  0  0
 53 54  1  0  0  0
 54 55  2  0  0  0
 54124  1  0  0  0
 55 57  1  0  0  0
 55125  1  0  0  0
 56 69  2  0  0  0
 57 58  2  0  0  0
 57126  1  0  0  0
 58127  1  0  0  0
 59 60  1  0  0  0
 59 61  1  0  0  0
 59 62  1  0  0  0
 60128  1  0  0  0
 60129  1  0  0  0
 60130  1  0  0  0
 61131  1  0  0  0
 61132  1  0  0  0
 61133  1  0  0  0
 62134  1  0  0  0
 62135  1  0  0  0
 62136  1  0  0  0
 63 65  1  0  0  0
 63137  1  0  0  0
 63138  1  0  0  0
 63139  1  0  0  0
 64140  1  0  0  0
 65141  1  0  0  0
 68 76  1  0  0  0
 71 73  1  0  0  0
 71 75  1  0  0  0
 71142  1  0  0  0
 71143  1  0  0  0
 72 74  1  0  0  0
 72 75  1  0  0  0
 72144  1  0  0  0
 72145  1  0  0  0
 73 76  1  0  0  0
 73146  1  0  0  0
 73147  1  0  0  0
 74 76  1  0  0  0
 74148  1  0  0  0
 74149  1  0  0  0
 75 77  1  0  0  0
 75150  1  0  0  0
 76151  1  0  0  0
 77 79  1  0  0  0
 77152  1  0  0  0
 77153  1  0  0  0
 78 80  1  0  0  0
 78 81  1  0  0  0
 78154  1  0  0  0
 78155  1  0  0  0
 79 82  1  0  0  0
 79156  1  0  0  0
 79157  1  0  0  0
 80 82  1  0  0  0
 80158  1  0  0  0
 80159  1  0  0  0
 81160  1  0  0  0
M  ISO  4   1 100  68 101  76 101  81 100
M  END
> <chiral flag>
0

> <version>
0

> <s_m_source_file>
/data/baiqing/PycharmProjects/Reinvent-master-3.2/result/LINK_invent/BTK/process_docking_weight1_custom_sum_contain_oxygen_bond_distance_aromatic_linkinvent_7_9_3/rearranged_h_0134.sdf

> <i_m_source_file_index>
12

> <r_mmod_Potential_Energy-OPLS-2005>
-24.8770351409912

> <r_mmod_Stretch_Energy-OPLS-2005>
37.1810302734375

> <r_mmod_Bend_Energy-OPLS-2005>
106.200332641602

> <r_mmod_Torsional_Energy-OPLS-2005>
277.562286376953

> <r_mmod_Improper_Torsional_Energy-OPLS-2005>
8.73283100128174

> <r_mmod_Van_der_Waal_Energy-OPLS-2005>
145.580505371094

> <r_mmod_Electrostatic_Energy-OPLS-2005>
-411.796142578125

> <r_mmod_Solvation_Energy-OPLS-2005>
-204.845504760742

> <b_mmod_Minimization_Converged-OPLS-2005>
0

> <r_mmod_RMS_Derivative-OPLS-2005>
1.28022861480713

$$$$
12
                    3D
 Structure written by MMmdl.
159168  0  0  1  0            999 V2000
  -30.5633  -14.8563   20.4392 C   0  0  0  0  0  0
  -30.4330  -12.5236   19.4889 C   0  0  0  0  0  0
  -29.5153  -12.5203   18.2459 C   0  0  0  0  0  0
  -28.0446  -12.3189   18.6590 C   0  0  0  0  0  0
  -27.6309  -13.2376   19.8394 C   0  0  2  0  0  0
  -28.6734  -13.2261   20.9776 C   0  0  0  0  0  0
  -25.2473  -13.8192   20.5675 C   0  0  0  0  0  0
  -24.1782  -13.0440   20.9212 C   0  0  0  0  0  0
  -24.6370  -11.6916   20.8745 C   0  0  0  0  0  0
  -23.9052  -10.4294   21.0422 C   0  0  0  0  0  0
  -24.3590   -9.4226   21.9219 C   0  0  0  0  0  0
  -23.6282   -8.2253   22.0775 C   0  0  0  0  0  0
  -22.4278   -8.0276   21.3543 C   0  0  0  0  0  0
  -21.9921   -9.0246   20.4642 C   0  0  0  0  0  0
  -22.7241  -10.2127   20.3050 C   0  0  0  0  0  0
  -21.6859   -6.0725   22.5274 C   0  0  0  0  0  0
  -21.4027   -6.5634   23.8207 C   0  0  0  0  0  0
  -21.3670   -5.6791   24.9170 C   0  0  0  0  0  0
  -21.6053   -4.3053   24.7223 C   0  0  0  0  0  0
  -21.8830   -3.8136   23.4345 C   0  0  0  0  0  0
  -21.9199   -4.6953   22.3399 C   0  0  0  0  0  0
  -22.7814  -13.5233   21.1902 C   0  0  0  0  0  0
  -22.1669   -4.2146   21.0977 F   0  0  0  0  0  0
  -21.5632   -3.4540   25.7738 F   0  0  0  0  0  0
  -29.9614  -13.6091   20.3845 N   0  0  0  0  0  0
  -26.2877  -12.9395   20.3219 N   0  0  0  0  0  0
  -25.9296  -11.6531   20.5722 N   0  0  0  0  0  0
  -22.0489  -12.8224   22.0472 N   0  0  0  0  0  0
  -25.4185  -15.1902   20.4028 N   0  0  0  0  0  0
  -31.7681  -14.9461   20.1860 O   0  0  0  0  0  0
  -21.6650   -6.8863   21.4233 O   0  0  0  0  0  0
  -22.3480  -14.5525   20.6728 O   0  0  0  0  0  0
  -24.6395  -31.8485   23.1943 C   0  0  0  0  0  0
  -25.9181  -32.4715   23.8313 C   0  0  1  0  0  0
  -27.2080  -27.1798   20.1284 C   0  0  0  0  0  0
  -25.5935  -33.8519   24.2221 N   0  0  0  0  0  0
  -23.4409  -30.4728   21.5403 C   0  0  2  0  0  0
  -24.8890  -28.9159   20.1096 C   0  0  0  0  0  0
  -22.7551  -29.4573   22.4882 C   0  0  0  0  0  0
  -18.0302  -28.1389   22.8475 C   0  0  0  0  0  0
  -24.1513  -36.7287   23.2639 C   0  0  0  0  0  0
  -25.9974  -30.7328   21.3927 C   0  0  0  0  0  0
  -26.0670  -29.3507   20.7310 C   0  0  0  0  0  0
  -27.2299  -28.4951   20.7332 C   0  0  0  0  0  0
  -26.0147  -26.8616   19.4412 C   0  0  0  0  0  0
  -24.8724  -27.6805   19.4530 C   0  0  0  0  0  0
  -23.6641  -29.8107   20.1577 C   0  0  0  0  0  0
  -25.4137  -36.3048   24.0317 C   0  0  1  0  0  0
  -20.5910  -28.3708   23.1246 C   0  0  2  0  0  0
  -20.6794  -26.9418   22.5407 C   0  0  0  0  0  0
  -19.5768  -26.6378   21.5215 C   0  0  0  0  0  0
  -18.1946  -26.7926   22.1626 C   0  0  0  0  0  0
  -19.1553  -28.8865   23.2854 C   0  0  0  0  0  0
  -18.9471  -30.1463   23.8882 C   0  0  0  0  0  0
  -17.6465  -30.6582   24.0559 C   0  0  0  0  0  0
  -25.9073  -34.9417   23.5078 C   0  0  0  0  0  0
  -16.5360  -29.9077   23.6330 C   0  0  0  0  0  0
  -16.7286  -28.6497   23.0348 C   0  0  0  0  0  0
  -26.4514  -31.6557   25.0732 C   0  0  0  0  0  0
  -25.3704  -31.3727   26.1430 C   0  0  0  0  0  0
  -27.0367  -30.2952   24.6284 C   0  0  0  0  0  0
  -27.6060  -32.4313   25.7496 C   0  0  0  0  0  0
  -27.5595  -37.1806   24.8460 C   0  0  0  0  0  0
  -21.4247  -29.3043   22.3628 N   0  0  0  0  0  0
  -26.4314  -37.3750   23.9386 N   0  0  0  0  0  0
  -24.7120  -31.0379   22.0972 N   0  0  0  0  0  0
  -23.4218  -28.8104   23.2999 O   0  0  0  0  0  0
  -28.2339  -26.1756   20.1771 O   0  0  0  0  0  0
  -26.5669  -34.8902   22.4669 O   0  0  0  0  0  0
  -23.5518  -32.1350   23.7178 O   0  0  0  0  0  0
  -29.1690  -22.7066   19.2960 C   0  0  0  0  0  0
  -29.4790  -21.2887   19.2057 C   0  0  0  0  0  0
  -28.2741  -22.3278   21.4492 C   0  0  0  0  0  0
  -28.5233  -23.3018   20.4266 C   0  0  0  0  0  0
  -29.1606  -20.3054   20.2101 C   0  0  0  0  0  0
  -28.5485  -20.9108   21.3537 C   0  0  0  0  0  0
  -26.0696  -18.5574   21.9780 C   0  0  0  0  0  0
  -25.9346  -19.1161   23.3755 C   0  0  0  0  0  0
  -26.6386  -19.9150   22.3081 C   0  0  0  0  0  0
  -29.2319  -18.6917   19.9268 C   0  0  0  0  0  0
  -27.7668  -24.7481   20.5110 C   0  0  0  0  0  0
  -30.0487  -17.5290   20.7697 C   0  0  0  0  0  0
  -28.0840  -20.0905   22.3854 N   0  0  0  0  0  0
  -29.7614  -16.0026   20.5853 N   0  0  0  0  0  0
  -31.4723  -12.6637   19.1911 H   0  0  0  0  0  0
  -30.3926  -11.5614   20.0021 H   0  0  0  0  0  0
  -29.8183  -11.7376   17.5494 H   0  0  0  0  0  0
  -29.6185  -13.4651   17.7106 H   0  0  0  0  0  0
  -27.9244  -11.2732   18.9442 H   0  0  0  0  0  0
  -27.3844  -12.4778   17.8053 H   0  0  0  0  0  0
  -27.6070  -14.2485   19.4302 H   0  0  0  0  0  0
  -28.7308  -12.2423   21.4450 H   0  0  0  0  0  0
  -28.3855  -13.9239   21.7659 H   0  0  0  0  0  0
  -25.2705   -9.5743   22.4829 H   0  0  0  0  0  0
  -23.9996   -7.4650   22.7509 H   0  0  0  0  0  0
  -21.0873   -8.8735   19.8929 H   0  0  0  0  0  0
  -22.3689  -10.9669   19.6162 H   0  0  0  0  0  0
  -21.2019   -7.6146   23.9704 H   0  0  0  0  0  0
  -21.1481   -6.0522   25.9073 H   0  0  0  0  0  0
  -22.0594   -2.7601   23.2838 H   0  0  0  0  0  0
  -22.4089  -11.9840   22.4801 H   0  0  0  0  0  0
  -21.1150  -13.1304   22.2805 H   0  0  0  0  0  0
  -24.6453  -15.8412   20.4842 H   0  0  0  0  0  0
  -26.2580  -15.6171   20.0350 H   0  0  0  0  0  0
  -26.7250  -32.5337   23.1050 H   0  0  0  0  0  0
  -24.9998  -33.9638   25.0306 H   0  0  0  0  0  0
  -22.7423  -31.2986   21.3913 H   0  0  0  0  0  0
  -23.3759  -35.9635   23.3284 H   0  0  0  0  0  0
  -24.3618  -36.8934   22.2060 H   0  0  0  0  0  0
  -23.7293  -37.6493   23.6684 H   0  0  0  0  0  0
  -26.1531  -31.4900   20.6225 H   0  0  0  0  0  0
  -26.8698  -30.7789   22.0332 H   0  0  0  0  0  0
  -28.1233  -28.8170   21.2500 H   0  0  0  0  0  0
  -25.9255  -25.9462   18.8786 H   0  0  0  0  0  0
  -23.9790  -27.3486   18.9418 H   0  0  0  0  0  0
  -23.7963  -30.5881   19.4049 H   0  0  0  0  0  0
  -22.7807  -29.2496   19.8471 H   0  0  0  0  0  0
  -25.1327  -36.1892   25.0812 H   0  0  0  0  0  0
  -21.0003  -28.3294   24.1367 H   0  0  0  0  0  0
  -20.5685  -26.2320   23.3620 H   0  0  0  0  0  0
  -21.6660  -26.7430   22.1206 H   0  0  0  0  0  0
  -19.6933  -25.6284   21.1250 H   0  0  0  0  0  0
  -19.6708  -27.3183   20.6738 H   0  0  0  0  0  0
  -17.4217  -26.6655   21.4034 H   0  0  0  0  0  0
  -18.0360  -26.0083   22.9035 H   0  0  0  0  0  0
  -19.7942  -30.7283   24.2255 H   0  0  0  0  0  0
  -17.5013  -31.6261   24.5161 H   0  0  0  0  0  0
  -15.5357  -30.2970   23.7654 H   0  0  0  0  0  0
  -15.8692  -28.0807   22.7069 H   0  0  0  0  0  0
  -24.5904  -30.7049   25.7747 H   0  0  0  0  0  0
  -24.8862  -32.2896   26.4797 H   0  0  0  0  0  0
  -25.7993  -30.8944   27.0244 H   0  0  0  0  0  0
  -26.2980  -29.6694   24.1259 H   0  0  0  0  0  0
  -27.3956  -29.7221   25.4844 H   0  0  0  0  0  0
  -27.8906  -30.4192   23.9621 H   0  0  0  0  0  0
  -27.2666  -33.3631   26.2033 H   0  0  0  0  0  0
  -28.3877  -32.6840   25.0318 H   0  0  0  0  0  0
  -28.0723  -31.8464   26.5436 H   0  0  0  0  0  0
  -28.2591  -38.0115   24.7491 H   0  0  0  0  0  0
  -28.1107  -36.2642   24.6299 H   0  0  0  0  0  0
  -27.2312  -37.1475   25.8862 H   0  0  0  0  0  0
  -20.9444  -29.8761   21.6820 H   0  0  0  0  0  0
  -26.0182  -38.2828   24.1344 H   0  0  0  0  0  0
  -29.3688  -23.3284   18.4340 H   0  0  0  0  0  0
  -29.9044  -20.9354   18.2754 H   0  0  0  0  0  0
  -27.7329  -22.6661   22.3219 H   0  0  0  0  0  0
  -25.1677  -18.5234   21.3678 H   0  0  0  0  0  0
  -26.7596  -17.7288   21.8338 H   0  0  0  0  0  0
  -26.5365  -18.6675   24.1640 H   0  0  0  0  0  0
  -24.9450  -19.4514   23.6837 H   0  0  0  0  0  0
  -26.1165  -20.7889   21.9165 H   0  0  0  0  0  0
  -29.5590  -18.5931   18.8912 H   0  0  0  0  0  0
  -28.1886  -18.3788   19.9048 H   0  0  0  0  0  0
  -27.4315  -24.8330   21.5445 H   0  0  0  0  0  0
  -26.8567  -24.5175   19.9678 H   0  0  0  0  0  0
  -31.1195  -17.6988   20.6526 H   0  0  0  0  0  0
  -29.8429  -17.7178   21.8246 H   0  0  0  0  0  0
  -28.3620  -20.4436   23.2981 H   0  0  0  0  0  0
  -28.7854  -15.7685   20.6920 H   0  0  0  0  0  0
  1 25  1  0  0  0
  1 30  2  0  0  0
  1 84  1  0  0  0
  2  3  1  0  0  0
  2 25  1  0  0  0
  2 85  1  0  0  0
  2 86  1  0  0  0
  3  4  1  0  0  0
  3 87  1  0  0  0
  3 88  1  0  0  0
  4  5  1  0  0  0
  4 89  1  0  0  0
  4 90  1  0  0  0
  5  6  1  0  0  0
  5 26  1  0  0  0
  5 91  1  0  0  0
  6 25  1  0  0  0
  6 92  1  0  0  0
  6 93  1  0  0  0
  7  8  2  0  0  0
  7 26  1  0  0  0
  7 29  1  0  0  0
  8  9  1  0  0  0
  8 22  1  0  0  0
  9 10  1  0  0  0
  9 27  2  0  0  0
 10 11  2  0  0  0
 10 15  1  0  0  0
 11 12  1  0  0  0
 11 94  1  0  0  0
 12 13  2  0  0  0
 12 95  1  0  0  0
 13 14  1  0  0  0
 13 31  1  0  0  0
 14 15  2  0  0  0
 14 96  1  0  0  0
 15 97  1  0  0  0
 16 17  2  0  0  0
 16 21  1  0  0  0
 16 31  1  0  0  0
 17 18  1  0  0  0
 17 98  1  0  0  0
 18 19  2  0  0  0
 18 99  1  0  0  0
 19 20  1  0  0  0
 19 24  1  0  0  0
 20 21  2  0  0  0
 20100  1  0  0  0
 21 23  1  0  0  0
 22 28  1  0  0  0
 22 32  2  0  0  0
 26 27  1  0  0  0
 28101  1  0  0  0
 28102  1  0  0  0
 29103  1  0  0  0
 29104  1  0  0  0
 33 34  1  0  0  0
 33 66  1  0  0  0
 33 70  2  0  0  0
 34 36  1  0  0  0
 34 59  1  0  0  0
 34105  1  0  0  0
 35 44  2  0  0  0
 35 45  1  0  0  0
 35 68  1  0  0  0
 36 56  1  0  0  0
 36106  1  0  0  0
 37 39  1  0  0  0
 37 47  1  0  0  0
 37 66  1  0  0  0
 37107  1  0  0  0
 38 43  2  0  0  0
 38 46  1  0  0  0
 38 47  1  0  0  0
 39 64  1  0  0  0
 39 67  2  0  0  0
 40 52  1  0  0  0
 40 53  2  0  0  0
 40 58  1  0  0  0
 41108  1  0  0  0
 41109  1  0  0  0
 41110  1  0  0  0
 41 48  1  0  0  0
 42 43  1  0  0  0
 42 66  1  0  0  0
 42111  1  0  0  0
 42112  1  0  0  0
 43 44  1  0  0  0
 44113  1  0  0  0
 45 46  2  0  0  0
 45114  1  0  0  0
 46115  1  0  0  0
 47116  1  0  0  0
 47117  1  0  0  0
 48 56  1  0  0  0
 48 65  1  0  0  0
 48118  1  0  0  0
 49 50  1  0  0  0
 49 53  1  0  0  0
 49 64  1  0  0  0
 49119  1  0  0  0
 50 51  1  0  0  0
 50120  1  0  0  0
 50121  1  0  0  0
 51 52  1  0  0  0
 51122  1  0  0  0
 51123  1  0  0  0
 52124  1  0  0  0
 52125  1  0  0  0
 53 54  1  0  0  0
 54 55  2  0  0  0
 54126  1  0  0  0
 55 57  1  0  0  0
 55127  1  0  0  0
 56 69  2  0  0  0
 57 58  2  0  0  0
 57128  1  0  0  0
 58129  1  0  0  0
 59 60  1  0  0  0
 59 61  1  0  0  0
 59 62  1  0  0  0
 60130  1  0  0  0
 60131  1  0  0  0
 60132  1  0  0  0
 61133  1  0  0  0
 61134  1  0  0  0
 61135  1  0  0  0
 62136  1  0  0  0
 62137  1  0  0  0
 62138  1  0  0  0
 63 65  1  0  0  0
 63139  1  0  0  0
 63140  1  0  0  0
 63141  1  0  0  0
 64142  1  0  0  0
 65143  1  0  0  0
 68 81  1  0  0  0
 71 72  2  0  0  0
 71 74  1  0  0  0
 71144  1  0  0  0
 72 75  1  0  0  0
 72145  1  0  0  0
 73 74  2  0  0  0
 73 76  1  0  0  0
 73146  1  0  0  0
 74 81  1  0  0  0
 75 76  2  0  0  0
 75 80  1  0  0  0
 76 83  1  0  0  0
 77 78  1  0  0  0
 77 79  1  0  0  0
 77147  1  0  0  0
 77148  1  0  0  0
 78 79  1  0  0  0
 78149  1  0  0  0
 78150  1  0  0  0
 79 83  1  0  0  0
 79151  1  0  0  0
 80 82  1  0  0  0
 80152  1  0  0  0
 80153  1  0  0  0
 81154  1  0  0  0
 81155  1  0  0  0
 82 84  1  0  0  0
 82156  1  0  0  0
 82157  1  0  0  0
 83158  1  0  0  0
 84159  1  0  0  0
M  ISO  4   1 100  68 101  81 101  84 100
M  END
> <chiral flag>
0

> <version>
0

> <s_m_source_file>
/data/baiqing/PycharmProjects/Reinvent-master-3.2/result/LINK_invent/BTK/process_docking_weight1_custom_sum_contain_oxygen_bond_distance_aromatic_linkinvent_7_9_3/rearranged_h_0134.sdf

> <i_m_source_file_index>
13

> <r_mmod_Potential_Energy-OPLS-2005>
399.757659912109

> <r_mmod_Stretch_Energy-OPLS-2005>
185.335327148438

> <r_mmod_Bend_Energy-OPLS-2005>
241.232284545898

> <r_mmod_Torsional_Energy-OPLS-2005>
296.578094482422

> <r_mmod_Improper_Torsional_Energy-OPLS-2005>
15.0385704040527

> <r_mmod_Van_der_Waal_Energy-OPLS-2005>
132.420227050781

> <r_mmod_Electrostatic_Energy-OPLS-2005>
-405.089935302734

> <r_mmod_Solvation_Energy-OPLS-2005>
-216.280960083008

> <b_mmod_Minimization_Converged-OPLS-2005>
0

> <r_mmod_RMS_Derivative-OPLS-2005>
2.19645953178406

$$$$
13
                    3D
 Structure written by MMmdl.
164172  0  0  1  0            999 V2000
  -30.7331  -14.4071   20.7109 C   0  0  0  0  0  0
  -30.4220  -12.3270   19.3966 C   0  0  0  0  0  0
  -29.4870  -12.5242   18.1854 C   0  0  0  0  0  0
  -28.0107  -12.3695   18.5987 C   0  0  0  0  0  0
  -27.6582  -13.1981   19.8620 C   0  0  2  0  0  0
  -28.6902  -12.9552   20.9827 C   0  0  0  0  0  0
  -25.2584  -13.8119   20.5634 C   0  0  0  0  0  0
  -24.1837  -13.0438   20.9146 C   0  0  0  0  0  0
  -24.6373  -11.6895   20.8708 C   0  0  0  0  0  0
  -23.9043  -10.4290   21.0398 C   0  0  0  0  0  0
  -24.3610   -9.4217   21.9187 C   0  0  0  0  0  0
  -23.6288   -8.2258   22.0774 C   0  0  0  0  0  0
  -22.4275   -8.0271   21.3550 C   0  0  0  0  0  0
  -21.9903   -9.0244   20.4661 C   0  0  0  0  0  0
  -22.7226  -10.2126   20.3052 C   0  0  0  0  0  0
  -21.6845   -6.0742   22.5282 C   0  0  0  0  0  0
  -21.4024   -6.5655   23.8213 C   0  0  0  0  0  0
  -21.3644   -5.6815   24.9182 C   0  0  0  0  0  0
  -21.6028   -4.3074   24.7248 C   0  0  0  0  0  0
  -21.8819   -3.8160   23.4365 C   0  0  0  0  0  0
  -21.9202   -4.6967   22.3411 C   0  0  0  0  0  0
  -22.7863  -13.5243   21.1795 C   0  0  0  0  0  0
  -22.1659   -4.2149   21.0986 F   0  0  0  0  0  0
  -21.5617   -3.4553   25.7755 F   0  0  0  0  0  0
  -30.0289  -13.2703   20.4522 N   0  0  0  0  0  0
  -26.2986  -12.9294   20.3246 N   0  0  0  0  0  0
  -25.9283  -11.6455   20.5681 N   0  0  0  0  0  0
  -22.0497  -12.8249   22.0353 N   0  0  0  0  0  0
  -25.4365  -15.1858   20.4064 N   0  0  0  0  0  0
  -31.7739  -14.7075   20.1169 O   0  0  0  0  0  0
  -21.6645   -6.8884   21.4242 O   0  0  0  0  0  0
  -22.3548  -14.5545   20.6631 O   0  0  0  0  0  0
  -24.6117  -31.8694   23.2067 C   0  0  0  0  0  0
  -25.9013  -32.4839   23.8380 C   0  0  1  0  0  0
  -27.2507  -27.4587   20.1043 C   0  0  0  0  0  0
  -25.5861  -33.8626   24.2332 N   0  0  0  0  0  0
  -23.3995  -30.4839   21.5472 C   0  0  2  0  0  0
  -24.8510  -28.9572   20.1087 C   0  0  0  0  0  0
  -22.7393  -29.4621   22.5014 C   0  0  0  0  0  0
  -18.0258  -28.1347   22.8486 C   0  0  0  0  0  0
  -24.1486  -36.7331   23.2645 C   0  0  0  0  0  0
  -25.9198  -30.8493   21.3534 C   0  0  0  0  0  0
  -26.0022  -29.4832   20.7044 C   0  0  0  0  0  0
  -27.1998  -28.7359   20.7053 C   0  0  0  0  0  0
  -26.0754  -26.9339   19.5173 C   0  0  0  0  0  0
  -24.8804  -27.6800   19.5166 C   0  0  0  0  0  0
  -23.6049  -29.8106   20.1616 C   0  0  0  0  0  0
  -25.4103  -36.3122   24.0348 C   0  0  1  0  0  0
  -20.5845  -28.3630   23.1347 C   0  0  2  0  0  0
  -20.6745  -26.9393   22.5442 C   0  0  0  0  0  0
  -19.5717  -26.6387   21.5226 C   0  0  0  0  0  0
  -18.1882  -26.7902   22.1639 C   0  0  0  0  0  0
  -19.1504  -28.8819   23.2893 C   0  0  0  0  0  0
  -18.9460  -30.1439   23.8908 C   0  0  0  0  0  0
  -17.6459  -30.6568   24.0563 C   0  0  0  0  0  0
  -25.9022  -34.9488   23.5157 C   0  0  0  0  0  0
  -16.5346  -29.9076   23.6326 C   0  0  0  0  0  0
  -16.7263  -28.6489   23.0347 C   0  0  0  0  0  0
  -26.4468  -31.6597   25.0711 C   0  0  0  0  0  0
  -25.3719  -31.3712   26.1460 C   0  0  0  0  0  0
  -27.0305  -30.3031   24.6085 C   0  0  0  0  0  0
  -27.6035  -32.4355   25.7482 C   0  0  0  0  0  0
  -27.5591  -37.1796   24.8472 C   0  0  0  0  0  0
  -21.4129  -29.3006   22.3762 N   0  0  0  0  0  0
  -26.4299  -37.3794   23.9438 N   0  0  0  0  0  0
  -24.6628  -31.0800   22.0956 N   0  0  0  0  0  0
  -23.4206  -28.8194   23.3035 O   0  0  0  0  0  0
  -28.4595  -26.7986   20.1783 O   0  0  0  0  0  0
  -26.5633  -34.8962   22.4745 O   0  0  0  0  0  0
  -23.5301  -32.1483   23.7443 O   0  0  0  0  0  0
  -29.8900  -22.4250   22.3108 C   0  0  0  0  0  0
  -30.4585  -21.1825   22.6555 C   0  0  0  0  0  0
  -29.1825  -22.5359   21.0937 C   0  0  0  0  0  0
  -29.0759  -21.3784   20.2888 C   0  0  0  0  0  0
  -30.2911  -20.0892   21.7910 C   0  0  0  0  0  0
  -26.8178  -21.0313   19.2288 C   0  0  0  0  0  0
  -30.5808  -16.3240   23.8235 C   0  0  0  0  0  0
  -28.2903  -21.3901   18.9890 C   0  0  0  0  0  0
  -30.1203  -17.6482   21.7233 C   0  0  0  0  0  0
  -28.7903  -25.7261   19.3005 C   0  0  0  0  0  0
  -29.5243  -24.6186   20.0826 C   0  0  0  0  0  0
  -30.7736  -16.3780   22.2973 C   0  0  2  0  0  0
  -29.6088  -20.1844   20.6339 N   0  0  0  0  0  0
  -30.8521  -18.8505   22.1113 N   0  0  0  0  0  0
  -30.2125  -15.1688   21.6876 N   0  0  0  0  0  0
  -28.6074  -23.7235   20.7090 O   0  0  0  0  0  0
  -31.4651  -12.4469   19.0978 H   0  0  0  0  0  0
  -30.3356  -11.3084   19.7759 H   0  0  0  0  0  0
  -29.7328  -11.8025   17.4043 H   0  0  0  0  0  0
  -29.6455  -13.5117   17.7473 H   0  0  0  0  0  0
  -27.8268  -11.3113   18.7817 H   0  0  0  0  0  0
  -27.3593  -12.6501   17.7696 H   0  0  0  0  0  0
  -27.7109  -14.2508   19.5779 H   0  0  0  0  0  0
  -28.6697  -11.9123   21.3008 H   0  0  0  0  0  0
  -28.4098  -13.5285   21.8658 H   0  0  0  0  0  0
  -25.2766   -9.5697   22.4754 H   0  0  0  0  0  0
  -23.9998   -7.4661   22.7494 H   0  0  0  0  0  0
  -21.0848   -8.8757   19.8960 H   0  0  0  0  0  0
  -22.3693  -10.9660   19.6151 H   0  0  0  0  0  0
  -21.2023   -7.6172   23.9716 H   0  0  0  0  0  0
  -21.1448   -6.0550   25.9076 H   0  0  0  0  0  0
  -22.0609   -2.7620   23.2873 H   0  0  0  0  0  0
  -22.4137  -11.9942   22.4787 H   0  0  0  0  0  0
  -21.1075  -13.1238   22.2495 H   0  0  0  0  0  0
  -24.6762  -15.8484   20.5154 H   0  0  0  0  0  0
  -26.3014  -15.6182   20.1065 H   0  0  0  0  0  0
  -26.7140  -32.5607   23.1192 H   0  0  0  0  0  0
  -24.9941  -33.9771   25.0437 H   0  0  0  0  0  0
  -22.6894  -31.2992   21.4026 H   0  0  0  0  0  0
  -23.3751  -35.9653   23.3311 H   0  0  0  0  0  0
  -24.3538  -36.8944   22.2052 H   0  0  0  0  0  0
  -23.7252  -37.6541   23.6667 H   0  0  0  0  0  0
  -26.0099  -31.6146   20.5819 H   0  0  0  0  0  0
  -26.8130  -30.9169   21.9588 H   0  0  0  0  0  0
  -28.0878  -29.1314   21.1798 H   0  0  0  0  0  0
  -26.0406  -25.9475   19.0814 H   0  0  0  0  0  0
  -23.9913  -27.2577   19.0689 H   0  0  0  0  0  0
  -23.6816  -30.5814   19.3925 H   0  0  0  0  0  0
  -22.7379  -29.2121   19.8826 H   0  0  0  0  0  0
  -25.1259  -36.1971   25.0831 H   0  0  0  0  0  0
  -20.9903  -28.3215   24.1477 H   0  0  0  0  0  0
  -20.5667  -26.2285   23.3647 H   0  0  0  0  0  0
  -21.6614  -26.7492   22.1211 H   0  0  0  0  0  0
  -19.6955  -25.6312   21.1255 H   0  0  0  0  0  0
  -19.6624  -27.3218   20.6759 H   0  0  0  0  0  0
  -17.4173  -26.6674   21.4025 H   0  0  0  0  0  0
  -18.0222  -26.0049   22.9025 H   0  0  0  0  0  0
  -19.7961  -30.7184   24.2307 H   0  0  0  0  0  0
  -17.5047  -31.6262   24.5149 H   0  0  0  0  0  0
  -15.5347  -30.2985   23.7648 H   0  0  0  0  0  0
  -15.8648  -28.0816   22.7058 H   0  0  0  0  0  0
  -24.5889  -30.7063   25.7813 H   0  0  0  0  0  0
  -24.8902  -32.2862   26.4924 H   0  0  0  0  0  0
  -25.8038  -30.8899   27.0228 H   0  0  0  0  0  0
  -26.2816  -29.6796   24.1173 H   0  0  0  0  0  0
  -27.4105  -29.7295   25.4547 H   0  0  0  0  0  0
  -27.8666  -30.4385   23.9205 H   0  0  0  0  0  0
  -27.2605  -33.3657   26.2039 H   0  0  0  0  0  0
  -28.3811  -32.6892   25.0271 H   0  0  0  0  0  0
  -28.0724  -31.8489   26.5397 H   0  0  0  0  0  0
  -28.2579  -38.0119   24.7477 H   0  0  0  0  0  0
  -28.1077  -36.2618   24.6281 H   0  0  0  0  0  0
  -27.2281  -37.1430   25.8865 H   0  0  0  0  0  0
  -20.9314  -29.8667   21.6935 H   0  0  0  0  0  0
  -26.0214  -38.2887   24.1394 H   0  0  0  0  0  0
  -29.9995  -23.2734   22.9713 H   0  0  0  0  0  0
  -31.0047  -21.0914   23.5834 H   0  0  0  0  0  0
  -26.2558  -20.9813   18.2948 H   0  0  0  0  0  0
  -26.3376  -21.7640   19.8775 H   0  0  0  0  0  0
  -26.7403  -20.0593   19.7174 H   0  0  0  0  0  0
  -31.1595  -17.1063   24.3181 H   0  0  0  0  0  0
  -30.9067  -15.3719   24.2409 H   0  0  0  0  0  0
  -29.5343  -16.4711   24.0995 H   0  0  0  0  0  0
  -28.7333  -20.6775   18.2939 H   0  0  0  0  0  0
  -28.3778  -22.3636   18.5019 H   0  0  0  0  0  0
  -29.0924  -17.7367   22.0817 H   0  0  0  0  0  0
  -30.0734  -17.5876   20.6366 H   0  0  0  0  0  0
  -27.9718  -25.3106   18.7210 H   0  0  0  0  0  0
  -29.4830  -26.1510   18.5735 H   0  0  0  0  0  0
  -30.2039  -25.0472   20.8225 H   0  0  0  0  0  0
  -30.1426  -24.0586   19.3784 H   0  0  0  0  0  0
  -31.8459  -16.4021   22.0907 H   0  0  0  0  0  0
  -31.3533  -18.8083   22.9898 H   0  0  0  0  0  0
  -29.3488  -14.8259   22.0818 H   0  0  0  0  0  0
  1 25  1  0  0  0
  1 30  2  0  0  0
  1 85  1  0  0  0
  2  3  1  0  0  0
  2 25  1  0  0  0
  2 87  1  0  0  0
  2 88  1  0  0  0
  3  4  1  0  0  0
  3 89  1  0  0  0
  3 90  1  0  0  0
  4  5  1  0  0  0
  4 91  1  0  0  0
  4 92  1  0  0  0
  5  6  1  0  0  0
  5 26  1  0  0  0
  5 93  1  0  0  0
  6 25  1  0  0  0
  6 94  1  0  0  0
  6 95  1  0  0  0
  7  8  2  0  0  0
  7 26  1  0  0  0
  7 29  1  0  0  0
  8  9  1  0  0  0
  8 22  1  0  0  0
  9 10  1  0  0  0
  9 27  2  0  0  0
 10 11  2  0  0  0
 10 15  1  0  0  0
 11 12  1  0  0  0
 11 96  1  0  0  0
 12 13  2  0  0  0
 12 97  1  0  0  0
 13 14  1  0  0  0
 13 31  1  0  0  0
 14 15  2  0  0  0
 14 98  1  0  0  0
 15 99  1  0  0  0
 16 17  2  0  0  0
 16 21  1  0  0  0
 16 31  1  0  0  0
 17 18  1  0  0  0
 17100  1  0  0  0
 18 19  2  0  0  0
 18101  1  0  0  0
 19 20  1  0  0  0
 19 24  1  0  0  0
 20 21  2  0  0  0
 20102  1  0  0  0
 21 23  1  0  0  0
 22 28  1  0  0  0
 22 32  2  0  0  0
 26 27  1  0  0  0
 28103  1  0  0  0
 28104  1  0  0  0
 29105  1  0  0  0
 29106  1  0  0  0
 33 34  1  0  0  0
 33 66  1  0  0  0
 33 70  2  0  0  0
 34 36  1  0  0  0
 34 59  1  0  0  0
 34107  1  0  0  0
 35 44  2  0  0  0
 35 45  1  0  0  0
 35 68  1  0  0  0
 36 56  1  0  0  0
 36108  1  0  0  0
 37 39  1  0  0  0
 37 47  1  0  0  0
 37 66  1  0  0  0
 37109  1  0  0  0
 38 43  2  0  0  0
 38 46  1  0  0  0
 38 47  1  0  0  0
 39 64  1  0  0  0
 39 67  2  0  0  0
 40 52  1  0  0  0
 40 53  2  0  0  0
 40 58  1  0  0  0
 41110  1  0  0  0
 41111  1  0  0  0
 41112  1  0  0  0
 41 48  1  0  0  0
 42 43  1  0  0  0
 42 66  1  0  0  0
 42113  1  0  0  0
 42114  1  0  0  0
 43 44  1  0  0  0
 44115  1  0  0  0
 45 46  2  0  0  0
 45116  1  0  0  0
 46117  1  0  0  0
 47118  1  0  0  0
 47119  1  0  0  0
 48 56  1  0  0  0
 48 65  1  0  0  0
 48120  1  0  0  0
 49 50  1  0  0  0
 49 53  1  0  0  0
 49 64  1  0  0  0
 49121  1  0  0  0
 50 51  1  0  0  0
 50122  1  0  0  0
 50123  1  0  0  0
 51 52  1  0  0  0
 51124  1  0  0  0
 51125  1  0  0  0
 52126  1  0  0  0
 52127  1  0  0  0
 53 54  1  0  0  0
 54 55  2  0  0  0
 54128  1  0  0  0
 55 57  1  0  0  0
 55129  1  0  0  0
 56 69  2  0  0  0
 57 58  2  0  0  0
 57130  1  0  0  0
 58131  1  0  0  0
 59 60  1  0  0  0
 59 61  1  0  0  0
 59 62  1  0  0  0
 60132  1  0  0  0
 60133  1  0  0  0
 60134  1  0  0  0
 61135  1  0  0  0
 61136  1  0  0  0
 61137  1  0  0  0
 62138  1  0  0  0
 62139  1  0  0  0
 62140  1  0  0  0
 63 65  1  0  0  0
 63141  1  0  0  0
 63142  1  0  0  0
 63143  1  0  0  0
 64144  1  0  0  0
 65145  1  0  0  0
 68 80  1  0  0  0
 71 72  2  0  0  0
 71 73  1  0  0  0
 71146  1  0  0  0
 72 75  1  0  0  0
 72147  1  0  0  0
 73 74  2  0  0  0
 73 86  1  0  0  0
 74 78  1  0  0  0
 74 83  1  0  0  0
 75 83  2  0  0  0
 75 84  1  0  0  0
 76 78  1  0  0  0
 76148  1  0  0  0
 76149  1  0  0  0
 76150  1  0  0  0
 77151  1  0  0  0
 77152  1  0  0  0
 77153  1  0  0  0
 77 82  1  0  0  0
 78154  1  0  0  0
 78155  1  0  0  0
 79 82  1  0  0  0
 79 84  1  0  0  0
 79156  1  0  0  0
 79157  1  0  0  0
 80 81  1  0  0  0
 80158  1  0  0  0
 80159  1  0  0  0
 81 86  1  0  0  0
 81160  1  0  0  0
 81161  1  0  0  0
 82 85  1  0  0  0
 82162  1  0  0  0
 84163  1  0  0  0
 85164  1  0  0  0
M  ISO  4   1 100  68 101  80 101  85 100
M  END
> <chiral flag>
0

> <version>
0

> <s_m_source_file>
/data/baiqing/PycharmProjects/Reinvent-master-3.2/result/LINK_invent/BTK/process_docking_weight1_custom_sum_contain_oxygen_bond_distance_aromatic_linkinvent_7_9_3/rearranged_h_0134.sdf

> <i_m_source_file_index>
14

> <r_mmod_Potential_Energy-OPLS-2005>
-326.663238525391

> <r_mmod_Stretch_Energy-OPLS-2005>
33.5612335205078

> <r_mmod_Bend_Energy-OPLS-2005>
107.239715576172

> <r_mmod_Torsional_Energy-OPLS-2005>
215.918106079102

> <r_mmod_Improper_Torsional_Energy-OPLS-2005>
4.58585262298584

> <r_mmod_Van_der_Waal_Energy-OPLS-2005>
156.178924560547

> <r_mmod_Electrostatic_Energy-OPLS-2005>
-621.184631347656

> <r_mmod_Solvation_Energy-OPLS-2005>
-234.749176025391

> <b_mmod_Minimization_Converged-OPLS-2005>
0

> <r_mmod_RMS_Derivative-OPLS-2005>
5.81148386001587

$$$$
14
                    3D
 Structure written by MMmdl.
166175  0  0  1  0            999 V2000
  -30.7040  -14.4356   20.5970 C   0  0  0  0  0  0
  -30.4264  -12.2897   19.4180 C   0  0  0  0  0  0
  -29.4975  -12.5098   18.2056 C   0  0  0  0  0  0
  -28.0166  -12.3744   18.6139 C   0  0  0  0  0  0
  -27.6662  -13.2017   19.8795 C   0  0  2  0  0  0
  -28.7043  -12.9509   20.9977 C   0  0  0  0  0  0
  -25.2584  -13.8139   20.5638 C   0  0  0  0  0  0
  -24.1846  -13.0427   20.9183 C   0  0  0  0  0  0
  -24.6396  -11.6896   20.8740 C   0  0  0  0  0  0
  -23.9057  -10.4288   21.0408 C   0  0  0  0  0  0
  -24.3609   -9.4201   21.9187 C   0  0  0  0  0  0
  -23.6284   -8.2239   22.0753 C   0  0  0  0  0  0
  -22.4266   -8.0278   21.3540 C   0  0  0  0  0  0
  -21.9900   -9.0253   20.4647 C   0  0  0  0  0  0
  -22.7228  -10.2134   20.3057 C   0  0  0  0  0  0
  -21.6853   -6.0731   22.5277 C   0  0  0  0  0  0
  -21.4018   -6.5635   23.8211 C   0  0  0  0  0  0
  -21.3656   -5.6789   24.9172 C   0  0  0  0  0  0
  -21.6043   -4.3050   24.7221 C   0  0  0  0  0  0
  -21.8822   -3.8141   23.4345 C   0  0  0  0  0  0
  -21.9192   -4.6959   22.3401 C   0  0  0  0  0  0
  -22.7869  -13.5233   21.1845 C   0  0  0  0  0  0
  -22.1662   -4.2145   21.0977 F   0  0  0  0  0  0
  -21.5622   -3.4534   25.7735 F   0  0  0  0  0  0
  -30.0435  -13.2550   20.4592 N   0  0  0  0  0  0
  -26.3036  -12.9311   20.3356 N   0  0  0  0  0  0
  -25.9323  -11.6477   20.5768 N   0  0  0  0  0  0
  -22.0506  -12.8237   22.0406 N   0  0  0  0  0  0
  -25.4264  -15.1841   20.3943 N   0  0  0  0  0  0
  -31.8131  -14.6506   20.0974 O   0  0  0  0  0  0
  -21.6633   -6.8874   21.4239 O   0  0  0  0  0  0
  -22.3557  -14.5536   20.6682 O   0  0  0  0  0  0
  -24.6120  -31.8693   23.2115 C   0  0  0  0  0  0
  -25.9024  -32.4827   23.8401 C   0  0  1  0  0  0
  -27.2415  -27.4499   20.0850 C   0  0  0  0  0  0
  -25.5892  -33.8626   24.2338 N   0  0  0  0  0  0
  -23.3986  -30.4928   21.5516 C   0  0  2  0  0  0
  -24.8438  -28.9576   20.1171 C   0  0  0  0  0  0
  -22.7389  -29.4667   22.5000 C   0  0  0  0  0  0
  -18.0269  -28.1373   22.8493 C   0  0  0  0  0  0
  -24.1485  -36.7317   23.2637 C   0  0  0  0  0  0
  -25.9252  -30.8373   21.3626 C   0  0  0  0  0  0
  -26.0010  -29.4711   20.7131 C   0  0  0  0  0  0
  -27.1963  -28.7212   20.7001 C   0  0  0  0  0  0
  -26.0580  -26.9394   19.4987 C   0  0  0  0  0  0
  -24.8657  -27.6889   19.5129 C   0  0  0  0  0  0
  -23.6054  -29.8236   20.1663 C   0  0  0  0  0  0
  -25.4105  -36.3115   24.0341 C   0  0  1  0  0  0
  -20.5855  -28.3658   23.1325 C   0  0  2  0  0  0
  -20.6759  -26.9398   22.5419 C   0  0  0  0  0  0
  -19.5740  -26.6385   21.5211 C   0  0  0  0  0  0
  -18.1917  -26.7921   22.1622 C   0  0  0  0  0  0
  -19.1518  -28.8833   23.2907 C   0  0  0  0  0  0
  -18.9447  -30.1440   23.8916 C   0  0  0  0  0  0
  -17.6451  -30.6582   24.0569 C   0  0  0  0  0  0
  -25.9032  -34.9479   23.5138 C   0  0  0  0  0  0
  -16.5342  -29.9088   23.6322 C   0  0  0  0  0  0
  -16.7259  -28.6504   23.0345 C   0  0  0  0  0  0
  -26.4465  -31.6599   25.0716 C   0  0  0  0  0  0
  -25.3744  -31.3704   26.1477 C   0  0  0  0  0  0
  -27.0289  -30.3043   24.6076 C   0  0  0  0  0  0
  -27.6049  -32.4313   25.7468 C   0  0  0  0  0  0
  -27.5584  -37.1810   24.8465 C   0  0  0  0  0  0
  -21.4123  -29.3030   22.3735 N   0  0  0  0  0  0
  -26.4295  -37.3796   23.9410 N   0  0  0  0  0  0
  -24.6635  -31.0808   22.1006 N   0  0  0  0  0  0
  -23.4173  -28.8211   23.3035 O   0  0  0  0  0  0
  -28.4488  -26.7803   20.0883 O   0  0  0  0  0  0
  -26.5595  -34.8928   22.4699 O   0  0  0  0  0  0
  -23.5321  -32.1441   23.7523 O   0  0  0  0  0  0
  -31.0852  -17.5763   20.7559 C   0  0  0  0  0  0
  -28.6900  -17.2818   20.4974 C   0  0  0  0  0  0
  -30.9783  -18.9044   20.2821 C   0  0  0  0  0  0
  -28.5684  -18.5940   19.9937 C   0  0  0  0  0  0
  -29.7200  -19.4166   19.8604 C   0  0  0  0  0  0
  -29.9472  -16.7471   20.8330 C   0  0  0  0  0  0
  -30.0989  -25.3587   19.0462 C   0  0  0  0  0  0
  -30.2269  -23.8451   18.8204 C   0  0  0  0  0  0
  -28.2458  -24.2937   20.0717 C   0  0  0  0  0  0
  -28.6158  -25.5831   19.3245 C   0  0  1  0  0  0
  -32.2451  -19.7422   20.2098 C   0  0  0  0  0  0
  -27.1877  -19.0703   19.5670 C   0  0  0  0  0  0
  -29.6106  -20.7969   19.1949 C   0  0  0  0  0  0
  -29.2002  -21.9607   20.1295 C   0  0  0  0  0  0
  -30.0130  -15.3892   21.2447 N   0  0  0  0  0  0
  -28.9958  -23.2241   19.3688 N   0  3  2  0  0  0
  -31.4711  -12.3910   19.1187 H   0  0  0  0  0  0
  -30.3257  -11.2721   19.7986 H   0  0  0  0  0  0
  -29.7330  -11.7933   17.4170 H   0  0  0  0  0  0
  -29.6736  -13.4997   17.7814 H   0  0  0  0  0  0
  -27.8186  -11.3177   18.7966 H   0  0  0  0  0  0
  -27.3705  -12.6641   17.7846 H   0  0  0  0  0  0
  -27.7198  -14.2540   19.5999 H   0  0  0  0  0  0
  -28.6717  -11.9065   21.3119 H   0  0  0  0  0  0
  -28.4603  -13.5232   21.8936 H   0  0  0  0  0  0
  -25.2761   -9.5669   22.4755 H   0  0  0  0  0  0
  -23.9989   -7.4628   22.7469 H   0  0  0  0  0  0
  -21.0829   -8.8773   19.8958 H   0  0  0  0  0  0
  -22.3690  -10.9670   19.6160 H   0  0  0  0  0  0
  -21.2022   -7.6148   23.9713 H   0  0  0  0  0  0
  -21.1472   -6.0520   25.9073 H   0  0  0  0  0  0
  -22.0605   -2.7602   23.2849 H   0  0  0  0  0  0
  -22.4109  -11.9894   22.4800 H   0  0  0  0  0  0
  -21.1125  -13.1278   22.2601 H   0  0  0  0  0  0
  -24.6470  -15.8288   20.4690 H   0  0  0  0  0  0
  -26.2464  -15.5994   19.9740 H   0  0  0  0  0  0
  -26.7092  -32.5548   23.1165 H   0  0  0  0  0  0
  -25.0052  -33.9789   25.0488 H   0  0  0  0  0  0
  -22.6864  -31.3090   21.4137 H   0  0  0  0  0  0
  -23.3742  -35.9656   23.3310 H   0  0  0  0  0  0
  -24.3580  -36.8916   22.2049 H   0  0  0  0  0  0
  -23.7242  -37.6528   23.6640 H   0  0  0  0  0  0
  -26.0345  -31.6025   20.5928 H   0  0  0  0  0  0
  -26.8145  -30.8924   21.9787 H   0  0  0  0  0  0
  -28.0918  -29.1205   21.1559 H   0  0  0  0  0  0
  -26.0264  -25.9687   19.0280 H   0  0  0  0  0  0
  -23.9721  -27.2847   19.0575 H   0  0  0  0  0  0
  -23.7124  -30.5982   19.4062 H   0  0  0  0  0  0
  -22.7292  -29.2433   19.8716 H   0  0  0  0  0  0
  -25.1278  -36.1988   25.0834 H   0  0  0  0  0  0
  -20.9946  -28.3226   24.1447 H   0  0  0  0  0  0
  -20.5659  -26.2269   23.3604 H   0  0  0  0  0  0
  -21.6633  -26.7442   22.1218 H   0  0  0  0  0  0
  -19.6904  -25.6303   21.1225 H   0  0  0  0  0  0
  -19.6679  -27.3211   20.6754 H   0  0  0  0  0  0
  -17.4188  -26.6673   21.4023 H   0  0  0  0  0  0
  -18.0318  -26.0057   22.9012 H   0  0  0  0  0  0
  -19.7924  -30.7250   24.2293 H   0  0  0  0  0  0
  -17.5008  -31.6262   24.5170 H   0  0  0  0  0  0
  -15.5345  -30.3000   23.7632 H   0  0  0  0  0  0
  -15.8658  -28.0834   22.7046 H   0  0  0  0  0  0
  -24.5909  -30.7053   25.7825 H   0  0  0  0  0  0
  -24.8945  -32.2863   26.4940 H   0  0  0  0  0  0
  -25.8108  -30.8866   27.0223 H   0  0  0  0  0  0
  -26.2824  -29.6805   24.1145 H   0  0  0  0  0  0
  -27.4086  -29.7275   25.4519 H   0  0  0  0  0  0
  -27.8648  -30.4367   23.9201 H   0  0  0  0  0  0
  -27.2676  -33.3601   26.2081 H   0  0  0  0  0  0
  -28.3835  -32.6892   25.0275 H   0  0  0  0  0  0
  -28.0744  -31.8417   26.5352 H   0  0  0  0  0  0
  -28.2609  -38.0101   24.7509 H   0  0  0  0  0  0
  -28.1071  -36.2635   24.6288 H   0  0  0  0  0  0
  -27.2304  -37.1456   25.8869 H   0  0  0  0  0  0
  -20.9277  -29.8758   21.6966 H   0  0  0  0  0  0
  -26.0188  -38.2876   24.1408 H   0  0  0  0  0  0
  -32.0514  -17.1841   21.0427 H   0  0  0  0  0  0
  -27.8104  -16.6617   20.5824 H   0  0  0  0  0  0
  -30.4600  -25.9455   18.2016 H   0  0  0  0  0  0
  -30.6846  -25.6433   19.9211 H   0  0  0  0  0  0
  -31.1305  -23.4666   19.3002 H   0  0  0  0  0  0
  -30.2991  -23.6114   17.7575 H   0  0  0  0  0  0
  -27.1725  -24.1029   20.0834 H   0  0  0  0  0  0
  -28.5853  -24.3579   21.1067 H   0  0  0  0  0  0
  -28.1025  -25.6396   18.3631 H   0  0  0  0  0  0
  -33.0557  -19.2822   20.7761 H   0  0  0  0  0  0
  -32.0833  -20.7367   20.6260 H   0  0  0  0  0  0
  -32.5805  -19.8454   19.1776 H   0  0  0  0  0  0
  -26.4197  -18.3314   19.7976 H   0  0  0  0  0  0
  -27.1531  -19.2455   18.4915 H   0  0  0  0  0  0
  -26.9098  -19.9890   20.0808 H   0  0  0  0  0  0
  -28.9035  -20.7273   18.3691 H   0  0  0  0  0  0
  -30.5545  -21.0358   18.7063 H   0  0  0  0  0  0
  -29.9418  -22.1083   20.9154 H   0  0  0  0  0  0
  -28.2692  -21.7101   20.6366 H   0  0  0  0  0  0
  -29.1669  -15.0291   21.6588 H   0  0  0  0  0  0
  -28.4307  -22.9810   18.5670 H   0  0  0  0  0  0
  1 25  1  0  0  0
  1 30  2  0  0  0
  1 85  1  0  0  0
  2  3  1  0  0  0
  2 25  1  0  0  0
  2 87  1  0  0  0
  2 88  1  0  0  0
  3  4  1  0  0  0
  3 89  1  0  0  0
  3 90  1  0  0  0
  4  5  1  0  0  0
  4 91  1  0  0  0
  4 92  1  0  0  0
  5  6  1  0  0  0
  5 26  1  0  0  0
  5 93  1  0  0  0
  6 25  1  0  0  0
  6 94  1  0  0  0
  6 95  1  0  0  0
  7  8  2  0  0  0
  7 26  1  0  0  0
  7 29  1  0  0  0
  8  9  1  0  0  0
  8 22  1  0  0  0
  9 10  1  0  0  0
  9 27  2  0  0  0
 10 11  2  0  0  0
 10 15  1  0  0  0
 11 12  1  0  0  0
 11 96  1  0  0  0
 12 13  2  0  0  0
 12 97  1  0  0  0
 13 14  1  0  0  0
 13 31  1  0  0  0
 14 15  2  0  0  0
 14 98  1  0  0  0
 15 99  1  0  0  0
 16 17  2  0  0  0
 16 21  1  0  0  0
 16 31  1  0  0  0
 17 18  1  0  0  0
 17100  1  0  0  0
 18 19  2  0  0  0
 18101  1  0  0  0
 19 20  1  0  0  0
 19 24  1  0  0  0
 20 21  2  0  0  0
 20102  1  0  0  0
 21 23  1  0  0  0
 22 28  1  0  0  0
 22 32  2  0  0  0
 26 27  1  0  0  0
 28103  1  0  0  0
 28104  1  0  0  0
 29105  1  0  0  0
 29106  1  0  0  0
 33 34  1  0  0  0
 33 66  1  0  0  0
 33 70  2  0  0  0
 34 36  1  0  0  0
 34 59  1  0  0  0
 34107  1  0  0  0
 35 44  2  0  0  0
 35 45  1  0  0  0
 35 68  1  0  0  0
 36 56  1  0  0  0
 36108  1  0  0  0
 37 39  1  0  0  0
 37 47  1  0  0  0
 37 66  1  0  0  0
 37109  1  0  0  0
 38 43  2  0  0  0
 38 46  1  0  0  0
 38 47  1  0  0  0
 39 64  1  0  0  0
 39 67  2  0  0  0
 40 52  1  0  0  0
 40 53  2  0  0  0
 40 58  1  0  0  0
 41110  1  0  0  0
 41111  1  0  0  0
 41112  1  0  0  0
 41 48  1  0  0  0
 42 43  1  0  0  0
 42 66  1  0  0  0
 42113  1  0  0  0
 42114  1  0  0  0
 43 44  1  0  0  0
 44115  1  0  0  0
 45 46  2  0  0  0
 45116  1  0  0  0
 46117  1  0  0  0
 47118  1  0  0  0
 47119  1  0  0  0
 48 56  1  0  0  0
 48 65  1  0  0  0
 48120  1  0  0  0
 49 50  1  0  0  0
 49 53  1  0  0  0
 49 64  1  0  0  0
 49121  1  0  0  0
 50 51  1  0  0  0
 50122  1  0  0  0
 50123  1  0  0  0
 51 52  1  0  0  0
 51124  1  0  0  0
 51125  1  0  0  0
 52126  1  0  0  0
 52127  1  0  0  0
 53 54  1  0  0  0
 54 55  2  0  0  0
 54128  1  0  0  0
 55 57  1  0  0  0
 55129  1  0  0  0
 56 69  2  0  0  0
 57 58  2  0  0  0
 57130  1  0  0  0
 58131  1  0  0  0
 59 60  1  0  0  0
 59 61  1  0  0  0
 59 62  1  0  0  0
 60132  1  0  0  0
 60133  1  0  0  0
 60134  1  0  0  0
 61135  1  0  0  0
 61136  1  0  0  0
 61137  1  0  0  0
 62138  1  0  0  0
 62139  1  0  0  0
 62140  1  0  0  0
 63 65  1  0  0  0
 63141  1  0  0  0
 63142  1  0  0  0
 63143  1  0  0  0
 64144  1  0  0  0
 65145  1  0  0  0
 68 80  1  0  0  0
 71 73  2  0  0  0
 71 76  1  0  0  0
 71146  1  0  0  0
 72 74  1  0  0  0
 72 76  2  0  0  0
 72147  1  0  0  0
 73 75  1  0  0  0
 73 81  1  0  0  0
 74 75  2  0  0  0
 74 82  1  0  0  0
 75 83  1  0  0  0
 76 85  1  0  0  0
 77 78  1  0  0  0
 77 80  1  0  0  0
 77148  1  0  0  0
 77149  1  0  0  0
 78 86  1  0  0  0
 78150  1  0  0  0
 78151  1  0  0  0
 79 80  1  0  0  0
 79 86  1  0  0  0
 79152  1  0  0  0
 79153  1  0  0  0
 80154  1  0  0  0
 81155  1  0  0  0
 81156  1  0  0  0
 81157  1  0  0  0
 82158  1  0  0  0
 82159  1  0  0  0
 82160  1  0  0  0
 83 84  1  0  0  0
 83161  1  0  0  0
 83162  1  0  0  0
 84163  1  0  0  0
 84164  1  0  0  0
 84 86  1  0  0  0
 85165  1  0  0  0
 86166  1  0  0  0
M  CHG  1  86   1
M  ISO  4   1 100  68 101  80 101  85 100
M  END
> <chiral flag>
0

> <version>
0

> <s_m_source_file>
/data/baiqing/PycharmProjects/Reinvent-master-3.2/result/LINK_invent/BTK/process_docking_weight1_custom_sum_contain_oxygen_bond_distance_aromatic_linkinvent_7_9_3/rearranged_h_0134.sdf

> <i_m_source_file_index>
15

> <r_mmod_Potential_Energy-OPLS-2005>
-97.6954574584961

> <r_mmod_Stretch_Energy-OPLS-2005>
36.2681121826172

> <r_mmod_Bend_Energy-OPLS-2005>
125.997314453125

> <r_mmod_Torsional_Energy-OPLS-2005>
280.673797607422

> <r_mmod_Improper_Torsional_Energy-OPLS-2005>
5.95424032211304

> <r_mmod_Van_der_Waal_Energy-OPLS-2005>
148.746963500977

> <r_mmod_Electrostatic_Energy-OPLS-2005>
-267.07373046875

> <r_mmod_Solvation_Energy-OPLS-2005>
-438.153747558594

> <b_mmod_Minimization_Converged-OPLS-2005>
0

> <r_mmod_RMS_Derivative-OPLS-2005>
0.808319330215454

$$$$
15
                    3D
 Structure written by MMmdl.
178187  0  0  1  0            999 V2000
  -29.2911  -16.2251   20.9937 C   0  0  0  0  0  0
  -30.1880  -13.6941   19.8271 C   0  0  0  0  0  0
  -29.5491  -12.9516   18.5602 C   0  0  0  0  0  0
  -28.1837  -12.3460   18.8852 C   0  0  0  0  0  0
  -27.4981  -13.3165   19.8586 C   0  0  2  0  0  0
  -28.3159  -13.6801   21.1142 C   0  0  0  0  0  0
  -25.1728  -13.8141   20.5690 C   0  0  0  0  0  0
  -24.1217  -13.0280   20.9243 C   0  0  0  0  0  0
  -24.6004  -11.6816   20.8740 C   0  0  0  0  0  0
  -23.8862  -10.4177   21.0418 C   0  0  0  0  0  0
  -24.3477   -9.4131   21.9204 C   0  0  0  0  0  0
  -23.6202   -8.2138   22.0754 C   0  0  0  0  0  0
  -22.4173   -8.0174   21.3563 C   0  0  0  0  0  0
  -21.9780   -9.0109   20.4648 C   0  0  0  0  0  0
  -22.7054  -10.2011   20.3061 C   0  0  0  0  0  0
  -21.6794   -6.0679   22.5299 C   0  0  0  0  0  0
  -21.3972   -6.5606   23.8229 C   0  0  0  0  0  0
  -21.3637   -5.6776   24.9205 C   0  0  0  0  0  0
  -21.6045   -4.3038   24.7258 C   0  0  0  0  0  0
  -21.8809   -3.8113   23.4379 C   0  0  0  0  0  0
  -21.9183   -4.6921   22.3432 C   0  0  0  0  0  0
  -22.7315  -13.5071   21.1963 C   0  0  0  0  0  0
  -22.1650   -4.2094   21.1015 F   0  0  0  0  0  0
  -21.5642   -3.4539   25.7787 F   0  0  0  0  0  0
  -29.2609  -14.7001   20.6946 N   0  0  0  0  0  0
  -26.1943  -12.9382   20.2870 N   0  0  0  0  0  0
  -25.8859  -11.6500   20.5495 N   0  0  0  0  0  0
  -21.9999  -12.8138   22.0570 N   0  0  0  0  0  0
  -25.3485  -15.1918   20.4340 N   0  0  0  0  0  0
  -30.4956  -16.3577   20.5639 O   0  0  0  0  0  0
  -21.6553   -6.8777   21.4245 O   0  0  0  0  0  0
  -22.3062  -14.5376   20.6776 O   0  0  0  0  0  0
  -24.5477  -31.8069   23.2263 C   0  0  0  0  0  0
  -25.8384  -32.4650   23.8388 C   0  0  1  0  0  0
  -27.0772  -27.4771   19.8727 C   0  0  0  0  0  0
  -25.5204  -33.8504   24.2117 N   0  0  0  0  0  0
  -23.4680  -30.1575   21.5669 C   0  0  2  0  0  0
  -25.0269  -29.2924   19.8997 C   0  0  0  0  0  0
  -23.2801  -28.7086   22.3242 C   0  0  0  0  0  0
  -18.0958  -27.7886   23.1552 C   0  0  0  0  0  0
  -24.1473  -36.7273   23.2719 C   0  0  0  0  0  0
  -25.9914  -30.7233   21.5938 C   0  0  0  0  0  0
  -26.0905  -29.4785   20.7699 C   0  0  0  0  0  0
  -27.1265  -28.5096   20.8449 C   0  0  0  0  0  0
  -26.2843  -27.6400   18.7585 C   0  0  0  0  0  0
  -25.1902  -28.4793   18.8129 C   0  0  0  0  0  0
  -23.8238  -30.1336   20.0632 C   0  0  0  0  0  0
  -25.4041  -36.3047   24.0435 C   0  0  1  0  0  0
  -21.3253  -26.0126   22.5786 C   0  0  2  0  0  0
  -21.2336  -25.9855   21.0585 C   0  0  0  0  0  0
  -18.9249  -27.7782   20.3057 C   0  0  0  0  0  0
  -17.8112  -28.0643   21.5579 C   0  0  0  0  0  0
  -19.4761  -27.2977   23.8645 C   0  0  0  0  0  0
  -19.4942  -28.8088   24.3357 C   0  0  0  0  0  0
  -18.4796  -29.9172   24.4156 C   0  0  0  0  0  0
  -25.8761  -34.9376   23.5130 C   0  0  0  0  0  0
  -17.1239  -29.7173   24.1039 C   0  0  0  0  0  0
  -16.9183  -28.4315   23.6377 C   0  0  0  0  0  0
  -26.4209  -31.6676   25.0778 C   0  0  0  0  0  0
  -25.3632  -31.3980   26.1662 C   0  0  0  0  0  0
  -27.0436  -30.3012   24.6984 C   0  0  0  0  0  0
  -27.5746  -32.4699   25.7032 C   0  0  0  0  0  0
  -27.5579  -37.1733   24.8499 C   0  0  0  0  0  0
  -22.7660  -27.3095   21.9736 N   0  0  0  0  0  0
  -26.4292  -37.3695   23.9443 N   0  0  0  0  0  0
  -24.6465  -30.9449   22.1770 N   0  0  0  0  0  0
  -23.7141  -28.9225   23.4436 O   0  0  0  0  0  0
  -27.4644  -26.1873   19.9613 O   0  0  0  0  0  0
  -26.5652  -34.8764   22.4896 O   0  0  0  0  0  0
  -23.4594  -32.0944   23.7345 O   0  0  0  0  0  0
  -19.9913  -26.0269   18.9992 C   0  0  0  0  0  0
  -19.0616  -25.4340   20.2116 C   0  0  0  0  0  0
  -21.1761  -28.2995   20.4247 C   0  0  0  0  0  0
  -20.4881  -27.9256   21.9869 C   0  0  0  0  0  0
  -21.0512  -27.2853   19.0941 C   0  0  0  0  0  0
  -19.1540  -26.1076   21.7434 C   0  0  0  0  0  0
  -23.7227  -26.1806   24.0366 C   0  0  0  0  0  0
  -22.3447  -25.3443   24.7991 C   0  0  0  0  0  0
  -24.4625  -24.6993   23.0761 C   0  0  0  0  0  0
  -23.2039  -23.6176   24.2319 C   0  0  0  0  0  0
  -22.0166  -27.2421   24.1953 C   0  0  2  0  0  0
  -24.8076  -22.9230   23.4294 C   0  0  2  0  0  0
  -18.5293  -25.0508   22.7304 C   0  0  0  0  0  0
  -22.4386  -26.8454   18.3438 C   0  0  0  0  0  0
  -25.8165  -20.8865   22.7987 C   0  0  0  0  0  0
  -27.2613  -19.3408   21.7888 C   0  0  0  0  0  0
  -24.7938  -25.3595   18.9388 C   0  0  0  0  0  0
  -26.2158  -25.2846   19.8652 C   0  0  0  0  0  0
  -28.1864  -17.4647   21.6452 N   0  0  0  0  0  0
  -23.6661  -26.4004   19.2274 N   0  3  0  0  0  0
  -31.0691  -14.2305   19.4706 H   0  0  0  0  0  0
  -30.6230  -12.9427   20.4840 H   0  0  0  0  0  0
  -30.2248  -12.1856   18.1726 H   0  0  0  0  0  0
  -29.4270  -13.6747   17.7554 H   0  0  0  0  0  0
  -28.3240  -11.3744   19.3634 H   0  0  0  0  0  0
  -27.5891  -12.1671   17.9896 H   0  0  0  0  0  0
  -27.3521  -14.2151   19.2521 H   0  0  0  0  0  0
  -28.7683  -12.8009   21.5785 H   0  0  0  0  0  0
  -27.6836  -14.1407   21.8752 H   0  0  0  0  0  0
  -25.2610   -9.5619   22.4786 H   0  0  0  0  0  0
  -23.9896   -7.4528   22.7483 H   0  0  0  0  0  0
  -21.0692   -8.8593   19.8979 H   0  0  0  0  0  0
  -22.3487  -10.9528   19.6152 H   0  0  0  0  0  0
  -21.1929   -7.6110   23.9706 H   0  0  0  0  0  0
  -21.1481   -6.0529   25.9113 H   0  0  0  0  0  0
  -22.0614   -2.7565   23.2915 H   0  0  0  0  0  0
  -22.3616  -11.9819   22.4979 H   0  0  0  0  0  0
  -21.0626  -13.1221   22.2749 H   0  0  0  0  0  0
  -24.5965  -15.8544   20.5936 H   0  0  0  0  0  0
  -26.2124  -15.6325   20.1447 H   0  0  0  0  0  0
  -26.6339  -32.5449   23.1041 H   0  0  0  0  0  0
  -24.8984  -33.9776   24.9969 H   0  0  0  0  0  0
  -22.5607  -30.7400   21.7236 H   0  0  0  0  0  0
  -23.3691  -35.9670   23.3394 H   0  0  0  0  0  0
  -24.3602  -36.8813   22.2157 H   0  0  0  0  0  0
  -23.7240  -37.6470   23.6649 H   0  0  0  0  0  0
  -26.2607  -31.5915   20.9931 H   0  0  0  0  0  0
  -26.7780  -30.6076   22.3122 H   0  0  0  0  0  0
  -27.7962  -28.4598   21.6951 H   0  0  0  0  0  0
  -26.4109  -27.0124   17.8812 H   0  0  0  0  0  0
  -24.5226  -28.5618   17.9684 H   0  0  0  0  0  0
  -24.1062  -31.1558   19.7782 H   0  0  0  0  0  0
  -23.0998  -29.9300   19.2896 H   0  0  0  0  0  0
  -25.1255  -36.1904   25.0966 H   0  0  0  0  0  0
  -21.5074  -24.9510   22.7619 H   0  0  0  0  0  0
  -21.0831  -24.8951   20.9405 H   0  0  0  0  0  0
  -22.1121  -25.7045   20.5626 H   0  0  0  0  0  0
  -19.0663  -28.7946   19.9074 H   0  0  0  0  0  0
  -18.2554  -27.5150   19.4727 H   0  0  0  0  0  0
  -17.4819  -29.1024   21.4151 H   0  0  0  0  0  0
  -16.9142  -27.4967   21.3025 H   0  0  0  0  0  0
  -20.4691  -29.2086   24.5665 H   0  0  0  0  0  0
  -18.7946  -30.8883   24.7726 H   0  0  0  0  0  0
  -16.3437  -30.4595   24.2258 H   0  0  0  0  0  0
  -15.9597  -28.2916   23.1615 H   0  0  0  0  0  0
  -24.5788  -30.7139   25.8376 H   0  0  0  0  0  0
  -24.8781  -32.3230   26.4767 H   0  0  0  0  0  0
  -25.8087  -30.9626   27.0599 H   0  0  0  0  0  0
  -27.3702  -29.7561   25.5869 H   0  0  0  0  0  0
  -26.3335  -29.6459   24.1929 H   0  0  0  0  0  0
  -27.9335  -30.4128   24.0757 H   0  0  0  0  0  0
  -27.2373  -33.4232   26.1045 H   0  0  0  0  0  0
  -28.3335  -32.6791   24.9484 H   0  0  0  0  0  0
  -28.0416  -31.9189   26.5200 H   0  0  0  0  0  0
  -28.2565  -38.0028   24.7438 H   0  0  0  0  0  0
  -28.1023  -36.2542   24.6339 H   0  0  0  0  0  0
  -27.2342  -37.1458   25.8905 H   0  0  0  0  0  0
  -22.5876  -27.4018   20.9934 H   0  0  0  0  0  0
  -26.0189  -38.2810   24.1215 H   0  0  0  0  0  0
  -19.9848  -25.4335   18.0941 H   0  0  0  0  0  0
  -18.4356  -24.5656   20.0323 H   0  0  0  0  0  0
  -21.6148  -29.2563   20.3319 H   0  0  0  0  0  0
  -24.4583  -26.8386   23.6248 H   0  0  0  0  0  0
  -24.2769  -26.2199   24.9917 H   0  0  0  0  0  0
  -22.5678  -25.4266   25.8742 H   0  0  0  0  0  0
  -21.3221  -24.9942   24.9596 H   0  0  0  0  0  0
  -25.4865  -25.0446   22.8929 H   0  0  0  0  0  0
  -23.9837  -24.7504   22.1001 H   0  0  0  0  0  0
  -22.3870  -23.1070   23.7037 H   0  0  0  0  0  0
  -23.2050  -23.0605   25.1784 H   0  0  0  0  0  0
  -22.1432  -27.9998   24.9679 H   0  0  0  0  0  0
  -25.6041  -23.1305   24.1470 H   0  0  0  0  0  0
  -17.5125  -25.3244   23.0234 H   0  0  0  0  0  0
  -19.1104  -24.8853   23.6387 H   0  0  0  0  0  0
  -18.4329  -24.0716   22.2611 H   0  0  0  0  0  0
  -22.6958  -27.6425   17.6410 H   0  0  0  0  0  0
  -22.2230  -25.9941   17.6821 H   0  0  0  0  0  0
  -26.2422  -20.7131   23.7860 H   0  0  0  0  0  0
  -24.9060  -20.2820   22.7511 H   0  0  0  0  0  0
  -28.0700  -19.9771   21.4160 H   0  0  0  0  0  0
  -26.6799  -19.2124   20.8626 H   0  0  0  0  0  0
  -24.3024  -24.4073   19.1296 H   0  0  0  0  0  0
  -25.0015  -25.3193   17.8721 H   0  0  0  0  0  0
  -26.6348  -24.3068   19.6258 H   0  0  0  0  0  0
  -25.9289  -25.1881   20.8983 H   0  0  0  0  0  0
  -28.0473  -17.0792   22.5995 H   0  0  0  0  0  0
  -23.2422  -26.0388   20.0622 H   0  0  0  0  0  0
  -24.1528  -27.2642   19.4560 H   0  0  0  0  0  0
  1 25  1  0  0  0
  1 30  2  0  0  0
  1 89  1  0  0  0
  2  3  1  0  0  0
  2 25  1  0  0  0
  2 91  1  0  0  0
  2 92  1  0  0  0
  3  4  1  0  0  0
  3 93  1  0  0  0
  3 94  1  0  0  0
  4  5  1  0  0  0
  4 95  1  0  0  0
  4 96  1  0  0  0
  5  6  1  0  0  0
  5 26  1  0  0  0
  5 97  1  0  0  0
  6 25  1  0  0  0
  6 98  1  0  0  0
  6 99  1  0  0  0
  7  8  2  0  0  0
  7 26  1  0  0  0
  7 29  1  0  0  0
  8  9  1  0  0  0
  8 22  1  0  0  0
  9 10  1  0  0  0
  9 27  2  0  0  0
 10 11  2  0  0  0
 10 15  1  0  0  0
 11 12  1  0  0  0
 11100  1  0  0  0
 12 13  2  0  0  0
 12101  1  0  0  0
 13 14  1  0  0  0
 13 31  1  0  0  0
 14 15  2  0  0  0
 14102  1  0  0  0
 15103  1  0  0  0
 16 17  2  0  0  0
 16 21  1  0  0  0
 16 31  1  0  0  0
 17 18  1  0  0  0
 17104  1  0  0  0
 18 19  2  0  0  0
 18105  1  0  0  0
 19 20  1  0  0  0
 19 24  1  0  0  0
 20 21  2  0  0  0
 20106  1  0  0  0
 21 23  1  0  0  0
 22 28  1  0  0  0
 22 32  2  0  0  0
 26 27  1  0  0  0
 28107  1  0  0  0
 28108  1  0  0  0
 29109  1  0  0  0
 29110  1  0  0  0
 33 34  1  0  0  0
 33 66  1  0  0  0
 33 70  2  0  0  0
 34 36  1  0  0  0
 34 59  1  0  0  0
 34111  1  0  0  0
 35 44  2  0  0  0
 35 45  1  0  0  0
 35 68  1  0  0  0
 36 56  1  0  0  0
 36112  1  0  0  0
 37 39  1  0  0  0
 37 47  1  0  0  0
 37 66  1  0  0  0
 37113  1  0  0  0
 38 43  2  0  0  0
 38 46  1  0  0  0
 38 47  1  0  0  0
 39 64  1  0  0  0
 39 67  2  0  0  0
 40 52  1  0  0  0
 40 53  2  0  0  0
 40 58  1  0  0  0
 41114  1  0  0  0
 41115  1  0  0  0
 41116  1  0  0  0
 41 48  1  0  0  0
 42 43  1  0  0  0
 42 66  1  0  0  0
 42117  1  0  0  0
 42118  1  0  0  0
 43 44  1  0  0  0
 44119  1  0  0  0
 45 46  2  0  0  0
 45120  1  0  0  0
 46121  1  0  0  0
 47122  1  0  0  0
 47123  1  0  0  0
 48 56  1  0  0  0
 48 65  1  0  0  0
 48124  1  0  0  0
 49 50  1  0  0  0
 49 53  1  0  0  0
 49 64  1  0  0  0
 49125  1  0  0  0
 50 51  1  0  0  0
 50126  1  0  0  0
 50127  1  0  0  0
 51 52  1  0  0  0
 51128  1  0  0  0
 51129  1  0  0  0
 52130  1  0  0  0
 52131  1  0  0  0
 53 54  1  0  0  0
 54 55  2  0  0  0
 54132  1  0  0  0
 55 57  1  0  0  0
 55133  1  0  0  0
 56 69  2  0  0  0
 57 58  2  0  0  0
 57134  1  0  0  0
 58135  1  0  0  0
 59 60  1  0  0  0
 59 61  1  0  0  0
 59 62  1  0  0  0
 60136  1  0  0  0
 60137  1  0  0  0
 60138  1  0  0  0
 61139  1  0  0  0
 61140  1  0  0  0
 61141  1  0  0  0
 62142  1  0  0  0
 62143  1  0  0  0
 62144  1  0  0  0
 63 65  1  0  0  0
 63145  1  0  0  0
 63146  1  0  0  0
 63147  1  0  0  0
 64148  1  0  0  0
 65149  1  0  0  0
 68 88  1  0  0  0
 71 72  2  0  0  0
 71 75  1  0  0  0
 71150  1  0  0  0
 72 76  1  0  0  0
 72151  1  0  0  0
 73 74  1  0  0  0
 73 75  2  0  0  0
 73152  1  0  0  0
 74 76  2  0  0  0
 74 81  1  0  0  0
 75 84  1  0  0  0
 76 83  1  0  0  0
 77 79  1  0  0  0
 77 81  1  0  0  0
 77153  1  0  0  0
 77154  1  0  0  0
 78 80  1  0  0  0
 78 81  1  0  0  0
 78155  1  0  0  0
 78156  1  0  0  0
 79 82  1  0  0  0
 79157  1  0  0  0
 79158  1  0  0  0
 80 82  1  0  0  0
 80159  1  0  0  0
 80160  1  0  0  0
 81161  1  0  0  0
 82 85  1  0  0  0
 82162  1  0  0  0
 83163  1  0  0  0
 83164  1  0  0  0
 83165  1  0  0  0
 84 90  1  0  0  0
 84166  1  0  0  0
 84167  1  0  0  0
 85 86  1  0  0  0
 85168  1  0  0  0
 85169  1  0  0  0
 86 89  1  0  0  0
 86170  1  0  0  0
 86171  1  0  0  0
 87 88  1  0  0  0
 87 90  1  0  0  0
 87172  1  0  0  0
 87173  1  0  0  0
 88174  1  0  0  0
 88175  1  0  0  0
 89176  1  0  0  0
 90177  1  0  0  0
 90178  1  0  0  0
M  CHG  1  90   1
M  ISO  4   1 100  68 101  88 101  89 100
M  END
> <chiral flag>
0

> <version>
0

> <s_m_source_file>
/data/baiqing/PycharmProjects/Reinvent-master-3.2/result/LINK_invent/BTK/process_docking_weight1_custom_sum_contain_oxygen_bond_distance_aromatic_linkinvent_7_9_3/rearranged_h_0134.sdf

> <i_m_source_file_index>
16

> <r_mmod_Potential_Energy-OPLS-2005>
25823.53515625

> <r_mmod_Stretch_Energy-OPLS-2005>
13307.546875

> <r_mmod_Bend_Energy-OPLS-2005>
2658.455078125

> <r_mmod_Torsional_Energy-OPLS-2005>
791.819702148438

> <r_mmod_Improper_Torsional_Energy-OPLS-2005>
78.2017669677734

> <r_mmod_Van_der_Waal_Energy-OPLS-2005>
4557.3359375

> <r_mmod_Electrostatic_Energy-OPLS-2005>
-255.719757080078

> <r_mmod_Solvation_Energy-OPLS-2005>
-452.680725097656

> <b_mmod_Minimization_Converged-OPLS-2005>
0

> <r_mmod_RMS_Derivative-OPLS-2005>
29.7155475616455

$$$$
16
                    3D
 Structure written by MMmdl.
160168  0  0  1  0            999 V2000
  -30.5178  -14.9333   20.4312 C   0  0  0  0  0  0
  -30.4496  -12.5772   19.5001 C   0  0  0  0  0  0
  -29.5294  -12.5553   18.2556 C   0  0  0  0  0  0
  -28.0579  -12.3433   18.6639 C   0  0  0  0  0  0
  -27.6384  -13.2501   19.8519 C   0  0  2  0  0  0
  -28.6825  -13.2286   20.9907 C   0  0  0  0  0  0
  -25.2468  -13.8214   20.5702 C   0  0  0  0  0  0
  -24.1783  -13.0438   20.9210 C   0  0  0  0  0  0
  -24.6402  -11.6923   20.8739 C   0  0  0  0  0  0
  -23.9076  -10.4298   21.0403 C   0  0  0  0  0  0
  -24.3624   -9.4211   21.9179 C   0  0  0  0  0  0
  -23.6298   -8.2245   22.0749 C   0  0  0  0  0  0
  -22.4278   -8.0282   21.3538 C   0  0  0  0  0  0
  -21.9914   -9.0260   20.4650 C   0  0  0  0  0  0
  -22.7241  -10.2140   20.3055 C   0  0  0  0  0  0
  -21.6852   -6.0737   22.5276 C   0  0  0  0  0  0
  -21.4016   -6.5635   23.8212 C   0  0  0  0  0  0
  -21.3662   -5.6783   24.9170 C   0  0  0  0  0  0
  -21.6051   -4.3048   24.7214 C   0  0  0  0  0  0
  -21.8819   -3.8141   23.4333 C   0  0  0  0  0  0
  -21.9189   -4.6963   22.3391 C   0  0  0  0  0  0
  -22.7802  -13.5217   21.1859 C   0  0  0  0  0  0
  -22.1664   -4.2149   21.0968 F   0  0  0  0  0  0
  -21.5629   -3.4531   25.7727 F   0  0  0  0  0  0
  -29.9649  -13.6528   20.4106 N   0  0  0  0  0  0
  -26.2920  -12.9457   20.3272 N   0  0  0  0  0  0
  -25.9341  -11.6578   20.5720 N   0  0  0  0  0  0
  -22.0443  -12.8229   22.0425 N   0  0  0  0  0  0
  -25.4105  -15.1946   20.4139 N   0  0  0  0  0  0
  -31.6947  -15.0561   20.0731 O   0  0  0  0  0  0
  -21.6638   -6.8883   21.4241 O   0  0  0  0  0  0
  -22.3488  -14.5512   20.6688 O   0  0  0  0  0  0
  -24.6437  -31.8438   23.1887 C   0  0  0  0  0  0
  -25.9207  -32.4695   23.8278 C   0  0  1  0  0  0
  -27.2199  -27.1310   20.1463 C   0  0  0  0  0  0
  -25.5943  -33.8503   24.2192 N   0  0  0  0  0  0
  -23.4483  -30.4631   21.5333 C   0  0  2  0  0  0
  -24.8988  -28.8899   20.1079 C   0  0  0  0  0  0
  -22.7568  -29.4545   22.4846 C   0  0  0  0  0  0
  -18.0310  -28.1390   22.8478 C   0  0  0  0  0  0
  -24.1482  -36.7255   23.2639 C   0  0  0  0  0  0
  -26.0046  -30.7122   21.3928 C   0  0  0  0  0  0
  -26.0748  -29.3241   20.7315 C   0  0  0  0  0  0
  -27.2327  -28.4588   20.7380 C   0  0  0  0  0  0
  -26.0233  -26.8088   19.4665 C   0  0  0  0  0  0
  -24.8862  -27.6459   19.4603 C   0  0  0  0  0  0
  -23.6764  -29.7927   20.1527 C   0  0  0  0  0  0
  -25.4115  -36.3033   24.0315 C   0  0  1  0  0  0
  -20.5920  -28.3725   23.1226 C   0  0  2  0  0  0
  -20.6790  -26.9426   22.5398 C   0  0  0  0  0  0
  -19.5769  -26.6378   21.5204 C   0  0  0  0  0  0
  -18.1951  -26.7927   22.1620 C   0  0  0  0  0  0
  -19.1565  -28.8877   23.2846 C   0  0  0  0  0  0
  -18.9480  -30.1470   23.8879 C   0  0  0  0  0  0
  -17.6475  -30.6591   24.0556 C   0  0  0  0  0  0
  -25.9070  -34.9408   23.5065 C   0  0  0  0  0  0
  -16.5367  -29.9083   23.6329 C   0  0  0  0  0  0
  -16.7298  -28.6495   23.0369 C   0  0  0  0  0  0
  -26.4521  -31.6580   25.0737 C   0  0  0  0  0  0
  -25.3698  -31.3781   26.1428 C   0  0  0  0  0  0
  -27.0391  -30.2967   24.6354 C   0  0  0  0  0  0
  -27.6042  -32.4358   25.7528 C   0  0  0  0  0  0
  -27.5586  -37.1766   24.8452 C   0  0  0  0  0  0
  -21.4263  -29.3048   22.3585 N   0  0  0  0  0  0
  -26.4272  -37.3758   23.9424 N   0  0  0  0  0  0
  -24.7182  -31.0284   22.0927 N   0  0  0  0  0  0
  -23.4204  -28.8092   23.3002 O   0  0  0  0  0  0
  -28.2717  -26.1425   20.2434 O   0  0  0  0  0  0
  -26.5666  -34.8904   22.4648 O   0  0  0  0  0  0
  -23.5557  -32.1319   23.7103 O   0  0  0  0  0  0
  -29.1167  -19.9029   21.4327 C   0  0  0  0  0  0
  -29.7027  -17.5779   20.5495 C   0  0  0  0  0  0
  -29.3314  -18.4683   21.6187 C   0  0  0  0  0  0
  -29.8126  -18.3069   19.3170 C   0  0  0  0  0  0
  -29.2189  -20.5335   20.1576 C   0  0  0  0  0  0
  -30.1099  -17.5636   18.0304 C   0  0  0  0  0  0
  -28.3099  -18.4130   26.4629 C   0  0  0  0  0  0
  -28.6755  -17.6725   25.1711 C   0  0  0  0  0  0
  -28.7331  -18.6027   23.9532 C   0  0  0  0  0  0
  -28.0716  -24.6278   19.9070 C   0  0  0  0  0  0
  -28.8552  -23.2467   20.5039 C   0  0  0  0  0  0
  -29.5785  -19.6711   19.1470 N   0  0  0  0  0  0
  -29.6999  -16.0488   20.7370 N   0  0  0  0  0  0
  -29.1587  -17.8375   22.8350 O   0  0  0  0  0  0
  -28.8926  -21.9044   19.7451 O   0  0  0  0  0  0
  -31.4857  -12.7399   19.1991 H   0  0  0  0  0  0
  -30.4410  -11.6108   20.0068 H   0  0  0  0  0  0
  -29.8481  -11.7791   17.5588 H   0  0  0  0  0  0
  -29.6230  -13.5004   17.7167 H   0  0  0  0  0  0
  -27.9388  -11.2949   18.9411 H   0  0  0  0  0  0
  -27.4013  -12.5095   17.8086 H   0  0  0  0  0  0
  -27.6145  -14.2657   19.4546 H   0  0  0  0  0  0
  -28.7600  -12.2317   21.4261 H   0  0  0  0  0  0
  -28.3864  -13.8925   21.8042 H   0  0  0  0  0  0
  -25.2782   -9.5693   22.4739 H   0  0  0  0  0  0
  -24.0018   -7.4640   22.7469 H   0  0  0  0  0  0
  -21.0839   -8.8777   19.8961 H   0  0  0  0  0  0
  -22.3700  -10.9674   19.6159 H   0  0  0  0  0  0
  -21.2016   -7.6145   23.9717 H   0  0  0  0  0  0
  -21.1489   -6.0509   25.9074 H   0  0  0  0  0  0
  -22.0599   -2.7602   23.2817 H   0  0  0  0  0  0
  -22.4054  -11.9922   22.4874 H   0  0  0  0  0  0
  -21.1057  -13.1257   22.2593 H   0  0  0  0  0  0
  -24.6343  -15.8391   20.5166 H   0  0  0  0  0  0
  -26.2518  -15.6423   20.0735 H   0  0  0  0  0  0
  -26.7272  -32.5295   23.1004 H   0  0  0  0  0  0
  -25.0039  -33.9616   25.0304 H   0  0  0  0  0  0
  -22.7513  -31.2893   21.3780 H   0  0  0  0  0  0
  -23.3767  -35.9562   23.3250 H   0  0  0  0  0  0
  -24.3573  -36.8945   22.2066 H   0  0  0  0  0  0
  -23.7203  -37.6415   23.6715 H   0  0  0  0  0  0
  -26.1658  -31.4677   20.6231 H   0  0  0  0  0  0
  -26.8727  -30.7565   22.0390 H   0  0  0  0  0  0
  -28.1252  -28.7822   21.2559 H   0  0  0  0  0  0
  -25.9300  -25.8695   18.9444 H   0  0  0  0  0  0
  -23.9900  -27.3125   18.9548 H   0  0  0  0  0  0
  -23.8156  -30.5670   19.3976 H   0  0  0  0  0  0
  -22.7914  -29.2360   19.8399 H   0  0  0  0  0  0
  -25.1294  -36.1846   25.0806 H   0  0  0  0  0  0
  -21.0021  -28.3317   24.1345 H   0  0  0  0  0  0
  -20.5668  -26.2347   23.3624 H   0  0  0  0  0  0
  -21.6657  -26.7419   22.1208 H   0  0  0  0  0  0
  -19.6926  -25.6277   21.1265 H   0  0  0  0  0  0
  -19.6704  -27.3163   20.6713 H   0  0  0  0  0  0
  -17.4216  -26.6678   21.4026 H   0  0  0  0  0  0
  -18.0357  -26.0071   22.9023 H   0  0  0  0  0  0
  -19.7958  -30.7286   24.2250 H   0  0  0  0  0  0
  -17.5035  -31.6270   24.5161 H   0  0  0  0  0  0
  -15.5370  -30.2985   23.7660 H   0  0  0  0  0  0
  -15.8697  -28.0801   22.7113 H   0  0  0  0  0  0
  -24.5848  -30.7174   25.7726 H   0  0  0  0  0  0
  -24.8929  -32.2982   26.4823 H   0  0  0  0  0  0
  -25.7961  -30.8943   27.0229 H   0  0  0  0  0  0
  -26.3022  -29.6685   24.1340 H   0  0  0  0  0  0
  -27.3948  -29.7274   25.4952 H   0  0  0  0  0  0
  -27.8954  -30.4177   23.9718 H   0  0  0  0  0  0
  -27.2610  -33.3655   26.2083 H   0  0  0  0  0  0
  -28.3867  -32.6941   25.0379 H   0  0  0  0  0  0
  -28.0710  -31.8519   26.5473 H   0  0  0  0  0  0
  -28.2539  -38.0124   24.7572 H   0  0  0  0  0  0
  -28.1137  -36.2654   24.6167 H   0  0  0  0  0  0
  -27.2320  -37.1286   25.8855 H   0  0  0  0  0  0
  -20.9478  -29.8753   21.6748 H   0  0  0  0  0  0
  -26.0132  -38.2807   24.1479 H   0  0  0  0  0  0
  -28.8104  -20.5282   22.2558 H   0  0  0  0  0  0
  -30.8742  -16.8030   18.1859 H   0  0  0  0  0  0
  -30.4704  -18.2399   17.2540 H   0  0  0  0  0  0
  -29.2058  -17.0765   17.6649 H   0  0  0  0  0  0
  -28.2605  -17.7257   27.3080 H   0  0  0  0  0  0
  -27.3385  -18.9016   26.3795 H   0  0  0  0  0  0
  -29.0504  -19.1776   26.7002 H   0  0  0  0  0  0
  -27.9507  -16.8778   24.9896 H   0  0  0  0  0  0
  -29.6423  -17.1823   25.2968 H   0  0  0  0  0  0
  -29.4279  -19.4209   24.1500 H   0  0  0  0  0  0
  -27.7461  -19.0276   23.7630 H   0  0  0  0  0  0
  -27.0166  -24.4019   20.0535 H   0  0  0  0  0  0
  -28.2131  -24.5931   18.8274 H   0  0  0  0  0  0
  -28.4861  -23.0493   21.5095 H   0  0  0  0  0  0
  -29.9033  -23.5148   20.6364 H   0  0  0  0  0  0
  -28.8679  -15.7389   21.2187 H   0  0  0  0  0  0
  1 25  1  0  0  0
  1 30  2  0  0  0
  1 83  1  0  0  0
  2  3  1  0  0  0
  2 25  1  0  0  0
  2 86  1  0  0  0
  2 87  1  0  0  0
  3  4  1  0  0  0
  3 88  1  0  0  0
  3 89  1  0  0  0
  4  5  1  0  0  0
  4 90  1  0  0  0
  4 91  1  0  0  0
  5  6  1  0  0  0
  5 26  1  0  0  0
  5 92  1  0  0  0
  6 25  1  0  0  0
  6 93  1  0  0  0
  6 94  1  0  0  0
  7  8  2  0  0  0
  7 26  1  0  0  0
  7 29  1  0  0  0
  8  9  1  0  0  0
  8 22  1  0  0  0
  9 10  1  0  0  0
  9 27  2  0  0  0
 10 11  2  0  0  0
 10 15  1  0  0  0
 11 12  1  0  0  0
 11 95  1  0  0  0
 12 13  2  0  0  0
 12 96  1  0  0  0
 13 14  1  0  0  0
 13 31  1  0  0  0
 14 15  2  0  0  0
 14 97  1  0  0  0
 15 98  1  0  0  0
 16 17  2  0  0  0
 16 21  1  0  0  0
 16 31  1  0  0  0
 17 18  1  0  0  0
 17 99  1  0  0  0
 18 19  2  0  0  0
 18100  1  0  0  0
 19 20  1  0  0  0
 19 24  1  0  0  0
 20 21  2  0  0  0
 20101  1  0  0  0
 21 23  1  0  0  0
 22 28  1  0  0  0
 22 32  2  0  0  0
 26 27  1  0  0  0
 28102  1  0  0  0
 28103  1  0  0  0
 29104  1  0  0  0
 29105  1  0  0  0
 33 34  1  0  0  0
 33 66  1  0  0  0
 33 70  2  0  0  0
 34 36  1  0  0  0
 34 59  1  0  0  0
 34106  1  0  0  0
 35 44  2  0  0  0
 35 45  1  0  0  0
 35 68  1  0  0  0
 36 56  1  0  0  0
 36107  1  0  0  0
 37 39  1  0  0  0
 37 47  1  0  0  0
 37 66  1  0  0  0
 37108  1  0  0  0
 38 43  2  0  0  0
 38 46  1  0  0  0
 38 47  1  0  0  0
 39 64  1  0  0  0
 39 67  2  0  0  0
 40 52  1  0  0  0
 40 53  2  0  0  0
 40 58  1  0  0  0
 41109  1  0  0  0
 41110  1  0  0  0
 41111  1  0  0  0
 41 48  1  0  0  0
 42 43  1  0  0  0
 42 66  1  0  0  0
 42112  1  0  0  0
 42113  1  0  0  0
 43 44  1  0  0  0
 44114  1  0  0  0
 45 46  2  0  0  0
 45115  1  0  0  0
 46116  1  0  0  0
 47117  1  0  0  0
 47118  1  0  0  0
 48 56  1  0  0  0
 48 65  1  0  0  0
 48119  1  0  0  0
 49 50  1  0  0  0
 49 53  1  0  0  0
 49 64  1  0  0  0
 49120  1  0  0  0
 50 51  1  0  0  0
 50121  1  0  0  0
 50122  1  0  0  0
 51 52  1  0  0  0
 51123  1  0  0  0
 51124  1  0  0  0
 52125  1  0  0  0
 52126  1  0  0  0
 53 54  1  0  0  0
 54 55  2  0  0  0
 54127  1  0  0  0
 55 57  1  0  0  0
 55128  1  0  0  0
 56 69  2  0  0  0
 57 58  2  0  0  0
 57129  1  0  0  0
 58130  1  0  0  0
 59 60  1  0  0  0
 59 61  1  0  0  0
 59 62  1  0  0  0
 60131  1  0  0  0
 60132  1  0  0  0
 60133  1  0  0  0
 61134  1  0  0  0
 61135  1  0  0  0
 61136  1  0  0  0
 62137  1  0  0  0
 62138  1  0  0  0
 62139  1  0  0  0
 63 65  1  0  0  0
 63140  1  0  0  0
 63141  1  0  0  0
 63142  1  0  0  0
 64143  1  0  0  0
 65144  1  0  0  0
 68 80  1  0  0  0
 71 73  2  0  0  0
 71 75  1  0  0  0
 71145  1  0  0  0
 72 73  1  0  0  0
 72 74  2  0  0  0
 72 83  1  0  0  0
 73 84  1  0  0  0
 74 76  1  0  0  0
 74 82  1  0  0  0
 75 82  2  0  0  0
 75 85  1  0  0  0
 76146  1  0  0  0
 76147  1  0  0  0
 76148  1  0  0  0
 77 78  1  0  0  0
 77149  1  0  0  0
 77150  1  0  0  0
 77151  1  0  0  0
 78 79  1  0  0  0
 78152  1  0  0  0
 78153  1  0  0  0
 79 84  1  0  0  0
 79154  1  0  0  0
 79155  1  0  0  0
 80 81  1  0  0  0
 80156  1  0  0  0
 80157  1  0  0  0
 81 85  1  0  0  0
 81158  1  0  0  0
 81159  1  0  0  0
 83160  1  0  0  0
M  ISO  4   1 100  68 101  80 101  83 100
M  END
> <chiral flag>
0

> <version>
0

> <s_m_source_file>
/data/baiqing/PycharmProjects/Reinvent-master-3.2/result/LINK_invent/BTK/process_docking_weight1_custom_sum_contain_oxygen_bond_distance_aromatic_linkinvent_7_9_3/rearranged_h_0134.sdf

> <i_m_source_file_index>
17

> <r_mmod_Potential_Energy-OPLS-2005>
243.152740478516

> <r_mmod_Stretch_Energy-OPLS-2005>
236.985046386719

> <r_mmod_Bend_Energy-OPLS-2005>
294.195953369141

> <r_mmod_Torsional_Energy-OPLS-2005>
237.674270629883

> <r_mmod_Improper_Torsional_Energy-OPLS-2005>
5.07464647293091

> <r_mmod_Van_der_Waal_Energy-OPLS-2005>
134.093383789062

> <r_mmod_Electrostatic_Energy-OPLS-2005>
-632.545654296875

> <r_mmod_Solvation_Energy-OPLS-2005>
-222.064270019531

> <b_mmod_Minimization_Converged-OPLS-2005>
0

> <r_mmod_RMS_Derivative-OPLS-2005>
1.85657393932343

$$$$
17
                    3D
 Structure written by MMmdl.
166175  0  0  1  0            999 V2000
  -30.6685  -14.5095   20.5730 C   0  0  0  0  0  0
  -30.4324  -12.3317   19.4213 C   0  0  0  0  0  0
  -29.4974  -12.5084   18.2059 C   0  0  0  0  0  0
  -28.0188  -12.3599   18.6198 C   0  0  0  0  0  0
  -27.6602  -13.2037   19.8722 C   0  0  2  0  0  0
  -28.7027  -12.9884   20.9920 C   0  0  0  0  0  0
  -25.2592  -13.8152   20.5679 C   0  0  0  0  0  0
  -24.1841  -13.0435   20.9178 C   0  0  0  0  0  0
  -24.6387  -11.6899   20.8732 C   0  0  0  0  0  0
  -23.9050  -10.4289   21.0402 C   0  0  0  0  0  0
  -24.3608   -9.4207   21.9178 C   0  0  0  0  0  0
  -23.6287   -8.2240   22.0751 C   0  0  0  0  0  0
  -22.4268   -8.0277   21.3542 C   0  0  0  0  0  0
  -21.9899   -9.0249   20.4645 C   0  0  0  0  0  0
  -22.7223  -10.2130   20.3053 C   0  0  0  0  0  0
  -21.6852   -6.0731   22.5278 C   0  0  0  0  0  0
  -21.4013   -6.5636   23.8211 C   0  0  0  0  0  0
  -21.3659   -5.6789   24.9173 C   0  0  0  0  0  0
  -21.6044   -4.3051   24.7224 C   0  0  0  0  0  0
  -21.8820   -3.8142   23.4345 C   0  0  0  0  0  0
  -21.9193   -4.6959   22.3401 C   0  0  0  0  0  0
  -22.7867  -13.5239   21.1843 C   0  0  0  0  0  0
  -22.1662   -4.2144   21.0979 F   0  0  0  0  0  0
  -21.5628   -3.4534   25.7736 F   0  0  0  0  0  0
  -30.0282  -13.3145   20.4387 N   0  0  0  0  0  0
  -26.3016  -12.9309   20.3348 N   0  0  0  0  0  0
  -25.9311  -11.6475   20.5754 N   0  0  0  0  0  0
  -22.0507  -12.8235   22.0402 N   0  0  0  0  0  0
  -25.4333  -15.1869   20.4089 N   0  0  0  0  0  0
  -31.8032  -14.7161   20.1334 O   0  0  0  0  0  0
  -21.6636   -6.8872   21.4239 O   0  0  0  0  0  0
  -22.3558  -14.5548   20.6693 O   0  0  0  0  0  0
  -24.6172  -31.8662   23.2079 C   0  0  0  0  0  0
  -25.9058  -32.4811   23.8382 C   0  0  1  0  0  0
  -27.2328  -27.3987   20.1145 C   0  0  0  0  0  0
  -25.5911  -33.8609   24.2316 N   0  0  0  0  0  0
  -23.4070  -30.4881   21.5489 C   0  0  2  0  0  0
  -24.8537  -28.9432   20.1230 C   0  0  0  0  0  0
  -22.7424  -29.4653   22.4988 C   0  0  0  0  0  0
  -18.0275  -28.1377   22.8493 C   0  0  0  0  0  0
  -24.1488  -36.7308   23.2635 C   0  0  0  0  0  0
  -25.9384  -30.8191   21.3675 C   0  0  0  0  0  0
  -26.0146  -29.4471   20.7234 C   0  0  0  0  0  0
  -27.2079  -28.6827   20.7149 C   0  0  0  0  0  0
  -26.0588  -26.9236   19.4945 C   0  0  0  0  0  0
  -24.8713  -27.6805   19.5060 C   0  0  0  0  0  0
  -23.6183  -29.8162   20.1658 C   0  0  0  0  0  0
  -25.4106  -36.3103   24.0338 C   0  0  1  0  0  0
  -20.5867  -28.3667   23.1314 C   0  0  2  0  0  0
  -20.6764  -26.9402   22.5416 C   0  0  0  0  0  0
  -19.5741  -26.6384   21.5213 C   0  0  0  0  0  0
  -18.1922  -26.7923   22.1628 C   0  0  0  0  0  0
  -19.1525  -28.8839   23.2899 C   0  0  0  0  0  0
  -18.9452  -30.1446   23.8906 C   0  0  0  0  0  0
  -17.6453  -30.6582   24.0564 C   0  0  0  0  0  0
  -25.9039  -34.9470   23.5122 C   0  0  0  0  0  0
  -16.5345  -29.9083   23.6326 C   0  0  0  0  0  0
  -16.7264  -28.6500   23.0347 C   0  0  0  0  0  0
  -26.4476  -31.6593   25.0719 C   0  0  0  0  0  0
  -25.3746  -31.3719   26.1476 C   0  0  0  0  0  0
  -27.0290  -30.3024   24.6109 C   0  0  0  0  0  0
  -27.6060  -32.4306   25.7475 C   0  0  0  0  0  0
  -27.5585  -37.1799   24.8457 C   0  0  0  0  0  0
  -21.4149  -29.3035   22.3722 N   0  0  0  0  0  0
  -26.4286  -37.3794   23.9421 N   0  0  0  0  0  0
  -24.6724  -31.0737   22.0994 N   0  0  0  0  0  0
  -23.4183  -28.8200   23.3046 O   0  0  0  0  0  0
  -28.4057  -26.6709   20.0312 O   0  0  0  0  0  0
  -26.5597  -34.8927   22.4682 O   0  0  0  0  0  0
  -23.5359  -32.1429   23.7457 O   0  0  0  0  0  0
  -28.0802  -22.8818   21.0026 C   0  0  0  0  0  0
  -30.3795  -23.7579   21.4528 C   0  0  0  0  0  0
  -27.7430  -24.2034   20.2461 C   0  0  0  0  0  0
  -30.0352  -25.0612   20.6978 C   0  0  0  0  0  0
  -30.0662  -17.8347   20.0773 C   0  0  0  0  0  0
  -29.3600  -17.5154   22.4208 C   0  0  0  0  0  0
  -30.3719  -19.3373   20.3776 C   0  0  0  0  0  0
  -29.6791  -19.0014   22.7121 C   0  0  0  0  0  0
  -29.5869  -22.5077   20.9839 C   0  0  1  0  0  0
  -30.2582  -16.9269   21.3170 C   0  0  1  0  0  0
  -28.5402  -25.4304   20.7679 C   0  0  1  0  0  0
  -29.9750  -21.2992   21.9110 C   0  0  0  0  0  0
  -29.9133  -15.5044   21.0906 N   0  0  0  0  0  0
  -29.5843  -19.8990   21.5193 N   0  3  1  0  0  0
  -31.4741  -12.4523   19.1185 H   0  0  0  0  0  0
  -30.3538  -11.3206   19.8236 H   0  0  0  0  0  0
  -29.7439  -11.7798   17.4322 H   0  0  0  0  0  0
  -29.6552  -13.4920   17.7604 H   0  0  0  0  0  0
  -27.8365  -11.3038   18.8220 H   0  0  0  0  0  0
  -27.3659  -12.6253   17.7875 H   0  0  0  0  0  0
  -27.7016  -14.2502   19.5697 H   0  0  0  0  0  0
  -28.6909  -11.9503   21.3269 H   0  0  0  0  0  0
  -28.4584  -13.5790   21.8761 H   0  0  0  0  0  0
  -25.2756   -9.5683   22.4746 H   0  0  0  0  0  0
  -24.0000   -7.4630   22.7468 H   0  0  0  0  0  0
  -21.0828   -8.8761   19.8954 H   0  0  0  0  0  0
  -22.3678  -10.9664   19.6158 H   0  0  0  0  0  0
  -21.2004   -7.6145   23.9713 H   0  0  0  0  0  0
  -21.1481   -6.0519   25.9076 H   0  0  0  0  0  0
  -22.0600   -2.7604   23.2844 H   0  0  0  0  0  0
  -22.4114  -11.9891   22.4787 H   0  0  0  0  0  0
  -21.1126  -13.1266   22.2607 H   0  0  0  0  0  0
  -24.6659  -15.8421   20.5105 H   0  0  0  0  0  0
  -26.2818  -15.6216   20.0694 H   0  0  0  0  0  0
  -26.7132  -32.5512   23.1145 H   0  0  0  0  0  0
  -25.0077  -33.9766   25.0472 H   0  0  0  0  0  0
  -22.6973  -31.3057   21.4064 H   0  0  0  0  0  0
  -23.3753  -35.9636   23.3288 H   0  0  0  0  0  0
  -24.3593  -36.8929   22.2053 H   0  0  0  0  0  0
  -23.7233  -37.6508   23.6652 H   0  0  0  0  0  0
  -26.0546  -31.5797   20.5941 H   0  0  0  0  0  0
  -26.8253  -30.8757   21.9869 H   0  0  0  0  0  0
  -28.1087  -29.0749   21.1660 H   0  0  0  0  0  0
  -26.0625  -25.9784   18.9730 H   0  0  0  0  0  0
  -23.9842  -27.2925   19.0247 H   0  0  0  0  0  0
  -23.7326  -30.5882   19.4040 H   0  0  0  0  0  0
  -22.7412  -29.2383   19.8687 H   0  0  0  0  0  0
  -25.1280  -36.1958   25.0829 H   0  0  0  0  0  0
  -20.9957  -28.3228   24.1436 H   0  0  0  0  0  0
  -20.5670  -26.2275   23.3603 H   0  0  0  0  0  0
  -21.6635  -26.7446   22.1204 H   0  0  0  0  0  0
  -19.6901  -25.6298   21.1235 H   0  0  0  0  0  0
  -19.6676  -27.3202   20.6749 H   0  0  0  0  0  0
  -17.4192  -26.6674   21.4029 H   0  0  0  0  0  0
  -18.0323  -26.0063   22.9021 H   0  0  0  0  0  0
  -19.7928  -30.7261   24.2277 H   0  0  0  0  0  0
  -17.5009  -31.6265   24.5160 H   0  0  0  0  0  0
  -15.5346  -30.2986   23.7646 H   0  0  0  0  0  0
  -15.8666  -28.0824   22.7050 H   0  0  0  0  0  0
  -24.5890  -30.7096   25.7821 H   0  0  0  0  0  0
  -24.8974  -32.2884   26.4954 H   0  0  0  0  0  0
  -25.8100  -30.8861   27.0217 H   0  0  0  0  0  0
  -26.2824  -29.6795   24.1168 H   0  0  0  0  0  0
  -27.4047  -29.7257   25.4571 H   0  0  0  0  0  0
  -27.8673  -30.4323   23.9262 H   0  0  0  0  0  0
  -27.2690  -33.3610   26.2058 H   0  0  0  0  0  0
  -28.3864  -32.6856   25.0293 H   0  0  0  0  0  0
  -28.0729  -31.8421   26.5382 H   0  0  0  0  0  0
  -28.2581  -38.0120   24.7547 H   0  0  0  0  0  0
  -28.1104  -36.2657   24.6222 H   0  0  0  0  0  0
  -27.2318  -37.1370   25.8862 H   0  0  0  0  0  0
  -20.9313  -29.8759   21.6944 H   0  0  0  0  0  0
  -26.0172  -38.2866   24.1445 H   0  0  0  0  0  0
  -27.4935  -22.0662   20.5787 H   0  0  0  0  0  0
  -27.7468  -22.9833   22.0367 H   0  0  0  0  0  0
  -30.2026  -23.9213   22.5173 H   0  0  0  0  0  0
  -31.4499  -23.5702   21.3551 H   0  0  0  0  0  0
  -26.6739  -24.3819   20.3510 H   0  0  0  0  0  0
  -27.9346  -24.0704   19.1806 H   0  0  0  0  0  0
  -30.3368  -24.9614   19.6542 H   0  0  0  0  0  0
  -30.6296  -25.8797   21.1059 H   0  0  0  0  0  0
  -30.7140  -17.4943   19.2683 H   0  0  0  0  0  0
  -29.0456  -17.7418   19.7034 H   0  0  0  0  0  0
  -28.3089  -17.4195   22.1432 H   0  0  0  0  0  0
  -29.4828  -16.9416   23.3406 H   0  0  0  0  0  0
  -30.1834  -19.9318   19.4833 H   0  0  0  0  0  0
  -31.4362  -19.4416   20.5944 H   0  0  0  0  0  0
  -30.6853  -19.0683   23.1299 H   0  0  0  0  0  0
  -29.0019  -19.3584   23.4895 H   0  0  0  0  0  0
  -29.8847  -22.2854   19.9582 H   0  0  0  0  0  0
  -31.3005  -16.9779   21.6404 H   0  0  0  0  0  0
  -28.2682  -25.6183   21.8082 H   0  0  0  0  0  0
  -29.5606  -21.5106   22.8982 H   0  0  0  0  0  0
  -31.0567  -21.2996   22.0573 H   0  0  0  0  0  0
  -28.9913  -15.2166   21.3827 H   0  0  0  0  0  0
  -28.6133  -19.9236   21.2452 H   0  0  0  0  0  0
  1 25  1  0  0  0
  1 30  2  0  0  0
  1 83  1  0  0  0
  2  3  1  0  0  0
  2 25  1  0  0  0
  2 85  1  0  0  0
  2 86  1  0  0  0
  3  4  1  0  0  0
  3 87  1  0  0  0
  3 88  1  0  0  0
  4  5  1  0  0  0
  4 89  1  0  0  0
  4 90  1  0  0  0
  5  6  1  0  0  0
  5 26  1  0  0  0
  5 91  1  0  0  0
  6 25  1  0  0  0
  6 92  1  0  0  0
  6 93  1  0  0  0
  7  8  2  0  0  0
  7 26  1  0  0  0
  7 29  1  0  0  0
  8  9  1  0  0  0
  8 22  1  0  0  0
  9 10  1  0  0  0
  9 27  2  0  0  0
 10 11  2  0  0  0
 10 15  1  0  0  0
 11 12  1  0  0  0
 11 94  1  0  0  0
 12 13  2  0  0  0
 12 95  1  0  0  0
 13 14  1  0  0  0
 13 31  1  0  0  0
 14 15  2  0  0  0
 14 96  1  0  0  0
 15 97  1  0  0  0
 16 17  2  0  0  0
 16 21  1  0  0  0
 16 31  1  0  0  0
 17 18  1  0  0  0
 17 98  1  0  0  0
 18 19  2  0  0  0
 18 99  1  0  0  0
 19 20  1  0  0  0
 19 24  1  0  0  0
 20 21  2  0  0  0
 20100  1  0  0  0
 21 23  1  0  0  0
 22 28  1  0  0  0
 22 32  2  0  0  0
 26 27  1  0  0  0
 28101  1  0  0  0
 28102  1  0  0  0
 29103  1  0  0  0
 29104  1  0  0  0
 33 34  1  0  0  0
 33 66  1  0  0  0
 33 70  2  0  0  0
 34 36  1  0  0  0
 34 59  1  0  0  0
 34105  1  0  0  0
 35 44  2  0  0  0
 35 45  1  0  0  0
 35 68  1  0  0  0
 36 56  1  0  0  0
 36106  1  0  0  0
 37 39  1  0  0  0
 37 47  1  0  0  0
 37 66  1  0  0  0
 37107  1  0  0  0
 38 43  2  0  0  0
 38 46  1  0  0  0
 38 47  1  0  0  0
 39 64  1  0  0  0
 39 67  2  0  0  0
 40 52  1  0  0  0
 40 53  2  0  0  0
 40 58  1  0  0  0
 41108  1  0  0  0
 41109  1  0  0  0
 41110  1  0  0  0
 41 48  1  0  0  0
 42 43  1  0  0  0
 42 66  1  0  0  0
 42111  1  0  0  0
 42112  1  0  0  0
 43 44  1  0  0  0
 44113  1  0  0  0
 45 46  2  0  0  0
 45114  1  0  0  0
 46115  1  0  0  0
 47116  1  0  0  0
 47117  1  0  0  0
 48 56  1  0  0  0
 48 65  1  0  0  0
 48118  1  0  0  0
 49 50  1  0  0  0
 49 53  1  0  0  0
 49 64  1  0  0  0
 49119  1  0  0  0
 50 51  1  0  0  0
 50120  1  0  0  0
 50121  1  0  0  0
 51 52  1  0  0  0
 51122  1  0  0  0
 51123  1  0  0  0
 52124  1  0  0  0
 52125  1  0  0  0
 53 54  1  0  0  0
 54 55  2  0  0  0
 54126  1  0  0  0
 55 57  1  0  0  0
 55127  1  0  0  0
 56 69  2  0  0  0
 57 58  2  0  0  0
 57128  1  0  0  0
 58129  1  0  0  0
 59 60  1  0  0  0
 59 61  1  0  0  0
 59 62  1  0  0  0
 60130  1  0  0  0
 60131  1  0  0  0
 60132  1  0  0  0
 61133  1  0  0  0
 61134  1  0  0  0
 61135  1  0  0  0
 62136  1  0  0  0
 62137  1  0  0  0
 62138  1  0  0  0
 63 65  1  0  0  0
 63139  1  0  0  0
 63140  1  0  0  0
 63141  1  0  0  0
 64142  1  0  0  0
 65143  1  0  0  0
 68 81  1  0  0  0
 71 73  1  0  0  0
 71 79  1  0  0  0
 71144  1  0  0  0
 71145  1  0  0  0
 72 74  1  0  0  0
 72 79  1  0  0  0
 72146  1  0  0  0
 72147  1  0  0  0
 73 81  1  0  0  0
 73148  1  0  0  0
 73149  1  0  0  0
 74 81  1  0  0  0
 74150  1  0  0  0
 74151  1  0  0  0
 75 77  1  0  0  0
 75 80  1  0  0  0
 75152  1  0  0  0
 75153  1  0  0  0
 76 78  1  0  0  0
 76 80  1  0  0  0
 76154  1  0  0  0
 76155  1  0  0  0
 77 84  1  0  0  0
 77156  1  0  0  0
 77157  1  0  0  0
 78 84  1  0  0  0
 78158  1  0  0  0
 78159  1  0  0  0
 79 82  1  0  0  0
 79160  1  0  0  0
 80 83  1  0  0  0
 80161  1  0  0  0
 81162  1  0  0  0
 82163  1  0  0  0
 82164  1  0  0  0
 82 84  1  0  0  0
 83165  1  0  0  0
 84166  1  0  0  0
M  CHG  1  84   1
M  ISO  4   1 100  68 101  81 101  83 100
M  END
> <chiral flag>
0

> <version>
0

> <s_m_source_file>
/data/baiqing/PycharmProjects/Reinvent-master-3.2/result/LINK_invent/BTK/process_docking_weight1_custom_sum_contain_oxygen_bond_distance_aromatic_linkinvent_7_9_3/rearranged_h_0134.sdf

> <i_m_source_file_index>
18

> <r_mmod_Potential_Energy-OPLS-2005>
-70.483024597168

> <r_mmod_Stretch_Energy-OPLS-2005>
46.2035980224609

> <r_mmod_Bend_Energy-OPLS-2005>
123.239860534668

> <r_mmod_Torsional_Energy-OPLS-2005>
271.207458496094

> <r_mmod_Improper_Torsional_Energy-OPLS-2005>
3.6203441619873

> <r_mmod_Van_der_Waal_Energy-OPLS-2005>
130.918365478516

> <r_mmod_Electrostatic_Energy-OPLS-2005>
-215.289093017578

> <r_mmod_Solvation_Energy-OPLS-2005>
-446.700439453125

> <b_mmod_Minimization_Converged-OPLS-2005>
0

> <r_mmod_RMS_Derivative-OPLS-2005>
0.4310083091259

$$$$
18
                    3D
 Structure written by MMmdl.
168176  0  0  1  0            999 V2000
  -30.6883  -14.4389   20.5393 C   0  0  0  0  0  0
  -30.4293  -12.2707   19.4260 C   0  0  0  0  0  0
  -29.5011  -12.5072   18.2142 C   0  0  0  0  0  0
  -28.0173  -12.3849   18.6172 C   0  0  0  0  0  0
  -27.6708  -13.1976   19.8923 C   0  0  2  0  0  0
  -28.7167  -12.9443   21.0071 C   0  0  0  0  0  0
  -25.2620  -13.8106   20.5707 C   0  0  0  0  0  0
  -24.1863  -13.0377   20.9186 C   0  0  0  0  0  0
  -24.6407  -11.6856   20.8738 C   0  0  0  0  0  0
  -23.9062  -10.4240   21.0407 C   0  0  0  0  0  0
  -24.3597   -9.4156   21.9194 C   0  0  0  0  0  0
  -23.6259   -8.2207   22.0783 C   0  0  0  0  0  0
  -22.4256   -8.0254   21.3554 C   0  0  0  0  0  0
  -21.9889   -9.0236   20.4668 C   0  0  0  0  0  0
  -22.7222  -10.2105   20.3070 C   0  0  0  0  0  0
  -21.6838   -6.0723   22.5286 C   0  0  0  0  0  0
  -21.4000   -6.5634   23.8217 C   0  0  0  0  0  0
  -21.3659   -5.6792   24.9182 C   0  0  0  0  0  0
  -21.6046   -4.3053   24.7245 C   0  0  0  0  0  0
  -21.8815   -3.8140   23.4367 C   0  0  0  0  0  0
  -21.9189   -4.6951   22.3418 C   0  0  0  0  0  0
  -22.7894  -13.5213   21.1842 C   0  0  0  0  0  0
  -22.1673   -4.2135   21.0998 F   0  0  0  0  0  0
  -21.5620   -3.4539   25.7765 F   0  0  0  0  0  0
  -30.0541  -13.2395   20.4626 N   0  0  0  0  0  0
  -26.3078  -12.9275   20.3454 N   0  0  0  0  0  0
  -25.9342  -11.6436   20.5784 N   0  0  0  0  0  0
  -22.0518  -12.8215   22.0383 N   0  0  0  0  0  0
  -25.4262  -15.1824   20.4141 N   0  0  0  0  0  0
  -31.8151  -14.6562   20.0876 O   0  0  0  0  0  0
  -21.6620   -6.8856   21.4240 O   0  0  0  0  0  0
  -22.3593  -14.5534   20.6716 O   0  0  0  0  0  0
  -24.6143  -31.8717   23.2081 C   0  0  0  0  0  0
  -25.9032  -32.4849   23.8401 C   0  0  1  0  0  0
  -27.2364  -27.4376   20.0903 C   0  0  0  0  0  0
  -25.5897  -33.8638   24.2374 N   0  0  0  0  0  0
  -23.4011  -30.4909   21.5524 C   0  0  2  0  0  0
  -24.8440  -28.9572   20.1137 C   0  0  0  0  0  0
  -22.7411  -29.4656   22.5035 C   0  0  0  0  0  0
  -18.0256  -28.1364   22.8493 C   0  0  0  0  0  0
  -24.1471  -36.7301   23.2633 C   0  0  0  0  0  0
  -25.9232  -30.8431   21.3473 C   0  0  0  0  0  0
  -26.0029  -29.4701   20.7076 C   0  0  0  0  0  0
  -27.1962  -28.7152   20.6978 C   0  0  0  0  0  0
  -26.0499  -26.9301   19.5086 C   0  0  0  0  0  0
  -24.8630  -27.6863   19.5146 C   0  0  0  0  0  0
  -23.6062  -29.8238   20.1662 C   0  0  0  0  0  0
  -25.4093  -36.3145   24.0367 C   0  0  1  0  0  0
  -20.5842  -28.3651   23.1326 C   0  0  2  0  0  0
  -20.6726  -26.9398   22.5405 C   0  0  0  0  0  0
  -19.5707  -26.6396   21.5189 C   0  0  0  0  0  0
  -18.1897  -26.7911   22.1626 C   0  0  0  0  0  0
  -19.1503  -28.8829   23.2906 C   0  0  0  0  0  0
  -18.9438  -30.1421   23.8943 C   0  0  0  0  0  0
  -17.6442  -30.6579   24.0552 C   0  0  0  0  0  0
  -25.9023  -34.9499   23.5173 C   0  0  0  0  0  0
  -16.5333  -29.9088   23.6288 C   0  0  0  0  0  0
  -16.7245  -28.6484   23.0353 C   0  0  0  0  0  0
  -26.4445  -31.6575   25.0695 C   0  0  0  0  0  0
  -25.3688  -31.3663   26.1428 C   0  0  0  0  0  0
  -27.0213  -30.3029   24.5954 C   0  0  0  0  0  0
  -27.6068  -32.4223   25.7480 C   0  0  0  0  0  0
  -27.5587  -37.1815   24.8484 C   0  0  0  0  0  0
  -21.4140  -29.3039   22.3777 N   0  0  0  0  0  0
  -26.4297  -37.3817   23.9424 N   0  0  0  0  0  0
  -24.6667  -31.0809   22.0975 N   0  0  0  0  0  0
  -23.4195  -28.8193   23.3070 O   0  0  0  0  0  0
  -28.4415  -26.7619   20.1079 O   0  0  0  0  0  0
  -26.5580  -34.8954   22.4734 O   0  0  0  0  0  0
  -23.5343  -32.1468   23.7469 O   0  0  0  0  0  0
  -27.9761  -24.1700   21.4909 C   0  0  0  0  0  0
  -28.1612  -23.0566   22.3353 C   0  0  0  0  0  0
  -29.6394  -23.2640   19.9690 C   0  0  0  0  0  0
  -28.7386  -24.2965   20.3121 C   0  0  0  0  0  0
  -29.1152  -22.0594   22.0267 C   0  0  0  0  0  0
  -29.8510  -22.1480   20.8138 C   0  0  0  0  0  0
  -30.8709  -20.5010   25.1378 C   0  0  0  0  0  0
  -29.4061  -20.9964   23.0777 C   0  0  0  0  0  0
  -30.9508  -21.1475   20.4307 C   0  0  0  0  0  0
  -28.6213  -25.5227   19.4065 C   0  0  0  0  0  0
  -30.5426  -21.4704   23.9976 C   0  0  0  0  0  0
  -29.6736  -16.6174   19.9981 C   0  0  0  0  0  0
  -30.5698  -20.1189   19.3444 C   0  0  0  0  0  0
  -30.1513  -17.9579   20.5845 C   0  0  0  0  0  0
  -29.8698  -15.4473   20.8617 N   0  0  0  0  0  0
  -29.6062  -19.0862   19.7883 N   0  3  0  0  0  0
  -31.4739  -12.3664   19.1250 H   0  0  0  0  0  0
  -30.3234  -11.2543   19.8078 H   0  0  0  0  0  0
  -29.7291  -11.7951   17.4192 H   0  0  0  0  0  0
  -29.6882  -13.4981   17.7987 H   0  0  0  0  0  0
  -27.7990  -11.3272   18.7757 H   0  0  0  0  0  0
  -27.3793  -12.7047   17.7931 H   0  0  0  0  0  0
  -27.7162  -14.2502   19.6140 H   0  0  0  0  0  0
  -28.6775  -11.9006   21.3267 H   0  0  0  0  0  0
  -28.4983  -13.5293   21.9004 H   0  0  0  0  0  0
  -25.2734   -9.5609   22.4774 H   0  0  0  0  0  0
  -23.9963   -7.4603   22.7507 H   0  0  0  0  0  0
  -21.0826   -8.8726   19.8983 H   0  0  0  0  0  0
  -22.3669  -10.9644   19.6187 H   0  0  0  0  0  0
  -21.1977   -7.6136   23.9704 H   0  0  0  0  0  0
  -21.1498   -6.0526   25.9084 H   0  0  0  0  0  0
  -22.0599   -2.7608   23.2871 H   0  0  0  0  0  0
  -22.4100  -11.9837   22.4737 H   0  0  0  0  0  0
  -21.1154  -13.1284   22.2644 H   0  0  0  0  0  0
  -24.6422  -15.8191   20.5110 H   0  0  0  0  0  0
  -26.2640  -15.6331   20.0727 H   0  0  0  0  0  0
  -26.7124  -32.5585   23.1192 H   0  0  0  0  0  0
  -25.0057  -33.9793   25.0533 H   0  0  0  0  0  0
  -22.6903  -31.3082   21.4151 H   0  0  0  0  0  0
  -23.3774  -35.9595   23.3323 H   0  0  0  0  0  0
  -24.3563  -36.8867   22.2042 H   0  0  0  0  0  0
  -23.7175  -37.6504   23.6595 H   0  0  0  0  0  0
  -25.9956  -31.5954   20.5605 H   0  0  0  0  0  0
  -26.8258  -30.9299   21.9400 H   0  0  0  0  0  0
  -28.0919  -29.1109   21.1551 H   0  0  0  0  0  0
  -26.0000  -25.9514   19.0550 H   0  0  0  0  0  0
  -23.9695  -27.2793   19.0617 H   0  0  0  0  0  0
  -23.7132  -30.5985   19.4065 H   0  0  0  0  0  0
  -22.7288  -29.2445   19.8728 H   0  0  0  0  0  0
  -25.1250  -36.2048   25.0864 H   0  0  0  0  0  0
  -20.9902  -28.3192   24.1455 H   0  0  0  0  0  0
  -20.5556  -26.2283   23.3594 H   0  0  0  0  0  0
  -21.6606  -26.7400   22.1245 H   0  0  0  0  0  0
  -19.6856  -25.6314   21.1197 H   0  0  0  0  0  0
  -19.6616  -27.3221   20.6733 H   0  0  0  0  0  0
  -17.4147  -26.6639   21.4051 H   0  0  0  0  0  0
  -18.0325  -26.0046   22.9025 H   0  0  0  0  0  0
  -19.7910  -30.7190   24.2387 H   0  0  0  0  0  0
  -17.5000  -31.6265   24.5143 H   0  0  0  0  0  0
  -15.5331  -30.3015   23.7570 H   0  0  0  0  0  0
  -15.8643  -28.0794   22.7099 H   0  0  0  0  0  0
  -24.5986  -30.6850   25.7787 H   0  0  0  0  0  0
  -24.8695  -32.2772   26.4736 H   0  0  0  0  0  0
  -25.8030  -30.8997   27.0270 H   0  0  0  0  0  0
  -26.2720  -29.6915   24.0898 H   0  0  0  0  0  0
  -27.3919  -29.7136   25.4349 H   0  0  0  0  0  0
  -27.8580  -30.4404   23.9097 H   0  0  0  0  0  0
  -27.2785  -33.3585   26.2012 H   0  0  0  0  0  0
  -28.3919  -32.6646   25.0302 H   0  0  0  0  0  0
  -28.0648  -31.8308   26.5420 H   0  0  0  0  0  0
  -28.2629  -38.0091   24.7539 H   0  0  0  0  0  0
  -28.1060  -36.2630   24.6301 H   0  0  0  0  0  0
  -27.2299  -37.1466   25.8885 H   0  0  0  0  0  0
  -20.9325  -29.8850   21.7063 H   0  0  0  0  0  0
  -26.0218  -38.2912   24.1411 H   0  0  0  0  0  0
  -27.2734  -24.9434   21.7694 H   0  0  0  0  0  0
  -27.6032  -22.9987   23.2593 H   0  0  0  0  0  0
  -30.2165  -23.3614   19.0601 H   0  0  0  0  0  0
  -31.6488  -20.9217   25.7789 H   0  0  0  0  0  0
  -31.2326  -19.5421   24.7649 H   0  0  0  0  0  0
  -29.9950  -20.3143   25.7605 H   0  0  0  0  0  0
  -29.6581  -20.0435   22.6213 H   0  0  0  0  0  0
  -28.5071  -20.8023   23.6652 H   0  0  0  0  0  0
  -31.3580  -20.6342   21.3005 H   0  0  0  0  0  0
  -31.7910  -21.7274   20.0490 H   0  0  0  0  0  0
  -27.9061  -25.3318   18.6115 H   0  0  0  0  0  0
  -29.5750  -25.6286   18.8876 H   0  0  0  0  0  0
  -31.4400  -21.6512   23.4045 H   0  0  0  0  0  0
  -30.2685  -22.4360   24.4251 H   0  0  0  0  0  0
  -30.1511  -16.4600   19.0271 H   0  0  0  0  0  0
  -28.6039  -16.6615   19.7953 H   0  0  0  0  0  0
  -31.4673  -19.6309   18.9608 H   0  0  0  0  0  0
  -30.1371  -20.6442   18.4921 H   0  0  0  0  0  0
  -31.2410  -17.9839   20.5954 H   0  0  0  0  0  0
  -29.8263  -18.0562   21.6199 H   0  0  0  0  0  0
  -29.0364  -15.1391   21.3406 H   0  0  0  0  0  0
  -29.2169  -18.6876   18.9489 H   0  0  0  0  0  0
  -28.8414  -19.5192   20.2797 H   0  0  0  0  0  0
  1 25  1  0  0  0
  1 30  2  0  0  0
  1 85  1  0  0  0
  2  3  1  0  0  0
  2 25  1  0  0  0
  2 87  1  0  0  0
  2 88  1  0  0  0
  3  4  1  0  0  0
  3 89  1  0  0  0
  3 90  1  0  0  0
  4  5  1  0  0  0
  4 91  1  0  0  0
  4 92  1  0  0  0
  5  6  1  0  0  0
  5 26  1  0  0  0
  5 93  1  0  0  0
  6 25  1  0  0  0
  6 94  1  0  0  0
  6 95  1  0  0  0
  7  8  2  0  0  0
  7 26  1  0  0  0
  7 29  1  0  0  0
  8  9  1  0  0  0
  8 22  1  0  0  0
  9 10  1  0  0  0
  9 27  2  0  0  0
 10 11  2  0  0  0
 10 15  1  0  0  0
 11 12  1  0  0  0
 11 96  1  0  0  0
 12 13  2  0  0  0
 12 97  1  0  0  0
 13 14  1  0  0  0
 13 31  1  0  0  0
 14 15  2  0  0  0
 14 98  1  0  0  0
 15 99  1  0  0  0
 16 17  2  0  0  0
 16 21  1  0  0  0
 16 31  1  0  0  0
 17 18  1  0  0  0
 17100  1  0  0  0
 18 19  2  0  0  0
 18101  1  0  0  0
 19 20  1  0  0  0
 19 24  1  0  0  0
 20 21  2  0  0  0
 20102  1  0  0  0
 21 23  1  0  0  0
 22 28  1  0  0  0
 22 32  2  0  0  0
 26 27  1  0  0  0
 28103  1  0  0  0
 28104  1  0  0  0
 29105  1  0  0  0
 29106  1  0  0  0
 33 34  1  0  0  0
 33 66  1  0  0  0
 33 70  2  0  0  0
 34 36  1  0  0  0
 34 59  1  0  0  0
 34107  1  0  0  0
 35 44  2  0  0  0
 35 45  1  0  0  0
 35 68  1  0  0  0
 36 56  1  0  0  0
 36108  1  0  0  0
 37 39  1  0  0  0
 37 47  1  0  0  0
 37 66  1  0  0  0
 37109  1  0  0  0
 38 43  2  0  0  0
 38 46  1  0  0  0
 38 47  1  0  0  0
 39 64  1  0  0  0
 39 67  2  0  0  0
 40 52  1  0  0  0
 40 53  2  0  0  0
 40 58  1  0  0  0
 41110  1  0  0  0
 41111  1  0  0  0
 41112  1  0  0  0
 41 48  1  0  0  0
 42 43  1  0  0  0
 42 66  1  0  0  0
 42113  1  0  0  0
 42114  1  0  0  0
 43 44  1  0  0  0
 44115  1  0  0  0
 45 46  2  0  0  0
 45116  1  0  0  0
 46117  1  0  0  0
 47118  1  0  0  0
 47119  1  0  0  0
 48 56  1  0  0  0
 48 65  1  0  0  0
 48120  1  0  0  0
 49 50  1  0  0  0
 49 53  1  0  0  0
 49 64  1  0  0  0
 49121  1  0  0  0
 50 51  1  0  0  0
 50122  1  0  0  0
 50123  1  0  0  0
 51 52  1  0  0  0
 51124  1  0  0  0
 51125  1  0  0  0
 52126  1  0  0  0
 52127  1  0  0  0
 53 54  1  0  0  0
 54 55  2  0  0  0
 54128  1  0  0  0
 55 57  1  0  0  0
 55129  1  0  0  0
 56 69  2  0  0  0
 57 58  2  0  0  0
 57130  1  0  0  0
 58131  1  0  0  0
 59 60  1  0  0  0
 59 61  1  0  0  0
 59 62  1  0  0  0
 60132  1  0  0  0
 60133  1  0  0  0
 60134  1  0  0  0
 61135  1  0  0  0
 61136  1  0  0  0
 61137  1  0  0  0
 62138  1  0  0  0
 62139  1  0  0  0
 62140  1  0  0  0
 63 65  1  0  0  0
 63141  1  0  0  0
 63142  1  0  0  0
 63143  1  0  0  0
 64144  1  0  0  0
 65145  1  0  0  0
 68 80  1  0  0  0
 71 72  2  0  0  0
 71 74  1  0  0  0
 71146  1  0  0  0
 72 75  1  0  0  0
 72147  1  0  0  0
 73 74  2  0  0  0
 73 76  1  0  0  0
 73148  1  0  0  0
 74 80  1  0  0  0
 75 76  2  0  0  0
 75 78  1  0  0  0
 76 79  1  0  0  0
 77 81  1  0  0  0
 77149  1  0  0  0
 77150  1  0  0  0
 77151  1  0  0  0
 78 81  1  0  0  0
 78152  1  0  0  0
 78153  1  0  0  0
 79 83  1  0  0  0
 79154  1  0  0  0
 79155  1  0  0  0
 80156  1  0  0  0
 80157  1  0  0  0
 81158  1  0  0  0
 81159  1  0  0  0
 82 84  1  0  0  0
 82 85  1  0  0  0
 82160  1  0  0  0
 82161  1  0  0  0
 83 86  1  0  0  0
 83162  1  0  0  0
 83163  1  0  0  0
 84 86  1  0  0  0
 84164  1  0  0  0
 84165  1  0  0  0
 85166  1  0  0  0
 86167  1  0  0  0
 86168  1  0  0  0
M  CHG  1  86   1
M  ISO  4   1 100  68 101  80 101  85 100
M  END
> <chiral flag>
0

> <version>
0

> <s_m_source_file>
/data/baiqing/PycharmProjects/Reinvent-master-3.2/result/LINK_invent/BTK/process_docking_weight1_custom_sum_contain_oxygen_bond_distance_aromatic_linkinvent_7_9_3/rearranged_h_0134.sdf

> <i_m_source_file_index>
19

> <r_mmod_Potential_Energy-OPLS-2005>
-214.167938232422

> <r_mmod_Stretch_Energy-OPLS-2005>
36.230224609375

> <r_mmod_Bend_Energy-OPLS-2005>
110.842308044434

> <r_mmod_Torsional_Energy-OPLS-2005>
259.346038818359

> <r_mmod_Improper_Torsional_Energy-OPLS-2005>
11.6126756668091

> <r_mmod_Van_der_Waal_Energy-OPLS-2005>
146.860260009766

> <r_mmod_Electrostatic_Energy-OPLS-2005>
-314.447418212891

> <r_mmod_Solvation_Energy-OPLS-2005>
-476.108825683594

> <b_mmod_Minimization_Converged-OPLS-2005>
0

> <r_mmod_RMS_Derivative-OPLS-2005>
3.54979109764099

$$$$
19
                    3D
 Structure written by MMmdl.
167177  0  0  1  0            999 V2000
  -30.7144  -14.5806   20.5064 C   0  0  0  0  0  0
  -30.4168  -12.3600   19.4554 C   0  0  0  0  0  0
  -29.4979  -12.4793   18.2226 C   0  0  0  0  0  0
  -28.0222  -12.3346   18.6379 C   0  0  0  0  0  0
  -27.6493  -13.2238   19.8549 C   0  0  2  0  0  0
  -28.6950  -13.1156   20.9882 C   0  0  0  0  0  0
  -25.2552  -13.8201   20.5703 C   0  0  0  0  0  0
  -24.1825  -13.0454   20.9201 C   0  0  0  0  0  0
  -24.6398  -11.6927   20.8743 C   0  0  0  0  0  0
  -23.9074  -10.4299   21.0412 C   0  0  0  0  0  0
  -24.3622   -9.4214   21.9190 C   0  0  0  0  0  0
  -23.6299   -8.2249   22.0765 C   0  0  0  0  0  0
  -22.4285   -8.0281   21.3547 C   0  0  0  0  0  0
  -21.9920   -9.0254   20.4645 C   0  0  0  0  0  0
  -22.7253  -10.2134   20.3057 C   0  0  0  0  0  0
  -21.6851   -6.0738   22.5284 C   0  0  0  0  0  0
  -21.4010   -6.5641   23.8216 C   0  0  0  0  0  0
  -21.3663   -5.6795   24.9178 C   0  0  0  0  0  0
  -21.6040   -4.3056   24.7227 C   0  0  0  0  0  0
  -21.8821   -3.8151   23.4348 C   0  0  0  0  0  0
  -21.9193   -4.6966   22.3406 C   0  0  0  0  0  0
  -22.7840  -13.5236   21.1848 C   0  0  0  0  0  0
  -22.1660   -4.2153   21.0983 F   0  0  0  0  0  0
  -21.5632   -3.4541   25.7742 F   0  0  0  0  0  0
  -30.0143  -13.4096   20.4119 N   0  0  0  0  0  0
  -26.2976  -12.9397   20.3307 N   0  0  0  0  0  0
  -25.9328  -11.6540   20.5765 N   0  0  0  0  0  0
  -22.0476  -12.8217   22.0393 N   0  0  0  0  0  0
  -25.4251  -15.1921   20.4133 N   0  0  0  0  0  0
  -31.8850  -14.6571   20.1305 O   0  0  0  0  0  0
  -21.6642   -6.8884   21.4248 O   0  0  0  0  0  0
  -22.3526  -14.5551   20.6716 O   0  0  0  0  0  0
  -24.6233  -31.8648   23.2104 C   0  0  0  0  0  0
  -25.9102  -32.4799   23.8394 C   0  0  1  0  0  0
  -27.2072  -27.3384   20.0961 C   0  0  0  0  0  0
  -25.5942  -33.8600   24.2301 N   0  0  0  0  0  0
  -23.4146  -30.4958   21.5523 C   0  0  2  0  0  0
  -24.8588  -28.9732   20.1034 C   0  0  0  0  0  0
  -22.7459  -29.4642   22.4926 C   0  0  0  0  0  0
  -18.0292  -28.1397   22.8467 C   0  0  0  0  0  0
  -24.1489  -36.7272   23.2637 C   0  0  0  0  0  0
  -25.9601  -30.7941   21.3927 C   0  0  0  0  0  0
  -26.0282  -29.4301   20.7242 C   0  0  0  0  0  0
  -27.2024  -28.6185   20.7281 C   0  0  0  0  0  0
  -26.0227  -26.9715   19.4027 C   0  0  0  0  0  0
  -24.8567  -27.7465   19.4364 C   0  0  0  0  0  0
  -23.6269  -29.8488   20.1620 C   0  0  0  0  0  0
  -25.4117  -36.3084   24.0334 C   0  0  1  0  0  0
  -20.5894  -28.3675   23.1275 C   0  0  2  0  0  0
  -20.6769  -26.9395   22.5408 C   0  0  0  0  0  0
  -19.5751  -26.6383   21.5206 C   0  0  0  0  0  0
  -18.1925  -26.7940   22.1606 C   0  0  0  0  0  0
  -19.1550  -28.8854   23.2861 C   0  0  0  0  0  0
  -18.9480  -30.1455   23.8878 C   0  0  0  0  0  0
  -17.6482  -30.6582   24.0569 C   0  0  0  0  0  0
  -25.9058  -34.9452   23.5104 C   0  0  0  0  0  0
  -16.5366  -29.9083   23.6350 C   0  0  0  0  0  0
  -16.7282  -28.6514   23.0343 C   0  0  0  0  0  0
  -26.4498  -31.6615   25.0758 C   0  0  0  0  0  0
  -25.3731  -31.3774   26.1482 C   0  0  0  0  0  0
  -27.0348  -30.3029   24.6238 C   0  0  0  0  0  0
  -27.6056  -32.4351   25.7525 C   0  0  0  0  0  0
  -27.5578  -37.1787   24.8475 C   0  0  0  0  0  0
  -21.4179  -29.3028   22.3654 N   0  0  0  0  0  0
  -26.4293  -37.3781   23.9414 N   0  0  0  0  0  0
  -24.6830  -31.0668   22.1064 N   0  0  0  0  0  0
  -23.4195  -28.8155   23.2967 O   0  0  0  0  0  0
  -28.2933  -26.4449   20.1900 O   0  0  0  0  0  0
  -26.5612  -34.8917   22.4660 O   0  0  0  0  0  0
  -23.5398  -32.1455   23.7439 O   0  0  0  0  0  0
  -30.6247  -22.1575   20.0740 C   0  0  0  0  0  0
  -30.0767  -23.4591   19.8491 C   0  0  0  0  0  0
  -28.6243  -21.4940   21.2043 C   0  0  0  0  0  0
  -28.0811  -22.7692   20.9865 C   0  0  0  0  0  0
  -29.9043  -21.1195   20.7339 C   0  0  0  0  0  0
  -28.7699  -23.8005   20.2817 C   0  0  0  0  0  0
  -27.6384  -20.6272   21.9421 C   0  0  0  0  0  0
  -26.6670  -22.8055   21.5294 C   0  0  0  0  0  0
  -24.7996  -19.9663   23.2420 C   0  0  0  0  0  0
  -24.1220  -21.3117   23.0879 C   0  0  0  0  0  0
  -25.1859  -20.8837   22.1021 C   0  0  0  0  0  0
  -30.5663  -19.7201   20.9709 C   0  0  0  0  0  0
  -28.0170  -25.0631   19.7546 C   0  0  0  0  0  0
  -29.7708  -18.3625   20.7887 C   0  0  0  0  0  0
  -30.6840  -17.0790   20.8946 C   0  0  0  0  0  0
  -30.0483  -15.7207   20.8474 N   0  0  0  0  0  0
  -26.5086  -21.5292   22.2795 N   0  3  1  0  0  0
  -31.4628  -12.4429   19.1539 H   0  0  0  0  0  0
  -30.3176  -11.3754   19.9158 H   0  0  0  0  0  0
  -29.7525  -11.7112   17.4911 H   0  0  0  0  0  0
  -29.6563  -13.4391   17.7282 H   0  0  0  0  0  0
  -27.8562  -11.2849   18.8854 H   0  0  0  0  0  0
  -27.3678  -12.5532   17.7932 H   0  0  0  0  0  0
  -27.6605  -14.2528   19.4946 H   0  0  0  0  0  0
  -28.6905  -12.1151   21.4223 H   0  0  0  0  0  0
  -28.4520  -13.8005   21.8023 H   0  0  0  0  0  0
  -25.2760   -9.5690   22.4768 H   0  0  0  0  0  0
  -24.0003   -7.4643   22.7489 H   0  0  0  0  0  0
  -21.0853   -8.8771   19.8941 H   0  0  0  0  0  0
  -22.3714  -10.9672   19.6161 H   0  0  0  0  0  0
  -21.1999   -7.6146   23.9720 H   0  0  0  0  0  0
  -21.1481   -6.0522   25.9078 H   0  0  0  0  0  0
  -22.0595   -2.7613   23.2850 H   0  0  0  0  0  0
  -22.4080  -11.9864   22.4769 H   0  0  0  0  0  0
  -21.1084  -13.1230   22.2581 H   0  0  0  0  0  0
  -24.6597  -15.8472   20.5285 H   0  0  0  0  0  0
  -26.2754  -15.6305   20.0841 H   0  0  0  0  0  0
  -26.7149  -32.5472   23.1120 H   0  0  0  0  0  0
  -25.0139  -33.9768   25.0478 H   0  0  0  0  0  0
  -22.7089  -31.3181   21.4182 H   0  0  0  0  0  0
  -23.3771  -35.9589   23.3319 H   0  0  0  0  0  0
  -24.3568  -36.8879   22.2046 H   0  0  0  0  0  0
  -23.7227  -37.6469   23.6651 H   0  0  0  0  0  0
  -26.1067  -31.5655   20.6354 H   0  0  0  0  0  0
  -26.8336  -30.8233   22.0323 H   0  0  0  0  0  0
  -28.0869  -28.9492   21.2536 H   0  0  0  0  0  0
  -25.9381  -26.0698   18.8161 H   0  0  0  0  0  0
  -23.9696  -27.4024   18.9224 H   0  0  0  0  0  0
  -23.7463  -30.6347   19.4156 H   0  0  0  0  0  0
  -22.7461  -29.2820   19.8528 H   0  0  0  0  0  0
  -25.1291  -36.1939   25.0828 H   0  0  0  0  0  0
  -20.9992  -28.3265   24.1396 H   0  0  0  0  0  0
  -20.5678  -26.2282   23.3608 H   0  0  0  0  0  0
  -21.6635  -26.7422   22.1205 H   0  0  0  0  0  0
  -19.6919  -25.6299   21.1223 H   0  0  0  0  0  0
  -19.6722  -27.3206   20.6750 H   0  0  0  0  0  0
  -17.4205  -26.6722   21.3986 H   0  0  0  0  0  0
  -18.0284  -26.0085   22.9003 H   0  0  0  0  0  0
  -19.7971  -30.7248   24.2245 H   0  0  0  0  0  0
  -17.5058  -31.6272   24.5156 H   0  0  0  0  0  0
  -15.5371  -30.2972   23.7692 H   0  0  0  0  0  0
  -15.8689  -28.0824   22.7054 H   0  0  0  0  0  0
  -24.5993  -30.6989   25.7869 H   0  0  0  0  0  0
  -24.8797  -32.2935   26.4749 H   0  0  0  0  0  0
  -25.8062  -30.9137   27.0353 H   0  0  0  0  0  0
  -26.2936  -29.6769   24.1251 H   0  0  0  0  0  0
  -27.4028  -29.7295   25.4758 H   0  0  0  0  0  0
  -27.8820  -30.4302   23.9493 H   0  0  0  0  0  0
  -27.2700  -33.3726   26.1975 H   0  0  0  0  0  0
  -28.3937  -32.6784   25.0385 H   0  0  0  0  0  0
  -28.0635  -31.8544   26.5549 H   0  0  0  0  0  0
  -28.2596  -38.0077   24.7507 H   0  0  0  0  0  0
  -28.1067  -36.2604   24.6324 H   0  0  0  0  0  0
  -27.2281  -37.1461   25.8873 H   0  0  0  0  0  0
  -20.9343  -29.8798   21.6915 H   0  0  0  0  0  0
  -26.0181  -38.2854   24.1436 H   0  0  0  0  0  0
  -31.6225  -21.9565   19.7066 H   0  0  0  0  0  0
  -30.6500  -24.1817   19.2833 H   0  0  0  0  0  0
  -28.0745  -20.1971   22.8434 H   0  0  0  0  0  0
  -27.3102  -19.8199   21.2871 H   0  0  0  0  0  0
  -25.9615  -22.8544   20.6994 H   0  0  0  0  0  0
  -26.5007  -23.6637   22.1817 H   0  0  0  0  0  0
  -24.2245  -19.0769   22.9872 H   0  0  0  0  0  0
  -25.4839  -19.8478   24.0809 H   0  0  0  0  0  0
  -24.3631  -22.0854   23.8140 H   0  0  0  0  0  0
  -23.0888  -21.3057   22.7463 H   0  0  0  0  0  0
  -24.9202  -20.6149   21.0800 H   0  0  0  0  0  0
  -30.9874  -19.7349   21.9766 H   0  0  0  0  0  0
  -31.4332  -19.6760   20.3089 H   0  0  0  0  0  0
  -26.9924  -24.8144   20.0063 H   0  0  0  0  0  0
  -28.0797  -25.0427   18.6653 H   0  0  0  0  0  0
  -29.2724  -18.3647   19.8187 H   0  0  0  0  0  0
  -28.9922  -18.2869   21.5450 H   0  0  0  0  0  0
  -31.2457  -17.1332   21.8281 H   0  0  0  0  0  0
  -31.4308  -17.1455   20.1001 H   0  0  0  0  0  0
  -29.0735  -15.6389   21.0965 H   0  0  0  0  0  0
  -26.6291  -21.7658   23.2514 H   0  0  0  0  0  0
  1 25  1  0  0  0
  1 30  2  0  0  0
  1 86  1  0  0  0
  2  3  1  0  0  0
  2 25  1  0  0  0
  2 88  1  0  0  0
  2 89  1  0  0  0
  3  4  1  0  0  0
  3 90  1  0  0  0
  3 91  1  0  0  0
  4  5  1  0  0  0
  4 92  1  0  0  0
  4 93  1  0  0  0
  5  6  1  0  0  0
  5 26  1  0  0  0
  5 94  1  0  0  0
  6 25  1  0  0  0
  6 95  1  0  0  0
  6 96  1  0  0  0
  7  8  2  0  0  0
  7 26  1  0  0  0
  7 29  1  0  0  0
  8  9  1  0  0  0
  8 22  1  0  0  0
  9 10  1  0  0  0
  9 27  2  0  0  0
 10 11  2  0  0  0
 10 15  1  0  0  0
 11 12  1  0  0  0
 11 97  1  0  0  0
 12 13  2  0  0  0
 12 98  1  0  0  0
 13 14  1  0  0  0
 13 31  1  0  0  0
 14 15  2  0  0  0
 14 99  1  0  0  0
 15100  1  0  0  0
 16 17  2  0  0  0
 16 21  1  0  0  0
 16 31  1  0  0  0
 17 18  1  0  0  0
 17101  1  0  0  0
 18 19  2  0  0  0
 18102  1  0  0  0
 19 20  1  0  0  0
 19 24  1  0  0  0
 20 21  2  0  0  0
 20103  1  0  0  0
 21 23  1  0  0  0
 22 28  1  0  0  0
 22 32  2  0  0  0
 26 27  1  0  0  0
 28104  1  0  0  0
 28105  1  0  0  0
 29106  1  0  0  0
 29107  1  0  0  0
 33 34  1  0  0  0
 33 66  1  0  0  0
 33 70  2  0  0  0
 34 36  1  0  0  0
 34 59  1  0  0  0
 34108  1  0  0  0
 35 44  2  0  0  0
 35 45  1  0  0  0
 35 68  1  0  0  0
 36 56  1  0  0  0
 36109  1  0  0  0
 37 39  1  0  0  0
 37 47  1  0  0  0
 37 66  1  0  0  0
 37110  1  0  0  0
 38 43  2  0  0  0
 38 46  1  0  0  0
 38 47  1  0  0  0
 39 64  1  0  0  0
 39 67  2  0  0  0
 40 52  1  0  0  0
 40 53  2  0  0  0
 40 58  1  0  0  0
 41111  1  0  0  0
 41112  1  0  0  0
 41113  1  0  0  0
 41 48  1  0  0  0
 42 43  1  0  0  0
 42 66  1  0  0  0
 42114  1  0  0  0
 42115  1  0  0  0
 43 44  1  0  0  0
 44116  1  0  0  0
 45 46  2  0  0  0
 45117  1  0  0  0
 46118  1  0  0  0
 47119  1  0  0  0
 47120  1  0  0  0
 48 56  1  0  0  0
 48 65  1  0  0  0
 48121  1  0  0  0
 49 50  1  0  0  0
 49 53  1  0  0  0
 49 64  1  0  0  0
 49122  1  0  0  0
 50 51  1  0  0  0
 50123  1  0  0  0
 50124  1  0  0  0
 51 52  1  0  0  0
 51125  1  0  0  0
 51126  1  0  0  0
 52127  1  0  0  0
 52128  1  0  0  0
 53 54  1  0  0  0
 54 55  2  0  0  0
 54129  1  0  0  0
 55 57  1  0  0  0
 55130  1  0  0  0
 56 69  2  0  0  0
 57 58  2  0  0  0
 57131  1  0  0  0
 58132  1  0  0  0
 59 60  1  0  0  0
 59 61  1  0  0  0
 59 62  1  0  0  0
 60133  1  0  0  0
 60134  1  0  0  0
 60135  1  0  0  0
 61136  1  0  0  0
 61137  1  0  0  0
 61138  1  0  0  0
 62139  1  0  0  0
 62140  1  0  0  0
 62141  1  0  0  0
 63 65  1  0  0  0
 63142  1  0  0  0
 63143  1  0  0  0
 63144  1  0  0  0
 64145  1  0  0  0
 65146  1  0  0  0
 68 83  1  0  0  0
 71 72  2  0  0  0
 71 75  1  0  0  0
 71147  1  0  0  0
 72 76  1  0  0  0
 72148  1  0  0  0
 73 74  1  0  0  0
 73 75  2  0  0  0
 73 77  1  0  0  0
 74 76  2  0  0  0
 74 78  1  0  0  0
 75 82  1  0  0  0
 76 83  1  0  0  0
 77149  1  0  0  0
 77150  1  0  0  0
 77 87  1  0  0  0
 78 87  1  0  0  0
 78151  1  0  0  0
 78152  1  0  0  0
 79 80  1  0  0  0
 79153  1  0  0  0
 79154  1  0  0  0
 79 81  1  0  0  0
 80 81  1  0  0  0
 80155  1  0  0  0
 80156  1  0  0  0
 81 87  1  0  0  0
 81157  1  0  0  0
 82 84  1  0  0  0
 82158  1  0  0  0
 82159  1  0  0  0
 83160  1  0  0  0
 83161  1  0  0  0
 84 85  1  0  0  0
 84162  1  0  0  0
 84163  1  0  0  0
 85 86  1  0  0  0
 85164  1  0  0  0
 85165  1  0  0  0
 86166  1  0  0  0
 87167  1  0  0  0
M  CHG  1  87   1
M  ISO  4   1 100  68 101  83 101  86 100
M  END
> <chiral flag>
0

> <version>
0

> <s_m_source_file>
/data/baiqing/PycharmProjects/Reinvent-master-3.2/result/LINK_invent/BTK/process_docking_weight1_custom_sum_contain_oxygen_bond_distance_aromatic_linkinvent_7_9_3/rearranged_h_0134.sdf

> <i_m_source_file_index>
20

> <r_mmod_Potential_Energy-OPLS-2005>
1.43244576454163

> <r_mmod_Stretch_Energy-OPLS-2005>
68.4103698730469

> <r_mmod_Bend_Energy-OPLS-2005>
183.623001098633

> <r_mmod_Torsional_Energy-OPLS-2005>
268.170196533203

> <r_mmod_Improper_Torsional_Energy-OPLS-2005>
6.32223606109619

> <r_mmod_Van_der_Waal_Energy-OPLS-2005>
155.694595336914

> <r_mmod_Electrostatic_Energy-OPLS-2005>
-271.959564208984

> <r_mmod_Solvation_Energy-OPLS-2005>
-456.675811767578

> <b_mmod_Minimization_Converged-OPLS-2005>
0

> <r_mmod_RMS_Derivative-OPLS-2005>
1.89575743675232

$$$$
20
                    3D
 Structure written by MMmdl.
167175  0  0  1  0            999 V2000
  -30.7178  -14.4221   20.5964 C   0  0  0  0  0  0
  -30.4187  -12.2880   19.4050 C   0  0  0  0  0  0
  -29.4841  -12.4974   18.1958 C   0  0  0  0  0  0
  -28.0063  -12.3620   18.6135 C   0  0  0  0  0  0
  -27.6605  -13.1991   19.8744 C   0  0  2  0  0  0
  -28.7015  -12.9555   20.9890 C   0  0  0  0  0  0
  -25.2576  -13.8143   20.5662 C   0  0  0  0  0  0
  -24.1811  -13.0445   20.9154 C   0  0  0  0  0  0
  -24.6347  -11.6898   20.8719 C   0  0  0  0  0  0
  -23.9022  -10.4290   21.0391 C   0  0  0  0  0  0
  -24.3585   -9.4208   21.9171 C   0  0  0  0  0  0
  -23.6278   -8.2247   22.0742 C   0  0  0  0  0  0
  -22.4265   -8.0269   21.3537 C   0  0  0  0  0  0
  -21.9882   -9.0230   20.4635 C   0  0  0  0  0  0
  -22.7192  -10.2116   20.3041 C   0  0  0  0  0  0
  -21.6845   -6.0726   22.5274 C   0  0  0  0  0  0
  -21.4002   -6.5629   23.8207 C   0  0  0  0  0  0
  -21.3669   -5.6783   24.9171 C   0  0  0  0  0  0
  -21.6043   -4.3048   24.7218 C   0  0  0  0  0  0
  -21.8825   -3.8137   23.4342 C   0  0  0  0  0  0
  -21.9190   -4.6948   22.3397 C   0  0  0  0  0  0
  -22.7836  -13.5245   21.1846 C   0  0  0  0  0  0
  -22.1662   -4.2132   21.0978 F   0  0  0  0  0  0
  -21.5635   -3.4531   25.7743 F   0  0  0  0  0  0
  -30.0374  -13.2556   20.4433 N   0  0  0  0  0  0
  -26.3002  -12.9299   20.3369 N   0  0  0  0  0  0
  -25.9276  -11.6469   20.5755 N   0  0  0  0  0  0
  -22.0487  -12.8224   22.0395 N   0  0  0  0  0  0
  -25.4352  -15.1854   20.4057 N   0  0  0  0  0  0
  -31.8099  -14.6455   20.0677 O   0  0  0  0  0  0
  -21.6632   -6.8857   21.4242 O   0  0  0  0  0  0
  -22.3526  -14.5562   20.6712 O   0  0  0  0  0  0
  -24.6120  -31.8684   23.2120 C   0  0  0  0  0  0
  -25.9042  -32.4815   23.8405 C   0  0  1  0  0  0
  -27.2303  -27.4643   20.0936 C   0  0  0  0  0  0
  -25.5916  -33.8627   24.2330 N   0  0  0  0  0  0
  -23.4000  -30.4909   21.5513 C   0  0  2  0  0  0
  -24.8453  -28.9595   20.1140 C   0  0  0  0  0  0
  -22.7400  -29.4646   22.4990 C   0  0  0  0  0  0
  -18.0279  -28.1370   22.8469 C   0  0  0  0  0  0
  -24.1507  -36.7310   23.2645 C   0  0  0  0  0  0
  -25.9249  -30.8438   21.3600 C   0  0  0  0  0  0
  -26.0014  -29.4800   20.7091 C   0  0  0  0  0  0
  -27.1985  -28.7374   20.7022 C   0  0  0  0  0  0
  -26.0645  -26.9489   19.4932 C   0  0  0  0  0  0
  -24.8674  -27.6902   19.5076 C   0  0  0  0  0  0
  -23.6057  -29.8223   20.1652 C   0  0  0  0  0  0
  -25.4130  -36.3113   24.0334 C   0  0  1  0  0  0
  -20.5860  -28.3640   23.1325 C   0  0  2  0  0  0
  -20.6764  -26.9376   22.5430 C   0  0  0  0  0  0
  -19.5754  -26.6368   21.5218 C   0  0  0  0  0  0
  -18.1923  -26.7913   22.1610 C   0  0  0  0  0  0
  -19.1528  -28.8827   23.2880 C   0  0  0  0  0  0
  -18.9451  -30.1430   23.8897 C   0  0  0  0  0  0
  -17.6445  -30.6559   24.0563 C   0  0  0  0  0  0
  -25.9048  -34.9473   23.5117 C   0  0  0  0  0  0
  -16.5336  -29.9054   23.6332 C   0  0  0  0  0  0
  -16.7260  -28.6480   23.0337 C   0  0  0  0  0  0
  -26.4478  -31.6572   25.0721 C   0  0  0  0  0  0
  -25.3765  -31.3612   26.1470 C   0  0  0  0  0  0
  -27.0282  -30.3029   24.6037 C   0  0  0  0  0  0
  -27.6080  -32.4263   25.7451 C   0  0  0  0  0  0
  -27.5576  -37.1825   24.8480 C   0  0  0  0  0  0
  -21.4139  -29.3013   22.3748 N   0  0  0  0  0  0
  -26.4300  -37.3793   23.9402 N   0  0  0  0  0  0
  -24.6638  -31.0826   22.0993 N   0  0  0  0  0  0
  -23.4191  -28.8178   23.3033 O   0  0  0  0  0  0
  -28.3777  -26.7166   20.0924 O   0  0  0  0  0  0
  -26.5627  -34.8930   22.4686 O   0  0  0  0  0  0
  -23.5326  -32.1396   23.7551 O   0  0  0  0  0  0
  -29.7009  -20.4437   19.1231 C   0  0  0  0  0  0
  -29.4605  -21.7128   18.5540 C   0  0  0  0  0  0
  -29.4193  -21.4122   21.3298 C   0  0  0  0  0  0
  -29.7224  -20.2950   20.5256 C   0  0  0  0  0  0
  -29.2178  -22.8453   19.3675 C   0  0  0  0  0  0
  -29.1386  -22.6807   20.7792 C   0  0  0  0  0  0
  -28.1703  -25.7783   16.4746 C   0  0  0  0  0  0
  -29.2723  -24.7108   16.3983 C   0  0  0  0  0  0
  -30.0079  -24.5071   17.7290 C   0  0  0  0  0  0
  -29.9266  -17.7730   20.5971 C   0  0  0  0  0  0
  -30.5671  -16.7252   21.5355 C   0  0  0  0  0  0
  -28.6280  -26.0804   21.3453 C   0  0  0  0  0  0
  -27.9318  -24.7054   21.4435 C   0  0  0  0  0  0
  -30.0756  -19.1026   21.1783 N   0  0  0  0  0  0
  -29.0962  -24.1182   18.7942 N   0  0  0  0  0  0
  -30.0794  -15.3686   21.2966 N   0  0  0  0  0  0
  -28.9006  -23.6863   21.6996 O   0  0  0  0  0  0
  -31.4611  -12.3904   19.0984 H   0  0  0  0  0  0
  -30.3249  -11.2728   19.7944 H   0  0  0  0  0  0
  -29.7175  -11.7745   17.4114 H   0  0  0  0  0  0
  -29.6537  -13.4853   17.7638 H   0  0  0  0  0  0
  -27.8131  -11.3052   18.8062 H   0  0  0  0  0  0
  -27.3550  -12.6407   17.7844 H   0  0  0  0  0  0
  -27.7145  -14.2492   19.5863 H   0  0  0  0  0  0
  -28.6720  -11.9124   21.3066 H   0  0  0  0  0  0
  -28.4598  -13.5320   21.8822 H   0  0  0  0  0  0
  -25.2728   -9.5694   22.4724 H   0  0  0  0  0  0
  -23.9988   -7.4635   22.7452 H   0  0  0  0  0  0
  -21.0815   -8.8728   19.8933 H   0  0  0  0  0  0
  -22.3642  -10.9644   19.6130 H   0  0  0  0  0  0
  -21.1990   -7.6134   23.9703 H   0  0  0  0  0  0
  -21.1483   -6.0515   25.9072 H   0  0  0  0  0  0
  -22.0595   -2.7594   23.2848 H   0  0  0  0  0  0
  -22.4116  -11.9888   22.4777 H   0  0  0  0  0  0
  -21.1094  -13.1219   22.2605 H   0  0  0  0  0  0
  -24.6809  -15.8527   20.5216 H   0  0  0  0  0  0
  -26.2989  -15.6146   20.0996 H   0  0  0  0  0  0
  -26.7116  -32.5518   23.1181 H   0  0  0  0  0  0
  -25.0097  -33.9823   25.0495 H   0  0  0  0  0  0
  -22.6897  -31.3074   21.4130 H   0  0  0  0  0  0
  -23.3739  -35.9667   23.3332 H   0  0  0  0  0  0
  -24.3606  -36.8892   22.2047 H   0  0  0  0  0  0
  -23.7267  -37.6532   23.6647 H   0  0  0  0  0  0
  -26.0419  -31.6100   20.5907 H   0  0  0  0  0  0
  -26.8130  -30.8937   21.9776 H   0  0  0  0  0  0
  -28.0932  -29.1368   21.1585 H   0  0  0  0  0  0
  -26.0786  -25.9716   19.0340 H   0  0  0  0  0  0
  -23.9772  -27.2761   19.0545 H   0  0  0  0  0  0
  -23.7107  -30.5983   19.4055 H   0  0  0  0  0  0
  -22.7342  -29.2375   19.8693 H   0  0  0  0  0  0
  -25.1287  -36.1980   25.0819 H   0  0  0  0  0  0
  -20.9942  -28.3179   24.1446 H   0  0  0  0  0  0
  -20.5698  -26.2209   23.3599 H   0  0  0  0  0  0
  -21.6614  -26.7430   22.1197 H   0  0  0  0  0  0
  -19.6911  -25.6292   21.1203 H   0  0  0  0  0  0
  -19.6709  -27.3221   20.6794 H   0  0  0  0  0  0
  -17.4203  -26.6671   21.4009 H   0  0  0  0  0  0
  -18.0291  -26.0072   22.9020 H   0  0  0  0  0  0
  -19.7940  -30.7244   24.2254 H   0  0  0  0  0  0
  -17.5013  -31.6255   24.5138 H   0  0  0  0  0  0
  -15.5337  -30.2952   23.7674 H   0  0  0  0  0  0
  -15.8660  -28.0804   22.7043 H   0  0  0  0  0  0
  -24.6020  -30.6857   25.7831 H   0  0  0  0  0  0
  -24.8858  -32.2713   26.4929 H   0  0  0  0  0  0
  -25.8160  -30.8817   27.0229 H   0  0  0  0  0  0
  -26.2776  -29.6807   24.1158 H   0  0  0  0  0  0
  -27.4130  -29.7242   25.4441 H   0  0  0  0  0  0
  -27.8581  -30.4338   23.9084 H   0  0  0  0  0  0
  -27.2741  -33.3587   26.2004 H   0  0  0  0  0  0
  -28.3887  -32.6765   25.0258 H   0  0  0  0  0  0
  -28.0749  -31.8389   26.5370 H   0  0  0  0  0  0
  -28.2619  -38.0107   24.7518 H   0  0  0  0  0  0
  -28.1025  -36.2634   24.6280 H   0  0  0  0  0  0
  -27.2313  -37.1446   25.8897 H   0  0  0  0  0  0
  -20.9299  -29.8717   21.6943 H   0  0  0  0  0  0
  -26.0168  -38.2870   24.1375 H   0  0  0  0  0  0
  -29.9142  -19.6129   18.4668 H   0  0  0  0  0  0
  -29.4845  -21.8119   17.4769 H   0  0  0  0  0  0
  -29.4127  -21.3058   22.4049 H   0  0  0  0  0  0
  -27.8165  -26.0467   15.4786 H   0  0  0  0  0  0
  -28.5250  -26.6883   16.9608 H   0  0  0  0  0  0
  -27.3134  -25.4087   17.0355 H   0  0  0  0  0  0
  -30.0034  -25.0109   15.6477 H   0  0  0  0  0  0
  -28.8506  -23.7677   16.0450 H   0  0  0  0  0  0
  -30.4877  -25.4421   18.0307 H   0  0  0  0  0  0
  -30.8187  -23.7870   17.6104 H   0  0  0  0  0  0
  -28.8602  -17.5718   20.4731 H   0  0  0  0  0  0
  -30.3792  -17.7151   19.6053 H   0  0  0  0  0  0
  -30.3316  -16.9598   22.5739 H   0  0  0  0  0  0
  -31.6552  -16.7727   21.4593 H   0  0  0  0  0  0
  -29.7083  -25.9633   21.4446 H   0  0  0  0  0  0
  -28.3234  -26.7028   22.1892 H   0  0  0  0  0  0
  -27.3000  -24.4898   20.5820 H   0  0  0  0  0  0
  -27.2436  -24.7219   22.2905 H   0  0  0  0  0  0
  -30.1686  -19.1411   22.1890 H   0  0  0  0  0  0
  -28.9274  -24.8692   19.4580 H   0  0  0  0  0  0
  -29.1901  -15.1150   21.7011 H   0  0  0  0  0  0
  1 25  1  0  0  0
  1 30  2  0  0  0
  1 86  1  0  0  0
  2  3  1  0  0  0
  2 25  1  0  0  0
  2 88  1  0  0  0
  2 89  1  0  0  0
  3  4  1  0  0  0
  3 90  1  0  0  0
  3 91  1  0  0  0
  4  5  1  0  0  0
  4 92  1  0  0  0
  4 93  1  0  0  0
  5  6  1  0  0  0
  5 26  1  0  0  0
  5 94  1  0  0  0
  6 25  1  0  0  0
  6 95  1  0  0  0
  6 96  1  0  0  0
  7  8  2  0  0  0
  7 26  1  0  0  0
  7 29  1  0  0  0
  8  9  1  0  0  0
  8 22  1  0  0  0
  9 10  1  0  0  0
  9 27  2  0  0  0
 10 11  2  0  0  0
 10 15  1  0  0  0
 11 12  1  0  0  0
 11 97  1  0  0  0
 12 13  2  0  0  0
 12 98  1  0  0  0
 13 14  1  0  0  0
 13 31  1  0  0  0
 14 15  2  0  0  0
 14 99  1  0  0  0
 15100  1  0  0  0
 16 17  2  0  0  0
 16 21  1  0  0  0
 16 31  1  0  0  0
 17 18  1  0  0  0
 17101  1  0  0  0
 18 19  2  0  0  0
 18102  1  0  0  0
 19 20  1  0  0  0
 19 24  1  0  0  0
 20 21  2  0  0  0
 20103  1  0  0  0
 21 23  1  0  0  0
 22 28  1  0  0  0
 22 32  2  0  0  0
 26 27  1  0  0  0
 28104  1  0  0  0
 28105  1  0  0  0
 29106  1  0  0  0
 29107  1  0  0  0
 33 34  1  0  0  0
 33 66  1  0  0  0
 33 70  2  0  0  0
 34 36  1  0  0  0
 34 59  1  0  0  0
 34108  1  0  0  0
 35 44  2  0  0  0
 35 45  1  0  0  0
 35 68  1  0  0  0
 36 56  1  0  0  0
 36109  1  0  0  0
 37 39  1  0  0  0
 37 47  1  0  0  0
 37 66  1  0  0  0
 37110  1  0  0  0
 38 43  2  0  0  0
 38 46  1  0  0  0
 38 47  1  0  0  0
 39 64  1  0  0  0
 39 67  2  0  0  0
 40 52  1  0  0  0
 40 53  2  0  0  0
 40 58  1  0  0  0
 41111  1  0  0  0
 41112  1  0  0  0
 41113  1  0  0  0
 41 48  1  0  0  0
 42 43  1  0  0  0
 42 66  1  0  0  0
 42114  1  0  0  0
 42115  1  0  0  0
 43 44  1  0  0  0
 44116  1  0  0  0
 45 46  2  0  0  0
 45117  1  0  0  0
 46118  1  0  0  0
 47119  1  0  0  0
 47120  1  0  0  0
 48 56  1  0  0  0
 48 65  1  0  0  0
 48121  1  0  0  0
 49 50  1  0  0  0
 49 53  1  0  0  0
 49 64  1  0  0  0
 49122  1  0  0  0
 50 51  1  0  0  0
 50123  1  0  0  0
 50124  1  0  0  0
 51 52  1  0  0  0
 51125  1  0  0  0
 51126  1  0  0  0
 52127  1  0  0  0
 52128  1  0  0  0
 53 54  1  0  0  0
 54 55  2  0  0  0
 54129  1  0  0  0
 55 57  1  0  0  0
 55130  1  0  0  0
 56 69  2  0  0  0
 57 58  2  0  0  0
 57131  1  0  0  0
 58132  1  0  0  0
 59 60  1  0  0  0
 59 61  1  0  0  0
 59 62  1  0  0  0
 60133  1  0  0  0
 60134  1  0  0  0
 60135  1  0  0  0
 61136  1  0  0  0
 61137  1  0  0  0
 61138  1  0  0  0
 62139  1  0  0  0
 62140  1  0  0  0
 62141  1  0  0  0
 63 65  1  0  0  0
 63142  1  0  0  0
 63143  1  0  0  0
 63144  1  0  0  0
 64145  1  0  0  0
 65146  1  0  0  0
 68 82  1  0  0  0
 71 72  2  0  0  0
 71 74  1  0  0  0
 71147  1  0  0  0
 72 75  1  0  0  0
 72148  1  0  0  0
 73 74  2  0  0  0
 73 76  1  0  0  0
 73149  1  0  0  0
 74 84  1  0  0  0
 75 76  2  0  0  0
 75 85  1  0  0  0
 76 87  1  0  0  0
 77 78  1  0  0  0
 77150  1  0  0  0
 77151  1  0  0  0
 77152  1  0  0  0
 78 79  1  0  0  0
 78153  1  0  0  0
 78154  1  0  0  0
 79 85  1  0  0  0
 79155  1  0  0  0
 79156  1  0  0  0
 80 81  1  0  0  0
 80 84  1  0  0  0
 80157  1  0  0  0
 80158  1  0  0  0
 81 86  1  0  0  0
 81159  1  0  0  0
 81160  1  0  0  0
 82 83  1  0  0  0
 82161  1  0  0  0
 82162  1  0  0  0
 83 87  1  0  0  0
 83163  1  0  0  0
 83164  1  0  0  0
 84165  1  0  0  0
 85166  1  0  0  0
 86167  1  0  0  0
M  ISO  4   1 100  68 101  82 101  86 100
M  END
> <chiral flag>
0

> <version>
0

> <s_m_source_file>
/data/baiqing/PycharmProjects/Reinvent-master-3.2/result/LINK_invent/BTK/process_docking_weight1_custom_sum_contain_oxygen_bond_distance_aromatic_linkinvent_7_9_3/rearranged_h_0134.sdf

> <i_m_source_file_index>
21

> <r_mmod_Potential_Energy-OPLS-2005>
-131.917739868164

> <r_mmod_Stretch_Energy-OPLS-2005>
34.2202987670898

> <r_mmod_Bend_Energy-OPLS-2005>
120.99153137207

> <r_mmod_Torsional_Energy-OPLS-2005>
238.77018737793

> <r_mmod_Improper_Torsional_Energy-OPLS-2005>
7.29076337814331

> <r_mmod_Van_der_Waal_Energy-OPLS-2005>
152.998565673828

> <r_mmod_Electrostatic_Energy-OPLS-2005>
-474.444702148438

> <r_mmod_Solvation_Energy-OPLS-2005>
-220.312545776367

> <b_mmod_Minimization_Converged-OPLS-2005>
0

> <r_mmod_RMS_Derivative-OPLS-2005>
3.67122864723206

$$$$
21
                    3D
 Structure written by MMmdl.
164173  0  0  1  0            999 V2000
  -30.7257  -14.4162   20.6303 C   0  0  0  0  0  0
  -30.4180  -12.2916   19.4120 C   0  0  0  0  0  0
  -29.4902  -12.5120   18.2011 C   0  0  0  0  0  0
  -28.0114  -12.3730   18.6138 C   0  0  0  0  0  0
  -27.6632  -13.2021   19.8788 C   0  0  2  0  0  0
  -28.7003  -12.9556   20.9963 C   0  0  0  0  0  0
  -25.2599  -13.8161   20.5660 C   0  0  0  0  0  0
  -24.1850  -13.0441   20.9177 C   0  0  0  0  0  0
  -24.6399  -11.6903   20.8741 C   0  0  0  0  0  0
  -23.9059  -10.4285   21.0406 C   0  0  0  0  0  0
  -24.3615   -9.4200   21.9182 C   0  0  0  0  0  0
  -23.6294   -8.2239   22.0749 C   0  0  0  0  0  0
  -22.4277   -8.0279   21.3540 C   0  0  0  0  0  0
  -21.9913   -9.0250   20.4639 C   0  0  0  0  0  0
  -22.7238  -10.2129   20.3046 C   0  0  0  0  0  0
  -21.6854   -6.0737   22.5282 C   0  0  0  0  0  0
  -21.4012   -6.5640   23.8214 C   0  0  0  0  0  0
  -21.3663   -5.6796   24.9178 C   0  0  0  0  0  0
  -21.6042   -4.3057   24.7230 C   0  0  0  0  0  0
  -21.8820   -3.8149   23.4351 C   0  0  0  0  0  0
  -21.9189   -4.6964   22.3407 C   0  0  0  0  0  0
  -22.7868  -13.5236   21.1847 C   0  0  0  0  0  0
  -22.1659   -4.2149   21.0984 F   0  0  0  0  0  0
  -21.5631   -3.4540   25.7744 F   0  0  0  0  0  0
  -30.0368  -13.2580   20.4526 N   0  0  0  0  0  0
  -26.3027  -12.9320   20.3374 N   0  0  0  0  0  0
  -25.9317  -11.6479   20.5755 N   0  0  0  0  0  0
  -22.0517  -12.8212   22.0404 N   0  0  0  0  0  0
  -25.4358  -15.1872   20.4058 N   0  0  0  0  0  0
  -31.8142  -14.6349   20.0897 O   0  0  0  0  0  0
  -21.6642   -6.8879   21.4242 O   0  0  0  0  0  0
  -22.3547  -14.5553   20.6716 O   0  0  0  0  0  0
  -24.6074  -31.8712   23.2116 C   0  0  0  0  0  0
  -25.8978  -32.4840   23.8397 C   0  0  1  0  0  0
  -27.2239  -27.4599   20.1026 C   0  0  0  0  0  0
  -25.5846  -33.8635   24.2320 N   0  0  0  0  0  0
  -23.3958  -30.4945   21.5495 C   0  0  2  0  0  0
  -24.8432  -28.9617   20.1184 C   0  0  0  0  0  0
  -22.7386  -29.4663   22.4985 C   0  0  0  0  0  0
  -18.0271  -28.1379   22.8484 C   0  0  0  0  0  0
  -24.1470  -36.7305   23.2655 C   0  0  0  0  0  0
  -25.9208  -30.8443   21.3609 C   0  0  0  0  0  0
  -25.9980  -29.4757   20.7212 C   0  0  0  0  0  0
  -27.1964  -28.7293   20.7181 C   0  0  0  0  0  0
  -26.0617  -26.9550   19.4901 C   0  0  0  0  0  0
  -24.8664  -27.6973   19.5025 C   0  0  0  0  0  0
  -23.6045  -29.8276   20.1634 C   0  0  0  0  0  0
  -25.4088  -36.3113   24.0355 C   0  0  1  0  0  0
  -20.5859  -28.3624   23.1335 C   0  0  2  0  0  0
  -20.6740  -26.9360   22.5418 C   0  0  0  0  0  0
  -19.5714  -26.6385   21.5217 C   0  0  0  0  0  0
  -18.1898  -26.7926   22.1647 C   0  0  0  0  0  0
  -19.1524  -28.8817   23.2913 C   0  0  0  0  0  0
  -18.9480  -30.1441   23.8905 C   0  0  0  0  0  0
  -17.6480  -30.6578   24.0547 C   0  0  0  0  0  0
  -25.9026  -34.9491   23.5142 C   0  0  0  0  0  0
  -16.5357  -29.9087   23.6332 C   0  0  0  0  0  0
  -16.7269  -28.6520   23.0326 C   0  0  0  0  0  0
  -26.4429  -31.6618   25.0713 C   0  0  0  0  0  0
  -25.3709  -31.3748   26.1483 C   0  0  0  0  0  0
  -27.0264  -30.3085   24.6049 C   0  0  0  0  0  0
  -27.5982  -32.4358   25.7482 C   0  0  0  0  0  0
  -27.5564  -37.1790   24.8482 C   0  0  0  0  0  0
  -21.4121  -29.3007   22.3750 N   0  0  0  0  0  0
  -26.4269  -37.3796   23.9435 N   0  0  0  0  0  0
  -24.6601  -31.0850   22.0988 N   0  0  0  0  0  0
  -23.4183  -28.8207   23.3005 O   0  0  0  0  0  0
  -28.3775  -26.7264   20.0249 O   0  0  0  0  0  0
  -26.5617  -34.8939   22.4718 O   0  0  0  0  0  0
  -23.5286  -32.1449   23.7534 O   0  0  0  0  0  0
  -32.1807  -18.3317   22.2562 C   0  0  0  0  0  0
  -31.8377  -17.0177   21.8983 C   0  0  0  0  0  0
  -29.4952  -17.6661   21.8266 C   0  0  0  0  0  0
  -31.1917  -19.3275   22.4043 C   0  0  0  0  0  0
  -29.8243  -18.9992   22.1712 C   0  0  0  0  0  0
  -30.4880  -16.6716   21.6777 C   0  0  0  0  0  0
  -27.6392  -24.7957   21.4445 C   0  0  0  0  0  0
  -29.9281  -25.0897   20.8141 C   0  0  0  0  0  0
  -28.6708  -25.8961   21.1476 C   0  0  1  0  0  0
  -28.4695  -23.6811   22.1067 C   0  0  1  0  0  0
  -31.6567  -20.7108   22.8285 C   0  0  0  0  0  0
  -28.6610  -19.9906   22.3092 C   0  0  0  0  0  0
  -27.9425  -22.2464   21.9022 C   0  0  0  0  0  0
  -30.0821  -15.3434   21.3635 N   0  0  0  0  0  0
  -29.8355  -23.8254   21.5689 N   0  3  0  0  0  0
  -29.0272  -21.3584   22.1705 O   0  0  0  0  0  0
  -31.4629  -12.3870   19.1123 H   0  0  0  0  0  0
  -30.3118  -11.2747   19.7942 H   0  0  0  0  0  0
  -29.7269  -11.7979   17.4109 H   0  0  0  0  0  0
  -29.6622  -13.5030   17.7797 H   0  0  0  0  0  0
  -27.8172  -11.3160   18.7989 H   0  0  0  0  0  0
  -27.3616  -12.6587   17.7863 H   0  0  0  0  0  0
  -27.7168  -14.2539   19.5959 H   0  0  0  0  0  0
  -28.6685  -11.9129   21.3154 H   0  0  0  0  0  0
  -28.4536  -13.5297   21.8899 H   0  0  0  0  0  0
  -25.2761   -9.5679   22.4755 H   0  0  0  0  0  0
  -24.0010   -7.4625   22.7457 H   0  0  0  0  0  0
  -21.0850   -8.8757   19.8936 H   0  0  0  0  0  0
  -22.3697  -10.9665   19.6150 H   0  0  0  0  0  0
  -21.2003   -7.6147   23.9719 H   0  0  0  0  0  0
  -21.1486   -6.0526   25.9082 H   0  0  0  0  0  0
  -22.0597   -2.7609   23.2853 H   0  0  0  0  0  0
  -22.4135  -11.9857   22.4762 H   0  0  0  0  0  0
  -21.1126  -13.1209   22.2612 H   0  0  0  0  0  0
  -24.6720  -15.8472   20.4985 H   0  0  0  0  0  0
  -26.2883  -15.6135   20.0651 H   0  0  0  0  0  0
  -26.7033  -32.5565   23.1153 H   0  0  0  0  0  0
  -24.9883  -33.9795   25.0395 H   0  0  0  0  0  0
  -22.6826  -31.3100   21.4102 H   0  0  0  0  0  0
  -23.3722  -35.9649   23.3356 H   0  0  0  0  0  0
  -24.3555  -36.8897   22.2065 H   0  0  0  0  0  0
  -23.7259  -37.6526   23.6655 H   0  0  0  0  0  0
  -26.0258  -31.6024   20.5838 H   0  0  0  0  0  0
  -26.8131  -30.9066   21.9706 H   0  0  0  0  0  0
  -28.0937  -29.1263   21.1733 H   0  0  0  0  0  0
  -26.0812  -25.9920   18.9983 H   0  0  0  0  0  0
  -23.9804  -27.2975   19.0294 H   0  0  0  0  0  0
  -23.7097  -30.6011   19.4031 H   0  0  0  0  0  0
  -22.7310  -29.2449   19.8677 H   0  0  0  0  0  0
  -25.1268  -36.1961   25.0850 H   0  0  0  0  0  0
  -20.9958  -28.3154   24.1458 H   0  0  0  0  0  0
  -20.5631  -26.2209   23.3585 H   0  0  0  0  0  0
  -21.6606  -26.7376   22.1214 H   0  0  0  0  0  0
  -19.6861  -25.6322   21.1202 H   0  0  0  0  0  0
  -19.6675  -27.3216   20.6768 H   0  0  0  0  0  0
  -17.4164  -26.6677   21.4049 H   0  0  0  0  0  0
  -18.0286  -26.0071   22.9057 H   0  0  0  0  0  0
  -19.7956  -30.7242   24.2249 H   0  0  0  0  0  0
  -17.5054  -31.6262   24.5143 H   0  0  0  0  0  0
  -15.5365  -30.2999   23.7669 H   0  0  0  0  0  0
  -15.8666  -28.0870   22.7001 H   0  0  0  0  0  0
  -24.5828  -30.7139   25.7857 H   0  0  0  0  0  0
  -24.8923  -32.2912   26.4958 H   0  0  0  0  0  0
  -25.8055  -30.8901   27.0239 H   0  0  0  0  0  0
  -26.2778  -29.6846   24.1138 H   0  0  0  0  0  0
  -27.4131  -29.7335   25.4477 H   0  0  0  0  0  0
  -27.8570  -30.4479   23.9130 H   0  0  0  0  0  0
  -27.2543  -33.3641   26.2064 H   0  0  0  0  0  0
  -28.3747  -32.6969   25.0283 H   0  0  0  0  0  0
  -28.0668  -31.8490   26.5393 H   0  0  0  0  0  0
  -28.2590  -38.0077   24.7474 H   0  0  0  0  0  0
  -28.1043  -36.2596   24.6337 H   0  0  0  0  0  0
  -27.2280  -37.1486   25.8890 H   0  0  0  0  0  0
  -20.9261  -29.8774   21.7026 H   0  0  0  0  0  0
  -26.0168  -38.2878   24.1442 H   0  0  0  0  0  0
  -33.2206  -18.5649   22.4333 H   0  0  0  0  0  0
  -32.6249  -16.2833   21.8151 H   0  0  0  0  0  0
  -28.4564  -17.4080   21.6676 H   0  0  0  0  0  0
  -27.2113  -24.4378   20.5081 H   0  0  0  0  0  0
  -26.8239  -25.1446   22.0799 H   0  0  0  0  0  0
  -30.8461  -25.6351   21.0347 H   0  0  0  0  0  0
  -29.9397  -24.8382   19.7522 H   0  0  0  0  0  0
  -28.8433  -26.5026   22.0390 H   0  0  0  0  0  0
  -28.5374  -23.8817   23.1762 H   0  0  0  0  0  0
  -32.7188  -20.7166   23.0732 H   0  0  0  0  0  0
  -31.1142  -21.0514   23.7107 H   0  0  0  0  0  0
  -31.5148  -21.4265   22.0204 H   0  0  0  0  0  0
  -28.1826  -19.8418   23.2788 H   0  0  0  0  0  0
  -27.9170  -19.7402   21.5504 H   0  0  0  0  0  0
  -27.6053  -22.0943   20.8761 H   0  0  0  0  0  0
  -27.0894  -22.0600   22.5570 H   0  0  0  0  0  0
  -29.1493  -15.0823   21.6451 H   0  0  0  0  0  0
  -30.4895  -23.8158   22.3373 H   0  0  0  0  0  0
  -30.0417  -23.0335   20.9763 H   0  0  0  0  0  0
  1 25  1  0  0  0
  1 30  2  0  0  0
  1 84  1  0  0  0
  2  3  1  0  0  0
  2 25  1  0  0  0
  2 87  1  0  0  0
  2 88  1  0  0  0
  3  4  1  0  0  0
  3 89  1  0  0  0
  3 90  1  0  0  0
  4  5  1  0  0  0
  4 91  1  0  0  0
  4 92  1  0  0  0
  5  6  1  0  0  0
  5 26  1  0  0  0
  5 93  1  0  0  0
  6 25  1  0  0  0
  6 94  1  0  0  0
  6 95  1  0  0  0
  7  8  2  0  0  0
  7 26  1  0  0  0
  7 29  1  0  0  0
  8  9  1  0  0  0
  8 22  1  0  0  0
  9 10  1  0  0  0
  9 27  2  0  0  0
 10 11  2  0  0  0
 10 15  1  0  0  0
 11 12  1  0  0  0
 11 96  1  0  0  0
 12 13  2  0  0  0
 12 97  1  0  0  0
 13 14  1  0  0  0
 13 31  1  0  0  0
 14 15  2  0  0  0
 14 98  1  0  0  0
 15 99  1  0  0  0
 16 17  2  0  0  0
 16 21  1  0  0  0
 16 31  1  0  0  0
 17 18  1  0  0  0
 17100  1  0  0  0
 18 19  2  0  0  0
 18101  1  0  0  0
 19 20  1  0  0  0
 19 24  1  0  0  0
 20 21  2  0  0  0
 20102  1  0  0  0
 21 23  1  0  0  0
 22 28  1  0  0  0
 22 32  2  0  0  0
 26 27  1  0  0  0
 28103  1  0  0  0
 28104  1  0  0  0
 29105  1  0  0  0
 29106  1  0  0  0
 33 34  1  0  0  0
 33 66  1  0  0  0
 33 70  2  0  0  0
 34 36  1  0  0  0
 34 59  1  0  0  0
 34107  1  0  0  0
 35 44  2  0  0  0
 35 45  1  0  0  0
 35 68  1  0  0  0
 36 56  1  0  0  0
 36108  1  0  0  0
 37 39  1  0  0  0
 37 47  1  0  0  0
 37 66  1  0  0  0
 37109  1  0  0  0
 38 43  2  0  0  0
 38 46  1  0  0  0
 38 47  1  0  0  0
 39 64  1  0  0  0
 39 67  2  0  0  0
 40 52  1  0  0  0
 40 53  2  0  0  0
 40 58  1  0  0  0
 41110  1  0  0  0
 41111  1  0  0  0
 41112  1  0  0  0
 41 48  1  0  0  0
 42 43  1  0  0  0
 42 66  1  0  0  0
 42113  1  0  0  0
 42114  1  0  0  0
 43 44  1  0  0  0
 44115  1  0  0  0
 45 46  2  0  0  0
 45116  1  0  0  0
 46117  1  0  0  0
 47118  1  0  0  0
 47119  1  0  0  0
 48 56  1  0  0  0
 48 65  1  0  0  0
 48120  1  0  0  0
 49 50  1  0  0  0
 49 53  1  0  0  0
 49 64  1  0  0  0
 49121  1  0  0  0
 50 51  1  0  0  0
 50122  1  0  0  0
 50123  1  0  0  0
 51 52  1  0  0  0
 51124  1  0  0  0
 51125  1  0  0  0
 52126  1  0  0  0
 52127  1  0  0  0
 53 54  1  0  0  0
 54 55  2  0  0  0
 54128  1  0  0  0
 55 57  1  0  0  0
 55129  1  0  0  0
 56 69  2  0  0  0
 57 58  2  0  0  0
 57130  1  0  0  0
 58131  1  0  0  0
 59 60  1  0  0  0
 59 61  1  0  0  0
 59 62  1  0  0  0
 60132  1  0  0  0
 60133  1  0  0  0
 60134  1  0  0  0
 61135  1  0  0  0
 61136  1  0  0  0
 61137  1  0  0  0
 62138  1  0  0  0
 62139  1  0  0  0
 62140  1  0  0  0
 63 65  1  0  0  0
 63141  1  0  0  0
 63142  1  0  0  0
 63143  1  0  0  0
 64144  1  0  0  0
 65145  1  0  0  0
 68 79  1  0  0  0
 71 72  2  0  0  0
 71 74  1  0  0  0
 71146  1  0  0  0
 72 76  1  0  0  0
 72147  1  0  0  0
 73 75  1  0  0  0
 73 76  2  0  0  0
 73148  1  0  0  0
 74 75  2  0  0  0
 74 81  1  0  0  0
 75 82  1  0  0  0
 76 84  1  0  0  0
 77 79  1  0  0  0
 77 80  1  0  0  0
 77149  1  0  0  0
 77150  1  0  0  0
 78 79  1  0  0  0
 78 85  1  0  0  0
 78151  1  0  0  0
 78152  1  0  0  0
 79153  1  0  0  0
 80 83  1  0  0  0
 80 85  1  0  0  0
 80154  1  0  0  0
 81155  1  0  0  0
 81156  1  0  0  0
 81157  1  0  0  0
 82 86  1  0  0  0
 82158  1  0  0  0
 82159  1  0  0  0
 83 86  1  0  0  0
 83160  1  0  0  0
 83161  1  0  0  0
 84162  1  0  0  0
 85163  1  0  0  0
 85164  1  0  0  0
M  CHG  1  85   1
M  ISO  4   1 100  68 101  79 101  84 100
M  END
> <chiral flag>
0

> <version>
0

> <s_m_source_file>
/data/baiqing/PycharmProjects/Reinvent-master-3.2/result/LINK_invent/BTK/process_docking_weight1_custom_sum_contain_oxygen_bond_distance_aromatic_linkinvent_7_9_3/rearranged_h_0134.sdf

> <i_m_source_file_index>
22

> <r_mmod_Potential_Energy-OPLS-2005>
-90.9382629394531

> <r_mmod_Stretch_Energy-OPLS-2005>
33.9865570068359

> <r_mmod_Bend_Energy-OPLS-2005>
118.768463134766

> <r_mmod_Torsional_Energy-OPLS-2005>
316.434265136719

> <r_mmod_Improper_Torsional_Energy-OPLS-2005>
2.81408476829529

> <r_mmod_Van_der_Waal_Energy-OPLS-2005>
154.849594116211

> <r_mmod_Electrostatic_Energy-OPLS-2005>
-303.108245849609

> <r_mmod_Solvation_Energy-OPLS-2005>
-422.430084228516

> <b_mmod_Minimization_Converged-OPLS-2005>
0

> <r_mmod_RMS_Derivative-OPLS-2005>
2.75405955314636

$$$$
22
                    3D
 Structure written by MMmdl.
165174  0  0  1  0            999 V2000
  -30.7045  -14.4783   20.5946 C   0  0  0  0  0  0
  -30.4251  -12.3233   19.4159 C   0  0  0  0  0  0
  -29.4922  -12.5048   18.2014 C   0  0  0  0  0  0
  -28.0149  -12.3577   18.6184 C   0  0  0  0  0  0
  -27.6589  -13.2018   19.8712 C   0  0  2  0  0  0
  -28.7031  -12.9922   20.9904 C   0  0  0  0  0  0
  -25.2584  -13.8139   20.5672 C   0  0  0  0  0  0
  -24.1828  -13.0428   20.9177 C   0  0  0  0  0  0
  -24.6365  -11.6891   20.8720 C   0  0  0  0  0  0
  -23.9019  -10.4283   21.0389 C   0  0  0  0  0  0
  -24.3578   -9.4213   21.9179 C   0  0  0  0  0  0
  -23.6271   -8.2243   22.0754 C   0  0  0  0  0  0
  -22.4258   -8.0262   21.3544 C   0  0  0  0  0  0
  -21.9874   -9.0223   20.4644 C   0  0  0  0  0  0
  -22.7182  -10.2118   20.3050 C   0  0  0  0  0  0
  -21.6849   -6.0717   22.5284 C   0  0  0  0  0  0
  -21.4007   -6.5629   23.8214 C   0  0  0  0  0  0
  -21.3666   -5.6788   24.9180 C   0  0  0  0  0  0
  -21.6041   -4.3050   24.7235 C   0  0  0  0  0  0
  -21.8823   -3.8136   23.4359 C   0  0  0  0  0  0
  -21.9191   -4.6945   22.3410 C   0  0  0  0  0  0
  -22.7860  -13.5245   21.1845 C   0  0  0  0  0  0
  -22.1664   -4.2123   21.0992 F   0  0  0  0  0  0
  -21.5630   -3.4545   25.7757 F   0  0  0  0  0  0
  -30.0286  -13.3090   20.4321 N   0  0  0  0  0  0
  -26.3003  -12.9297   20.3357 N   0  0  0  0  0  0
  -25.9294  -11.6467   20.5759 N   0  0  0  0  0  0
  -22.0493  -12.8236   22.0396 N   0  0  0  0  0  0
  -25.4333  -15.1850   20.4088 N   0  0  0  0  0  0
  -31.8429  -14.6574   20.1610 O   0  0  0  0  0  0
  -21.6639   -6.8848   21.4240 O   0  0  0  0  0  0
  -22.3556  -14.5558   20.6704 O   0  0  0  0  0  0
  -24.6141  -31.8679   23.2093 C   0  0  0  0  0  0
  -25.9024  -32.4822   23.8412 C   0  0  1  0  0  0
  -27.2432  -27.4343   20.0994 C   0  0  0  0  0  0
  -25.5874  -33.8629   24.2338 N   0  0  0  0  0  0
  -23.4056  -30.4876   21.5505 C   0  0  2  0  0  0
  -24.8580  -28.9509   20.1168 C   0  0  0  0  0  0
  -22.7407  -29.4664   22.5013 C   0  0  0  0  0  0
  -18.0264  -28.1367   22.8495 C   0  0  0  0  0  0
  -24.1474  -36.7322   23.2642 C   0  0  0  0  0  0
  -25.9337  -30.8335   21.3617 C   0  0  0  0  0  0
  -26.0174  -29.4658   20.7120 C   0  0  0  0  0  0
  -27.2168  -28.7128   20.7041 C   0  0  0  0  0  0
  -26.0723  -26.9394   19.4903 C   0  0  0  0  0  0
  -24.8792  -27.6853   19.5038 C   0  0  0  0  0  0
  -23.6163  -29.8142   20.1669 C   0  0  0  0  0  0
  -25.4081  -36.3107   24.0343 C   0  0  1  0  0  0
  -20.5856  -28.3663   23.1319 C   0  0  2  0  0  0
  -20.6745  -26.9397   22.5420 C   0  0  0  0  0  0
  -19.5730  -26.6374   21.5216 C   0  0  0  0  0  0
  -18.1906  -26.7911   22.1627 C   0  0  0  0  0  0
  -19.1512  -28.8830   23.2897 C   0  0  0  0  0  0
  -18.9445  -30.1447   23.8903 C   0  0  0  0  0  0
  -17.6451  -30.6577   24.0572 C   0  0  0  0  0  0
  -25.9016  -34.9475   23.5131 C   0  0  0  0  0  0
  -16.5342  -29.9067   23.6353 C   0  0  0  0  0  0
  -16.7248  -28.6490   23.0363 C   0  0  0  0  0  0
  -26.4439  -31.6608   25.0751 C   0  0  0  0  0  0
  -25.3698  -31.3728   26.1502 C   0  0  0  0  0  0
  -27.0283  -30.3051   24.6149 C   0  0  0  0  0  0
  -27.6029  -32.4331   25.7491 C   0  0  0  0  0  0
  -27.5580  -37.1787   24.8458 C   0  0  0  0  0  0
  -21.4137  -29.3042   22.3747 N   0  0  0  0  0  0
  -26.4269  -37.3792   23.9435 N   0  0  0  0  0  0
  -24.6703  -31.0770   22.0991 N   0  0  0  0  0  0
  -23.4177  -28.8220   23.3067 O   0  0  0  0  0  0
  -28.3625  -26.6317   20.1272 O   0  0  0  0  0  0
  -26.5596  -34.8928   22.4704 O   0  0  0  0  0  0
  -23.5331  -32.1433   23.7473 O   0  0  0  0  0  0
  -29.5324  -23.9432   19.6790 C   0  0  0  0  0  0
  -28.9709  -23.3314   21.9535 C   0  0  0  0  0  0
  -30.1013  -22.6600   19.4897 C   0  0  0  0  0  0
  -29.5370  -22.0525   21.7620 C   0  0  0  0  0  0
  -28.9606  -24.2953   20.9193 C   0  0  0  0  0  0
  -30.1189  -21.6878   20.5244 C   0  0  0  0  0  0
  -32.3890  -19.0800   19.1395 C   0  0  0  0  0  0
  -32.1033  -17.9054   20.0874 C   0  0  0  0  0  0
  -30.3738  -19.2872   21.2155 C   0  0  0  0  0  0
  -32.0810  -20.4367   19.7844 C   0  0  2  0  0  0
  -33.1122  -20.8513   20.8532 C   0  0  0  0  0  0
  -28.2965  -25.6537   21.1827 C   0  0  0  0  0  0
  -30.4688  -16.8127   21.5947 C   0  0  0  0  0  0
  -30.7152  -20.4128   20.3160 N   0  0  0  0  0  0
  -29.9984  -15.4829   21.1480 N   0  0  0  0  0  0
  -30.7201  -17.9436   20.6361 N   0  3  2  0  0  0
  -31.4686  -12.4298   19.1147 H   0  0  0  0  0  0
  -30.3327  -11.3136   19.8195 H   0  0  0  0  0  0
  -29.7345  -11.7749   17.4279 H   0  0  0  0  0  0
  -29.6516  -13.4872   17.7541 H   0  0  0  0  0  0
  -27.8317  -11.3017   18.8208 H   0  0  0  0  0  0
  -27.3599  -12.6237   17.7890 H   0  0  0  0  0  0
  -27.6997  -14.2478   19.5683 H   0  0  0  0  0  0
  -28.6908  -11.9550   21.3298 H   0  0  0  0  0  0
  -28.4616  -13.5865   21.8737 H   0  0  0  0  0  0
  -25.2716   -9.5714   22.4755 H   0  0  0  0  0  0
  -23.9984   -7.4643   22.7486 H   0  0  0  0  0  0
  -21.0805   -8.8719   19.8956 H   0  0  0  0  0  0
  -22.3610  -10.9647   19.6165 H   0  0  0  0  0  0
  -21.1999   -7.6140   23.9701 H   0  0  0  0  0  0
  -21.1485   -6.0531   25.9078 H   0  0  0  0  0  0
  -22.0593   -2.7595   23.2879 H   0  0  0  0  0  0
  -22.4091  -11.9877   22.4765 H   0  0  0  0  0  0
  -21.1119  -13.1280   22.2621 H   0  0  0  0  0  0
  -24.6635  -15.8391   20.4977 H   0  0  0  0  0  0
  -26.2815  -15.6175   20.0652 H   0  0  0  0  0  0
  -26.7123  -32.5543   23.1219 H   0  0  0  0  0  0
  -25.0011  -33.9808   25.0475 H   0  0  0  0  0  0
  -22.6960  -31.3057   21.4077 H   0  0  0  0  0  0
  -23.3733  -35.9659   23.3274 H   0  0  0  0  0  0
  -24.3583  -36.8962   22.2066 H   0  0  0  0  0  0
  -23.7209  -37.6513   23.6667 H   0  0  0  0  0  0
  -26.0397  -31.5977   20.5914 H   0  0  0  0  0  0
  -26.8211  -30.8944   21.9780 H   0  0  0  0  0  0
  -28.1097  -29.0951   21.1790 H   0  0  0  0  0  0
  -26.0836  -25.9638   19.0232 H   0  0  0  0  0  0
  -23.9892  -27.2794   19.0457 H   0  0  0  0  0  0
  -23.7180  -30.5857   19.4024 H   0  0  0  0  0  0
  -22.7415  -29.2277   19.8783 H   0  0  0  0  0  0
  -25.1244  -36.1986   25.0830 H   0  0  0  0  0  0
  -20.9944  -28.3226   24.1445 H   0  0  0  0  0  0
  -20.5656  -26.2266   23.3618 H   0  0  0  0  0  0
  -21.6609  -26.7456   22.1218 H   0  0  0  0  0  0
  -19.6887  -25.6287   21.1242 H   0  0  0  0  0  0
  -19.6654  -27.3192   20.6755 H   0  0  0  0  0  0
  -17.4180  -26.6702   21.4023 H   0  0  0  0  0  0
  -18.0292  -26.0043   22.9010 H   0  0  0  0  0  0
  -19.7935  -30.7256   24.2264 H   0  0  0  0  0  0
  -17.5010  -31.6270   24.5155 H   0  0  0  0  0  0
  -15.5337  -30.2959   23.7672 H   0  0  0  0  0  0
  -15.8660  -28.0803   22.7058 H   0  0  0  0  0  0
  -24.5862  -30.7085   25.7854 H   0  0  0  0  0  0
  -24.8892  -32.2883   26.4975 H   0  0  0  0  0  0
  -25.8036  -30.8896   27.0265 H   0  0  0  0  0  0
  -26.2851  -29.6799   24.1185 H   0  0  0  0  0  0
  -27.4029  -29.7318   25.4641 H   0  0  0  0  0  0
  -27.8688  -30.4392   23.9327 H   0  0  0  0  0  0
  -27.2679  -33.3643   26.2079 H   0  0  0  0  0  0
  -28.3800  -32.6868   25.0267 H   0  0  0  0  0  0
  -28.0720  -31.8437   26.5380 H   0  0  0  0  0  0
  -28.2559  -38.0127   24.7554 H   0  0  0  0  0  0
  -28.1107  -36.2656   24.6192 H   0  0  0  0  0  0
  -27.2324  -37.1329   25.8868 H   0  0  0  0  0  0
  -20.9286  -29.8786   21.6993 H   0  0  0  0  0  0
  -26.0161  -38.2873   24.1459 H   0  0  0  0  0  0
  -29.5355  -24.6541   18.8654 H   0  0  0  0  0  0
  -28.5345  -23.5749   22.9123 H   0  0  0  0  0  0
  -30.5120  -22.4293   18.5169 H   0  0  0  0  0  0
  -29.5274  -21.3682   22.5978 H   0  0  0  0  0  0
  -31.7876  -18.9665   18.2361 H   0  0  0  0  0  0
  -33.4297  -19.0474   18.8112 H   0  0  0  0  0  0
  -32.8279  -17.9027   20.9035 H   0  0  0  0  0  0
  -32.2569  -16.9842   19.5309 H   0  0  0  0  0  0
  -29.3045  -19.3044   21.4338 H   0  0  0  0  0  0
  -30.8899  -19.4194   22.1682 H   0  0  0  0  0  0
  -32.1576  -21.1652   18.9792 H   0  0  0  0  0  0
  -33.1154  -20.1856   21.7150 H   0  0  0  0  0  0
  -32.9178  -21.8592   21.2214 H   0  0  0  0  0  0
  -34.1217  -20.8517   20.4406 H   0  0  0  0  0  0
  -28.7514  -26.0934   22.0705 H   0  0  0  0  0  0
  -27.2621  -25.4355   21.4552 H   0  0  0  0  0  0
  -31.3487  -16.6739   22.2272 H   0  0  0  0  0  0
  -29.6974  -17.1436   22.2918 H   0  0  0  0  0  0
  -29.0535  -15.2450   21.4097 H   0  0  0  0  0  0
  -30.0855  -17.8247   19.8616 H   0  0  0  0  0  0
  1 25  1  0  0  0
  1 30  2  0  0  0
  1 85  1  0  0  0
  2  3  1  0  0  0
  2 25  1  0  0  0
  2 87  1  0  0  0
  2 88  1  0  0  0
  3  4  1  0  0  0
  3 89  1  0  0  0
  3 90  1  0  0  0
  4  5  1  0  0  0
  4 91  1  0  0  0
  4 92  1  0  0  0
  5  6  1  0  0  0
  5 26  1  0  0  0
  5 93  1  0  0  0
  6 25  1  0  0  0
  6 94  1  0  0  0
  6 95  1  0  0  0
  7  8  2  0  0  0
  7 26  1  0  0  0
  7 29  1  0  0  0
  8  9  1  0  0  0
  8 22  1  0  0  0
  9 10  1  0  0  0
  9 27  2  0  0  0
 10 11  2  0  0  0
 10 15  1  0  0  0
 11 12  1  0  0  0
 11 96  1  0  0  0
 12 13  2  0  0  0
 12 97  1  0  0  0
 13 14  1  0  0  0
 13 31  1  0  0  0
 14 15  2  0  0  0
 14 98  1  0  0  0
 15 99  1  0  0  0
 16 17  2  0  0  0
 16 21  1  0  0  0
 16 31  1  0  0  0
 17 18  1  0  0  0
 17100  1  0  0  0
 18 19  2  0  0  0
 18101  1  0  0  0
 19 20  1  0  0  0
 19 24  1  0  0  0
 20 21  2  0  0  0
 20102  1  0  0  0
 21 23  1  0  0  0
 22 28  1  0  0  0
 22 32  2  0  0  0
 26 27  1  0  0  0
 28103  1  0  0  0
 28104  1  0  0  0
 29105  1  0  0  0
 29106  1  0  0  0
 33 34  1  0  0  0
 33 66  1  0  0  0
 33 70  2  0  0  0
 34 36  1  0  0  0
 34 59  1  0  0  0
 34107  1  0  0  0
 35 44  2  0  0  0
 35 45  1  0  0  0
 35 68  1  0  0  0
 36 56  1  0  0  0
 36108  1  0  0  0
 37 39  1  0  0  0
 37 47  1  0  0  0
 37 66  1  0  0  0
 37109  1  0  0  0
 38 43  2  0  0  0
 38 46  1  0  0  0
 38 47  1  0  0  0
 39 64  1  0  0  0
 39 67  2  0  0  0
 40 52  1  0  0  0
 40 53  2  0  0  0
 40 58  1  0  0  0
 41110  1  0  0  0
 41111  1  0  0  0
 41112  1  0  0  0
 41 48  1  0  0  0
 42 43  1  0  0  0
 42 66  1  0  0  0
 42113  1  0  0  0
 42114  1  0  0  0
 43 44  1  0  0  0
 44115  1  0  0  0
 45 46  2  0  0  0
 45116  1  0  0  0
 46117  1  0  0  0
 47118  1  0  0  0
 47119  1  0  0  0
 48 56  1  0  0  0
 48 65  1  0  0  0
 48120  1  0  0  0
 49 50  1  0  0  0
 49 53  1  0  0  0
 49 64  1  0  0  0
 49121  1  0  0  0
 50 51  1  0  0  0
 50122  1  0  0  0
 50123  1  0  0  0
 51 52  1  0  0  0
 51124  1  0  0  0
 51125  1  0  0  0
 52126  1  0  0  0
 52127  1  0  0  0
 53 54  1  0  0  0
 54 55  2  0  0  0
 54128  1  0  0  0
 55 57  1  0  0  0
 55129  1  0  0  0
 56 69  2  0  0  0
 57 58  2  0  0  0
 57130  1  0  0  0
 58131  1  0  0  0
 59 60  1  0  0  0
 59 61  1  0  0  0
 59 62  1  0  0  0
 60132  1  0  0  0
 60133  1  0  0  0
 60134  1  0  0  0
 61135  1  0  0  0
 61136  1  0  0  0
 61137  1  0  0  0
 62138  1  0  0  0
 62139  1  0  0  0
 62140  1  0  0  0
 63 65  1  0  0  0
 63141  1  0  0  0
 63142  1  0  0  0
 63143  1  0  0  0
 64144  1  0  0  0
 65145  1  0  0  0
 68 82  1  0  0  0
 71 73  2  0  0  0
 71 75  1  0  0  0
 71146  1  0  0  0
 72 74  1  0  0  0
 72 75  2  0  0  0
 72147  1  0  0  0
 73 76  1  0  0  0
 73148  1  0  0  0
 74 76  2  0  0  0
 74149  1  0  0  0
 75 82  1  0  0  0
 76 84  1  0  0  0
 77 78  1  0  0  0
 77 80  1  0  0  0
 77150  1  0  0  0
 77151  1  0  0  0
 78 86  1  0  0  0
 78152  1  0  0  0
 78153  1  0  0  0
 79 84  1  0  0  0
 79 86  1  0  0  0
 79154  1  0  0  0
 79155  1  0  0  0
 80 81  1  0  0  0
 80 84  1  0  0  0
 80156  1  0  0  0
 81157  1  0  0  0
 81158  1  0  0  0
 81159  1  0  0  0
 82160  1  0  0  0
 82161  1  0  0  0
 83 85  1  0  0  0
 83162  1  0  0  0
 83163  1  0  0  0
 83 86  1  0  0  0
 85164  1  0  0  0
 86165  1  0  0  0
M  CHG  1  86   1
M  ISO  4   1 100  68 101  82 101  85 100
M  END
> <chiral flag>
0

> <version>
0

> <s_m_source_file>
/data/baiqing/PycharmProjects/Reinvent-master-3.2/result/LINK_invent/BTK/process_docking_weight1_custom_sum_contain_oxygen_bond_distance_aromatic_linkinvent_7_9_3/rearranged_h_0134.sdf

> <i_m_source_file_index>
23

> <r_mmod_Potential_Energy-OPLS-2005>
-133.672378540039

> <r_mmod_Stretch_Energy-OPLS-2005>
43.9479560852051

> <r_mmod_Bend_Energy-OPLS-2005>
109.70922088623

> <r_mmod_Torsional_Energy-OPLS-2005>
267.274780273438

> <r_mmod_Improper_Torsional_Energy-OPLS-2005>
5.63294172286987

> <r_mmod_Van_der_Waal_Energy-OPLS-2005>
159.700073242188

> <r_mmod_Electrostatic_Energy-OPLS-2005>
-315.855590820312

> <r_mmod_Solvation_Energy-OPLS-2005>
-419.619781494141

> <b_mmod_Minimization_Converged-OPLS-2005>
0

> <r_mmod_RMS_Derivative-OPLS-2005>
2.60309076309204

$$$$
23
                    3D
 Structure written by MMmdl.
179189  0  0  1  0            999 V2000
  -30.6305  -14.6423   20.5184 C   0  0  0  0  0  0
  -30.4198  -12.3875   19.4780 C   0  0  0  0  0  0
  -29.5150  -12.5046   18.2353 C   0  0  0  0  0  0
  -28.0252  -12.3865   18.6198 C   0  0  0  0  0  0
  -27.6470  -13.2267   19.8714 C   0  0  2  0  0  0
  -28.6891  -13.0746   21.0009 C   0  0  0  0  0  0
  -25.2504  -13.8150   20.5715 C   0  0  0  0  0  0
  -24.1802  -13.0425   20.9245 C   0  0  0  0  0  0
  -24.6383  -11.6898   20.8785 C   0  0  0  0  0  0
  -23.9042  -10.4278   21.0415 C   0  0  0  0  0  0
  -24.3592   -9.4184   21.9202 C   0  0  0  0  0  0
  -23.6256   -8.2231   22.0779 C   0  0  0  0  0  0
  -22.4251   -8.0281   21.3548 C   0  0  0  0  0  0
  -21.9892   -9.0226   20.4628 C   0  0  0  0  0  0
  -22.7222  -10.2102   20.3016 C   0  0  0  0  0  0
  -21.6824   -6.0758   22.5303 C   0  0  0  0  0  0
  -21.4001   -6.5652   23.8239 C   0  0  0  0  0  0
  -21.3673   -5.6791   24.9194 C   0  0  0  0  0  0
  -21.6032   -4.3046   24.7222 C   0  0  0  0  0  0
  -21.8806   -3.8161   23.4335 C   0  0  0  0  0  0
  -21.9166   -4.6994   22.3405 C   0  0  0  0  0  0
  -22.7816  -13.5227   21.1952 C   0  0  0  0  0  0
  -22.1665   -4.2200   21.0971 F   0  0  0  0  0  0
  -21.5608   -3.4516   25.7725 F   0  0  0  0  0  0
  -29.9969  -13.4256   20.4380 N   0  0  0  0  0  0
  -26.2957  -12.9365   20.3336 N   0  0  0  0  0  0
  -25.9296  -11.6521   20.5748 N   0  0  0  0  0  0
  -22.0371  -12.8215   22.0443 N   0  0  0  0  0  0
  -25.4190  -15.1900   20.4273 N   0  0  0  0  0  0
  -31.7908  -14.7729   20.1236 O   0  0  0  0  0  0
  -21.6599   -6.8901   21.4271 O   0  0  0  0  0  0
  -22.3539  -14.5576   20.6851 O   0  0  0  0  0  0
  -24.6260  -31.8525   23.1956 C   0  0  0  0  0  0
  -25.9084  -32.4753   23.8344 C   0  0  1  0  0  0
  -27.2476  -27.2743   20.1691 C   0  0  0  0  0  0
  -25.5874  -33.8560   24.2289 N   0  0  0  0  0  0
  -23.4302  -30.4693   21.5341 C   0  0  2  0  0  0
  -24.8897  -28.9070   20.1253 C   0  0  0  0  0  0
  -22.7518  -29.4588   22.4875 C   0  0  0  0  0  0
  -18.0271  -28.1386   22.8445 C   0  0  0  0  0  0
  -24.1493  -36.7266   23.2637 C   0  0  0  0  0  0
  -25.9720  -30.7755   21.3742 C   0  0  0  0  0  0
  -26.0603  -29.3979   20.7203 C   0  0  0  0  0  0
  -27.2465  -28.6001   20.7160 C   0  0  0  0  0  0
  -26.0637  -26.8448   19.5371 C   0  0  0  0  0  0
  -24.8958  -27.6385   19.5220 C   0  0  0  0  0  0
  -23.6588  -29.7903   20.1584 C   0  0  0  0  0  0
  -25.4121  -36.3076   24.0323 C   0  0  1  0  0  0
  -20.5886  -28.3720   23.1250 C   0  0  2  0  0  0
  -20.6786  -26.9467   22.5295 C   0  0  0  0  0  0
  -19.5715  -26.6462   21.5105 C   0  0  0  0  0  0
  -18.1941  -26.7926   22.1617 C   0  0  0  0  0  0
  -19.1539  -28.8870   23.2849 C   0  0  0  0  0  0
  -18.9426  -30.1463   23.8865 C   0  0  0  0  0  0
  -17.6440  -30.6593   24.0553 C   0  0  0  0  0  0
  -25.9013  -34.9448   23.5109 C   0  0  0  0  0  0
  -16.5313  -29.9071   23.6317 C   0  0  0  0  0  0
  -16.7259  -28.6508   23.0335 C   0  0  0  0  0  0
  -26.4493  -31.6565   25.0714 C   0  0  0  0  0  0
  -25.3742  -31.3681   26.1445 C   0  0  0  0  0  0
  -27.0343  -30.2960   24.6246 C   0  0  0  0  0  0
  -27.6077  -32.4299   25.7444 C   0  0  0  0  0  0
  -27.5596  -37.1777   24.8469 C   0  0  0  0  0  0
  -21.4207  -29.3109   22.3692 N   0  0  0  0  0  0
  -26.4330  -37.3760   23.9389 N   0  0  0  0  0  0
  -24.6943  -31.0526   22.0913 N   0  0  0  0  0  0
  -23.4205  -28.8102   23.2951 O   0  0  0  0  0  0
  -28.3625  -26.4091   20.1979 O   0  0  0  0  0  0
  -26.5599  -34.8914   22.4689 O   0  0  0  0  0  0
  -23.5393  -32.1369   23.7231 O   0  0  0  0  0  0
  -27.4478  -20.4658   20.0558 C   0  0  0  0  0  0
  -28.0438  -18.0765   20.1841 C   0  0  0  0  0  0
  -29.6484  -19.7712   20.8255 C   0  0  0  0  0  0
  -27.1121  -19.0915   19.8821 C   0  0  0  0  0  0
  -28.7167  -20.8533   20.5669 C   0  0  0  0  0  0
  -29.3359  -18.3710   20.6445 C   0  0  0  0  0  0
  -21.3139  -19.1280   18.7083 C   0  0  0  0  0  0
  -22.6327  -18.3987   18.9744 C   0  0  0  0  0  0
  -21.6354  -20.1968   17.6625 C   0  0  0  0  0  0
  -22.8168  -18.8254   16.0010 C   0  0  0  0  0  0
  -23.9551  -18.0617   16.6461 C   0  0  1  0  0  0
  -23.6638  -18.8816   17.9324 C   0  0  2  0  0  0
  -23.9048  -16.5364   16.5804 C   0  0  0  0  0  0
  -25.7309  -18.6095   19.4341 C   0  0  0  0  0  0
  -28.9885  -22.3575   21.0261 C   0  0  0  0  0  0
  -30.3331  -17.1880   20.9630 C   0  0  0  0  0  0
  -24.8534  -19.5849   18.6297 C   0  0  0  0  0  0
  -28.6659  -23.6921   20.1487 C   0  0  0  0  0  0
  -28.2722  -25.0799   20.8910 C   0  0  0  0  0  0
  -29.8850  -15.7390   20.8869 N   0  0  0  0  0  0
  -22.9280  -19.8188   17.0644 N   0  3  2  0  0  0
  -31.4700  -12.4720   19.1999 H   0  0  0  0  0  0
  -30.3128  -11.4006   19.9246 H   0  0  0  0  0  0
  -29.7775  -11.7306   17.5104 H   0  0  0  0  0  0
  -29.6960  -13.4590   17.7420 H   0  0  0  0  0  0
  -27.8027  -11.3346   18.7986 H   0  0  0  0  0  0
  -27.4035  -12.6884   17.7755 H   0  0  0  0  0  0
  -27.6628  -14.2694   19.5576 H   0  0  0  0  0  0
  -28.7069  -12.0480   21.3730 H   0  0  0  0  0  0
  -28.4402  -13.7026   21.8600 H   0  0  0  0  0  0
  -25.2736   -9.5672   22.4765 H   0  0  0  0  0  0
  -23.9952   -7.4613   22.7496 H   0  0  0  0  0  0
  -21.0835   -8.8680   19.8919 H   0  0  0  0  0  0
  -22.3676  -10.9607   19.6080 H   0  0  0  0  0  0
  -21.2011   -7.6160   23.9772 H   0  0  0  0  0  0
  -21.1541   -6.0519   25.9109 H   0  0  0  0  0  0
  -22.0599   -2.7630   23.2785 H   0  0  0  0  0  0
  -22.3861  -11.9779   22.4738 H   0  0  0  0  0  0
  -21.1023  -13.1335   22.2675 H   0  0  0  0  0  0
  -24.6581  -15.8373   20.5911 H   0  0  0  0  0  0
  -26.2830  -15.6418   20.1684 H   0  0  0  0  0  0
  -26.7132  -32.5457   23.1075 H   0  0  0  0  0  0
  -25.0080  -33.9741   25.0466 H   0  0  0  0  0  0
  -22.7248  -31.2859   21.3735 H   0  0  0  0  0  0
  -23.3792  -35.9554   23.3293 H   0  0  0  0  0  0
  -24.3576  -36.8908   22.2054 H   0  0  0  0  0  0
  -23.7231  -37.6462   23.6659 H   0  0  0  0  0  0
  -26.1198  -31.5529   20.6247 H   0  0  0  0  0  0
  -26.8394  -30.8173   22.0205 H   0  0  0  0  0  0
  -28.1528  -28.9789   21.1712 H   0  0  0  0  0  0
  -26.0379  -25.8715   19.0680 H   0  0  0  0  0  0
  -23.9918  -27.2630   19.0651 H   0  0  0  0  0  0
  -23.8022  -30.5636   19.4020 H   0  0  0  0  0  0
  -22.7762  -29.2292   19.8421 H   0  0  0  0  0  0
  -25.1316  -36.1923   25.0816 H   0  0  0  0  0  0
  -20.9982  -28.3192   24.1365 H   0  0  0  0  0  0
  -20.5721  -26.2246   23.3410 H   0  0  0  0  0  0
  -21.6644  -26.7573   22.1021 H   0  0  0  0  0  0
  -19.6933  -25.6425   21.1004 H   0  0  0  0  0  0
  -19.6578  -27.3365   20.6687 H   0  0  0  0  0  0
  -17.4173  -26.6560   21.4098 H   0  0  0  0  0  0
  -18.0542  -26.0097   22.9077 H   0  0  0  0  0  0
  -19.7894  -30.7302   24.2230 H   0  0  0  0  0  0
  -17.4953  -31.6249   24.5182 H   0  0  0  0  0  0
  -15.5325  -30.2960   23.7678 H   0  0  0  0  0  0
  -15.8630  -28.0814   22.7070 H   0  0  0  0  0  0
  -24.5993  -30.6927   25.7815 H   0  0  0  0  0  0
  -24.8843  -32.2827   26.4768 H   0  0  0  0  0  0
  -25.8110  -30.8979   27.0270 H   0  0  0  0  0  0
  -26.2950  -29.6669   24.1284 H   0  0  0  0  0  0
  -27.4024  -29.7244   25.4789 H   0  0  0  0  0  0
  -27.8831  -30.4188   23.9522 H   0  0  0  0  0  0
  -27.2731  -33.3651   26.1921 H   0  0  0  0  0  0
  -28.3916  -32.6745   25.0271 H   0  0  0  0  0  0
  -28.0715  -31.8485   26.5426 H   0  0  0  0  0  0
  -28.2597  -38.0094   24.7544 H   0  0  0  0  0  0
  -28.1120  -36.2626   24.6280 H   0  0  0  0  0  0
  -27.2285  -37.1412   25.8867 H   0  0  0  0  0  0
  -20.9345  -29.8904   21.6993 H   0  0  0  0  0  0
  -26.0204  -38.2830   24.1426 H   0  0  0  0  0  0
  -26.7023  -21.2213   19.8488 H   0  0  0  0  0  0
  -27.7585  -17.0403   20.0639 H   0  0  0  0  0  0
  -30.6233  -20.0147   21.2254 H   0  0  0  0  0  0
  -20.9015  -19.5725   19.6142 H   0  0  0  0  0  0
  -20.5791  -18.4225   18.3231 H   0  0  0  0  0  0
  -22.4829  -17.3198   18.9463 H   0  0  0  0  0  0
  -22.9525  -18.6187   19.9941 H   0  0  0  0  0  0
  -21.7259  -21.1819   18.1201 H   0  0  0  0  0  0
  -20.8599  -20.2664   16.8993 H   0  0  0  0  0  0
  -21.8779  -18.2657   16.0247 H   0  0  0  0  0  0
  -23.0312  -19.2189   15.0077 H   0  0  0  0  0  0
  -24.8824  -18.4186   16.1958 H   0  0  0  0  0  0
  -23.0389  -16.1271   17.0995 H   0  0  0  0  0  0
  -24.7969  -16.0752   16.9974 H   0  0  0  0  0  0
  -23.8266  -16.1954   15.5464 H   0  0  0  0  0  0
  -25.2071  -18.2642   20.3271 H   0  0  0  0  0  0
  -25.8751  -17.7199   18.8177 H   0  0  0  0  0  0
  -30.0419  -22.3905   21.3018 H   0  0  0  0  0  0
  -28.4772  -22.4543   21.9843 H   0  0  0  0  0  0
  -30.7002  -17.3585   21.9771 H   0  0  0  0  0  0
  -31.2068  -17.3173   20.3235 H   0  0  0  0  0  0
  -24.4982  -20.3842   19.2832 H   0  0  0  0  0  0
  -25.4850  -20.0612   17.8804 H   0  0  0  0  0  0
  -27.8891  -23.4870   19.4096 H   0  0  0  0  0  0
  -29.5628  -23.9003   19.5644 H   0  0  0  0  0  0
  -28.9284  -25.1720   21.7614 H   0  0  0  0  0  0
  -27.2780  -24.9636   21.3289 H   0  0  0  0  0  0
  -28.9508  -15.5458   21.2038 H   0  0  0  0  0  0
  -23.4788  -20.6101   16.7622 H   0  0  0  0  0  0
  1 25  1  0  0  0
  1 30  2  0  0  0
  1 90  1  0  0  0
  2  3  1  0  0  0
  2 25  1  0  0  0
  2 92  1  0  0  0
  2 93  1  0  0  0
  3  4  1  0  0  0
  3 94  1  0  0  0
  3 95  1  0  0  0
  4  5  1  0  0  0
  4 96  1  0  0  0
  4 97  1  0  0  0
  5  6  1  0  0  0
  5 26  1  0  0  0
  5 98  1  0  0  0
  6 25  1  0  0  0
  6 99  1  0  0  0
  6100  1  0  0  0
  7  8  2  0  0  0
  7 26  1  0  0  0
  7 29  1  0  0  0
  8  9  1  0  0  0
  8 22  1  0  0  0
  9 10  1  0  0  0
  9 27  2  0  0  0
 10 11  2  0  0  0
 10 15  1  0  0  0
 11 12  1  0  0  0
 11101  1  0  0  0
 12 13  2  0  0  0
 12102  1  0  0  0
 13 14  1  0  0  0
 13 31  1  0  0  0
 14 15  2  0  0  0
 14103  1  0  0  0
 15104  1  0  0  0
 16 17  2  0  0  0
 16 21  1  0  0  0
 16 31  1  0  0  0
 17 18  1  0  0  0
 17105  1  0  0  0
 18 19  2  0  0  0
 18106  1  0  0  0
 19 20  1  0  0  0
 19 24  1  0  0  0
 20 21  2  0  0  0
 20107  1  0  0  0
 21 23  1  0  0  0
 22 28  1  0  0  0
 22 32  2  0  0  0
 26 27  1  0  0  0
 28108  1  0  0  0
 28109  1  0  0  0
 29110  1  0  0  0
 29111  1  0  0  0
 33 34  1  0  0  0
 33 66  1  0  0  0
 33 70  2  0  0  0
 34 36  1  0  0  0
 34 59  1  0  0  0
 34112  1  0  0  0
 35 44  2  0  0  0
 35 45  1  0  0  0
 35 68  1  0  0  0
 36 56  1  0  0  0
 36113  1  0  0  0
 37 39  1  0  0  0
 37 47  1  0  0  0
 37 66  1  0  0  0
 37114  1  0  0  0
 38 43  2  0  0  0
 38 46  1  0  0  0
 38 47  1  0  0  0
 39 64  1  0  0  0
 39 67  2  0  0  0
 40 52  1  0  0  0
 40 53  2  0  0  0
 40 58  1  0  0  0
 41115  1  0  0  0
 41116  1  0  0  0
 41117  1  0  0  0
 41 48  1  0  0  0
 42 43  1  0  0  0
 42 66  1  0  0  0
 42118  1  0  0  0
 42119  1  0  0  0
 43 44  1  0  0  0
 44120  1  0  0  0
 45 46  2  0  0  0
 45121  1  0  0  0
 46122  1  0  0  0
 47123  1  0  0  0
 47124  1  0  0  0
 48 56  1  0  0  0
 48 65  1  0  0  0
 48125  1  0  0  0
 49 50  1  0  0  0
 49 53  1  0  0  0
 49 64  1  0  0  0
 49126  1  0  0  0
 50 51  1  0  0  0
 50127  1  0  0  0
 50128  1  0  0  0
 51 52  1  0  0  0
 51129  1  0  0  0
 51130  1  0  0  0
 52131  1  0  0  0
 52132  1  0  0  0
 53 54  1  0  0  0
 54 55  2  0  0  0
 54133  1  0  0  0
 55 57  1  0  0  0
 55134  1  0  0  0
 56 69  2  0  0  0
 57 58  2  0  0  0
 57135  1  0  0  0
 58136  1  0  0  0
 59 60  1  0  0  0
 59 61  1  0  0  0
 59 62  1  0  0  0
 60137  1  0  0  0
 60138  1  0  0  0
 60139  1  0  0  0
 61140  1  0  0  0
 61141  1  0  0  0
 61142  1  0  0  0
 62143  1  0  0  0
 62144  1  0  0  0
 62145  1  0  0  0
 63 65  1  0  0  0
 63146  1  0  0  0
 63147  1  0  0  0
 63148  1  0  0  0
 64149  1  0  0  0
 65150  1  0  0  0
 68 89  1  0  0  0
 71 74  2  0  0  0
 71 75  1  0  0  0
 71151  1  0  0  0
 72 74  1  0  0  0
 72 76  2  0  0  0
 72152  1  0  0  0
 73 75  2  0  0  0
 73 76  1  0  0  0
 73153  1  0  0  0
 74 84  1  0  0  0
 75 85  1  0  0  0
 76 86  1  0  0  0
 77 78  1  0  0  0
 77 79  1  0  0  0
 77154  1  0  0  0
 77155  1  0  0  0
 78 82  1  0  0  0
 78156  1  0  0  0
 78157  1  0  0  0
 79158  1  0  0  0
 79159  1  0  0  0
 79 91  1  0  0  0
 80 81  1  0  0  0
 80 91  1  0  0  0
 80160  1  0  0  0
 80161  1  0  0  0
 81 82  1  0  0  0
 81 83  1  0  0  0
 81162  1  0  0  0
 82 87  1  0  0  0
 82 91  1  0  0  0
 83163  1  0  0  0
 83164  1  0  0  0
 83165  1  0  0  0
 84 87  1  0  0  0
 84166  1  0  0  0
 84167  1  0  0  0
 85 88  1  0  0  0
 85168  1  0  0  0
 85169  1  0  0  0
 86 90  1  0  0  0
 86170  1  0  0  0
 86171  1  0  0  0
 87172  1  0  0  0
 87173  1  0  0  0
 88 89  1  0  0  0
 88174  1  0  0  0
 88175  1  0  0  0
 89176  1  0  0  0
 89177  1  0  0  0
 90178  1  0  0  0
 91179  1  0  0  0
M  CHG  1  91   1
M  ISO  4   1 100  68 101  89 101  90 100
M  END
> <chiral flag>
0

> <version>
0

> <s_m_source_file>
/data/baiqing/PycharmProjects/Reinvent-master-3.2/result/LINK_invent/BTK/process_docking_weight1_custom_sum_contain_oxygen_bond_distance_aromatic_linkinvent_7_9_3/rearranged_h_0134.sdf

> <i_m_source_file_index>
24

> <r_mmod_Potential_Energy-OPLS-2005>
102.290336608887

> <r_mmod_Stretch_Energy-OPLS-2005>
115.973297119141

> <r_mmod_Bend_Energy-OPLS-2005>
187.575057983398

> <r_mmod_Torsional_Energy-OPLS-2005>
345.355834960938

> <r_mmod_Improper_Torsional_Energy-OPLS-2005>
4.63646078109741

> <r_mmod_Van_der_Waal_Energy-OPLS-2005>
120.248840332031

> <r_mmod_Electrostatic_Energy-OPLS-2005>
-288.633666992188

> <r_mmod_Solvation_Energy-OPLS-2005>
-441.355529785156

> <b_mmod_Minimization_Converged-OPLS-2005>
0

> <r_mmod_RMS_Derivative-OPLS-2005>
7.83050918579102

$$$$
24
                    3D
 Structure written by MMmdl.
155163  0  0  1  0            999 V2000
  -30.6285  -14.6344   20.5050 C   0  0  0  0  0  0
  -30.4299  -12.3911   19.4543 C   0  0  0  0  0  0
  -29.5040  -12.5045   18.2231 C   0  0  0  0  0  0
  -28.0268  -12.3427   18.6346 C   0  0  0  0  0  0
  -27.6482  -13.2167   19.8599 C   0  0  2  0  0  0
  -28.6913  -13.0825   20.9912 C   0  0  0  0  0  0
  -25.2539  -13.8162   20.5678 C   0  0  0  0  0  0
  -24.1814  -13.0432   20.9192 C   0  0  0  0  0  0
  -24.6378  -11.6901   20.8734 C   0  0  0  0  0  0
  -23.9047  -10.4289   21.0399 C   0  0  0  0  0  0
  -24.3605   -9.4209   21.9178 C   0  0  0  0  0  0
  -23.6287   -8.2241   22.0750 C   0  0  0  0  0  0
  -22.4269   -8.0277   21.3543 C   0  0  0  0  0  0
  -21.9898   -9.0244   20.4644 C   0  0  0  0  0  0
  -22.7219  -10.2127   20.3052 C   0  0  0  0  0  0
  -21.6855   -6.0731   22.5277 C   0  0  0  0  0  0
  -21.4020   -6.5638   23.8209 C   0  0  0  0  0  0
  -21.3659   -5.6790   24.9172 C   0  0  0  0  0  0
  -21.6043   -4.3052   24.7222 C   0  0  0  0  0  0
  -21.8823   -3.8144   23.4344 C   0  0  0  0  0  0
  -21.9196   -4.6960   22.3402 C   0  0  0  0  0  0
  -22.7842  -13.5230   21.1856 C   0  0  0  0  0  0
  -22.1664   -4.2146   21.0979 F   0  0  0  0  0  0
  -21.5625   -3.4539   25.7735 F   0  0  0  0  0  0
  -30.0032  -13.4197   20.4220 N   0  0  0  0  0  0
  -26.2954  -12.9341   20.3299 N   0  0  0  0  0  0
  -25.9301  -11.6497   20.5734 N   0  0  0  0  0  0
  -22.0487  -12.8219   22.0412 N   0  0  0  0  0  0
  -25.4242  -15.1880   20.4077 N   0  0  0  0  0  0
  -31.7998  -14.7804   20.1463 O   0  0  0  0  0  0
  -21.6639   -6.8872   21.4238 O   0  0  0  0  0  0
  -22.3534  -14.5542   20.6707 O   0  0  0  0  0  0
  -24.6235  -31.8593   23.2023 C   0  0  0  0  0  0
  -25.9090  -32.4771   23.8354 C   0  0  1  0  0  0
  -27.2290  -27.3248   20.1275 C   0  0  0  0  0  0
  -25.5910  -33.8576   24.2276 N   0  0  0  0  0  0
  -23.4169  -30.4807   21.5448 C   0  0  2  0  0  0
  -24.8643  -28.9280   20.1174 C   0  0  0  0  0  0
  -22.7453  -29.4623   22.4957 C   0  0  0  0  0  0
  -18.0278  -28.1385   22.8492 C   0  0  0  0  0  0
  -24.1490  -36.7290   23.2641 C   0  0  0  0  0  0
  -25.9548  -30.7903   21.3741 C   0  0  0  0  0  0
  -26.0278  -29.4145   20.7253 C   0  0  0  0  0  0
  -27.2104  -28.6216   20.7247 C   0  0  0  0  0  0
  -26.0474  -26.8856   19.4934 C   0  0  0  0  0  0
  -24.8736  -27.6672   19.4961 C   0  0  0  0  0  0
  -23.6314  -29.8081   20.1624 C   0  0  0  0  0  0
  -25.4115  -36.3077   24.0332 C   0  0  1  0  0  0
  -20.5870  -28.3682   23.1293 C   0  0  2  0  0  0
  -20.6764  -26.9409   22.5418 C   0  0  0  0  0  0
  -19.5745  -26.6390   21.5213 C   0  0  0  0  0  0
  -18.1925  -26.7929   22.1629 C   0  0  0  0  0  0
  -19.1526  -28.8855   23.2886 C   0  0  0  0  0  0
  -18.9453  -30.1462   23.8897 C   0  0  0  0  0  0
  -17.6453  -30.6589   24.0571 C   0  0  0  0  0  0
  -25.9051  -34.9451   23.5105 C   0  0  0  0  0  0
  -16.5347  -29.9090   23.6333 C   0  0  0  0  0  0
  -16.7265  -28.6511   23.0348 C   0  0  0  0  0  0
  -26.4487  -31.6576   25.0721 C   0  0  0  0  0  0
  -25.3724  -31.3713   26.1450 C   0  0  0  0  0  0
  -27.0341  -30.3005   24.6176 C   0  0  0  0  0  0
  -27.6053  -32.4310   25.7484 C   0  0  0  0  0  0
  -27.5572  -37.1797   24.8463 C   0  0  0  0  0  0
  -21.4169  -29.3033   22.3687 N   0  0  0  0  0  0
  -26.4287  -37.3773   23.9406 N   0  0  0  0  0  0
  -24.6836  -31.0609   22.0975 N   0  0  0  0  0  0
  -23.4176  -28.8176   23.3045 O   0  0  0  0  0  0
  -28.3891  -26.5408   20.1117 O   0  0  0  0  0  0
  -26.5629  -34.8917   22.4679 O   0  0  0  0  0  0
  -23.5405  -32.1407   23.7351 O   0  0  0  0  0  0
  -29.5178  -23.0215   19.4173 C   0  0  0  0  0  0
  -29.4584  -24.4415   19.4176 C   0  0  0  0  0  0
  -28.5546  -22.2534   20.1183 C   0  0  0  0  0  0
  -27.5734  -23.0321   20.8103 C   0  0  0  0  0  0
  -28.4328  -25.1249   20.1063 C   0  0  0  0  0  0
  -26.4438  -22.3689   21.5751 C   0  0  0  0  0  0
  -28.4625  -20.6796   19.9329 C   0  0  0  0  0  0
  -30.2192  -17.1748   20.8939 C   0  0  0  0  0  0
  -29.1428  -18.2351   20.3820 C   0  0  0  0  0  0
  -27.5220  -24.4031   20.8112 N   0  0  0  0  0  0
  -29.8450  -15.7147   20.8151 N   0  0  0  0  0  0
  -29.4409  -19.7175   20.5819 N   0  3  0  0  0  0
  -31.4727  -12.5107   19.1565 H   0  0  0  0  0  0
  -30.3580  -11.3979   19.9012 H   0  0  0  0  0  0
  -29.7704  -11.7531   17.4792 H   0  0  0  0  0  0
  -29.6467  -13.4736   17.7431 H   0  0  0  0  0  0
  -27.8623  -11.2897   18.8662 H   0  0  0  0  0  0
  -27.3738  -12.5723   17.7917 H   0  0  0  0  0  0
  -27.6625  -14.2500   19.5137 H   0  0  0  0  0  0
  -28.7031  -12.0648   21.3850 H   0  0  0  0  0  0
  -28.4394  -13.7276   21.8344 H   0  0  0  0  0  0
  -25.2749   -9.5693   22.4753 H   0  0  0  0  0  0
  -24.0004   -7.4635   22.7466 H   0  0  0  0  0  0
  -21.0833   -8.8754   19.8947 H   0  0  0  0  0  0
  -22.3671  -10.9664   19.6163 H   0  0  0  0  0  0
  -21.2018   -7.6147   23.9710 H   0  0  0  0  0  0
  -21.1477   -6.0521   25.9073 H   0  0  0  0  0  0
  -22.0603   -2.7606   23.2840 H   0  0  0  0  0  0
  -22.4108  -11.9888   22.4807 H   0  0  0  0  0  0
  -21.1104  -13.1239   22.2613 H   0  0  0  0  0  0
  -24.6499  -15.8359   20.5042 H   0  0  0  0  0  0
  -26.2584  -15.6218   20.0344 H   0  0  0  0  0  0
  -26.7152  -32.5449   23.1097 H   0  0  0  0  0  0
  -25.0016  -33.9730   25.0390 H   0  0  0  0  0  0
  -22.7095  -31.2995   21.3988 H   0  0  0  0  0  0
  -23.3747  -35.9624   23.3310 H   0  0  0  0  0  0
  -24.3569  -36.8908   22.2049 H   0  0  0  0  0  0
  -23.7251  -37.6500   23.6662 H   0  0  0  0  0  0
  -26.0838  -31.5496   20.6015 H   0  0  0  0  0  0
  -26.8358  -30.8426   22.0023 H   0  0  0  0  0  0
  -28.1087  -28.9957   21.1944 H   0  0  0  0  0  0
  -26.0246  -25.9229   19.0028 H   0  0  0  0  0  0
  -23.9819  -27.2885   19.0170 H   0  0  0  0  0  0
  -23.7494  -30.5809   19.4022 H   0  0  0  0  0  0
  -22.7526  -29.2339   19.8637 H   0  0  0  0  0  0
  -25.1294  -36.1926   25.0823 H   0  0  0  0  0  0
  -20.9967  -28.3255   24.1409 H   0  0  0  0  0  0
  -20.5656  -26.2295   23.3616 H   0  0  0  0  0  0
  -21.6634  -26.7440   22.1213 H   0  0  0  0  0  0
  -19.6913  -25.6301   21.1241 H   0  0  0  0  0  0
  -19.6680  -27.3201   20.6741 H   0  0  0  0  0  0
  -17.4191  -26.6672   21.4033 H   0  0  0  0  0  0
  -18.0337  -26.0062   22.9018 H   0  0  0  0  0  0
  -19.7926  -30.7283   24.2259 H   0  0  0  0  0  0
  -17.5005  -31.6268   24.5173 H   0  0  0  0  0  0
  -15.5345  -30.2995   23.7662 H   0  0  0  0  0  0
  -15.8664  -28.0842   22.7052 H   0  0  0  0  0  0
  -24.5899  -30.7067   25.7767 H   0  0  0  0  0  0
  -24.8923  -32.2881   26.4880 H   0  0  0  0  0  0
  -25.8043  -30.8882   27.0226 H   0  0  0  0  0  0
  -26.2927  -29.6738   24.1205 H   0  0  0  0  0  0
  -27.4046  -29.7269   25.4683 H   0  0  0  0  0  0
  -27.8786  -30.4289   23.9404 H   0  0  0  0  0  0
  -27.2666  -33.3601   26.2079 H   0  0  0  0  0  0
  -28.3844  -32.6877   25.0293 H   0  0  0  0  0  0
  -28.0744  -31.8434   26.5385 H   0  0  0  0  0  0
  -28.2597  -38.0086   24.7493 H   0  0  0  0  0  0
  -28.1067  -36.2617   24.6313 H   0  0  0  0  0  0
  -27.2290  -37.1466   25.8868 H   0  0  0  0  0  0
  -20.9356  -29.8740   21.6878 H   0  0  0  0  0  0
  -26.0171  -38.2851   24.1404 H   0  0  0  0  0  0
  -30.2849  -22.5261   18.8394 H   0  0  0  0  0  0
  -30.1954  -25.0096   18.8679 H   0  0  0  0  0  0
  -25.7221  -21.9373   20.8815 H   0  0  0  0  0  0
  -25.9145  -23.0826   22.2072 H   0  0  0  0  0  0
  -26.8254  -21.5786   22.2211 H   0  0  0  0  0  0
  -28.5128  -20.4985   18.8578 H   0  0  0  0  0  0
  -27.4605  -20.3541   20.2116 H   0  0  0  0  0  0
  -30.4495  -17.3852   21.9392 H   0  0  0  0  0  0
  -31.1516  -17.3309   20.3494 H   0  0  0  0  0  0
  -28.1853  -18.0214   20.8582 H   0  0  0  0  0  0
  -28.9888  -18.0669   19.3149 H   0  0  0  0  0  0
  -28.8910  -15.4887   21.0552 H   0  0  0  0  0  0
  -29.4671  -19.9009   21.5716 H   0  0  0  0  0  0
  -30.3594  -19.9049   20.2167 H   0  0  0  0  0  0
  1 25  1  0  0  0
  1 30  2  0  0  0
  1 81  1  0  0  0
  2  3  1  0  0  0
  2 25  1  0  0  0
  2 83  1  0  0  0
  2 84  1  0  0  0
  3  4  1  0  0  0
  3 85  1  0  0  0
  3 86  1  0  0  0
  4  5  1  0  0  0
  4 87  1  0  0  0
  4 88  1  0  0  0
  5  6  1  0  0  0
  5 26  1  0  0  0
  5 89  1  0  0  0
  6 25  1  0  0  0
  6 90  1  0  0  0
  6 91  1  0  0  0
  7  8  2  0  0  0
  7 26  1  0  0  0
  7 29  1  0  0  0
  8  9  1  0  0  0
  8 22  1  0  0  0
  9 10  1  0  0  0
  9 27  2  0  0  0
 10 11  2  0  0  0
 10 15  1  0  0  0
 11 12  1  0  0  0
 11 92  1  0  0  0
 12 13  2  0  0  0
 12 93  1  0  0  0
 13 14  1  0  0  0
 13 31  1  0  0  0
 14 15  2  0  0  0
 14 94  1  0  0  0
 15 95  1  0  0  0
 16 17  2  0  0  0
 16 21  1  0  0  0
 16 31  1  0  0  0
 17 18  1  0  0  0
 17 96  1  0  0  0
 18 19  2  0  0  0
 18 97  1  0  0  0
 19 20  1  0  0  0
 19 24  1  0  0  0
 20 21  2  0  0  0
 20 98  1  0  0  0
 21 23  1  0  0  0
 22 28  1  0  0  0
 22 32  2  0  0  0
 26 27  1  0  0  0
 28 99  1  0  0  0
 28100  1  0  0  0
 29101  1  0  0  0
 29102  1  0  0  0
 33 34  1  0  0  0
 33 66  1  0  0  0
 33 70  2  0  0  0
 34 36  1  0  0  0
 34 59  1  0  0  0
 34103  1  0  0  0
 35 44  2  0  0  0
 35 45  1  0  0  0
 35 68  1  0  0  0
 36 56  1  0  0  0
 36104  1  0  0  0
 37 39  1  0  0  0
 37 47  1  0  0  0
 37 66  1  0  0  0
 37105  1  0  0  0
 38 43  2  0  0  0
 38 46  1  0  0  0
 38 47  1  0  0  0
 39 64  1  0  0  0
 39 67  2  0  0  0
 40 52  1  0  0  0
 40 53  2  0  0  0
 40 58  1  0  0  0
 41106  1  0  0  0
 41107  1  0  0  0
 41108  1  0  0  0
 41 48  1  0  0  0
 42 43  1  0  0  0
 42 66  1  0  0  0
 42109  1  0  0  0
 42110  1  0  0  0
 43 44  1  0  0  0
 44111  1  0  0  0
 45 46  2  0  0  0
 45112  1  0  0  0
 46113  1  0  0  0
 47114  1  0  0  0
 47115  1  0  0  0
 48 56  1  0  0  0
 48 65  1  0  0  0
 48116  1  0  0  0
 49 50  1  0  0  0
 49 53  1  0  0  0
 49 64  1  0  0  0
 49117  1  0  0  0
 50 51  1  0  0  0
 50118  1  0  0  0
 50119  1  0  0  0
 51 52  1  0  0  0
 51120  1  0  0  0
 51121  1  0  0  0
 52122  1  0  0  0
 52123  1  0  0  0
 53 54  1  0  0  0
 54 55  2  0  0  0
 54124  1  0  0  0
 55 57  1  0  0  0
 55125  1  0  0  0
 56 69  2  0  0  0
 57 58  2  0  0  0
 57126  1  0  0  0
 58127  1  0  0  0
 59 60  1  0  0  0
 59 61  1  0  0  0
 59 62  1  0  0  0
 60128  1  0  0  0
 60129  1  0  0  0
 60130  1  0  0  0
 61131  1  0  0  0
 61132  1  0  0  0
 61133  1  0  0  0
 62134  1  0  0  0
 62135  1  0  0  0
 62136  1  0  0  0
 63 65  1  0  0  0
 63137  1  0  0  0
 63138  1  0  0  0
 63139  1  0  0  0
 64140  1  0  0  0
 65141  1  0  0  0
 68 75  1  0  0  0
 71 72  2  0  0  0
 71 73  1  0  0  0
 71142  1  0  0  0
 72 75  1  0  0  0
 72143  1  0  0  0
 73 74  2  0  0  0
 73 77  1  0  0  0
 74 76  1  0  0  0
 74 80  1  0  0  0
 75 80  2  0  0  0
 76144  1  0  0  0
 76145  1  0  0  0
 76146  1  0  0  0
 77 82  1  0  0  0
 77147  1  0  0  0
 77148  1  0  0  0
 78 79  1  0  0  0
 78 81  1  0  0  0
 78149  1  0  0  0
 78150  1  0  0  0
 79 82  1  0  0  0
 79151  1  0  0  0
 79152  1  0  0  0
 81153  1  0  0  0
 82154  1  0  0  0
 82155  1  0  0  0
M  CHG  1  82   1
M  ISO  4   1 100  68 101  75 101  81 100
M  END
> <chiral flag>
0

> <version>
0

> <s_m_source_file>
/data/baiqing/PycharmProjects/Reinvent-master-3.2/result/LINK_invent/BTK/process_docking_weight1_custom_sum_contain_oxygen_bond_distance_aromatic_linkinvent_7_9_3/rearranged_h_0134.sdf

> <i_m_source_file_index>
25

> <r_mmod_Potential_Energy-OPLS-2005>
-323.294891357422

> <r_mmod_Stretch_Energy-OPLS-2005>
75.8200225830078

> <r_mmod_Bend_Energy-OPLS-2005>
136.640380859375

> <r_mmod_Torsional_Energy-OPLS-2005>
194.362854003906

> <r_mmod_Improper_Torsional_Energy-OPLS-2005>
5.68033599853516

> <r_mmod_Van_der_Waal_Energy-OPLS-2005>
141.667694091797

> <r_mmod_Electrostatic_Energy-OPLS-2005>
-411.408294677734

> <r_mmod_Solvation_Energy-OPLS-2005>
-509.065093994141

> <b_mmod_Minimization_Converged-OPLS-2005>
0

> <r_mmod_RMS_Derivative-OPLS-2005>
1.36322569847107

$$$$
25
                    3D
 Structure written by MMmdl.
168177  0  0  1  0            999 V2000
  -30.6718  -14.6653   20.5357 C   0  0  0  0  0  0
  -30.4230  -12.4284   19.4500 C   0  0  0  0  0  0
  -29.4989  -12.5112   18.2196 C   0  0  0  0  0  0
  -28.0276  -12.3383   18.6396 C   0  0  0  0  0  0
  -27.6440  -13.2282   19.8526 C   0  0  2  0  0  0
  -28.6911  -13.1396   20.9833 C   0  0  0  0  0  0
  -25.2521  -13.8194   20.5699 C   0  0  0  0  0  0
  -24.1813  -13.0437   20.9206 C   0  0  0  0  0  0
  -24.6409  -11.6912   20.8759 C   0  0  0  0  0  0
  -23.9069  -10.4291   21.0404 C   0  0  0  0  0  0
  -24.3616   -9.4210   21.9182 C   0  0  0  0  0  0
  -23.6296   -8.2244   22.0752 C   0  0  0  0  0  0
  -22.4280   -8.0278   21.3537 C   0  0  0  0  0  0
  -21.9908   -9.0254   20.4644 C   0  0  0  0  0  0
  -22.7237  -10.2134   20.3055 C   0  0  0  0  0  0
  -21.6854   -6.0732   22.5278 C   0  0  0  0  0  0
  -21.4014   -6.5637   23.8212 C   0  0  0  0  0  0
  -21.3666   -5.6788   24.9177 C   0  0  0  0  0  0
  -21.6039   -4.3049   24.7222 C   0  0  0  0  0  0
  -21.8818   -3.8145   23.4345 C   0  0  0  0  0  0
  -21.9193   -4.6960   22.3402 C   0  0  0  0  0  0
  -22.7830  -13.5224   21.1853 C   0  0  0  0  0  0
  -22.1655   -4.2148   21.0979 F   0  0  0  0  0  0
  -21.5640   -3.4530   25.7733 F   0  0  0  0  0  0
  -29.9918  -13.4809   20.3954 N   0  0  0  0  0  0
  -26.2955  -12.9401   20.3303 N   0  0  0  0  0  0
  -25.9338  -11.6544   20.5777 N   0  0  0  0  0  0
  -22.0457  -12.8242   22.0415 N   0  0  0  0  0  0
  -25.4188  -15.1923   20.4099 N   0  0  0  0  0  0
  -31.8428  -14.7544   20.1527 O   0  0  0  0  0  0
  -21.6641   -6.8876   21.4243 O   0  0  0  0  0  0
  -22.3517  -14.5517   20.6678 O   0  0  0  0  0  0
  -24.6272  -31.8562   23.1992 C   0  0  0  0  0  0
  -25.9116  -32.4762   23.8328 C   0  0  1  0  0  0
  -27.2223  -27.2929   20.1259 C   0  0  0  0  0  0
  -25.5923  -33.8563   24.2248 N   0  0  0  0  0  0
  -23.4214  -30.4783   21.5425 C   0  0  2  0  0  0
  -24.8655  -28.9271   20.1090 C   0  0  0  0  0  0
  -22.7475  -29.4596   22.4931 C   0  0  0  0  0  0
  -18.0282  -28.1395   22.8490 C   0  0  0  0  0  0
  -24.1486  -36.7293   23.2641 C   0  0  0  0  0  0
  -25.9614  -30.7808   21.3708 C   0  0  0  0  0  0
  -26.0338  -29.4035   20.7174 C   0  0  0  0  0  0
  -27.2108  -28.5979   20.7151 C   0  0  0  0  0  0
  -26.0293  -26.8687   19.4978 C   0  0  0  0  0  0
  -24.8680  -27.6669   19.4892 C   0  0  0  0  0  0
  -23.6351  -29.8112   20.1578 C   0  0  0  0  0  0
  -25.4116  -36.3071   24.0318 C   0  0  1  0  0  0
  -20.5881  -28.3685   23.1297 C   0  0  2  0  0  0
  -20.6774  -26.9410   22.5417 C   0  0  0  0  0  0
  -19.5749  -26.6386   21.5221 C   0  0  0  0  0  0
  -18.1927  -26.7943   22.1626 C   0  0  0  0  0  0
  -19.1534  -28.8859   23.2890 C   0  0  0  0  0  0
  -18.9457  -30.1469   23.8894 C   0  0  0  0  0  0
  -17.6455  -30.6596   24.0567 C   0  0  0  0  0  0
  -25.9052  -34.9439   23.5082 C   0  0  0  0  0  0
  -16.5348  -29.9090   23.6337 C   0  0  0  0  0  0
  -16.7269  -28.6513   23.0352 C   0  0  0  0  0  0
  -26.4501  -31.6585   25.0708 C   0  0  0  0  0  0
  -25.3736  -31.3731   26.1439 C   0  0  0  0  0  0
  -27.0349  -30.3013   24.6163 C   0  0  0  0  0  0
  -27.6052  -32.4328   25.7484 C   0  0  0  0  0  0
  -27.5573  -37.1806   24.8468 C   0  0  0  0  0  0
  -21.4185  -29.3041   22.3690 N   0  0  0  0  0  0
  -26.4292  -37.3768   23.9397 N   0  0  0  0  0  0
  -24.6894  -31.0556   22.0953 N   0  0  0  0  0  0
  -23.4192  -28.8151   23.3024 O   0  0  0  0  0  0
  -28.3583  -26.4644   20.1891 O   0  0  0  0  0  0
  -26.5622  -34.8917   22.4653 O   0  0  0  0  0  0
  -23.5432  -32.1368   23.7314 O   0  0  0  0  0  0
  -31.0508  -16.0244   23.0700 C   0  0  0  0  0  0
  -30.1389  -18.1541   22.1859 C   0  0  0  0  0  0
  -30.4074  -16.7098   22.0090 C   0  0  0  0  0  0
  -31.4209  -16.6733   24.2403 C   0  0  0  0  0  0
  -30.5185  -18.6711   23.4854 C   0  0  0  0  0  0
  -27.7491  -22.4915   20.3419 C   0  0  0  0  0  0
  -30.1722  -23.1225   20.3704 C   0  0  0  0  0  0
  -27.6090  -24.0106   20.7720 C   0  0  0  0  0  0
  -29.7916  -24.4607   19.6295 C   0  0  0  0  0  0
  -29.2015  -21.8973   20.2284 C   0  0  1  0  0  0
  -28.3442  -25.0171   19.8273 C   0  0  2  0  0  0
  -32.0988  -15.9321   25.3745 C   0  0  0  0  0  0
  -30.2186  -20.0488   24.0670 C   0  0  0  0  0  0
  -29.4869  -19.1221   21.0848 C   0  0  0  0  0  0
  -29.5824  -20.7305   21.2662 C   0  0  0  0  0  0
  -31.1547  -17.9598   24.4350 N   0  0  0  0  0  0
  -29.9905  -15.7988   20.9438 N   0  0  0  0  0  0
  -31.4647  -12.5408   19.1445 H   0  0  0  0  0  0
  -30.3531  -11.4455   19.9182 H   0  0  0  0  0  0
  -29.7735  -11.7518   17.4862 H   0  0  0  0  0  0
  -29.6309  -13.4752   17.7255 H   0  0  0  0  0  0
  -27.8816  -11.2873   18.8897 H   0  0  0  0  0  0
  -27.3665  -12.5453   17.7976 H   0  0  0  0  0  0
  -27.6455  -14.2544   19.4858 H   0  0  0  0  0  0
  -28.7210  -12.1346   21.4078 H   0  0  0  0  0  0
  -28.4316  -13.8098   21.8038 H   0  0  0  0  0  0
  -25.2755   -9.5691   22.4764 H   0  0  0  0  0  0
  -23.9999   -7.4639   22.7483 H   0  0  0  0  0  0
  -21.0830   -8.8771   19.8961 H   0  0  0  0  0  0
  -22.3683  -10.9671   19.6171 H   0  0  0  0  0  0
  -21.1999   -7.6140   23.9713 H   0  0  0  0  0  0
  -21.1492   -6.0520   25.9080 H   0  0  0  0  0  0
  -22.0590   -2.7607   23.2845 H   0  0  0  0  0  0
  -22.4054  -11.9907   22.4811 H   0  0  0  0  0  0
  -21.1076  -13.1287   22.2590 H   0  0  0  0  0  0
  -24.6452  -15.8389   20.5166 H   0  0  0  0  0  0
  -26.2607  -15.6379   20.0689 H   0  0  0  0  0  0
  -26.7177  -32.5418   23.1069 H   0  0  0  0  0  0
  -25.0092  -33.9710   25.0409 H   0  0  0  0  0  0
  -22.7160  -31.2989   21.3985 H   0  0  0  0  0  0
  -23.3733  -35.9645   23.3325 H   0  0  0  0  0  0
  -24.3573  -36.8890   22.2053 H   0  0  0  0  0  0
  -23.7259  -37.6508   23.6655 H   0  0  0  0  0  0
  -26.0900  -31.5396   20.5970 H   0  0  0  0  0  0
  -26.8443  -30.8346   21.9953 H   0  0  0  0  0  0
  -28.1063  -28.9599   21.2015 H   0  0  0  0  0  0
  -25.9631  -25.9038   19.0204 H   0  0  0  0  0  0
  -23.9734  -27.2954   19.0079 H   0  0  0  0  0  0
  -23.7530  -30.5862   19.3990 H   0  0  0  0  0  0
  -22.7549  -29.2399   19.8577 H   0  0  0  0  0  0
  -25.1303  -36.1916   25.0811 H   0  0  0  0  0  0
  -20.9975  -28.3257   24.1419 H   0  0  0  0  0  0
  -20.5687  -26.2292   23.3618 H   0  0  0  0  0  0
  -21.6642  -26.7453   22.1199 H   0  0  0  0  0  0
  -19.6905  -25.6294   21.1253 H   0  0  0  0  0  0
  -19.6689  -27.3203   20.6757 H   0  0  0  0  0  0
  -17.4202  -26.6697   21.4023 H   0  0  0  0  0  0
  -18.0309  -26.0090   22.9021 H   0  0  0  0  0  0
  -19.7933  -30.7294   24.2247 H   0  0  0  0  0  0
  -17.5010  -31.6277   24.5176 H   0  0  0  0  0  0
  -15.5352  -30.2991   23.7674 H   0  0  0  0  0  0
  -15.8669  -28.0842   22.7056 H   0  0  0  0  0  0
  -24.5912  -30.7074   25.7777 H   0  0  0  0  0  0
  -24.8936  -32.2903   26.4857 H   0  0  0  0  0  0
  -25.8069  -30.8918   27.0213 H   0  0  0  0  0  0
  -26.2921  -29.6756   24.1202 H   0  0  0  0  0  0
  -27.4071  -29.7275   25.4656 H   0  0  0  0  0  0
  -27.8774  -30.4307   23.9369 H   0  0  0  0  0  0
  -27.2654  -33.3626   26.2058 H   0  0  0  0  0  0
  -28.3874  -32.6889   25.0325 H   0  0  0  0  0  0
  -28.0713  -31.8459   26.5405 H   0  0  0  0  0  0
  -28.2609  -38.0085   24.7484 H   0  0  0  0  0  0
  -28.1043  -36.2610   24.6330 H   0  0  0  0  0  0
  -27.2287  -37.1510   25.8873 H   0  0  0  0  0  0
  -20.9357  -29.8759   21.6902 H   0  0  0  0  0  0
  -26.0161  -38.2840   24.1393 H   0  0  0  0  0  0
  -31.2527  -14.9634   23.0330 H   0  0  0  0  0  0
  -27.2748  -22.3898   19.3636 H   0  0  0  0  0  0
  -27.1477  -21.8687   21.0054 H   0  0  0  0  0  0
  -30.2739  -23.3576   21.4313 H   0  0  0  0  0  0
  -31.1716  -22.8217   20.0529 H   0  0  0  0  0  0
  -27.9838  -24.1273   21.7892 H   0  0  0  0  0  0
  -26.5511  -24.2686   20.8165 H   0  0  0  0  0  0
  -29.9691  -24.3279   18.5619 H   0  0  0  0  0  0
  -30.5011  -25.2286   19.9400 H   0  0  0  0  0  0
  -29.3307  -21.4923   19.2228 H   0  0  0  0  0  0
  -27.8724  -24.9369   18.8478 H   0  0  0  0  0  0
  -33.1253  -15.6889   25.1020 H   0  0  0  0  0  0
  -31.5726  -15.0018   25.5907 H   0  0  0  0  0  0
  -32.1253  -16.5245   26.2904 H   0  0  0  0  0  0
  -29.1532  -20.2690   24.0432 H   0  0  0  0  0  0
  -30.8062  -20.8411   23.6071 H   0  0  0  0  0  0
  -30.4789  -20.0991   25.1251 H   0  0  0  0  0  0
  -28.4381  -18.8416   20.9775 H   0  0  0  0  0  0
  -29.9541  -18.8669   20.1330 H   0  0  0  0  0  0
  -29.0005  -21.0077   22.1351 H   0  0  0  0  0  0
  -30.6317  -20.9080   21.4931 H   0  0  0  0  0  0
  -28.9933  -15.7621   20.8061 H   0  0  0  0  0  0
  1 25  1  0  0  0
  1 30  2  0  0  0
  1 87  1  0  0  0
  2  3  1  0  0  0
  2 25  1  0  0  0
  2 88  1  0  0  0
  2 89  1  0  0  0
  3  4  1  0  0  0
  3 90  1  0  0  0
  3 91  1  0  0  0
  4  5  1  0  0  0
  4 92  1  0  0  0
  4 93  1  0  0  0
  5  6  1  0  0  0
  5 26  1  0  0  0
  5 94  1  0  0  0
  6 25  1  0  0  0
  6 95  1  0  0  0
  6 96  1  0  0  0
  7  8  2  0  0  0
  7 26  1  0  0  0
  7 29  1  0  0  0
  8  9  1  0  0  0
  8 22  1  0  0  0
  9 10  1  0  0  0
  9 27  2  0  0  0
 10 11  2  0  0  0
 10 15  1  0  0  0
 11 12  1  0  0  0
 11 97  1  0  0  0
 12 13  2  0  0  0
 12 98  1  0  0  0
 13 14  1  0  0  0
 13 31  1  0  0  0
 14 15  2  0  0  0
 14 99  1  0  0  0
 15100  1  0  0  0
 16 17  2  0  0  0
 16 21  1  0  0  0
 16 31  1  0  0  0
 17 18  1  0  0  0
 17101  1  0  0  0
 18 19  2  0  0  0
 18102  1  0  0  0
 19 20  1  0  0  0
 19 24  1  0  0  0
 20 21  2  0  0  0
 20103  1  0  0  0
 21 23  1  0  0  0
 22 28  1  0  0  0
 22 32  2  0  0  0
 26 27  1  0  0  0
 28104  1  0  0  0
 28105  1  0  0  0
 29106  1  0  0  0
 29107  1  0  0  0
 33 34  1  0  0  0
 33 66  1  0  0  0
 33 70  2  0  0  0
 34 36  1  0  0  0
 34 59  1  0  0  0
 34108  1  0  0  0
 35 44  2  0  0  0
 35 45  1  0  0  0
 35 68  1  0  0  0
 36 56  1  0  0  0
 36109  1  0  0  0
 37 39  1  0  0  0
 37 47  1  0  0  0
 37 66  1  0  0  0
 37110  1  0  0  0
 38 43  2  0  0  0
 38 46  1  0  0  0
 38 47  1  0  0  0
 39 64  1  0  0  0
 39 67  2  0  0  0
 40 52  1  0  0  0
 40 53  2  0  0  0
 40 58  1  0  0  0
 41111  1  0  0  0
 41112  1  0  0  0
 41113  1  0  0  0
 41 48  1  0  0  0
 42 43  1  0  0  0
 42 66  1  0  0  0
 42114  1  0  0  0
 42115  1  0  0  0
 43 44  1  0  0  0
 44116  1  0  0  0
 45 46  2  0  0  0
 45117  1  0  0  0
 46118  1  0  0  0
 47119  1  0  0  0
 47120  1  0  0  0
 48 56  1  0  0  0
 48 65  1  0  0  0
 48121  1  0  0  0
 49 50  1  0  0  0
 49 53  1  0  0  0
 49 64  1  0  0  0
 49122  1  0  0  0
 50 51  1  0  0  0
 50123  1  0  0  0
 50124  1  0  0  0
 51 52  1  0  0  0
 51125  1  0  0  0
 51126  1  0  0  0
 52127  1  0  0  0
 52128  1  0  0  0
 53 54  1  0  0  0
 54 55  2  0  0  0
 54129  1  0  0  0
 55 57  1  0  0  0
 55130  1  0  0  0
 56 69  2  0  0  0
 57 58  2  0  0  0
 57131  1  0  0  0
 58132  1  0  0  0
 59 60  1  0  0  0
 59 61  1  0  0  0
 59 62  1  0  0  0
 60133  1  0  0  0
 60134  1  0  0  0
 60135  1  0  0  0
 61136  1  0  0  0
 61137  1  0  0  0
 61138  1  0  0  0
 62139  1  0  0  0
 62140  1  0  0  0
 62141  1  0  0  0
 63 65  1  0  0  0
 63142  1  0  0  0
 63143  1  0  0  0
 63144  1  0  0  0
 64145  1  0  0  0
 65146  1  0  0  0
 68 81  1  0  0  0
 71 73  2  0  0  0
 71 74  1  0  0  0
 71147  1  0  0  0
 72 73  1  0  0  0
 72 75  2  0  0  0
 72 84  1  0  0  0
 73 87  1  0  0  0
 74 82  1  0  0  0
 74 86  2  0  0  0
 75 83  1  0  0  0
 75 86  1  0  0  0
 76 78  1  0  0  0
 76 80  1  0  0  0
 76148  1  0  0  0
 76149  1  0  0  0
 77 79  1  0  0  0
 77 80  1  0  0  0
 77150  1  0  0  0
 77151  1  0  0  0
 78 81  1  0  0  0
 78152  1  0  0  0
 78153  1  0  0  0
 79 81  1  0  0  0
 79154  1  0  0  0
 79155  1  0  0  0
 80 85  1  0  0  0
 80156  1  0  0  0
 81157  1  0  0  0
 82158  1  0  0  0
 82159  1  0  0  0
 82160  1  0  0  0
 83161  1  0  0  0
 83162  1  0  0  0
 83163  1  0  0  0
 84 85  1  0  0  0
 84164  1  0  0  0
 84165  1  0  0  0
 85166  1  0  0  0
 85167  1  0  0  0
 87168  1  0  0  0
M  ISO  4   1 100  68 101  81 101  87 100
M  END
> <chiral flag>
0

> <version>
0

> <s_m_source_file>
/data/baiqing/PycharmProjects/Reinvent-master-3.2/result/LINK_invent/BTK/process_docking_weight1_custom_sum_contain_oxygen_bond_distance_aromatic_linkinvent_7_9_3/rearranged_h_0134.sdf

> <i_m_source_file_index>
26

> <r_mmod_Potential_Energy-OPLS-2005>
136.809387207031

> <r_mmod_Stretch_Energy-OPLS-2005>
117.660171508789

> <r_mmod_Bend_Energy-OPLS-2005>
208.99919128418

> <r_mmod_Torsional_Energy-OPLS-2005>
291.420837402344

> <r_mmod_Improper_Torsional_Energy-OPLS-2005>
5.85534238815308

> <r_mmod_Van_der_Waal_Energy-OPLS-2005>
173.759872436523

> <r_mmod_Electrostatic_Energy-OPLS-2005>
-503.189300537109

> <r_mmod_Solvation_Energy-OPLS-2005>
-216.298400878906

> <b_mmod_Minimization_Converged-OPLS-2005>
0

> <r_mmod_RMS_Derivative-OPLS-2005>
2.34059739112854

$$$$
26
                    3D
 Structure written by MMmdl.
157166  0  0  1  0            999 V2000
  -30.5335  -14.9804   20.4059 C   0  0  0  0  0  0
  -30.4329  -12.6087   19.4952 C   0  0  0  0  0  0
  -29.5142  -12.5236   18.2544 C   0  0  0  0  0  0
  -28.0505  -12.3028   18.6777 C   0  0  0  0  0  0
  -27.6214  -13.2485   19.8303 C   0  0  2  0  0  0
  -28.6642  -13.3015   20.9642 C   0  0  0  0  0  0
  -25.2436  -13.8211   20.5734 C   0  0  0  0  0  0
  -24.1750  -13.0438   20.9251 C   0  0  0  0  0  0
  -24.6362  -11.6920   20.8761 C   0  0  0  0  0  0
  -23.9046  -10.4283   21.0408 C   0  0  0  0  0  0
  -24.3607   -9.4198   21.9185 C   0  0  0  0  0  0
  -23.6290   -8.2229   22.0755 C   0  0  0  0  0  0
  -22.4276   -8.0265   21.3536 C   0  0  0  0  0  0
  -21.9894   -9.0228   20.4635 C   0  0  0  0  0  0
  -22.7218  -10.2111   20.3049 C   0  0  0  0  0  0
  -21.6848   -6.0722   22.5274 C   0  0  0  0  0  0
  -21.4015   -6.5634   23.8206 C   0  0  0  0  0  0
  -21.3659   -5.6791   24.9172 C   0  0  0  0  0  0
  -21.6047   -4.3052   24.7221 C   0  0  0  0  0  0
  -21.8818   -3.8135   23.4342 C   0  0  0  0  0  0
  -21.9189   -4.6951   22.3396 C   0  0  0  0  0  0
  -22.7778  -13.5211   21.1901 C   0  0  0  0  0  0
  -22.1656   -4.2139   21.0974 F   0  0  0  0  0  0
  -21.5622   -3.4539   25.7732 F   0  0  0  0  0  0
  -29.9290  -13.7226   20.3510 N   0  0  0  0  0  0
  -26.2836  -12.9437   20.3226 N   0  0  0  0  0  0
  -25.9287  -11.6565   20.5733 N   0  0  0  0  0  0
  -22.0431  -12.8176   22.0445 N   0  0  0  0  0  0
  -25.4111  -15.1936   20.4155 N   0  0  0  0  0  0
  -31.7520  -15.0140   20.2025 O   0  0  0  0  0  0
  -21.6641   -6.8863   21.4237 O   0  0  0  0  0  0
  -22.3470  -14.5528   20.6761 O   0  0  0  0  0  0
  -24.6467  -31.8424   23.1893 C   0  0  0  0  0  0
  -25.9223  -32.4681   23.8284 C   0  0  1  0  0  0
  -27.2074  -27.0992   20.1519 C   0  0  0  0  0  0
  -25.5966  -33.8495   24.2191 N   0  0  0  0  0  0
  -23.4530  -30.4627   21.5362 C   0  0  2  0  0  0
  -24.9057  -28.8891   20.1065 C   0  0  0  0  0  0
  -22.7595  -29.4545   22.4878 C   0  0  0  0  0  0
  -18.0293  -28.1398   22.8508 C   0  0  0  0  0  0
  -24.1503  -36.7246   23.2639 C   0  0  0  0  0  0
  -26.0133  -30.6993   21.4022 C   0  0  0  0  0  0
  -26.0816  -29.3078   20.7437 C   0  0  0  0  0  0
  -27.2321  -28.4235   20.7637 C   0  0  0  0  0  0
  -26.0257  -26.8205   19.4300 C   0  0  0  0  0  0
  -24.8911  -27.6580   19.4369 C   0  0  0  0  0  0
  -23.6820  -29.7935   20.1562 C   0  0  0  0  0  0
  -25.4133  -36.3024   24.0312 C   0  0  1  0  0  0
  -20.5919  -28.3763   23.1261 C   0  0  2  0  0  0
  -20.6862  -26.9520   22.5349 C   0  0  0  0  0  0
  -19.5791  -26.6421   21.5232 C   0  0  0  0  0  0
  -18.1984  -26.7898   22.1714 C   0  0  0  0  0  0
  -19.1555  -28.8891   23.2861 C   0  0  0  0  0  0
  -18.9496  -30.1481   23.8887 C   0  0  0  0  0  0
  -17.6485  -30.6620   24.0532 C   0  0  0  0  0  0
  -25.9086  -34.9399   23.5053 C   0  0  0  0  0  0
  -16.5375  -29.9147   23.6296 C   0  0  0  0  0  0
  -16.7279  -28.6531   23.0380 C   0  0  0  0  0  0
  -26.4538  -31.6552   25.0733 C   0  0  0  0  0  0
  -25.3710  -31.3751   26.1410 C   0  0  0  0  0  0
  -27.0407  -30.2932   24.6355 C   0  0  0  0  0  0
  -27.6057  -32.4332   25.7518 C   0  0  0  0  0  0
  -27.5576  -37.1785   24.8462 C   0  0  0  0  0  0
  -21.4269  -29.3167   22.3718 N   0  0  0  0  0  0
  -26.4294  -37.3735   23.9398 N   0  0  0  0  0  0
  -24.7232  -31.0241   22.0959 N   0  0  0  0  0  0
  -23.4240  -28.8007   23.2975 O   0  0  0  0  0  0
  -28.1877  -26.0217   20.2229 O   0  0  0  0  0  0
  -26.5664  -34.8891   22.4629 O   0  0  0  0  0  0
  -23.5573  -32.1329   23.7082 O   0  0  0  0  0  0
  -26.1114  -23.2538   21.6885 C   0  0  0  0  0  0
  -26.6412  -24.4848   21.2969 C   0  0  0  0  0  0
  -28.5329  -23.2765   20.3445 C   0  0  0  0  0  0
  -26.7546  -22.0296   21.4359 C   0  0  0  0  0  0
  -28.0208  -21.9202   20.7814 C   0  0  0  0  0  0
  -27.8396  -24.6122   20.5660 C   0  0  0  0  0  0
  -26.0471  -20.7852   21.9754 C   0  0  0  0  0  0
  -28.3343  -19.8321   22.3315 C   0  0  0  0  0  0
  -28.5154  -20.2880   20.8606 C   0  0  2  0  0  0
  -29.5847  -19.2253   20.0983 C   0  0  0  0  0  0
  -30.2253  -17.7180   20.6487 C   0  0  0  0  0  0
  -29.7758  -16.1959   20.4847 N   0  0  0  0  0  0
  -26.9447  -19.9799   22.8220 N   0  3  0  0  0  0
  -31.4661  -12.7713   19.1841 H   0  0  0  0  0  0
  -30.4339  -11.6661   20.0453 H   0  0  0  0  0  0
  -29.8399  -11.7189   17.5943 H   0  0  0  0  0  0
  -29.5924  -13.4468   17.6792 H   0  0  0  0  0  0
  -27.9513  -11.2653   19.0005 H   0  0  0  0  0  0
  -27.3852  -12.4213   17.8218 H   0  0  0  0  0  0
  -27.5753  -14.2426   19.3864 H   0  0  0  0  0  0
  -28.7625  -12.3298   21.4507 H   0  0  0  0  0  0
  -28.3634  -14.0107   21.7366 H   0  0  0  0  0  0
  -25.2753   -9.5681   22.4761 H   0  0  0  0  0  0
  -23.9994   -7.4619   22.7476 H   0  0  0  0  0  0
  -21.0819   -8.8723   19.8944 H   0  0  0  0  0  0
  -22.3663  -10.9637   19.6147 H   0  0  0  0  0  0
  -21.2021   -7.6147   23.9702 H   0  0  0  0  0  0
  -21.1487   -6.0528   25.9073 H   0  0  0  0  0  0
  -22.0606   -2.7598   23.2847 H   0  0  0  0  0  0
  -22.4075  -11.9838   22.4804 H   0  0  0  0  0  0
  -21.1044  -13.1159   22.2655 H   0  0  0  0  0  0
  -24.6343  -15.8401   20.5072 H   0  0  0  0  0  0
  -26.2379  -15.6221   20.0188 H   0  0  0  0  0  0
  -26.7284  -32.5278   23.1002 H   0  0  0  0  0  0
  -25.0117  -33.9624   25.0341 H   0  0  0  0  0  0
  -22.7568  -31.2881   21.3812 H   0  0  0  0  0  0
  -23.3771  -35.9571   23.3285 H   0  0  0  0  0  0
  -24.3595  -36.8898   22.2059 H   0  0  0  0  0  0
  -23.7258  -37.6436   23.6694 H   0  0  0  0  0  0
  -26.1785  -31.4506   20.6292 H   0  0  0  0  0  0
  -26.8797  -30.7469   22.0499 H   0  0  0  0  0  0
  -28.1144  -28.7305   21.3083 H   0  0  0  0  0  0
  -25.9477  -25.8750   18.9136 H   0  0  0  0  0  0
  -23.9971  -27.3351   18.9238 H   0  0  0  0  0  0
  -23.8238  -30.5687   19.4026 H   0  0  0  0  0  0
  -22.7969  -29.2370   19.8429 H   0  0  0  0  0  0
  -25.1333  -36.1849   25.0810 H   0  0  0  0  0  0
  -20.9978  -28.3313   24.1397 H   0  0  0  0  0  0
  -20.5949  -26.2369   23.3535 H   0  0  0  0  0  0
  -21.6682  -26.7640   22.0971 H   0  0  0  0  0  0
  -19.7027  -25.6327   21.1323 H   0  0  0  0  0  0
  -19.6699  -27.3205   20.6745 H   0  0  0  0  0  0
  -17.4219  -26.6496   21.4183 H   0  0  0  0  0  0
  -18.0532  -26.0055   22.9156 H   0  0  0  0  0  0
  -19.7986  -30.7249   24.2279 H   0  0  0  0  0  0
  -17.5056  -31.6317   24.5104 H   0  0  0  0  0  0
  -15.5382  -30.3094   23.7592 H   0  0  0  0  0  0
  -15.8633  -28.0862   22.7177 H   0  0  0  0  0  0
  -24.5906  -30.7076   25.7727 H   0  0  0  0  0  0
  -24.8868  -32.2939   26.4743 H   0  0  0  0  0  0
  -25.7977  -30.8987   27.0244 H   0  0  0  0  0  0
  -26.3044  -29.6628   24.1350 H   0  0  0  0  0  0
  -27.3981  -29.7252   25.4954 H   0  0  0  0  0  0
  -27.8972  -30.4131   23.9710 H   0  0  0  0  0  0
  -27.2641  -33.3662   26.2010 H   0  0  0  0  0  0
  -28.3909  -32.6844   25.0375 H   0  0  0  0  0  0
  -28.0672  -31.8512   26.5505 H   0  0  0  0  0  0
  -28.2587  -38.0088   24.7516 H   0  0  0  0  0  0
  -28.1084  -36.2620   24.6298 H   0  0  0  0  0  0
  -27.2286  -37.1434   25.8862 H   0  0  0  0  0  0
  -20.9473  -29.9022   21.7012 H   0  0  0  0  0  0
  -26.0154  -38.2802   24.1393 H   0  0  0  0  0  0
  -25.1731  -23.2648   22.2264 H   0  0  0  0  0  0
  -26.0733  -25.3559   21.5823 H   0  0  0  0  0  0
  -29.4909  -23.3054   19.8476 H   0  0  0  0  0  0
  -25.6696  -20.1881   21.1433 H   0  0  0  0  0  0
  -25.1689  -21.0573   22.5619 H   0  0  0  0  0  0
  -28.9960  -20.4108   22.9746 H   0  0  0  0  0  0
  -28.6025  -18.7884   22.4773 H   0  0  0  0  0  0
  -27.6680  -19.8592   20.3290 H   0  0  0  0  0  0
  -30.4799  -19.8381   19.9867 H   0  0  0  0  0  0
  -29.2529  -19.0914   19.0674 H   0  0  0  0  0  0
  -30.4835  -17.8279   21.7021 H   0  0  0  0  0  0
  -31.2055  -17.6936   20.1710 H   0  0  0  0  0  0
  -28.7797  -16.0448   20.5444 H   0  0  0  0  0  0
  -26.5323  -19.0661   22.9163 H   0  0  0  0  0  0
  -26.9736  -20.3876   23.7410 H   0  0  0  0  0  0
  1 25  1  0  0  0
  1 30  2  0  0  0
  1 82  1  0  0  0
  2  3  1  0  0  0
  2 25  1  0  0  0
  2 84  1  0  0  0
  2 85  1  0  0  0
  3  4  1  0  0  0
  3 86  1  0  0  0
  3 87  1  0  0  0
  4  5  1  0  0  0
  4 88  1  0  0  0
  4 89  1  0  0  0
  5  6  1  0  0  0
  5 26  1  0  0  0
  5 90  1  0  0  0
  6 25  1  0  0  0
  6 91  1  0  0  0
  6 92  1  0  0  0
  7  8  2  0  0  0
  7 26  1  0  0  0
  7 29  1  0  0  0
  8  9  1  0  0  0
  8 22  1  0  0  0
  9 10  1  0  0  0
  9 27  2  0  0  0
 10 11  2  0  0  0
 10 15  1  0  0  0
 11 12  1  0  0  0
 11 93  1  0  0  0
 12 13  2  0  0  0
 12 94  1  0  0  0
 13 14  1  0  0  0
 13 31  1  0  0  0
 14 15  2  0  0  0
 14 95  1  0  0  0
 15 96  1  0  0  0
 16 17  2  0  0  0
 16 21  1  0  0  0
 16 31  1  0  0  0
 17 18  1  0  0  0
 17 97  1  0  0  0
 18 19  2  0  0  0
 18 98  1  0  0  0
 19 20  1  0  0  0
 19 24  1  0  0  0
 20 21  2  0  0  0
 20 99  1  0  0  0
 21 23  1  0  0  0
 22 28  1  0  0  0
 22 32  2  0  0  0
 26 27  1  0  0  0
 28100  1  0  0  0
 28101  1  0  0  0
 29102  1  0  0  0
 29103  1  0  0  0
 33 34  1  0  0  0
 33 66  1  0  0  0
 33 70  2  0  0  0
 34 36  1  0  0  0
 34 59  1  0  0  0
 34104  1  0  0  0
 35 44  2  0  0  0
 35 45  1  0  0  0
 35 68  1  0  0  0
 36 56  1  0  0  0
 36105  1  0  0  0
 37 39  1  0  0  0
 37 47  1  0  0  0
 37 66  1  0  0  0
 37106  1  0  0  0
 38 43  2  0  0  0
 38 46  1  0  0  0
 38 47  1  0  0  0
 39 64  1  0  0  0
 39 67  2  0  0  0
 40 52  1  0  0  0
 40 53  2  0  0  0
 40 58  1  0  0  0
 41107  1  0  0  0
 41108  1  0  0  0
 41109  1  0  0  0
 41 48  1  0  0  0
 42 43  1  0  0  0
 42 66  1  0  0  0
 42110  1  0  0  0
 42111  1  0  0  0
 43 44  1  0  0  0
 44112  1  0  0  0
 45 46  2  0  0  0
 45113  1  0  0  0
 46114  1  0  0  0
 47115  1  0  0  0
 47116  1  0  0  0
 48 56  1  0  0  0
 48 65  1  0  0  0
 48117  1  0  0  0
 49 50  1  0  0  0
 49 53  1  0  0  0
 49 64  1  0  0  0
 49118  1  0  0  0
 50 51  1  0  0  0
 50119  1  0  0  0
 50120  1  0  0  0
 51 52  1  0  0  0
 51121  1  0  0  0
 51122  1  0  0  0
 52123  1  0  0  0
 52124  1  0  0  0
 53 54  1  0  0  0
 54 55  2  0  0  0
 54125  1  0  0  0
 55 57  1  0  0  0
 55126  1  0  0  0
 56 69  2  0  0  0
 57 58  2  0  0  0
 57127  1  0  0  0
 58128  1  0  0  0
 59 60  1  0  0  0
 59 61  1  0  0  0
 59 62  1  0  0  0
 60129  1  0  0  0
 60130  1  0  0  0
 60131  1  0  0  0
 61132  1  0  0  0
 61133  1  0  0  0
 61134  1  0  0  0
 62135  1  0  0  0
 62136  1  0  0  0
 62137  1  0  0  0
 63 65  1  0  0  0
 63138  1  0  0  0
 63139  1  0  0  0
 63140  1  0  0  0
 64141  1  0  0  0
 65142  1  0  0  0
 68 76  1  0  0  0
 71 72  2  0  0  0
 71 74  1  0  0  0
 71143  1  0  0  0
 72 76  1  0  0  0
 72144  1  0  0  0
 73 75  1  0  0  0
 73 76  2  0  0  0
 73145  1  0  0  0
 74 75  2  0  0  0
 74 77  1  0  0  0
 75 79  1  0  0  0
 77 83  1  0  0  0
 77146  1  0  0  0
 77147  1  0  0  0
 78 79  1  0  0  0
 78 83  1  0  0  0
 78148  1  0  0  0
 78149  1  0  0  0
 79 80  1  0  0  0
 79150  1  0  0  0
 80 81  1  0  0  0
 80151  1  0  0  0
 80152  1  0  0  0
 81 82  1  0  0  0
 81153  1  0  0  0
 81154  1  0  0  0
 82155  1  0  0  0
 83156  1  0  0  0
 83157  1  0  0  0
M  CHG  1  83   1
M  ISO  4   1 100  68 101  76 101  82 100
M  END
> <chiral flag>
0

> <version>
0

> <s_m_source_file>
/data/baiqing/PycharmProjects/Reinvent-master-3.2/result/LINK_invent/BTK/process_docking_weight1_custom_sum_contain_oxygen_bond_distance_aromatic_linkinvent_7_9_3/rearranged_h_0134.sdf

> <i_m_source_file_index>
27

> <r_mmod_Potential_Energy-OPLS-2005>
604.827514648438

> <r_mmod_Stretch_Energy-OPLS-2005>
333.462371826172

> <r_mmod_Bend_Energy-OPLS-2005>
409.610046386719

> <r_mmod_Torsional_Energy-OPLS-2005>
254.22785949707

> <r_mmod_Improper_Torsional_Energy-OPLS-2005>
5.15593385696411

> <r_mmod_Van_der_Waal_Energy-OPLS-2005>
157.413986206055

> <r_mmod_Electrostatic_Energy-OPLS-2005>
-288.098175048828

> <r_mmod_Solvation_Energy-OPLS-2005>
-501.91845703125

> <b_mmod_Minimization_Converged-OPLS-2005>
0

> <r_mmod_RMS_Derivative-OPLS-2005>
3.04628086090088

$$$$
27
                    3D
 Structure written by MMmdl.
155164  0  0  1  0            999 V2000
  -30.5230  -14.9177   20.4170 C   0  0  0  0  0  0
  -30.4525  -12.5462   19.5143 C   0  0  0  0  0  0
  -29.5443  -12.4972   18.2631 C   0  0  0  0  0  0
  -28.0559  -12.3462   18.6486 C   0  0  0  0  0  0
  -27.6400  -13.2497   19.8410 C   0  0  2  0  0  0
  -28.6802  -13.2292   20.9819 C   0  0  0  0  0  0
  -25.2499  -13.8230   20.5702 C   0  0  0  0  0  0
  -24.1794  -13.0456   20.9177 C   0  0  0  0  0  0
  -24.6412  -11.6939   20.8705 C   0  0  0  0  0  0
  -23.9088  -10.4307   21.0378 C   0  0  0  0  0  0
  -24.3629   -9.4233   21.9169 C   0  0  0  0  0  0
  -23.6293   -8.2273   22.0764 C   0  0  0  0  0  0
  -22.4270   -8.0306   21.3559 C   0  0  0  0  0  0
  -21.9910   -9.0280   20.4673 C   0  0  0  0  0  0
  -22.7243  -10.2149   20.3056 C   0  0  0  0  0  0
  -21.6857   -6.0744   22.5274 C   0  0  0  0  0  0
  -21.4022   -6.5643   23.8211 C   0  0  0  0  0  0
  -21.3671   -5.6800   24.9168 C   0  0  0  0  0  0
  -21.6046   -4.3056   24.7229 C   0  0  0  0  0  0
  -21.8812   -3.8153   23.4340 C   0  0  0  0  0  0
  -21.9193   -4.6968   22.3404 C   0  0  0  0  0  0
  -22.7812  -13.5238   21.1844 C   0  0  0  0  0  0
  -22.1661   -4.2154   21.0979 F   0  0  0  0  0  0
  -21.5636   -3.4549   25.7743 F   0  0  0  0  0  0
  -29.9656  -13.6403   20.4007 N   0  0  0  0  0  0
  -26.2931  -12.9472   20.3196 N   0  0  0  0  0  0
  -25.9344  -11.6597   20.5674 N   0  0  0  0  0  0
  -22.0426  -12.8264   22.0395 N   0  0  0  0  0  0
  -25.4182  -15.1963   20.4226 N   0  0  0  0  0  0
  -31.7057  -15.0409   20.0858 O   0  0  0  0  0  0
  -21.6647   -6.8889   21.4241 O   0  0  0  0  0  0
  -22.3511  -14.5550   20.6693 O   0  0  0  0  0  0
  -24.6442  -31.8435   23.1857 C   0  0  0  0  0  0
  -25.9221  -32.4683   23.8250 C   0  0  1  0  0  0
  -27.2229  -27.1447   20.1456 C   0  0  0  0  0  0
  -25.5973  -33.8487   24.2186 N   0  0  0  0  0  0
  -23.4455  -30.4660   21.5304 C   0  0  2  0  0  0
  -24.8960  -28.8911   20.1065 C   0  0  0  0  0  0
  -22.7555  -29.4573   22.4835 C   0  0  0  0  0  0
  -18.0314  -28.1383   22.8464 C   0  0  0  0  0  0
  -24.1496  -36.7254   23.2642 C   0  0  0  0  0  0
  -26.0006  -30.7229   21.3794 C   0  0  0  0  0  0
  -26.0729  -29.3330   20.7240 C   0  0  0  0  0  0
  -27.2364  -28.4767   20.7246 C   0  0  0  0  0  0
  -26.0196  -26.8030   19.4886 C   0  0  0  0  0  0
  -24.8822  -27.6396   19.4731 C   0  0  0  0  0  0
  -23.6704  -29.7915   20.1498 C   0  0  0  0  0  0
  -25.4120  -36.3028   24.0317 C   0  0  1  0  0  0
  -20.5923  -28.3731   23.1210 C   0  0  2  0  0  0
  -20.6791  -26.9429   22.5395 C   0  0  0  0  0  0
  -19.5773  -26.6370   21.5197 C   0  0  0  0  0  0
  -18.1955  -26.7918   22.1607 C   0  0  0  0  0  0
  -19.1570  -28.8872   23.2839 C   0  0  0  0  0  0
  -18.9482  -30.1461   23.8874 C   0  0  0  0  0  0
  -17.6477  -30.6578   24.0551 C   0  0  0  0  0  0
  -25.9069  -34.9403   23.5059 C   0  0  0  0  0  0
  -16.5370  -29.9067   23.6323 C   0  0  0  0  0  0
  -16.7298  -28.6484   23.0348 C   0  0  0  0  0  0
  -26.4538  -31.6526   25.0681 C   0  0  0  0  0  0
  -25.3719  -31.3723   26.1380 C   0  0  0  0  0  0
  -27.0396  -30.2922   24.6244 C   0  0  0  0  0  0
  -27.6096  -32.4258   25.7461 C   0  0  0  0  0  0
  -27.5581  -37.1769   24.8458 C   0  0  0  0  0  0
  -21.4252  -29.3056   22.3573 N   0  0  0  0  0  0
  -26.4283  -37.3736   23.9411 N   0  0  0  0  0  0
  -24.7170  -31.0317   22.0873 N   0  0  0  0  0  0
  -23.4199  -28.8132   23.2999 O   0  0  0  0  0  0
  -28.2808  -26.1653   20.2224 O   0  0  0  0  0  0
  -26.5645  -34.8900   22.4631 O   0  0  0  0  0  0
  -23.5568  -32.1318   23.7081 O   0  0  0  0  0  0
  -28.6155  -19.4899   19.1545 C   0  0  0  0  0  0
  -30.0991  -18.6040   21.2204 C   0  0  0  0  0  0
  -28.8868  -18.0756   19.2721 C   0  0  0  0  0  0
  -29.6538  -17.5333   20.3550 C   0  0  0  0  0  0
  -29.0605  -20.4814   20.0755 C   0  0  0  0  0  0
  -29.0591  -16.1591   17.4619 C   0  0  0  0  0  0
  -28.5503  -17.3970   16.7684 C   0  0  0  0  0  0
  -28.2660  -17.1812   18.2399 C   0  0  0  0  0  0
  -28.9986  -23.3151   20.3783 C   0  0  0  0  0  0
  -28.0153  -24.6441   20.0206 C   0  0  0  0  0  0
  -29.8328  -19.9813   21.0934 N   0  0  0  0  0  0
  -29.6834  -16.0302   20.6708 N   0  0  0  0  0  0
  -28.6071  -21.8851   19.9043 N   0  0  0  0  0  0
  -31.4927  -12.6899   19.2195 H   0  0  0  0  0  0
  -30.4267  -11.5900   20.0400 H   0  0  0  0  0  0
  -29.8441  -11.6737   17.6126 H   0  0  0  0  0  0
  -29.6960  -13.4000   17.6750 H   0  0  0  0  0  0
  -27.8863  -11.2993   18.9015 H   0  0  0  0  0  0
  -27.4242  -12.5506   17.7829 H   0  0  0  0  0  0
  -27.6178  -14.2641   19.4413 H   0  0  0  0  0  0
  -28.7487  -12.2361   21.4309 H   0  0  0  0  0  0
  -28.3835  -13.9028   21.7859 H   0  0  0  0  0  0
  -25.2777   -9.5731   22.4735 H   0  0  0  0  0  0
  -24.0023   -7.4691   22.7485 H   0  0  0  0  0  0
  -21.0845   -8.8803   19.8992 H   0  0  0  0  0  0
  -22.3699  -10.9690   19.6169 H   0  0  0  0  0  0
  -21.2013   -7.6148   23.9720 H   0  0  0  0  0  0
  -21.1498   -6.0517   25.9075 H   0  0  0  0  0  0
  -22.0576   -2.7612   23.2825 H   0  0  0  0  0  0
  -22.3981  -11.9922   22.4825 H   0  0  0  0  0  0
  -21.1054  -13.1363   22.2555 H   0  0  0  0  0  0
  -24.6551  -15.8490   20.5702 H   0  0  0  0  0  0
  -26.2687  -15.6467   20.1156 H   0  0  0  0  0  0
  -26.7298  -32.5299   23.0991 H   0  0  0  0  0  0
  -25.0112  -33.9574   25.0334 H   0  0  0  0  0  0
  -22.7496  -31.2927   21.3734 H   0  0  0  0  0  0
  -23.3747  -35.9596   23.3288 H   0  0  0  0  0  0
  -24.3602  -36.8902   22.2065 H   0  0  0  0  0  0
  -23.7256  -37.6450   23.6677 H   0  0  0  0  0  0
  -26.1514  -31.4765   20.6042 H   0  0  0  0  0  0
  -26.8733  -30.7764   22.0180 H   0  0  0  0  0  0
  -28.1324  -28.8130   21.2265 H   0  0  0  0  0  0
  -25.9230  -25.8472   18.9960 H   0  0  0  0  0  0
  -23.9857  -27.2968   18.9763 H   0  0  0  0  0  0
  -23.7979  -30.5620   19.3878 H   0  0  0  0  0  0
  -22.7855  -29.2281   19.8490 H   0  0  0  0  0  0
  -25.1305  -36.1853   25.0805 H   0  0  0  0  0  0
  -21.0042  -28.3336   24.1321 H   0  0  0  0  0  0
  -20.5651  -26.2363   23.3626 H   0  0  0  0  0  0
  -21.6666  -26.7399   22.1232 H   0  0  0  0  0  0
  -19.6937  -25.6266   21.1266 H   0  0  0  0  0  0
  -19.6710  -27.3143   20.6695 H   0  0  0  0  0  0
  -17.4226  -26.6670   21.4005 H   0  0  0  0  0  0
  -18.0360  -26.0053   22.9003 H   0  0  0  0  0  0
  -19.7967  -30.7279   24.2240 H   0  0  0  0  0  0
  -17.5033  -31.6256   24.5153 H   0  0  0  0  0  0
  -15.5367  -30.2962   23.7632 H   0  0  0  0  0  0
  -15.8709  -28.0777   22.7075 H   0  0  0  0  0  0
  -24.5905  -30.7068   25.7698 H   0  0  0  0  0  0
  -24.8892  -32.2906   26.4730 H   0  0  0  0  0  0
  -25.8000  -30.8941   27.0199 H   0  0  0  0  0  0
  -26.3010  -29.6625   24.1273 H   0  0  0  0  0  0
  -27.4055  -29.7236   25.4802 H   0  0  0  0  0  0
  -27.8899  -30.4158   23.9533 H   0  0  0  0  0  0
  -27.2739  -33.3596   26.1975 H   0  0  0  0  0  0
  -28.3942  -32.6733   25.0298 H   0  0  0  0  0  0
  -28.0716  -31.8392   26.5414 H   0  0  0  0  0  0
  -28.2575  -38.0087   24.7514 H   0  0  0  0  0  0
  -28.1098  -36.2612   24.6254 H   0  0  0  0  0  0
  -27.2314  -37.1408   25.8866 H   0  0  0  0  0  0
  -20.9454  -29.8775   21.6755 H   0  0  0  0  0  0
  -26.0152  -38.2812   24.1377 H   0  0  0  0  0  0
  -28.0034  -19.8065   18.3209 H   0  0  0  0  0  0
  -30.6463  -18.3471   22.1151 H   0  0  0  0  0  0
  -30.1309  -16.0920   17.6443 H   0  0  0  0  0  0
  -28.5587  -15.2277   17.2144 H   0  0  0  0  0  0
  -27.7282  -17.2633   16.0683 H   0  0  0  0  0  0
  -29.2941  -18.1395   16.4836 H   0  0  0  0  0  0
  -27.2433  -16.9317   18.5141 H   0  0  0  0  0  0
  -29.1635  -23.2759   21.4552 H   0  0  0  0  0  0
  -29.9781  -23.5155   19.9427 H   0  0  0  0  0  0
  -27.0764  -24.4449   20.5390 H   0  0  0  0  0  0
  -27.7762  -24.5446   18.9617 H   0  0  0  0  0  0
  -28.7818  -15.6964   20.9767 H   0  0  0  0  0  0
  -27.9446  -21.9537   19.1400 H   0  0  0  0  0  0
  1 25  1  0  0  0
  1 30  2  0  0  0
  1 82  1  0  0  0
  2  3  1  0  0  0
  2 25  1  0  0  0
  2 84  1  0  0  0
  2 85  1  0  0  0
  3  4  1  0  0  0
  3 86  1  0  0  0
  3 87  1  0  0  0
  4  5  1  0  0  0
  4 88  1  0  0  0
  4 89  1  0  0  0
  5  6  1  0  0  0
  5 26  1  0  0  0
  5 90  1  0  0  0
  6 25  1  0  0  0
  6 91  1  0  0  0
  6 92  1  0  0  0
  7  8  2  0  0  0
  7 26  1  0  0  0
  7 29  1  0  0  0
  8  9  1  0  0  0
  8 22  1  0  0  0
  9 10  1  0  0  0
  9 27  2  0  0  0
 10 11  2  0  0  0
 10 15  1  0  0  0
 11 12  1  0  0  0
 11 93  1  0  0  0
 12 13  2  0  0  0
 12 94  1  0  0  0
 13 14  1  0  0  0
 13 31  1  0  0  0
 14 15  2  0  0  0
 14 95  1  0  0  0
 15 96  1  0  0  0
 16 17  2  0  0  0
 16 21  1  0  0  0
 16 31  1  0  0  0
 17 18  1  0  0  0
 17 97  1  0  0  0
 18 19  2  0  0  0
 18 98  1  0  0  0
 19 20  1  0  0  0
 19 24  1  0  0  0
 20 21  2  0  0  0
 20 99  1  0  0  0
 21 23  1  0  0  0
 22 28  1  0  0  0
 22 32  2  0  0  0
 26 27  1  0  0  0
 28100  1  0  0  0
 28101  1  0  0  0
 29102  1  0  0  0
 29103  1  0  0  0
 33 34  1  0  0  0
 33 66  1  0  0  0
 33 70  2  0  0  0
 34 36  1  0  0  0
 34 59  1  0  0  0
 34104  1  0  0  0
 35 44  2  0  0  0
 35 45  1  0  0  0
 35 68  1  0  0  0
 36 56  1  0  0  0
 36105  1  0  0  0
 37 39  1  0  0  0
 37 47  1  0  0  0
 37 66  1  0  0  0
 37106  1  0  0  0
 38 43  2  0  0  0
 38 46  1  0  0  0
 38 47  1  0  0  0
 39 64  1  0  0  0
 39 67  2  0  0  0
 40 52  1  0  0  0
 40 53  2  0  0  0
 40 58  1  0  0  0
 41107  1  0  0  0
 41108  1  0  0  0
 41109  1  0  0  0
 41 48  1  0  0  0
 42 43  1  0  0  0
 42 66  1  0  0  0
 42110  1  0  0  0
 42111  1  0  0  0
 43 44  1  0  0  0
 44112  1  0  0  0
 45 46  2  0  0  0
 45113  1  0  0  0
 46114  1  0  0  0
 47115  1  0  0  0
 47116  1  0  0  0
 48 56  1  0  0  0
 48 65  1  0  0  0
 48117  1  0  0  0
 49 50  1  0  0  0
 49 53  1  0  0  0
 49 64  1  0  0  0
 49118  1  0  0  0
 50 51  1  0  0  0
 50119  1  0  0  0
 50120  1  0  0  0
 51 52  1  0  0  0
 51121  1  0  0  0
 51122  1  0  0  0
 52123  1  0  0  0
 52124  1  0  0  0
 53 54  1  0  0  0
 54 55  2  0  0  0
 54125  1  0  0  0
 55 57  1  0  0  0
 55126  1  0  0  0
 56 69  2  0  0  0
 57 58  2  0  0  0
 57127  1  0  0  0
 58128  1  0  0  0
 59 60  1  0  0  0
 59 61  1  0  0  0
 59 62  1  0  0  0
 60129  1  0  0  0
 60130  1  0  0  0
 60131  1  0  0  0
 61132  1  0  0  0
 61133  1  0  0  0
 61134  1  0  0  0
 62135  1  0  0  0
 62136  1  0  0  0
 62137  1  0  0  0
 63 65  1  0  0  0
 63138  1  0  0  0
 63139  1  0  0  0
 63140  1  0  0  0
 64141  1  0  0  0
 65142  1  0  0  0
 68 80  1  0  0  0
 71 73  2  0  0  0
 71 75  1  0  0  0
 71143  1  0  0  0
 72 74  2  0  0  0
 72 81  1  0  0  0
 72144  1  0  0  0
 73 74  1  0  0  0
 73 78  1  0  0  0
 74 82  1  0  0  0
 75 81  2  0  0  0
 75 83  1  0  0  0
 76 77  1  0  0  0
 76 78  1  0  0  0
 76145  1  0  0  0
 76146  1  0  0  0
 77 78  1  0  0  0
 77147  1  0  0  0
 77148  1  0  0  0
 78149  1  0  0  0
 79 80  1  0  0  0
 79 83  1  0  0  0
 79150  1  0  0  0
 79151  1  0  0  0
 80152  1  0  0  0
 80153  1  0  0  0
 82154  1  0  0  0
 83155  1  0  0  0
M  ISO  4   1 100  68 101  80 101  82 100
M  END
> <chiral flag>
0

> <version>
0

> <s_m_source_file>
/data/baiqing/PycharmProjects/Reinvent-master-3.2/result/LINK_invent/BTK/process_docking_weight1_custom_sum_contain_oxygen_bond_distance_aromatic_linkinvent_7_9_3/rearranged_h_0134.sdf

> <i_m_source_file_index>
28

> <r_mmod_Potential_Energy-OPLS-2005>
219.666351318359

> <r_mmod_Stretch_Energy-OPLS-2005>
220.139984130859

> <r_mmod_Bend_Energy-OPLS-2005>
278.648986816406

> <r_mmod_Torsional_Energy-OPLS-2005>
267.868041992188

> <r_mmod_Improper_Torsional_Energy-OPLS-2005>
6.58454418182373

> <r_mmod_Van_der_Waal_Energy-OPLS-2005>
122.374351501465

> <r_mmod_Electrostatic_Energy-OPLS-2005>
-603.880859375

> <r_mmod_Solvation_Energy-OPLS-2005>
-249.951309204102

> <b_mmod_Minimization_Converged-OPLS-2005>
0

> <r_mmod_RMS_Derivative-OPLS-2005>
2.691645860672

$$$$
28
                    3D
 Structure written by MMmdl.
156164  0  0  1  0            999 V2000
  -30.7465  -14.4008   20.6544 C   0  0  0  0  0  0
  -30.4180  -12.2998   19.3980 C   0  0  0  0  0  0
  -29.4842  -12.5204   18.1930 C   0  0  0  0  0  0
  -28.0088  -12.3747   18.6113 C   0  0  0  0  0  0
  -27.6637  -13.2032   19.8770 C   0  0  2  0  0  0
  -28.7032  -12.9554   20.9915 C   0  0  0  0  0  0
  -25.2596  -13.8155   20.5676 C   0  0  0  0  0  0
  -24.1843  -13.0436   20.9170 C   0  0  0  0  0  0
  -24.6393  -11.6903   20.8731 C   0  0  0  0  0  0
  -23.9060  -10.4291   21.0406 C   0  0  0  0  0  0
  -24.3613   -9.4207   21.9186 C   0  0  0  0  0  0
  -23.6288   -8.2244   22.0755 C   0  0  0  0  0  0
  -22.4272   -8.0283   21.3545 C   0  0  0  0  0  0
  -21.9910   -9.0256   20.4643 C   0  0  0  0  0  0
  -22.7237  -10.2134   20.3053 C   0  0  0  0  0  0
  -21.6851   -6.0738   22.5280 C   0  0  0  0  0  0
  -21.4012   -6.5641   23.8214 C   0  0  0  0  0  0
  -21.3658   -5.6793   24.9177 C   0  0  0  0  0  0
  -21.6045   -4.3055   24.7225 C   0  0  0  0  0  0
  -21.8821   -3.8149   23.4346 C   0  0  0  0  0  0
  -21.9193   -4.6966   22.3403 C   0  0  0  0  0  0
  -22.7867  -13.5240   21.1838 C   0  0  0  0  0  0
  -22.1663   -4.2152   21.0980 F   0  0  0  0  0  0
  -21.5630   -3.4539   25.7738 F   0  0  0  0  0  0
  -30.0402  -13.2580   20.4478 N   0  0  0  0  0  0
  -26.3033  -12.9320   20.3370 N   0  0  0  0  0  0
  -25.9316  -11.6481   20.5757 N   0  0  0  0  0  0
  -22.0507  -12.8228   22.0393 N   0  0  0  0  0  0
  -25.4331  -15.1870   20.4093 N   0  0  0  0  0  0
  -31.8104  -14.6517   20.0805 O   0  0  0  0  0  0
  -21.6637   -6.8882   21.4242 O   0  0  0  0  0  0
  -22.3558  -14.5551   20.6696 O   0  0  0  0  0  0
  -24.6127  -31.8687   23.2115 C   0  0  0  0  0  0
  -25.9026  -32.4823   23.8405 C   0  0  1  0  0  0
  -27.2394  -27.4492   20.0707 C   0  0  0  0  0  0
  -25.5882  -33.8622   24.2332 N   0  0  0  0  0  0
  -23.3993  -30.4932   21.5526 C   0  0  2  0  0  0
  -24.8437  -28.9587   20.1167 C   0  0  0  0  0  0
  -22.7386  -29.4670   22.5008 C   0  0  0  0  0  0
  -18.0263  -28.1372   22.8497 C   0  0  0  0  0  0
  -24.1484  -36.7323   23.2636 C   0  0  0  0  0  0
  -25.9274  -30.8352   21.3634 C   0  0  0  0  0  0
  -26.0035  -29.4696   20.7113 C   0  0  0  0  0  0
  -27.1993  -28.7173   20.6946 C   0  0  0  0  0  0
  -26.0499  -26.9372   19.5020 C   0  0  0  0  0  0
  -24.8599  -27.6883   19.5165 C   0  0  0  0  0  0
  -23.6059  -29.8250   20.1671 C   0  0  0  0  0  0
  -25.4102  -36.3115   24.0338 C   0  0  1  0  0  0
  -20.5849  -28.3658   23.1329 C   0  0  2  0  0  0
  -20.6752  -26.9399   22.5424 C   0  0  0  0  0  0
  -19.5737  -26.6389   21.5211 C   0  0  0  0  0  0
  -18.1912  -26.7922   22.1623 C   0  0  0  0  0  0
  -19.1511  -28.8831   23.2911 C   0  0  0  0  0  0
  -18.9440  -30.1438   23.8920 C   0  0  0  0  0  0
  -17.6444  -30.6580   24.0572 C   0  0  0  0  0  0
  -25.9029  -34.9476   23.5134 C   0  0  0  0  0  0
  -16.5335  -29.9086   23.6325 C   0  0  0  0  0  0
  -16.7254  -28.6502   23.0347 C   0  0  0  0  0  0
  -26.4458  -31.6592   25.0723 C   0  0  0  0  0  0
  -25.3726  -31.3672   26.1468 C   0  0  0  0  0  0
  -27.0296  -30.3043   24.6085 C   0  0  0  0  0  0
  -27.6038  -32.4302   25.7483 C   0  0  0  0  0  0
  -27.5580  -37.1808   24.8461 C   0  0  0  0  0  0
  -21.4115  -29.3035   22.3743 N   0  0  0  0  0  0
  -26.4292  -37.3795   23.9408 N   0  0  0  0  0  0
  -24.6650  -31.0795   22.1012 N   0  0  0  0  0  0
  -23.4166  -28.8209   23.3040 O   0  0  0  0  0  0
  -28.4264  -26.7452   20.0792 O   0  0  0  0  0  0
  -26.5600  -34.8926   22.4700 O   0  0  0  0  0  0
  -23.5324  -32.1446   23.7513 O   0  0  0  0  0  0
  -30.2757  -20.4365   20.2378 C   0  0  0  0  0  0
  -27.9570  -20.1122   20.8724 C   0  0  0  0  0  0
  -30.0117  -21.7965   19.9641 C   0  0  0  0  0  0
  -27.6925  -21.4685   20.5906 C   0  0  0  0  0  0
  -29.2514  -19.5789   20.7045 C   0  0  0  0  0  0
  -28.7100  -22.3313   20.1355 C   0  0  0  0  0  0
  -30.8063  -17.6566   21.1017 C   0  0  0  0  0  0
  -30.8650  -16.4554   22.0654 C   0  0  0  0  0  0
  -29.3633  -24.5538   19.4356 C   0  0  0  0  0  0
  -28.7409  -25.8872   18.9742 C   0  0  0  0  0  0
  -29.4626  -18.2218   21.0091 N   0  0  0  0  0  0
  -30.2158  -15.2535   21.5415 N   0  0  0  0  0  0
  -28.3563  -23.6439   19.8810 O   0  0  0  0  0  0
  -31.4606  -12.4034   19.0916 H   0  0  0  0  0  0
  -30.3214  -11.2805   19.7744 H   0  0  0  0  0  0
  -29.7183  -11.8102   17.3990 H   0  0  0  0  0  0
  -29.6513  -13.5141   17.7746 H   0  0  0  0  0  0
  -27.8197  -11.3171   18.7983 H   0  0  0  0  0  0
  -27.3536  -12.6584   17.7867 H   0  0  0  0  0  0
  -27.7186  -14.2556   19.5974 H   0  0  0  0  0  0
  -28.6730  -11.9124   21.3097 H   0  0  0  0  0  0
  -28.4515  -13.5315   21.8820 H   0  0  0  0  0  0
  -25.2759   -9.5685   22.4758 H   0  0  0  0  0  0
  -23.9998   -7.4639   22.7475 H   0  0  0  0  0  0
  -21.0844   -8.8776   19.8944 H   0  0  0  0  0  0
  -22.3702  -10.9675   19.6158 H   0  0  0  0  0  0
  -21.2001   -7.6149   23.9718 H   0  0  0  0  0  0
  -21.1478   -6.0522   25.9080 H   0  0  0  0  0  0
  -22.0601   -2.7611   23.2847 H   0  0  0  0  0  0
  -22.4117  -11.9877   22.4762 H   0  0  0  0  0  0
  -21.1130  -13.1261   22.2605 H   0  0  0  0  0  0
  -24.6690  -15.8455   20.5156 H   0  0  0  0  0  0
  -26.2928  -15.6237   20.1003 H   0  0  0  0  0  0
  -26.7092  -32.5539   23.1167 H   0  0  0  0  0  0
  -25.0003  -33.9793   25.0455 H   0  0  0  0  0  0
  -22.6875  -31.3097   21.4145 H   0  0  0  0  0  0
  -23.3744  -35.9658   23.3304 H   0  0  0  0  0  0
  -24.3578  -36.8937   22.2052 H   0  0  0  0  0  0
  -23.7245  -37.6528   23.6655 H   0  0  0  0  0  0
  -26.0366  -31.6010   20.5940 H   0  0  0  0  0  0
  -26.8169  -30.8900   21.9794 H   0  0  0  0  0  0
  -28.0972  -29.1118   21.1504 H   0  0  0  0  0  0
  -26.0124  -25.9510   19.0640 H   0  0  0  0  0  0
  -23.9619  -27.2795   19.0734 H   0  0  0  0  0  0
  -23.7127  -30.5999   19.4070 H   0  0  0  0  0  0
  -22.7295  -29.2444   19.8737 H   0  0  0  0  0  0
  -25.1280  -36.1980   25.0834 H   0  0  0  0  0  0
  -20.9938  -28.3221   24.1452 H   0  0  0  0  0  0
  -20.5643  -26.2265   23.3605 H   0  0  0  0  0  0
  -21.6627  -26.7441   22.1223 H   0  0  0  0  0  0
  -19.6899  -25.6305   21.1228 H   0  0  0  0  0  0
  -19.6675  -27.3208   20.6749 H   0  0  0  0  0  0
  -17.4181  -26.6673   21.4026 H   0  0  0  0  0  0
  -18.0313  -26.0057   22.9013 H   0  0  0  0  0  0
  -19.7916  -30.7247   24.2300 H   0  0  0  0  0  0
  -17.5002  -31.6260   24.5173 H   0  0  0  0  0  0
  -15.5337  -30.2997   23.7640 H   0  0  0  0  0  0
  -15.8652  -28.0833   22.7049 H   0  0  0  0  0  0
  -24.5921  -30.6994   25.7797 H   0  0  0  0  0  0
  -24.8882  -32.2809   26.4921 H   0  0  0  0  0  0
  -25.8088  -30.8841   27.0222 H   0  0  0  0  0  0
  -26.2841  -29.6792   24.1154 H   0  0  0  0  0  0
  -27.4097  -29.7281   25.4531 H   0  0  0  0  0  0
  -27.8658  -30.4374   23.9216 H   0  0  0  0  0  0
  -27.2674  -33.3604   26.2074 H   0  0  0  0  0  0
  -28.3841  -32.6850   25.0299 H   0  0  0  0  0  0
  -28.0711  -31.8410   26.5385 H   0  0  0  0  0  0
  -28.2589  -38.0112   24.7521 H   0  0  0  0  0  0
  -28.1087  -36.2646   24.6275 H   0  0  0  0  0  0
  -27.2299  -37.1440   25.8862 H   0  0  0  0  0  0
  -20.9259  -29.8778   21.6996 H   0  0  0  0  0  0
  -26.0186  -38.2873   24.1414 H   0  0  0  0  0  0
  -31.2803  -20.0738   20.0776 H   0  0  0  0  0  0
  -27.1485  -19.4861   21.2229 H   0  0  0  0  0  0
  -30.8332  -22.4061   19.6190 H   0  0  0  0  0  0
  -26.6913  -21.8507   20.7282 H   0  0  0  0  0  0
  -31.1679  -17.3821   20.1091 H   0  0  0  0  0  0
  -31.4929  -18.4125   21.4852 H   0  0  0  0  0  0
  -30.4198  -16.7126   23.0275 H   0  0  0  0  0  0
  -31.9101  -16.2213   22.2792 H   0  0  0  0  0  0
  -30.1056  -24.7241   20.2165 H   0  0  0  0  0  0
  -29.8803  -24.1251   18.5758 H   0  0  0  0  0  0
  -27.9309  -25.6960   18.2737 H   0  0  0  0  0  0
  -29.4890  -26.4231   18.3896 H   0  0  0  0  0  0
  -28.6949  -17.6738   21.3872 H   0  0  0  0  0  0
  -29.3379  -14.9830   21.9585 H   0  0  0  0  0  0
  1 25  1  0  0  0
  1 30  2  0  0  0
  1 82  1  0  0  0
  2  3  1  0  0  0
  2 25  1  0  0  0
  2 84  1  0  0  0
  2 85  1  0  0  0
  3  4  1  0  0  0
  3 86  1  0  0  0
  3 87  1  0  0  0
  4  5  1  0  0  0
  4 88  1  0  0  0
  4 89  1  0  0  0
  5  6  1  0  0  0
  5 26  1  0  0  0
  5 90  1  0  0  0
  6 25  1  0  0  0
  6 91  1  0  0  0
  6 92  1  0  0  0
  7  8  2  0  0  0
  7 26  1  0  0  0
  7 29  1  0  0  0
  8  9  1  0  0  0
  8 22  1  0  0  0
  9 10  1  0  0  0
  9 27  2  0  0  0
 10 11  2  0  0  0
 10 15  1  0  0  0
 11 12  1  0  0  0
 11 93  1  0  0  0
 12 13  2  0  0  0
 12 94  1  0  0  0
 13 14  1  0  0  0
 13 31  1  0  0  0
 14 15  2  0  0  0
 14 95  1  0  0  0
 15 96  1  0  0  0
 16 17  2  0  0  0
 16 21  1  0  0  0
 16 31  1  0  0  0
 17 18  1  0  0  0
 17 97  1  0  0  0
 18 19  2  0  0  0
 18 98  1  0  0  0
 19 20  1  0  0  0
 19 24  1  0  0  0
 20 21  2  0  0  0
 20 99  1  0  0  0
 21 23  1  0  0  0
 22 28  1  0  0  0
 22 32  2  0  0  0
 26 27  1  0  0  0
 28100  1  0  0  0
 28101  1  0  0  0
 29102  1  0  0  0
 29103  1  0  0  0
 33 34  1  0  0  0
 33 66  1  0  0  0
 33 70  2  0  0  0
 34 36  1  0  0  0
 34 59  1  0  0  0
 34104  1  0  0  0
 35 44  2  0  0  0
 35 45  1  0  0  0
 35 68  1  0  0  0
 36 56  1  0  0  0
 36105  1  0  0  0
 37 39  1  0  0  0
 37 47  1  0  0  0
 37 66  1  0  0  0
 37106  1  0  0  0
 38 43  2  0  0  0
 38 46  1  0  0  0
 38 47  1  0  0  0
 39 64  1  0  0  0
 39 67  2  0  0  0
 40 52  1  0  0  0
 40 53  2  0  0  0
 40 58  1  0  0  0
 41107  1  0  0  0
 41108  1  0  0  0
 41109  1  0  0  0
 41 48  1  0  0  0
 42 43  1  0  0  0
 42 66  1  0  0  0
 42110  1  0  0  0
 42111  1  0  0  0
 43 44  1  0  0  0
 44112  1  0  0  0
 45 46  2  0  0  0
 45113  1  0  0  0
 46114  1  0  0  0
 47115  1  0  0  0
 47116  1  0  0  0
 48 56  1  0  0  0
 48 65  1  0  0  0
 48117  1  0  0  0
 49 50  1  0  0  0
 49 53  1  0  0  0
 49 64  1  0  0  0
 49118  1  0  0  0
 50 51  1  0  0  0
 50119  1  0  0  0
 50120  1  0  0  0
 51 52  1  0  0  0
 51121  1  0  0  0
 51122  1  0  0  0
 52123  1  0  0  0
 52124  1  0  0  0
 53 54  1  0  0  0
 54 55  2  0  0  0
 54125  1  0  0  0
 55 57  1  0  0  0
 55126  1  0  0  0
 56 69  2  0  0  0
 57 58  2  0  0  0
 57127  1  0  0  0
 58128  1  0  0  0
 59 60  1  0  0  0
 59 61  1  0  0  0
 59 62  1  0  0  0
 60129  1  0  0  0
 60130  1  0  0  0
 60131  1  0  0  0
 61132  1  0  0  0
 61133  1  0  0  0
 61134  1  0  0  0
 62135  1  0  0  0
 62136  1  0  0  0
 62137  1  0  0  0
 63 65  1  0  0  0
 63138  1  0  0  0
 63139  1  0  0  0
 63140  1  0  0  0
 64141  1  0  0  0
 65142  1  0  0  0
 68 80  1  0  0  0
 71 73  2  0  0  0
 71 75  1  0  0  0
 71143  1  0  0  0
 72 74  1  0  0  0
 72 75  2  0  0  0
 72144  1  0  0  0
 73 76  1  0  0  0
 73145  1  0  0  0
 74 76  2  0  0  0
 74146  1  0  0  0
 75 81  1  0  0  0
 76 83  1  0  0  0
 77 78  1  0  0  0
 77 81  1  0  0  0
 77147  1  0  0  0
 77148  1  0  0  0
 78 82  1  0  0  0
 78149  1  0  0  0
 78150  1  0  0  0
 79 80  1  0  0  0
 79 83  1  0  0  0
 79151  1  0  0  0
 79152  1  0  0  0
 80153  1  0  0  0
 80154  1  0  0  0
 81155  1  0  0  0
 82156  1  0  0  0
M  ISO  4   1 100  68 101  80 101  82 100
M  END
> <chiral flag>
0

> <version>
0

> <s_m_source_file>
/data/baiqing/PycharmProjects/Reinvent-master-3.2/result/LINK_invent/BTK/process_docking_weight1_custom_sum_contain_oxygen_bond_distance_aromatic_linkinvent_7_9_3/rearranged_h_0134.sdf

> <i_m_source_file_index>
29

> <r_mmod_Potential_Energy-OPLS-2005>
-167.412490844727

> <r_mmod_Stretch_Energy-OPLS-2005>
34.4750823974609

> <r_mmod_Bend_Energy-OPLS-2005>
114.033226013184

> <r_mmod_Torsional_Energy-OPLS-2005>
197.818069458008

> <r_mmod_Improper_Torsional_Energy-OPLS-2005>
2.3855459690094

> <r_mmod_Van_der_Waal_Energy-OPLS-2005>
162.000228881836

> <r_mmod_Electrostatic_Energy-OPLS-2005>
-459.90087890625

> <r_mmod_Solvation_Energy-OPLS-2005>
-226.531814575195

> <b_mmod_Minimization_Converged-OPLS-2005>
0

> <r_mmod_RMS_Derivative-OPLS-2005>
0.63792097568512

$$$$
29
                    3D
 Structure written by MMmdl.
159168  0  0  1  0            999 V2000
  -30.5282  -14.9503   20.4402 C   0  0  0  0  0  0
  -30.4432  -12.5958   19.4917 C   0  0  0  0  0  0
  -29.5198  -12.5255   18.2529 C   0  0  0  0  0  0
  -28.0517  -12.3109   18.6711 C   0  0  0  0  0  0
  -27.6257  -13.2437   19.8346 C   0  0  2  0  0  0
  -28.6686  -13.2698   20.9698 C   0  0  0  0  0  0
  -25.2438  -13.8206   20.5688 C   0  0  0  0  0  0
  -24.1753  -13.0433   20.9240 C   0  0  0  0  0  0
  -24.6365  -11.6921   20.8768 C   0  0  0  0  0  0
  -23.9045  -10.4291   21.0422 C   0  0  0  0  0  0
  -24.3596   -9.4205   21.9196 C   0  0  0  0  0  0
  -23.6274   -8.2235   22.0760 C   0  0  0  0  0  0
  -22.4265   -8.0271   21.3538 C   0  0  0  0  0  0
  -21.9896   -9.0246   20.4642 C   0  0  0  0  0  0
  -22.7219  -10.2127   20.3062 C   0  0  0  0  0  0
  -21.6851   -6.0722   22.5270 C   0  0  0  0  0  0
  -21.4003   -6.5632   23.8193 C   0  0  0  0  0  0
  -21.3667   -5.6793   24.9162 C   0  0  0  0  0  0
  -21.6050   -4.3057   24.7217 C   0  0  0  0  0  0
  -21.8817   -3.8139   23.4340 C   0  0  0  0  0  0
  -21.9180   -4.6950   22.3391 C   0  0  0  0  0  0
  -22.7774  -13.5202   21.1903 C   0  0  0  0  0  0
  -22.1656   -4.2132   21.0974 F   0  0  0  0  0  0
  -21.5641   -3.4550   25.7735 F   0  0  0  0  0  0
  -29.9396  -13.6901   20.3659 N   0  0  0  0  0  0
  -26.2848  -12.9420   20.3219 N   0  0  0  0  0  0
  -25.9292  -11.6556   20.5731 N   0  0  0  0  0  0
  -22.0418  -12.8180   22.0452 N   0  0  0  0  0  0
  -25.4094  -15.1930   20.4087 N   0  0  0  0  0  0
  -31.7438  -15.0246   20.2328 O   0  0  0  0  0  0
  -21.6641   -6.8863   21.4222 O   0  0  0  0  0  0
  -22.3453  -14.5500   20.6747 O   0  0  0  0  0  0
  -24.6426  -31.8418   23.1872 C   0  0  0  0  0  0
  -25.9199  -32.4681   23.8259 C   0  0  1  0  0  0
  -27.2128  -27.1174   20.1702 C   0  0  0  0  0  0
  -25.5950  -33.8488   24.2184 N   0  0  0  0  0  0
  -23.4479  -30.4581   21.5309 C   0  0  2  0  0  0
  -24.8993  -28.8770   20.1167 C   0  0  0  0  0  0
  -22.7579  -29.4509   22.4840 C   0  0  0  0  0  0
  -18.0302  -28.1383   22.8474 C   0  0  0  0  0  0
  -24.1492  -36.7245   23.2650 C   0  0  0  0  0  0
  -26.0037  -30.7065   21.3918 C   0  0  0  0  0  0
  -26.0729  -29.3114   20.7457 C   0  0  0  0  0  0
  -27.2329  -28.4469   20.7551 C   0  0  0  0  0  0
  -26.0271  -26.7949   19.4838 C   0  0  0  0  0  0
  -24.8891  -27.6325   19.4685 C   0  0  0  0  0  0
  -23.6781  -29.7838   20.1518 C   0  0  0  0  0  0
  -25.4116  -36.3025   24.0328 C   0  0  1  0  0  0
  -20.5928  -28.3689   23.1242 C   0  0  2  0  0  0
  -20.6783  -26.9389   22.5409 C   0  0  0  0  0  0
  -19.5754  -26.6380   21.5212 C   0  0  0  0  0  0
  -18.1935  -26.7923   22.1623 C   0  0  0  0  0  0
  -19.1568  -28.8850   23.2850 C   0  0  0  0  0  0
  -18.9487  -30.1448   23.8873 C   0  0  0  0  0  0
  -17.6487  -30.6582   24.0545 C   0  0  0  0  0  0
  -25.9067  -34.9398   23.5057 C   0  0  0  0  0  0
  -16.5376  -29.9076   23.6330 C   0  0  0  0  0  0
  -16.7286  -28.6495   23.0351 C   0  0  0  0  0  0
  -26.4524  -31.6558   25.0704 C   0  0  0  0  0  0
  -25.3718  -31.3756   26.1415 C   0  0  0  0  0  0
  -27.0398  -30.2960   24.6281 C   0  0  0  0  0  0
  -27.6048  -32.4340   25.7489 C   0  0  0  0  0  0
  -27.5566  -37.1767   24.8473 C   0  0  0  0  0  0
  -21.4264  -29.3026   22.3609 N   0  0  0  0  0  0
  -26.4273  -37.3751   23.9424 N   0  0  0  0  0  0
  -24.7175  -31.0257   22.0912 N   0  0  0  0  0  0
  -23.4221  -28.8055   23.2984 O   0  0  0  0  0  0
  -28.2870  -26.1643   20.0854 O   0  0  0  0  0  0
  -26.5655  -34.8899   22.4650 O   0  0  0  0  0  0
  -23.5543  -32.1312   23.7073 O   0  0  0  0  0  0
  -24.8629  -23.5058   20.4159 C   0  0  0  0  0  0
  -24.7234  -22.8935   19.0396 C   0  0  0  0  0  0
  -27.9457  -21.8010   18.9051 C   0  0  0  0  0  0
  -25.8758  -22.4963   19.9309 C   0  0  0  0  0  0
  -28.9941  -21.8364   20.0348 C   0  0  1  0  0  0
  -28.1331  -23.1630   20.5962 C   0  0  1  0  0  0
  -28.4201  -24.8205   20.8619 C   0  0  0  0  0  0
  -29.9537  -17.6518   20.8925 C   0  0  0  0  0  0
  -29.2800  -18.9990   20.1089 C   0  0  0  0  0  0
  -27.2020  -22.9303   19.4978 N   0  0  0  0  0  0
  -29.7199  -16.1170   20.5481 N   0  0  0  0  0  0
  -29.1259  -20.4330   20.7889 N   0  3  0  0  0  0
  -31.4731  -12.7737   19.1767 H   0  0  0  0  0  0
  -30.4513  -11.6458   20.0296 H   0  0  0  0  0  0
  -29.8426  -11.7238   17.5876 H   0  0  0  0  0  0
  -29.6038  -13.4509   17.6803 H   0  0  0  0  0  0
  -27.9476  -11.2691   18.9794 H   0  0  0  0  0  0
  -27.3894  -12.4415   17.8148 H   0  0  0  0  0  0
  -27.5881  -14.2447   19.4053 H   0  0  0  0  0  0
  -28.7589  -12.2907   21.4441 H   0  0  0  0  0  0
  -28.3634  -13.9670   21.7524 H   0  0  0  0  0  0
  -25.2727   -9.5688   22.4790 H   0  0  0  0  0  0
  -23.9981   -7.4622   22.7487 H   0  0  0  0  0  0
  -21.0826   -8.8748   19.8944 H   0  0  0  0  0  0
  -22.3663  -10.9663   19.6184 H   0  0  0  0  0  0
  -21.1995   -7.6145   23.9679 H   0  0  0  0  0  0
  -21.1505   -6.0541   25.9061 H   0  0  0  0  0  0
  -22.0591   -2.7600   23.2847 H   0  0  0  0  0  0
  -22.4022  -11.9830   22.4823 H   0  0  0  0  0  0
  -21.1030  -13.1188   22.2667 H   0  0  0  0  0  0
  -24.6336  -15.8391   20.5043 H   0  0  0  0  0  0
  -26.2377  -15.6266   20.0240 H   0  0  0  0  0  0
  -26.7235  -32.5281   23.0956 H   0  0  0  0  0  0
  -25.0099  -33.9592   25.0334 H   0  0  0  0  0  0
  -22.7512  -31.2836   21.3710 H   0  0  0  0  0  0
  -23.3758  -35.9570   23.3310 H   0  0  0  0  0  0
  -24.3574  -36.8878   22.2066 H   0  0  0  0  0  0
  -23.7237  -37.6438   23.6684 H   0  0  0  0  0  0
  -26.1591  -31.4502   20.6095 H   0  0  0  0  0  0
  -26.8768  -30.7642   22.0303 H   0  0  0  0  0  0
  -28.1393  -28.7797   21.2409 H   0  0  0  0  0  0
  -25.9815  -25.8581   18.9466 H   0  0  0  0  0  0
  -24.0015  -27.3051   18.9439 H   0  0  0  0  0  0
  -23.8197  -30.5562   19.3945 H   0  0  0  0  0  0
  -22.7944  -29.2245   19.8379 H   0  0  0  0  0  0
  -25.1297  -36.1851   25.0814 H   0  0  0  0  0  0
  -20.9990  -28.3260   24.1376 H   0  0  0  0  0  0
  -20.5681  -26.2281   23.3610 H   0  0  0  0  0  0
  -21.6634  -26.7398   22.1197 H   0  0  0  0  0  0
  -19.6917  -25.6299   21.1227 H   0  0  0  0  0  0
  -19.6707  -27.3188   20.6742 H   0  0  0  0  0  0
  -17.4209  -26.6676   21.4020 H   0  0  0  0  0  0
  -18.0310  -26.0066   22.9020 H   0  0  0  0  0  0
  -19.7969  -30.7247   24.2246 H   0  0  0  0  0  0
  -17.5054  -31.6260   24.5132 H   0  0  0  0  0  0
  -15.5374  -30.2966   23.7679 H   0  0  0  0  0  0
  -15.8690  -28.0802   22.7089 H   0  0  0  0  0  0
  -24.5935  -30.7040   25.7765 H   0  0  0  0  0  0
  -24.8852  -32.2932   26.4731 H   0  0  0  0  0  0
  -25.8021  -30.9044   27.0261 H   0  0  0  0  0  0
  -26.3011  -29.6676   24.1292 H   0  0  0  0  0  0
  -27.4026  -29.7262   25.4842 H   0  0  0  0  0  0
  -27.8906  -30.4215   23.9579 H   0  0  0  0  0  0
  -27.2651  -33.3697   26.1947 H   0  0  0  0  0  0
  -28.3916  -32.6810   25.0342 H   0  0  0  0  0  0
  -28.0648  -31.8545   26.5500 H   0  0  0  0  0  0
  -28.2569  -38.0082   24.7514 H   0  0  0  0  0  0
  -28.1077  -36.2599   24.6300 H   0  0  0  0  0  0
  -27.2286  -37.1421   25.8882 H   0  0  0  0  0  0
  -20.9456  -29.8771   21.6827 H   0  0  0  0  0  0
  -26.0142  -38.2811   24.1450 H   0  0  0  0  0  0
  -24.1408  -23.1855   21.1639 H   0  0  0  0  0  0
  -25.1582  -24.5452   20.4953 H   0  0  0  0  0  0
  -24.9237  -23.5435   18.1897 H   0  0  0  0  0  0
  -23.9341  -22.1605   18.8854 H   0  0  0  0  0  0
  -27.3315  -20.8998   18.8582 H   0  0  0  0  0  0
  -28.3362  -22.0826   17.9262 H   0  0  0  0  0  0
  -25.7868  -21.5413   20.4471 H   0  0  0  0  0  0
  -29.9623  -22.1338   19.6309 H   0  0  0  0  0  0
  -27.6632  -22.7833   21.5042 H   0  0  0  0  0  0
  -29.4618  -24.8609   21.1787 H   0  0  0  0  0  0
  -27.8891  -25.0469   21.7869 H   0  0  0  0  0  0
  -29.6526  -17.7280   21.9374 H   0  0  0  0  0  0
  -31.0339  -17.8001   20.9198 H   0  0  0  0  0  0
  -28.2884  -18.7232   19.7516 H   0  0  0  0  0  0
  -29.8686  -19.1566   19.2049 H   0  0  0  0  0  0
  -28.7407  -15.8746   20.5581 H   0  0  0  0  0  0
  -28.3369  -20.3482   21.4073 H   0  0  0  0  0  0
  -29.9220  -20.5338   21.3974 H   0  0  0  0  0  0
  1 25  1  0  0  0
  1 30  2  0  0  0
  1 81  1  0  0  0
  2  3  1  0  0  0
  2 25  1  0  0  0
  2 83  1  0  0  0
  2 84  1  0  0  0
  3  4  1  0  0  0
  3 85  1  0  0  0
  3 86  1  0  0  0
  4  5  1  0  0  0
  4 87  1  0  0  0
  4 88  1  0  0  0
  5  6  1  0  0  0
  5 26  1  0  0  0
  5 89  1  0  0  0
  6 25  1  0  0  0
  6 90  1  0  0  0
  6 91  1  0  0  0
  7  8  2  0  0  0
  7 26  1  0  0  0
  7 29  1  0  0  0
  8  9  1  0  0  0
  8 22  1  0  0  0
  9 10  1  0  0  0
  9 27  2  0  0  0
 10 11  2  0  0  0
 10 15  1  0  0  0
 11 12  1  0  0  0
 11 92  1  0  0  0
 12 13  2  0  0  0
 12 93  1  0  0  0
 13 14  1  0  0  0
 13 31  1  0  0  0
 14 15  2  0  0  0
 14 94  1  0  0  0
 15 95  1  0  0  0
 16 17  2  0  0  0
 16 21  1  0  0  0
 16 31  1  0  0  0
 17 18  1  0  0  0
 17 96  1  0  0  0
 18 19  2  0  0  0
 18 97  1  0  0  0
 19 20  1  0  0  0
 19 24  1  0  0  0
 20 21  2  0  0  0
 20 98  1  0  0  0
 21 23  1  0  0  0
 22 28  1  0  0  0
 22 32  2  0  0  0
 26 27  1  0  0  0
 28 99  1  0  0  0
 28100  1  0  0  0
 29101  1  0  0  0
 29102  1  0  0  0
 33 34  1  0  0  0
 33 66  1  0  0  0
 33 70  2  0  0  0
 34 36  1  0  0  0
 34 59  1  0  0  0
 34103  1  0  0  0
 35 44  2  0  0  0
 35 45  1  0  0  0
 35 68  1  0  0  0
 36 56  1  0  0  0
 36104  1  0  0  0
 37 39  1  0  0  0
 37 47  1  0  0  0
 37 66  1  0  0  0
 37105  1  0  0  0
 38 43  2  0  0  0
 38 46  1  0  0  0
 38 47  1  0  0  0
 39 64  1  0  0  0
 39 67  2  0  0  0
 40 52  1  0  0  0
 40 53  2  0  0  0
 40 58  1  0  0  0
 41106  1  0  0  0
 41107  1  0  0  0
 41108  1  0  0  0
 41 48  1  0  0  0
 42 43  1  0  0  0
 42 66  1  0  0  0
 42109  1  0  0  0
 42110  1  0  0  0
 43 44  1  0  0  0
 44111  1  0  0  0
 45 46  2  0  0  0
 45112  1  0  0  0
 46113  1  0  0  0
 47114  1  0  0  0
 47115  1  0  0  0
 48 56  1  0  0  0
 48 65  1  0  0  0
 48116  1  0  0  0
 49 50  1  0  0  0
 49 53  1  0  0  0
 49 64  1  0  0  0
 49117  1  0  0  0
 50 51  1  0  0  0
 50118  1  0  0  0
 50119  1  0  0  0
 51 52  1  0  0  0
 51120  1  0  0  0
 51121  1  0  0  0
 52122  1  0  0  0
 52123  1  0  0  0
 53 54  1  0  0  0
 54 55  2  0  0  0
 54124  1  0  0  0
 55 57  1  0  0  0
 55125  1  0  0  0
 56 69  2  0  0  0
 57 58  2  0  0  0
 57126  1  0  0  0
 58127  1  0  0  0
 59 60  1  0  0  0
 59 61  1  0  0  0
 59 62  1  0  0  0
 60128  1  0  0  0
 60129  1  0  0  0
 60130  1  0  0  0
 61131  1  0  0  0
 61132  1  0  0  0
 61133  1  0  0  0
 62134  1  0  0  0
 62135  1  0  0  0
 62136  1  0  0  0
 63 65  1  0  0  0
 63137  1  0  0  0
 63138  1  0  0  0
 63139  1  0  0  0
 64140  1  0  0  0
 65141  1  0  0  0
 68 77  1  0  0  0
 71 72  1  0  0  0
 71 74  1  0  0  0
 71142  1  0  0  0
 71143  1  0  0  0
 72 74  1  0  0  0
 72144  1  0  0  0
 72145  1  0  0  0
 73 75  1  0  0  0
 73 80  1  0  0  0
 73146  1  0  0  0
 73147  1  0  0  0
 74148  1  0  0  0
 74 80  1  0  0  0
 75 76  1  0  0  0
 75 82  1  0  0  0
 75149  1  0  0  0
 76 77  1  0  0  0
 76 80  1  0  0  0
 76150  1  0  0  0
 77151  1  0  0  0
 77152  1  0  0  0
 78 79  1  0  0  0
 78 81  1  0  0  0
 78153  1  0  0  0
 78154  1  0  0  0
 79 82  1  0  0  0
 79155  1  0  0  0
 79156  1  0  0  0
 81157  1  0  0  0
 82158  1  0  0  0
 82159  1  0  0  0
M  CHG  1  82   1
M  ISO  4   1 100  68 101  77 101  81 100
M  END
> <chiral flag>
0

> <version>
0

> <s_m_source_file>
/data/baiqing/PycharmProjects/Reinvent-master-3.2/result/LINK_invent/BTK/process_docking_weight1_custom_sum_contain_oxygen_bond_distance_aromatic_linkinvent_7_9_3/rearranged_h_0134.sdf

> <i_m_source_file_index>
30

> <r_mmod_Potential_Energy-OPLS-2005>
406.275421142578

> <r_mmod_Stretch_Energy-OPLS-2005>
277.2626953125

> <r_mmod_Bend_Energy-OPLS-2005>
350.404052734375

> <r_mmod_Torsional_Energy-OPLS-2005>
300.327697753906

> <r_mmod_Improper_Torsional_Energy-OPLS-2005>
5.05281591415405

> <r_mmod_Van_der_Waal_Energy-OPLS-2005>
103.85669708252

> <r_mmod_Electrostatic_Energy-OPLS-2005>
-301.374481201172

> <r_mmod_Solvation_Energy-OPLS-2005>
-524.521118164062

> <b_mmod_Minimization_Converged-OPLS-2005>
0

> <r_mmod_RMS_Derivative-OPLS-2005>
2.57512187957764

$$$$
30
                    3D
 Structure written by MMmdl.
164172  0  0  1  0            999 V2000
  -30.6972  -14.4384   20.6326 C   0  0  0  0  0  0
  -30.4383  -12.3187   19.3805 C   0  0  0  0  0  0
  -29.4869  -12.5098   18.1807 C   0  0  0  0  0  0
  -28.0080  -12.3767   18.6002 C   0  0  0  0  0  0
  -27.6645  -13.1955   19.8740 C   0  0  2  0  0  0
  -28.7107  -12.9253   20.9767 C   0  0  0  0  0  0
  -25.2625  -13.8138   20.5674 C   0  0  0  0  0  0
  -24.1842  -13.0417   20.9171 C   0  0  0  0  0  0
  -24.6382  -11.6890   20.8701 C   0  0  0  0  0  0
  -23.9037  -10.4277   21.0403 C   0  0  0  0  0  0
  -24.3603   -9.4205   21.9175 C   0  0  0  0  0  0
  -23.6276   -8.2231   22.0748 C   0  0  0  0  0  0
  -22.4261   -8.0272   21.3541 C   0  0  0  0  0  0
  -21.9898   -9.0244   20.4652 C   0  0  0  0  0  0
  -22.7209  -10.2121   20.3057 C   0  0  0  0  0  0
  -21.6859   -6.0730   22.5277 C   0  0  0  0  0  0
  -21.4003   -6.5632   23.8207 C   0  0  0  0  0  0
  -21.3642   -5.6785   24.9172 C   0  0  0  0  0  0
  -21.6055   -4.3057   24.7231 C   0  0  0  0  0  0
  -21.8816   -3.8144   23.4352 C   0  0  0  0  0  0
  -21.9192   -4.6950   22.3406 C   0  0  0  0  0  0
  -22.7885  -13.5265   21.1824 C   0  0  0  0  0  0
  -22.1667   -4.2141   21.0983 F   0  0  0  0  0  0
  -21.5627   -3.4538   25.7745 F   0  0  0  0  0  0
  -30.0391  -13.2644   20.4319 N   0  0  0  0  0  0
  -26.3043  -12.9268   20.3369 N   0  0  0  0  0  0
  -25.9304  -11.6439   20.5742 N   0  0  0  0  0  0
  -22.0504  -12.8255   22.0387 N   0  0  0  0  0  0
  -25.4365  -15.1837   20.4095 N   0  0  0  0  0  0
  -31.8009  -14.6935   20.1408 O   0  0  0  0  0  0
  -21.6636   -6.8868   21.4246 O   0  0  0  0  0  0
  -22.3582  -14.5558   20.6674 O   0  0  0  0  0  0
  -24.6205  -31.8716   23.2078 C   0  0  0  0  0  0
  -25.9103  -32.4836   23.8374 C   0  0  1  0  0  0
  -27.2286  -27.4146   20.0701 C   0  0  0  0  0  0
  -25.6023  -33.8635   24.2326 N   0  0  0  0  0  0
  -23.4063  -30.5006   21.5490 C   0  0  2  0  0  0
  -24.8496  -28.9725   20.1109 C   0  0  0  0  0  0
  -22.7436  -29.4712   22.4930 C   0  0  0  0  0  0
  -18.0287  -28.1401   22.8514 C   0  0  0  0  0  0
  -24.1499  -36.7284   23.2591 C   0  0  0  0  0  0
  -25.9420  -30.8334   21.3586 C   0  0  0  0  0  0
  -26.0181  -29.4679   20.6999 C   0  0  0  0  0  0
  -27.2137  -28.7018   20.6732 C   0  0  0  0  0  0
  -26.0151  -26.9227   19.5496 C   0  0  0  0  0  0
  -24.8420  -27.6944   19.5354 C   0  0  0  0  0  0
  -23.6168  -29.8466   20.1613 C   0  0  0  0  0  0
  -25.4094  -36.3092   24.0323 C   0  0  1  0  0  0
  -20.5878  -28.3701   23.1304 C   0  0  2  0  0  0
  -20.6793  -26.9429   22.5417 C   0  0  0  0  0  0
  -19.5766  -26.6378   21.5237 C   0  0  0  0  0  0
  -18.1924  -26.7950   22.1613 C   0  0  0  0  0  0
  -19.1536  -28.8854   23.2918 C   0  0  0  0  0  0
  -18.9469  -30.1466   23.8934 C   0  0  0  0  0  0
  -17.6470  -30.6601   24.0592 C   0  0  0  0  0  0
  -25.9060  -34.9482   23.5081 C   0  0  0  0  0  0
  -16.5369  -29.9099   23.6355 C   0  0  0  0  0  0
  -16.7273  -28.6517   23.0371 C   0  0  0  0  0  0
  -26.4458  -31.6650   25.0743 C   0  0  0  0  0  0
  -25.3689  -31.3909   26.1508 C   0  0  0  0  0  0
  -27.0204  -30.3058   24.6124 C   0  0  0  0  0  0
  -27.6062  -32.4376   25.7477 C   0  0  0  0  0  0
  -27.5628  -37.1717   24.8411 C   0  0  0  0  0  0
  -21.4146  -29.3094   22.3714 N   0  0  0  0  0  0
  -26.4238  -37.3818   23.9502 N   0  0  0  0  0  0
  -24.6763  -31.0795   22.0984 N   0  0  0  0  0  0
  -23.4200  -28.8217   23.2958 O   0  0  0  0  0  0
  -28.3735  -26.6313   20.0702 O   0  0  0  0  0  0
  -26.5531  -34.8955   22.4598 O   0  0  0  0  0  0
  -23.5400  -32.1473   23.7439 O   0  0  0  0  0  0
  -26.5371  -23.2320   18.9907 C   0  0  0  0  0  0
  -27.2859  -24.1272   17.9945 C   0  0  0  0  0  0
  -27.3017  -21.8970   19.0285 C   0  0  0  0  0  0
  -29.1696  -23.5000   19.6530 C   0  0  0  0  0  0
  -28.6790  -24.5004   18.5431 C   0  0  2  0  0  0
  -28.8272  -26.0466   18.8271 C   0  0  0  0  0  0
  -29.6412  -20.9818   19.1979 C   0  0  0  0  0  0
  -30.4413  -16.6751   21.8121 C   0  0  0  0  0  0
  -30.1680  -20.3103   20.5130 C   0  0  0  0  0  0
  -30.6119  -17.7764   20.7123 C   0  0  0  0  0  0
  -28.6958  -22.0974   19.4596 N   0  0  0  0  0  0
  -30.0110  -15.3492   21.3410 N   0  0  0  0  0  0
  -29.6821  -18.9376   20.8780 N   0  3  0  0  0  0
  -31.4724  -12.4650   19.0614 H   0  0  0  0  0  0
  -30.3855  -11.2954   19.7571 H   0  0  0  0  0  0
  -29.7154  -11.7800   17.4037 H   0  0  0  0  0  0
  -29.6503  -13.4913   17.7330 H   0  0  0  0  0  0
  -27.8021  -11.3184   18.7706 H   0  0  0  0  0  0
  -27.3584  -12.6776   17.7770 H   0  0  0  0  0  0
  -27.7234  -14.2510   19.6039 H   0  0  0  0  0  0
  -28.6970  -11.8687   21.2489 H   0  0  0  0  0  0
  -28.4670  -13.4576   21.8966 H   0  0  0  0  0  0
  -25.2753   -9.5685   22.4734 H   0  0  0  0  0  0
  -24.0003   -7.4637   22.7461 H   0  0  0  0  0  0
  -21.0824   -8.8747   19.8965 H   0  0  0  0  0  0
  -22.3664  -10.9651   19.6159 H   0  0  0  0  0  0
  -21.1982   -7.6131   23.9709 H   0  0  0  0  0  0
  -21.1467   -6.0515   25.9070 H   0  0  0  0  0  0
  -22.0610   -2.7606   23.2859 H   0  0  0  0  0  0
  -22.4108  -11.9937   22.4811 H   0  0  0  0  0  0
  -21.1110  -13.1289   22.2554 H   0  0  0  0  0  0
  -24.6754  -15.8431   20.5266 H   0  0  0  0  0  0
  -26.2915  -15.6198   20.0877 H   0  0  0  0  0  0
  -26.7162  -32.5530   23.1133 H   0  0  0  0  0  0
  -25.0521  -33.9822   25.0692 H   0  0  0  0  0  0
  -22.7011  -31.3235   21.4163 H   0  0  0  0  0  0
  -23.3836  -35.9551   23.3101 H   0  0  0  0  0  0
  -24.3652  -36.9005   22.2044 H   0  0  0  0  0  0
  -23.7138  -37.6403   23.6672 H   0  0  0  0  0  0
  -26.0517  -31.5972   20.5878 H   0  0  0  0  0  0
  -26.8337  -30.8863   21.9745 H   0  0  0  0  0  0
  -28.1239  -29.0876   21.1124 H   0  0  0  0  0  0
  -25.9275  -25.9082   19.2219 H   0  0  0  0  0  0
  -23.9305  -27.2850   19.1214 H   0  0  0  0  0  0
  -23.7338  -30.6367   19.4172 H   0  0  0  0  0  0
  -22.7383  -29.2805   19.8459 H   0  0  0  0  0  0
  -25.1196  -36.1889   25.0789 H   0  0  0  0  0  0
  -21.0029  -28.3281   24.1404 H   0  0  0  0  0  0
  -20.5723  -26.2309   23.3602 H   0  0  0  0  0  0
  -21.6652  -26.7470   22.1185 H   0  0  0  0  0  0
  -19.6915  -25.6276   21.1284 H   0  0  0  0  0  0
  -19.6714  -27.3197   20.6776 H   0  0  0  0  0  0
  -17.4223  -26.6806   21.3983 H   0  0  0  0  0  0
  -18.0277  -26.0034   22.8941 H   0  0  0  0  0  0
  -19.7943  -30.7318   24.2286 H   0  0  0  0  0  0
  -17.5015  -31.6282   24.5187 H   0  0  0  0  0  0
  -15.5379  -30.3022   23.7628 H   0  0  0  0  0  0
  -15.8675  -28.0851   22.7045 H   0  0  0  0  0  0
  -24.6002  -30.6978   25.8040 H   0  0  0  0  0  0
  -24.8696  -32.3108   26.4606 H   0  0  0  0  0  0
  -25.8047  -30.9513   27.0481 H   0  0  0  0  0  0
  -26.2709  -29.6964   24.1056 H   0  0  0  0  0  0
  -27.3805  -29.7170   25.4567 H   0  0  0  0  0  0
  -27.8626  -30.4326   23.9314 H   0  0  0  0  0  0
  -27.2718  -33.3779   26.1881 H   0  0  0  0  0  0
  -28.3941  -32.6767   25.0322 H   0  0  0  0  0  0
  -28.0622  -31.8587   26.5520 H   0  0  0  0  0  0
  -28.2395  -38.0253   24.7841 H   0  0  0  0  0  0
  -28.1344  -36.2830   24.5695 H   0  0  0  0  0  0
  -27.2441  -37.0698   25.8800 H   0  0  0  0  0  0
  -20.9287  -29.8874   21.6992 H   0  0  0  0  0  0
  -26.0098  -38.2822   24.1781 H   0  0  0  0  0  0
  -25.5045  -23.0792   18.6739 H   0  0  0  0  0  0
  -26.4855  -23.6874   19.9832 H   0  0  0  0  0  0
  -26.7282  -24.9952   17.6595 H   0  0  0  0  0  0
  -27.4085  -23.5519   17.0771 H   0  0  0  0  0  0
  -27.2867  -21.4890   18.0155 H   0  0  0  0  0  0
  -26.7947  -21.1694   19.6628 H   0  0  0  0  0  0
  -28.7388  -23.8346   20.6008 H   0  0  0  0  0  0
  -30.2515  -23.5533   19.7918 H   0  0  0  0  0  0
  -29.3452  -24.3222   17.6958 H   0  0  0  0  0  0
  -28.3953  -26.6024   17.9914 H   0  0  0  0  0  0
  -29.8934  -26.2763   18.7868 H   0  0  0  0  0  0
  -29.1951  -20.2426   18.5256 H   0  0  0  0  0  0
  -30.4992  -21.3679   18.6373 H   0  0  0  0  0  0
  -29.7654  -16.9946   22.6076 H   0  0  0  0  0  0
  -31.3999  -16.5221   22.3136 H   0  0  0  0  0  0
  -29.8209  -20.9366   21.3346 H   0  0  0  0  0  0
  -31.2557  -20.3603   20.5518 H   0  0  0  0  0  0
  -30.5552  -17.3607   19.7057 H   0  0  0  0  0  0
  -31.6332  -18.1434   20.8188 H   0  0  0  0  0  0
  -29.1034  -15.0318   21.6559 H   0  0  0  0  0  0
  -28.7775  -18.7323   20.4885 H   0  0  0  0  0  0
  -29.5439  -19.0074   21.8717 H   0  0  0  0  0  0
  1 25  1  0  0  0
  1 30  2  0  0  0
  1 82  1  0  0  0
  2  3  1  0  0  0
  2 25  1  0  0  0
  2 84  1  0  0  0
  2 85  1  0  0  0
  3  4  1  0  0  0
  3 86  1  0  0  0
  3 87  1  0  0  0
  4  5  1  0  0  0
  4 88  1  0  0  0
  4 89  1  0  0  0
  5  6  1  0  0  0
  5 26  1  0  0  0
  5 90  1  0  0  0
  6 25  1  0  0  0
  6 91  1  0  0  0
  6 92  1  0  0  0
  7  8  2  0  0  0
  7 26  1  0  0  0
  7 29  1  0  0  0
  8  9  1  0  0  0
  8 22  1  0  0  0
  9 10  1  0  0  0
  9 27  2  0  0  0
 10 11  2  0  0  0
 10 15  1  0  0  0
 11 12  1  0  0  0
 11 93  1  0  0  0
 12 13  2  0  0  0
 12 94  1  0  0  0
 13 14  1  0  0  0
 13 31  1  0  0  0
 14 15  2  0  0  0
 14 95  1  0  0  0
 15 96  1  0  0  0
 16 17  2  0  0  0
 16 21  1  0  0  0
 16 31  1  0  0  0
 17 18  1  0  0  0
 17 97  1  0  0  0
 18 19  2  0  0  0
 18 98  1  0  0  0
 19 20  1  0  0  0
 19 24  1  0  0  0
 20 21  2  0  0  0
 20 99  1  0  0  0
 21 23  1  0  0  0
 22 28  1  0  0  0
 22 32  2  0  0  0
 26 27  1  0  0  0
 28100  1  0  0  0
 28101  1  0  0  0
 29102  1  0  0  0
 29103  1  0  0  0
 33 34  1  0  0  0
 33 66  1  0  0  0
 33 70  2  0  0  0
 34 36  1  0  0  0
 34 59  1  0  0  0
 34104  1  0  0  0
 35 44  2  0  0  0
 35 45  1  0  0  0
 35 68  1  0  0  0
 36 56  1  0  0  0
 36105  1  0  0  0
 37 39  1  0  0  0
 37 47  1  0  0  0
 37 66  1  0  0  0
 37106  1  0  0  0
 38 43  2  0  0  0
 38 46  1  0  0  0
 38 47  1  0  0  0
 39 64  1  0  0  0
 39 67  2  0  0  0
 40 52  1  0  0  0
 40 53  2  0  0  0
 40 58  1  0  0  0
 41107  1  0  0  0
 41108  1  0  0  0
 41109  1  0  0  0
 41 48  1  0  0  0
 42 43  1  0  0  0
 42 66  1  0  0  0
 42110  1  0  0  0
 42111  1  0  0  0
 43 44  1  0  0  0
 44112  1  0  0  0
 45 46  2  0  0  0
 45113  1  0  0  0
 46114  1  0  0  0
 47115  1  0  0  0
 47116  1  0  0  0
 48 56  1  0  0  0
 48 65  1  0  0  0
 48117  1  0  0  0
 49 50  1  0  0  0
 49 53  1  0  0  0
 49 64  1  0  0  0
 49118  1  0  0  0
 50 51  1  0  0  0
 50119  1  0  0  0
 50120  1  0  0  0
 51 52  1  0  0  0
 51121  1  0  0  0
 51122  1  0  0  0
 52123  1  0  0  0
 52124  1  0  0  0
 53 54  1  0  0  0
 54 55  2  0  0  0
 54125  1  0  0  0
 55 57  1  0  0  0
 55126  1  0  0  0
 56 69  2  0  0  0
 57 58  2  0  0  0
 57127  1  0  0  0
 58128  1  0  0  0
 59 60  1  0  0  0
 59 61  1  0  0  0
 59 62  1  0  0  0
 60129  1  0  0  0
 60130  1  0  0  0
 60131  1  0  0  0
 61132  1  0  0  0
 61133  1  0  0  0
 61134  1  0  0  0
 62135  1  0  0  0
 62136  1  0  0  0
 62137  1  0  0  0
 63 65  1  0  0  0
 63138  1  0  0  0
 63139  1  0  0  0
 63140  1  0  0  0
 64141  1  0  0  0
 65142  1  0  0  0
 68 76  1  0  0  0
 71 72  1  0  0  0
 71 73  1  0  0  0
 71143  1  0  0  0
 71144  1  0  0  0
 72 75  1  0  0  0
 72145  1  0  0  0
 72146  1  0  0  0
 73 81  1  0  0  0
 73147  1  0  0  0
 73148  1  0  0  0
 74 75  1  0  0  0
 74 81  1  0  0  0
 74149  1  0  0  0
 74150  1  0  0  0
 75 76  1  0  0  0
 75151  1  0  0  0
 76152  1  0  0  0
 76153  1  0  0  0
 77 79  1  0  0  0
 77 81  1  0  0  0
 77154  1  0  0  0
 77155  1  0  0  0
 78 80  1  0  0  0
 78 82  1  0  0  0
 78156  1  0  0  0
 78157  1  0  0  0
 79 83  1  0  0  0
 79158  1  0  0  0
 79159  1  0  0  0
 80 83  1  0  0  0
 80160  1  0  0  0
 80161  1  0  0  0
 82162  1  0  0  0
 83163  1  0  0  0
 83164  1  0  0  0
M  CHG  1  83   1
M  ISO  4   1 100  68 101  76 101  82 100
M  END
> <chiral flag>
0

> <version>
0

> <s_m_source_file>
/data/baiqing/PycharmProjects/Reinvent-master-3.2/result/LINK_invent/BTK/process_docking_weight1_custom_sum_contain_oxygen_bond_distance_aromatic_linkinvent_7_9_3/rearranged_h_0134.sdf

> <i_m_source_file_index>
31

> <r_mmod_Potential_Energy-OPLS-2005>
-60.1124076843262

> <r_mmod_Stretch_Energy-OPLS-2005>
51.6050071716309

> <r_mmod_Bend_Energy-OPLS-2005>
169.510360717773

> <r_mmod_Torsional_Energy-OPLS-2005>
331.679290771484

> <r_mmod_Improper_Torsional_Energy-OPLS-2005>
2.52975177764893

> <r_mmod_Van_der_Waal_Energy-OPLS-2005>
146.992034912109

> <r_mmod_Electrostatic_Energy-OPLS-2005>
-304.583038330078

> <r_mmod_Solvation_Energy-OPLS-2005>
-472.551605224609

> <b_mmod_Minimization_Converged-OPLS-2005>
0

> <r_mmod_RMS_Derivative-OPLS-2005>
6.89720726013184

$$$$
31
                    3D
 Structure written by MMmdl.
157165  0  0  1  0            999 V2000
  -30.6330  -14.6659   20.4570 C   0  0  0  0  0  0
  -30.4287  -12.4048   19.4419 C   0  0  0  0  0  0
  -29.4959  -12.4902   18.2148 C   0  0  0  0  0  0
  -28.0242  -12.3244   18.6410 C   0  0  0  0  0  0
  -27.6458  -13.2181   19.8523 C   0  0  2  0  0  0
  -28.6960  -13.1179   20.9791 C   0  0  0  0  0  0
  -25.2544  -13.8171   20.5697 C   0  0  0  0  0  0
  -24.1820  -13.0433   20.9196 C   0  0  0  0  0  0
  -24.6392  -11.6904   20.8757 C   0  0  0  0  0  0
  -23.9057  -10.4291   21.0425 C   0  0  0  0  0  0
  -24.3609   -9.4202   21.9200 C   0  0  0  0  0  0
  -23.6287   -8.2241   22.0760 C   0  0  0  0  0  0
  -22.4277   -8.0274   21.3549 C   0  0  0  0  0  0
  -21.9908   -9.0253   20.4654 C   0  0  0  0  0  0
  -22.7232  -10.2132   20.3071 C   0  0  0  0  0  0
  -21.6852   -6.0731   22.5276 C   0  0  0  0  0  0
  -21.4012   -6.5637   23.8207 C   0  0  0  0  0  0
  -21.3656   -5.6795   24.9171 C   0  0  0  0  0  0
  -21.6047   -4.3060   24.7231 C   0  0  0  0  0  0
  -21.8818   -3.8149   23.4350 C   0  0  0  0  0  0
  -21.9192   -4.6958   22.3401 C   0  0  0  0  0  0
  -22.7848  -13.5230   21.1854 C   0  0  0  0  0  0
  -22.1666   -4.2146   21.0977 F   0  0  0  0  0  0
  -21.5624   -3.4543   25.7741 F   0  0  0  0  0  0
  -29.9991  -13.4525   20.3894 N   0  0  0  0  0  0
  -26.2970  -12.9355   20.3319 N   0  0  0  0  0  0
  -25.9321  -11.6509   20.5783 N   0  0  0  0  0  0
  -22.0490  -12.8223   22.0410 N   0  0  0  0  0  0
  -25.4234  -15.1887   20.4079 N   0  0  0  0  0  0
  -31.8252  -14.7768   20.1606 O   0  0  0  0  0  0
  -21.6641   -6.8873   21.4241 O   0  0  0  0  0  0
  -22.3540  -14.5536   20.6702 O   0  0  0  0  0  0
  -24.6265  -31.8560   23.1985 C   0  0  0  0  0  0
  -25.9101  -32.4754   23.8315 C   0  0  1  0  0  0
  -27.2296  -27.3090   20.0811 C   0  0  0  0  0  0
  -25.5910  -33.8555   24.2243 N   0  0  0  0  0  0
  -23.4192  -30.4785   21.5428 C   0  0  2  0  0  0
  -24.8651  -28.9303   20.1069 C   0  0  0  0  0  0
  -22.7463  -29.4602   22.4933 C   0  0  0  0  0  0
  -18.0278  -28.1387   22.8483 C   0  0  0  0  0  0
  -24.1480  -36.7288   23.2639 C   0  0  0  0  0  0
  -25.9595  -30.7817   21.3668 C   0  0  0  0  0  0
  -26.0346  -29.4051   20.7125 C   0  0  0  0  0  0
  -27.2140  -28.6006   20.6994 C   0  0  0  0  0  0
  -26.0259  -26.8795   19.4766 C   0  0  0  0  0  0
  -24.8623  -27.6724   19.4862 C   0  0  0  0  0  0
  -23.6318  -29.8100   20.1589 C   0  0  0  0  0  0
  -25.4103  -36.3063   24.0317 C   0  0  1  0  0  0
  -20.5877  -28.3676   23.1298 C   0  0  2  0  0  0
  -20.6762  -26.9395   22.5418 C   0  0  0  0  0  0
  -19.5739  -26.6380   21.5216 C   0  0  0  0  0  0
  -18.1922  -26.7923   22.1624 C   0  0  0  0  0  0
  -19.1532  -28.8847   23.2885 C   0  0  0  0  0  0
  -18.9464  -30.1461   23.8892 C   0  0  0  0  0  0
  -17.6464  -30.6591   24.0563 C   0  0  0  0  0  0
  -25.9046  -34.9432   23.5088 C   0  0  0  0  0  0
  -16.5359  -29.9079   23.6346 C   0  0  0  0  0  0
  -16.7271  -28.6507   23.0345 C   0  0  0  0  0  0
  -26.4495  -31.6568   25.0692 C   0  0  0  0  0  0
  -25.3717  -31.3694   26.1417 C   0  0  0  0  0  0
  -27.0322  -30.3003   24.6108 C   0  0  0  0  0  0
  -27.6067  -32.4299   25.7458 C   0  0  0  0  0  0
  -27.5568  -37.1788   24.8461 C   0  0  0  0  0  0
  -21.4175  -29.3025   22.3694 N   0  0  0  0  0  0
  -26.4269  -37.3766   23.9419 N   0  0  0  0  0  0
  -24.6880  -31.0550   22.0943 N   0  0  0  0  0  0
  -23.4187  -28.8141   23.3013 O   0  0  0  0  0  0
  -28.3593  -26.4721   20.1315 O   0  0  0  0  0  0
  -26.5623  -34.8913   22.4665 O   0  0  0  0  0  0
  -23.5436  -32.1385   23.7299 O   0  0  0  0  0  0
  -29.5808  -22.9763   18.8828 C   0  0  0  0  0  0
  -29.7827  -21.6008   19.2170 C   0  0  0  0  0  0
  -28.1359  -23.2653   20.7781 C   0  0  0  0  0  0
  -28.7764  -23.8597   19.6624 C   0  0  0  0  0  0
  -29.1869  -21.0211   20.3649 C   0  0  0  0  0  0
  -28.3304  -21.8834   21.1178 C   0  0  0  0  0  0
  -26.2581  -21.6761   22.3513 C   0  0  0  0  0  0
  -28.5539  -25.3510   19.1840 C   0  0  0  0  0  0
  -29.5797  -18.4036   20.0752 C   0  0  0  0  0  0
  -30.2868  -17.2112   20.8775 C   0  0  0  0  0  0
  -27.6579  -21.2990   22.1991 N   0  0  0  0  0  0
  -29.4534  -19.6854   20.8404 N   0  0  0  0  0  0
  -29.8551  -15.7789   20.6655 N   0  0  0  0  0  0
  -31.4693  -12.5235   19.1360 H   0  0  0  0  0  0
  -30.3610  -11.4209   19.9082 H   0  0  0  0  0  0
  -29.7603  -11.7225   17.4862 H   0  0  0  0  0  0
  -29.6283  -13.4485   17.7112 H   0  0  0  0  0  0
  -27.8769  -11.2752   18.8990 H   0  0  0  0  0  0
  -27.3588  -12.5255   17.8006 H   0  0  0  0  0  0
  -27.6505  -14.2443   19.4851 H   0  0  0  0  0  0
  -28.7205  -12.1130   21.4032 H   0  0  0  0  0  0
  -28.4506  -13.7886   21.8045 H   0  0  0  0  0  0
  -25.2755   -9.5681   22.4777 H   0  0  0  0  0  0
  -23.9997   -7.4635   22.7490 H   0  0  0  0  0  0
  -21.0834   -8.8773   19.8965 H   0  0  0  0  0  0
  -22.3693  -10.9676   19.6182 H   0  0  0  0  0  0
  -21.2007   -7.6149   23.9707 H   0  0  0  0  0  0
  -21.1478   -6.0530   25.9070 H   0  0  0  0  0  0
  -22.0600   -2.7611   23.2856 H   0  0  0  0  0  0
  -22.4107  -11.9876   22.4778 H   0  0  0  0  0  0
  -21.1116  -13.1266   22.2636 H   0  0  0  0  0  0
  -24.6508  -15.8381   20.5067 H   0  0  0  0  0  0
  -26.2675  -15.6311   20.0689 H   0  0  0  0  0  0
  -26.7158  -32.5413   23.1054 H   0  0  0  0  0  0
  -25.0033  -33.9704   25.0364 H   0  0  0  0  0  0
  -22.7134  -31.2998   21.3983 H   0  0  0  0  0  0
  -23.3730  -35.9632   23.3300 H   0  0  0  0  0  0
  -24.3563  -36.8914   22.2057 H   0  0  0  0  0  0
  -23.7259  -37.6495   23.6671 H   0  0  0  0  0  0
  -26.0760  -31.5368   20.5886 H   0  0  0  0  0  0
  -26.8466  -30.8448   21.9852 H   0  0  0  0  0  0
  -28.1130  -28.9583   21.1820 H   0  0  0  0  0  0
  -25.9406  -25.9064   19.0191 H   0  0  0  0  0  0
  -23.9593  -27.3000   19.0238 H   0  0  0  0  0  0
  -23.7423  -30.5849   19.3996 H   0  0  0  0  0  0
  -22.7501  -29.2368   19.8636 H   0  0  0  0  0  0
  -25.1276  -36.1895   25.0800 H   0  0  0  0  0  0
  -20.9979  -28.3246   24.1414 H   0  0  0  0  0  0
  -20.5668  -26.2263   23.3602 H   0  0  0  0  0  0
  -21.6630  -26.7411   22.1206 H   0  0  0  0  0  0
  -19.6891  -25.6294   21.1233 H   0  0  0  0  0  0
  -19.6690  -27.3203   20.6756 H   0  0  0  0  0  0
  -17.4180  -26.6682   21.4034 H   0  0  0  0  0  0
  -18.0330  -26.0063   22.9025 H   0  0  0  0  0  0
  -19.7939  -30.7291   24.2236 H   0  0  0  0  0  0
  -17.5014  -31.6271   24.5167 H   0  0  0  0  0  0
  -15.5363  -30.2975   23.7681 H   0  0  0  0  0  0
  -15.8666  -28.0845   22.7032 H   0  0  0  0  0  0
  -24.5958  -30.6947   25.7770 H   0  0  0  0  0  0
  -24.8820  -32.2827   26.4793 H   0  0  0  0  0  0
  -25.8065  -30.8951   27.0225 H   0  0  0  0  0  0
  -26.2877  -29.6761   24.1147 H   0  0  0  0  0  0
  -27.4064  -29.7243   25.4584 H   0  0  0  0  0  0
  -27.8713  -30.4304   23.9267 H   0  0  0  0  0  0
  -27.2729  -33.3653   26.1951 H   0  0  0  0  0  0
  -28.3927  -32.6749   25.0300 H   0  0  0  0  0  0
  -28.0650  -31.8435   26.5436 H   0  0  0  0  0  0
  -28.2561  -38.0108   24.7533 H   0  0  0  0  0  0
  -28.1087  -36.2641   24.6249 H   0  0  0  0  0  0
  -27.2285  -37.1390   25.8860 H   0  0  0  0  0  0
  -20.9344  -29.8774   21.6933 H   0  0  0  0  0  0
  -26.0135  -38.2818   24.1475 H   0  0  0  0  0  0
  -30.0681  -23.3576   17.9951 H   0  0  0  0  0  0
  -30.4336  -21.0034   18.5961 H   0  0  0  0  0  0
  -27.4801  -23.8842   21.3723 H   0  0  0  0  0  0
  -25.7245  -20.8965   22.8953 H   0  0  0  0  0  0
  -25.7683  -21.7916   21.3823 H   0  0  0  0  0  0
  -26.1532  -22.6085   22.9072 H   0  0  0  0  0  0
  -27.8277  -25.3452   18.3733 H   0  0  0  0  0  0
  -29.4789  -25.6166   18.6716 H   0  0  0  0  0  0
  -28.5753  -18.0972   19.7826 H   0  0  0  0  0  0
  -30.1195  -18.5845   19.1441 H   0  0  0  0  0  0
  -30.1209  -17.3809   21.9416 H   0  0  0  0  0  0
  -31.3672  -17.2914   20.7421 H   0  0  0  0  0  0
  -27.7934  -20.2918   22.1693 H   0  0  0  0  0  0
  -29.3888  -19.5743   21.8475 H   0  0  0  0  0  0
  -28.8750  -15.5936   20.8139 H   0  0  0  0  0  0
  1 25  1  0  0  0
  1 30  2  0  0  0
  1 83  1  0  0  0
  2  3  1  0  0  0
  2 25  1  0  0  0
  2 84  1  0  0  0
  2 85  1  0  0  0
  3  4  1  0  0  0
  3 86  1  0  0  0
  3 87  1  0  0  0
  4  5  1  0  0  0
  4 88  1  0  0  0
  4 89  1  0  0  0
  5  6  1  0  0  0
  5 26  1  0  0  0
  5 90  1  0  0  0
  6 25  1  0  0  0
  6 91  1  0  0  0
  6 92  1  0  0  0
  7  8  2  0  0  0
  7 26  1  0  0  0
  7 29  1  0  0  0
  8  9  1  0  0  0
  8 22  1  0  0  0
  9 10  1  0  0  0
  9 27  2  0  0  0
 10 11  2  0  0  0
 10 15  1  0  0  0
 11 12  1  0  0  0
 11 93  1  0  0  0
 12 13  2  0  0  0
 12 94  1  0  0  0
 13 14  1  0  0  0
 13 31  1  0  0  0
 14 15  2  0  0  0
 14 95  1  0  0  0
 15 96  1  0  0  0
 16 17  2  0  0  0
 16 21  1  0  0  0
 16 31  1  0  0  0
 17 18  1  0  0  0
 17 97  1  0  0  0
 18 19  2  0  0  0
 18 98  1  0  0  0
 19 20  1  0  0  0
 19 24  1  0  0  0
 20 21  2  0  0  0
 20 99  1  0  0  0
 21 23  1  0  0  0
 22 28  1  0  0  0
 22 32  2  0  0  0
 26 27  1  0  0  0
 28100  1  0  0  0
 28101  1  0  0  0
 29102  1  0  0  0
 29103  1  0  0  0
 33 34  1  0  0  0
 33 66  1  0  0  0
 33 70  2  0  0  0
 34 36  1  0  0  0
 34 59  1  0  0  0
 34104  1  0  0  0
 35 44  2  0  0  0
 35 45  1  0  0  0
 35 68  1  0  0  0
 36 56  1  0  0  0
 36105  1  0  0  0
 37 39  1  0  0  0
 37 47  1  0  0  0
 37 66  1  0  0  0
 37106  1  0  0  0
 38 43  2  0  0  0
 38 46  1  0  0  0
 38 47  1  0  0  0
 39 64  1  0  0  0
 39 67  2  0  0  0
 40 52  1  0  0  0
 40 53  2  0  0  0
 40 58  1  0  0  0
 41107  1  0  0  0
 41108  1  0  0  0
 41109  1  0  0  0
 41 48  1  0  0  0
 42 43  1  0  0  0
 42 66  1  0  0  0
 42110  1  0  0  0
 42111  1  0  0  0
 43 44  1  0  0  0
 44112  1  0  0  0
 45 46  2  0  0  0
 45113  1  0  0  0
 46114  1  0  0  0
 47115  1  0  0  0
 47116  1  0  0  0
 48 56  1  0  0  0
 48 65  1  0  0  0
 48117  1  0  0  0
 49 50  1  0  0  0
 49 53  1  0  0  0
 49 64  1  0  0  0
 49118  1  0  0  0
 50 51  1  0  0  0
 50119  1  0  0  0
 50120  1  0  0  0
 51 52  1  0  0  0
 51121  1  0  0  0
 51122  1  0  0  0
 52123  1  0  0  0
 52124  1  0  0  0
 53 54  1  0  0  0
 54 55  2  0  0  0
 54125  1  0  0  0
 55 57  1  0  0  0
 55126  1  0  0  0
 56 69  2  0  0  0
 57 58  2  0  0  0
 57127  1  0  0  0
 58128  1  0  0  0
 59 60  1  0  0  0
 59 61  1  0  0  0
 59 62  1  0  0  0
 60129  1  0  0  0
 60130  1  0  0  0
 60131  1  0  0  0
 61132  1  0  0  0
 61133  1  0  0  0
 61134  1  0  0  0
 62135  1  0  0  0
 62136  1  0  0  0
 62137  1  0  0  0
 63 65  1  0  0  0
 63138  1  0  0  0
 63139  1  0  0  0
 63140  1  0  0  0
 64141  1  0  0  0
 65142  1  0  0  0
 68 78  1  0  0  0
 71 72  2  0  0  0
 71 74  1  0  0  0
 71143  1  0  0  0
 72 75  1  0  0  0
 72144  1  0  0  0
 73 74  2  0  0  0
 73 76  1  0  0  0
 73145  1  0  0  0
 74 78  1  0  0  0
 75 76  2  0  0  0
 75 82  1  0  0  0
 76 81  1  0  0  0
 77 81  1  0  0  0
 77146  1  0  0  0
 77147  1  0  0  0
 77148  1  0  0  0
 78149  1  0  0  0
 78150  1  0  0  0
 79 80  1  0  0  0
 79 82  1  0  0  0
 79151  1  0  0  0
 79152  1  0  0  0
 80 83  1  0  0  0
 80153  1  0  0  0
 80154  1  0  0  0
 81155  1  0  0  0
 82156  1  0  0  0
 83157  1  0  0  0
M  ISO  4   1 100  68 101  78 101  83 100
M  END
> <chiral flag>
0

> <version>
0

> <s_m_source_file>
/data/baiqing/PycharmProjects/Reinvent-master-3.2/result/LINK_invent/BTK/process_docking_weight1_custom_sum_contain_oxygen_bond_distance_aromatic_linkinvent_7_9_3/rearranged_h_0134.sdf

> <i_m_source_file_index>
32

> <r_mmod_Potential_Energy-OPLS-2005>
-9.54698467254639

> <r_mmod_Stretch_Energy-OPLS-2005>
84.059684753418

> <r_mmod_Bend_Energy-OPLS-2005>
168.41764831543

> <r_mmod_Torsional_Energy-OPLS-2005>
222.542907714844

> <r_mmod_Improper_Torsional_Energy-OPLS-2005>
10.5956201553345

> <r_mmod_Van_der_Waal_Energy-OPLS-2005>
147.993957519531

> <r_mmod_Electrostatic_Energy-OPLS-2005>
-464.664581298828

> <r_mmod_Solvation_Energy-OPLS-2005>
-235.285354614258

> <b_mmod_Minimization_Converged-OPLS-2005>
0

> <r_mmod_RMS_Derivative-OPLS-2005>
2.2615385055542

$$$$
32
                    3D
 Structure written by MMmdl.
166174  0  0  1  0            999 V2000
  -30.7081  -14.4301   20.6473 C   0  0  0  0  0  0
  -30.4313  -12.3111   19.4161 C   0  0  0  0  0  0
  -29.4926  -12.5040   18.2061 C   0  0  0  0  0  0
  -28.0178  -12.3537   18.6281 C   0  0  0  0  0  0
  -27.6655  -13.1972   19.8800 C   0  0  2  0  0  0
  -28.6994  -12.9597   21.0024 C   0  0  0  0  0  0
  -25.2593  -13.8136   20.5632 C   0  0  0  0  0  0
  -24.1852  -13.0465   20.9131 C   0  0  0  0  0  0
  -24.6357  -11.6909   20.8704 C   0  0  0  0  0  0
  -23.9006  -10.4301   21.0422 C   0  0  0  0  0  0
  -24.3570   -9.4220   21.9190 C   0  0  0  0  0  0
  -23.6279   -8.2222   22.0749 C   0  0  0  0  0  0
  -22.4251   -8.0249   21.3540 C   0  0  0  0  0  0
  -21.9886   -9.0205   20.4649 C   0  0  0  0  0  0
  -22.7186  -10.2116   20.3088 C   0  0  0  0  0  0
  -21.6854   -6.0727   22.5256 C   0  0  0  0  0  0
  -21.4019   -6.5632   23.8212 C   0  0  0  0  0  0
  -21.3656   -5.6791   24.9171 C   0  0  0  0  0  0
  -21.6066   -4.3046   24.7230 C   0  0  0  0  0  0
  -21.8810   -3.8142   23.4339 C   0  0  0  0  0  0
  -21.9197   -4.6950   22.3410 C   0  0  0  0  0  0
  -22.7862  -13.5271   21.1814 C   0  0  0  0  0  0
  -22.1659   -4.2155   21.0974 F   0  0  0  0  0  0
  -21.5629   -3.4546   25.7732 F   0  0  0  0  0  0
  -30.0362  -13.2640   20.4654 N   0  0  0  0  0  0
  -26.3040  -12.9302   20.3392 N   0  0  0  0  0  0
  -25.9283  -11.6478   20.5760 N   0  0  0  0  0  0
  -22.0503  -12.8261   22.0333 N   0  0  0  0  0  0
  -25.4335  -15.1861   20.4004 N   0  0  0  0  0  0
  -31.7952  -14.6768   20.1220 O   0  0  0  0  0  0
  -21.6619   -6.8839   21.4211 O   0  0  0  0  0  0
  -22.3581  -14.5579   20.6649 O   0  0  0  0  0  0
  -24.6116  -31.8683   23.2139 C   0  0  0  0  0  0
  -25.9023  -32.4823   23.8421 C   0  0  1  0  0  0
  -27.2418  -27.4511   20.1040 C   0  0  0  0  0  0
  -25.5881  -33.8615   24.2338 N   0  0  0  0  0  0
  -23.4017  -30.4902   21.5534 C   0  0  2  0  0  0
  -24.8511  -28.9561   20.1206 C   0  0  0  0  0  0
  -22.7388  -29.4669   22.5013 C   0  0  0  0  0  0
  -18.0269  -28.1364   22.8473 C   0  0  0  0  0  0
  -24.1484  -36.7322   23.2637 C   0  0  0  0  0  0
  -25.9276  -30.8424   21.3600 C   0  0  0  0  0  0
  -26.0104  -29.4752   20.7132 C   0  0  0  0  0  0
  -27.2100  -28.7309   20.7030 C   0  0  0  0  0  0
  -26.0712  -26.9428   19.5049 C   0  0  0  0  0  0
  -24.8764  -27.6892   19.5130 C   0  0  0  0  0  0
  -23.6107  -29.8209   20.1688 C   0  0  0  0  0  0
  -25.4111  -36.3121   24.0342 C   0  0  1  0  0  0
  -20.5829  -28.3662   23.1328 C   0  0  2  0  0  0
  -20.6754  -26.9397   22.5403 C   0  0  0  0  0  0
  -19.5733  -26.6333   21.5216 C   0  0  0  0  0  0
  -18.1918  -26.7903   22.1622 C   0  0  0  0  0  0
  -19.1504  -28.8838   23.2890 C   0  0  0  0  0  0
  -18.9430  -30.1432   23.8937 C   0  0  0  0  0  0
  -17.6419  -30.6552   24.0566 C   0  0  0  0  0  0
  -25.9020  -34.9476   23.5129 C   0  0  0  0  0  0
  -16.5326  -29.9073   23.6319 C   0  0  0  0  0  0
  -16.7253  -28.6497   23.0361 C   0  0  0  0  0  0
  -26.4467  -31.6575   25.0722 C   0  0  0  0  0  0
  -25.3738  -31.3670   26.1473 C   0  0  0  0  0  0
  -27.0285  -30.3032   24.6032 C   0  0  0  0  0  0
  -27.6046  -32.4297   25.7460 C   0  0  0  0  0  0
  -27.5585  -37.1821   24.8471 C   0  0  0  0  0  0
  -21.4114  -29.3042   22.3778 N   0  0  0  0  0  0
  -26.4299  -37.3807   23.9406 N   0  0  0  0  0  0
  -24.6664  -31.0785   22.1039 N   0  0  0  0  0  0
  -23.4170  -28.8230   23.3080 O   0  0  0  0  0  0
  -28.4087  -26.7197   20.0876 O   0  0  0  0  0  0
  -26.5596  -34.8935   22.4688 O   0  0  0  0  0  0
  -23.5316  -32.1450   23.7545 O   0  0  0  0  0  0
  -30.2304  -20.1247   20.5392 C   0  0  0  0  0  0
  -29.8825  -21.4356   20.1432 C   0  0  0  0  0  0
  -27.5871  -20.9469   20.6937 C   0  0  0  0  0  0
  -29.2740  -19.2177   21.0599 C   0  0  0  0  0  0
  -27.9227  -19.6370   21.1133 C   0  0  0  0  0  0
  -28.5484  -21.8789   20.2592 C   0  0  0  0  0  0
  -26.4722  -20.4873   23.5497 C   0  0  0  0  0  0
  -24.5768  -18.9756   22.7667 C   0  0  0  0  0  0
  -29.7319  -17.8616   21.6270 C   0  0  0  0  0  0
  -26.7894  -18.7297   21.5957 C   0  0  0  0  0  0
  -29.5944  -16.6322   20.6856 C   0  0  0  0  0  0
  -28.3539  -25.4529   20.7687 C   0  0  0  0  0  0
  -28.9781  -24.2835   19.9608 C   0  0  0  0  0  0
  -26.0946  -19.1233   22.9243 C   0  0  0  0  0  0
  -30.0382  -15.3780   21.3177 N   0  0  0  0  0  0
  -28.0870  -23.1514   19.9651 O   0  0  0  0  0  0
  -31.4677  -12.4522   19.1043 H   0  0  0  0  0  0
  -30.3572  -11.2957   19.8039 H   0  0  0  0  0  0
  -29.7256  -11.7838   17.4208 H   0  0  0  0  0  0
  -29.6514  -13.4941   17.7766 H   0  0  0  0  0  0
  -27.8219  -11.2946   18.8207 H   0  0  0  0  0  0
  -27.3633  -12.6242   17.7978 H   0  0  0  0  0  0
  -27.7234  -14.2466   19.5899 H   0  0  0  0  0  0
  -28.6715  -11.9198   21.3200 H   0  0  0  0  0  0
  -28.4438  -13.5420   21.8874 H   0  0  0  0  0  0
  -25.2705   -9.5733   22.4794 H   0  0  0  0  0  0
  -23.9988   -7.4637   22.7490 H   0  0  0  0  0  0
  -21.0809   -8.8749   19.8961 H   0  0  0  0  0  0
  -22.3607  -10.9666   19.6240 H   0  0  0  0  0  0
  -21.1992   -7.6150   23.9700 H   0  0  0  0  0  0
  -21.1496   -6.0535   25.9080 H   0  0  0  0  0  0
  -22.0593   -2.7606   23.2854 H   0  0  0  0  0  0
  -22.4135  -11.9944   22.4756 H   0  0  0  0  0  0
  -21.1167  -13.1382   22.2589 H   0  0  0  0  0  0
  -24.6646  -15.8371   20.5170 H   0  0  0  0  0  0
  -26.2852  -15.6171   20.0675 H   0  0  0  0  0  0
  -26.7109  -32.5585   23.1205 H   0  0  0  0  0  0
  -25.0068  -33.9791   25.0512 H   0  0  0  0  0  0
  -22.6924  -31.3081   21.4156 H   0  0  0  0  0  0
  -23.3735  -35.9656   23.3317 H   0  0  0  0  0  0
  -24.3587  -36.8924   22.2048 H   0  0  0  0  0  0
  -23.7252  -37.6543   23.6630 H   0  0  0  0  0  0
  -26.0258  -31.6048   20.5862 H   0  0  0  0  0  0
  -26.8191  -30.9052   21.9698 H   0  0  0  0  0  0
  -28.1027  -29.1265   21.1662 H   0  0  0  0  0  0
  -26.0819  -25.9719   19.0319 H   0  0  0  0  0  0
  -23.9884  -27.2843   19.0490 H   0  0  0  0  0  0
  -23.7144  -30.5963   19.4079 H   0  0  0  0  0  0
  -22.7335  -29.2384   19.8767 H   0  0  0  0  0  0
  -25.1281  -36.2003   25.0839 H   0  0  0  0  0  0
  -20.9950  -28.3212   24.1444 H   0  0  0  0  0  0
  -21.6643  -26.7473   22.1203 H   0  0  0  0  0  0
  -20.5639  -26.2299   23.3584 H   0  0  0  0  0  0
  -19.6937  -25.6241   21.1262 H   0  0  0  0  0  0
  -19.6643  -27.3159   20.6773 H   0  0  0  0  0  0
  -17.4141  -26.6623   21.4087 H   0  0  0  0  0  0
  -18.0339  -26.0039   22.9038 H   0  0  0  0  0  0
  -19.7898  -30.7222   24.2332 H   0  0  0  0  0  0
  -17.4997  -31.6260   24.5126 H   0  0  0  0  0  0
  -15.5316  -30.3002   23.7613 H   0  0  0  0  0  0
  -15.8643  -28.0783   22.7098 H   0  0  0  0  0  0
  -24.5895  -30.7033   25.7831 H   0  0  0  0  0  0
  -24.8936  -32.2816   26.4944 H   0  0  0  0  0  0
  -25.8096  -30.8834   27.0213 H   0  0  0  0  0  0
  -26.2814  -29.6811   24.1090 H   0  0  0  0  0  0
  -27.4124  -29.7241   25.4435 H   0  0  0  0  0  0
  -27.8602  -30.4403   23.9119 H   0  0  0  0  0  0
  -27.2658  -33.3574   26.2064 H   0  0  0  0  0  0
  -28.3802  -32.6891   25.0243 H   0  0  0  0  0  0
  -28.0740  -31.8406   26.5340 H   0  0  0  0  0  0
  -28.2623  -38.0103   24.7503 H   0  0  0  0  0  0
  -28.1067  -36.2637   24.6303 H   0  0  0  0  0  0
  -27.2297  -37.1484   25.8877 H   0  0  0  0  0  0
  -20.9288  -29.8729   21.6987 H   0  0  0  0  0  0
  -26.0192  -38.2883   24.1400 H   0  0  0  0  0  0
  -31.2609  -19.8237   20.4521 H   0  0  0  0  0  0
  -30.6546  -22.0827   19.7544 H   0  0  0  0  0  0
  -26.5624  -21.2773   20.7616 H   0  0  0  0  0  0
  -26.0589  -20.5898   24.5547 H   0  0  0  0  0  0
  -26.0995  -21.3327   22.9632 H   0  0  0  0  0  0
  -27.5530  -20.5923   23.6562 H   0  0  0  0  0  0
  -24.0501  -19.1506   23.7010 H   0  0  0  0  0  0
  -24.3233  -17.9705   22.4339 H   0  0  0  0  0  0
  -24.1925  -19.6748   22.0239 H   0  0  0  0  0  0
  -29.1554  -17.6949   22.5383 H   0  0  0  0  0  0
  -30.7664  -17.9694   21.9530 H   0  0  0  0  0  0
  -27.0750  -17.6780   21.6764 H   0  0  0  0  0  0
  -26.0596  -18.7326   20.7821 H   0  0  0  0  0  0
  -30.1361  -16.7959   19.7578 H   0  0  0  0  0  0
  -28.5498  -16.4876   20.3916 H   0  0  0  0  0  0
  -28.8762  -25.5583   21.7214 H   0  0  0  0  0  0
  -27.3352  -25.1841   21.0438 H   0  0  0  0  0  0
  -29.9732  -24.0736   20.3565 H   0  0  0  0  0  0
  -29.1156  -24.5963   18.9238 H   0  0  0  0  0  0
  -26.4170  -18.3843   23.6481 H   0  0  0  0  0  0
  -30.3045  -15.4449   22.2903 H   0  0  0  0  0  0
  1 25  1  0  0  0
  1 30  2  0  0  0
  1 85  1  0  0  0
  2  3  1  0  0  0
  2 25  1  0  0  0
  2 87  1  0  0  0
  2 88  1  0  0  0
  3  4  1  0  0  0
  3 89  1  0  0  0
  3 90  1  0  0  0
  4  5  1  0  0  0
  4 91  1  0  0  0
  4 92  1  0  0  0
  5  6  1  0  0  0
  5 26  1  0  0  0
  5 93  1  0  0  0
  6 25  1  0  0  0
  6 94  1  0  0  0
  6 95  1  0  0  0
  7  8  2  0  0  0
  7 26  1  0  0  0
  7 29  1  0  0  0
  8  9  1  0  0  0
  8 22  1  0  0  0
  9 10  1  0  0  0
  9 27  2  0  0  0
 10 11  2  0  0  0
 10 15  1  0  0  0
 11 12  1  0  0  0
 11 96  1  0  0  0
 12 13  2  0  0  0
 12 97  1  0  0  0
 13 14  1  0  0  0
 13 31  1  0  0  0
 14 15  2  0  0  0
 14 98  1  0  0  0
 15 99  1  0  0  0
 16 17  2  0  0  0
 16 21  1  0  0  0
 16 31  1  0  0  0
 17 18  1  0  0  0
 17100  1  0  0  0
 18 19  2  0  0  0
 18101  1  0  0  0
 19 20  1  0  0  0
 19 24  1  0  0  0
 20 21  2  0  0  0
 20102  1  0  0  0
 21 23  1  0  0  0
 22 28  1  0  0  0
 22 32  2  0  0  0
 26 27  1  0  0  0
 28103  1  0  0  0
 28104  1  0  0  0
 29105  1  0  0  0
 29106  1  0  0  0
 33 34  1  0  0  0
 33 66  1  0  0  0
 33 70  2  0  0  0
 34 36  1  0  0  0
 34 59  1  0  0  0
 34107  1  0  0  0
 35 44  2  0  0  0
 35 45  1  0  0  0
 35 68  1  0  0  0
 36 56  1  0  0  0
 36108  1  0  0  0
 37 39  1  0  0  0
 37 47  1  0  0  0
 37 66  1  0  0  0
 37109  1  0  0  0
 38 43  2  0  0  0
 38 46  1  0  0  0
 38 47  1  0  0  0
 39 64  1  0  0  0
 39 67  2  0  0  0
 40 52  1  0  0  0
 40 53  2  0  0  0
 40 58  1  0  0  0
 41110  1  0  0  0
 41111  1  0  0  0
 41112  1  0  0  0
 41 48  1  0  0  0
 42 43  1  0  0  0
 42 66  1  0  0  0
 42113  1  0  0  0
 42114  1  0  0  0
 43 44  1  0  0  0
 44115  1  0  0  0
 45 46  2  0  0  0
 45116  1  0  0  0
 46117  1  0  0  0
 47118  1  0  0  0
 47119  1  0  0  0
 48 56  1  0  0  0
 48 65  1  0  0  0
 48120  1  0  0  0
 49 50  1  0  0  0
 49 53  1  0  0  0
 49 64  1  0  0  0
 49121  1  0  0  0
 50 51  1  0  0  0
 50122  1  0  0  0
 50123  1  0  0  0
 51 52  1  0  0  0
 51124  1  0  0  0
 51125  1  0  0  0
 52126  1  0  0  0
 52127  1  0  0  0
 53 54  1  0  0  0
 54 55  2  0  0  0
 54128  1  0  0  0
 55 57  1  0  0  0
 55129  1  0  0  0
 56 69  2  0  0  0
 57 58  2  0  0  0
 57130  1  0  0  0
 58131  1  0  0  0
 59 60  1  0  0  0
 59 61  1  0  0  0
 59 62  1  0  0  0
 60132  1  0  0  0
 60133  1  0  0  0
 60134  1  0  0  0
 61135  1  0  0  0
 61136  1  0  0  0
 61137  1  0  0  0
 62138  1  0  0  0
 62139  1  0  0  0
 62140  1  0  0  0
 63 65  1  0  0  0
 63141  1  0  0  0
 63142  1  0  0  0
 63143  1  0  0  0
 64144  1  0  0  0
 65145  1  0  0  0
 68 82  1  0  0  0
 71 72  2  0  0  0
 71 74  1  0  0  0
 71146  1  0  0  0
 72 76  1  0  0  0
 72147  1  0  0  0
 73 75  1  0  0  0
 73 76  2  0  0  0
 73148  1  0  0  0
 74 75  2  0  0  0
 74 79  1  0  0  0
 75 80  1  0  0  0
 76 86  1  0  0  0
 77149  1  0  0  0
 77150  1  0  0  0
 77151  1  0  0  0
 77 84  1  0  0  0
 78 84  1  0  0  0
 78152  1  0  0  0
 78153  1  0  0  0
 78154  1  0  0  0
 79 81  1  0  0  0
 79155  1  0  0  0
 79156  1  0  0  0
 80 84  1  0  0  0
 80157  1  0  0  0
 80158  1  0  0  0
 81 85  1  0  0  0
 81159  1  0  0  0
 81160  1  0  0  0
 82 83  1  0  0  0
 82161  1  0  0  0
 82162  1  0  0  0
 83 86  1  0  0  0
 83163  1  0  0  0
 83164  1  0  0  0
 84165  1  0  0  0
 85166  1  0  0  0
M  ISO  4   1 100  68 101  82 101  85 100
M  END
> <chiral flag>
0

> <version>
0

> <s_m_source_file>
/data/baiqing/PycharmProjects/Reinvent-master-3.2/result/LINK_invent/BTK/process_docking_weight1_custom_sum_contain_oxygen_bond_distance_aromatic_linkinvent_7_9_3/rearranged_h_0134.sdf

> <i_m_source_file_index>
33

> <r_mmod_Potential_Energy-OPLS-2005>
39.2237434387207

> <r_mmod_Stretch_Energy-OPLS-2005>
39.7271156311035

> <r_mmod_Bend_Energy-OPLS-2005>
115.05989074707

> <r_mmod_Torsional_Energy-OPLS-2005>
302.89208984375

> <r_mmod_Improper_Torsional_Energy-OPLS-2005>
5.96279048919678

> <r_mmod_Van_der_Waal_Energy-OPLS-2005>
152.291641235352

> <r_mmod_Electrostatic_Energy-OPLS-2005>
-383.448638916016

> <r_mmod_Solvation_Energy-OPLS-2005>
-202.234970092773

> <b_mmod_Minimization_Converged-OPLS-2005>
0

> <r_mmod_RMS_Derivative-OPLS-2005>
9.00492668151855

$$$$
33
                    3D
 Structure written by MMmdl.
163171  0  0  1  0            999 V2000
  -30.7395  -14.4277   20.6105 C   0  0  0  0  0  0
  -30.4177  -12.2987   19.4075 C   0  0  0  0  0  0
  -29.4816  -12.4969   18.1964 C   0  0  0  0  0  0
  -28.0082  -12.3564   18.6251 C   0  0  0  0  0  0
  -27.6618  -13.2037   19.8780 C   0  0  2  0  0  0
  -28.7052  -12.9785   20.9979 C   0  0  0  0  0  0
  -25.2582  -13.8143   20.5707 C   0  0  0  0  0  0
  -24.1840  -13.0427   20.9182 C   0  0  0  0  0  0
  -24.6363  -11.6882   20.8733 C   0  0  0  0  0  0
  -23.8992  -10.4290   21.0407 C   0  0  0  0  0  0
  -24.3555   -9.4233   21.9193 C   0  0  0  0  0  0
  -23.6252   -8.2257   22.0788 C   0  0  0  0  0  0
  -22.4252   -8.0271   21.3563 C   0  0  0  0  0  0
  -21.9850   -9.0219   20.4677 C   0  0  0  0  0  0
  -22.7149  -10.2118   20.3080 C   0  0  0  0  0  0
  -21.6857   -6.0714   22.5270 C   0  0  0  0  0  0
  -21.3992   -6.5622   23.8205 C   0  0  0  0  0  0
  -21.3660   -5.6799   24.9171 C   0  0  0  0  0  0
  -21.6048   -4.3059   24.7232 C   0  0  0  0  0  0
  -21.8811   -3.8139   23.4348 C   0  0  0  0  0  0
  -21.9187   -4.6936   22.3406 C   0  0  0  0  0  0
  -22.7872  -13.5227   21.1857 C   0  0  0  0  0  0
  -22.1668   -4.2123   21.0983 F   0  0  0  0  0  0
  -21.5642   -3.4562   25.7738 F   0  0  0  0  0  0
  -30.0436  -13.2705   20.4480 N   0  0  0  0  0  0
  -26.3027  -12.9318   20.3410 N   0  0  0  0  0  0
  -25.9304  -11.6472   20.5802 N   0  0  0  0  0  0
  -22.0490  -12.8247   22.0406 N   0  0  0  0  0  0
  -25.4327  -15.1876   20.4181 N   0  0  0  0  0  0
  -31.8195  -14.6521   20.0619 O   0  0  0  0  0  0
  -21.6658   -6.8841   21.4237 O   0  0  0  0  0  0
  -22.3568  -14.5532   20.6712 O   0  0  0  0  0  0
  -24.6196  -31.8617   23.2111 C   0  0  0  0  0  0
  -25.9080  -32.4753   23.8387 C   0  0  1  0  0  0
  -27.2185  -27.4248   20.0555 C   0  0  0  0  0  0
  -25.5883  -33.8556   24.2278 N   0  0  0  0  0  0
  -23.4061  -30.4921   21.5493 C   0  0  2  0  0  0
  -24.8437  -28.9579   20.1139 C   0  0  0  0  0  0
  -22.7375  -29.4695   22.4952 C   0  0  0  0  0  0
  -18.0246  -28.1394   22.8460 C   0  0  0  0  0  0
  -24.1500  -36.7305   23.2633 C   0  0  0  0  0  0
  -25.9380  -30.8251   21.3647 C   0  0  0  0  0  0
  -26.0123  -29.4628   20.6983 C   0  0  0  0  0  0
  -27.2113  -28.7055   20.6603 C   0  0  0  0  0  0
  -26.0327  -26.9326   19.4763 C   0  0  0  0  0  0
  -24.8459  -27.6909   19.5060 C   0  0  0  0  0  0
  -23.6079  -29.8275   20.1655 C   0  0  0  0  0  0
  -25.4121  -36.3046   24.0280 C   0  0  1  0  0  0
  -20.5841  -28.3707   23.1291 C   0  0  2  0  0  0
  -20.6762  -26.9445   22.5405 C   0  0  0  0  0  0
  -19.5767  -26.6416   21.5179 C   0  0  0  0  0  0
  -18.1925  -26.7932   22.1592 C   0  0  0  0  0  0
  -19.1494  -28.8854   23.2869 C   0  0  0  0  0  0
  -18.9459  -30.1446   23.8913 C   0  0  0  0  0  0
  -17.6469  -30.6598   24.0566 C   0  0  0  0  0  0
  -25.9041  -34.9421   23.5079 C   0  0  0  0  0  0
  -16.5347  -29.9110   23.6340 C   0  0  0  0  0  0
  -16.7241  -28.6525   23.0359 C   0  0  0  0  0  0
  -26.4509  -31.6543   25.0705 C   0  0  0  0  0  0
  -25.3762  -31.3617   26.1447 C   0  0  0  0  0  0
  -27.0352  -30.2971   24.6106 C   0  0  0  0  0  0
  -27.6104  -32.4274   25.7440 C   0  0  0  0  0  0
  -27.5579  -37.1800   24.8444 C   0  0  0  0  0  0
  -21.4100  -29.3059   22.3678 N   0  0  0  0  0  0
  -26.4297  -37.3734   23.9375 N   0  0  0  0  0  0
  -24.6718  -31.0739   22.1005 N   0  0  0  0  0  0
  -23.4139  -28.8227   23.2984 O   0  0  0  0  0  0
  -28.3600  -26.6529   20.0208 O   0  0  0  0  0  0
  -26.5651  -34.8880   22.4673 O   0  0  0  0  0  0
  -23.5416  -32.1430   23.7512 O   0  0  0  0  0  0
  -29.1761  -19.8545   19.3557 C   0  0  0  0  0  0
  -28.8128  -21.2163   19.4680 C   0  0  0  0  0  0
  -28.7537  -19.5411   21.7259 C   0  0  0  0  0  0
  -29.1218  -18.9976   20.4790 C   0  0  0  0  0  0
  -28.3891  -20.9016   21.8507 C   0  0  0  0  0  0
  -28.3991  -21.7533   20.7118 C   0  0  0  0  0  0
  -29.1941  -21.3625   24.2015 C   0  0  0  0  0  0
  -26.7684  -20.7351   23.8253 C   0  0  0  0  0  0
  -29.3123  -17.4853   20.3319 C   0  0  0  0  0  0
  -30.3611  -16.8190   21.2592 C   0  0  0  0  0  0
  -28.2564  -25.4041   20.7308 C   0  0  0  0  0  0
  -28.1781  -24.0861   19.9072 C   0  0  0  0  0  0
  -28.0057  -21.4354   23.2352 C   0  0  0  0  0  0
  -30.1088  -15.3738   21.3203 N   0  0  0  0  0  0
  -27.9816  -23.0603   20.8924 O   0  0  0  0  0  0
  -31.4618  -12.3898   19.0974 H   0  0  0  0  0  0
  -30.3105  -11.2883   19.7980 H   0  0  0  0  0  0
  -29.7126  -11.7545   17.4298 H   0  0  0  0  0  0
  -29.6498  -13.4766   17.7479 H   0  0  0  0  0  0
  -27.8343  -11.3009   18.8391 H   0  0  0  0  0  0
  -27.3440  -12.6160   17.8015 H   0  0  0  0  0  0
  -27.7065  -14.2524   19.5847 H   0  0  0  0  0  0
  -28.6715  -11.9464   21.3471 H   0  0  0  0  0  0
  -28.4551  -13.5861   21.8693 H   0  0  0  0  0  0
  -25.2696   -9.5743   22.4754 H   0  0  0  0  0  0
  -23.9977   -7.4658   22.7517 H   0  0  0  0  0  0
  -21.0786   -8.8672   19.8985 H   0  0  0  0  0  0
  -22.3558  -10.9619   19.6192 H   0  0  0  0  0  0
  -21.1970   -7.6138   23.9673 H   0  0  0  0  0  0
  -21.1503   -6.0562   25.9065 H   0  0  0  0  0  0
  -22.0586   -2.7594   23.2881 H   0  0  0  0  0  0
  -22.4065  -11.9876   22.4782 H   0  0  0  0  0  0
  -21.1123  -13.1338   22.2632 H   0  0  0  0  0  0
  -24.6728  -15.8459   20.5444 H   0  0  0  0  0  0
  -26.2938  -15.6264   20.1191 H   0  0  0  0  0  0
  -26.7123  -32.5451   23.1124 H   0  0  0  0  0  0
  -24.9879  -33.9678   25.0328 H   0  0  0  0  0  0
  -22.7006  -31.3137   21.4122 H   0  0  0  0  0  0
  -23.3706  -35.9696   23.3274 H   0  0  0  0  0  0
  -24.3612  -36.9007   22.2066 H   0  0  0  0  0  0
  -23.7356  -37.6516   23.6739 H   0  0  0  0  0  0
  -26.0672  -31.6004   20.6080 H   0  0  0  0  0  0
  -26.8194  -30.8606   21.9934 H   0  0  0  0  0  0
  -28.1272  -29.0895   21.0914 H   0  0  0  0  0  0
  -26.0196  -25.9675   18.9907 H   0  0  0  0  0  0
  -23.9425  -27.2997   19.0567 H   0  0  0  0  0  0
  -23.7066  -30.6012   19.4007 H   0  0  0  0  0  0
  -22.7263  -29.2489   19.8805 H   0  0  0  0  0  0
  -25.1309  -36.1851   25.0759 H   0  0  0  0  0  0
  -21.0000  -28.3356   24.1386 H   0  0  0  0  0  0
  -20.5690  -26.2320   23.3585 H   0  0  0  0  0  0
  -21.6631  -26.7497   22.1197 H   0  0  0  0  0  0
  -19.6950  -25.6326   21.1210 H   0  0  0  0  0  0
  -19.6717  -27.3208   20.6685 H   0  0  0  0  0  0
  -17.4177  -26.6636   21.3989 H   0  0  0  0  0  0
  -18.0373  -26.0056   22.8994 H   0  0  0  0  0  0
  -19.7940  -30.7219   24.2364 H   0  0  0  0  0  0
  -17.5022  -31.6301   24.5146 H   0  0  0  0  0  0
  -15.5348  -30.3037   23.7673 H   0  0  0  0  0  0
  -15.8623  -28.0856   22.7138 H   0  0  0  0  0  0
  -24.5942  -30.6930   25.7786 H   0  0  0  0  0  0
  -24.8887  -32.2724   26.4932 H   0  0  0  0  0  0
  -25.8097  -30.8774   27.0201 H   0  0  0  0  0  0
  -26.2889  -29.6624   24.1280 H   0  0  0  0  0  0
  -27.4230  -29.7266   25.4566 H   0  0  0  0  0  0
  -27.8673  -30.4199   23.9163 H   0  0  0  0  0  0
  -27.2768  -33.3604   26.1997 H   0  0  0  0  0  0
  -28.3935  -32.6801   25.0267 H   0  0  0  0  0  0
  -28.0722  -31.8372   26.5373 H   0  0  0  0  0  0
  -28.2571  -38.0121   24.7516 H   0  0  0  0  0  0
  -28.1093  -36.2648   24.6243 H   0  0  0  0  0  0
  -27.2258  -37.1417   25.8831 H   0  0  0  0  0  0
  -20.9271  -29.8735   21.6863 H   0  0  0  0  0  0
  -26.0137  -38.2767   24.1432 H   0  0  0  0  0  0
  -29.4555  -19.4650   18.3860 H   0  0  0  0  0  0
  -28.8166  -21.8206   18.5737 H   0  0  0  0  0  0
  -28.7204  -18.9044   22.6005 H   0  0  0  0  0  0
  -30.0635  -21.8851   23.8020 H   0  0  0  0  0  0
  -29.4833  -20.3303   24.3941 H   0  0  0  0  0  0
  -28.9509  -21.8241   25.1597 H   0  0  0  0  0  0
  -25.8945  -20.8782   23.1909 H   0  0  0  0  0  0
  -26.5273  -21.1628   24.8000 H   0  0  0  0  0  0
  -26.9134  -19.6623   23.9661 H   0  0  0  0  0  0
  -29.5460  -17.2437   19.2943 H   0  0  0  0  0  0
  -28.3384  -17.0286   20.5128 H   0  0  0  0  0  0
  -30.2913  -17.2068   22.2770 H   0  0  0  0  0  0
  -31.3732  -17.0402   20.9134 H   0  0  0  0  0  0
  -29.1475  -25.3387   21.3562 H   0  0  0  0  0  0
  -27.4121  -25.4329   21.4246 H   0  0  0  0  0  0
  -29.0921  -23.9439   19.3251 H   0  0  0  0  0  0
  -27.3364  -24.0897   19.2096 H   0  0  0  0  0  0
  -27.7467  -22.4911   23.1558 H   0  0  0  0  0  0
  -29.2588  -15.0808   21.7804 H   0  0  0  0  0  0
  1 25  1  0  0  0
  1 30  2  0  0  0
  1 84  1  0  0  0
  2  3  1  0  0  0
  2 25  1  0  0  0
  2 86  1  0  0  0
  2 87  1  0  0  0
  3  4  1  0  0  0
  3 88  1  0  0  0
  3 89  1  0  0  0
  4  5  1  0  0  0
  4 90  1  0  0  0
  4 91  1  0  0  0
  5  6  1  0  0  0
  5 26  1  0  0  0
  5 92  1  0  0  0
  6 25  1  0  0  0
  6 93  1  0  0  0
  6 94  1  0  0  0
  7  8  2  0  0  0
  7 26  1  0  0  0
  7 29  1  0  0  0
  8  9  1  0  0  0
  8 22  1  0  0  0
  9 10  1  0  0  0
  9 27  2  0  0  0
 10 11  2  0  0  0
 10 15  1  0  0  0
 11 12  1  0  0  0
 11 95  1  0  0  0
 12 13  2  0  0  0
 12 96  1  0  0  0
 13 14  1  0  0  0
 13 31  1  0  0  0
 14 15  2  0  0  0
 14 97  1  0  0  0
 15 98  1  0  0  0
 16 17  2  0  0  0
 16 21  1  0  0  0
 16 31  1  0  0  0
 17 18  1  0  0  0
 17 99  1  0  0  0
 18 19  2  0  0  0
 18100  1  0  0  0
 19 20  1  0  0  0
 19 24  1  0  0  0
 20 21  2  0  0  0
 20101  1  0  0  0
 21 23  1  0  0  0
 22 28  1  0  0  0
 22 32  2  0  0  0
 26 27  1  0  0  0
 28102  1  0  0  0
 28103  1  0  0  0
 29104  1  0  0  0
 29105  1  0  0  0
 33 34  1  0  0  0
 33 66  1  0  0  0
 33 70  2  0  0  0
 34 36  1  0  0  0
 34 59  1  0  0  0
 34106  1  0  0  0
 35 44  2  0  0  0
 35 45  1  0  0  0
 35 68  1  0  0  0
 36 56  1  0  0  0
 36107  1  0  0  0
 37 39  1  0  0  0
 37 47  1  0  0  0
 37 66  1  0  0  0
 37108  1  0  0  0
 38 43  2  0  0  0
 38 46  1  0  0  0
 38 47  1  0  0  0
 39 64  1  0  0  0
 39 67  2  0  0  0
 40 52  1  0  0  0
 40 53  2  0  0  0
 40 58  1  0  0  0
 41109  1  0  0  0
 41110  1  0  0  0
 41111  1  0  0  0
 41 48  1  0  0  0
 42 43  1  0  0  0
 42 66  1  0  0  0
 42112  1  0  0  0
 42113  1  0  0  0
 43 44  1  0  0  0
 44114  1  0  0  0
 45 46  2  0  0  0
 45115  1  0  0  0
 46116  1  0  0  0
 47117  1  0  0  0
 47118  1  0  0  0
 48 56  1  0  0  0
 48 65  1  0  0  0
 48119  1  0  0  0
 49 50  1  0  0  0
 49 53  1  0  0  0
 49 64  1  0  0  0
 49120  1  0  0  0
 50 51  1  0  0  0
 50121  1  0  0  0
 50122  1  0  0  0
 51 52  1  0  0  0
 51123  1  0  0  0
 51124  1  0  0  0
 52125  1  0  0  0
 52126  1  0  0  0
 53 54  1  0  0  0
 54 55  2  0  0  0
 54127  1  0  0  0
 55 57  1  0  0  0
 55128  1  0  0  0
 56 69  2  0  0  0
 57 58  2  0  0  0
 57129  1  0  0  0
 58130  1  0  0  0
 59 60  1  0  0  0
 59 61  1  0  0  0
 59 62  1  0  0  0
 60131  1  0  0  0
 60132  1  0  0  0
 60133  1  0  0  0
 61134  1  0  0  0
 61135  1  0  0  0
 61136  1  0  0  0
 62137  1  0  0  0
 62138  1  0  0  0
 62139  1  0  0  0
 63 65  1  0  0  0
 63140  1  0  0  0
 63141  1  0  0  0
 63142  1  0  0  0
 64143  1  0  0  0
 65144  1  0  0  0
 68 81  1  0  0  0
 71 72  2  0  0  0
 71 74  1  0  0  0
 71145  1  0  0  0
 72 76  1  0  0  0
 72146  1  0  0  0
 73 74  2  0  0  0
 73 75  1  0  0  0
 73147  1  0  0  0
 74 79  1  0  0  0
 75 76  2  0  0  0
 75 83  1  0  0  0
 76 85  1  0  0  0
 77148  1  0  0  0
 77149  1  0  0  0
 77150  1  0  0  0
 77 83  1  0  0  0
 78 83  1  0  0  0
 78151  1  0  0  0
 78152  1  0  0  0
 78153  1  0  0  0
 79 80  1  0  0  0
 79154  1  0  0  0
 79155  1  0  0  0
 80 84  1  0  0  0
 80156  1  0  0  0
 80157  1  0  0  0
 81 82  1  0  0  0
 81158  1  0  0  0
 81159  1  0  0  0
 82 85  1  0  0  0
 82160  1  0  0  0
 82161  1  0  0  0
 83162  1  0  0  0
 84163  1  0  0  0
M  ISO  4   1 100  68 101  81 101  84 100
M  END
> <chiral flag>
0

> <version>
0

> <s_m_source_file>
/data/baiqing/PycharmProjects/Reinvent-master-3.2/result/LINK_invent/BTK/process_docking_weight1_custom_sum_contain_oxygen_bond_distance_aromatic_linkinvent_7_9_3/rearranged_h_0134.sdf

> <i_m_source_file_index>
34

> <r_mmod_Potential_Energy-OPLS-2005>
-56.7682342529297

> <r_mmod_Stretch_Energy-OPLS-2005>
38.6168098449707

> <r_mmod_Bend_Energy-OPLS-2005>
111.617004394531

> <r_mmod_Torsional_Energy-OPLS-2005>
222.170669555664

> <r_mmod_Improper_Torsional_Energy-OPLS-2005>
3.65223717689514

> <r_mmod_Van_der_Waal_Energy-OPLS-2005>
151.108642578125

> <r_mmod_Electrostatic_Energy-OPLS-2005>
-388.568084716797

> <r_mmod_Solvation_Energy-OPLS-2005>
-207.06413269043

> <b_mmod_Minimization_Converged-OPLS-2005>
0

> <r_mmod_RMS_Derivative-OPLS-2005>
6.381103515625

$$$$
34
                    3D
 Structure written by MMmdl.
171179  0  0  1  0            999 V2000
  -30.6715  -14.4590   20.5539 C   0  0  0  0  0  0
  -30.4232  -12.2881   19.4225 C   0  0  0  0  0  0
  -29.4978  -12.5002   18.2046 C   0  0  0  0  0  0
  -28.0138  -12.3756   18.6097 C   0  0  0  0  0  0
  -27.6611  -13.2023   19.8757 C   0  0  2  0  0  0
  -28.6987  -12.9537   20.9929 C   0  0  0  0  0  0
  -25.2588  -13.8151   20.5679 C   0  0  0  0  0  0
  -24.1837  -13.0428   20.9174 C   0  0  0  0  0  0
  -24.6371  -11.6893   20.8706 C   0  0  0  0  0  0
  -23.9027  -10.4292   21.0381 C   0  0  0  0  0  0
  -24.3591   -9.4222   21.9170 C   0  0  0  0  0  0
  -23.6275   -8.2257   22.0748 C   0  0  0  0  0  0
  -22.4267   -8.0270   21.3538 C   0  0  0  0  0  0
  -21.9886   -9.0233   20.4641 C   0  0  0  0  0  0
  -22.7194  -10.2122   20.3037 C   0  0  0  0  0  0
  -21.6850   -6.0725   22.5277 C   0  0  0  0  0  0
  -21.4013   -6.5629   23.8207 C   0  0  0  0  0  0
  -21.3663   -5.6786   24.9174 C   0  0  0  0  0  0
  -21.6047   -4.3048   24.7230 C   0  0  0  0  0  0
  -21.8818   -3.8135   23.4352 C   0  0  0  0  0  0
  -21.9191   -4.6953   22.3409 C   0  0  0  0  0  0
  -22.7862  -13.5223   21.1843 C   0  0  0  0  0  0
  -22.1654   -4.2135   21.0987 F   0  0  0  0  0  0
  -21.5640   -3.4534   25.7746 F   0  0  0  0  0  0
  -30.0310  -13.2645   20.4489 N   0  0  0  0  0  0
  -26.3007  -12.9306   20.3340 N   0  0  0  0  0  0
  -25.9289  -11.6471   20.5723 N   0  0  0  0  0  0
  -22.0499  -12.8219   22.0402 N   0  0  0  0  0  0
  -25.4339  -15.1878   20.4122 N   0  0  0  0  0  0
  -31.8221  -14.6151   20.1492 O   0  0  0  0  0  0
  -21.6645   -6.8860   21.4232 O   0  0  0  0  0  0
  -22.3546  -14.5523   20.6677 O   0  0  0  0  0  0
  -24.6150  -31.8674   23.2106 C   0  0  0  0  0  0
  -25.9038  -32.4826   23.8405 C   0  0  1  0  0  0
  -27.2390  -27.4371   20.0733 C   0  0  0  0  0  0
  -25.5886  -33.8628   24.2328 N   0  0  0  0  0  0
  -23.4031  -30.4917   21.5509 C   0  0  2  0  0  0
  -24.8474  -28.9567   20.1141 C   0  0  0  0  0  0
  -22.7411  -29.4654   22.4983 C   0  0  0  0  0  0
  -18.0271  -28.1375   22.8488 C   0  0  0  0  0  0
  -24.1479  -36.7325   23.2639 C   0  0  0  0  0  0
  -25.9329  -30.8292   21.3669 C   0  0  0  0  0  0
  -26.0075  -29.4651   20.7102 C   0  0  0  0  0  0
  -27.1998  -28.7083   20.6940 C   0  0  0  0  0  0
  -26.0502  -26.9328   19.4945 C   0  0  0  0  0  0
  -24.8622  -27.6875   19.5110 C   0  0  0  0  0  0
  -23.6117  -29.8256   20.1647 C   0  0  0  0  0  0
  -25.4104  -36.3120   24.0336 C   0  0  1  0  0  0
  -20.5865  -28.3667   23.1312 C   0  0  2  0  0  0
  -20.6759  -26.9396   22.5424 C   0  0  0  0  0  0
  -19.5743  -26.6375   21.5217 C   0  0  0  0  0  0
  -18.1921  -26.7924   22.1618 C   0  0  0  0  0  0
  -19.1520  -28.8836   23.2901 C   0  0  0  0  0  0
  -18.9453  -30.1442   23.8917 C   0  0  0  0  0  0
  -17.6454  -30.6584   24.0565 C   0  0  0  0  0  0
  -25.9026  -34.9483   23.5130 C   0  0  0  0  0  0
  -16.5344  -29.9089   23.6324 C   0  0  0  0  0  0
  -16.7261  -28.6500   23.0352 C   0  0  0  0  0  0
  -26.4455  -31.6626   25.0754 C   0  0  0  0  0  0
  -25.3718  -31.3749   26.1506 C   0  0  0  0  0  0
  -27.0292  -30.3068   24.6155 C   0  0  0  0  0  0
  -27.6023  -32.4353   25.7522 C   0  0  0  0  0  0
  -27.5583  -37.1820   24.8459 C   0  0  0  0  0  0
  -21.4138  -29.3034   22.3721 N   0  0  0  0  0  0
  -26.4297  -37.3805   23.9400 N   0  0  0  0  0  0
  -24.6685  -31.0772   22.1011 N   0  0  0  0  0  0
  -23.4178  -28.8193   23.3026 O   0  0  0  0  0  0
  -28.4253  -26.7288   20.1085 O   0  0  0  0  0  0
  -26.5592  -34.8926   22.4697 O   0  0  0  0  0  0
  -23.5340  -32.1427   23.7495 O   0  0  0  0  0  0
  -28.1283  -18.6757   21.3386 C   0  0  0  0  0  0
  -28.6027  -17.3643   21.5370 C   0  0  0  0  0  0
  -29.7387  -18.9666   19.5641 C   0  0  0  0  0  0
  -28.6831  -19.4886   20.3352 C   0  0  0  0  0  0
  -30.2359  -17.6519   19.7529 C   0  0  0  0  0  0
  -29.6473  -16.8107   20.7586 C   0  0  0  0  0  0
  -33.5406  -18.1860   23.0525 C   0  0  0  0  0  0
  -28.0958  -20.8715   20.0372 C   0  0  0  0  0  0
  -31.3718  -17.2771   18.8118 C   0  0  0  0  0  0
  -32.7816  -18.4140   21.7396 C   0  0  0  0  0  0
  -32.7470  -17.8820   19.1883 C   0  0  0  0  0  0
  -33.3330  -17.5617   20.5819 C   0  0  0  0  0  0
  -29.0795  -22.0594   20.1696 C   0  0  0  0  0  0
  -29.3849  -24.4976   19.6789 C   0  0  0  0  0  0
  -28.7414  -25.7760   19.0834 C   0  0  0  0  0  0
  -29.9199  -15.4373   21.0981 N   0  0  0  0  0  0
  -28.4361  -23.3631   19.8499 N   0  3  0  0  0  0
  -31.4690  -12.3872   19.1281 H   0  0  0  0  0  0
  -30.3201  -11.2742   19.8123 H   0  0  0  0  0  0
  -29.7320  -11.7749   17.4238 H   0  0  0  0  0  0
  -29.6796  -13.4842   17.7692 H   0  0  0  0  0  0
  -27.8123  -11.3194   18.7923 H   0  0  0  0  0  0
  -27.3691  -12.6690   17.7791 H   0  0  0  0  0  0
  -27.7106  -14.2551   19.5947 H   0  0  0  0  0  0
  -28.6716  -11.9088   21.3069 H   0  0  0  0  0  0
  -28.4601  -13.5264   21.8892 H   0  0  0  0  0  0
  -25.2734   -9.5713   22.4745 H   0  0  0  0  0  0
  -23.9984   -7.4656   22.7468 H   0  0  0  0  0  0
  -21.0818   -8.8730   19.8952 H   0  0  0  0  0  0
  -22.3630  -10.9652   19.6144 H   0  0  0  0  0  0
  -21.2003   -7.6137   23.9700 H   0  0  0  0  0  0
  -21.1487   -6.0530   25.9076 H   0  0  0  0  0  0
  -22.0597   -2.7593   23.2864 H   0  0  0  0  0  0
  -22.4079  -11.9868   22.4807 H   0  0  0  0  0  0
  -21.1113  -13.1255   22.2572 H   0  0  0  0  0  0
  -24.6763  -15.8477   20.5480 H   0  0  0  0  0  0
  -26.2945  -15.6317   20.1154 H   0  0  0  0  0  0
  -26.7117  -32.5516   23.1171 H   0  0  0  0  0  0
  -25.0037  -33.9792   25.0473 H   0  0  0  0  0  0
  -22.6933  -31.3096   21.4121 H   0  0  0  0  0  0
  -23.3738  -35.9662   23.3311 H   0  0  0  0  0  0
  -24.3570  -36.8934   22.2051 H   0  0  0  0  0  0
  -23.7231  -37.6532   23.6650 H   0  0  0  0  0  0
  -26.0515  -31.5963   20.6004 H   0  0  0  0  0  0
  -26.8182  -30.8769   21.9889 H   0  0  0  0  0  0
  -28.0967  -29.0982   21.1559 H   0  0  0  0  0  0
  -26.0005  -25.9510   19.0488 H   0  0  0  0  0  0
  -23.9633  -27.2826   19.0657 H   0  0  0  0  0  0
  -23.7239  -30.6009   19.4063 H   0  0  0  0  0  0
  -22.7339  -29.2495   19.8660 H   0  0  0  0  0  0
  -25.1282  -36.1998   25.0833 H   0  0  0  0  0  0
  -20.9955  -28.3236   24.1432 H   0  0  0  0  0  0
  -20.5654  -26.2276   23.3620 H   0  0  0  0  0  0
  -21.6638  -26.7429   22.1228 H   0  0  0  0  0  0
  -19.6905  -25.6284   21.1255 H   0  0  0  0  0  0
  -19.6697  -27.3182   20.6745 H   0  0  0  0  0  0
  -17.4196  -26.6676   21.4014 H   0  0  0  0  0  0
  -18.0308  -26.0064   22.9009 H   0  0  0  0  0  0
  -19.7930  -30.7247   24.2301 H   0  0  0  0  0  0
  -17.5012  -31.6271   24.5158 H   0  0  0  0  0  0
  -15.5348  -30.2999   23.7641 H   0  0  0  0  0  0
  -15.8658  -28.0828   22.7064 H   0  0  0  0  0  0
  -24.5859  -30.7131   25.7848 H   0  0  0  0  0  0
  -24.8952  -32.2917   26.4988 H   0  0  0  0  0  0
  -25.8063  -30.8888   27.0250 H   0  0  0  0  0  0
  -26.2861  -29.6849   24.1151 H   0  0  0  0  0  0
  -27.3986  -29.7293   25.4639 H   0  0  0  0  0  0
  -27.8728  -30.4388   23.9375 H   0  0  0  0  0  0
  -27.2625  -33.3627   26.2145 H   0  0  0  0  0  0
  -28.3813  -32.6958   25.0347 H   0  0  0  0  0  0
  -28.0716  -31.8461   26.5407 H   0  0  0  0  0  0
  -28.2603  -38.0114   24.7507 H   0  0  0  0  0  0
  -28.1074  -36.2647   24.6282 H   0  0  0  0  0  0
  -27.2298  -37.1469   25.8861 H   0  0  0  0  0  0
  -20.9298  -29.8772   21.6959 H   0  0  0  0  0  0
  -26.0186  -38.2888   24.1400 H   0  0  0  0  0  0
  -27.3103  -19.0397   21.9457 H   0  0  0  0  0  0
  -28.1241  -16.7722   22.3056 H   0  0  0  0  0  0
  -30.1668  -19.5816   18.7843 H   0  0  0  0  0  0
  -33.1173  -18.7897   23.8559 H   0  0  0  0  0  0
  -34.5922  -18.4574   22.9526 H   0  0  0  0  0  0
  -33.4919  -17.1425   23.3645 H   0  0  0  0  0  0
  -27.2397  -21.0408   20.6903 H   0  0  0  0  0  0
  -27.6952  -20.8405   19.0220 H   0  0  0  0  0  0
  -31.1113  -17.6871   17.8349 H   0  0  0  0  0  0
  -31.4145  -16.2226   18.5855 H   0  0  0  0  0  0
  -32.8332  -19.4725   21.4809 H   0  0  0  0  0  0
  -31.7296  -18.1938   21.9107 H   0  0  0  0  0  0
  -32.7068  -18.9647   19.0654 H   0  0  0  0  0  0
  -33.4596  -17.5355   18.4386 H   0  0  0  0  0  0
  -33.2317  -16.5035   20.8122 H   0  0  0  0  0  0
  -34.4089  -17.7376   20.5271 H   0  0  0  0  0  0
  -29.9208  -21.9026   19.4940 H   0  0  0  0  0  0
  -29.4899  -22.0991   21.1786 H   0  0  0  0  0  0
  -29.8851  -24.7238   20.6211 H   0  0  0  0  0  0
  -30.1661  -24.1734   18.9895 H   0  0  0  0  0  0
  -27.9391  -25.5297   18.3914 H   0  0  0  0  0  0
  -29.4913  -26.2681   18.4625 H   0  0  0  0  0  0
  -29.1799  -15.0309   21.6485 H   0  0  0  0  0  0
  -27.7689  -23.5867   20.5735 H   0  0  0  0  0  0
  -27.9225  -23.2487   18.9898 H   0  0  0  0  0  0
  1 25  1  0  0  0
  1 30  2  0  0  0
  1 86  1  0  0  0
  2  3  1  0  0  0
  2 25  1  0  0  0
  2 88  1  0  0  0
  2 89  1  0  0  0
  3  4  1  0  0  0
  3 90  1  0  0  0
  3 91  1  0  0  0
  4  5  1  0  0  0
  4 92  1  0  0  0
  4 93  1  0  0  0
  5  6  1  0  0  0
  5 26  1  0  0  0
  5 94  1  0  0  0
  6 25  1  0  0  0
  6 95  1  0  0  0
  6 96  1  0  0  0
  7  8  2  0  0  0
  7 26  1  0  0  0
  7 29  1  0  0  0
  8  9  1  0  0  0
  8 22  1  0  0  0
  9 10  1  0  0  0
  9 27  2  0  0  0
 10 11  2  0  0  0
 10 15  1  0  0  0
 11 12  1  0  0  0
 11 97  1  0  0  0
 12 13  2  0  0  0
 12 98  1  0  0  0
 13 14  1  0  0  0
 13 31  1  0  0  0
 14 15  2  0  0  0
 14 99  1  0  0  0
 15100  1  0  0  0
 16 17  2  0  0  0
 16 21  1  0  0  0
 16 31  1  0  0  0
 17 18  1  0  0  0
 17101  1  0  0  0
 18 19  2  0  0  0
 18102  1  0  0  0
 19 20  1  0  0  0
 19 24  1  0  0  0
 20 21  2  0  0  0
 20103  1  0  0  0
 21 23  1  0  0  0
 22 28  1  0  0  0
 22 32  2  0  0  0
 26 27  1  0  0  0
 28104  1  0  0  0
 28105  1  0  0  0
 29106  1  0  0  0
 29107  1  0  0  0
 33 34  1  0  0  0
 33 66  1  0  0  0
 33 70  2  0  0  0
 34 36  1  0  0  0
 34 59  1  0  0  0
 34108  1  0  0  0
 35 44  2  0  0  0
 35 45  1  0  0  0
 35 68  1  0  0  0
 36 56  1  0  0  0
 36109  1  0  0  0
 37 39  1  0  0  0
 37 47  1  0  0  0
 37 66  1  0  0  0
 37110  1  0  0  0
 38 43  2  0  0  0
 38 46  1  0  0  0
 38 47  1  0  0  0
 39 64  1  0  0  0
 39 67  2  0  0  0
 40 52  1  0  0  0
 40 53  2  0  0  0
 40 58  1  0  0  0
 41111  1  0  0  0
 41112  1  0  0  0
 41113  1  0  0  0
 41 48  1  0  0  0
 42 43  1  0  0  0
 42 66  1  0  0  0
 42114  1  0  0  0
 42115  1  0  0  0
 43 44  1  0  0  0
 44116  1  0  0  0
 45 46  2  0  0  0
 45117  1  0  0  0
 46118  1  0  0  0
 47119  1  0  0  0
 47120  1  0  0  0
 48 56  1  0  0  0
 48 65  1  0  0  0
 48121  1  0  0  0
 49 50  1  0  0  0
 49 53  1  0  0  0
 49 64  1  0  0  0
 49122  1  0  0  0
 50 51  1  0  0  0
 50123  1  0  0  0
 50124  1  0  0  0
 51 52  1  0  0  0
 51125  1  0  0  0
 51126  1  0  0  0
 52127  1  0  0  0
 52128  1  0  0  0
 53 54  1  0  0  0
 54 55  2  0  0  0
 54129  1  0  0  0
 55 57  1  0  0  0
 55130  1  0  0  0
 56 69  2  0  0  0
 57 58  2  0  0  0
 57131  1  0  0  0
 58132  1  0  0  0
 59 60  1  0  0  0
 59 61  1  0  0  0
 59 62  1  0  0  0
 60133  1  0  0  0
 60134  1  0  0  0
 60135  1  0  0  0
 61136  1  0  0  0
 61137  1  0  0  0
 61138  1  0  0  0
 62139  1  0  0  0
 62140  1  0  0  0
 62141  1  0  0  0
 63 65  1  0  0  0
 63142  1  0  0  0
 63143  1  0  0  0
 63144  1  0  0  0
 64145  1  0  0  0
 65146  1  0  0  0
 68 85  1  0  0  0
 71 72  2  0  0  0
 71 74  1  0  0  0
 71147  1  0  0  0
 72 76  1  0  0  0
 72148  1  0  0  0
 73 74  2  0  0  0
 73 75  1  0  0  0
 73149  1  0  0  0
 74 78  1  0  0  0
 75 76  2  0  0  0
 75 79  1  0  0  0
 76 86  1  0  0  0
 77 80  1  0  0  0
 77150  1  0  0  0
 77151  1  0  0  0
 77152  1  0  0  0
 78 83  1  0  0  0
 78153  1  0  0  0
 78154  1  0  0  0
 79 81  1  0  0  0
 79155  1  0  0  0
 79156  1  0  0  0
 80 82  1  0  0  0
 80157  1  0  0  0
 80158  1  0  0  0
 81 82  1  0  0  0
 81159  1  0  0  0
 81160  1  0  0  0
 82161  1  0  0  0
 82162  1  0  0  0
 83 87  1  0  0  0
 83163  1  0  0  0
 83164  1  0  0  0
 84 85  1  0  0  0
 84 87  1  0  0  0
 84165  1  0  0  0
 84166  1  0  0  0
 85167  1  0  0  0
 85168  1  0  0  0
 86169  1  0  0  0
 87170  1  0  0  0
 87171  1  0  0  0
M  CHG  1  87   1
M  ISO  4   1 100  68 101  85 101  86 100
M  END
> <chiral flag>
0

> <version>
0

> <s_m_source_file>
/data/baiqing/PycharmProjects/Reinvent-master-3.2/result/LINK_invent/BTK/process_docking_weight1_custom_sum_contain_oxygen_bond_distance_aromatic_linkinvent_7_9_3/rearranged_h_0134.sdf

> <i_m_source_file_index>
35

> <r_mmod_Potential_Energy-OPLS-2005>
-114.475456237793

> <r_mmod_Stretch_Energy-OPLS-2005>
40.7747917175293

> <r_mmod_Bend_Energy-OPLS-2005>
150.581207275391

> <r_mmod_Torsional_Energy-OPLS-2005>
240.180236816406

> <r_mmod_Improper_Torsional_Energy-OPLS-2005>
3.79697751998901

> <r_mmod_Van_der_Waal_Energy-OPLS-2005>
147.89714050293

> <r_mmod_Electrostatic_Energy-OPLS-2005>
-264.471984863281

> <r_mmod_Solvation_Energy-OPLS-2005>
-447.012054443359

> <b_mmod_Minimization_Converged-OPLS-2005>
0

> <r_mmod_RMS_Derivative-OPLS-2005>
1.76830852031708

$$$$
35
                    3D
 Structure written by MMmdl.
165174  0  0  1  0            999 V2000
  -30.7289  -14.4376   20.5969 C   0  0  0  0  0  0
  -30.4177  -12.2945   19.4205 C   0  0  0  0  0  0
  -29.4938  -12.5136   18.2057 C   0  0  0  0  0  0
  -28.0157  -12.3722   18.6172 C   0  0  0  0  0  0
  -27.6643  -13.2081   19.8773 C   0  0  2  0  0  0
  -28.7039  -12.9836   20.9992 C   0  0  0  0  0  0
  -25.2598  -13.8170   20.5678 C   0  0  0  0  0  0
  -24.1842  -13.0442   20.9161 C   0  0  0  0  0  0
  -24.6397  -11.6905   20.8713 C   0  0  0  0  0  0
  -23.9063  -10.4289   21.0385 C   0  0  0  0  0  0
  -24.3619   -9.4213   21.9172 C   0  0  0  0  0  0
  -23.6294   -8.2247   22.0752 C   0  0  0  0  0  0
  -22.4273   -8.0282   21.3543 C   0  0  0  0  0  0
  -21.9905   -9.0252   20.4647 C   0  0  0  0  0  0
  -22.7234  -10.2129   20.3043 C   0  0  0  0  0  0
  -21.6855   -6.0729   22.5277 C   0  0  0  0  0  0
  -21.4007   -6.5637   23.8209 C   0  0  0  0  0  0
  -21.3658   -5.6789   24.9170 C   0  0  0  0  0  0
  -21.6043   -4.3053   24.7223 C   0  0  0  0  0  0
  -21.8823   -3.8142   23.4345 C   0  0  0  0  0  0
  -21.9201   -4.6959   22.3401 C   0  0  0  0  0  0
  -22.7870  -13.5244   21.1835 C   0  0  0  0  0  0
  -22.1667   -4.2140   21.0982 F   0  0  0  0  0  0
  -21.5636   -3.4536   25.7735 F   0  0  0  0  0  0
  -30.0387  -13.2749   20.4501 N   0  0  0  0  0  0
  -26.3040  -12.9344   20.3367 N   0  0  0  0  0  0
  -25.9331  -11.6499   20.5756 N   0  0  0  0  0  0
  -22.0503  -12.8224   22.0387 N   0  0  0  0  0  0
  -25.4351  -15.1883   20.4094 N   0  0  0  0  0  0
  -31.8365  -14.6248   20.0848 O   0  0  0  0  0  0
  -21.6648   -6.8870   21.4238 O   0  0  0  0  0  0
  -22.3553  -14.5551   20.6699 O   0  0  0  0  0  0
  -24.6118  -31.8703   23.2118 C   0  0  0  0  0  0
  -25.9027  -32.4830   23.8404 C   0  0  1  0  0  0
  -27.2391  -27.4555   20.1031 C   0  0  0  0  0  0
  -25.5904  -33.8628   24.2343 N   0  0  0  0  0  0
  -23.3993  -30.4928   21.5506 C   0  0  2  0  0  0
  -24.8507  -28.9587   20.1177 C   0  0  0  0  0  0
  -22.7395  -29.4671   22.4994 C   0  0  0  0  0  0
  -18.0266  -28.1375   22.8487 C   0  0  0  0  0  0
  -24.1472  -36.7304   23.2628 C   0  0  0  0  0  0
  -25.9254  -30.8391   21.3657 C   0  0  0  0  0  0
  -26.0055  -29.4718   20.7228 C   0  0  0  0  0  0
  -27.2028  -28.7228   20.7267 C   0  0  0  0  0  0
  -26.0776  -26.9573   19.4817 C   0  0  0  0  0  0
  -24.8791  -27.6969   19.4968 C   0  0  0  0  0  0
  -23.6093  -29.8212   20.1662 C   0  0  0  0  0  0
  -25.4085  -36.3113   24.0351 C   0  0  1  0  0  0
  -20.5858  -28.3659   23.1326 C   0  0  2  0  0  0
  -20.6760  -26.9394   22.5432 C   0  0  0  0  0  0
  -19.5754  -26.6378   21.5213 C   0  0  0  0  0  0
  -18.1916  -26.7933   22.1590 C   0  0  0  0  0  0
  -19.1517  -28.8829   23.2908 C   0  0  0  0  0  0
  -18.9450  -30.1437   23.8914 C   0  0  0  0  0  0
  -17.6454  -30.6584   24.0560 C   0  0  0  0  0  0
  -25.9035  -34.9486   23.5142 C   0  0  0  0  0  0
  -16.5341  -29.9083   23.6328 C   0  0  0  0  0  0
  -16.7256  -28.6502   23.0346 C   0  0  0  0  0  0
  -26.4465  -31.6595   25.0720 C   0  0  0  0  0  0
  -25.3749  -31.3721   26.1489 C   0  0  0  0  0  0
  -27.0268  -30.3027   24.6082 C   0  0  0  0  0  0
  -27.6069  -32.4291   25.7466 C   0  0  0  0  0  0
  -27.5606  -37.1755   24.8417 C   0  0  0  0  0  0
  -21.4126  -29.3029   22.3730 N   0  0  0  0  0  0
  -26.4245  -37.3830   23.9474 N   0  0  0  0  0  0
  -24.6630  -31.0816   22.1014 N   0  0  0  0  0  0
  -23.4178  -28.8228   23.3038 O   0  0  0  0  0  0
  -28.3710  -26.6793   20.0614 O   0  0  0  0  0  0
  -26.5590  -34.8942   22.4698 O   0  0  0  0  0  0
  -23.5321  -32.1452   23.7528 O   0  0  0  0  0  0
  -28.8640  -23.8979   21.9494 C   0  0  0  0  0  0
  -29.4093  -22.5962   21.9371 C   0  0  0  0  0  0
  -30.7924  -24.7210   20.7199 C   0  0  0  0  0  0
  -29.5483  -24.9681   21.3338 C   0  0  0  0  0  0
  -31.3475  -23.4211   20.7090 C   0  0  0  0  0  0
  -30.6492  -22.3421   21.3084 C   0  0  0  0  0  0
  -30.6156  -19.0246   22.5474 C   0  0  0  0  0  0
  -30.8562  -18.9977   20.0130 C   0  0  0  0  0  0
  -29.9941  -17.6103   22.4820 C   0  0  0  0  0  0
  -30.2148  -17.5989   19.9900 C   0  0  0  0  0  0
  -30.4318  -19.8329   21.2403 C   0  0  2  0  0  0
  -30.5570  -16.8279   21.2799 C   0  0  2  0  0  0
  -32.6961  -23.2032   20.0394 C   0  0  0  0  0  0
  -28.9530  -26.3716   21.3265 C   0  0  0  0  0  0
  -31.2266  -21.0607   21.2800 N   0  0  0  0  0  0
  -30.0836  -15.4370   21.2248 N   0  0  0  0  0  0
  -31.4642  -12.3797   19.1210 H   0  0  0  0  0  0
  -30.3051  -11.2816   19.8096 H   0  0  0  0  0  0
  -29.7331  -11.8005   17.4157 H   0  0  0  0  0  0
  -29.6651  -13.5067   17.7853 H   0  0  0  0  0  0
  -27.8243  -11.3154   18.8076 H   0  0  0  0  0  0
  -27.3652  -12.6517   17.7878 H   0  0  0  0  0  0
  -27.7113  -14.2574   19.5849 H   0  0  0  0  0  0
  -28.6719  -11.9488   21.3421 H   0  0  0  0  0  0
  -28.4671  -13.5860   21.8768 H   0  0  0  0  0  0
  -25.2769   -9.5695   22.4735 H   0  0  0  0  0  0
  -24.0005   -7.4642   22.7470 H   0  0  0  0  0  0
  -21.0833   -8.8765   19.8955 H   0  0  0  0  0  0
  -22.3695  -10.9659   19.6139 H   0  0  0  0  0  0
  -21.1979   -7.6145   23.9702 H   0  0  0  0  0  0
  -21.1479   -6.0522   25.9070 H   0  0  0  0  0  0
  -22.0603   -2.7601   23.2846 H   0  0  0  0  0  0
  -22.4110  -11.9870   22.4749 H   0  0  0  0  0  0
  -21.1123  -13.1248   22.2589 H   0  0  0  0  0  0
  -24.6729  -15.8490   20.5135 H   0  0  0  0  0  0
  -26.2979  -15.6223   20.1053 H   0  0  0  0  0  0
  -26.7101  -32.5552   23.1175 H   0  0  0  0  0  0
  -25.0074  -33.9794   25.0501 H   0  0  0  0  0  0
  -22.6877  -31.3097   21.4102 H   0  0  0  0  0  0
  -23.3788  -35.9571   23.3177 H   0  0  0  0  0  0
  -24.3610  -36.9030   22.2065 H   0  0  0  0  0  0
  -23.7131  -37.6441   23.6699 H   0  0  0  0  0  0
  -26.0347  -31.5998   20.5914 H   0  0  0  0  0  0
  -26.8157  -30.8974   21.9808 H   0  0  0  0  0  0
  -28.0931  -29.1184   21.1962 H   0  0  0  0  0  0
  -26.1012  -25.9911   18.9972 H   0  0  0  0  0  0
  -23.9928  -27.2967   19.0231 H   0  0  0  0  0  0
  -23.7137  -30.5936   19.4038 H   0  0  0  0  0  0
  -22.7362  -29.2359   19.8723 H   0  0  0  0  0  0
  -25.1240  -36.1951   25.0834 H   0  0  0  0  0  0
  -20.9949  -28.3223   24.1448 H   0  0  0  0  0  0
  -20.5640  -26.2269   23.3625 H   0  0  0  0  0  0
  -21.6636  -26.7434   22.1236 H   0  0  0  0  0  0
  -19.6916  -25.6292   21.1233 H   0  0  0  0  0  0
  -19.6722  -27.3195   20.6752 H   0  0  0  0  0  0
  -17.4221  -26.6735   21.3951 H   0  0  0  0  0  0
  -18.0265  -26.0044   22.8937 H   0  0  0  0  0  0
  -19.7931  -30.7236   24.2289 H   0  0  0  0  0  0
  -17.5019  -31.6270   24.5152 H   0  0  0  0  0  0
  -15.5343  -30.2998   23.7655 H   0  0  0  0  0  0
  -15.8654  -28.0828   22.7054 H   0  0  0  0  0  0
  -24.5931  -30.7038   25.7858 H   0  0  0  0  0  0
  -24.8922  -32.2879   26.4917 H   0  0  0  0  0  0
  -25.8122  -30.8931   27.0259 H   0  0  0  0  0  0
  -26.2790  -29.6800   24.1151 H   0  0  0  0  0  0
  -27.4046  -29.7251   25.4528 H   0  0  0  0  0  0
  -27.8633  -30.4327   23.9213 H   0  0  0  0  0  0
  -27.2717  -33.3597   26.2061 H   0  0  0  0  0  0
  -28.3875  -32.6833   25.0282 H   0  0  0  0  0  0
  -28.0737  -31.8390   26.5362 H   0  0  0  0  0  0
  -28.2480  -38.0194   24.7715 H   0  0  0  0  0  0
  -28.1247  -36.2764   24.5892 H   0  0  0  0  0  0
  -27.2395  -37.0971   25.8818 H   0  0  0  0  0  0
  -20.9280  -29.8740   21.6947 H   0  0  0  0  0  0
  -26.0127  -38.2869   24.1643 H   0  0  0  0  0  0
  -27.9143  -24.0705   22.4360 H   0  0  0  0  0  0
  -28.8684  -21.8020   22.4308 H   0  0  0  0  0  0
  -31.3202  -25.5411   20.2534 H   0  0  0  0  0  0
  -31.6799  -18.9230   22.7663 H   0  0  0  0  0  0
  -30.1848  -19.5730   23.3869 H   0  0  0  0  0  0
  -30.5992  -19.5278   19.0943 H   0  0  0  0  0  0
  -31.9409  -18.8778   20.0027 H   0  0  0  0  0  0
  -28.9083  -17.6877   22.4106 H   0  0  0  0  0  0
  -30.2076  -17.0782   23.4102 H   0  0  0  0  0  0
  -30.5760  -17.0577   19.1146 H   0  0  0  0  0  0
  -29.1333  -17.6846   19.8741 H   0  0  0  0  0  0
  -29.3733  -20.0691   21.1230 H   0  0  0  0  0  0
  -31.6438  -16.8039   21.3899 H   0  0  0  0  0  0
  -33.1255  -24.1404   19.6843 H   0  0  0  0  0  0
  -32.5941  -22.5359   19.1829 H   0  0  0  0  0  0
  -33.4051  -22.7619   20.7405 H   0  0  0  0  0  0
  -29.7370  -27.0978   21.5461 H   0  0  0  0  0  0
  -28.2203  -26.4485   22.1331 H   0  0  0  0  0  0
  -32.1193  -21.0076   20.8001 H   0  0  0  0  0  0
  -29.1719  -15.2291   21.6043 H   0  0  0  0  0  0
  1 25  1  0  0  0
  1 30  2  0  0  0
  1 86  1  0  0  0
  2  3  1  0  0  0
  2 25  1  0  0  0
  2 87  1  0  0  0
  2 88  1  0  0  0
  3  4  1  0  0  0
  3 89  1  0  0  0
  3 90  1  0  0  0
  4  5  1  0  0  0
  4 91  1  0  0  0
  4 92  1  0  0  0
  5  6  1  0  0  0
  5 26  1  0  0  0
  5 93  1  0  0  0
  6 25  1  0  0  0
  6 94  1  0  0  0
  6 95  1  0  0  0
  7  8  2  0  0  0
  7 26  1  0  0  0
  7 29  1  0  0  0
  8  9  1  0  0  0
  8 22  1  0  0  0
  9 10  1  0  0  0
  9 27  2  0  0  0
 10 11  2  0  0  0
 10 15  1  0  0  0
 11 12  1  0  0  0
 11 96  1  0  0  0
 12 13  2  0  0  0
 12 97  1  0  0  0
 13 14  1  0  0  0
 13 31  1  0  0  0
 14 15  2  0  0  0
 14 98  1  0  0  0
 15 99  1  0  0  0
 16 17  2  0  0  0
 16 21  1  0  0  0
 16 31  1  0  0  0
 17 18  1  0  0  0
 17100  1  0  0  0
 18 19  2  0  0  0
 18101  1  0  0  0
 19 20  1  0  0  0
 19 24  1  0  0  0
 20 21  2  0  0  0
 20102  1  0  0  0
 21 23  1  0  0  0
 22 28  1  0  0  0
 22 32  2  0  0  0
 26 27  1  0  0  0
 28103  1  0  0  0
 28104  1  0  0  0
 29105  1  0  0  0
 29106  1  0  0  0
 33 34  1  0  0  0
 33 66  1  0  0  0
 33 70  2  0  0  0
 34 36  1  0  0  0
 34 59  1  0  0  0
 34107  1  0  0  0
 35 44  2  0  0  0
 35 45  1  0  0  0
 35 68  1  0  0  0
 36 56  1  0  0  0
 36108  1  0  0  0
 37 39  1  0  0  0
 37 47  1  0  0  0
 37 66  1  0  0  0
 37109  1  0  0  0
 38 43  2  0  0  0
 38 46  1  0  0  0
 38 47  1  0  0  0
 39 64  1  0  0  0
 39 67  2  0  0  0
 40 52  1  0  0  0
 40 53  2  0  0  0
 40 58  1  0  0  0
 41110  1  0  0  0
 41111  1  0  0  0
 41112  1  0  0  0
 41 48  1  0  0  0
 42 43  1  0  0  0
 42 66  1  0  0  0
 42113  1  0  0  0
 42114  1  0  0  0
 43 44  1  0  0  0
 44115  1  0  0  0
 45 46  2  0  0  0
 45116  1  0  0  0
 46117  1  0  0  0
 47118  1  0  0  0
 47119  1  0  0  0
 48 56  1  0  0  0
 48 65  1  0  0  0
 48120  1  0  0  0
 49 50  1  0  0  0
 49 53  1  0  0  0
 49 64  1  0  0  0
 49121  1  0  0  0
 50 51  1  0  0  0
 50122  1  0  0  0
 50123  1  0  0  0
 51 52  1  0  0  0
 51124  1  0  0  0
 51125  1  0  0  0
 52126  1  0  0  0
 52127  1  0  0  0
 53 54  1  0  0  0
 54 55  2  0  0  0
 54128  1  0  0  0
 55 57  1  0  0  0
 55129  1  0  0  0
 56 69  2  0  0  0
 57 58  2  0  0  0
 57130  1  0  0  0
 58131  1  0  0  0
 59 60  1  0  0  0
 59 61  1  0  0  0
 59 62  1  0  0  0
 60132  1  0  0  0
 60133  1  0  0  0
 60134  1  0  0  0
 61135  1  0  0  0
 61136  1  0  0  0
 61137  1  0  0  0
 62138  1  0  0  0
 62139  1  0  0  0
 62140  1  0  0  0
 63 65  1  0  0  0
 63141  1  0  0  0
 63142  1  0  0  0
 63143  1  0  0  0
 64144  1  0  0  0
 65145  1  0  0  0
 68 84  1  0  0  0
 71 72  2  0  0  0
 71 74  1  0  0  0
 71146  1  0  0  0
 72 76  1  0  0  0
 72147  1  0  0  0
 73 74  2  0  0  0
 73 75  1  0  0  0
 73148  1  0  0  0
 74 84  1  0  0  0
 75 76  2  0  0  0
 75 83  1  0  0  0
 76 85  1  0  0  0
 77 79  1  0  0  0
 77 81  1  0  0  0
 77149  1  0  0  0
 77150  1  0  0  0
 78 80  1  0  0  0
 78 81  1  0  0  0
 78151  1  0  0  0
 78152  1  0  0  0
 79 82  1  0  0  0
 79153  1  0  0  0
 79154  1  0  0  0
 80 82  1  0  0  0
 80155  1  0  0  0
 80156  1  0  0  0
 81 85  1  0  0  0
 81157  1  0  0  0
 82 86  1  0  0  0
 82158  1  0  0  0
 83159  1  0  0  0
 83160  1  0  0  0
 83161  1  0  0  0
 84162  1  0  0  0
 84163  1  0  0  0
 85164  1  0  0  0
 86165  1  0  0  0
M  ISO  4   1 100  68 101  84 101  86 100
M  END
> <chiral flag>
0

> <version>
0

> <s_m_source_file>
/data/baiqing/PycharmProjects/Reinvent-master-3.2/result/LINK_invent/BTK/process_docking_weight1_custom_sum_contain_oxygen_bond_distance_aromatic_linkinvent_7_9_3/rearranged_h_0134.sdf

> <i_m_source_file_index>
36

> <r_mmod_Potential_Energy-OPLS-2005>
-113.241790771484

> <r_mmod_Stretch_Energy-OPLS-2005>
34.6752777099609

> <r_mmod_Bend_Energy-OPLS-2005>
100.392776489258

> <r_mmod_Torsional_Energy-OPLS-2005>
237.134246826172

> <r_mmod_Improper_Torsional_Energy-OPLS-2005>
5.27331781387329

> <r_mmod_Van_der_Waal_Energy-OPLS-2005>
154.399215698242

> <r_mmod_Electrostatic_Energy-OPLS-2005>
-448.999938964844

> <r_mmod_Solvation_Energy-OPLS-2005>
-205.785736083984

> <b_mmod_Minimization_Converged-OPLS-2005>
0

> <r_mmod_RMS_Derivative-OPLS-2005>
1.45393180847168

$$$$
36
                    3D
 Structure written by MMmdl.
165174  0  0  1  0            999 V2000
  -30.7407  -14.3871   20.5758 C   0  0  0  0  0  0
  -30.4017  -12.2581   19.4127 C   0  0  0  0  0  0
  -29.4849  -12.5019   18.1973 C   0  0  0  0  0  0
  -28.0043  -12.3787   18.6069 C   0  0  0  0  0  0
  -27.6602  -13.2073   19.8753 C   0  0  2  0  0  0
  -28.6988  -12.9730   20.9959 C   0  0  0  0  0  0
  -25.2580  -13.8166   20.5687 C   0  0  0  0  0  0
  -24.1832  -13.0442   20.9184 C   0  0  0  0  0  0
  -24.6384  -11.6908   20.8726 C   0  0  0  0  0  0
  -23.9047  -10.4299   21.0401 C   0  0  0  0  0  0
  -24.3613   -9.4221   21.9173 C   0  0  0  0  0  0
  -23.6302   -8.2250   22.0743 C   0  0  0  0  0  0
  -22.4281   -8.0286   21.3544 C   0  0  0  0  0  0
  -21.9908   -9.0250   20.4637 C   0  0  0  0  0  0
  -22.7225  -10.2136   20.3048 C   0  0  0  0  0  0
  -21.6848   -6.0742   22.5282 C   0  0  0  0  0  0
  -21.4009   -6.5643   23.8215 C   0  0  0  0  0  0
  -21.3663   -5.6795   24.9180 C   0  0  0  0  0  0
  -21.6046   -4.3055   24.7223 C   0  0  0  0  0  0
  -21.8817   -3.8150   23.4344 C   0  0  0  0  0  0
  -21.9198   -4.6969   22.3402 C   0  0  0  0  0  0
  -22.7856  -13.5244   21.1847 C   0  0  0  0  0  0
  -22.1664   -4.2157   21.0981 F   0  0  0  0  0  0
  -21.5633   -3.4536   25.7733 F   0  0  0  0  0  0
  -30.0343  -13.2395   20.4415 N   0  0  0  0  0  0
  -26.3015  -12.9337   20.3376 N   0  0  0  0  0  0
  -25.9309  -11.6491   20.5755 N   0  0  0  0  0  0
  -22.0505  -12.8234   22.0410 N   0  0  0  0  0  0
  -25.4320  -15.1887   20.4094 N   0  0  0  0  0  0
  -31.8820  -14.5282   20.1290 O   0  0  0  0  0  0
  -21.6643   -6.8883   21.4244 O   0  0  0  0  0  0
  -22.3551  -14.5572   20.6728 O   0  0  0  0  0  0
  -24.6103  -31.8702   23.2140 C   0  0  0  0  0  0
  -25.9009  -32.4834   23.8413 C   0  0  1  0  0  0
  -27.2343  -27.4668   20.0950 C   0  0  0  0  0  0
  -25.5869  -33.8637   24.2335 N   0  0  0  0  0  0
  -23.3949  -30.4948   21.5519 C   0  0  2  0  0  0
  -24.8395  -28.9530   20.1264 C   0  0  0  0  0  0
  -22.7377  -29.4678   22.5009 C   0  0  0  0  0  0
  -18.0262  -28.1378   22.8507 C   0  0  0  0  0  0
  -24.1491  -36.7323   23.2643 C   0  0  0  0  0  0
  -25.9207  -30.8415   21.3648 C   0  0  0  0  0  0
  -25.9937  -29.4739   20.7234 C   0  0  0  0  0  0
  -27.1924  -28.7339   20.7114 C   0  0  0  0  0  0
  -26.0665  -26.9445   19.5000 C   0  0  0  0  0  0
  -24.8660  -27.6834   19.5204 C   0  0  0  0  0  0
  -23.6021  -29.8210   20.1677 C   0  0  0  0  0  0
  -25.4109  -36.3122   24.0348 C   0  0  1  0  0  0
  -20.5853  -28.3649   23.1341 C   0  0  2  0  0  0
  -20.6766  -26.9386   22.5432 C   0  0  0  0  0  0
  -19.5746  -26.6388   21.5225 C   0  0  0  0  0  0
  -18.1912  -26.7931   22.1619 C   0  0  0  0  0  0
  -19.1516  -28.8822   23.2930 C   0  0  0  0  0  0
  -18.9449  -30.1435   23.8929 C   0  0  0  0  0  0
  -17.6453  -30.6590   24.0573 C   0  0  0  0  0  0
  -25.9023  -34.9485   23.5139 C   0  0  0  0  0  0
  -16.5340  -29.9097   23.6332 C   0  0  0  0  0  0
  -16.7247  -28.6512   23.0347 C   0  0  0  0  0  0
  -26.4435  -31.6620   25.0741 C   0  0  0  0  0  0
  -25.3704  -31.3761   26.1506 C   0  0  0  0  0  0
  -27.0233  -30.3058   24.6099 C   0  0  0  0  0  0
  -27.6038  -32.4319   25.7467 C   0  0  0  0  0  0
  -27.5594  -37.1806   24.8450 C   0  0  0  0  0  0
  -21.4109  -29.3028   22.3756 N   0  0  0  0  0  0
  -26.4293  -37.3811   23.9422 N   0  0  0  0  0  0
  -24.6596  -31.0838   22.1012 N   0  0  0  0  0  0
  -23.4174  -28.8222   23.3033 O   0  0  0  0  0  0
  -28.4468  -26.8348   19.9907 O   0  0  0  0  0  0
  -26.5605  -34.8931   22.4710 O   0  0  0  0  0  0
  -23.5309  -32.1418   23.7575 O   0  0  0  0  0  0
  -29.0635  -25.0914   21.5222 C   0  0  0  0  0  0
  -29.5445  -23.7782   21.6692 C   0  0  0  0  0  0
  -29.5158  -22.9169   20.5423 C   0  0  0  0  0  0
  -28.9395  -23.4084   19.3426 C   0  0  0  0  0  0
  -28.5926  -25.5052   20.2681 C   0  0  0  0  0  0
  -30.8792  -17.2496   19.5216 C   0  0  0  0  0  0
  -30.4664  -18.7134   19.4215 C   0  0  0  0  0  0
  -29.6732  -17.8967   21.5449 C   0  0  0  0  0  0
  -30.5963  -16.8039   20.9784 C   0  0  1  0  0  0
  -30.2512  -19.1535   20.8744 C   0  0  2  0  0  0
  -30.1703  -23.3725   22.9921 C   0  0  0  0  0  0
  -28.8428  -22.5738   18.0760 C   0  0  0  0  0  0
  -30.2517  -21.5748   20.5601 C   0  0  0  0  0  0
  -28.5035  -24.6776   19.2082 N   0  0  0  0  0  0
  -30.0612  -15.4425   21.0505 N   0  0  0  0  0  0
  -29.4578  -20.3992   20.9915 N   0  3  0  0  0  0
  -31.4502  -12.3220   19.1168 H   0  0  0  0  0  0
  -30.2631  -11.2467   19.7978 H   0  0  0  0  0  0
  -29.7136  -11.7910   17.4020 H   0  0  0  0  0  0
  -29.6709  -13.4951   17.7837 H   0  0  0  0  0  0
  -27.7969  -11.3228   18.7840 H   0  0  0  0  0  0
  -27.3596  -12.6790   17.7800 H   0  0  0  0  0  0
  -27.7108  -14.2584   19.5900 H   0  0  0  0  0  0
  -28.6538  -11.9405   21.3465 H   0  0  0  0  0  0
  -28.4789  -13.5875   21.8697 H   0  0  0  0  0  0
  -25.2758   -9.5702   22.4739 H   0  0  0  0  0  0
  -24.0017   -7.4639   22.7451 H   0  0  0  0  0  0
  -21.0841   -8.8763   19.8938 H   0  0  0  0  0  0
  -22.3681  -10.9673   19.6154 H   0  0  0  0  0  0
  -21.1987   -7.6148   23.9724 H   0  0  0  0  0  0
  -21.1485   -6.0520   25.9085 H   0  0  0  0  0  0
  -22.0591   -2.7609   23.2837 H   0  0  0  0  0  0
  -22.4118  -11.9884   22.4779 H   0  0  0  0  0  0
  -21.1117  -13.1241   22.2608 H   0  0  0  0  0  0
  -24.6631  -15.8433   20.5074 H   0  0  0  0  0  0
  -26.2857  -15.6248   20.0836 H   0  0  0  0  0  0
  -26.7083  -32.5544   23.1188 H   0  0  0  0  0  0
  -25.0006  -33.9801   25.0472 H   0  0  0  0  0  0
  -22.6808  -31.3101   21.4137 H   0  0  0  0  0  0
  -23.3765  -35.9636   23.3270 H   0  0  0  0  0  0
  -24.3592  -36.8962   22.2059 H   0  0  0  0  0  0
  -23.7224  -37.6518   23.6663 H   0  0  0  0  0  0
  -26.0338  -31.6053   20.5941 H   0  0  0  0  0  0
  -26.8104  -30.8959   21.9805 H   0  0  0  0  0  0
  -28.0914  -29.1422   21.1514 H   0  0  0  0  0  0
  -26.0908  -25.9856   19.0004 H   0  0  0  0  0  0
  -23.9766  -27.2777   19.0571 H   0  0  0  0  0  0
  -23.7106  -30.5917   19.4041 H   0  0  0  0  0  0
  -22.7262  -29.2386   19.8745 H   0  0  0  0  0  0
  -25.1294  -36.1985   25.0844 H   0  0  0  0  0  0
  -20.9938  -28.3201   24.1461 H   0  0  0  0  0  0
  -20.5682  -26.2236   23.3608 H   0  0  0  0  0  0
  -21.6634  -26.7448   22.1200 H   0  0  0  0  0  0
  -19.6903  -25.6305   21.1230 H   0  0  0  0  0  0
  -19.6706  -27.3226   20.6785 H   0  0  0  0  0  0
  -17.4197  -26.6699   21.4010 H   0  0  0  0  0  0
  -18.0290  -26.0064   22.9000 H   0  0  0  0  0  0
  -19.7924  -30.7262   24.2290 H   0  0  0  0  0  0
  -17.5009  -31.6270   24.5177 H   0  0  0  0  0  0
  -15.5343  -30.3023   23.7657 H   0  0  0  0  0  0
  -15.8635  -28.0869   22.7036 H   0  0  0  0  0  0
  -24.5809  -30.7191   25.7847 H   0  0  0  0  0  0
  -24.8990  -32.2948   26.5002 H   0  0  0  0  0  0
  -25.8049  -30.8864   27.0232 H   0  0  0  0  0  0
  -26.2761  -29.6858   24.1130 H   0  0  0  0  0  0
  -27.3980  -29.7266   25.4550 H   0  0  0  0  0  0
  -27.8616  -30.4384   23.9258 H   0  0  0  0  0  0
  -27.2681  -33.3625   26.2055 H   0  0  0  0  0  0
  -28.3820  -32.6853   25.0259 H   0  0  0  0  0  0
  -28.0718  -31.8428   26.5360 H   0  0  0  0  0  0
  -28.2582  -38.0131   24.7535 H   0  0  0  0  0  0
  -28.1118  -36.2668   24.6214 H   0  0  0  0  0  0
  -27.2316  -37.1367   25.8850 H   0  0  0  0  0  0
  -20.9239  -29.8740   21.6992 H   0  0  0  0  0  0
  -26.0183  -38.2892   24.1440 H   0  0  0  0  0  0
  -29.1498  -25.8106   22.3264 H   0  0  0  0  0  0
  -31.9360  -17.1264   19.2813 H   0  0  0  0  0  0
  -30.3156  -16.6662   18.7915 H   0  0  0  0  0  0
  -29.5395  -18.7922   18.8515 H   0  0  0  0  0  0
  -31.2245  -19.3016   18.9043 H   0  0  0  0  0  0
  -29.7085  -17.9436   22.6348 H   0  0  0  0  0  0
  -28.6385  -17.7300   21.2419 H   0  0  0  0  0  0
  -31.5337  -16.8323   21.5397 H   0  0  0  0  0  0
  -31.2263  -19.3327   21.3332 H   0  0  0  0  0  0
  -29.8184  -24.0169   23.7975 H   0  0  0  0  0  0
  -31.2553  -23.4647   22.9427 H   0  0  0  0  0  0
  -29.9184  -22.3479   23.2620 H   0  0  0  0  0  0
  -29.8157  -22.5071   17.5893 H   0  0  0  0  0  0
  -28.1422  -23.0107   17.3629 H   0  0  0  0  0  0
  -28.4979  -21.5634   18.2925 H   0  0  0  0  0  0
  -31.1370  -21.6588   21.1907 H   0  0  0  0  0  0
  -30.6599  -21.4007   19.5652 H   0  0  0  0  0  0
  -29.1227  -15.2934   21.3913 H   0  0  0  0  0  0
  -29.1906  -20.5280   21.9536 H   0  0  0  0  0  0
  -28.6130  -20.3168   20.4490 H   0  0  0  0  0  0
  1 25  1  0  0  0
  1 30  2  0  0  0
  1 85  1  0  0  0
  2  3  1  0  0  0
  2 25  1  0  0  0
  2 87  1  0  0  0
  2 88  1  0  0  0
  3  4  1  0  0  0
  3 89  1  0  0  0
  3 90  1  0  0  0
  4  5  1  0  0  0
  4 91  1  0  0  0
  4 92  1  0  0  0
  5  6  1  0  0  0
  5 26  1  0  0  0
  5 93  1  0  0  0
  6 25  1  0  0  0
  6 94  1  0  0  0
  6 95  1  0  0  0
  7  8  2  0  0  0
  7 26  1  0  0  0
  7 29  1  0  0  0
  8  9  1  0  0  0
  8 22  1  0  0  0
  9 10  1  0  0  0
  9 27  2  0  0  0
 10 11  2  0  0  0
 10 15  1  0  0  0
 11 12  1  0  0  0
 11 96  1  0  0  0
 12 13  2  0  0  0
 12 97  1  0  0  0
 13 14  1  0  0  0
 13 31  1  0  0  0
 14 15  2  0  0  0
 14 98  1  0  0  0
 15 99  1  0  0  0
 16 17  2  0  0  0
 16 21  1  0  0  0
 16 31  1  0  0  0
 17 18  1  0  0  0
 17100  1  0  0  0
 18 19  2  0  0  0
 18101  1  0  0  0
 19 20  1  0  0  0
 19 24  1  0  0  0
 20 21  2  0  0  0
 20102  1  0  0  0
 21 23  1  0  0  0
 22 28  1  0  0  0
 22 32  2  0  0  0
 26 27  1  0  0  0
 28103  1  0  0  0
 28104  1  0  0  0
 29105  1  0  0  0
 29106  1  0  0  0
 33 34  1  0  0  0
 33 66  1  0  0  0
 33 70  2  0  0  0
 34 36  1  0  0  0
 34 59  1  0  0  0
 34107  1  0  0  0
 35 44  2  0  0  0
 35 45  1  0  0  0
 35 68  1  0  0  0
 36 56  1  0  0  0
 36108  1  0  0  0
 37 39  1  0  0  0
 37 47  1  0  0  0
 37 66  1  0  0  0
 37109  1  0  0  0
 38 43  2  0  0  0
 38 46  1  0  0  0
 38 47  1  0  0  0
 39 64  1  0  0  0
 39 67  2  0  0  0
 40 52  1  0  0  0
 40 53  2  0  0  0
 40 58  1  0  0  0
 41110  1  0  0  0
 41111  1  0  0  0
 41112  1  0  0  0
 41 48  1  0  0  0
 42 43  1  0  0  0
 42 66  1  0  0  0
 42113  1  0  0  0
 42114  1  0  0  0
 43 44  1  0  0  0
 44115  1  0  0  0
 45 46  2  0  0  0
 45116  1  0  0  0
 46117  1  0  0  0
 47118  1  0  0  0
 47119  1  0  0  0
 48 56  1  0  0  0
 48 65  1  0  0  0
 48120  1  0  0  0
 49 50  1  0  0  0
 49 53  1  0  0  0
 49 64  1  0  0  0
 49121  1  0  0  0
 50 51  1  0  0  0
 50122  1  0  0  0
 50123  1  0  0  0
 51 52  1  0  0  0
 51124  1  0  0  0
 51125  1  0  0  0
 52126  1  0  0  0
 52127  1  0  0  0
 53 54  1  0  0  0
 54 55  2  0  0  0
 54128  1  0  0  0
 55 57  1  0  0  0
 55129  1  0  0  0
 56 69  2  0  0  0
 57 58  2  0  0  0
 57130  1  0  0  0
 58131  1  0  0  0
 59 60  1  0  0  0
 59 61  1  0  0  0
 59 62  1  0  0  0
 60132  1  0  0  0
 60133  1  0  0  0
 60134  1  0  0  0
 61135  1  0  0  0
 61136  1  0  0  0
 61137  1  0  0  0
 62138  1  0  0  0
 62139  1  0  0  0
 62140  1  0  0  0
 63 65  1  0  0  0
 63141  1  0  0  0
 63142  1  0  0  0
 63143  1  0  0  0
 64144  1  0  0  0
 65145  1  0  0  0
 68 75  1  0  0  0
 71 72  2  0  0  0
 71 75  1  0  0  0
 71146  1  0  0  0
 72 73  1  0  0  0
 72 81  1  0  0  0
 73 74  2  0  0  0
 73 83  1  0  0  0
 74 82  1  0  0  0
 74 84  1  0  0  0
 75 84  2  0  0  0
 76 77  1  0  0  0
 76 79  1  0  0  0
 76147  1  0  0  0
 76148  1  0  0  0
 77 80  1  0  0  0
 77149  1  0  0  0
 77150  1  0  0  0
 78 79  1  0  0  0
 78 80  1  0  0  0
 78151  1  0  0  0
 78152  1  0  0  0
 79 85  1  0  0  0
 79153  1  0  0  0
 80 86  1  0  0  0
 80154  1  0  0  0
 81155  1  0  0  0
 81156  1  0  0  0
 81157  1  0  0  0
 82158  1  0  0  0
 82159  1  0  0  0
 82160  1  0  0  0
 83 86  1  0  0  0
 83161  1  0  0  0
 83162  1  0  0  0
 85163  1  0  0  0
 86164  1  0  0  0
 86165  1  0  0  0
M  CHG  1  86   1
M  ISO  4   1 100  68 101  75 101  85 100
M  END
> <chiral flag>
0

> <version>
0

> <s_m_source_file>
/data/baiqing/PycharmProjects/Reinvent-master-3.2/result/LINK_invent/BTK/process_docking_weight1_custom_sum_contain_oxygen_bond_distance_aromatic_linkinvent_7_9_3/rearranged_h_0134.sdf

> <i_m_source_file_index>
37

> <r_mmod_Potential_Energy-OPLS-2005>
-235.463851928711

> <r_mmod_Stretch_Energy-OPLS-2005>
31.855073928833

> <r_mmod_Bend_Energy-OPLS-2005>
127.443061828613

> <r_mmod_Torsional_Energy-OPLS-2005>
253.414001464844

> <r_mmod_Improper_Torsional_Energy-OPLS-2005>
7.42942380905151

> <r_mmod_Van_der_Waal_Energy-OPLS-2005>
158.087127685547

> <r_mmod_Electrostatic_Energy-OPLS-2005>
-346.957946777344

> <r_mmod_Solvation_Energy-OPLS-2005>
-478.841003417969

> <b_mmod_Minimization_Converged-OPLS-2005>
0

> <r_mmod_RMS_Derivative-OPLS-2005>
1.97106087207794

$$$$
37
                    3D
 Structure written by MMmdl.
160169  0  0  1  0            999 V2000
  -30.6292  -14.6135   20.5279 C   0  0  0  0  0  0
  -30.4451  -12.3824   19.4287 C   0  0  0  0  0  0
  -29.5029  -12.4990   18.2084 C   0  0  0  0  0  0
  -28.0256  -12.3354   18.6275 C   0  0  0  0  0  0
  -27.6557  -13.2037   19.8589 C   0  0  2  0  0  0
  -28.7056  -13.0377   20.9824 C   0  0  0  0  0  0
  -25.2574  -13.8126   20.5638 C   0  0  0  0  0  0
  -24.1847  -13.0427   20.9160 C   0  0  0  0  0  0
  -24.6393  -11.6884   20.8747 C   0  0  0  0  0  0
  -23.9066  -10.4283   21.0425 C   0  0  0  0  0  0
  -24.3612   -9.4198   21.9198 C   0  0  0  0  0  0
  -23.6278   -8.2241   22.0770 C   0  0  0  0  0  0
  -22.4270   -8.0277   21.3542 C   0  0  0  0  0  0
  -21.9899   -9.0258   20.4660 C   0  0  0  0  0  0
  -22.7238  -10.2129   20.3075 C   0  0  0  0  0  0
  -21.6845   -6.0745   22.5288 C   0  0  0  0  0  0
  -21.4009   -6.5651   23.8219 C   0  0  0  0  0  0
  -21.3647   -5.6804   24.9175 C   0  0  0  0  0  0
  -21.6039   -4.3072   24.7226 C   0  0  0  0  0  0
  -21.8821   -3.8160   23.4355 C   0  0  0  0  0  0
  -21.9186   -4.6972   22.3410 C   0  0  0  0  0  0
  -22.7877  -13.5241   21.1823 C   0  0  0  0  0  0
  -22.1660   -4.2164   21.0986 F   0  0  0  0  0  0
  -21.5619   -3.4552   25.7735 F   0  0  0  0  0  0
  -30.0206  -13.3896   20.4185 N   0  0  0  0  0  0
  -26.3009  -12.9291   20.3309 N   0  0  0  0  0  0
  -25.9314  -11.6465   20.5759 N   0  0  0  0  0  0
  -22.0522  -12.8260   22.0389 N   0  0  0  0  0  0
  -25.4289  -15.1852   20.3993 N   0  0  0  0  0  0
  -31.7935  -14.7963   20.1578 O   0  0  0  0  0  0
  -21.6628   -6.8887   21.4248 O   0  0  0  0  0  0
  -22.3562  -14.5539   20.6654 O   0  0  0  0  0  0
  -24.6284  -31.8551   23.2055 C   0  0  0  0  0  0
  -25.9111  -32.4758   23.8382 C   0  0  1  0  0  0
  -27.2308  -27.3093   20.1126 C   0  0  0  0  0  0
  -25.5904  -33.8556   24.2294 N   0  0  0  0  0  0
  -23.4231  -30.4843   21.5475 C   0  0  2  0  0  0
  -24.8752  -28.9448   20.1099 C   0  0  0  0  0  0
  -22.7497  -29.4592   22.4890 C   0  0  0  0  0  0
  -18.0303  -28.1361   22.8519 C   0  0  0  0  0  0
  -24.1454  -36.7227   23.2662 C   0  0  0  0  0  0
  -25.9682  -30.7809   21.3864 C   0  0  0  0  0  0
  -26.0438  -29.4096   20.7248 C   0  0  0  0  0  0
  -27.2233  -28.6026   20.7230 C   0  0  0  0  0  0
  -26.0369  -26.9064   19.4663 C   0  0  0  0  0  0
  -24.8726  -27.6964   19.4741 C   0  0  0  0  0  0
  -23.6438  -29.8284   20.1594 C   0  0  0  0  0  0
  -25.4092  -36.3041   24.0350 C   0  0  1  0  0  0
  -20.5908  -28.3643   23.1265 C   0  0  2  0  0  0
  -20.6763  -26.9336   22.5424 C   0  0  0  0  0  0
  -19.5733  -26.6357   21.5224 C   0  0  0  0  0  0
  -18.1918  -26.7910   22.1644 C   0  0  0  0  0  0
  -19.1561  -28.8823   23.2893 C   0  0  0  0  0  0
  -18.9494  -30.1440   23.8877 C   0  0  0  0  0  0
  -17.6482  -30.6568   24.0549 C   0  0  0  0  0  0
  -25.9022  -34.9424   23.5106 C   0  0  0  0  0  0
  -16.5365  -29.9061   23.6356 C   0  0  0  0  0  0
  -16.7287  -28.6491   23.0366 C   0  0  0  0  0  0
  -26.4511  -31.6603   25.0752 C   0  0  0  0  0  0
  -25.3758  -31.3707   26.1488 C   0  0  0  0  0  0
  -27.0419  -30.3050   24.6238 C   0  0  0  0  0  0
  -27.6044  -32.4422   25.7483 C   0  0  0  0  0  0
  -27.5560  -37.1752   24.8492 C   0  0  0  0  0  0
  -21.4205  -29.2991   22.3635 N   0  0  0  0  0  0
  -26.4274  -37.3736   23.9437 N   0  0  0  0  0  0
  -24.6917  -31.0536   22.1028 N   0  0  0  0  0  0
  -23.4205  -28.8125   23.2964 O   0  0  0  0  0  0
  -28.3412  -26.4413   20.1730 O   0  0  0  0  0  0
  -26.5544  -34.8890   22.4640 O   0  0  0  0  0  0
  -23.5440  -32.1344   23.7374 O   0  0  0  0  0  0
  -29.5619  -18.4248   23.2525 C   0  0  0  0  0  0
  -29.8332  -19.5441   22.4484 C   0  0  0  0  0  0
  -29.6336  -17.1443   22.6835 C   0  0  0  0  0  0
  -30.1549  -19.3616   21.0930 C   0  0  0  0  0  0
  -29.9687  -16.9792   21.3254 C   0  0  0  0  0  0
  -28.4675  -22.3898   19.8718 C   0  0  0  0  0  0
  -30.3259  -20.1623   17.8205 C   0  0  0  0  0  0
  -31.3024  -20.3265   18.9904 C   0  0  0  0  0  0
  -28.9439  -20.4709   18.4110 C   0  0  0  0  0  0
  -30.4189  -20.6397   20.2161 C   0  0  1  0  0  0
  -29.0329  -23.7875   20.3437 C   0  0  0  0  0  0
  -28.0766  -25.0020   19.9274 C   0  0  0  0  0  0
  -30.1980  -18.0920   20.5486 N   0  0  0  0  0  0
  -29.2119  -21.2614   19.6151 N   0  0  0  0  0  0
  -29.7752  -15.6307   20.8464 N   0  0  0  0  0  0
  -27.2690  -22.3588   19.5672 O   0  0  0  0  0  0
  -31.4819  -12.5209   19.1205 H   0  0  0  0  0  0
  -30.3883  -11.3810   19.8623 H   0  0  0  0  0  0
  -29.7616  -11.7465   17.4594 H   0  0  0  0  0  0
  -29.6419  -13.4677   17.7258 H   0  0  0  0  0  0
  -27.8621  -11.2812   18.8541 H   0  0  0  0  0  0
  -27.3685  -12.5707   17.7886 H   0  0  0  0  0  0
  -27.6775  -14.2398   19.5201 H   0  0  0  0  0  0
  -28.7200  -12.0065   21.3426 H   0  0  0  0  0  0
  -28.4505  -13.6465   21.8527 H   0  0  0  0  0  0
  -25.2771   -9.5679   22.4746 H   0  0  0  0  0  0
  -24.0006   -7.4639   22.7493 H   0  0  0  0  0  0
  -21.0832   -8.8776   19.8961 H   0  0  0  0  0  0
  -22.3716  -10.9660   19.6173 H   0  0  0  0  0  0
  -21.2013   -7.6157   23.9730 H   0  0  0  0  0  0
  -21.1453   -6.0529   25.9075 H   0  0  0  0  0  0
  -22.0605   -2.7627   23.2847 H   0  0  0  0  0  0
  -22.4132  -11.9915   22.4788 H   0  0  0  0  0  0
  -21.1130  -13.1285   22.2582 H   0  0  0  0  0  0
  -24.6491  -15.8284   20.4778 H   0  0  0  0  0  0
  -26.2586  -15.6225   20.0192 H   0  0  0  0  0  0
  -26.7126  -32.5456   23.1105 H   0  0  0  0  0  0
  -25.0125  -33.9694   25.0495 H   0  0  0  0  0  0
  -22.7233  -31.3092   21.4070 H   0  0  0  0  0  0
  -23.3755  -35.9515   23.3353 H   0  0  0  0  0  0
  -24.3521  -36.8804   22.2056 H   0  0  0  0  0  0
  -23.7200  -37.6445   23.6658 H   0  0  0  0  0  0
  -26.1061  -31.5510   20.6272 H   0  0  0  0  0  0
  -26.8407  -30.8267   22.0211 H   0  0  0  0  0  0
  -28.1163  -28.9467   21.2268 H   0  0  0  0  0  0
  -25.9638  -25.9581   18.9558 H   0  0  0  0  0  0
  -23.9829  -27.3369   18.9789 H   0  0  0  0  0  0
  -23.7557  -30.6138   19.4101 H   0  0  0  0  0  0
  -22.7672  -29.2554   19.8546 H   0  0  0  0  0  0
  -25.1286  -36.1880   25.0842 H   0  0  0  0  0  0
  -21.0043  -28.3206   24.1361 H   0  0  0  0  0  0
  -20.5672  -26.2190   23.3606 H   0  0  0  0  0  0
  -21.6620  -26.7330   22.1184 H   0  0  0  0  0  0
  -19.6853  -25.6276   21.1250 H   0  0  0  0  0  0
  -19.6701  -27.3153   20.6736 H   0  0  0  0  0  0
  -17.4179  -26.6689   21.4043 H   0  0  0  0  0  0
  -18.0300  -26.0024   22.9006 H   0  0  0  0  0  0
  -19.7963  -30.7295   24.2191 H   0  0  0  0  0  0
  -17.5034  -31.6272   24.5121 H   0  0  0  0  0  0
  -15.5370  -30.2940   23.7717 H   0  0  0  0  0  0
  -15.8693  -28.0836   22.7031 H   0  0  0  0  0  0
  -24.5915  -30.7068   25.7832 H   0  0  0  0  0  0
  -24.8999  -32.2854   26.5011 H   0  0  0  0  0  0
  -25.8100  -30.8843   27.0227 H   0  0  0  0  0  0
  -26.2971  -29.6690   24.1451 H   0  0  0  0  0  0
  -27.4338  -29.7409   25.4709 H   0  0  0  0  0  0
  -27.8732  -30.4367   23.9313 H   0  0  0  0  0  0
  -27.2619  -33.3734   26.2001 H   0  0  0  0  0  0
  -28.3846  -32.7005   25.0303 H   0  0  0  0  0  0
  -28.0726  -31.8641   26.5447 H   0  0  0  0  0  0
  -28.2589  -38.0027   24.7520 H   0  0  0  0  0  0
  -28.1035  -36.2570   24.6369 H   0  0  0  0  0  0
  -27.2257  -37.1425   25.8882 H   0  0  0  0  0  0
  -20.9331  -29.8698   21.6866 H   0  0  0  0  0  0
  -26.0169  -38.2806   24.1511 H   0  0  0  0  0  0
  -29.2799  -18.5405   24.2903 H   0  0  0  0  0  0
  -29.7766  -20.5352   22.8784 H   0  0  0  0  0  0
  -29.3810  -16.2907   23.2970 H   0  0  0  0  0  0
  -30.3709  -19.1669   17.3759 H   0  0  0  0  0  0
  -30.5626  -20.8816   17.0349 H   0  0  0  0  0  0
  -31.9476  -21.1808   18.7855 H   0  0  0  0  0  0
  -31.9520  -19.4603   19.1283 H   0  0  0  0  0  0
  -28.4247  -19.5548   18.6978 H   0  0  0  0  0  0
  -28.3158  -20.9809   17.6783 H   0  0  0  0  0  0
  -30.9346  -21.3771   20.8357 H   0  0  0  0  0  0
  -29.1354  -23.7613   21.4285 H   0  0  0  0  0  0
  -30.0300  -23.9194   19.9252 H   0  0  0  0  0  0
  -27.1358  -24.7754   20.4301 H   0  0  0  0  0  0
  -27.9038  -24.9052   18.8536 H   0  0  0  0  0  0
  -28.8531  -15.2771   21.0356 H   0  0  0  0  0  0
  1 25  1  0  0  0
  1 30  2  0  0  0
  1 85  1  0  0  0
  2  3  1  0  0  0
  2 25  1  0  0  0
  2 87  1  0  0  0
  2 88  1  0  0  0
  3  4  1  0  0  0
  3 89  1  0  0  0
  3 90  1  0  0  0
  4  5  1  0  0  0
  4 91  1  0  0  0
  4 92  1  0  0  0
  5  6  1  0  0  0
  5 26  1  0  0  0
  5 93  1  0  0  0
  6 25  1  0  0  0
  6 94  1  0  0  0
  6 95  1  0  0  0
  7  8  2  0  0  0
  7 26  1  0  0  0
  7 29  1  0  0  0
  8  9  1  0  0  0
  8 22  1  0  0  0
  9 10  1  0  0  0
  9 27  2  0  0  0
 10 11  2  0  0  0
 10 15  1  0  0  0
 11 12  1  0  0  0
 11 96  1  0  0  0
 12 13  2  0  0  0
 12 97  1  0  0  0
 13 14  1  0  0  0
 13 31  1  0  0  0
 14 15  2  0  0  0
 14 98  1  0  0  0
 15 99  1  0  0  0
 16 17  2  0  0  0
 16 21  1  0  0  0
 16 31  1  0  0  0
 17 18  1  0  0  0
 17100  1  0  0  0
 18 19  2  0  0  0
 18101  1  0  0  0
 19 20  1  0  0  0
 19 24  1  0  0  0
 20 21  2  0  0  0
 20102  1  0  0  0
 21 23  1  0  0  0
 22 28  1  0  0  0
 22 32  2  0  0  0
 26 27  1  0  0  0
 28103  1  0  0  0
 28104  1  0  0  0
 29105  1  0  0  0
 29106  1  0  0  0
 33 34  1  0  0  0
 33 66  1  0  0  0
 33 70  2  0  0  0
 34 36  1  0  0  0
 34 59  1  0  0  0
 34107  1  0  0  0
 35 44  2  0  0  0
 35 45  1  0  0  0
 35 68  1  0  0  0
 36 56  1  0  0  0
 36108  1  0  0  0
 37 39  1  0  0  0
 37 47  1  0  0  0
 37 66  1  0  0  0
 37109  1  0  0  0
 38 43  2  0  0  0
 38 46  1  0  0  0
 38 47  1  0  0  0
 39 64  1  0  0  0
 39 67  2  0  0  0
 40 52  1  0  0  0
 40 53  2  0  0  0
 40 58  1  0  0  0
 41110  1  0  0  0
 41111  1  0  0  0
 41112  1  0  0  0
 41 48  1  0  0  0
 42 43  1  0  0  0
 42 66  1  0  0  0
 42113  1  0  0  0
 42114  1  0  0  0
 43 44  1  0  0  0
 44115  1  0  0  0
 45 46  2  0  0  0
 45116  1  0  0  0
 46117  1  0  0  0
 47118  1  0  0  0
 47119  1  0  0  0
 48 56  1  0  0  0
 48 65  1  0  0  0
 48120  1  0  0  0
 49 50  1  0  0  0
 49 53  1  0  0  0
 49 64  1  0  0  0
 49121  1  0  0  0
 50 51  1  0  0  0
 50122  1  0  0  0
 50123  1  0  0  0
 51 52  1  0  0  0
 51124  1  0  0  0
 51125  1  0  0  0
 52126  1  0  0  0
 52127  1  0  0  0
 53 54  1  0  0  0
 54 55  2  0  0  0
 54128  1  0  0  0
 55 57  1  0  0  0
 55129  1  0  0  0
 56 69  2  0  0  0
 57 58  2  0  0  0
 57130  1  0  0  0
 58131  1  0  0  0
 59 60  1  0  0  0
 59 61  1  0  0  0
 59 62  1  0  0  0
 60132  1  0  0  0
 60133  1  0  0  0
 60134  1  0  0  0
 61135  1  0  0  0
 61136  1  0  0  0
 61137  1  0  0  0
 62138  1  0  0  0
 62139  1  0  0  0
 62140  1  0  0  0
 63 65  1  0  0  0
 63141  1  0  0  0
 63142  1  0  0  0
 63143  1  0  0  0
 64144  1  0  0  0
 65145  1  0  0  0
 68 82  1  0  0  0
 71 72  2  0  0  0
 71 73  1  0  0  0
 71146  1  0  0  0
 72 74  1  0  0  0
 72147  1  0  0  0
 73 75  2  0  0  0
 73148  1  0  0  0
 74 83  2  0  0  0
 74 80  1  0  0  0
 75 83  1  0  0  0
 75 85  1  0  0  0
 76 81  1  0  0  0
 76 84  1  0  0  0
 76 86  2  0  0  0
 77 78  1  0  0  0
 77 79  1  0  0  0
 77149  1  0  0  0
 77150  1  0  0  0
 78 80  1  0  0  0
 78151  1  0  0  0
 78152  1  0  0  0
 79 84  1  0  0  0
 79153  1  0  0  0
 79154  1  0  0  0
 80 84  1  0  0  0
 80155  1  0  0  0
 81 82  1  0  0  0
 81156  1  0  0  0
 81157  1  0  0  0
 82158  1  0  0  0
 82159  1  0  0  0
 85160  1  0  0  0
M  ISO  4   1 100  68 101  82 101  85 100
M  END
> <chiral flag>
0

> <version>
0

> <s_m_source_file>
/data/baiqing/PycharmProjects/Reinvent-master-3.2/result/LINK_invent/BTK/process_docking_weight1_custom_sum_contain_oxygen_bond_distance_aromatic_linkinvent_7_9_3/rearranged_h_0134.sdf

> <i_m_source_file_index>
38

> <r_mmod_Potential_Energy-OPLS-2005>
41.2417984008789

> <r_mmod_Stretch_Energy-OPLS-2005>
78.7297744750977

> <r_mmod_Bend_Energy-OPLS-2005>
186.465911865234

> <r_mmod_Torsional_Energy-OPLS-2005>
347.838287353516

> <r_mmod_Improper_Torsional_Energy-OPLS-2005>
10.2510070800781

> <r_mmod_Van_der_Waal_Energy-OPLS-2005>
153.097579956055

> <r_mmod_Electrostatic_Energy-OPLS-2005>
-542.837463378906

> <r_mmod_Solvation_Energy-OPLS-2005>
-240.689697265625

> <b_mmod_Minimization_Converged-OPLS-2005>
0

> <r_mmod_RMS_Derivative-OPLS-2005>
4.82839107513428

$$$$
38
                    3D
 Structure written by MMmdl.
161169  0  0  1  0            999 V2000
  -30.6881  -14.6109   20.4776 C   0  0  0  0  0  0
  -30.4219  -12.3673   19.4641 C   0  0  0  0  0  0
  -29.5038  -12.4864   18.2304 C   0  0  0  0  0  0
  -28.0295  -12.3319   18.6450 C   0  0  0  0  0  0
  -27.6520  -13.2229   19.8601 C   0  0  2  0  0  0
  -28.6973  -13.1208   20.9948 C   0  0  0  0  0  0
  -25.2561  -13.8200   20.5684 C   0  0  0  0  0  0
  -24.1832  -13.0451   20.9186 C   0  0  0  0  0  0
  -24.6404  -11.6927   20.8749 C   0  0  0  0  0  0
  -23.9065  -10.4299   21.0413 C   0  0  0  0  0  0
  -24.3625   -9.4211   21.9185 C   0  0  0  0  0  0
  -23.6292   -8.2256   22.0758 C   0  0  0  0  0  0
  -22.4277   -8.0293   21.3555 C   0  0  0  0  0  0
  -21.9922   -9.0259   20.4654 C   0  0  0  0  0  0
  -22.7245  -10.2135   20.3051 C   0  0  0  0  0  0
  -21.6859   -6.0738   22.5274 C   0  0  0  0  0  0
  -21.4011   -6.5642   23.8203 C   0  0  0  0  0  0
  -21.3661   -5.6803   24.9173 C   0  0  0  0  0  0
  -21.6042   -4.3060   24.7232 C   0  0  0  0  0  0
  -21.8819   -3.8146   23.4356 C   0  0  0  0  0  0
  -21.9187   -4.6962   22.3407 C   0  0  0  0  0  0
  -22.7852  -13.5242   21.1839 C   0  0  0  0  0  0
  -22.1659   -4.2147   21.0984 F   0  0  0  0  0  0
  -21.5633   -3.4543   25.7744 F   0  0  0  0  0  0
  -30.0171  -13.4192   20.4195 N   0  0  0  0  0  0
  -26.3002  -12.9394   20.3354 N   0  0  0  0  0  0
  -25.9341  -11.6547   20.5794 N   0  0  0  0  0  0
  -22.0506  -12.8220   22.0406 N   0  0  0  0  0  0
  -25.4262  -15.1917   20.4081 N   0  0  0  0  0  0
  -31.8569  -14.7069   20.0963 O   0  0  0  0  0  0
  -21.6647   -6.8886   21.4240 O   0  0  0  0  0  0
  -22.3530  -14.5555   20.6694 O   0  0  0  0  0  0
  -24.6264  -31.8592   23.2021 C   0  0  0  0  0  0
  -25.9118  -32.4780   23.8338 C   0  0  1  0  0  0
  -27.2289  -27.3375   20.1220 C   0  0  0  0  0  0
  -25.5923  -33.8567   24.2255 N   0  0  0  0  0  0
  -23.4189  -30.4829   21.5429 C   0  0  2  0  0  0
  -24.8690  -28.9372   20.1115 C   0  0  0  0  0  0
  -22.7473  -29.4614   22.4911 C   0  0  0  0  0  0
  -18.0284  -28.1400   22.8459 C   0  0  0  0  0  0
  -24.1488  -36.7290   23.2647 C   0  0  0  0  0  0
  -25.9580  -30.7988   21.3672 C   0  0  0  0  0  0
  -26.0374  -29.4257   20.7141 C   0  0  0  0  0  0
  -27.2257  -28.6358   20.7116 C   0  0  0  0  0  0
  -26.0424  -26.8913   19.5045 C   0  0  0  0  0  0
  -24.8703  -27.6713   19.5017 C   0  0  0  0  0  0
  -23.6353  -29.8170   20.1582 C   0  0  0  0  0  0
  -25.4109  -36.3068   24.0327 C   0  0  1  0  0  0
  -20.5887  -28.3683   23.1277 C   0  0  2  0  0  0
  -20.6771  -26.9407   22.5395 C   0  0  0  0  0  0
  -19.5745  -26.6384   21.5200 C   0  0  0  0  0  0
  -18.1914  -26.7926   22.1614 C   0  0  0  0  0  0
  -19.1546  -28.8862   23.2844 C   0  0  0  0  0  0
  -18.9477  -30.1464   23.8867 C   0  0  0  0  0  0
  -17.6477  -30.6595   24.0568 C   0  0  0  0  0  0
  -25.9045  -34.9450   23.5088 C   0  0  0  0  0  0
  -16.5356  -29.9095   23.6344 C   0  0  0  0  0  0
  -16.7274  -28.6523   23.0336 C   0  0  0  0  0  0
  -26.4489  -31.6613   25.0716 C   0  0  0  0  0  0
  -25.3725  -31.3762   26.1453 C   0  0  0  0  0  0
  -27.0353  -30.3043   24.6174 C   0  0  0  0  0  0
  -27.6033  -32.4371   25.7508 C   0  0  0  0  0  0
  -27.5567  -37.1789   24.8468 C   0  0  0  0  0  0
  -21.4185  -29.3052   22.3681 N   0  0  0  0  0  0
  -26.4277  -37.3774   23.9417 N   0  0  0  0  0  0
  -24.6864  -31.0617   22.0966 N   0  0  0  0  0  0
  -23.4207  -28.8157   23.2975 O   0  0  0  0  0  0
  -28.3075  -26.4490   20.1608 O   0  0  0  0  0  0
  -26.5622  -34.8923   22.4655 O   0  0  0  0  0  0
  -23.5420  -32.1388   23.7339 O   0  0  0  0  0  0
  -29.5769  -23.4516   19.8996 C   0  0  0  0  0  0
  -29.9718  -22.0817   19.7988 C   0  0  0  0  0  0
  -28.0286  -22.8193   21.6087 C   0  0  0  0  0  0
  -28.5772  -23.8572   20.8121 C   0  0  0  0  0  0
  -28.4430  -21.4485   21.5552 C   0  0  0  0  0  0
  -29.4317  -21.0314   20.6024 C   0  0  0  0  0  0
  -26.6613  -19.7014   22.0023 C   0  0  0  0  0  0
  -27.4697  -21.1240   23.9277 C   0  0  0  0  0  0
  -28.1091  -25.3340   21.1008 C   0  0  0  0  0  0
  -29.4591  -18.3420   20.7644 C   0  0  0  0  0  0
  -30.4647  -17.1452   20.5062 C   0  0  0  0  0  0
  -27.8528  -20.4806   22.5839 C   0  0  0  0  0  0
  -29.9786  -19.7073   20.4078 N   0  0  0  0  0  0
  -29.9733  -15.7434   20.7504 N   0  0  0  0  0  0
  -31.4675  -12.4491   19.1631 H   0  0  0  0  0  0
  -30.3242  -11.3830   19.9245 H   0  0  0  0  0  0
  -29.7648  -11.7291   17.4904 H   0  0  0  0  0  0
  -29.6514  -13.4528   17.7473 H   0  0  0  0  0  0
  -27.8669  -11.2834   18.8950 H   0  0  0  0  0  0
  -27.3724  -12.5462   17.8024 H   0  0  0  0  0  0
  -27.6634  -14.2514   19.4997 H   0  0  0  0  0  0
  -28.6960  -12.1246   21.4394 H   0  0  0  0  0  0
  -28.4561  -13.8119   21.8043 H   0  0  0  0  0  0
  -25.2771   -9.5691   22.4761 H   0  0  0  0  0  0
  -23.9995   -7.4657   22.7486 H   0  0  0  0  0  0
  -21.0855   -8.8788   19.8958 H   0  0  0  0  0  0
  -22.3714  -10.9681   19.6164 H   0  0  0  0  0  0
  -21.2004   -7.6146   23.9709 H   0  0  0  0  0  0
  -21.1485   -6.0533   25.9078 H   0  0  0  0  0  0
  -22.0594   -2.7608   23.2858 H   0  0  0  0  0  0
  -22.4132  -11.9870   22.4761 H   0  0  0  0  0  0
  -21.1126  -13.1247   22.2641 H   0  0  0  0  0  0
  -24.6579  -15.8455   20.5103 H   0  0  0  0  0  0
  -26.2762  -15.6300   20.0785 H   0  0  0  0  0  0
  -26.7187  -32.5473   23.1093 H   0  0  0  0  0  0
  -25.0072  -33.9718   25.0406 H   0  0  0  0  0  0
  -22.7124  -31.3033   21.3979 H   0  0  0  0  0  0
  -23.3735  -35.9642   23.3315 H   0  0  0  0  0  0
  -24.3562  -36.8915   22.2057 H   0  0  0  0  0  0
  -23.7259  -37.6499   23.6678 H   0  0  0  0  0  0
  -26.0822  -31.5614   20.5954 H   0  0  0  0  0  0
  -26.8403  -30.8522   21.9936 H   0  0  0  0  0  0
  -28.1222  -29.0022   21.1917 H   0  0  0  0  0  0
  -26.0166  -25.9095   19.0513 H   0  0  0  0  0  0
  -23.9733  -27.2864   19.0353 H   0  0  0  0  0  0
  -23.7520  -30.5947   19.4009 H   0  0  0  0  0  0
  -22.7562  -29.2449   19.8575 H   0  0  0  0  0  0
  -25.1279  -36.1908   25.0814 H   0  0  0  0  0  0
  -20.9959  -28.3268   24.1406 H   0  0  0  0  0  0
  -20.5671  -26.2299   23.3602 H   0  0  0  0  0  0
  -21.6637  -26.7442   22.1194 H   0  0  0  0  0  0
  -19.6912  -25.6284   21.1259 H   0  0  0  0  0  0
  -19.6711  -27.3183   20.6713 H   0  0  0  0  0  0
  -17.4184  -26.6682   21.4006 H   0  0  0  0  0  0
  -18.0304  -26.0089   22.9040 H   0  0  0  0  0  0
  -19.7970  -30.7268   24.2238 H   0  0  0  0  0  0
  -17.5053  -31.6288   24.5154 H   0  0  0  0  0  0
  -15.5360  -30.2998   23.7699 H   0  0  0  0  0  0
  -15.8667  -28.0854   22.7046 H   0  0  0  0  0  0
  -24.5887  -30.7131   25.7782 H   0  0  0  0  0  0
  -24.8936  -32.2941   26.4871 H   0  0  0  0  0  0
  -25.8037  -30.8941   27.0237 H   0  0  0  0  0  0
  -26.2937  -29.6789   24.1193 H   0  0  0  0  0  0
  -27.4058  -29.7303   25.4679 H   0  0  0  0  0  0
  -27.8795  -30.4338   23.9401 H   0  0  0  0  0  0
  -27.2619  -33.3671   26.2065 H   0  0  0  0  0  0
  -28.3857  -32.6942   25.0365 H   0  0  0  0  0  0
  -28.0704  -31.8533   26.5452 H   0  0  0  0  0  0
  -28.2561  -38.0101   24.7477 H   0  0  0  0  0  0
  -28.1063  -36.2611   24.6308 H   0  0  0  0  0  0
  -27.2272  -37.1453   25.8869 H   0  0  0  0  0  0
  -20.9362  -29.8823   21.6939 H   0  0  0  0  0  0
  -26.0145  -38.2843   24.1437 H   0  0  0  0  0  0
  -30.0611  -24.1939   19.2795 H   0  0  0  0  0  0
  -30.7527  -21.8481   19.0847 H   0  0  0  0  0  0
  -27.2804  -23.1195   22.3234 H   0  0  0  0  0  0
  -26.8885  -19.2753   21.0275 H   0  0  0  0  0  0
  -25.7914  -20.3464   21.8709 H   0  0  0  0  0  0
  -26.3706  -18.8816   22.6598 H   0  0  0  0  0  0
  -28.2941  -21.7202   24.3191 H   0  0  0  0  0  0
  -27.2434  -20.3556   24.6673 H   0  0  0  0  0  0
  -26.5869  -21.7602   23.8487 H   0  0  0  0  0  0
  -28.5923  -25.6316   22.0345 H   0  0  0  0  0  0
  -27.0510  -25.2541   21.3550 H   0  0  0  0  0  0
  -29.1924  -18.2685   21.8125 H   0  0  0  0  0  0
  -28.5495  -18.1534   20.1940 H   0  0  0  0  0  0
  -31.3533  -17.2945   21.1213 H   0  0  0  0  0  0
  -30.8084  -17.1959   19.4719 H   0  0  0  0  0  0
  -28.6533  -19.8109   22.8708 H   0  0  0  0  0  0
  -30.7113  -19.6759   19.7020 H   0  0  0  0  0  0
  -29.0236  -15.6247   21.0673 H   0  0  0  0  0  0
  1 25  1  0  0  0
  1 30  2  0  0  0
  1 84  1  0  0  0
  2  3  1  0  0  0
  2 25  1  0  0  0
  2 85  1  0  0  0
  2 86  1  0  0  0
  3  4  1  0  0  0
  3 87  1  0  0  0
  3 88  1  0  0  0
  4  5  1  0  0  0
  4 89  1  0  0  0
  4 90  1  0  0  0
  5  6  1  0  0  0
  5 26  1  0  0  0
  5 91  1  0  0  0
  6 25  1  0  0  0
  6 92  1  0  0  0
  6 93  1  0  0  0
  7  8  2  0  0  0
  7 26  1  0  0  0
  7 29  1  0  0  0
  8  9  1  0  0  0
  8 22  1  0  0  0
  9 10  1  0  0  0
  9 27  2  0  0  0
 10 11  2  0  0  0
 10 15  1  0  0  0
 11 12  1  0  0  0
 11 94  1  0  0  0
 12 13  2  0  0  0
 12 95  1  0  0  0
 13 14  1  0  0  0
 13 31  1  0  0  0
 14 15  2  0  0  0
 14 96  1  0  0  0
 15 97  1  0  0  0
 16 17  2  0  0  0
 16 21  1  0  0  0
 16 31  1  0  0  0
 17 18  1  0  0  0
 17 98  1  0  0  0
 18 19  2  0  0  0
 18 99  1  0  0  0
 19 20  1  0  0  0
 19 24  1  0  0  0
 20 21  2  0  0  0
 20100  1  0  0  0
 21 23  1  0  0  0
 22 28  1  0  0  0
 22 32  2  0  0  0
 26 27  1  0  0  0
 28101  1  0  0  0
 28102  1  0  0  0
 29103  1  0  0  0
 29104  1  0  0  0
 33 34  1  0  0  0
 33 66  1  0  0  0
 33 70  2  0  0  0
 34 36  1  0  0  0
 34 59  1  0  0  0
 34105  1  0  0  0
 35 44  2  0  0  0
 35 45  1  0  0  0
 35 68  1  0  0  0
 36 56  1  0  0  0
 36106  1  0  0  0
 37 39  1  0  0  0
 37 47  1  0  0  0
 37 66  1  0  0  0
 37107  1  0  0  0
 38 43  2  0  0  0
 38 46  1  0  0  0
 38 47  1  0  0  0
 39 64  1  0  0  0
 39 67  2  0  0  0
 40 52  1  0  0  0
 40 53  2  0  0  0
 40 58  1  0  0  0
 41108  1  0  0  0
 41109  1  0  0  0
 41110  1  0  0  0
 41 48  1  0  0  0
 42 43  1  0  0  0
 42 66  1  0  0  0
 42111  1  0  0  0
 42112  1  0  0  0
 43 44  1  0  0  0
 44113  1  0  0  0
 45 46  2  0  0  0
 45114  1  0  0  0
 46115  1  0  0  0
 47116  1  0  0  0
 47117  1  0  0  0
 48 56  1  0  0  0
 48 65  1  0  0  0
 48118  1  0  0  0
 49 50  1  0  0  0
 49 53  1  0  0  0
 49 64  1  0  0  0
 49119  1  0  0  0
 50 51  1  0  0  0
 50120  1  0  0  0
 50121  1  0  0  0
 51 52  1  0  0  0
 51122  1  0  0  0
 51123  1  0  0  0
 52124  1  0  0  0
 52125  1  0  0  0
 53 54  1  0  0  0
 54 55  2  0  0  0
 54126  1  0  0  0
 55 57  1  0  0  0
 55127  1  0  0  0
 56 69  2  0  0  0
 57 58  2  0  0  0
 57128  1  0  0  0
 58129  1  0  0  0
 59 60  1  0  0  0
 59 61  1  0  0  0
 59 62  1  0  0  0
 60130  1  0  0  0
 60131  1  0  0  0
 60132  1  0  0  0
 61133  1  0  0  0
 61134  1  0  0  0
 61135  1  0  0  0
 62136  1  0  0  0
 62137  1  0  0  0
 62138  1  0  0  0
 63 65  1  0  0  0
 63139  1  0  0  0
 63140  1  0  0  0
 63141  1  0  0  0
 64142  1  0  0  0
 65143  1  0  0  0
 68 79  1  0  0  0
 71 72  2  0  0  0
 71 74  1  0  0  0
 71144  1  0  0  0
 72 76  1  0  0  0
 72145  1  0  0  0
 73 74  2  0  0  0
 73 75  1  0  0  0
 73146  1  0  0  0
 74 79  1  0  0  0
 75 76  2  0  0  0
 75 82  1  0  0  0
 76 83  1  0  0  0
 77147  1  0  0  0
 77148  1  0  0  0
 77149  1  0  0  0
 77 82  1  0  0  0
 78 82  1  0  0  0
 78150  1  0  0  0
 78151  1  0  0  0
 78152  1  0  0  0
 79153  1  0  0  0
 79154  1  0  0  0
 80 81  1  0  0  0
 80 83  1  0  0  0
 80155  1  0  0  0
 80156  1  0  0  0
 81 84  1  0  0  0
 81157  1  0  0  0
 81158  1  0  0  0
 82159  1  0  0  0
 83160  1  0  0  0
 84161  1  0  0  0
M  ISO  4   1 100  68 101  79 101  84 100
M  END
> <chiral flag>
0

> <version>
0

> <s_m_source_file>
/data/baiqing/PycharmProjects/Reinvent-master-3.2/result/LINK_invent/BTK/process_docking_weight1_custom_sum_contain_oxygen_bond_distance_aromatic_linkinvent_7_9_3/rearranged_h_0134.sdf

> <i_m_source_file_index>
39

> <r_mmod_Potential_Energy-OPLS-2005>
36.9280662536621

> <r_mmod_Stretch_Energy-OPLS-2005>
76.9186248779297

> <r_mmod_Bend_Energy-OPLS-2005>
167.904586791992

> <r_mmod_Torsional_Energy-OPLS-2005>
231.369659423828

> <r_mmod_Improper_Torsional_Energy-OPLS-2005>
6.4560399055481

> <r_mmod_Van_der_Waal_Energy-OPLS-2005>
150.955810546875

> <r_mmod_Electrostatic_Energy-OPLS-2005>
-428.136535644531

> <r_mmod_Solvation_Energy-OPLS-2005>
-215.265640258789

> <b_mmod_Minimization_Converged-OPLS-2005>
0

> <r_mmod_RMS_Derivative-OPLS-2005>
3.78687143325806

$$$$
39
                    3D
 Structure written by MMmdl.
160169  0  0  1  0            999 V2000
  -30.6452  -14.6039   20.5036 C   0  0  0  0  0  0
  -30.4299  -12.3664   19.4588 C   0  0  0  0  0  0
  -29.5082  -12.4962   18.2261 C   0  0  0  0  0  0
  -28.0269  -12.3516   18.6299 C   0  0  0  0  0  0
  -27.6531  -13.2181   19.8627 C   0  0  2  0  0  0
  -28.6954  -13.0711   20.9949 C   0  0  0  0  0  0
  -25.2561  -13.8182   20.5666 C   0  0  0  0  0  0
  -24.1833  -13.0446   20.9186 C   0  0  0  0  0  0
  -24.6398  -11.6915   20.8744 C   0  0  0  0  0  0
  -23.9062  -10.4297   21.0402 C   0  0  0  0  0  0
  -24.3614   -9.4208   21.9177 C   0  0  0  0  0  0
  -23.6292   -8.2241   22.0743 C   0  0  0  0  0  0
  -22.4275   -8.0279   21.3533 C   0  0  0  0  0  0
  -21.9911   -9.0255   20.4639 C   0  0  0  0  0  0
  -22.7236  -10.2140   20.3051 C   0  0  0  0  0  0
  -21.6856   -6.0735   22.5275 C   0  0  0  0  0  0
  -21.4016   -6.5637   23.8209 C   0  0  0  0  0  0
  -21.3666   -5.6791   24.9173 C   0  0  0  0  0  0
  -21.6047   -4.3054   24.7224 C   0  0  0  0  0  0
  -21.8819   -3.8144   23.4344 C   0  0  0  0  0  0
  -21.9193   -4.6959   22.3402 C   0  0  0  0  0  0
  -22.7853  -13.5234   21.1845 C   0  0  0  0  0  0
  -22.1659   -4.2142   21.0981 F   0  0  0  0  0  0
  -21.5637   -3.4532   25.7734 F   0  0  0  0  0  0
  -30.0144  -13.3931   20.4319 N   0  0  0  0  0  0
  -26.2985  -12.9365   20.3307 N   0  0  0  0  0  0
  -25.9325  -11.6515   20.5757 N   0  0  0  0  0  0
  -22.0491  -12.8235   22.0406 N   0  0  0  0  0  0
  -25.4293  -15.1900   20.4053 N   0  0  0  0  0  0
  -31.8100  -14.7546   20.1228 O   0  0  0  0  0  0
  -21.6642   -6.8873   21.4234 O   0  0  0  0  0  0
  -22.3540  -14.5532   20.6680 O   0  0  0  0  0  0
  -24.6234  -31.8616   23.2040 C   0  0  0  0  0  0
  -25.9093  -32.4786   23.8359 C   0  0  1  0  0  0
  -27.2211  -27.3442   20.1116 C   0  0  0  0  0  0
  -25.5917  -33.8585   24.2282 N   0  0  0  0  0  0
  -23.4147  -30.4863   21.5472 C   0  0  2  0  0  0
  -24.8590  -28.9444   20.1113 C   0  0  0  0  0  0
  -22.7459  -29.4634   22.4956 C   0  0  0  0  0  0
  -18.0286  -28.1391   22.8489 C   0  0  0  0  0  0
  -24.1487  -36.7305   23.2639 C   0  0  0  0  0  0
  -25.9538  -30.8009   21.3704 C   0  0  0  0  0  0
  -26.0272  -29.4308   20.7116 C   0  0  0  0  0  0
  -27.2120  -28.6423   20.7016 C   0  0  0  0  0  0
  -26.0301  -26.9022   19.4905 C   0  0  0  0  0  0
  -24.8605  -27.6841   19.4936 C   0  0  0  0  0  0
  -23.6268  -29.8223   20.1615 C   0  0  0  0  0  0
  -25.4110  -36.3086   24.0329 C   0  0  1  0  0  0
  -20.5883  -28.3685   23.1297 C   0  0  2  0  0  0
  -20.6776  -26.9413   22.5418 C   0  0  0  0  0  0
  -19.5749  -26.6387   21.5221 C   0  0  0  0  0  0
  -18.1928  -26.7933   22.1631 C   0  0  0  0  0  0
  -19.1537  -28.8855   23.2887 C   0  0  0  0  0  0
  -18.9463  -30.1463   23.8893 C   0  0  0  0  0  0
  -17.6461  -30.6588   24.0569 C   0  0  0  0  0  0
  -25.9049  -34.9458   23.5104 C   0  0  0  0  0  0
  -16.5353  -29.9087   23.6335 C   0  0  0  0  0  0
  -16.7273  -28.6514   23.0338 C   0  0  0  0  0  0
  -26.4481  -31.6588   25.0727 C   0  0  0  0  0  0
  -25.3732  -31.3733   26.1473 C   0  0  0  0  0  0
  -27.0316  -30.3010   24.6174 C   0  0  0  0  0  0
  -27.6035  -32.4327   25.7504 C   0  0  0  0  0  0
  -27.5578  -37.1805   24.8459 C   0  0  0  0  0  0
  -21.4180  -29.3039   22.3693 N   0  0  0  0  0  0
  -26.4283  -37.3783   23.9413 N   0  0  0  0  0  0
  -24.6826  -31.0650   22.0979 N   0  0  0  0  0  0
  -23.4202  -28.8180   23.3024 O   0  0  0  0  0  0
  -28.3499  -26.5208   20.1598 O   0  0  0  0  0  0
  -26.5623  -34.8921   22.4673 O   0  0  0  0  0  0
  -23.5403  -32.1408   23.7386 O   0  0  0  0  0  0
  -28.5156  -20.3905   19.8195 C   0  0  0  0  0  0
  -28.5421  -21.8190   19.7167 C   0  0  0  0  0  0
  -29.9619  -20.4989   21.7228 C   0  0  0  0  0  0
  -29.9867  -21.9024   21.6235 C   0  0  0  0  0  0
  -29.2237  -19.6816   20.8324 C   0  0  0  0  0  0
  -29.2723  -22.6267   20.6314 C   0  0  0  0  0  0
  -30.7770  -20.0167   22.8958 C   0  0  0  0  0  0
  -30.8570  -22.5016   22.7014 C   0  0  0  0  0  0
  -31.3123  -21.3033   23.5606 C   0  0  0  0  0  0
  -29.0548  -18.1380   21.0431 C   0  0  0  0  0  0
  -29.3734  -24.1924   20.5436 C   0  0  0  0  0  0
  -30.1849  -17.1322   20.5919 C   0  0  0  0  0  0
  -28.1522  -25.0631   20.0693 C   0  0  0  0  0  0
  -29.8632  -15.6802   20.8014 N   0  0  0  0  0  0
  -31.4746  -12.4744   19.1622 H   0  0  0  0  0  0
  -30.3459  -11.3723   19.9017 H   0  0  0  0  0  0
  -29.7685  -11.7425   17.4821 H   0  0  0  0  0  0
  -29.6661  -13.4663   17.7514 H   0  0  0  0  0  0
  -27.8459  -11.2988   18.8496 H   0  0  0  0  0  0
  -27.3814  -12.5987   17.7860 H   0  0  0  0  0  0
  -27.6736  -14.2544   19.5247 H   0  0  0  0  0  0
  -28.6960  -12.0527   21.3865 H   0  0  0  0  0  0
  -28.4475  -13.7170   21.8392 H   0  0  0  0  0  0
  -25.2757   -9.5697   22.4751 H   0  0  0  0  0  0
  -24.0008   -7.4641   22.7468 H   0  0  0  0  0  0
  -21.0839   -8.8769   19.8959 H   0  0  0  0  0  0
  -22.3674  -10.9676   19.6165 H   0  0  0  0  0  0
  -21.2000   -7.6144   23.9710 H   0  0  0  0  0  0
  -21.1492   -6.0521   25.9078 H   0  0  0  0  0  0
  -22.0591   -2.7606   23.2845 H   0  0  0  0  0  0
  -22.4096  -11.9900   22.4816 H   0  0  0  0  0  0
  -21.1107  -13.1274   22.2591 H   0  0  0  0  0  0
  -24.6627  -15.8459   20.5085 H   0  0  0  0  0  0
  -26.2741  -15.6215   20.0518 H   0  0  0  0  0  0
  -26.7169  -32.5460   23.1115 H   0  0  0  0  0  0
  -25.0042  -33.9725   25.0410 H   0  0  0  0  0  0
  -22.7076  -31.3067   21.4075 H   0  0  0  0  0  0
  -23.3737  -35.9648   23.3297 H   0  0  0  0  0  0
  -24.3583  -36.8930   22.2055 H   0  0  0  0  0  0
  -23.7251  -37.6512   23.6664 H   0  0  0  0  0  0
  -26.0846  -31.5662   20.6037 H   0  0  0  0  0  0
  -26.8342  -30.8462   21.9997 H   0  0  0  0  0  0
  -28.1091  -29.0123   21.1786 H   0  0  0  0  0  0
  -25.9775  -25.9390   19.0049 H   0  0  0  0  0  0
  -23.9639  -27.3051   19.0223 H   0  0  0  0  0  0
  -23.7472  -30.6006   19.4071 H   0  0  0  0  0  0
  -22.7461  -29.2532   19.8575 H   0  0  0  0  0  0
  -25.1286  -36.1935   25.0820 H   0  0  0  0  0  0
  -20.9977  -28.3260   24.1417 H   0  0  0  0  0  0
  -20.5693  -26.2293   23.3615 H   0  0  0  0  0  0
  -21.6643  -26.7456   22.1198 H   0  0  0  0  0  0
  -19.6908  -25.6301   21.1241 H   0  0  0  0  0  0
  -19.6680  -27.3209   20.6759 H   0  0  0  0  0  0
  -17.4201  -26.6686   21.4028 H   0  0  0  0  0  0
  -18.0322  -26.0076   22.9027 H   0  0  0  0  0  0
  -19.7938  -30.7286   24.2246 H   0  0  0  0  0  0
  -17.5016  -31.6263   24.5178 H   0  0  0  0  0  0
  -15.5352  -30.2985   23.7662 H   0  0  0  0  0  0
  -15.8678  -28.0842   22.7028 H   0  0  0  0  0  0
  -24.5870  -30.7119   25.7816 H   0  0  0  0  0  0
  -24.8970  -32.2908   26.4937 H   0  0  0  0  0  0
  -25.8067  -30.8881   27.0227 H   0  0  0  0  0  0
  -26.2890  -29.6779   24.1176 H   0  0  0  0  0  0
  -27.3988  -29.7244   25.4674 H   0  0  0  0  0  0
  -27.8768  -30.4287   23.9407 H   0  0  0  0  0  0
  -27.2617  -33.3601   26.2110 H   0  0  0  0  0  0
  -28.3827  -32.6937   25.0333 H   0  0  0  0  0  0
  -28.0725  -31.8450   26.5403 H   0  0  0  0  0  0
  -28.2583  -38.0115   24.7511 H   0  0  0  0  0  0
  -28.1083  -36.2644   24.6261 H   0  0  0  0  0  0
  -27.2306  -37.1430   25.8865 H   0  0  0  0  0  0
  -20.9357  -29.8764   21.6906 H   0  0  0  0  0  0
  -26.0161  -38.2854   24.1419 H   0  0  0  0  0  0
  -27.9096  -19.8358   19.1159 H   0  0  0  0  0  0
  -27.9846  -22.2930   18.9206 H   0  0  0  0  0  0
  -31.5903  -19.3773   22.5534 H   0  0  0  0  0  0
  -30.1569  -19.4455   23.5871 H   0  0  0  0  0  0
  -30.3007  -23.2235   23.3001 H   0  0  0  0  0  0
  -31.7095  -23.0114   22.2511 H   0  0  0  0  0  0
  -32.3978  -21.2796   23.6620 H   0  0  0  0  0  0
  -30.9036  -21.3964   24.5677 H   0  0  0  0  0  0
  -28.1226  -17.8473   20.5579 H   0  0  0  0  0  0
  -28.8748  -17.9831   22.1073 H   0  0  0  0  0  0
  -30.2274  -24.4268   19.9084 H   0  0  0  0  0  0
  -29.6383  -24.5653   21.5316 H   0  0  0  0  0  0
  -31.1133  -17.3668   21.1133 H   0  0  0  0  0  0
  -30.3857  -17.2826   19.5299 H   0  0  0  0  0  0
  -27.2892  -24.7825   20.6754 H   0  0  0  0  0  0
  -27.9190  -24.8004   19.0366 H   0  0  0  0  0  0
  -28.9166  -15.4611   21.0752 H   0  0  0  0  0  0
  1 25  1  0  0  0
  1 30  2  0  0  0
  1 84  1  0  0  0
  2  3  1  0  0  0
  2 25  1  0  0  0
  2 85  1  0  0  0
  2 86  1  0  0  0
  3  4  1  0  0  0
  3 87  1  0  0  0
  3 88  1  0  0  0
  4  5  1  0  0  0
  4 89  1  0  0  0
  4 90  1  0  0  0
  5  6  1  0  0  0
  5 26  1  0  0  0
  5 91  1  0  0  0
  6 25  1  0  0  0
  6 92  1  0  0  0
  6 93  1  0  0  0
  7  8  2  0  0  0
  7 26  1  0  0  0
  7 29  1  0  0  0
  8  9  1  0  0  0
  8 22  1  0  0  0
  9 10  1  0  0  0
  9 27  2  0  0  0
 10 11  2  0  0  0
 10 15  1  0  0  0
 11 12  1  0  0  0
 11 94  1  0  0  0
 12 13  2  0  0  0
 12 95  1  0  0  0
 13 14  1  0  0  0
 13 31  1  0  0  0
 14 15  2  0  0  0
 14 96  1  0  0  0
 15 97  1  0  0  0
 16 17  2  0  0  0
 16 21  1  0  0  0
 16 31  1  0  0  0
 17 18  1  0  0  0
 17 98  1  0  0  0
 18 19  2  0  0  0
 18 99  1  0  0  0
 19 20  1  0  0  0
 19 24  1  0  0  0
 20 21  2  0  0  0
 20100  1  0  0  0
 21 23  1  0  0  0
 22 28  1  0  0  0
 22 32  2  0  0  0
 26 27  1  0  0  0
 28101  1  0  0  0
 28102  1  0  0  0
 29103  1  0  0  0
 29104  1  0  0  0
 33 34  1  0  0  0
 33 66  1  0  0  0
 33 70  2  0  0  0
 34 36  1  0  0  0
 34 59  1  0  0  0
 34105  1  0  0  0
 35 44  2  0  0  0
 35 45  1  0  0  0
 35 68  1  0  0  0
 36 56  1  0  0  0
 36106  1  0  0  0
 37 39  1  0  0  0
 37 47  1  0  0  0
 37 66  1  0  0  0
 37107  1  0  0  0
 38 43  2  0  0  0
 38 46  1  0  0  0
 38 47  1  0  0  0
 39 64  1  0  0  0
 39 67  2  0  0  0
 40 52  1  0  0  0
 40 53  2  0  0  0
 40 58  1  0  0  0
 41108  1  0  0  0
 41109  1  0  0  0
 41110  1  0  0  0
 41 48  1  0  0  0
 42 43  1  0  0  0
 42 66  1  0  0  0
 42111  1  0  0  0
 42112  1  0  0  0
 43 44  1  0  0  0
 44113  1  0  0  0
 45 46  2  0  0  0
 45114  1  0  0  0
 46115  1  0  0  0
 47116  1  0  0  0
 47117  1  0  0  0
 48 56  1  0  0  0
 48 65  1  0  0  0
 48118  1  0  0  0
 49 50  1  0  0  0
 49 53  1  0  0  0
 49 64  1  0  0  0
 49119  1  0  0  0
 50 51  1  0  0  0
 50120  1  0  0  0
 50121  1  0  0  0
 51 52  1  0  0  0
 51122  1  0  0  0
 51123  1  0  0  0
 52124  1  0  0  0
 52125  1  0  0  0
 53 54  1  0  0  0
 54 55  2  0  0  0
 54126  1  0  0  0
 55 57  1  0  0  0
 55127  1  0  0  0
 56 69  2  0  0  0
 57 58  2  0  0  0
 57128  1  0  0  0
 58129  1  0  0  0
 59 60  1  0  0  0
 59 61  1  0  0  0
 59 62  1  0  0  0
 60130  1  0  0  0
 60131  1  0  0  0
 60132  1  0  0  0
 61133  1  0  0  0
 61134  1  0  0  0
 61135  1  0  0  0
 62136  1  0  0  0
 62137  1  0  0  0
 62138  1  0  0  0
 63 65  1  0  0  0
 63139  1  0  0  0
 63140  1  0  0  0
 63141  1  0  0  0
 64142  1  0  0  0
 65143  1  0  0  0
 68 83  1  0  0  0
 71 72  2  0  0  0
 71 75  1  0  0  0
 71144  1  0  0  0
 72 76  1  0  0  0
 72145  1  0  0  0
 73 74  1  0  0  0
 73 75  2  0  0  0
 73 77  1  0  0  0
 74 76  2  0  0  0
 74 78  1  0  0  0
 75 80  1  0  0  0
 76 81  1  0  0  0
 77 79  1  0  0  0
 77146  1  0  0  0
 77147  1  0  0  0
 78 79  1  0  0  0
 78148  1  0  0  0
 78149  1  0  0  0
 79150  1  0  0  0
 79151  1  0  0  0
 80 82  1  0  0  0
 80152  1  0  0  0
 80153  1  0  0  0
 81 83  1  0  0  0
 81154  1  0  0  0
 81155  1  0  0  0
 82 84  1  0  0  0
 82156  1  0  0  0
 82157  1  0  0  0
 83158  1  0  0  0
 83159  1  0  0  0
 84160  1  0  0  0
M  ISO  4   1 100  68 101  83 101  84 100
M  END
> <chiral flag>
0

> <version>
0

> <s_m_source_file>
/data/baiqing/PycharmProjects/Reinvent-master-3.2/result/LINK_invent/BTK/process_docking_weight1_custom_sum_contain_oxygen_bond_distance_aromatic_linkinvent_7_9_3/rearranged_h_0134.sdf

> <i_m_source_file_index>
40

> <r_mmod_Potential_Energy-OPLS-2005>
21.1520137786865

> <r_mmod_Stretch_Energy-OPLS-2005>
66.282470703125

> <r_mmod_Bend_Energy-OPLS-2005>
151.01921081543

> <r_mmod_Torsional_Energy-OPLS-2005>
221.026153564453

> <r_mmod_Improper_Torsional_Energy-OPLS-2005>
5.97069692611694

> <r_mmod_Van_der_Waal_Energy-OPLS-2005>
138.485565185547

> <r_mmod_Electrostatic_Energy-OPLS-2005>
-386.517456054688

> <r_mmod_Solvation_Energy-OPLS-2005>
-213.827072143555

> <b_mmod_Minimization_Converged-OPLS-2005>
0

> <r_mmod_RMS_Derivative-OPLS-2005>
1.47231554985046

$$$$
40
                    3D
 Structure written by MMmdl.
170180  0  0  1  0            999 V2000
  -30.9051  -14.2438   20.7763 C   0  0  0  0  0  0
  -30.4064  -12.2900   19.3751 C   0  0  0  0  0  0
  -29.4688  -12.5354   18.1861 C   0  0  0  0  0  0
  -28.0047  -12.3784   18.6212 C   0  0  0  0  0  0
  -27.6717  -13.2138   19.8830 C   0  0  2  0  0  0
  -28.7186  -13.0088   21.0047 C   0  0  0  0  0  0
  -25.2640  -13.8188   20.5703 C   0  0  0  0  0  0
  -24.1884  -13.0458   20.9155 C   0  0  0  0  0  0
  -24.6442  -11.6917   20.8740 C   0  0  0  0  0  0
  -23.9100  -10.4300   21.0410 C   0  0  0  0  0  0
  -24.3645   -9.4204   21.9183 C   0  0  0  0  0  0
  -23.6306   -8.2248   22.0754 C   0  0  0  0  0  0
  -22.4286   -8.0300   21.3550 C   0  0  0  0  0  0
  -21.9934   -9.0273   20.4648 C   0  0  0  0  0  0
  -22.7272  -10.2145   20.3056 C   0  0  0  0  0  0
  -21.6857   -6.0746   22.5277 C   0  0  0  0  0  0
  -21.4013   -6.5649   23.8215 C   0  0  0  0  0  0
  -21.3662   -5.6798   24.9175 C   0  0  0  0  0  0
  -21.6039   -4.3056   24.7220 C   0  0  0  0  0  0
  -21.8820   -3.8157   23.4336 C   0  0  0  0  0  0
  -21.9192   -4.6972   22.3397 C   0  0  0  0  0  0
  -22.7895  -13.5240   21.1808 C   0  0  0  0  0  0
  -22.1664   -4.2161   21.0968 F   0  0  0  0  0  0
  -21.5625   -3.4537   25.7734 F   0  0  0  0  0  0
  -30.0722  -13.2231   20.4613 N   0  0  0  0  0  0
  -26.3110  -12.9379   20.3455 N   0  0  0  0  0  0
  -25.9383  -11.6524   20.5811 N   0  0  0  0  0  0
  -22.0533  -12.8240   22.0375 N   0  0  0  0  0  0
  -25.4349  -15.1900   20.4111 N   0  0  0  0  0  0
  -31.7679  -14.6796   20.0083 O   0  0  0  0  0  0
  -21.6645   -6.8893   21.4245 O   0  0  0  0  0  0
  -22.3574  -14.5544   20.6665 O   0  0  0  0  0  0
  -24.6150  -31.8706   23.2112 C   0  0  0  0  0  0
  -25.9038  -32.4842   23.8412 C   0  0  1  0  0  0
  -27.2172  -27.4238   20.0941 C   0  0  0  0  0  0
  -25.5930  -33.8640   24.2360 N   0  0  0  0  0  0
  -23.4010  -30.4978   21.5540 C   0  0  2  0  0  0
  -24.8448  -28.9731   20.1077 C   0  0  0  0  0  0
  -22.7414  -29.4668   22.4995 C   0  0  0  0  0  0
  -18.0294  -28.1369   22.8516 C   0  0  0  0  0  0
  -24.1499  -36.7291   23.2638 C   0  0  0  0  0  0
  -25.9335  -30.8366   21.3605 C   0  0  0  0  0  0
  -26.0100  -29.4712   20.7053 C   0  0  0  0  0  0
  -27.2018  -28.7070   20.6918 C   0  0  0  0  0  0
  -26.0329  -26.9583   19.4726 C   0  0  0  0  0  0
  -24.8535  -27.7176   19.4844 C   0  0  0  0  0  0
  -23.6070  -29.8387   20.1649 C   0  0  0  0  0  0
  -25.4118  -36.3119   24.0355 C   0  0  1  0  0  0
  -20.5879  -28.3632   23.1344 C   0  0  2  0  0  0
  -20.6783  -26.9376   22.5421 C   0  0  0  0  0  0
  -19.5755  -26.6402   21.5207 C   0  0  0  0  0  0
  -18.1939  -26.7940   22.1618 C   0  0  0  0  0  0
  -19.1540  -28.8824   23.2942 C   0  0  0  0  0  0
  -18.9458  -30.1453   23.8921 C   0  0  0  0  0  0
  -17.6454  -30.6580   24.0580 C   0  0  0  0  0  0
  -25.9036  -34.9486   23.5139 C   0  0  0  0  0  0
  -16.5354  -29.9080   23.6329 C   0  0  0  0  0  0
  -16.7285  -28.6505   23.0344 C   0  0  0  0  0  0
  -26.4455  -31.6601   25.0710 C   0  0  0  0  0  0
  -25.3747  -31.3707   26.1476 C   0  0  0  0  0  0
  -27.0226  -30.3066   24.5988 C   0  0  0  0  0  0
  -27.6092  -32.4254   25.7443 C   0  0  0  0  0  0
  -27.5588  -37.1818   24.8471 C   0  0  0  0  0  0
  -21.4136  -29.3020   22.3751 N   0  0  0  0  0  0
  -26.4305  -37.3799   23.9406 N   0  0  0  0  0  0
  -24.6696  -31.0812   22.1007 N   0  0  0  0  0  0
  -23.4205  -28.8200   23.3003 O   0  0  0  0  0  0
  -28.3550  -26.6366   20.1439 O   0  0  0  0  0  0
  -26.5570  -34.8939   22.4681 O   0  0  0  0  0  0
  -23.5354  -32.1435   23.7520 O   0  0  0  0  0  0
  -29.8377  -19.1320   20.4492 C   0  0  0  0  0  0
  -30.7576  -18.2025   20.9638 C   0  0  0  0  0  0
  -30.7472  -18.6585   24.5858 C   0  0  0  0  0  0
  -29.3533  -19.8948   22.7191 C   0  0  0  0  0  0
  -31.6698  -17.6546   24.4505 C   0  0  0  0  0  0
  -30.2851  -18.9761   23.2633 C   0  0  0  0  0  0
  -29.1265  -19.9794   21.3242 C   0  0  0  0  0  0
  -30.9731  -18.1230   22.3506 C   0  0  0  0  0  0
  -28.2750  -24.3881   19.0709 C   0  0  0  0  0  0
  -29.0643  -24.6146   21.3956 C   0  0  0  0  0  0
  -27.8409  -22.9332   19.3464 C   0  0  0  0  0  0
  -28.6671  -23.1456   21.6846 C   0  0  0  0  0  0
  -28.1223  -25.2250   20.3502 C   0  0  1  0  0  0
  -28.0772  -20.9282   20.7500 C   0  0  0  0  0  0
  -32.7081  -16.3068   22.5846 C   0  0  0  0  0  0
  -32.2060  -14.8625   22.7995 C   0  0  0  0  0  0
  -31.8042  -17.3154   23.1094 N   0  0  0  0  0  0
  -30.9689  -14.5015   22.0901 N   0  0  0  0  0  0
  -28.5986  -22.2927   20.4624 N   0  3  1  0  0  0
  -31.4472  -12.3797   19.0568 H   0  0  0  0  0  0
  -30.2995  -11.2653   19.7339 H   0  0  0  0  0  0
  -29.6939  -11.8384   17.3777 H   0  0  0  0  0  0
  -29.6332  -13.5371   17.7860 H   0  0  0  0  0  0
  -27.8250  -11.3200   18.8145 H   0  0  0  0  0  0
  -27.3392  -12.6552   17.8024 H   0  0  0  0  0  0
  -27.7188  -14.2612   19.5851 H   0  0  0  0  0  0
  -28.6541  -12.0018   21.4176 H   0  0  0  0  0  0
  -28.4985  -13.6913   21.8259 H   0  0  0  0  0  0
  -25.2798   -9.5674   22.4746 H   0  0  0  0  0  0
  -24.0017   -7.4645   22.7481 H   0  0  0  0  0  0
  -21.0863   -8.8800   19.8955 H   0  0  0  0  0  0
  -22.3742  -10.9686   19.6160 H   0  0  0  0  0  0
  -21.2003   -7.6162   23.9718 H   0  0  0  0  0  0
  -21.1475   -6.0527   25.9078 H   0  0  0  0  0  0
  -22.0586   -2.7617   23.2826 H   0  0  0  0  0  0
  -22.4160  -11.9898   22.4753 H   0  0  0  0  0  0
  -21.1140  -13.1252   22.2561 H   0  0  0  0  0  0
  -24.6732  -15.8496   20.5271 H   0  0  0  0  0  0
  -26.3023  -15.6298   20.1290 H   0  0  0  0  0  0
  -26.7105  -32.5529   23.1179 H   0  0  0  0  0  0
  -25.0187  -33.9840   25.0580 H   0  0  0  0  0  0
  -22.6892  -31.3150   21.4215 H   0  0  0  0  0  0
  -23.3796  -35.9588   23.3294 H   0  0  0  0  0  0
  -24.3618  -36.8884   22.2056 H   0  0  0  0  0  0
  -23.7208  -37.6494   23.6616 H   0  0  0  0  0  0
  -26.0440  -31.6006   20.5902 H   0  0  0  0  0  0
  -26.8244  -30.8903   21.9737 H   0  0  0  0  0  0
  -28.0979  -29.0889   21.1613 H   0  0  0  0  0  0
  -25.9915  -25.9995   18.9808 H   0  0  0  0  0  0
  -23.9620  -27.3310   19.0111 H   0  0  0  0  0  0
  -23.7118  -30.6168   19.4077 H   0  0  0  0  0  0
  -22.7284  -29.2611   19.8699 H   0  0  0  0  0  0
  -25.1303  -36.1991   25.0853 H   0  0  0  0  0  0
  -21.0013  -28.3144   24.1450 H   0  0  0  0  0  0
  -20.5697  -26.2214   23.3580 H   0  0  0  0  0  0
  -21.6652  -26.7429   22.1186 H   0  0  0  0  0  0
  -19.6896  -25.6336   21.1187 H   0  0  0  0  0  0
  -19.6702  -27.3267   20.6786 H   0  0  0  0  0  0
  -17.4223  -26.6762   21.3998 H   0  0  0  0  0  0
  -18.0305  -26.0065   22.8977 H   0  0  0  0  0  0
  -19.7922  -30.7295   24.2274 H   0  0  0  0  0  0
  -17.4989  -31.6253   24.5187 H   0  0  0  0  0  0
  -15.5344  -30.2974   23.7642 H   0  0  0  0  0  0
  -15.8693  -28.0831   22.7002 H   0  0  0  0  0  0
  -24.5895  -30.7059   25.7842 H   0  0  0  0  0  0
  -24.8959  -32.2865   26.4951 H   0  0  0  0  0  0
  -25.8141  -30.8860   27.0199 H   0  0  0  0  0  0
  -26.2719  -29.6936   24.0981 H   0  0  0  0  0  0
  -27.4002  -29.7174   25.4352 H   0  0  0  0  0  0
  -27.8569  -30.4462   23.9111 H   0  0  0  0  0  0
  -27.2801  -33.3600   26.1988 H   0  0  0  0  0  0
  -28.3923  -32.6703   25.0255 H   0  0  0  0  0  0
  -28.0708  -31.8344   26.5363 H   0  0  0  0  0  0
  -28.2616  -38.0110   24.7519 H   0  0  0  0  0  0
  -28.1074  -36.2648   24.6281 H   0  0  0  0  0  0
  -27.2315  -37.1441   25.8879 H   0  0  0  0  0  0
  -20.9258  -29.8771   21.7026 H   0  0  0  0  0  0
  -26.0197  -38.2878   24.1402 H   0  0  0  0  0  0
  -29.6681  -19.1711   19.3803 H   0  0  0  0  0  0
  -31.2950  -17.5455   20.2941 H   0  0  0  0  0  0
  -30.4268  -19.1271   25.5073 H   0  0  0  0  0  0
  -28.8013  -20.5304   23.3988 H   0  0  0  0  0  0
  -32.2520  -17.1512   25.2132 H   0  0  0  0  0  0
  -27.6799  -24.7964   18.2554 H   0  0  0  0  0  0
  -29.3087  -24.4151   18.7226 H   0  0  0  0  0  0
  -30.0994  -24.6674   21.0587 H   0  0  0  0  0  0
  -29.0111  -25.1876   22.3212 H   0  0  0  0  0  0
  -27.9736  -22.3430   18.4386 H   0  0  0  0  0  0
  -26.7739  -22.9080   19.5751 H   0  0  0  0  0  0
  -27.6951  -23.1318   22.1795 H   0  0  0  0  0  0
  -29.3729  -22.7129   22.3929 H   0  0  0  0  0  0
  -27.1180  -25.0710   20.7526 H   0  0  0  0  0  0
  -27.2097  -20.9792   21.4099 H   0  0  0  0  0  0
  -27.7071  -20.4726   19.8297 H   0  0  0  0  0  0
  -32.9029  -16.5032   21.5314 H   0  0  0  0  0  0
  -33.6705  -16.4342   23.0835 H   0  0  0  0  0  0
  -32.0724  -14.6706   23.8635 H   0  0  0  0  0  0
  -32.9933  -14.1772   22.4769 H   0  0  0  0  0  0
  -30.2367  -14.0945   22.6537 H   0  0  0  0  0  0
  -29.5423  -22.1589   20.1313 H   0  0  0  0  0  0
  1 25  1  0  0  0
  1 30  2  0  0  0
  1 88  1  0  0  0
  2  3  1  0  0  0
  2 25  1  0  0  0
  2 90  1  0  0  0
  2 91  1  0  0  0
  3  4  1  0  0  0
  3 92  1  0  0  0
  3 93  1  0  0  0
  4  5  1  0  0  0
  4 94  1  0  0  0
  4 95  1  0  0  0
  5  6  1  0  0  0
  5 26  1  0  0  0
  5 96  1  0  0  0
  6 25  1  0  0  0
  6 97  1  0  0  0
  6 98  1  0  0  0
  7  8  2  0  0  0
  7 26  1  0  0  0
  7 29  1  0  0  0
  8  9  1  0  0  0
  8 22  1  0  0  0
  9 10  1  0  0  0
  9 27  2  0  0  0
 10 11  2  0  0  0
 10 15  1  0  0  0
 11 12  1  0  0  0
 11 99  1  0  0  0
 12 13  2  0  0  0
 12100  1  0  0  0
 13 14  1  0  0  0
 13 31  1  0  0  0
 14 15  2  0  0  0
 14101  1  0  0  0
 15102  1  0  0  0
 16 17  2  0  0  0
 16 21  1  0  0  0
 16 31  1  0  0  0
 17 18  1  0  0  0
 17103  1  0  0  0
 18 19  2  0  0  0
 18104  1  0  0  0
 19 20  1  0  0  0
 19 24  1  0  0  0
 20 21  2  0  0  0
 20105  1  0  0  0
 21 23  1  0  0  0
 22 28  1  0  0  0
 22 32  2  0  0  0
 26 27  1  0  0  0
 28106  1  0  0  0
 28107  1  0  0  0
 29108  1  0  0  0
 29109  1  0  0  0
 33 34  1  0  0  0
 33 66  1  0  0  0
 33 70  2  0  0  0
 34 36  1  0  0  0
 34 59  1  0  0  0
 34110  1  0  0  0
 35 44  2  0  0  0
 35 45  1  0  0  0
 35 68  1  0  0  0
 36 56  1  0  0  0
 36111  1  0  0  0
 37 39  1  0  0  0
 37 47  1  0  0  0
 37 66  1  0  0  0
 37112  1  0  0  0
 38 43  2  0  0  0
 38 46  1  0  0  0
 38 47  1  0  0  0
 39 64  1  0  0  0
 39 67  2  0  0  0
 40 52  1  0  0  0
 40 53  2  0  0  0
 40 58  1  0  0  0
 41113  1  0  0  0
 41114  1  0  0  0
 41115  1  0  0  0
 41 48  1  0  0  0
 42 43  1  0  0  0
 42 66  1  0  0  0
 42116  1  0  0  0
 42117  1  0  0  0
 43 44  1  0  0  0
 44118  1  0  0  0
 45 46  2  0  0  0
 45119  1  0  0  0
 46120  1  0  0  0
 47121  1  0  0  0
 47122  1  0  0  0
 48 56  1  0  0  0
 48 65  1  0  0  0
 48123  1  0  0  0
 49 50  1  0  0  0
 49 53  1  0  0  0
 49 64  1  0  0  0
 49124  1  0  0  0
 50 51  1  0  0  0
 50125  1  0  0  0
 50126  1  0  0  0
 51 52  1  0  0  0
 51127  1  0  0  0
 51128  1  0  0  0
 52129  1  0  0  0
 52130  1  0  0  0
 53 54  1  0  0  0
 54 55  2  0  0  0
 54131  1  0  0  0
 55 57  1  0  0  0
 55132  1  0  0  0
 56 69  2  0  0  0
 57 58  2  0  0  0
 57133  1  0  0  0
 58134  1  0  0  0
 59 60  1  0  0  0
 59 61  1  0  0  0
 59 62  1  0  0  0
 60135  1  0  0  0
 60136  1  0  0  0
 60137  1  0  0  0
 61138  1  0  0  0
 61139  1  0  0  0
 61140  1  0  0  0
 62141  1  0  0  0
 62142  1  0  0  0
 62143  1  0  0  0
 63 65  1  0  0  0
 63144  1  0  0  0
 63145  1  0  0  0
 63146  1  0  0  0
 64147  1  0  0  0
 65148  1  0  0  0
 68 83  1  0  0  0
 71 72  2  0  0  0
 71 77  1  0  0  0
 71149  1  0  0  0
 72 78  1  0  0  0
 72150  1  0  0  0
 73 75  2  0  0  0
 73 76  1  0  0  0
 73151  1  0  0  0
 74 76  1  0  0  0
 74 77  2  0  0  0
 74152  1  0  0  0
 75 87  1  0  0  0
 75153  1  0  0  0
 76 78  2  0  0  0
 77 84  1  0  0  0
 78 87  1  0  0  0
 79 81  1  0  0  0
 79 83  1  0  0  0
 79154  1  0  0  0
 79155  1  0  0  0
 80 82  1  0  0  0
 80 83  1  0  0  0
 80156  1  0  0  0
 80157  1  0  0  0
 81 89  1  0  0  0
 81158  1  0  0  0
 81159  1  0  0  0
 82 89  1  0  0  0
 82160  1  0  0  0
 82161  1  0  0  0
 83162  1  0  0  0
 84163  1  0  0  0
 84164  1  0  0  0
 84 89  1  0  0  0
 85 86  1  0  0  0
 85 87  1  0  0  0
 85165  1  0  0  0
 85166  1  0  0  0
 86 88  1  0  0  0
 86167  1  0  0  0
 86168  1  0  0  0
 88169  1  0  0  0
 89170  1  0  0  0
M  CHG  1  89   1
M  ISO  4   1 100  68 101  83 101  88 100
M  END
> <chiral flag>
0

> <version>
0

> <s_m_source_file>
/data/baiqing/PycharmProjects/Reinvent-master-3.2/result/LINK_invent/BTK/process_docking_weight1_custom_sum_contain_oxygen_bond_distance_aromatic_linkinvent_7_9_3/rearranged_h_0134.sdf

> <i_m_source_file_index>
41

> <r_mmod_Potential_Energy-OPLS-2005>
-178.931106567383

> <r_mmod_Stretch_Energy-OPLS-2005>
37.0232429504395

> <r_mmod_Bend_Energy-OPLS-2005>
96.860466003418

> <r_mmod_Torsional_Energy-OPLS-2005>
255.023971557617

> <r_mmod_Improper_Torsional_Energy-OPLS-2005>
9.91296291351318

> <r_mmod_Van_der_Waal_Energy-OPLS-2005>
149.021255493164

> <r_mmod_Electrostatic_Energy-OPLS-2005>
-310.760528564453

> <r_mmod_Solvation_Energy-OPLS-2005>
-432.438293457031

> <b_mmod_Minimization_Converged-OPLS-2005>
0

> <r_mmod_RMS_Derivative-OPLS-2005>
3.14504051208496

$$$$
41
                    3D
 Structure written by MMmdl.
167176  0  0  1  0            999 V2000
  -30.6941  -14.6273   20.4928 C   0  0  0  0  0  0
  -30.4155  -12.3882   19.4640 C   0  0  0  0  0  0
  -29.4986  -12.4956   18.2285 C   0  0  0  0  0  0
  -28.0244  -12.3375   18.6437 C   0  0  0  0  0  0
  -27.6448  -13.2305   19.8558 C   0  0  2  0  0  0
  -28.6904  -13.1422   20.9905 C   0  0  0  0  0  0
  -25.2485  -13.8186   20.5620 C   0  0  0  0  0  0
  -24.1799  -13.0443   20.9215 C   0  0  0  0  0  0
  -24.6397  -11.6923   20.8785 C   0  0  0  0  0  0
  -23.9073  -10.4297   21.0432 C   0  0  0  0  0  0
  -24.3623   -9.4205   21.9201 C   0  0  0  0  0  0
  -23.6297   -8.2239   22.0759 C   0  0  0  0  0  0
  -22.4279   -8.0284   21.3545 C   0  0  0  0  0  0
  -21.9921   -9.0260   20.4649 C   0  0  0  0  0  0
  -22.7250  -10.2139   20.3071 C   0  0  0  0  0  0
  -21.6852   -6.0740   22.5278 C   0  0  0  0  0  0
  -21.4012   -6.5642   23.8212 C   0  0  0  0  0  0
  -21.3660   -5.6796   24.9176 C   0  0  0  0  0  0
  -21.6045   -4.3059   24.7227 C   0  0  0  0  0  0
  -21.8817   -3.8151   23.4348 C   0  0  0  0  0  0
  -21.9189   -4.6967   22.3404 C   0  0  0  0  0  0
  -22.7821  -13.5228   21.1880 C   0  0  0  0  0  0
  -22.1660   -4.2153   21.0982 F   0  0  0  0  0  0
  -21.5630   -3.4543   25.7741 F   0  0  0  0  0  0
  -30.0036  -13.4468   20.4099 N   0  0  0  0  0  0
  -26.2950  -12.9413   20.3317 N   0  0  0  0  0  0
  -25.9333  -11.6557   20.5811 N   0  0  0  0  0  0
  -22.0473  -12.8211   22.0437 N   0  0  0  0  0  0
  -25.4083  -15.1877   20.3823 N   0  0  0  0  0  0
  -31.8759  -14.6859   20.1479 O   0  0  0  0  0  0
  -21.6641   -6.8883   21.4240 O   0  0  0  0  0  0
  -22.3496  -14.5528   20.6729 O   0  0  0  0  0  0
  -24.6275  -31.8611   23.2053 C   0  0  0  0  0  0
  -25.9122  -32.4782   23.8377 C   0  0  1  0  0  0
  -27.2126  -27.3193   20.1063 C   0  0  0  0  0  0
  -25.5939  -33.8584   24.2298 N   0  0  0  0  0  0
  -23.4196  -30.4895   21.5490 C   0  0  2  0  0  0
  -24.8620  -28.9529   20.1102 C   0  0  0  0  0  0
  -22.7481  -29.4632   22.4937 C   0  0  0  0  0  0
  -18.0288  -28.1379   22.8484 C   0  0  0  0  0  0
  -24.1485  -36.7299   23.2636 C   0  0  0  0  0  0
  -25.9634  -30.7917   21.3776 C   0  0  0  0  0  0
  -26.0350  -29.4220   20.7155 C   0  0  0  0  0  0
  -27.2146  -28.6176   20.7048 C   0  0  0  0  0  0
  -26.0132  -26.9136   19.4707 C   0  0  0  0  0  0
  -24.8537  -27.7040   19.4793 C   0  0  0  0  0  0
  -23.6321  -29.8334   20.1619 C   0  0  0  0  0  0
  -25.4108  -36.3087   24.0329 C   0  0  1  0  0  0
  -20.5891  -28.3689   23.1274 C   0  0  2  0  0  0
  -20.6775  -26.9409   22.5402 C   0  0  0  0  0  0
  -19.5745  -26.6382   21.5210 C   0  0  0  0  0  0
  -18.1927  -26.7922   22.1627 C   0  0  0  0  0  0
  -19.1541  -28.8851   23.2874 C   0  0  0  0  0  0
  -18.9467  -30.1456   23.8885 C   0  0  0  0  0  0
  -17.6468  -30.6581   24.0565 C   0  0  0  0  0  0
  -25.9048  -34.9455   23.5110 C   0  0  0  0  0  0
  -16.5358  -29.9079   23.6335 C   0  0  0  0  0  0
  -16.7275  -28.6502   23.0344 C   0  0  0  0  0  0
  -26.4501  -31.6585   25.0746 C   0  0  0  0  0  0
  -25.3728  -31.3728   26.1472 C   0  0  0  0  0  0
  -27.0347  -30.3009   24.6200 C   0  0  0  0  0  0
  -27.6063  -32.4325   25.7514 C   0  0  0  0  0  0
  -27.5577  -37.1801   24.8459 C   0  0  0  0  0  0
  -21.4192  -29.3054   22.3688 N   0  0  0  0  0  0
  -26.4282  -37.3784   23.9410 N   0  0  0  0  0  0
  -24.6895  -31.0628   22.1009 N   0  0  0  0  0  0
  -23.4211  -28.8148   23.2993 O   0  0  0  0  0  0
  -28.3113  -26.4415   20.1607 O   0  0  0  0  0  0
  -26.5612  -34.8917   22.4674 O   0  0  0  0  0  0
  -23.5438  -32.1412   23.7381 O   0  0  0  0  0  0
  -28.4384  -20.2588   21.6527 C   0  0  0  0  0  0
  -30.3260  -19.5778   19.8348 C   0  0  0  0  0  0
  -28.9557  -18.9287   21.6912 C   0  0  0  0  0  0
  -29.9154  -18.5363   20.7187 C   0  0  0  0  0  0
  -28.9260  -21.2228   20.7417 C   0  0  0  0  0  0
  -28.3516  -18.6086   24.1955 C   0  0  0  0  0  0
  -26.8992  -18.3734   24.6264 C   0  0  0  0  0  0
  -27.1447  -17.3181   22.4866 C   0  0  0  0  0  0
  -28.4978  -17.9728   22.7937 C   0  0  1  0  0  0
  -26.4613  -17.1348   23.8433 C   0  0  2  0  0  0
  -24.9399  -16.9603   23.7516 C   0  0  0  0  0  0
  -30.6718  -17.1496   20.6731 C   0  0  0  0  0  0
  -29.0319  -23.8371   20.4099 C   0  0  0  0  0  0
  -27.9916  -24.9949   20.0851 C   0  0  0  0  0  0
  -29.8725  -20.8699   19.8478 N   0  0  0  0  0  0
  -28.3721  -22.5370   20.7424 N   0  0  0  0  0  0
  -30.0162  -15.7920   20.7560 N   0  0  0  0  0  0
  -31.4609  -12.4729   19.1634 H   0  0  0  0  0  0
  -30.3202  -11.4068   19.9313 H   0  0  0  0  0  0
  -29.7633  -11.7342   17.4936 H   0  0  0  0  0  0
  -29.6441  -13.4601   17.7391 H   0  0  0  0  0  0
  -27.8680  -11.2880   18.8959 H   0  0  0  0  0  0
  -27.3673  -12.5469   17.7988 H   0  0  0  0  0  0
  -27.6492  -14.2570   19.4885 H   0  0  0  0  0  0
  -28.6967  -12.1463   21.4362 H   0  0  0  0  0  0
  -28.4444  -13.8355   21.7966 H   0  0  0  0  0  0
  -25.2763   -9.5680   22.4783 H   0  0  0  0  0  0
  -24.0005   -7.4629   22.7474 H   0  0  0  0  0  0
  -21.0854   -8.8779   19.8952 H   0  0  0  0  0  0
  -22.3708  -10.9684   19.6187 H   0  0  0  0  0  0
  -21.2003   -7.6149   23.9718 H   0  0  0  0  0  0
  -21.1486   -6.0529   25.9079 H   0  0  0  0  0  0
  -22.0594   -2.7612   23.2851 H   0  0  0  0  0  0
  -22.4096  -11.9873   22.4818 H   0  0  0  0  0  0
  -21.1094  -13.1236   22.2659 H   0  0  0  0  0  0
  -24.6340  -15.8332   20.4856 H   0  0  0  0  0  0
  -26.2442  -15.6261   20.0201 H   0  0  0  0  0  0
  -26.7194  -32.5445   23.1127 H   0  0  0  0  0  0
  -25.0099  -33.9738   25.0452 H   0  0  0  0  0  0
  -22.7132  -31.3109   21.4105 H   0  0  0  0  0  0
  -23.3743  -35.9633   23.3298 H   0  0  0  0  0  0
  -24.3579  -36.8924   22.2050 H   0  0  0  0  0  0
  -23.7247  -37.6506   23.6660 H   0  0  0  0  0  0
  -26.0947  -31.5564   20.6107 H   0  0  0  0  0  0
  -26.8444  -30.8382   22.0062 H   0  0  0  0  0  0
  -28.1129  -28.9705   21.1925 H   0  0  0  0  0  0
  -25.9252  -25.9664   18.9637 H   0  0  0  0  0  0
  -23.9563  -27.3414   18.9968 H   0  0  0  0  0  0
  -23.7531  -30.6144   19.4107 H   0  0  0  0  0  0
  -22.7510  -29.2667   19.8555 H   0  0  0  0  0  0
  -25.1279  -36.1945   25.0821 H   0  0  0  0  0  0
  -20.9983  -28.3258   24.1395 H   0  0  0  0  0  0
  -20.5684  -26.2292   23.3601 H   0  0  0  0  0  0
  -21.6639  -26.7431   22.1190 H   0  0  0  0  0  0
  -19.6906  -25.6291   21.1242 H   0  0  0  0  0  0
  -19.6681  -27.3194   20.6740 H   0  0  0  0  0  0
  -17.4196  -26.6677   21.4031 H   0  0  0  0  0  0
  -18.0321  -26.0050   22.9013 H   0  0  0  0  0  0
  -19.7940  -30.7282   24.2235 H   0  0  0  0  0  0
  -17.5019  -31.6259   24.5174 H   0  0  0  0  0  0
  -15.5359  -30.2982   23.7657 H   0  0  0  0  0  0
  -15.8673  -28.0834   22.7036 H   0  0  0  0  0  0
  -24.5900  -30.7078   25.7806 H   0  0  0  0  0  0
  -24.8916  -32.2891   26.4895 H   0  0  0  0  0  0
  -25.8043  -30.8911   27.0252 H   0  0  0  0  0  0
  -26.2927  -29.6765   24.1207 H   0  0  0  0  0  0
  -27.4035  -29.7258   25.4703 H   0  0  0  0  0  0
  -27.8796  -30.4297   23.9429 H   0  0  0  0  0  0
  -27.2676  -33.3630   26.2080 H   0  0  0  0  0  0
  -28.3874  -32.6883   25.0341 H   0  0  0  0  0  0
  -28.0725  -31.8459   26.5439 H   0  0  0  0  0  0
  -28.2577  -38.0113   24.7523 H   0  0  0  0  0  0
  -28.1096  -36.2650   24.6261 H   0  0  0  0  0  0
  -27.2303  -37.1418   25.8862 H   0  0  0  0  0  0
  -20.9369  -29.8819   21.6936 H   0  0  0  0  0  0
  -26.0166  -38.2857   24.1428 H   0  0  0  0  0  0
  -27.6745  -20.5424   22.3638 H   0  0  0  0  0  0
  -31.0887  -19.3792   19.0963 H   0  0  0  0  0  0
  -29.0216  -18.0988   24.8891 H   0  0  0  0  0  0
  -28.6223  -19.6638   24.2386 H   0  0  0  0  0  0
  -26.2915  -19.2331   24.3398 H   0  0  0  0  0  0
  -26.8010  -18.2466   25.7053 H   0  0  0  0  0  0
  -27.2613  -16.3817   21.9441 H   0  0  0  0  0  0
  -26.5418  -17.9829   21.8661 H   0  0  0  0  0  0
  -29.2399  -17.1830   22.9048 H   0  0  0  0  0  0
  -26.8879  -16.2537   24.3259 H   0  0  0  0  0  0
  -24.4650  -17.8187   23.2754 H   0  0  0  0  0  0
  -24.4986  -16.8430   24.7415 H   0  0  0  0  0  0
  -24.6832  -16.0740   23.1699 H   0  0  0  0  0  0
  -31.4136  -17.1861   21.4726 H   0  0  0  0  0  0
  -31.2601  -17.1566   19.7534 H   0  0  0  0  0  0
  -29.6361  -24.1283   21.2694 H   0  0  0  0  0  0
  -29.7211  -23.7061   19.5746 H   0  0  0  0  0  0
  -27.1416  -24.8361   20.7514 H   0  0  0  0  0  0
  -27.6398  -24.7783   19.0765 H   0  0  0  0  0  0
  -27.5861  -22.6454   21.3740 H   0  0  0  0  0  0
  -29.0315  -15.7349   20.9607 H   0  0  0  0  0  0
  1 25  1  0  0  0
  1 30  2  0  0  0
  1 87  1  0  0  0
  2  3  1  0  0  0
  2 25  1  0  0  0
  2 88  1  0  0  0
  2 89  1  0  0  0
  3  4  1  0  0  0
  3 90  1  0  0  0
  3 91  1  0  0  0
  4  5  1  0  0  0
  4 92  1  0  0  0
  4 93  1  0  0  0
  5  6  1  0  0  0
  5 26  1  0  0  0
  5 94  1  0  0  0
  6 25  1  0  0  0
  6 95  1  0  0  0
  6 96  1  0  0  0
  7  8  2  0  0  0
  7 26  1  0  0  0
  7 29  1  0  0  0
  8  9  1  0  0  0
  8 22  1  0  0  0
  9 10  1  0  0  0
  9 27  2  0  0  0
 10 11  2  0  0  0
 10 15  1  0  0  0
 11 12  1  0  0  0
 11 97  1  0  0  0
 12 13  2  0  0  0
 12 98  1  0  0  0
 13 14  1  0  0  0
 13 31  1  0  0  0
 14 15  2  0  0  0
 14 99  1  0  0  0
 15100  1  0  0  0
 16 17  2  0  0  0
 16 21  1  0  0  0
 16 31  1  0  0  0
 17 18  1  0  0  0
 17101  1  0  0  0
 18 19  2  0  0  0
 18102  1  0  0  0
 19 20  1  0  0  0
 19 24  1  0  0  0
 20 21  2  0  0  0
 20103  1  0  0  0
 21 23  1  0  0  0
 22 28  1  0  0  0
 22 32  2  0  0  0
 26 27  1  0  0  0
 28104  1  0  0  0
 28105  1  0  0  0
 29106  1  0  0  0
 29107  1  0  0  0
 33 34  1  0  0  0
 33 66  1  0  0  0
 33 70  2  0  0  0
 34 36  1  0  0  0
 34 59  1  0  0  0
 34108  1  0  0  0
 35 44  2  0  0  0
 35 45  1  0  0  0
 35 68  1  0  0  0
 36 56  1  0  0  0
 36109  1  0  0  0
 37 39  1  0  0  0
 37 47  1  0  0  0
 37 66  1  0  0  0
 37110  1  0  0  0
 38 43  2  0  0  0
 38 46  1  0  0  0
 38 47  1  0  0  0
 39 64  1  0  0  0
 39 67  2  0  0  0
 40 52  1  0  0  0
 40 53  2  0  0  0
 40 58  1  0  0  0
 41111  1  0  0  0
 41112  1  0  0  0
 41113  1  0  0  0
 41 48  1  0  0  0
 42 43  1  0  0  0
 42 66  1  0  0  0
 42114  1  0  0  0
 42115  1  0  0  0
 43 44  1  0  0  0
 44116  1  0  0  0
 45 46  2  0  0  0
 45117  1  0  0  0
 46118  1  0  0  0
 47119  1  0  0  0
 47120  1  0  0  0
 48 56  1  0  0  0
 48 65  1  0  0  0
 48121  1  0  0  0
 49 50  1  0  0  0
 49 53  1  0  0  0
 49 64  1  0  0  0
 49122  1  0  0  0
 50 51  1  0  0  0
 50123  1  0  0  0
 50124  1  0  0  0
 51 52  1  0  0  0
 51125  1  0  0  0
 51126  1  0  0  0
 52127  1  0  0  0
 52128  1  0  0  0
 53 54  1  0  0  0
 54 55  2  0  0  0
 54129  1  0  0  0
 55 57  1  0  0  0
 55130  1  0  0  0
 56 69  2  0  0  0
 57 58  2  0  0  0
 57131  1  0  0  0
 58132  1  0  0  0
 59 60  1  0  0  0
 59 61  1  0  0  0
 59 62  1  0  0  0
 60133  1  0  0  0
 60134  1  0  0  0
 60135  1  0  0  0
 61136  1  0  0  0
 61137  1  0  0  0
 61138  1  0  0  0
 62139  1  0  0  0
 62140  1  0  0  0
 62141  1  0  0  0
 63 65  1  0  0  0
 63142  1  0  0  0
 63143  1  0  0  0
 63144  1  0  0  0
 64145  1  0  0  0
 65146  1  0  0  0
 68 84  1  0  0  0
 71 73  2  0  0  0
 71 75  1  0  0  0
 71147  1  0  0  0
 72 74  2  0  0  0
 72 85  1  0  0  0
 72148  1  0  0  0
 73 74  1  0  0  0
 73 79  1  0  0  0
 74 82  1  0  0  0
 75 85  2  0  0  0
 75 86  1  0  0  0
 76 77  1  0  0  0
 76 79  1  0  0  0
 76149  1  0  0  0
 76150  1  0  0  0
 77 80  1  0  0  0
 77151  1  0  0  0
 77152  1  0  0  0
 78 79  1  0  0  0
 78 80  1  0  0  0
 78153  1  0  0  0
 78154  1  0  0  0
 79155  1  0  0  0
 80 81  1  0  0  0
 80156  1  0  0  0
 81157  1  0  0  0
 81158  1  0  0  0
 81159  1  0  0  0
 82 87  1  0  0  0
 82160  1  0  0  0
 82161  1  0  0  0
 83 84  1  0  0  0
 83 86  1  0  0  0
 83162  1  0  0  0
 83163  1  0  0  0
 84164  1  0  0  0
 84165  1  0  0  0
 86166  1  0  0  0
 87167  1  0  0  0
M  ISO  4   1 100  68 101  84 101  87 100
M  END
> <chiral flag>
0

> <version>
0

> <s_m_source_file>
/data/baiqing/PycharmProjects/Reinvent-master-3.2/result/LINK_invent/BTK/process_docking_weight1_custom_sum_contain_oxygen_bond_distance_aromatic_linkinvent_7_9_3/rearranged_h_0134.sdf

> <i_m_source_file_index>
42

> <r_mmod_Potential_Energy-OPLS-2005>
-83.0678787231445

> <r_mmod_Stretch_Energy-OPLS-2005>
76.6646041870117

> <r_mmod_Bend_Energy-OPLS-2005>
187.533828735352

> <r_mmod_Torsional_Energy-OPLS-2005>
258.181121826172

> <r_mmod_Improper_Torsional_Energy-OPLS-2005>
7.15930461883545

> <r_mmod_Van_der_Waal_Energy-OPLS-2005>
144.296875

> <r_mmod_Electrostatic_Energy-OPLS-2005>
-578.634582519531

> <r_mmod_Solvation_Energy-OPLS-2005>
-231.127655029297

> <b_mmod_Minimization_Converged-OPLS-2005>
0

> <r_mmod_RMS_Derivative-OPLS-2005>
0.94249814748764

$$$$
42
                    3D
 Structure written by MMmdl.
155163  0  0  1  0            999 V2000
  -30.5028  -15.0453   20.4036 C   0  0  0  0  0  0
  -30.4409  -12.6546   19.5043 C   0  0  0  0  0  0
  -29.5255  -12.5415   18.2622 C   0  0  0  0  0  0
  -28.0627  -12.3081   18.6835 C   0  0  0  0  0  0
  -27.6228  -13.2547   19.8303 C   0  0  2  0  0  0
  -28.6632  -13.3257   20.9670 C   0  0  0  0  0  0
  -25.2437  -13.8220   20.5710 C   0  0  0  0  0  0
  -24.1770  -13.0437   20.9241 C   0  0  0  0  0  0
  -24.6398  -11.6927   20.8766 C   0  0  0  0  0  0
  -23.9086  -10.4295   21.0413 C   0  0  0  0  0  0
  -24.3632   -9.4206   21.9187 C   0  0  0  0  0  0
  -23.6305   -8.2242   22.0754 C   0  0  0  0  0  0
  -22.4286   -8.0282   21.3542 C   0  0  0  0  0  0
  -21.9927   -9.0258   20.4645 C   0  0  0  0  0  0
  -22.7260  -10.2135   20.3057 C   0  0  0  0  0  0
  -21.6857   -6.0741   22.5280 C   0  0  0  0  0  0
  -21.4017   -6.5643   23.8214 C   0  0  0  0  0  0
  -21.3660   -5.6793   24.9175 C   0  0  0  0  0  0
  -21.6044   -4.3057   24.7225 C   0  0  0  0  0  0
  -21.8819   -3.8149   23.4346 C   0  0  0  0  0  0
  -21.9194   -4.6968   22.3403 C   0  0  0  0  0  0
  -22.7788  -13.5204   21.1887 C   0  0  0  0  0  0
  -22.1661   -4.2154   21.0981 F   0  0  0  0  0  0
  -21.5625   -3.4537   25.7733 F   0  0  0  0  0  0
  -29.9237  -13.7689   20.3578 N   0  0  0  0  0  0
  -26.2857  -12.9462   20.3216 N   0  0  0  0  0  0
  -25.9327  -11.6587   20.5729 N   0  0  0  0  0  0
  -22.0437  -12.8193   22.0442 N   0  0  0  0  0  0
  -25.4084  -15.1952   20.4110 N   0  0  0  0  0  0
  -31.7159  -15.0951   20.1695 O   0  0  0  0  0  0
  -21.6642   -6.8884   21.4241 O   0  0  0  0  0  0
  -22.3473  -14.5505   20.6726 O   0  0  0  0  0  0
  -24.6488  -31.8378   23.1818 C   0  0  0  0  0  0
  -25.9232  -32.4659   23.8235 C   0  0  1  0  0  0
  -27.2179  -27.0707   20.1741 C   0  0  0  0  0  0
  -25.5960  -33.8471   24.2149 N   0  0  0  0  0  0
  -23.4556  -30.4528   21.5292 C   0  0  2  0  0  0
  -24.9060  -28.8608   20.1170 C   0  0  0  0  0  0
  -22.7592  -29.4513   22.4848 C   0  0  0  0  0  0
  -18.0307  -28.1398   22.8475 C   0  0  0  0  0  0
  -24.1494  -36.7244   23.2645 C   0  0  0  0  0  0
  -26.0146  -30.6916   21.3881 C   0  0  0  0  0  0
  -26.0855  -29.2940   20.7354 C   0  0  0  0  0  0
  -27.2431  -28.4185   20.7381 C   0  0  0  0  0  0
  -26.0115  -26.7483   19.5183 C   0  0  0  0  0  0
  -24.8851  -27.6038   19.4906 C   0  0  0  0  0  0
  -23.6861  -29.7724   20.1528 C   0  0  0  0  0  0
  -25.4130  -36.3014   24.0309 C   0  0  1  0  0  0
  -20.5923  -28.3729   23.1228 C   0  0  2  0  0  0
  -20.6791  -26.9427   22.5406 C   0  0  0  0  0  0
  -19.5764  -26.6378   21.5216 C   0  0  0  0  0  0
  -18.1946  -26.7934   22.1627 C   0  0  0  0  0  0
  -19.1564  -28.8883   23.2841 C   0  0  0  0  0  0
  -18.9481  -30.1479   23.8865 C   0  0  0  0  0  0
  -17.6475  -30.6594   24.0556 C   0  0  0  0  0  0
  -25.9084  -34.9390   23.5044 C   0  0  0  0  0  0
  -16.5365  -29.9084   23.6338 C   0  0  0  0  0  0
  -16.7290  -28.6503   23.0356 C   0  0  0  0  0  0
  -26.4531  -31.6554   25.0706 C   0  0  0  0  0  0
  -25.3694  -31.3768   26.1388 C   0  0  0  0  0  0
  -27.0405  -30.2942   24.6331 C   0  0  0  0  0  0
  -27.6050  -32.4333   25.7497 C   0  0  0  0  0  0
  -27.5575  -37.1778   24.8463 C   0  0  0  0  0  0
  -21.4279  -29.3045   22.3594 N   0  0  0  0  0  0
  -26.4287  -37.3734   23.9405 N   0  0  0  0  0  0
  -24.7267  -31.0173   22.0880 N   0  0  0  0  0  0
  -23.4207  -28.8077   23.3034 O   0  0  0  0  0  0
  -28.2790  -26.0759   20.1925 O   0  0  0  0  0  0
  -26.5678  -34.8899   22.4629 O   0  0  0  0  0  0
  -23.5593  -32.1284   23.7001 O   0  0  0  0  0  0
  -29.8914  -23.4212   17.2399 C   0  0  0  0  0  0
  -29.2529  -24.0208   18.3287 C   0  0  0  0  0  0
  -29.8578  -21.3139   18.4166 C   0  0  0  0  0  0
  -30.1957  -22.0636   17.2817 C   0  0  0  0  0  0
  -28.8667  -23.3445   19.5155 C   0  0  0  0  0  0
  -29.1892  -21.8256   19.5635 C   0  0  0  0  0  0
  -30.8943  -21.4118   16.1039 C   0  0  0  0  0  0
  -28.1030  -24.5073   20.4278 C   0  0  0  0  0  0
  -28.9216  -19.1060   20.2051 C   0  0  0  0  0  0
  -30.0323  -17.8314   20.5226 C   0  0  0  0  0  0
  -29.0484  -20.6741   20.5096 N   0  0  0  0  0  0
  -29.7173  -16.2507   20.5096 N   0  0  0  0  0  0
  -31.4697  -12.8319   19.1874 H   0  0  0  0  0  0
  -30.4586  -11.7164   20.0612 H   0  0  0  0  0  0
  -29.8640  -11.7333   17.6124 H   0  0  0  0  0  0
  -29.5945  -13.4578   17.6737 H   0  0  0  0  0  0
  -27.9786  -11.2714   19.0120 H   0  0  0  0  0  0
  -27.3979  -12.4109   17.8251 H   0  0  0  0  0  0
  -27.5716  -14.2470   19.3809 H   0  0  0  0  0  0
  -28.7766  -12.3602   21.4622 H   0  0  0  0  0  0
  -28.3455  -14.0340   21.7342 H   0  0  0  0  0  0
  -25.2776   -9.5679   22.4764 H   0  0  0  0  0  0
  -24.0010   -7.4635   22.7477 H   0  0  0  0  0  0
  -21.0853   -8.8786   19.8957 H   0  0  0  0  0  0
  -22.3721  -10.9676   19.6169 H   0  0  0  0  0  0
  -21.2011   -7.6151   23.9722 H   0  0  0  0  0  0
  -21.1480   -6.0520   25.9077 H   0  0  0  0  0  0
  -22.0598   -2.7612   23.2843 H   0  0  0  0  0  0
  -22.4062  -11.9867   22.4846 H   0  0  0  0  0  0
  -21.1050  -13.1209   22.2639 H   0  0  0  0  0  0
  -24.6333  -15.8417   20.5125 H   0  0  0  0  0  0
  -26.2405  -15.6331   20.0379 H   0  0  0  0  0  0
  -26.7296  -32.5248   23.0959 H   0  0  0  0  0  0
  -25.0063  -33.9573   25.0268 H   0  0  0  0  0  0
  -22.7616  -31.2805   21.3678 H   0  0  0  0  0  0
  -23.3763  -35.9568   23.3284 H   0  0  0  0  0  0
  -24.3575  -36.8905   22.2064 H   0  0  0  0  0  0
  -23.7242  -37.6428   23.6702 H   0  0  0  0  0  0
  -26.1753  -31.4400   20.6108 H   0  0  0  0  0  0
  -26.8826  -30.7473   22.0334 H   0  0  0  0  0  0
  -28.1459  -28.7514   21.2312 H   0  0  0  0  0  0
  -25.9235  -25.7879   19.0307 H   0  0  0  0  0  0
  -23.9855  -27.2682   18.9930 H   0  0  0  0  0  0
  -23.8301  -30.5422   19.3939 H   0  0  0  0  0  0
  -22.7986  -29.2186   19.8410 H   0  0  0  0  0  0
  -25.1321  -36.1832   25.0801 H   0  0  0  0  0  0
  -21.0010  -28.3322   24.1351 H   0  0  0  0  0  0
  -20.5688  -26.2343   23.3629 H   0  0  0  0  0  0
  -21.6656  -26.7430   22.1203 H   0  0  0  0  0  0
  -19.6928  -25.6281   21.1264 H   0  0  0  0  0  0
  -19.6702  -27.3171   20.6731 H   0  0  0  0  0  0
  -17.4216  -26.6674   21.4028 H   0  0  0  0  0  0
  -18.0347  -26.0082   22.9030 H   0  0  0  0  0  0
  -19.7956  -30.7304   24.2219 H   0  0  0  0  0  0
  -17.5027  -31.6269   24.5166 H   0  0  0  0  0  0
  -15.5363  -30.2974   23.7681 H   0  0  0  0  0  0
  -15.8691  -28.0809   22.7087 H   0  0  0  0  0  0
  -24.5872  -30.7123   25.7698 H   0  0  0  0  0  0
  -24.8886  -32.2960   26.4744 H   0  0  0  0  0  0
  -25.7953  -30.8975   27.0211 H   0  0  0  0  0  0
  -26.3036  -29.6649   24.1327 H   0  0  0  0  0  0
  -27.3983  -29.7265   25.4931 H   0  0  0  0  0  0
  -27.8957  -30.4163   23.9681 H   0  0  0  0  0  0
  -27.2635  -33.3660   26.2001 H   0  0  0  0  0  0
  -28.3899  -32.6852   25.0353 H   0  0  0  0  0  0
  -28.0673  -31.8507   26.5476 H   0  0  0  0  0  0
  -28.2579  -38.0087   24.7511 H   0  0  0  0  0  0
  -28.1084  -36.2614   24.6288 H   0  0  0  0  0  0
  -27.2290  -37.1421   25.8865 H   0  0  0  0  0  0
  -20.9507  -29.8743   21.6747 H   0  0  0  0  0  0
  -26.0147  -38.2800   24.1407 H   0  0  0  0  0  0
  -30.1457  -24.0140   16.3716 H   0  0  0  0  0  0
  -29.0424  -25.0742   18.2155 H   0  0  0  0  0  0
  -30.1652  -20.2799   18.3802 H   0  0  0  0  0  0
  -30.4431  -21.7318   15.1639 H   0  0  0  0  0  0
  -30.8282  -20.3243   16.1490 H   0  0  0  0  0  0
  -31.9488  -21.6883   16.0877 H   0  0  0  0  0  0
  -28.3925  -24.3203   21.4619 H   0  0  0  0  0  0
  -27.0391  -24.2760   20.3926 H   0  0  0  0  0  0
  -28.0262  -18.8276   20.7621 H   0  0  0  0  0  0
  -28.6032  -19.0017   19.1670 H   0  0  0  0  0  0
  -30.4342  -18.0175   21.5190 H   0  0  0  0  0  0
  -30.8838  -17.9747   19.8562 H   0  0  0  0  0  0
  -28.6810  -20.9341   21.4235 H   0  0  0  0  0  0
  -28.7368  -16.0484   20.6350 H   0  0  0  0  0  0
  1 25  1  0  0  0
  1 30  2  0  0  0
  1 82  1  0  0  0
  2  3  1  0  0  0
  2 25  1  0  0  0
  2 83  1  0  0  0
  2 84  1  0  0  0
  3  4  1  0  0  0
  3 85  1  0  0  0
  3 86  1  0  0  0
  4  5  1  0  0  0
  4 87  1  0  0  0
  4 88  1  0  0  0
  5  6  1  0  0  0
  5 26  1  0  0  0
  5 89  1  0  0  0
  6 25  1  0  0  0
  6 90  1  0  0  0
  6 91  1  0  0  0
  7  8  2  0  0  0
  7 26  1  0  0  0
  7 29  1  0  0  0
  8  9  1  0  0  0
  8 22  1  0  0  0
  9 10  1  0  0  0
  9 27  2  0  0  0
 10 11  2  0  0  0
 10 15  1  0  0  0
 11 12  1  0  0  0
 11 92  1  0  0  0
 12 13  2  0  0  0
 12 93  1  0  0  0
 13 14  1  0  0  0
 13 31  1  0  0  0
 14 15  2  0  0  0
 14 94  1  0  0  0
 15 95  1  0  0  0
 16 17  2  0  0  0
 16 21  1  0  0  0
 16 31  1  0  0  0
 17 18  1  0  0  0
 17 96  1  0  0  0
 18 19  2  0  0  0
 18 97  1  0  0  0
 19 20  1  0  0  0
 19 24  1  0  0  0
 20 21  2  0  0  0
 20 98  1  0  0  0
 21 23  1  0  0  0
 22 28  1  0  0  0
 22 32  2  0  0  0
 26 27  1  0  0  0
 28 99  1  0  0  0
 28100  1  0  0  0
 29101  1  0  0  0
 29102  1  0  0  0
 33 34  1  0  0  0
 33 66  1  0  0  0
 33 70  2  0  0  0
 34 36  1  0  0  0
 34 59  1  0  0  0
 34103  1  0  0  0
 35 44  2  0  0  0
 35 45  1  0  0  0
 35 68  1  0  0  0
 36 56  1  0  0  0
 36104  1  0  0  0
 37 39  1  0  0  0
 37 47  1  0  0  0
 37 66  1  0  0  0
 37105  1  0  0  0
 38 43  2  0  0  0
 38 46  1  0  0  0
 38 47  1  0  0  0
 39 64  1  0  0  0
 39 67  2  0  0  0
 40 52  1  0  0  0
 40 53  2  0  0  0
 40 58  1  0  0  0
 41106  1  0  0  0
 41107  1  0  0  0
 41108  1  0  0  0
 41 48  1  0  0  0
 42 43  1  0  0  0
 42 66  1  0  0  0
 42109  1  0  0  0
 42110  1  0  0  0
 43 44  1  0  0  0
 44111  1  0  0  0
 45 46  2  0  0  0
 45112  1  0  0  0
 46113  1  0  0  0
 47114  1  0  0  0
 47115  1  0  0  0
 48 56  1  0  0  0
 48 65  1  0  0  0
 48116  1  0  0  0
 49 50  1  0  0  0
 49 53  1  0  0  0
 49 64  1  0  0  0
 49117  1  0  0  0
 50 51  1  0  0  0
 50118  1  0  0  0
 50119  1  0  0  0
 51 52  1  0  0  0
 51120  1  0  0  0
 51121  1  0  0  0
 52122  1  0  0  0
 52123  1  0  0  0
 53 54  1  0  0  0
 54 55  2  0  0  0
 54124  1  0  0  0
 55 57  1  0  0  0
 55125  1  0  0  0
 56 69  2  0  0  0
 57 58  2  0  0  0
 57126  1  0  0  0
 58127  1  0  0  0
 59 60  1  0  0  0
 59 61  1  0  0  0
 59 62  1  0  0  0
 60128  1  0  0  0
 60129  1  0  0  0
 60130  1  0  0  0
 61131  1  0  0  0
 61132  1  0  0  0
 61133  1  0  0  0
 62134  1  0  0  0
 62135  1  0  0  0
 62136  1  0  0  0
 63 65  1  0  0  0
 63137  1  0  0  0
 63138  1  0  0  0
 63139  1  0  0  0
 64140  1  0  0  0
 65141  1  0  0  0
 68 78  1  0  0  0
 71 72  2  0  0  0
 71 74  1  0  0  0
 71142  1  0  0  0
 72 75  1  0  0  0
 72143  1  0  0  0
 73 74  2  0  0  0
 73 76  1  0  0  0
 73144  1  0  0  0
 74 77  1  0  0  0
 75 76  2  0  0  0
 75 78  1  0  0  0
 76 81  1  0  0  0
 77145  1  0  0  0
 77146  1  0  0  0
 77147  1  0  0  0
 78148  1  0  0  0
 78149  1  0  0  0
 79 80  1  0  0  0
 79 81  1  0  0  0
 79150  1  0  0  0
 79151  1  0  0  0
 80 82  1  0  0  0
 80152  1  0  0  0
 80153  1  0  0  0
 81154  1  0  0  0
 82155  1  0  0  0
M  ISO  4   1 100  68 101  78 101  82 100
M  END
> <chiral flag>
0

> <version>
0

> <s_m_source_file>
/data/baiqing/PycharmProjects/Reinvent-master-3.2/result/LINK_invent/BTK/process_docking_weight1_custom_sum_contain_oxygen_bond_distance_aromatic_linkinvent_7_9_3/rearranged_h_0134.sdf

> <i_m_source_file_index>
43

> <r_mmod_Potential_Energy-OPLS-2005>
736.593444824219

> <r_mmod_Stretch_Energy-OPLS-2005>
360.151611328125

> <r_mmod_Bend_Energy-OPLS-2005>
374.447570800781

> <r_mmod_Torsional_Energy-OPLS-2005>
218.107284545898

> <r_mmod_Improper_Torsional_Energy-OPLS-2005>
5.59298229217529

> <r_mmod_Van_der_Waal_Energy-OPLS-2005>
135.607788085938

> <r_mmod_Electrostatic_Energy-OPLS-2005>
-385.558929443359

> <r_mmod_Solvation_Energy-OPLS-2005>
-228.922744750977

> <b_mmod_Minimization_Converged-OPLS-2005>
0

> <r_mmod_RMS_Derivative-OPLS-2005>
0.629614651203156

$$$$
43
                    3D
 Structure written by MMmdl.
157166  0  0  1  0            999 V2000
  -30.4287  -15.1832   20.3781 C   0  0  0  0  0  0
  -30.4497  -12.7485   19.5100 C   0  0  0  0  0  0
  -29.5356  -12.5607   18.2731 C   0  0  0  0  0  0
  -28.0771  -12.3024   18.6976 C   0  0  0  0  0  0
  -27.6183  -13.2619   19.8245 C   0  0  2  0  0  0
  -28.6572  -13.3813   20.9586 C   0  0  0  0  0  0
  -25.2415  -13.8221   20.5718 C   0  0  0  0  0  0
  -24.1756  -13.0427   20.9247 C   0  0  0  0  0  0
  -24.6395  -11.6918   20.8757 C   0  0  0  0  0  0
  -23.9084  -10.4286   21.0401 C   0  0  0  0  0  0
  -24.3630   -9.4203   21.9182 C   0  0  0  0  0  0
  -23.6302   -8.2237   22.0751 C   0  0  0  0  0  0
  -22.4287   -8.0276   21.3535 C   0  0  0  0  0  0
  -21.9923   -9.0252   20.4641 C   0  0  0  0  0  0
  -22.7253  -10.2130   20.3051 C   0  0  0  0  0  0
  -21.6855   -6.0735   22.5275 C   0  0  0  0  0  0
  -21.4015   -6.5639   23.8209 C   0  0  0  0  0  0
  -21.3662   -5.6790   24.9172 C   0  0  0  0  0  0
  -21.6046   -4.3052   24.7221 C   0  0  0  0  0  0
  -21.8819   -3.8144   23.4342 C   0  0  0  0  0  0
  -21.9194   -4.6962   22.3399 C   0  0  0  0  0  0
  -22.7774  -13.5193   21.1895 C   0  0  0  0  0  0
  -22.1659   -4.2148   21.0976 F   0  0  0  0  0  0
  -21.5633   -3.4535   25.7731 F   0  0  0  0  0  0
  -29.8981  -13.8720   20.3393 N   0  0  0  0  0  0
  -26.2840  -12.9473   20.3198 N   0  0  0  0  0  0
  -25.9331  -11.6596   20.5716 N   0  0  0  0  0  0
  -22.0419  -12.8188   22.0449 N   0  0  0  0  0  0
  -25.4048  -15.1952   20.4135 N   0  0  0  0  0  0
  -31.6512  -15.2448   20.1839 O   0  0  0  0  0  0
  -21.6644   -6.8878   21.4238 O   0  0  0  0  0  0
  -22.3459  -14.5494   20.6730 O   0  0  0  0  0  0
  -24.6586  -31.8279   23.1738 C   0  0  0  0  0  0
  -25.9286  -32.4609   23.8187 C   0  0  1  0  0  0
  -27.2204  -26.9763   20.1791 C   0  0  0  0  0  0
  -25.5967  -33.8422   24.2095 N   0  0  0  0  0  0
  -23.4711  -30.4406   21.5221 C   0  0  2  0  0  0
  -24.9233  -28.8337   20.1141 C   0  0  0  0  0  0
  -22.7646  -29.4460   22.4802 C   0  0  0  0  0  0
  -18.0317  -28.1405   22.8468 C   0  0  0  0  0  0
  -24.1497  -36.7219   23.2646 C   0  0  0  0  0  0
  -26.0373  -30.6512   21.3953 C   0  0  0  0  0  0
  -26.1066  -29.2453   20.7401 C   0  0  0  0  0  0
  -27.2529  -28.3379   20.7449 C   0  0  0  0  0  0
  -26.0065  -26.7014   19.5120 C   0  0  0  0  0  0
  -24.8956  -27.5811   19.4803 C   0  0  0  0  0  0
  -23.7079  -29.7565   20.1479 C   0  0  0  0  0  0
  -25.4135  -36.2980   24.0303 C   0  0  1  0  0  0
  -20.5940  -28.3742   23.1200 C   0  0  2  0  0  0
  -20.6794  -26.9431   22.5401 C   0  0  0  0  0  0
  -19.5769  -26.6376   21.5211 C   0  0  0  0  0  0
  -18.1952  -26.7938   22.1621 C   0  0  0  0  0  0
  -19.1579  -28.8894   23.2820 C   0  0  0  0  0  0
  -18.9490  -30.1485   23.8852 C   0  0  0  0  0  0
  -17.6483  -30.6595   24.0552 C   0  0  0  0  0  0
  -25.9093  -34.9360   23.5018 C   0  0  0  0  0  0
  -16.5373  -29.9082   23.6341 C   0  0  0  0  0  0
  -16.7299  -28.6503   23.0358 C   0  0  0  0  0  0
  -26.4552  -31.6540   25.0701 C   0  0  0  0  0  0
  -25.3689  -31.3776   26.1364 C   0  0  0  0  0  0
  -27.0440  -30.2911   24.6404 C   0  0  0  0  0  0
  -27.6054  -32.4338   25.7500 C   0  0  0  0  0  0
  -27.5572  -37.1767   24.8465 C   0  0  0  0  0  0
  -21.4320  -29.3042   22.3555 N   0  0  0  0  0  0
  -26.4282  -37.3711   23.9407 N   0  0  0  0  0  0
  -24.7432  -30.9989   22.0844 N   0  0  0  0  0  0
  -23.4217  -28.8027   23.3023 O   0  0  0  0  0  0
  -28.2485  -25.9126   20.2341 O   0  0  0  0  0  0
  -26.5704  -34.8885   22.4614 O   0  0  0  0  0  0
  -23.5667  -32.1225   23.6864 O   0  0  0  0  0  0
  -28.2972  -20.2402   19.7474 C   0  0  0  0  0  0
  -28.4574  -18.7634   19.7629 C   0  0  0  0  0  0
  -30.4076  -18.9446   20.9664 C   0  0  0  0  0  0
  -29.1734  -21.2215   20.3648 C   0  0  0  0  0  0
  -30.2428  -20.4243   20.9880 C   0  0  0  0  0  0
  -29.5333  -17.9683   20.3522 C   0  0  0  0  0  0
  -30.2374  -23.4620   21.2858 C   0  0  0  0  0  0
  -31.5251  -22.6221   21.3084 C   0  0  0  0  0  0
  -29.1895  -22.9670   20.2756 C   0  0  2  0  0  0
  -31.3164  -21.1696   21.7765 C   0  0  1  0  0  0
  -28.0158  -24.2950   20.2298 C   0  0  0  0  0  0
  -29.5583  -16.3646   20.3978 N   0  0  0  0  0  0
  -31.0052  -21.1042   23.2127 N   0  3  0  0  0  0
  -31.4691  -12.9586   19.1827 H   0  0  0  0  0  0
  -30.5102  -11.8282   20.0933 H   0  0  0  0  0  0
  -29.8987  -11.7402   17.6528 H   0  0  0  0  0  0
  -29.5795  -13.4570   17.6523 H   0  0  0  0  0  0
  -28.0137  -11.2719   19.0485 H   0  0  0  0  0  0
  -27.4097  -12.3721   17.8381 H   0  0  0  0  0  0
  -27.5492  -14.2414   19.3498 H   0  0  0  0  0  0
  -28.8052  -12.4269   21.4660 H   0  0  0  0  0  0
  -28.3148  -14.0862   21.7179 H   0  0  0  0  0  0
  -25.2771   -9.5684   22.4763 H   0  0  0  0  0  0
  -24.0006   -7.4636   22.7481 H   0  0  0  0  0  0
  -21.0845   -8.8778   19.8959 H   0  0  0  0  0  0
  -22.3703  -10.9674   19.6163 H   0  0  0  0  0  0
  -21.2005   -7.6147   23.9713 H   0  0  0  0  0  0
  -21.1486   -6.0517   25.9076 H   0  0  0  0  0  0
  -22.0598   -2.7607   23.2838 H   0  0  0  0  0  0
  -22.4039  -11.9857   22.4853 H   0  0  0  0  0  0
  -21.1033  -13.1206   22.2642 H   0  0  0  0  0  0
  -24.6307  -15.8410   20.5260 H   0  0  0  0  0  0
  -26.2345  -15.6375   20.0428 H   0  0  0  0  0  0
  -26.7361  -32.5163   23.0910 H   0  0  0  0  0  0
  -25.0051  -33.9505   25.0202 H   0  0  0  0  0  0
  -22.7816  -31.2704   21.3536 H   0  0  0  0  0  0
  -23.3764  -35.9543   23.3283 H   0  0  0  0  0  0
  -24.3575  -36.8889   22.2065 H   0  0  0  0  0  0
  -23.7249  -37.6400   23.6716 H   0  0  0  0  0  0
  -26.2115  -31.3957   20.6170 H   0  0  0  0  0  0
  -26.8998  -30.7064   22.0480 H   0  0  0  0  0  0
  -28.1535  -28.6533   21.2527 H   0  0  0  0  0  0
  -25.8866  -25.7447   19.0251 H   0  0  0  0  0  0
  -23.9956  -27.2614   18.9731 H   0  0  0  0  0  0
  -23.8596  -30.5241   19.3883 H   0  0  0  0  0  0
  -22.8186  -29.2078   19.8327 H   0  0  0  0  0  0
  -25.1333  -36.1780   25.0794 H   0  0  0  0  0  0
  -21.0024  -28.3343   24.1323 H   0  0  0  0  0  0
  -20.5671  -26.2362   23.3636 H   0  0  0  0  0  0
  -21.6659  -26.7410   22.1210 H   0  0  0  0  0  0
  -19.6927  -25.6275   21.1269 H   0  0  0  0  0  0
  -19.6705  -27.3160   20.6720 H   0  0  0  0  0  0
  -17.4220  -26.6675   21.4029 H   0  0  0  0  0  0
  -18.0351  -26.0092   22.9029 H   0  0  0  0  0  0
  -19.7963  -30.7313   24.2204 H   0  0  0  0  0  0
  -17.5032  -31.6267   24.5163 H   0  0  0  0  0  0
  -15.5371  -30.2966   23.7687 H   0  0  0  0  0  0
  -15.8700  -28.0803   22.7097 H   0  0  0  0  0  0
  -24.5878  -30.7122   25.7671 H   0  0  0  0  0  0
  -24.8866  -32.2968   26.4693 H   0  0  0  0  0  0
  -25.7924  -30.9001   27.0206 H   0  0  0  0  0  0
  -26.3092  -29.6596   24.1397 H   0  0  0  0  0  0
  -27.3971  -29.7272   25.5047 H   0  0  0  0  0  0
  -27.9036  -30.4106   23.9807 H   0  0  0  0  0  0
  -27.2632  -33.3675   26.1977 H   0  0  0  0  0  0
  -28.3916  -32.6840   25.0367 H   0  0  0  0  0  0
  -28.0664  -31.8529   26.5498 H   0  0  0  0  0  0
  -28.2574  -38.0079   24.7509 H   0  0  0  0  0  0
  -28.1084  -36.2602   24.6294 H   0  0  0  0  0  0
  -27.2286  -37.1414   25.8867 H   0  0  0  0  0  0
  -20.9568  -29.8737   21.6692 H   0  0  0  0  0  0
  -26.0132  -38.2773   24.1402 H   0  0  0  0  0  0
  -27.4422  -20.6261   19.2096 H   0  0  0  0  0  0
  -27.6772  -18.2079   19.2616 H   0  0  0  0  0  0
  -31.2594  -18.5354   21.4926 H   0  0  0  0  0  0
  -30.4963  -24.4967   21.0574 H   0  0  0  0  0  0
  -29.7930  -23.4847   22.2811 H   0  0  0  0  0  0
  -32.2726  -23.1078   21.9366 H   0  0  0  0  0  0
  -31.9527  -22.6094   20.3047 H   0  0  0  0  0  0
  -29.6652  -23.0845   19.3012 H   0  0  0  0  0  0
  -32.2648  -20.6476   21.6343 H   0  0  0  0  0  0
  -27.3554  -24.1258   21.0800 H   0  0  0  0  0  0
  -27.3920  -24.0943   19.3591 H   0  0  0  0  0  0
  -28.6145  -16.0107   20.3825 H   0  0  0  0  0  0
  -30.1224  -21.5382   23.4069 H   0  0  0  0  0  0
  -31.7212  -21.5568   23.7510 H   0  0  0  0  0  0
  -30.9526  -20.1460   23.5062 H   0  0  0  0  0  0
  1 25  1  0  0  0
  1 30  2  0  0  0
  1 82  1  0  0  0
  2  3  1  0  0  0
  2 25  1  0  0  0
  2 84  1  0  0  0
  2 85  1  0  0  0
  3  4  1  0  0  0
  3 86  1  0  0  0
  3 87  1  0  0  0
  4  5  1  0  0  0
  4 88  1  0  0  0
  4 89  1  0  0  0
  5  6  1  0  0  0
  5 26  1  0  0  0
  5 90  1  0  0  0
  6 25  1  0  0  0
  6 91  1  0  0  0
  6 92  1  0  0  0
  7  8  2  0  0  0
  7 26  1  0  0  0
  7 29  1  0  0  0
  8  9  1  0  0  0
  8 22  1  0  0  0
  9 10  1  0  0  0
  9 27  2  0  0  0
 10 11  2  0  0  0
 10 15  1  0  0  0
 11 12  1  0  0  0
 11 93  1  0  0  0
 12 13  2  0  0  0
 12 94  1  0  0  0
 13 14  1  0  0  0
 13 31  1  0  0  0
 14 15  2  0  0  0
 14 95  1  0  0  0
 15 96  1  0  0  0
 16 17  2  0  0  0
 16 21  1  0  0  0
 16 31  1  0  0  0
 17 18  1  0  0  0
 17 97  1  0  0  0
 18 19  2  0  0  0
 18 98  1  0  0  0
 19 20  1  0  0  0
 19 24  1  0  0  0
 20 21  2  0  0  0
 20 99  1  0  0  0
 21 23  1  0  0  0
 22 28  1  0  0  0
 22 32  2  0  0  0
 26 27  1  0  0  0
 28100  1  0  0  0
 28101  1  0  0  0
 29102  1  0  0  0
 29103  1  0  0  0
 33 34  1  0  0  0
 33 66  1  0  0  0
 33 70  2  0  0  0
 34 36  1  0  0  0
 34 59  1  0  0  0
 34104  1  0  0  0
 35 44  2  0  0  0
 35 45  1  0  0  0
 35 68  1  0  0  0
 36 56  1  0  0  0
 36105  1  0  0  0
 37 39  1  0  0  0
 37 47  1  0  0  0
 37 66  1  0  0  0
 37106  1  0  0  0
 38 43  2  0  0  0
 38 46  1  0  0  0
 38 47  1  0  0  0
 39 64  1  0  0  0
 39 67  2  0  0  0
 40 52  1  0  0  0
 40 53  2  0  0  0
 40 58  1  0  0  0
 41107  1  0  0  0
 41108  1  0  0  0
 41109  1  0  0  0
 41 48  1  0  0  0
 42 43  1  0  0  0
 42 66  1  0  0  0
 42110  1  0  0  0
 42111  1  0  0  0
 43 44  1  0  0  0
 44112  1  0  0  0
 45 46  2  0  0  0
 45113  1  0  0  0
 46114  1  0  0  0
 47115  1  0  0  0
 47116  1  0  0  0
 48 56  1  0  0  0
 48 65  1  0  0  0
 48117  1  0  0  0
 49 50  1  0  0  0
 49 53  1  0  0  0
 49 64  1  0  0  0
 49118  1  0  0  0
 50 51  1  0  0  0
 50119  1  0  0  0
 50120  1  0  0  0
 51 52  1  0  0  0
 51121  1  0  0  0
 51122  1  0  0  0
 52123  1  0  0  0
 52124  1  0  0  0
 53 54  1  0  0  0
 54 55  2  0  0  0
 54125  1  0  0  0
 55 57  1  0  0  0
 55126  1  0  0  0
 56 69  2  0  0  0
 57 58  2  0  0  0
 57127  1  0  0  0
 58128  1  0  0  0
 59 60  1  0  0  0
 59 61  1  0  0  0
 59 62  1  0  0  0
 60129  1  0  0  0
 60130  1  0  0  0
 60131  1  0  0  0
 61132  1  0  0  0
 61133  1  0  0  0
 61134  1  0  0  0
 62135  1  0  0  0
 62136  1  0  0  0
 62137  1  0  0  0
 63 65  1  0  0  0
 63138  1  0  0  0
 63139  1  0  0  0
 63140  1  0  0  0
 64141  1  0  0  0
 65142  1  0  0  0
 68 81  1  0  0  0
 71 72  2  0  0  0
 71 74  1  0  0  0
 71143  1  0  0  0
 72 76  1  0  0  0
 72144  1  0  0  0
 73 75  1  0  0  0
 73 76  2  0  0  0
 73145  1  0  0  0
 74 75  2  0  0  0
 74 79  1  0  0  0
 75 80  1  0  0  0
 76 82  1  0  0  0
 77 78  1  0  0  0
 77 79  1  0  0  0
 77146  1  0  0  0
 77147  1  0  0  0
 78 80  1  0  0  0
 78148  1  0  0  0
 78149  1  0  0  0
 79 81  1  0  0  0
 79150  1  0  0  0
 80 83  1  0  0  0
 80151  1  0  0  0
 81152  1  0  0  0
 81153  1  0  0  0
 82154  1  0  0  0
 83155  1  0  0  0
 83156  1  0  0  0
 83157  1  0  0  0
M  CHG  1  83   1
M  ISO  4   1 100  68 101  81 101  82 100
M  END
> <chiral flag>
0

> <version>
0

> <s_m_source_file>
/data/baiqing/PycharmProjects/Reinvent-master-3.2/result/LINK_invent/BTK/process_docking_weight1_custom_sum_contain_oxygen_bond_distance_aromatic_linkinvent_7_9_3/rearranged_h_0134.sdf

> <i_m_source_file_index>
44

> <r_mmod_Potential_Energy-OPLS-2005>
775.864562988281

> <r_mmod_Stretch_Energy-OPLS-2005>
460.179901123047

> <r_mmod_Bend_Energy-OPLS-2005>
412.664337158203

> <r_mmod_Torsional_Energy-OPLS-2005>
238.374221801758

> <r_mmod_Improper_Torsional_Energy-OPLS-2005>
6.70070600509644

> <r_mmod_Van_der_Waal_Energy-OPLS-2005>
129.448760986328

> <r_mmod_Electrostatic_Energy-OPLS-2005>
-355.347351074219

> <r_mmod_Solvation_Energy-OPLS-2005>
-498.112213134766

> <b_mmod_Minimization_Converged-OPLS-2005>
0

> <r_mmod_RMS_Derivative-OPLS-2005>
0.800136208534241

$$$$
44
                    3D
 Structure written by MMmdl.
164173  0  0  1  0            999 V2000
  -30.7628  -14.4004   20.6262 C   0  0  0  0  0  0
  -30.4083  -12.2868   19.4080 C   0  0  0  0  0  0
  -29.4848  -12.5115   18.1958 C   0  0  0  0  0  0
  -28.0067  -12.3824   18.6084 C   0  0  0  0  0  0
  -27.6641  -13.2100   19.8769 C   0  0  2  0  0  0
  -28.7053  -12.9780   20.9953 C   0  0  0  0  0  0
  -25.2601  -13.8183   20.5709 C   0  0  0  0  0  0
  -24.1853  -13.0455   20.9186 C   0  0  0  0  0  0
  -24.6410  -11.6913   20.8739 C   0  0  0  0  0  0
  -23.9069  -10.4292   21.0395 C   0  0  0  0  0  0
  -24.3617   -9.4220   21.9182 C   0  0  0  0  0  0
  -23.6300   -8.2252   22.0749 C   0  0  0  0  0  0
  -22.4282   -8.0282   21.3537 C   0  0  0  0  0  0
  -21.9916   -9.0256   20.4641 C   0  0  0  0  0  0
  -22.7241  -10.2138   20.3049 C   0  0  0  0  0  0
  -21.6849   -6.0744   22.5284 C   0  0  0  0  0  0
  -21.4010   -6.5651   23.8219 C   0  0  0  0  0  0
  -21.3658   -5.6797   24.9180 C   0  0  0  0  0  0
  -21.6040   -4.3053   24.7232 C   0  0  0  0  0  0
  -21.8814   -3.8151   23.4347 C   0  0  0  0  0  0
  -21.9203   -4.6972   22.3405 C   0  0  0  0  0  0
  -22.7875  -13.5254   21.1858 C   0  0  0  0  0  0
  -22.1664   -4.2156   21.0978 F   0  0  0  0  0  0
  -21.5632   -3.4539   25.7747 F   0  0  0  0  0  0
  -30.0412  -13.2645   20.4452 N   0  0  0  0  0  0
  -26.3039  -12.9357   20.3392 N   0  0  0  0  0  0
  -25.9339  -11.6502   20.5774 N   0  0  0  0  0  0
  -22.0506  -12.8219   22.0388 N   0  0  0  0  0  0
  -25.4372  -15.1893   20.4129 N   0  0  0  0  0  0
  -31.8373  -14.6066   20.0545 O   0  0  0  0  0  0
  -21.6639   -6.8885   21.4238 O   0  0  0  0  0  0
  -22.3553  -14.5568   20.6726 O   0  0  0  0  0  0
  -24.6144  -31.8661   23.2157 C   0  0  0  0  0  0
  -25.9042  -32.4813   23.8401 C   0  0  1  0  0  0
  -27.2184  -27.4406   20.0819 C   0  0  0  0  0  0
  -25.5902  -33.8607   24.2358 N   0  0  0  0  0  0
  -23.3967  -30.4949   21.5569 C   0  0  2  0  0  0
  -24.8341  -28.9662   20.1112 C   0  0  0  0  0  0
  -22.7389  -29.4625   22.4998 C   0  0  0  0  0  0
  -18.0248  -28.1348   22.8441 C   0  0  0  0  0  0
  -24.1487  -36.7310   23.2651 C   0  0  0  0  0  0
  -25.9256  -30.8339   21.3657 C   0  0  0  0  0  0
  -25.9970  -29.4725   20.7061 C   0  0  0  0  0  0
  -27.1866  -28.7140   20.6923 C   0  0  0  0  0  0
  -26.0366  -26.9523   19.4741 C   0  0  0  0  0  0
  -24.8487  -27.7032   19.4985 C   0  0  0  0  0  0
  -23.5987  -29.8333   20.1681 C   0  0  0  0  0  0
  -25.4108  -36.3104   24.0354 C   0  0  1  0  0  0
  -20.5820  -28.3604   23.1331 C   0  0  2  0  0  0
  -20.6733  -26.9340   22.5432 C   0  0  0  0  0  0
  -19.5751  -26.6342   21.5201 C   0  0  0  0  0  0
  -18.1899  -26.7891   22.1562 C   0  0  0  0  0  0
  -19.1497  -28.8790   23.2882 C   0  0  0  0  0  0
  -18.9453  -30.1400   23.8894 C   0  0  0  0  0  0
  -17.6456  -30.6551   24.0536 C   0  0  0  0  0  0
  -25.9034  -34.9454   23.5146 C   0  0  0  0  0  0
  -16.5335  -29.9049   23.6323 C   0  0  0  0  0  0
  -16.7241  -28.6480   23.0311 C   0  0  0  0  0  0
  -26.4494  -31.6593   25.0717 C   0  0  0  0  0  0
  -25.3800  -31.3697   26.1509 C   0  0  0  0  0  0
  -27.0311  -30.3046   24.6038 C   0  0  0  0  0  0
  -27.6061  -32.4325   25.7459 C   0  0  0  0  0  0
  -27.5593  -37.1795   24.8452 C   0  0  0  0  0  0
  -21.4103  -29.3005   22.3773 N   0  0  0  0  0  0
  -26.4288  -37.3804   23.9430 N   0  0  0  0  0  0
  -24.6650  -31.0774   22.1048 N   0  0  0  0  0  0
  -23.4199  -28.8166   23.2999 O   0  0  0  0  0  0
  -28.3970  -26.7224   20.1195 O   0  0  0  0  0  0
  -26.5581  -34.8891   22.4704 O   0  0  0  0  0  0
  -23.5343  -32.1364   23.7591 O   0  0  0  0  0  0
  -29.3119  -19.2595   23.9800 C   0  0  0  0  0  0
  -28.4998  -19.5291   21.6995 C   0  0  0  0  0  0
  -30.0534  -18.1292   23.5873 C   0  0  0  0  0  0
  -29.2390  -18.3928   21.3057 C   0  0  0  0  0  0
  -28.5463  -19.9841   23.0396 C   0  0  0  0  0  0
  -30.0353  -17.6998   22.2441 C   0  0  0  0  0  0
  -26.5760  -20.9266   24.3933 C   0  0  0  0  0  0
  -25.8165  -22.2599   24.4306 C   0  0  0  0  0  0
  -27.8009  -21.2299   23.5317 C   0  0  2  0  0  0
  -27.2394  -22.2299   22.5023 C   0  0  1  0  0  0
  -30.9383  -16.5577   21.8042 C   0  0  0  0  0  0
  -28.3690  -25.3247   19.7963 C   0  0  0  0  0  0
  -27.5309  -24.4725   20.7846 C   0  0  0  0  0  0
  -30.2401  -15.3214   21.4496 N   0  0  0  0  0  0
  -26.3082  -23.0626   23.2919 N   0  3  0  0  0  0
  -28.5297  -23.2665   21.7218 S   0  0  0  0  0  0
  -31.4564  -12.3606   19.1095 H   0  0  0  0  0  0
  -30.2870  -11.2754   19.7982 H   0  0  0  0  0  0
  -29.7157  -11.7911   17.4106 H   0  0  0  0  0  0
  -29.6624  -13.4999   17.7691 H   0  0  0  0  0  0
  -27.8024  -11.3257   18.7854 H   0  0  0  0  0  0
  -27.3599  -12.6794   17.7819 H   0  0  0  0  0  0
  -27.7153  -14.2613   19.5923 H   0  0  0  0  0  0
  -28.6740  -11.9417   21.3332 H   0  0  0  0  0  0
  -28.4686  -13.5765   21.8753 H   0  0  0  0  0  0
  -25.2762   -9.5700   22.4757 H   0  0  0  0  0  0
  -24.0023   -7.4633   22.7454 H   0  0  0  0  0  0
  -21.0856   -8.8750   19.8932 H   0  0  0  0  0  0
  -22.3693  -10.9668   19.6148 H   0  0  0  0  0  0
  -21.1980   -7.6159   23.9734 H   0  0  0  0  0  0
  -21.1483   -6.0523   25.9086 H   0  0  0  0  0  0
  -22.0597   -2.7613   23.2856 H   0  0  0  0  0  0
  -22.4113  -11.9869   22.4750 H   0  0  0  0  0  0
  -21.1111  -13.1205   22.2571 H   0  0  0  0  0  0
  -24.6830  -15.8564   20.5344 H   0  0  0  0  0  0
  -26.3057  -15.6206   20.1195 H   0  0  0  0  0  0
  -26.7077  -32.5500   23.1129 H   0  0  0  0  0  0
  -25.0060  -33.9756   25.0501 H   0  0  0  0  0  0
  -22.6861  -31.3139   21.4277 H   0  0  0  0  0  0
  -23.3745  -35.9643   23.3285 H   0  0  0  0  0  0
  -24.3591  -36.8966   22.2075 H   0  0  0  0  0  0
  -23.7210  -37.6510   23.6655 H   0  0  0  0  0  0
  -26.0386  -31.6026   20.5994 H   0  0  0  0  0  0
  -26.8148  -30.8776   21.9834 H   0  0  0  0  0  0
  -28.0838  -29.0943   21.1591 H   0  0  0  0  0  0
  -25.9966  -25.9907   18.9859 H   0  0  0  0  0  0
  -23.9547  -27.3064   19.0392 H   0  0  0  0  0  0
  -23.7024  -30.6129   19.4119 H   0  0  0  0  0  0
  -22.7215  -29.2553   19.8742 H   0  0  0  0  0  0
  -25.1278  -36.1997   25.0845 H   0  0  0  0  0  0
  -20.9875  -28.3143   24.1465 H   0  0  0  0  0  0
  -20.5595  -26.2181   23.3586 H   0  0  0  0  0  0
  -21.6607  -26.7347   22.1263 H   0  0  0  0  0  0
  -19.6928  -25.6277   21.1189 H   0  0  0  0  0  0
  -19.6767  -27.3153   20.6750 H   0  0  0  0  0  0
  -17.4190  -26.6613   21.3951 H   0  0  0  0  0  0
  -18.0282  -26.0023   22.8935 H   0  0  0  0  0  0
  -19.7962  -30.7186   24.2256 H   0  0  0  0  0  0
  -17.5027  -31.6244   24.5122 H   0  0  0  0  0  0
  -15.5339  -30.2953   23.7710 H   0  0  0  0  0  0
  -15.8606  -28.0848   22.7037 H   0  0  0  0  0  0
  -24.5916  -30.7095   25.7897 H   0  0  0  0  0  0
  -24.9027  -32.2840   26.5046 H   0  0  0  0  0  0
  -25.8184  -30.8823   27.0225 H   0  0  0  0  0  0
  -26.2775  -29.6815   24.1188 H   0  0  0  0  0  0
  -27.4245  -29.7327   25.4464 H   0  0  0  0  0  0
  -27.8576  -30.4422   23.9050 H   0  0  0  0  0  0
  -27.2636  -33.3593   26.2083 H   0  0  0  0  0  0
  -28.3812  -32.6954   25.0246 H   0  0  0  0  0  0
  -28.0765  -31.8417   26.5334 H   0  0  0  0  0  0
  -28.2583  -38.0123   24.7548 H   0  0  0  0  0  0
  -28.1116  -36.2654   24.6198 H   0  0  0  0  0  0
  -27.2317  -37.1388   25.8857 H   0  0  0  0  0  0
  -20.9214  -29.8786   21.7085 H   0  0  0  0  0  0
  -26.0198  -38.2887   24.1478 H   0  0  0  0  0  0
  -29.3528  -19.5865   25.0112 H   0  0  0  0  0  0
  -27.9219  -20.0498   20.9483 H   0  0  0  0  0  0
  -30.6600  -17.6109   24.3191 H   0  0  0  0  0  0
  -29.2204  -18.0810   20.2690 H   0  0  0  0  0  0
  -25.9535  -20.1729   23.9102 H   0  0  0  0  0  0
  -26.8329  -20.5645   25.3893 H   0  0  0  0  0  0
  -26.0106  -22.7988   25.3598 H   0  0  0  0  0  0
  -24.7389  -22.1046   24.3594 H   0  0  0  0  0  0
  -28.5117  -21.7775   24.1550 H   0  0  0  0  0  0
  -26.6512  -21.7181   21.7401 H   0  0  0  0  0  0
  -31.6610  -16.3344   22.5911 H   0  0  0  0  0  0
  -31.5223  -16.9299   20.9588 H   0  0  0  0  0  0
  -28.0245  -25.1837   18.7706 H   0  0  0  0  0  0
  -29.4014  -24.9721   19.7902 H   0  0  0  0  0  0
  -26.7674  -23.9258   20.2285 H   0  0  0  0  0  0
  -27.0055  -25.1093   21.4977 H   0  0  0  0  0  0
  -29.3536  -15.1279   21.8890 H   0  0  0  0  0  0
  -26.7959  -23.8614   23.6671 H   0  0  0  0  0  0
  -25.5304  -23.3791   22.7345 H   0  0  0  0  0  0
  1 25  1  0  0  0
  1 30  2  0  0  0
  1 84  1  0  0  0
  2  3  1  0  0  0
  2 25  1  0  0  0
  2 87  1  0  0  0
  2 88  1  0  0  0
  3  4  1  0  0  0
  3 89  1  0  0  0
  3 90  1  0  0  0
  4  5  1  0  0  0
  4 91  1  0  0  0
  4 92  1  0  0  0
  5  6  1  0  0  0
  5 26  1  0  0  0
  5 93  1  0  0  0
  6 25  1  0  0  0
  6 94  1  0  0  0
  6 95  1  0  0  0
  7  8  2  0  0  0
  7 26  1  0  0  0
  7 29  1  0  0  0
  8  9  1  0  0  0
  8 22  1  0  0  0
  9 10  1  0  0  0
  9 27  2  0  0  0
 10 11  2  0  0  0
 10 15  1  0  0  0
 11 12  1  0  0  0
 11 96  1  0  0  0
 12 13  2  0  0  0
 12 97  1  0  0  0
 13 14  1  0  0  0
 13 31  1  0  0  0
 14 15  2  0  0  0
 14 98  1  0  0  0
 15 99  1  0  0  0
 16 17  2  0  0  0
 16 21  1  0  0  0
 16 31  1  0  0  0
 17 18  1  0  0  0
 17100  1  0  0  0
 18 19  2  0  0  0
 18101  1  0  0  0
 19 20  1  0  0  0
 19 24  1  0  0  0
 20 21  2  0  0  0
 20102  1  0  0  0
 21 23  1  0  0  0
 22 28  1  0  0  0
 22 32  2  0  0  0
 26 27  1  0  0  0
 28103  1  0  0  0
 28104  1  0  0  0
 29105  1  0  0  0
 29106  1  0  0  0
 33 34  1  0  0  0
 33 66  1  0  0  0
 33 70  2  0  0  0
 34 36  1  0  0  0
 34 59  1  0  0  0
 34107  1  0  0  0
 35 44  2  0  0  0
 35 45  1  0  0  0
 35 68  1  0  0  0
 36 56  1  0  0  0
 36108  1  0  0  0
 37 39  1  0  0  0
 37 47  1  0  0  0
 37 66  1  0  0  0
 37109  1  0  0  0
 38 43  2  0  0  0
 38 46  1  0  0  0
 38 47  1  0  0  0
 39 64  1  0  0  0
 39 67  2  0  0  0
 40 52  1  0  0  0
 40 53  2  0  0  0
 40 58  1  0  0  0
 41110  1  0  0  0
 41111  1  0  0  0
 41112  1  0  0  0
 41 48  1  0  0  0
 42 43  1  0  0  0
 42 66  1  0  0  0
 42113  1  0  0  0
 42114  1  0  0  0
 43 44  1  0  0  0
 44115  1  0  0  0
 45 46  2  0  0  0
 45116  1  0  0  0
 46117  1  0  0  0
 47118  1  0  0  0
 47119  1  0  0  0
 48 56  1  0  0  0
 48 65  1  0  0  0
 48120  1  0  0  0
 49 50  1  0  0  0
 49 53  1  0  0  0
 49 64  1  0  0  0
 49121  1  0  0  0
 50 51  1  0  0  0
 50122  1  0  0  0
 50123  1  0  0  0
 51 52  1  0  0  0
 51124  1  0  0  0
 51125  1  0  0  0
 52126  1  0  0  0
 52127  1  0  0  0
 53 54  1  0  0  0
 54 55  2  0  0  0
 54128  1  0  0  0
 55 57  1  0  0  0
 55129  1  0  0  0
 56 69  2  0  0  0
 57 58  2  0  0  0
 57130  1  0  0  0
 58131  1  0  0  0
 59 60  1  0  0  0
 59 61  1  0  0  0
 59 62  1  0  0  0
 60132  1  0  0  0
 60133  1  0  0  0
 60134  1  0  0  0
 61135  1  0  0  0
 61136  1  0  0  0
 61137  1  0  0  0
 62138  1  0  0  0
 62139  1  0  0  0
 62140  1  0  0  0
 63 65  1  0  0  0
 63141  1  0  0  0
 63142  1  0  0  0
 63143  1  0  0  0
 64144  1  0  0  0
 65145  1  0  0  0
 68 82  1  0  0  0
 71 73  2  0  0  0
 71 75  1  0  0  0
 71146  1  0  0  0
 72 74  1  0  0  0
 72 75  2  0  0  0
 72147  1  0  0  0
 73 76  1  0  0  0
 73148  1  0  0  0
 74 76  2  0  0  0
 74149  1  0  0  0
 75 79  1  0  0  0
 76 81  1  0  0  0
 77 78  1  0  0  0
 77 79  1  0  0  0
 77150  1  0  0  0
 77151  1  0  0  0
 78 85  1  0  0  0
 78152  1  0  0  0
 78153  1  0  0  0
 79 80  1  0  0  0
 79154  1  0  0  0
 80 85  1  0  0  0
 80 86  1  0  0  0
 80155  1  0  0  0
 81 84  1  0  0  0
 81156  1  0  0  0
 81157  1  0  0  0
 82 83  1  0  0  0
 82158  1  0  0  0
 82159  1  0  0  0
 83 86  1  0  0  0
 83160  1  0  0  0
 83161  1  0  0  0
 84162  1  0  0  0
 85163  1  0  0  0
 85164  1  0  0  0
M  CHG  1  85   1
M  ISO  4   1 100  68 101  82 101  84 100
M  END
> <chiral flag>
0

> <version>
0

> <s_m_source_file>
/data/baiqing/PycharmProjects/Reinvent-master-3.2/result/LINK_invent/BTK/process_docking_weight1_custom_sum_contain_oxygen_bond_distance_aromatic_linkinvent_7_9_3/rearranged_h_0134.sdf

> <i_m_source_file_index>
45

> <r_mmod_Potential_Energy-OPLS-2005>
-206.022109985352

> <r_mmod_Stretch_Energy-OPLS-2005>
34.5237426757812

> <r_mmod_Bend_Energy-OPLS-2005>
124.141937255859

> <r_mmod_Torsional_Energy-OPLS-2005>
264.154510498047

> <r_mmod_Improper_Torsional_Energy-OPLS-2005>
1.81362342834473

> <r_mmod_Van_der_Waal_Energy-OPLS-2005>
151.344192504883

> <r_mmod_Electrostatic_Energy-OPLS-2005>
-330.533142089844

> <r_mmod_Solvation_Energy-OPLS-2005>
-461.804412841797

> <b_mmod_Minimization_Converged-OPLS-2005>
0

> <r_mmod_RMS_Derivative-OPLS-2005>
3.51762866973877

$$$$
45
                    3D
 Structure written by MMmdl.
163172  0  0  1  0            999 V2000
  -30.7400  -14.4124   20.6322 C   0  0  0  0  0  0
  -30.4192  -12.2944   19.4133 C   0  0  0  0  0  0
  -29.4922  -12.5161   18.2002 C   0  0  0  0  0  0
  -28.0109  -12.3831   18.6077 C   0  0  0  0  0  0
  -27.6630  -13.2031   19.8773 C   0  0  2  0  0  0
  -28.6999  -12.9377   20.9887 C   0  0  0  0  0  0
  -25.2570  -13.8146   20.5655 C   0  0  0  0  0  0
  -24.1818  -13.0433   20.9166 C   0  0  0  0  0  0
  -24.6358  -11.6901   20.8714 C   0  0  0  0  0  0
  -23.9026  -10.4290   21.0389 C   0  0  0  0  0  0
  -24.3583   -9.4221   21.9177 C   0  0  0  0  0  0
  -23.6276   -8.2245   22.0754 C   0  0  0  0  0  0
  -22.4266   -8.0265   21.3542 C   0  0  0  0  0  0
  -21.9883   -9.0230   20.4642 C   0  0  0  0  0  0
  -22.7193  -10.2118   20.3048 C   0  0  0  0  0  0
  -21.6852   -6.0721   22.5270 C   0  0  0  0  0  0
  -21.4010   -6.5628   23.8202 C   0  0  0  0  0  0
  -21.3665   -5.6783   24.9165 C   0  0  0  0  0  0
  -21.6050   -4.3046   24.7220 C   0  0  0  0  0  0
  -21.8816   -3.8136   23.4342 C   0  0  0  0  0  0
  -21.9198   -4.6953   22.3398 C   0  0  0  0  0  0
  -22.7848  -13.5245   21.1826 C   0  0  0  0  0  0
  -22.1671   -4.2140   21.0978 F   0  0  0  0  0  0
  -21.5632   -3.4530   25.7734 F   0  0  0  0  0  0
  -30.0359  -13.2587   20.4579 N   0  0  0  0  0  0
  -26.3015  -12.9316   20.3351 N   0  0  0  0  0  0
  -25.9278  -11.6480   20.5721 N   0  0  0  0  0  0
  -22.0472  -12.8248   22.0382 N   0  0  0  0  0  0
  -25.4257  -15.1858   20.4037 N   0  0  0  0  0  0
  -31.8228  -14.6235   20.0844 O   0  0  0  0  0  0
  -21.6641   -6.8855   21.4231 O   0  0  0  0  0  0
  -22.3553  -14.5568   20.6687 O   0  0  0  0  0  0
  -24.6110  -31.8704   23.2126 C   0  0  0  0  0  0
  -25.9014  -32.4839   23.8413 C   0  0  1  0  0  0
  -27.2416  -27.4576   20.1082 C   0  0  0  0  0  0
  -25.5886  -33.8632   24.2352 N   0  0  0  0  0  0
  -23.3990  -30.4918   21.5519 C   0  0  2  0  0  0
  -24.8485  -28.9591   20.1185 C   0  0  0  0  0  0
  -22.7401  -29.4659   22.5013 C   0  0  0  0  0  0
  -18.0266  -28.1373   22.8503 C   0  0  0  0  0  0
  -24.1479  -36.7318   23.2639 C   0  0  0  0  0  0
  -25.9229  -30.8438   21.3625 C   0  0  0  0  0  0
  -26.0036  -29.4766   20.7195 C   0  0  0  0  0  0
  -27.2026  -28.7333   20.7167 C   0  0  0  0  0  0
  -26.0775  -26.9558   19.4923 C   0  0  0  0  0  0
  -24.8789  -27.6945   19.5027 C   0  0  0  0  0  0
  -23.6082  -29.8215   20.1669 C   0  0  0  0  0  0
  -25.4098  -36.3127   24.0349 C   0  0  1  0  0  0
  -20.5850  -28.3655   23.1332 C   0  0  2  0  0  0
  -20.6752  -26.9393   22.5422 C   0  0  0  0  0  0
  -19.5728  -26.6381   21.5217 C   0  0  0  0  0  0
  -18.1910  -26.7920   22.1627 C   0  0  0  0  0  0
  -19.1514  -28.8828   23.2913 C   0  0  0  0  0  0
  -18.9443  -30.1438   23.8917 C   0  0  0  0  0  0
  -17.6451  -30.6581   24.0561 C   0  0  0  0  0  0
  -25.9018  -34.9486   23.5147 C   0  0  0  0  0  0
  -16.5341  -29.9086   23.6326 C   0  0  0  0  0  0
  -16.7259  -28.6497   23.0352 C   0  0  0  0  0  0
  -26.4462  -31.6601   25.0717 C   0  0  0  0  0  0
  -25.3751  -31.3683   26.1482 C   0  0  0  0  0  0
  -27.0288  -30.3054   24.6052 C   0  0  0  0  0  0
  -27.6049  -32.4307   25.7472 C   0  0  0  0  0  0
  -27.5582  -37.1815   24.8473 C   0  0  0  0  0  0
  -21.4123  -29.3020   22.3743 N   0  0  0  0  0  0
  -26.4292  -37.3803   23.9413 N   0  0  0  0  0  0
  -24.6624  -31.0823   22.1009 N   0  0  0  0  0  0
  -23.4184  -28.8199   23.3044 O   0  0  0  0  0  0
  -28.3814  -26.6902   20.0500 O   0  0  0  0  0  0
  -26.5576  -34.8934   22.4708 O   0  0  0  0  0  0
  -23.5308  -32.1442   23.7540 O   0  0  0  0  0  0
  -28.0129  -22.8722   21.9480 C   0  0  0  0  0  0
  -30.0809  -23.2978   23.1440 C   0  0  0  0  0  0
  -28.0402  -24.1850   21.4329 C   0  0  0  0  0  0
  -30.1139  -24.6085   22.6250 C   0  0  0  0  0  0
  -29.0275  -22.4154   22.8199 C   0  0  0  0  0  0
  -29.0909  -25.0657   21.7684 C   0  0  0  0  0  0
  -27.9104  -20.7862   24.4660 C   0  0  0  0  0  0
  -28.9942  -21.0424   23.4447 C   0  0  1  0  0  0
  -27.9279  -19.9853   23.1825 C   0  0  1  0  0  0
  -29.1070  -26.5079   21.2686 C   0  0  0  0  0  0
  -28.2928  -16.1613   22.7418 C   0  0  0  0  0  0
  -29.7260  -15.5994   22.5925 C   0  0  0  0  0  0
  -28.0996  -17.6439   22.3356 C   0  0  0  0  0  0
  -30.1023  -15.4552   21.1856 N   0  0  0  0  0  0
  -28.3052  -18.5796   23.4638 N   0  3  0  0  0  0
  -31.4637  -12.3908   19.1121 H   0  0  0  0  0  0
  -30.3168  -11.2758   19.7898 H   0  0  0  0  0  0
  -29.7248  -11.8014   17.4094 H   0  0  0  0  0  0
  -29.6698  -13.5062   17.7771 H   0  0  0  0  0  0
  -27.8089  -11.3259   18.7855 H   0  0  0  0  0  0
  -27.3637  -12.6802   17.7817 H   0  0  0  0  0  0
  -27.7208  -14.2577   19.6066 H   0  0  0  0  0  0
  -28.6692  -11.8885   21.2830 H   0  0  0  0  0  0
  -28.4401  -13.4800   21.8909 H   0  0  0  0  0  0
  -25.2723   -9.5711   22.4752 H   0  0  0  0  0  0
  -23.9993   -7.4641   22.7475 H   0  0  0  0  0  0
  -21.0812   -8.8729   19.8949 H   0  0  0  0  0  0
  -22.3634  -10.9651   19.6164 H   0  0  0  0  0  0
  -21.1992   -7.6131   23.9705 H   0  0  0  0  0  0
  -21.1497   -6.0509   25.9070 H   0  0  0  0  0  0
  -22.0593   -2.7597   23.2838 H   0  0  0  0  0  0
  -22.4085  -11.9922   22.4794 H   0  0  0  0  0  0
  -21.1083  -13.1268   22.2554 H   0  0  0  0  0  0
  -24.6356  -15.8189   20.4564 H   0  0  0  0  0  0
  -26.2546  -15.6128   20.0109 H   0  0  0  0  0  0
  -26.7089  -32.5586   23.1186 H   0  0  0  0  0  0
  -25.0069  -33.9797   25.0525 H   0  0  0  0  0  0
  -22.6855  -31.3065   21.4130 H   0  0  0  0  0  0
  -23.3737  -35.9657   23.3323 H   0  0  0  0  0  0
  -24.3576  -36.8902   22.2050 H   0  0  0  0  0  0
  -23.7228  -37.6531   23.6628 H   0  0  0  0  0  0
  -26.0271  -31.6058   20.5893 H   0  0  0  0  0  0
  -26.8137  -30.9053   21.9752 H   0  0  0  0  0  0
  -28.0951  -29.1457   21.1671 H   0  0  0  0  0  0
  -26.0993  -25.9867   19.0143 H   0  0  0  0  0  0
  -23.9925  -27.2891   19.0333 H   0  0  0  0  0  0
  -23.7126  -30.5945   19.4048 H   0  0  0  0  0  0
  -22.7345  -29.2371   19.8734 H   0  0  0  0  0  0
  -25.1270  -36.2009   25.0840 H   0  0  0  0  0  0
  -20.9945  -28.3215   24.1448 H   0  0  0  0  0  0
  -20.5650  -26.2257   23.3601 H   0  0  0  0  0  0
  -21.6628  -26.7431   22.1214 H   0  0  0  0  0  0
  -19.6885  -25.6297   21.1228 H   0  0  0  0  0  0
  -19.6668  -27.3204   20.6759 H   0  0  0  0  0  0
  -17.4179  -26.6672   21.4030 H   0  0  0  0  0  0
  -18.0306  -26.0052   22.9008 H   0  0  0  0  0  0
  -19.7918  -30.7243   24.2293 H   0  0  0  0  0  0
  -17.5005  -31.6267   24.5155 H   0  0  0  0  0  0
  -15.5340  -30.2994   23.7637 H   0  0  0  0  0  0
  -15.8649  -28.0822   22.7065 H   0  0  0  0  0  0
  -24.5919  -30.7031   25.7827 H   0  0  0  0  0  0
  -24.8945  -32.2823   26.4975 H   0  0  0  0  0  0
  -25.8132  -30.8827   27.0212 H   0  0  0  0  0  0
  -26.2816  -29.6812   24.1128 H   0  0  0  0  0  0
  -27.4106  -29.7285   25.4487 H   0  0  0  0  0  0
  -27.8632  -30.4383   23.9158 H   0  0  0  0  0  0
  -27.2677  -33.3591   26.2095 H   0  0  0  0  0  0
  -28.3834  -32.6890   25.0278 H   0  0  0  0  0  0
  -28.0741  -31.8395   26.5350 H   0  0  0  0  0  0
  -28.2619  -38.0095   24.7509 H   0  0  0  0  0  0
  -28.1056  -36.2629   24.6312 H   0  0  0  0  0  0
  -27.2303  -37.1491   25.8878 H   0  0  0  0  0  0
  -20.9286  -29.8747   21.6967 H   0  0  0  0  0  0
  -26.0195  -38.2888   24.1407 H   0  0  0  0  0  0
  -27.1856  -22.2319   21.6786 H   0  0  0  0  0  0
  -30.8667  -22.9761   23.8134 H   0  0  0  0  0  0
  -27.2384  -24.5158   20.7890 H   0  0  0  0  0  0
  -30.9246  -25.2689   22.9020 H   0  0  0  0  0  0
  -27.1218  -21.5304   24.5655 H   0  0  0  0  0  0
  -28.2032  -20.2991   25.3954 H   0  0  0  0  0  0
  -30.0007  -20.7017   23.6841 H   0  0  0  0  0  0
  -27.1072  -20.1294   22.4826 H   0  0  0  0  0  0
  -30.1391  -26.8106   21.0906 H   0  0  0  0  0  0
  -28.7384  -27.1298   22.0850 H   0  0  0  0  0  0
  -27.9426  -16.0085   23.7640 H   0  0  0  0  0  0
  -27.6226  -15.5587   22.1300 H   0  0  0  0  0  0
  -29.8199  -14.6479   23.1186 H   0  0  0  0  0  0
  -30.4412  -16.2662   23.0756 H   0  0  0  0  0  0
  -27.0759  -17.7675   21.9807 H   0  0  0  0  0  0
  -28.7459  -17.9160   21.5007 H   0  0  0  0  0  0
  -30.5070  -16.3100   20.8310 H   0  0  0  0  0  0
  -27.7287  -18.2616   24.2261 H   0  0  0  0  0  0
  -29.2634  -18.5369   23.7679 H   0  0  0  0  0  0
  1 25  1  0  0  0
  1 30  2  0  0  0
  1 84  1  0  0  0
  2  3  1  0  0  0
  2 25  1  0  0  0
  2 86  1  0  0  0
  2 87  1  0  0  0
  3  4  1  0  0  0
  3 88  1  0  0  0
  3 89  1  0  0  0
  4  5  1  0  0  0
  4 90  1  0  0  0
  4 91  1  0  0  0
  5  6  1  0  0  0
  5 26  1  0  0  0
  5 92  1  0  0  0
  6 25  1  0  0  0
  6 93  1  0  0  0
  6 94  1  0  0  0
  7  8  2  0  0  0
  7 26  1  0  0  0
  7 29  1  0  0  0
  8  9  1  0  0  0
  8 22  1  0  0  0
  9 10  1  0  0  0
  9 27  2  0  0  0
 10 11  2  0  0  0
 10 15  1  0  0  0
 11 12  1  0  0  0
 11 95  1  0  0  0
 12 13  2  0  0  0
 12 96  1  0  0  0
 13 14  1  0  0  0
 13 31  1  0  0  0
 14 15  2  0  0  0
 14 97  1  0  0  0
 15 98  1  0  0  0
 16 17  2  0  0  0
 16 21  1  0  0  0
 16 31  1  0  0  0
 17 18  1  0  0  0
 17 99  1  0  0  0
 18 19  2  0  0  0
 18100  1  0  0  0
 19 20  1  0  0  0
 19 24  1  0  0  0
 20 21  2  0  0  0
 20101  1  0  0  0
 21 23  1  0  0  0
 22 28  1  0  0  0
 22 32  2  0  0  0
 26 27  1  0  0  0
 28102  1  0  0  0
 28103  1  0  0  0
 29104  1  0  0  0
 29105  1  0  0  0
 33 34  1  0  0  0
 33 66  1  0  0  0
 33 70  2  0  0  0
 34 36  1  0  0  0
 34 59  1  0  0  0
 34106  1  0  0  0
 35 44  2  0  0  0
 35 45  1  0  0  0
 35 68  1  0  0  0
 36 56  1  0  0  0
 36107  1  0  0  0
 37 39  1  0  0  0
 37 47  1  0  0  0
 37 66  1  0  0  0
 37108  1  0  0  0
 38 43  2  0  0  0
 38 46  1  0  0  0
 38 47  1  0  0  0
 39 64  1  0  0  0
 39 67  2  0  0  0
 40 52  1  0  0  0
 40 53  2  0  0  0
 40 58  1  0  0  0
 41109  1  0  0  0
 41110  1  0  0  0
 41111  1  0  0  0
 41 48  1  0  0  0
 42 43  1  0  0  0
 42 66  1  0  0  0
 42112  1  0  0  0
 42113  1  0  0  0
 43 44  1  0  0  0
 44114  1  0  0  0
 45 46  2  0  0  0
 45115  1  0  0  0
 46116  1  0  0  0
 47117  1  0  0  0
 47118  1  0  0  0
 48 56  1  0  0  0
 48 65  1  0  0  0
 48119  1  0  0  0
 49 50  1  0  0  0
 49 53  1  0  0  0
 49 64  1  0  0  0
 49120  1  0  0  0
 50 51  1  0  0  0
 50121  1  0  0  0
 50122  1  0  0  0
 51 52  1  0  0  0
 51123  1  0  0  0
 51124  1  0  0  0
 52125  1  0  0  0
 52126  1  0  0  0
 53 54  1  0  0  0
 54 55  2  0  0  0
 54127  1  0  0  0
 55 57  1  0  0  0
 55128  1  0  0  0
 56 69  2  0  0  0
 57 58  2  0  0  0
 57129  1  0  0  0
 58130  1  0  0  0
 59 60  1  0  0  0
 59 61  1  0  0  0
 59 62  1  0  0  0
 60131  1  0  0  0
 60132  1  0  0  0
 60133  1  0  0  0
 61134  1  0  0  0
 61135  1  0  0  0
 61136  1  0  0  0
 62137  1  0  0  0
 62138  1  0  0  0
 62139  1  0  0  0
 63 65  1  0  0  0
 63140  1  0  0  0
 63141  1  0  0  0
 63142  1  0  0  0
 64143  1  0  0  0
 65144  1  0  0  0
 68 80  1  0  0  0
 71 73  2  0  0  0
 71 75  1  0  0  0
 71145  1  0  0  0
 72 74  1  0  0  0
 72 75  2  0  0  0
 72146  1  0  0  0
 73 76  1  0  0  0
 73147  1  0  0  0
 74 76  2  0  0  0
 74148  1  0  0  0
 75 78  1  0  0  0
 76 80  1  0  0  0
 77 78  1  0  0  0
 77 79  1  0  0  0
 77149  1  0  0  0
 77150  1  0  0  0
 78 79  1  0  0  0
 78151  1  0  0  0
 79 85  1  0  0  0
 79152  1  0  0  0
 80153  1  0  0  0
 80154  1  0  0  0
 81 82  1  0  0  0
 81 83  1  0  0  0
 81155  1  0  0  0
 81156  1  0  0  0
 82 84  1  0  0  0
 82157  1  0  0  0
 82158  1  0  0  0
 83 85  1  0  0  0
 83159  1  0  0  0
 83160  1  0  0  0
 84161  1  0  0  0
 85162  1  0  0  0
 85163  1  0  0  0
M  CHG  1  85   1
M  ISO  4   1 100  68 101  80 101  84 100
M  END
> <chiral flag>
0

> <version>
0

> <s_m_source_file>
/data/baiqing/PycharmProjects/Reinvent-master-3.2/result/LINK_invent/BTK/process_docking_weight1_custom_sum_contain_oxygen_bond_distance_aromatic_linkinvent_7_9_3/rearranged_h_0134.sdf

> <i_m_source_file_index>
46

> <r_mmod_Potential_Energy-OPLS-2005>
-113.397232055664

> <r_mmod_Stretch_Energy-OPLS-2005>
33.4988708496094

> <r_mmod_Bend_Energy-OPLS-2005>
113.398826599121

> <r_mmod_Torsional_Energy-OPLS-2005>
330.193725585938

> <r_mmod_Improper_Torsional_Energy-OPLS-2005>
11.374605178833

> <r_mmod_Van_der_Waal_Energy-OPLS-2005>
143.608093261719

> <r_mmod_Electrostatic_Energy-OPLS-2005>
-255.7421875

> <r_mmod_Solvation_Energy-OPLS-2005>
-497.385925292969

> <b_mmod_Minimization_Converged-OPLS-2005>
0

> <r_mmod_RMS_Derivative-OPLS-2005>
1.66120576858521

$$$$
46
                    3D
 Structure written by MMmdl.
168177  0  0  1  0            999 V2000
  -30.7080  -14.4565   20.4775 C   0  0  0  0  0  0
  -30.4157  -12.2719   19.4173 C   0  0  0  0  0  0
  -29.4876  -12.4598   18.1996 C   0  0  0  0  0  0
  -28.0067  -12.3409   18.6180 C   0  0  0  0  0  0
  -27.6525  -13.1967   19.8653 C   0  0  2  0  0  0
  -28.7059  -13.0287   20.9841 C   0  0  0  0  0  0
  -25.2584  -13.8125   20.5716 C   0  0  0  0  0  0
  -24.1825  -13.0423   20.9196 C   0  0  0  0  0  0
  -24.6362  -11.6884   20.8757 C   0  0  0  0  0  0
  -23.9030  -10.4281   21.0413 C   0  0  0  0  0  0
  -24.3587   -9.4198   21.9186 C   0  0  0  0  0  0
  -23.6274   -8.2236   22.0754 C   0  0  0  0  0  0
  -22.4259   -8.0272   21.3548 C   0  0  0  0  0  0
  -21.9885   -9.0241   20.4651 C   0  0  0  0  0  0
  -22.7206  -10.2122   20.3060 C   0  0  0  0  0  0
  -21.6848   -6.0730   22.5277 C   0  0  0  0  0  0
  -21.4010   -6.5636   23.8209 C   0  0  0  0  0  0
  -21.3659   -5.6790   24.9173 C   0  0  0  0  0  0
  -21.6043   -4.3053   24.7223 C   0  0  0  0  0  0
  -21.8822   -3.8144   23.4346 C   0  0  0  0  0  0
  -21.9192   -4.6960   22.3401 C   0  0  0  0  0  0
  -22.7853  -13.5235   21.1852 C   0  0  0  0  0  0
  -22.1663   -4.2144   21.0981 F   0  0  0  0  0  0
  -21.5627   -3.4535   25.7739 F   0  0  0  0  0  0
  -30.0318  -13.2845   20.4037 N   0  0  0  0  0  0
  -26.2991  -12.9262   20.3388 N   0  0  0  0  0  0
  -25.9282  -11.6437   20.5801 N   0  0  0  0  0  0
  -22.0483  -12.8247   22.0408 N   0  0  0  0  0  0
  -25.4345  -15.1843   20.4124 N   0  0  0  0  0  0
  -31.9094  -14.5728   20.2339 O   0  0  0  0  0  0
  -21.6634   -6.8866   21.4239 O   0  0  0  0  0  0
  -22.3550  -14.5545   20.6694 O   0  0  0  0  0  0
  -24.6110  -31.8685   23.2099 C   0  0  0  0  0  0
  -25.9021  -32.4825   23.8374 C   0  0  1  0  0  0
  -27.2462  -27.4571   20.0847 C   0  0  0  0  0  0
  -25.5902  -33.8626   24.2319 N   0  0  0  0  0  0
  -23.3971  -30.4893   21.5506 C   0  0  2  0  0  0
  -24.8440  -28.9511   20.1215 C   0  0  0  0  0  0
  -22.7389  -29.4651   22.5012 C   0  0  0  0  0  0
  -18.0266  -28.1376   22.8499 C   0  0  0  0  0  0
  -24.1497  -36.7311   23.2636 C   0  0  0  0  0  0
  -25.9215  -30.8413   21.3562 C   0  0  0  0  0  0
  -26.0004  -29.4742   20.7096 C   0  0  0  0  0  0
  -27.2000  -28.7329   20.6883 C   0  0  0  0  0  0
  -26.0629  -26.9312   19.5134 C   0  0  0  0  0  0
  -24.8682  -27.6774   19.5268 C   0  0  0  0  0  0
  -23.6043  -29.8147   20.1673 C   0  0  0  0  0  0
  -25.4120  -36.3111   24.0326 C   0  0  1  0  0  0
  -20.5850  -28.3653   23.1346 C   0  0  2  0  0  0
  -20.6763  -26.9396   22.5432 C   0  0  0  0  0  0
  -19.5742  -26.6394   21.5225 C   0  0  0  0  0  0
  -18.1915  -26.7925   22.1625 C   0  0  0  0  0  0
  -19.1514  -28.8829   23.2919 C   0  0  0  0  0  0
  -18.9447  -30.1438   23.8924 C   0  0  0  0  0  0
  -17.6452  -30.6590   24.0568 C   0  0  0  0  0  0
  -25.9040  -34.9479   23.5119 C   0  0  0  0  0  0
  -16.5340  -29.9095   23.6331 C   0  0  0  0  0  0
  -16.7254  -28.6508   23.0353 C   0  0  0  0  0  0
  -26.4471  -31.6589   25.0685 C   0  0  0  0  0  0
  -25.3772  -31.3681   26.1455 C   0  0  0  0  0  0
  -27.0256  -30.3031   24.6003 C   0  0  0  0  0  0
  -27.6041  -32.4303   25.7468 C   0  0  0  0  0  0
  -27.5579  -37.1813   24.8465 C   0  0  0  0  0  0
  -21.4117  -29.3024   22.3763 N   0  0  0  0  0  0
  -26.4298  -37.3800   23.9405 N   0  0  0  0  0  0
  -24.6616  -31.0799   22.0991 N   0  0  0  0  0  0
  -23.4179  -28.8196   23.3038 O   0  0  0  0  0  0
  -28.4705  -26.8219   20.0604 O   0  0  0  0  0  0
  -26.5595  -34.8923   22.4677 O   0  0  0  0  0  0
  -23.5314  -32.1415   23.7527 O   0  0  0  0  0  0
  -28.4093  -23.7983   23.0723 C   0  0  0  0  0  0
  -28.6023  -24.7683   22.0700 C   0  0  0  0  0  0
  -27.9446  -22.5130   22.7321 C   0  0  0  0  0  0
  -28.5181  -18.2850   19.5143 C   0  0  0  0  0  0
  -27.8306  -23.1761   20.3942 C   0  0  0  0  0  0
  -30.4459  -18.3670   18.0627 C   0  0  0  0  0  0
  -28.3113  -24.4610   20.7248 C   0  0  0  0  0  0
  -29.6033  -17.6210   18.9074 C   0  0  0  0  0  0
  -28.2921  -19.6462   19.2144 C   0  0  0  0  0  0
  -27.6588  -22.1843   21.3905 C   0  0  0  0  0  0
  -29.1723  -20.2890   18.3161 C   0  0  0  0  0  0
  -30.0659  -25.3361   19.1667 C   0  0  0  0  0  0
  -29.7403  -22.1644   16.9095 C   0  0  0  0  0  0
  -29.7978  -16.1123   19.0112 C   0  0  0  0  0  0
  -27.0562  -20.3466   19.7677 C   0  0  0  0  0  0
  -28.6076  -25.4708   19.6219 C   0  0  2  0  0  0
  -30.2422  -19.6653   17.7742 N   0  0  0  0  0  0
  -27.2081  -20.8818   21.1182 N   0  0  0  0  0  0
  -29.9279  -15.5417   20.3610 N   0  0  0  0  0  0
  -28.9282  -21.5893   17.9297 O   0  0  0  0  0  0
  -31.4624  -12.3549   19.1178 H   0  0  0  0  0  0
  -30.2995  -11.2738   19.8415 H   0  0  0  0  0  0
  -29.7172  -11.7138   17.4374 H   0  0  0  0  0  0
  -29.6652  -13.4306   17.7362 H   0  0  0  0  0  0
  -27.8099  -11.2888   18.8273 H   0  0  0  0  0  0
  -27.3554  -12.6087   17.7848 H   0  0  0  0  0  0
  -27.6662  -14.2339   19.5428 H   0  0  0  0  0  0
  -28.6733  -12.0203   21.3973 H   0  0  0  0  0  0
  -28.5011  -13.7091   21.8128 H   0  0  0  0  0  0
  -25.2724   -9.5681   22.4758 H   0  0  0  0  0  0
  -23.9988   -7.4624   22.7463 H   0  0  0  0  0  0
  -21.0820   -8.8749   19.8951 H   0  0  0  0  0  0
  -22.3656  -10.9660   19.6168 H   0  0  0  0  0  0
  -21.2005   -7.6140   23.9713 H   0  0  0  0  0  0
  -21.1477   -6.0518   25.9076 H   0  0  0  0  0  0
  -22.0605   -2.7606   23.2848 H   0  0  0  0  0  0
  -22.4082  -11.9900   22.4791 H   0  0  0  0  0  0
  -21.1101  -13.1290   22.2605 H   0  0  0  0  0  0
  -24.6786  -15.8492   20.5317 H   0  0  0  0  0  0
  -26.3071  -15.6138   20.1339 H   0  0  0  0  0  0
  -26.7084  -32.5540   23.1130 H   0  0  0  0  0  0
  -25.0079  -33.9793   25.0482 H   0  0  0  0  0  0
  -22.6839  -31.3042   21.4105 H   0  0  0  0  0  0
  -23.3749  -35.9654   23.3317 H   0  0  0  0  0  0
  -24.3586  -36.8907   22.2045 H   0  0  0  0  0  0
  -23.7260  -37.6527   23.6636 H   0  0  0  0  0  0
  -26.0225  -31.6060   20.5848 H   0  0  0  0  0  0
  -26.8146  -30.9028   21.9656 H   0  0  0  0  0  0
  -28.0994  -29.1427   21.1273 H   0  0  0  0  0  0
  -26.0367  -25.9580   19.0473 H   0  0  0  0  0  0
  -23.9732  -27.2653   19.0818 H   0  0  0  0  0  0
  -23.7108  -30.5850   19.4028 H   0  0  0  0  0  0
  -22.7303  -29.2299   19.8747 H   0  0  0  0  0  0
  -25.1308  -36.1966   25.0816 H   0  0  0  0  0  0
  -20.9930  -28.3203   24.1470 H   0  0  0  0  0  0
  -20.5703  -26.2241   23.3599 H   0  0  0  0  0  0
  -21.6631  -26.7477   22.1202 H   0  0  0  0  0  0
  -19.6911  -25.6323   21.1215 H   0  0  0  0  0  0
  -19.6682  -27.3242   20.6785 H   0  0  0  0  0  0
  -17.4196  -26.6688   21.4011 H   0  0  0  0  0  0
  -18.0303  -26.0058   22.9009 H   0  0  0  0  0  0
  -19.7927  -30.7248   24.2295 H   0  0  0  0  0  0
  -17.5016  -31.6271   24.5170 H   0  0  0  0  0  0
  -15.5346  -30.3012   23.7646 H   0  0  0  0  0  0
  -15.8648  -28.0844   22.7053 H   0  0  0  0  0  0
  -24.5957  -30.7000   25.7822 H   0  0  0  0  0  0
  -24.8950  -32.2828   26.4912 H   0  0  0  0  0  0
  -25.8169  -30.8868   27.0200 H   0  0  0  0  0  0
  -26.2742  -29.6838   24.1083 H   0  0  0  0  0  0
  -27.4065  -29.7217   25.4409 H   0  0  0  0  0  0
  -27.8579  -30.4346   23.9081 H   0  0  0  0  0  0
  -27.2636  -33.3581   26.2079 H   0  0  0  0  0  0
  -28.3850  -32.6897   25.0308 H   0  0  0  0  0  0
  -28.0706  -31.8402   26.5367 H   0  0  0  0  0  0
  -28.2617  -38.0096   24.7505 H   0  0  0  0  0  0
  -28.1048  -36.2621   24.6305 H   0  0  0  0  0  0
  -27.2276  -37.1488   25.8863 H   0  0  0  0  0  0
  -20.9273  -29.8717   21.6966 H   0  0  0  0  0  0
  -26.0173  -38.2868   24.1429 H   0  0  0  0  0  0
  -28.6355  -24.0358   24.1023 H   0  0  0  0  0  0
  -28.9904  -25.7432   22.3334 H   0  0  0  0  0  0
  -27.8185  -21.7772   23.5148 H   0  0  0  0  0  0
  -27.8318  -17.7452   20.1508 H   0  0  0  0  0  0
  -27.6060  -22.9777   19.3598 H   0  0  0  0  0  0
  -31.2823  -17.9031   17.5602 H   0  0  0  0  0  0
  -30.2728  -24.3339   18.7928 H   0  0  0  0  0  0
  -30.7618  -25.5394   19.9818 H   0  0  0  0  0  0
  -30.2880  -26.0357   18.3619 H   0  0  0  0  0  0
  -30.7848  -22.2257   17.2166 H   0  0  0  0  0  0
  -29.3994  -23.1785   16.7007 H   0  0  0  0  0  0
  -29.6715  -21.5974   15.9807 H   0  0  0  0  0  0
  -28.9455  -15.6540   18.5118 H   0  0  0  0  0  0
  -30.6548  -15.8412   18.3890 H   0  0  0  0  0  0
  -26.2451  -19.6169   19.7966 H   0  0  0  0  0  0
  -26.7098  -21.1068   19.0683 H   0  0  0  0  0  0
  -27.9907  -25.2656   18.7470 H   0  0  0  0  0  0
  -27.0281  -20.2529   21.8967 H   0  0  0  0  0  0
  -30.1803  -16.2505   21.0338 H   0  0  0  0  0  0
  1 25  1  0  0  0
  1 30  2  0  0  0
  1 89  1  0  0  0
  2  3  1  0  0  0
  2 25  1  0  0  0
  2 91  1  0  0  0
  2 92  1  0  0  0
  3  4  1  0  0  0
  3 93  1  0  0  0
  3 94  1  0  0  0
  4  5  1  0  0  0
  4 95  1  0  0  0
  4 96  1  0  0  0
  5  6  1  0  0  0
  5 26  1  0  0  0
  5 97  1  0  0  0
  6 25  1  0  0  0
  6 98  1  0  0  0
  6 99  1  0  0  0
  7  8  2  0  0  0
  7 26  1  0  0  0
  7 29  1  0  0  0
  8  9  1  0  0  0
  8 22  1  0  0  0
  9 10  1  0  0  0
  9 27  2  0  0  0
 10 11  2  0  0  0
 10 15  1  0  0  0
 11 12  1  0  0  0
 11100  1  0  0  0
 12 13  2  0  0  0
 12101  1  0  0  0
 13 14  1  0  0  0
 13 31  1  0  0  0
 14 15  2  0  0  0
 14102  1  0  0  0
 15103  1  0  0  0
 16 17  2  0  0  0
 16 21  1  0  0  0
 16 31  1  0  0  0
 17 18  1  0  0  0
 17104  1  0  0  0
 18 19  2  0  0  0
 18105  1  0  0  0
 19 20  1  0  0  0
 19 24  1  0  0  0
 20 21  2  0  0  0
 20106  1  0  0  0
 21 23  1  0  0  0
 22 28  1  0  0  0
 22 32  2  0  0  0
 26 27  1  0  0  0
 28107  1  0  0  0
 28108  1  0  0  0
 29109  1  0  0  0
 29110  1  0  0  0
 33 34  1  0  0  0
 33 66  1  0  0  0
 33 70  2  0  0  0
 34 36  1  0  0  0
 34 59  1  0  0  0
 34111  1  0  0  0
 35 44  2  0  0  0
 35 45  1  0  0  0
 35 68  1  0  0  0
 36 56  1  0  0  0
 36112  1  0  0  0
 37 39  1  0  0  0
 37 47  1  0  0  0
 37 66  1  0  0  0
 37113  1  0  0  0
 38 43  2  0  0  0
 38 46  1  0  0  0
 38 47  1  0  0  0
 39 64  1  0  0  0
 39 67  2  0  0  0
 40 52  1  0  0  0
 40 53  2  0  0  0
 40 58  1  0  0  0
 41114  1  0  0  0
 41115  1  0  0  0
 41116  1  0  0  0
 41 48  1  0  0  0
 42 43  1  0  0  0
 42 66  1  0  0  0
 42117  1  0  0  0
 42118  1  0  0  0
 43 44  1  0  0  0
 44119  1  0  0  0
 45 46  2  0  0  0
 45120  1  0  0  0
 46121  1  0  0  0
 47122  1  0  0  0
 47123  1  0  0  0
 48 56  1  0  0  0
 48 65  1  0  0  0
 48124  1  0  0  0
 49 50  1  0  0  0
 49 53  1  0  0  0
 49 64  1  0  0  0
 49125  1  0  0  0
 50 51  1  0  0  0
 50126  1  0  0  0
 50127  1  0  0  0
 51 52  1  0  0  0
 51128  1  0  0  0
 51129  1  0  0  0
 52130  1  0  0  0
 52131  1  0  0  0
 53 54  1  0  0  0
 54 55  2  0  0  0
 54132  1  0  0  0
 55 57  1  0  0  0
 55133  1  0  0  0
 56 69  2  0  0  0
 57 58  2  0  0  0
 57134  1  0  0  0
 58135  1  0  0  0
 59 60  1  0  0  0
 59 61  1  0  0  0
 59 62  1  0  0  0
 60136  1  0  0  0
 60137  1  0  0  0
 60138  1  0  0  0
 61139  1  0  0  0
 61140  1  0  0  0
 61141  1  0  0  0
 62142  1  0  0  0
 62143  1  0  0  0
 62144  1  0  0  0
 63 65  1  0  0  0
 63145  1  0  0  0
 63146  1  0  0  0
 63147  1  0  0  0
 64148  1  0  0  0
 65149  1  0  0  0
 68 86  1  0  0  0
 71 72  2  0  0  0
 71 73  1  0  0  0
 71150  1  0  0  0
 72 77  1  0  0  0
 72151  1  0  0  0
 73 80  2  0  0  0
 73152  1  0  0  0
 74 78  2  0  0  0
 74 79  1  0  0  0
 74153  1  0  0  0
 75 77  2  0  0  0
 75 80  1  0  0  0
 75154  1  0  0  0
 76 78  1  0  0  0
 76 87  2  0  0  0
 76155  1  0  0  0
 77 86  1  0  0  0
 78 84  1  0  0  0
 79 81  2  0  0  0
 79 85  1  0  0  0
 80 88  1  0  0  0
 81 87  1  0  0  0
 81 90  1  0  0  0
 82156  1  0  0  0
 82157  1  0  0  0
 82158  1  0  0  0
 82 86  1  0  0  0
 83 90  1  0  0  0
 83159  1  0  0  0
 83160  1  0  0  0
 83161  1  0  0  0
 84 89  1  0  0  0
 84162  1  0  0  0
 84163  1  0  0  0
 85 88  1  0  0  0
 85164  1  0  0  0
 85165  1  0  0  0
 86166  1  0  0  0
 88167  1  0  0  0
 89168  1  0  0  0
M  ISO  4   1 100  68 101  86 101  89 100
M  END
> <chiral flag>
0

> <version>
0

> <s_m_source_file>
/data/baiqing/PycharmProjects/Reinvent-master-3.2/result/LINK_invent/BTK/process_docking_weight1_custom_sum_contain_oxygen_bond_distance_aromatic_linkinvent_7_9_3/rearranged_h_0134.sdf

> <i_m_source_file_index>
47

> <r_mmod_Potential_Energy-OPLS-2005>
-118.719375610352

> <r_mmod_Stretch_Energy-OPLS-2005>
34.2584228515625

> <r_mmod_Bend_Energy-OPLS-2005>
130.549118041992

> <r_mmod_Torsional_Energy-OPLS-2005>
268.311096191406

> <r_mmod_Improper_Torsional_Energy-OPLS-2005>
19.7940521240234

> <r_mmod_Van_der_Waal_Energy-OPLS-2005>
173.846206665039

> <r_mmod_Electrostatic_Energy-OPLS-2005>
-535.06201171875

> <r_mmod_Solvation_Energy-OPLS-2005>
-231.23796081543

> <b_mmod_Minimization_Converged-OPLS-2005>
0

> <r_mmod_RMS_Derivative-OPLS-2005>
1.64518904685974

$$$$
47
                    3D
 Structure written by MMmdl.
158167  0  0  1  0            999 V2000
  -30.4928  -14.9627   20.4233 C   0  0  0  0  0  0
  -30.4517  -12.5942   19.4982 C   0  0  0  0  0  0
  -29.5272  -12.5358   18.2577 C   0  0  0  0  0  0
  -28.0587  -12.3178   18.6723 C   0  0  0  0  0  0
  -27.6341  -13.2415   19.8431 C   0  0  2  0  0  0
  -28.6763  -13.2447   20.9821 C   0  0  0  0  0  0
  -25.2485  -13.8203   20.5697 C   0  0  0  0  0  0
  -24.1794  -13.0437   20.9227 C   0  0  0  0  0  0
  -24.6397  -11.6918   20.8749 C   0  0  0  0  0  0
  -23.9074  -10.4293   21.0405 C   0  0  0  0  0  0
  -24.3622   -9.4207   21.9184 C   0  0  0  0  0  0
  -23.6296   -8.2242   22.0754 C   0  0  0  0  0  0
  -22.4278   -8.0280   21.3544 C   0  0  0  0  0  0
  -21.9914   -9.0254   20.4645 C   0  0  0  0  0  0
  -22.7244  -10.2134   20.3054 C   0  0  0  0  0  0
  -21.6856   -6.0732   22.5279 C   0  0  0  0  0  0
  -21.4015   -6.5637   23.8211 C   0  0  0  0  0  0
  -21.3661   -5.6790   24.9173 C   0  0  0  0  0  0
  -21.6044   -4.3052   24.7225 C   0  0  0  0  0  0
  -21.8821   -3.8144   23.4347 C   0  0  0  0  0  0
  -21.9193   -4.6959   22.3402 C   0  0  0  0  0  0
  -22.7813  -13.5214   21.1882 C   0  0  0  0  0  0
  -22.1663   -4.2143   21.0979 F   0  0  0  0  0  0
  -21.5629   -3.4538   25.7739 F   0  0  0  0  0  0
  -29.9530  -13.6759   20.3947 N   0  0  0  0  0  0
  -26.2902  -12.9417   20.3239 N   0  0  0  0  0  0
  -25.9327  -11.6554   20.5732 N   0  0  0  0  0  0
  -22.0461  -12.8199   22.0435 N   0  0  0  0  0  0
  -25.4159  -15.1930   20.4097 N   0  0  0  0  0  0
  -31.6856  -15.0861   20.1188 O   0  0  0  0  0  0
  -21.6642   -6.8877   21.4242 O   0  0  0  0  0  0
  -22.3495  -14.5516   20.6723 O   0  0  0  0  0  0
  -24.6438  -31.8412   23.1850 C   0  0  0  0  0  0
  -25.9200  -32.4678   23.8251 C   0  0  1  0  0  0
  -27.2219  -27.1210   20.1586 C   0  0  0  0  0  0
  -25.5941  -33.8487   24.2166 N   0  0  0  0  0  0
  -23.4489  -30.4585   21.5302 C   0  0  2  0  0  0
  -24.8996  -28.8778   20.1095 C   0  0  0  0  0  0
  -22.7571  -29.4528   22.4846 C   0  0  0  0  0  0
  -18.0307  -28.1397   22.8481 C   0  0  0  0  0  0
  -24.1491  -36.7250   23.2647 C   0  0  0  0  0  0
  -26.0043  -30.7104   21.3854 C   0  0  0  0  0  0
  -26.0752  -29.3191   20.7295 C   0  0  0  0  0  0
  -27.2350  -28.4566   20.7345 C   0  0  0  0  0  0
  -26.0224  -26.7809   19.4971 C   0  0  0  0  0  0
  -24.8869  -27.6232   19.4781 C   0  0  0  0  0  0
  -23.6768  -29.7825   20.1506 C   0  0  0  0  0  0
  -25.4124  -36.3023   24.0318 C   0  0  1  0  0  0
  -20.5920  -28.3720   23.1237 C   0  0  2  0  0  0
  -20.6789  -26.9422   22.5406 C   0  0  0  0  0  0
  -19.5763  -26.6379   21.5215 C   0  0  0  0  0  0
  -18.1945  -26.7936   22.1626 C   0  0  0  0  0  0
  -19.1564  -28.8878   23.2852 C   0  0  0  0  0  0
  -18.9481  -30.1477   23.8873 C   0  0  0  0  0  0
  -17.6476  -30.6595   24.0561 C   0  0  0  0  0  0
  -25.9076  -34.9402   23.5057 C   0  0  0  0  0  0
  -16.5368  -29.9087   23.6337 C   0  0  0  0  0  0
  -16.7292  -28.6506   23.0357 C   0  0  0  0  0  0
  -26.4523  -31.6554   25.0702 C   0  0  0  0  0  0
  -25.3707  -31.3748   26.1396 C   0  0  0  0  0  0
  -27.0394  -30.2949   24.6292 C   0  0  0  0  0  0
  -27.6049  -32.4327   25.7490 C   0  0  0  0  0  0
  -27.5574  -37.1780   24.8469 C   0  0  0  0  0  0
  -21.4260  -29.3043   22.3603 N   0  0  0  0  0  0
  -26.4285  -37.3738   23.9412 N   0  0  0  0  0  0
  -24.7190  -31.0255   22.0887 N   0  0  0  0  0  0
  -23.4207  -28.8083   23.3007 O   0  0  0  0  0  0
  -28.2936  -26.1555   20.2364 O   0  0  0  0  0  0
  -26.5673  -34.8907   22.4641 O   0  0  0  0  0  0
  -23.5554  -32.1295   23.7062 O   0  0  0  0  0  0
  -30.4096  -20.0073   20.1289 C   0  0  0  0  0  0
  -28.2634  -19.7824   21.0420 C   0  0  0  0  0  0
  -30.5673  -18.5492   20.0921 C   0  0  0  0  0  0
  -28.4126  -18.3338   20.9952 C   0  0  0  0  0  0
  -29.2575  -20.7321   20.6283 C   0  0  0  0  0  0
  -29.5809  -17.6106   20.5584 C   0  0  0  0  0  0
  -29.3480  -22.2067   21.2772 C   0  0  0  0  0  0
  -28.9408  -23.5979   21.1325 C   0  0  0  0  0  0
  -30.1353  -21.8621   22.5634 C   0  0  0  0  0  0
  -29.2412  -24.5959   22.2697 C   0  0  0  0  0  0
  -30.7574  -23.0080   23.3487 C   0  0  0  0  0  0
  -29.6836  -24.0276   23.6086 C   0  0  0  0  0  0
  -28.1568  -24.5920   20.0876 C   0  0  0  0  0  0
  -29.6180  -16.0674   20.6327 N   0  0  0  0  0  0
  -31.4818  -12.7732   19.1862 H   0  0  0  0  0  0
  -30.4610  -11.6362   20.0207 H   0  0  0  0  0  0
  -29.8479  -11.7412   17.5823 H   0  0  0  0  0  0
  -29.6123  -13.4672   17.6959 H   0  0  0  0  0  0
  -27.9527  -11.2741   18.9709 H   0  0  0  0  0  0
  -27.3968  -12.4579   17.8169 H   0  0  0  0  0  0
  -27.6040  -14.2480   19.4252 H   0  0  0  0  0  0
  -28.7664  -12.2557   21.4342 H   0  0  0  0  0  0
  -28.3713  -13.9199   21.7829 H   0  0  0  0  0  0
  -25.2770   -9.5681   22.4757 H   0  0  0  0  0  0
  -24.0004   -7.4633   22.7472 H   0  0  0  0  0  0
  -21.0847   -8.8773   19.8950 H   0  0  0  0  0  0
  -22.3705  -10.9670   19.6160 H   0  0  0  0  0  0
  -21.2009   -7.6146   23.9713 H   0  0  0  0  0  0
  -21.1481   -6.0520   25.9075 H   0  0  0  0  0  0
  -22.0599   -2.7605   23.2849 H   0  0  0  0  0  0
  -22.4088  -11.9866   22.4826 H   0  0  0  0  0  0
  -21.1072  -13.1209   22.2633 H   0  0  0  0  0  0
  -24.6398  -15.8385   20.5085 H   0  0  0  0  0  0
  -26.2398  -15.6274   20.0156 H   0  0  0  0  0  0
  -26.7266  -32.5284   23.0978 H   0  0  0  0  0  0
  -25.0052  -33.9594   25.0290 H   0  0  0  0  0  0
  -22.7526  -31.2848   21.3720 H   0  0  0  0  0  0
  -23.3759  -35.9574   23.3291 H   0  0  0  0  0  0
  -24.3575  -36.8899   22.2064 H   0  0  0  0  0  0
  -23.7243  -37.6441   23.6695 H   0  0  0  0  0  0
  -26.1613  -31.4626   20.6110 H   0  0  0  0  0  0
  -26.8744  -30.7621   22.0285 H   0  0  0  0  0  0
  -28.1307  -28.7895   21.2394 H   0  0  0  0  0  0
  -25.9375  -25.8233   19.0050 H   0  0  0  0  0  0
  -23.9901  -27.2814   18.9795 H   0  0  0  0  0  0
  -23.8152  -30.5549   19.3931 H   0  0  0  0  0  0
  -22.7912  -29.2249   19.8401 H   0  0  0  0  0  0
  -25.1315  -36.1844   25.0810 H   0  0  0  0  0  0
  -21.0018  -28.3310   24.1357 H   0  0  0  0  0  0
  -20.5677  -26.2335   23.3627 H   0  0  0  0  0  0
  -21.6655  -26.7424   22.1208 H   0  0  0  0  0  0
  -19.6917  -25.6282   21.1263 H   0  0  0  0  0  0
  -19.6699  -27.3181   20.6736 H   0  0  0  0  0  0
  -17.4213  -26.6690   21.4029 H   0  0  0  0  0  0
  -18.0335  -26.0085   22.9027 H   0  0  0  0  0  0
  -19.7956  -30.7303   24.2225 H   0  0  0  0  0  0
  -17.5030  -31.6271   24.5170 H   0  0  0  0  0  0
  -15.5368  -30.2980   23.7673 H   0  0  0  0  0  0
  -15.8694  -28.0817   22.7077 H   0  0  0  0  0  0
  -24.5897  -30.7083   25.7719 H   0  0  0  0  0  0
  -24.8887  -32.2932   26.4758 H   0  0  0  0  0  0
  -25.7990  -30.8967   27.0214 H   0  0  0  0  0  0
  -26.3015  -29.6665   24.1291 H   0  0  0  0  0  0
  -27.4004  -29.7254   25.4868 H   0  0  0  0  0  0
  -27.8922  -30.4191   23.9617 H   0  0  0  0  0  0
  -27.2632  -33.3649   26.2000 H   0  0  0  0  0  0
  -28.3890  -32.6853   25.0340 H   0  0  0  0  0  0
  -28.0678  -31.8498   26.5462 H   0  0  0  0  0  0
  -28.2581  -38.0085   24.7506 H   0  0  0  0  0  0
  -28.1079  -36.2613   24.6301 H   0  0  0  0  0  0
  -27.2292  -37.1433   25.8872 H   0  0  0  0  0  0
  -20.9470  -29.8759   21.6786 H   0  0  0  0  0  0
  -26.0149  -38.2807   24.1408 H   0  0  0  0  0  0
  -31.2762  -20.5936   19.8582 H   0  0  0  0  0  0
  -27.3722  -20.1704   21.5147 H   0  0  0  0  0  0
  -31.5075  -18.1552   19.7323 H   0  0  0  0  0  0
  -27.5829  -17.7549   21.3759 H   0  0  0  0  0  0
  -30.9732  -21.2041   22.3312 H   0  0  0  0  0  0
  -29.4790  -21.2861   23.2178 H   0  0  0  0  0  0
  -28.3483  -25.1879   22.4794 H   0  0  0  0  0  0
  -30.0023  -25.2928   21.9142 H   0  0  0  0  0  0
  -31.5860  -23.4528   22.7948 H   0  0  0  0  0  0
  -31.1679  -22.6386   24.2896 H   0  0  0  0  0  0
  -28.8401  -23.5701   24.1287 H   0  0  0  0  0  0
  -30.0548  -24.8248   24.2539 H   0  0  0  0  0  0
  -28.4376  -24.3118   19.0725 H   0  0  0  0  0  0
  -27.1032  -24.3336   20.1881 H   0  0  0  0  0  0
  -28.7184  -15.6970   20.8982 H   0  0  0  0  0  0
  1 25  1  0  0  0
  1 30  2  0  0  0
  1 84  1  0  0  0
  2  3  1  0  0  0
  2 25  1  0  0  0
  2 85  1  0  0  0
  2 86  1  0  0  0
  3  4  1  0  0  0
  3 87  1  0  0  0
  3 88  1  0  0  0
  4  5  1  0  0  0
  4 89  1  0  0  0
  4 90  1  0  0  0
  5  6  1  0  0  0
  5 26  1  0  0  0
  5 91  1  0  0  0
  6 25  1  0  0  0
  6 92  1  0  0  0
  6 93  1  0  0  0
  7  8  2  0  0  0
  7 26  1  0  0  0
  7 29  1  0  0  0
  8  9  1  0  0  0
  8 22  1  0  0  0
  9 10  1  0  0  0
  9 27  2  0  0  0
 10 11  2  0  0  0
 10 15  1  0  0  0
 11 12  1  0  0  0
 11 94  1  0  0  0
 12 13  2  0  0  0
 12 95  1  0  0  0
 13 14  1  0  0  0
 13 31  1  0  0  0
 14 15  2  0  0  0
 14 96  1  0  0  0
 15 97  1  0  0  0
 16 17  2  0  0  0
 16 21  1  0  0  0
 16 31  1  0  0  0
 17 18  1  0  0  0
 17 98  1  0  0  0
 18 19  2  0  0  0
 18 99  1  0  0  0
 19 20  1  0  0  0
 19 24  1  0  0  0
 20 21  2  0  0  0
 20100  1  0  0  0
 21 23  1  0  0  0
 22 28  1  0  0  0
 22 32  2  0  0  0
 26 27  1  0  0  0
 28101  1  0  0  0
 28102  1  0  0  0
 29103  1  0  0  0
 29104  1  0  0  0
 33 34  1  0  0  0
 33 66  1  0  0  0
 33 70  2  0  0  0
 34 36  1  0  0  0
 34 59  1  0  0  0
 34105  1  0  0  0
 35 44  2  0  0  0
 35 45  1  0  0  0
 35 68  1  0  0  0
 36 56  1  0  0  0
 36106  1  0  0  0
 37 39  1  0  0  0
 37 47  1  0  0  0
 37 66  1  0  0  0
 37107  1  0  0  0
 38 43  2  0  0  0
 38 46  1  0  0  0
 38 47  1  0  0  0
 39 64  1  0  0  0
 39 67  2  0  0  0
 40 52  1  0  0  0
 40 53  2  0  0  0
 40 58  1  0  0  0
 41108  1  0  0  0
 41109  1  0  0  0
 41110  1  0  0  0
 41 48  1  0  0  0
 42 43  1  0  0  0
 42 66  1  0  0  0
 42111  1  0  0  0
 42112  1  0  0  0
 43 44  1  0  0  0
 44113  1  0  0  0
 45 46  2  0  0  0
 45114  1  0  0  0
 46115  1  0  0  0
 47116  1  0  0  0
 47117  1  0  0  0
 48 56  1  0  0  0
 48 65  1  0  0  0
 48118  1  0  0  0
 49 50  1  0  0  0
 49 53  1  0  0  0
 49 64  1  0  0  0
 49119  1  0  0  0
 50 51  1  0  0  0
 50120  1  0  0  0
 50121  1  0  0  0
 51 52  1  0  0  0
 51122  1  0  0  0
 51123  1  0  0  0
 52124  1  0  0  0
 52125  1  0  0  0
 53 54  1  0  0  0
 54 55  2  0  0  0
 54126  1  0  0  0
 55 57  1  0  0  0
 55127  1  0  0  0
 56 69  2  0  0  0
 57 58  2  0  0  0
 57128  1  0  0  0
 58129  1  0  0  0
 59 60  1  0  0  0
 59 61  1  0  0  0
 59 62  1  0  0  0
 60130  1  0  0  0
 60131  1  0  0  0
 60132  1  0  0  0
 61133  1  0  0  0
 61134  1  0  0  0
 61135  1  0  0  0
 62136  1  0  0  0
 62137  1  0  0  0
 62138  1  0  0  0
 63 65  1  0  0  0
 63139  1  0  0  0
 63140  1  0  0  0
 63141  1  0  0  0
 64142  1  0  0  0
 65143  1  0  0  0
 68 83  1  0  0  0
 71 73  2  0  0  0
 71 75  1  0  0  0
 71144  1  0  0  0
 72 74  1  0  0  0
 72 75  2  0  0  0
 72145  1  0  0  0
 73 76  1  0  0  0
 73146  1  0  0  0
 74 76  2  0  0  0
 74147  1  0  0  0
 75 77  1  0  0  0
 76 84  1  0  0  0
 77 78  2  0  0  0
 77 79  1  0  0  0
 78 80  1  0  0  0
 78 83  1  0  0  0
 79 81  1  0  0  0
 79148  1  0  0  0
 79149  1  0  0  0
 80 82  1  0  0  0
 80150  1  0  0  0
 80151  1  0  0  0
 81 82  1  0  0  0
 81152  1  0  0  0
 81153  1  0  0  0
 82154  1  0  0  0
 82155  1  0  0  0
 83156  1  0  0  0
 83157  1  0  0  0
 84158  1  0  0  0
M  ISO  4   1 100  68 101  83 101  84 100
M  END
> <chiral flag>
0

> <version>
0

> <s_m_source_file>
/data/baiqing/PycharmProjects/Reinvent-master-3.2/result/LINK_invent/BTK/process_docking_weight1_custom_sum_contain_oxygen_bond_distance_aromatic_linkinvent_7_9_3/rearranged_h_0134.sdf

> <i_m_source_file_index>
48

> <r_mmod_Potential_Energy-OPLS-2005>
698.510803222656

> <r_mmod_Stretch_Energy-OPLS-2005>
266.000244140625

> <r_mmod_Bend_Energy-OPLS-2005>
371.904022216797

> <r_mmod_Torsional_Energy-OPLS-2005>
259.934753417969

> <r_mmod_Improper_Torsional_Energy-OPLS-2005>
12.912015914917

> <r_mmod_Van_der_Waal_Energy-OPLS-2005>
144.648803710938

> <r_mmod_Electrostatic_Energy-OPLS-2005>
-357.640991210938

> <r_mmod_Solvation_Energy-OPLS-2005>
-202.035781860352

> <b_mmod_Minimization_Converged-OPLS-2005>
0

> <r_mmod_RMS_Derivative-OPLS-2005>
0.603268146514893

$$$$
48
                    3D
 Structure written by MMmdl.
158167  0  0  1  0            999 V2000
  -30.5560  -14.7747   20.4384 C   0  0  0  0  0  0
  -30.4404  -12.4679   19.4702 C   0  0  0  0  0  0
  -29.5150  -12.5194   18.2321 C   0  0  0  0  0  0
  -28.0361  -12.3454   18.6363 C   0  0  0  0  0  0
  -27.6413  -13.2284   19.8484 C   0  0  2  0  0  0
  -28.6864  -13.1413   20.9812 C   0  0  0  0  0  0
  -25.2508  -13.8156   20.5669 C   0  0  0  0  0  0
  -24.1811  -13.0408   20.9214 C   0  0  0  0  0  0
  -24.6396  -11.6889   20.8738 C   0  0  0  0  0  0
  -23.9067  -10.4275   21.0401 C   0  0  0  0  0  0
  -24.3624   -9.4196   21.9180 C   0  0  0  0  0  0
  -23.6307   -8.2228   22.0744 C   0  0  0  0  0  0
  -22.4286   -8.0272   21.3541 C   0  0  0  0  0  0
  -21.9918   -9.0236   20.4637 C   0  0  0  0  0  0
  -22.7236  -10.2119   20.3051 C   0  0  0  0  0  0
  -21.6853   -6.0744   22.5283 C   0  0  0  0  0  0
  -21.4013   -6.5645   23.8219 C   0  0  0  0  0  0
  -21.3656   -5.6794   24.9179 C   0  0  0  0  0  0
  -21.6040   -4.3058   24.7224 C   0  0  0  0  0  0
  -21.8818   -3.8155   23.4345 C   0  0  0  0  0  0
  -21.9197   -4.6974   22.3405 C   0  0  0  0  0  0
  -22.7839  -13.5200   21.1874 C   0  0  0  0  0  0
  -22.1674   -4.2162   21.0983 F   0  0  0  0  0  0
  -21.5620   -3.4541   25.7732 F   0  0  0  0  0  0
  -29.9855  -13.5195   20.4092 N   0  0  0  0  0  0
  -26.2926  -12.9356   20.3240 N   0  0  0  0  0  0
  -25.9321  -11.6503   20.5720 N   0  0  0  0  0  0
  -22.0514  -12.8175   22.0437 N   0  0  0  0  0  0
  -25.4153  -15.1876   20.4017 N   0  0  0  0  0  0
  -31.7452  -14.9054   20.1253 O   0  0  0  0  0  0
  -21.6640   -6.8879   21.4241 O   0  0  0  0  0  0
  -22.3519  -14.5515   20.6729 O   0  0  0  0  0  0
  -24.6319  -31.8541   23.1923 C   0  0  0  0  0  0
  -25.9133  -32.4757   23.8298 C   0  0  1  0  0  0
  -27.2266  -27.2511   20.1403 C   0  0  0  0  0  0
  -25.5899  -33.8563   24.2221 N   0  0  0  0  0  0
  -23.4332  -30.4753   21.5351 C   0  0  2  0  0  0
  -24.8804  -28.9076   20.1156 C   0  0  0  0  0  0
  -22.7504  -29.4650   22.4904 C   0  0  0  0  0  0
  -18.0326  -28.1444   22.8495 C   0  0  0  0  0  0
  -24.1483  -36.7276   23.2647 C   0  0  0  0  0  0
  -25.9780  -30.7621   21.3738 C   0  0  0  0  0  0
  -26.0509  -29.3796   20.7245 C   0  0  0  0  0  0
  -27.2292  -28.5657   20.7240 C   0  0  0  0  0  0
  -26.0367  -26.8449   19.5047 C   0  0  0  0  0  0
  -24.8779  -27.6486   19.4917 C   0  0  0  0  0  0
  -23.6536  -29.7967   20.1564 C   0  0  0  0  0  0
  -25.4123  -36.3074   24.0319 C   0  0  1  0  0  0
  -20.5925  -28.3749   23.1259 C   0  0  2  0  0  0
  -20.6830  -26.9469   22.5421 C   0  0  0  0  0  0
  -19.5795  -26.6430   21.5237 C   0  0  0  0  0  0
  -18.1977  -26.7970   22.1643 C   0  0  0  0  0  0
  -19.1580  -28.8913   23.2873 C   0  0  0  0  0  0
  -18.9501  -30.1505   23.8899 C   0  0  0  0  0  0
  -17.6505  -30.6631   24.0598 C   0  0  0  0  0  0
  -25.9064  -34.9440   23.5086 C   0  0  0  0  0  0
  -16.5400  -29.9135   23.6361 C   0  0  0  0  0  0
  -16.7311  -28.6559   23.0378 C   0  0  0  0  0  0
  -26.4468  -31.6612   25.0702 C   0  0  0  0  0  0
  -25.3673  -31.3818   26.1410 C   0  0  0  0  0  0
  -27.0291  -30.3014   24.6214 C   0  0  0  0  0  0
  -27.6009  -32.4352   25.7494 C   0  0  0  0  0  0
  -27.5578  -37.1819   24.8459 C   0  0  0  0  0  0
  -21.4226  -29.3078   22.3610 N   0  0  0  0  0  0
  -26.4277  -37.3795   23.9406 N   0  0  0  0  0  0
  -24.6996  -31.0512   22.0881 N   0  0  0  0  0  0
  -23.4188  -28.8219   23.3054 O   0  0  0  0  0  0
  -28.2952  -26.3195   20.1308 O   0  0  0  0  0  0
  -26.5654  -34.8913   22.4656 O   0  0  0  0  0  0
  -23.5465  -32.1362   23.7216 O   0  0  0  0  0  0
  -28.7091  -23.8959   23.6331 C   0  0  0  0  0  0
  -28.6157  -25.2880   23.6526 C   0  0  0  0  0  0
  -28.4972  -19.5192   20.5015 C   0  0  0  0  0  0
  -28.7088  -23.2182   22.4065 C   0  0  0  0  0  0
  -28.4956  -25.9918   22.4472 C   0  0  0  0  0  0
  -28.5499  -18.0886   20.6464 C   0  0  0  0  0  0
  -29.6560  -20.2667   20.1632 C   0  0  0  0  0  0
  -28.6107  -23.8808   21.1551 C   0  0  0  0  0  0
  -28.4393  -25.3625   21.1755 C   0  0  0  0  0  0
  -30.8039  -19.4255   19.9708 C   0  0  0  0  0  0
  -29.7429  -17.3236   20.4532 C   0  0  0  0  0  0
  -32.1539  -20.0260   19.6234 C   0  0  0  0  0  0
  -29.7727  -21.8690   20.0289 C   0  0  0  0  0  0
  -30.8373  -18.0541   20.1045 N   0  0  0  0  0  0
  -28.6825  -22.9371   20.0660 N   0  0  0  0  0  0
  -29.6927  -15.8479   20.6503 N   0  0  0  0  0  0
  -31.4795  -12.6097   19.1680 H   0  0  0  0  0  0
  -30.3980  -11.4883   19.9484 H   0  0  0  0  0  0
  -29.8023  -11.7477   17.5159 H   0  0  0  0  0  0
  -29.6412  -13.4731   17.7166 H   0  0  0  0  0  0
  -27.8815  -11.2945   18.8803 H   0  0  0  0  0  0
  -27.3869  -12.5604   17.7862 H   0  0  0  0  0  0
  -27.6358  -14.2530   19.4778 H   0  0  0  0  0  0
  -28.7287  -12.1294   21.3857 H   0  0  0  0  0  0
  -28.4143  -13.7905   21.8140 H   0  0  0  0  0  0
  -25.2764   -9.5677   22.4760 H   0  0  0  0  0  0
  -24.0024   -7.4611   22.7445 H   0  0  0  0  0  0
  -21.0858   -8.8731   19.8942 H   0  0  0  0  0  0
  -22.3677  -10.9656   19.6168 H   0  0  0  0  0  0
  -21.2008   -7.6153   23.9726 H   0  0  0  0  0  0
  -21.1481   -6.0526   25.9082 H   0  0  0  0  0  0
  -22.0604   -2.7622   23.2831 H   0  0  0  0  0  0
  -22.4173  -11.9841   22.4790 H   0  0  0  0  0  0
  -21.1137  -13.1179   22.2688 H   0  0  0  0  0  0
  -24.6157  -15.8104   20.4560 H   0  0  0  0  0  0
  -26.2071  -15.6047   19.9304 H   0  0  0  0  0  0
  -26.7183  -32.5419   23.1035 H   0  0  0  0  0  0
  -24.9961  -33.9691   25.0309 H   0  0  0  0  0  0
  -22.7327  -31.3001   21.3818 H   0  0  0  0  0  0
  -23.3737  -35.9610   23.3301 H   0  0  0  0  0  0
  -24.3577  -36.8922   22.2065 H   0  0  0  0  0  0
  -23.7241  -37.6477   23.6672 H   0  0  0  0  0  0
  -26.1221  -31.5144   20.5976 H   0  0  0  0  0  0
  -26.8544  -30.8171   22.0078 H   0  0  0  0  0  0
  -28.1240  -28.9264   21.2106 H   0  0  0  0  0  0
  -25.9981  -25.8728   19.0329 H   0  0  0  0  0  0
  -23.9803  -27.2850   19.0051 H   0  0  0  0  0  0
  -23.7805  -30.5616   19.3899 H   0  0  0  0  0  0
  -22.7751  -29.2241   19.8583 H   0  0  0  0  0  0
  -25.1336  -36.1890   25.0816 H   0  0  0  0  0  0
  -21.0079  -28.3352   24.1363 H   0  0  0  0  0  0
  -20.5777  -26.2370   23.3635 H   0  0  0  0  0  0
  -21.6693  -26.7522   22.1204 H   0  0  0  0  0  0
  -19.6936  -25.6341   21.1281 H   0  0  0  0  0  0
  -19.6718  -27.3235   20.6758 H   0  0  0  0  0  0
  -17.4266  -26.6745   21.4018 H   0  0  0  0  0  0
  -18.0325  -26.0128   22.9053 H   0  0  0  0  0  0
  -19.7987  -30.7335   24.2248 H   0  0  0  0  0  0
  -17.5082  -31.6306   24.5219 H   0  0  0  0  0  0
  -15.5411  -30.3069   23.7681 H   0  0  0  0  0  0
  -15.8716  -28.0899   22.7079 H   0  0  0  0  0  0
  -24.5801  -30.7214   25.7750 H   0  0  0  0  0  0
  -24.8894  -32.3015   26.4805 H   0  0  0  0  0  0
  -25.7964  -30.9012   27.0207 H   0  0  0  0  0  0
  -26.2873  -29.6797   24.1169 H   0  0  0  0  0  0
  -27.3869  -29.7262   25.4766 H   0  0  0  0  0  0
  -27.8799  -30.4275   23.9507 H   0  0  0  0  0  0
  -27.2600  -33.3657   26.2044 H   0  0  0  0  0  0
  -28.3841  -32.6925   25.0353 H   0  0  0  0  0  0
  -28.0607  -31.8474   26.5450 H   0  0  0  0  0  0
  -28.2635  -38.0096   24.7543 H   0  0  0  0  0  0
  -28.1056  -36.2641   24.6252 H   0  0  0  0  0  0
  -27.2292  -37.1440   25.8864 H   0  0  0  0  0  0
  -20.9416  -29.8702   21.6731 H   0  0  0  0  0  0
  -26.0129  -38.2849   24.1434 H   0  0  0  0  0  0
  -28.7965  -23.3430   24.5589 H   0  0  0  0  0  0
  -28.6317  -25.8228   24.5924 H   0  0  0  0  0  0
  -27.5658  -20.0413   20.6703 H   0  0  0  0  0  0
  -28.7859  -22.1399   22.4541 H   0  0  0  0  0  0
  -28.4536  -27.0667   22.5214 H   0  0  0  0  0  0
  -27.6346  -17.5841   20.9255 H   0  0  0  0  0  0
  -32.5662  -20.5453   20.4882 H   0  0  0  0  0  0
  -32.0755  -20.7314   18.7966 H   0  0  0  0  0  0
  -32.8671  -19.2554   19.3249 H   0  0  0  0  0  0
  -30.2392  -22.0180   19.0540 H   0  0  0  0  0  0
  -30.5477  -22.1628   20.7374 H   0  0  0  0  0  0
  -28.4976  -23.3607   19.1581 H   0  0  0  0  0  0
  -28.7848  -15.5234   20.9375 H   0  0  0  0  0  0
  1 25  1  0  0  0
  1 30  2  0  0  0
  1 86  1  0  0  0
  2  3  1  0  0  0
  2 25  1  0  0  0
  2 87  1  0  0  0
  2 88  1  0  0  0
  3  4  1  0  0  0
  3 89  1  0  0  0
  3 90  1  0  0  0
  4  5  1  0  0  0
  4 91  1  0  0  0
  4 92  1  0  0  0
  5  6  1  0  0  0
  5 26  1  0  0  0
  5 93  1  0  0  0
  6 25  1  0  0  0
  6 94  1  0  0  0
  6 95  1  0  0  0
  7  8  2  0  0  0
  7 26  1  0  0  0
  7 29  1  0  0  0
  8  9  1  0  0  0
  8 22  1  0  0  0
  9 10  1  0  0  0
  9 27  2  0  0  0
 10 11  2  0  0  0
 10 15  1  0  0  0
 11 12  1  0  0  0
 11 96  1  0  0  0
 12 13  2  0  0  0
 12 97  1  0  0  0
 13 14  1  0  0  0
 13 31  1  0  0  0
 14 15  2  0  0  0
 14 98  1  0  0  0
 15 99  1  0  0  0
 16 17  2  0  0  0
 16 21  1  0  0  0
 16 31  1  0  0  0
 17 18  1  0  0  0
 17100  1  0  0  0
 18 19  2  0  0  0
 18101  1  0  0  0
 19 20  1  0  0  0
 19 24  1  0  0  0
 20 21  2  0  0  0
 20102  1  0  0  0
 21 23  1  0  0  0
 22 28  1  0  0  0
 22 32  2  0  0  0
 26 27  1  0  0  0
 28103  1  0  0  0
 28104  1  0  0  0
 29105  1  0  0  0
 29106  1  0  0  0
 33 34  1  0  0  0
 33 66  1  0  0  0
 33 70  2  0  0  0
 34 36  1  0  0  0
 34 59  1  0  0  0
 34107  1  0  0  0
 35 44  2  0  0  0
 35 45  1  0  0  0
 35 68  1  0  0  0
 36 56  1  0  0  0
 36108  1  0  0  0
 37 39  1  0  0  0
 37 47  1  0  0  0
 37 66  1  0  0  0
 37109  1  0  0  0
 38 43  2  0  0  0
 38 46  1  0  0  0
 38 47  1  0  0  0
 39 64  1  0  0  0
 39 67  2  0  0  0
 40 52  1  0  0  0
 40 53  2  0  0  0
 40 58  1  0  0  0
 41110  1  0  0  0
 41111  1  0  0  0
 41112  1  0  0  0
 41 48  1  0  0  0
 42 43  1  0  0  0
 42 66  1  0  0  0
 42113  1  0  0  0
 42114  1  0  0  0
 43 44  1  0  0  0
 44115  1  0  0  0
 45 46  2  0  0  0
 45116  1  0  0  0
 46117  1  0  0  0
 47118  1  0  0  0
 47119  1  0  0  0
 48 56  1  0  0  0
 48 65  1  0  0  0
 48120  1  0  0  0
 49 50  1  0  0  0
 49 53  1  0  0  0
 49 64  1  0  0  0
 49121  1  0  0  0
 50 51  1  0  0  0
 50122  1  0  0  0
 50123  1  0  0  0
 51 52  1  0  0  0
 51124  1  0  0  0
 51125  1  0  0  0
 52126  1  0  0  0
 52127  1  0  0  0
 53 54  1  0  0  0
 54 55  2  0  0  0
 54128  1  0  0  0
 55 57  1  0  0  0
 55129  1  0  0  0
 56 69  2  0  0  0
 57 58  2  0  0  0
 57130  1  0  0  0
 58131  1  0  0  0
 59 60  1  0  0  0
 59 61  1  0  0  0
 59 62  1  0  0  0
 60132  1  0  0  0
 60133  1  0  0  0
 60134  1  0  0  0
 61135  1  0  0  0
 61136  1  0  0  0
 61137  1  0  0  0
 62138  1  0  0  0
 62139  1  0  0  0
 62140  1  0  0  0
 63 65  1  0  0  0
 63141  1  0  0  0
 63142  1  0  0  0
 63143  1  0  0  0
 64144  1  0  0  0
 65145  1  0  0  0
 68 79  1  0  0  0
 71 72  2  0  0  0
 71 74  1  0  0  0
 71146  1  0  0  0
 72 75  1  0  0  0
 72147  1  0  0  0
 73 76  2  0  0  0
 73 77  1  0  0  0
 73148  1  0  0  0
 74 78  2  0  0  0
 74149  1  0  0  0
 75 79  2  0  0  0
 75150  1  0  0  0
 76 81  1  0  0  0
 76151  1  0  0  0
 77 80  2  0  0  0
 77 83  1  0  0  0
 78 79  1  0  0  0
 78 85  1  0  0  0
 80 82  1  0  0  0
 80 84  1  0  0  0
 81 84  2  0  0  0
 81 86  1  0  0  0
 82152  1  0  0  0
 82153  1  0  0  0
 82154  1  0  0  0
 83 85  1  0  0  0
 83155  1  0  0  0
 83156  1  0  0  0
 85157  1  0  0  0
 86158  1  0  0  0
M  ISO  4   1 100  68 101  79 101  86 100
M  END
> <chiral flag>
0

> <version>
0

> <s_m_source_file>
/data/baiqing/PycharmProjects/Reinvent-master-3.2/result/LINK_invent/BTK/process_docking_weight1_custom_sum_contain_oxygen_bond_distance_aromatic_linkinvent_7_9_3/rearranged_h_0134.sdf

> <i_m_source_file_index>
49

> <r_mmod_Potential_Energy-OPLS-2005>
89.3441314697266

> <r_mmod_Stretch_Energy-OPLS-2005>
128.139038085938

> <r_mmod_Bend_Energy-OPLS-2005>
217.845581054688

> <r_mmod_Torsional_Energy-OPLS-2005>
218.60774230957

> <r_mmod_Improper_Torsional_Energy-OPLS-2005>
9.00916767120361

> <r_mmod_Van_der_Waal_Energy-OPLS-2005>
156.73356628418

> <r_mmod_Electrostatic_Energy-OPLS-2005>
-494.2265625

> <r_mmod_Solvation_Energy-OPLS-2005>
-244.092544555664

> <b_mmod_Minimization_Converged-OPLS-2005>
0

> <r_mmod_RMS_Derivative-OPLS-2005>
3.63393139839172

$$$$
49
                    3D
 Structure written by MMmdl.
171180  0  0  1  0            999 V2000
  -30.7740  -14.3201   20.6999 C   0  0  0  0  0  0
  -30.4126  -12.2576   19.3973 C   0  0  0  0  0  0
  -29.4888  -12.5243   18.1946 C   0  0  0  0  0  0
  -28.0093  -12.3861   18.6025 C   0  0  0  0  0  0
  -27.6682  -13.1980   19.8792 C   0  0  2  0  0  0
  -28.6990  -12.9155   20.9947 C   0  0  0  0  0  0
  -25.2611  -13.8146   20.5662 C   0  0  0  0  0  0
  -24.1840  -13.0439   20.9135 C   0  0  0  0  0  0
  -24.6376  -11.6896   20.8680 C   0  0  0  0  0  0
  -23.9038  -10.4285   21.0361 C   0  0  0  0  0  0
  -24.3594   -9.4215   21.9159 C   0  0  0  0  0  0
  -23.6269   -8.2253   22.0746 C   0  0  0  0  0  0
  -22.4248   -8.0274   21.3546 C   0  0  0  0  0  0
  -21.9882   -9.0230   20.4627 C   0  0  0  0  0  0
  -22.7208  -10.2110   20.3015 C   0  0  0  0  0  0
  -21.6842   -6.0734   22.5274 C   0  0  0  0  0  0
  -21.4005   -6.5635   23.8209 C   0  0  0  0  0  0
  -21.3654   -5.6785   24.9171 C   0  0  0  0  0  0
  -21.6040   -4.3047   24.7216 C   0  0  0  0  0  0
  -21.8823   -3.8142   23.4334 C   0  0  0  0  0  0
  -21.9190   -4.6968   22.3397 C   0  0  0  0  0  0
  -22.7862  -13.5252   21.1821 C   0  0  0  0  0  0
  -22.1652   -4.2168   21.0971 F   0  0  0  0  0  0
  -21.5638   -3.4531   25.7731 F   0  0  0  0  0  0
  -30.0528  -13.1925   20.4709 N   0  0  0  0  0  0
  -26.3044  -12.9299   20.3333 N   0  0  0  0  0  0
  -25.9300  -11.6462   20.5686 N   0  0  0  0  0  0
  -22.0497  -12.8220   22.0357 N   0  0  0  0  0  0
  -25.4350  -15.1868   20.4119 N   0  0  0  0  0  0
  -31.7730  -14.6211   20.0365 O   0  0  0  0  0  0
  -21.6622   -6.8869   21.4233 O   0  0  0  0  0  0
  -22.3557  -14.5590   20.6716 O   0  0  0  0  0  0
  -24.6077  -31.8730   23.2163 C   0  0  0  0  0  0
  -25.8998  -32.4833   23.8437 C   0  0  1  0  0  0
  -27.2365  -27.5079   20.0598 C   0  0  0  0  0  0
  -25.5879  -33.8636   24.2373 N   0  0  0  0  0  0
  -23.3893  -30.4955   21.5579 C   0  0  2  0  0  0
  -24.8316  -28.9660   20.1178 C   0  0  0  0  0  0
  -22.7337  -29.4703   22.5080 C   0  0  0  0  0  0
  -18.0248  -28.1384   22.8513 C   0  0  0  0  0  0
  -24.1489  -36.7346   23.2628 C   0  0  0  0  0  0
  -25.9074  -30.8539   21.3592 C   0  0  0  0  0  0
  -25.9842  -29.4887   20.7180 C   0  0  0  0  0  0
  -27.1837  -28.7538   20.7095 C   0  0  0  0  0  0
  -26.0659  -26.9754   19.4752 C   0  0  0  0  0  0
  -24.8619  -27.7001   19.5058 C   0  0  0  0  0  0
  -23.5886  -29.8231   20.1717 C   0  0  0  0  0  0
  -25.4105  -36.3138   24.0337 C   0  0  1  0  0  0
  -20.5826  -28.3664   23.1352 C   0  0  2  0  0  0
  -20.6737  -26.9411   22.5428 C   0  0  0  0  0  0
  -19.5709  -26.6408   21.5223 C   0  0  0  0  0  0
  -18.1885  -26.7942   22.1633 C   0  0  0  0  0  0
  -19.1492  -28.8841   23.2934 C   0  0  0  0  0  0
  -18.9418  -30.1445   23.8953 C   0  0  0  0  0  0
  -17.6417  -30.6586   24.0593 C   0  0  0  0  0  0
  -25.9021  -34.9483   23.5167 C   0  0  0  0  0  0
  -16.5318  -29.9094   23.6311 C   0  0  0  0  0  0
  -16.7238  -28.6500   23.0360 C   0  0  0  0  0  0
  -26.4439  -31.6551   25.0716 C   0  0  0  0  0  0
  -25.3741  -31.3628   26.1475 C   0  0  0  0  0  0
  -27.0171  -30.2974   24.6005 C   0  0  0  0  0  0
  -27.6050  -32.4192   25.7506 C   0  0  0  0  0  0
  -27.5602  -37.1817   24.8446 C   0  0  0  0  0  0
  -21.4072  -29.3062   22.3795 N   0  0  0  0  0  0
  -26.4302  -37.3805   23.9404 N   0  0  0  0  0  0
  -24.6525  -31.0871   22.1044 N   0  0  0  0  0  0
  -23.4125  -28.8237   23.3105 O   0  0  0  0  0  0
  -28.4333  -26.8484   20.0186 O   0  0  0  0  0  0
  -26.5596  -34.8900   22.4734 O   0  0  0  0  0  0
  -23.5290  -32.1469   23.7600 O   0  0  0  0  0  0
  -29.3332  -18.4679   22.5183 C   0  0  0  0  0  0
  -29.3321  -17.0686   22.4261 C   0  0  0  0  0  0
  -30.4853  -19.1794   22.1307 C   0  0  0  0  0  0
  -31.6361  -18.4385   21.7716 C   0  0  0  0  0  0
  -30.4790  -16.4112   21.9479 C   0  0  0  0  0  0
  -28.0715  -24.0430   19.1396 C   0  0  0  0  0  0
  -30.3639  -24.7785   19.9762 C   0  0  0  0  0  0
  -28.4761  -22.5843   19.3633 C   0  0  0  0  0  0
  -30.7435  -23.3111   20.2034 C   0  0  0  0  0  0
  -29.2943  -24.9410   18.8736 C   0  0  2  0  0  0
  -29.4927  -22.4618   20.5123 C   0  0  2  0  0  0
  -33.0501  -19.3829   19.8749 C   0  0  0  0  0  0
  -30.4015  -20.6953   22.0331 C   0  0  0  0  0  0
  -32.9616  -19.0760   21.3759 C   0  0  0  0  0  0
  -28.8706  -26.4059   18.7376 C   0  0  0  0  0  0
  -31.6149  -17.0939   21.6798 N   0  0  0  0  0  0
  -30.3443  -15.0246   21.7556 N   0  0  0  0  0  0
  -29.8369  -21.0453   20.7143 N   0  3  0  0  0  0
  -31.4612  -12.3365   19.1040 H   0  0  0  0  0  0
  -30.2845  -11.2333   19.7525 H   0  0  0  0  0  0
  -29.7183  -11.8319   17.3845 H   0  0  0  0  0  0
  -29.6712  -13.5265   17.8002 H   0  0  0  0  0  0
  -27.8053  -11.3272   18.7703 H   0  0  0  0  0  0
  -27.3630  -12.6907   17.7781 H   0  0  0  0  0  0
  -27.7338  -14.2551   19.6185 H   0  0  0  0  0  0
  -28.6445  -11.8681   21.2964 H   0  0  0  0  0  0
  -28.4383  -13.4783   21.8915 H   0  0  0  0  0  0
  -25.2741   -9.5705   22.4730 H   0  0  0  0  0  0
  -23.9986   -7.4656   22.7472 H   0  0  0  0  0  0
  -21.0822   -8.8713   19.8926 H   0  0  0  0  0  0
  -22.3655  -10.9632   19.6102 H   0  0  0  0  0  0
  -21.1982   -7.6135   23.9724 H   0  0  0  0  0  0
  -21.1467   -6.0505   25.9079 H   0  0  0  0  0  0
  -22.0606   -2.7602   23.2824 H   0  0  0  0  0  0
  -22.4080  -11.9835   22.4684 H   0  0  0  0  0  0
  -21.1106  -13.1213   22.2569 H   0  0  0  0  0  0
  -24.6741  -15.8438   20.5485 H   0  0  0  0  0  0
  -26.2918  -15.6274   20.0999 H   0  0  0  0  0  0
  -26.7082  -32.5551   23.1234 H   0  0  0  0  0  0
  -24.9972  -33.9811   25.0476 H   0  0  0  0  0  0
  -22.6777  -31.3115   21.4212 H   0  0  0  0  0  0
  -23.3759  -35.9665   23.3220 H   0  0  0  0  0  0
  -24.3623  -36.9042   22.2057 H   0  0  0  0  0  0
  -23.7196  -37.6511   23.6685 H   0  0  0  0  0  0
  -25.9940  -31.6149   20.5831 H   0  0  0  0  0  0
  -26.8058  -30.9254   21.9583 H   0  0  0  0  0  0
  -28.0742  -29.1551   21.1705 H   0  0  0  0  0  0
  -26.0794  -26.0144   18.9840 H   0  0  0  0  0  0
  -23.9762  -27.2877   19.0427 H   0  0  0  0  0  0
  -23.6825  -30.5940   19.4058 H   0  0  0  0  0  0
  -22.7146  -29.2325   19.8888 H   0  0  0  0  0  0
  -25.1287  -36.2043   25.0829 H   0  0  0  0  0  0
  -20.9900  -28.3227   24.1475 H   0  0  0  0  0  0
  -20.5633  -26.2295   23.3628 H   0  0  0  0  0  0
  -21.6614  -26.7477   22.1220 H   0  0  0  0  0  0
  -19.6862  -25.6329   21.1232 H   0  0  0  0  0  0
  -19.6630  -27.3255   20.6784 H   0  0  0  0  0  0
  -17.4163  -26.6723   21.4023 H   0  0  0  0  0  0
  -18.0259  -26.0068   22.9007 H   0  0  0  0  0  0
  -19.7890  -30.7258   24.2353 H   0  0  0  0  0  0
  -17.4953  -31.6256   24.5206 H   0  0  0  0  0  0
  -15.5315  -30.3010   23.7598 H   0  0  0  0  0  0
  -15.8633  -28.0812   22.7086 H   0  0  0  0  0  0
  -24.5906  -30.6993   25.7811 H   0  0  0  0  0  0
  -24.8964  -32.2764   26.5002 H   0  0  0  0  0  0
  -25.8106  -30.8718   27.0177 H   0  0  0  0  0  0
  -26.2638  -29.6821   24.1053 H   0  0  0  0  0  0
  -27.3916  -29.7122   25.4420 H   0  0  0  0  0  0
  -27.8514  -30.4267   23.9110 H   0  0  0  0  0  0
  -27.2707  -33.3487   26.2130 H   0  0  0  0  0  0
  -28.3879  -32.6716   25.0346 H   0  0  0  0  0  0
  -28.0658  -31.8235   26.5396 H   0  0  0  0  0  0
  -28.2579  -38.0154   24.7551 H   0  0  0  0  0  0
  -28.1146  -36.2690   24.6213 H   0  0  0  0  0  0
  -27.2308  -37.1384   25.8841 H   0  0  0  0  0  0
  -20.9228  -29.8812   21.7039 H   0  0  0  0  0  0
  -26.0202  -38.2889   24.1430 H   0  0  0  0  0  0
  -28.4332  -18.9869   22.8167 H   0  0  0  0  0  0
  -28.4285  -16.5227   22.6640 H   0  0  0  0  0  0
  -27.5323  -24.3948   20.0201 H   0  0  0  0  0  0
  -27.3722  -24.1069   18.3045 H   0  0  0  0  0  0
  -31.2533  -25.3568   19.7197 H   0  0  0  0  0  0
  -30.0004  -25.1878   20.9202 H   0  0  0  0  0  0
  -28.8958  -22.1787   18.4415 H   0  0  0  0  0  0
  -27.5826  -21.9977   19.5821 H   0  0  0  0  0  0
  -31.4595  -23.2557   21.0241 H   0  0  0  0  0  0
  -31.2566  -22.9284   19.3205 H   0  0  0  0  0  0
  -29.7348  -24.6345   17.9229 H   0  0  0  0  0  0
  -29.0174  -22.8339   21.4237 H   0  0  0  0  0  0
  -34.0142  -19.8265   19.6286 H   0  0  0  0  0  0
  -32.2775  -20.0826   19.5594 H   0  0  0  0  0  0
  -32.9418  -18.4737   19.2836 H   0  0  0  0  0  0
  -31.3682  -21.1755   22.1795 H   0  0  0  0  0  0
  -29.7538  -21.0678   22.8286 H   0  0  0  0  0  0
  -33.7673  -18.3878   21.6382 H   0  0  0  0  0  0
  -33.1576  -19.9684   21.9678 H   0  0  0  0  0  0
  -28.1278  -26.5258   17.9468 H   0  0  0  0  0  0
  -29.7242  -27.0162   18.4414 H   0  0  0  0  0  0
  -29.5743  -14.5928   22.2392 H   0  0  0  0  0  0
  -30.4608  -20.7503   19.9821 H   0  0  0  0  0  0
  -28.9825  -20.5238   20.6111 H   0  0  0  0  0  0
  1 25  1  0  0  0
  1 30  2  0  0  0
  1 87  1  0  0  0
  2  3  1  0  0  0
  2 25  1  0  0  0
  2 89  1  0  0  0
  2 90  1  0  0  0
  3  4  1  0  0  0
  3 91  1  0  0  0
  3 92  1  0  0  0
  4  5  1  0  0  0
  4 93  1  0  0  0
  4 94  1  0  0  0
  5  6  1  0  0  0
  5 26  1  0  0  0
  5 95  1  0  0  0
  6 25  1  0  0  0
  6 96  1  0  0  0
  6 97  1  0  0  0
  7  8  2  0  0  0
  7 26  1  0  0  0
  7 29  1  0  0  0
  8  9  1  0  0  0
  8 22  1  0  0  0
  9 10  1  0  0  0
  9 27  2  0  0  0
 10 11  2  0  0  0
 10 15  1  0  0  0
 11 12  1  0  0  0
 11 98  1  0  0  0
 12 13  2  0  0  0
 12 99  1  0  0  0
 13 14  1  0  0  0
 13 31  1  0  0  0
 14 15  2  0  0  0
 14100  1  0  0  0
 15101  1  0  0  0
 16 17  2  0  0  0
 16 21  1  0  0  0
 16 31  1  0  0  0
 17 18  1  0  0  0
 17102  1  0  0  0
 18 19  2  0  0  0
 18103  1  0  0  0
 19 20  1  0  0  0
 19 24  1  0  0  0
 20 21  2  0  0  0
 20104  1  0  0  0
 21 23  1  0  0  0
 22 28  1  0  0  0
 22 32  2  0  0  0
 26 27  1  0  0  0
 28105  1  0  0  0
 28106  1  0  0  0
 29107  1  0  0  0
 29108  1  0  0  0
 33 34  1  0  0  0
 33 66  1  0  0  0
 33 70  2  0  0  0
 34 36  1  0  0  0
 34 59  1  0  0  0
 34109  1  0  0  0
 35 44  2  0  0  0
 35 45  1  0  0  0
 35 68  1  0  0  0
 36 56  1  0  0  0
 36110  1  0  0  0
 37 39  1  0  0  0
 37 47  1  0  0  0
 37 66  1  0  0  0
 37111  1  0  0  0
 38 43  2  0  0  0
 38 46  1  0  0  0
 38 47  1  0  0  0
 39 64  1  0  0  0
 39 67  2  0  0  0
 40 52  1  0  0  0
 40 53  2  0  0  0
 40 58  1  0  0  0
 41112  1  0  0  0
 41113  1  0  0  0
 41114  1  0  0  0
 41 48  1  0  0  0
 42 43  1  0  0  0
 42 66  1  0  0  0
 42115  1  0  0  0
 42116  1  0  0  0
 43 44  1  0  0  0
 44117  1  0  0  0
 45 46  2  0  0  0
 45118  1  0  0  0
 46119  1  0  0  0
 47120  1  0  0  0
 47121  1  0  0  0
 48 56  1  0  0  0
 48 65  1  0  0  0
 48122  1  0  0  0
 49 50  1  0  0  0
 49 53  1  0  0  0
 49 64  1  0  0  0
 49123  1  0  0  0
 50 51  1  0  0  0
 50124  1  0  0  0
 50125  1  0  0  0
 51 52  1  0  0  0
 51126  1  0  0  0
 51127  1  0  0  0
 52128  1  0  0  0
 52129  1  0  0  0
 53 54  1  0  0  0
 54 55  2  0  0  0
 54130  1  0  0  0
 55 57  1  0  0  0
 55131  1  0  0  0
 56 69  2  0  0  0
 57 58  2  0  0  0
 57132  1  0  0  0
 58133  1  0  0  0
 59 60  1  0  0  0
 59 61  1  0  0  0
 59 62  1  0  0  0
 60134  1  0  0  0
 60135  1  0  0  0
 60136  1  0  0  0
 61137  1  0  0  0
 61138  1  0  0  0
 61139  1  0  0  0
 62140  1  0  0  0
 62141  1  0  0  0
 62142  1  0  0  0
 63 65  1  0  0  0
 63143  1  0  0  0
 63144  1  0  0  0
 63145  1  0  0  0
 64146  1  0  0  0
 65147  1  0  0  0
 68 85  1  0  0  0
 71 72  2  0  0  0
 71 73  1  0  0  0
 71148  1  0  0  0
 72 75  1  0  0  0
 72149  1  0  0  0
 73 74  2  0  0  0
 73 83  1  0  0  0
 74 84  1  0  0  0
 74 86  1  0  0  0
 75 86  2  0  0  0
 75 87  1  0  0  0
 76 78  1  0  0  0
 76 80  1  0  0  0
 76150  1  0  0  0
 76151  1  0  0  0
 77 79  1  0  0  0
 77 80  1  0  0  0
 77152  1  0  0  0
 77153  1  0  0  0
 78 81  1  0  0  0
 78154  1  0  0  0
 78155  1  0  0  0
 79 81  1  0  0  0
 79156  1  0  0  0
 79157  1  0  0  0
 80 85  1  0  0  0
 80158  1  0  0  0
 81 88  1  0  0  0
 81159  1  0  0  0
 82 84  1  0  0  0
 82160  1  0  0  0
 82161  1  0  0  0
 82162  1  0  0  0
 83 88  1  0  0  0
 83163  1  0  0  0
 83164  1  0  0  0
 84165  1  0  0  0
 84166  1  0  0  0
 85167  1  0  0  0
 85168  1  0  0  0
 87169  1  0  0  0
 88170  1  0  0  0
 88171  1  0  0  0
M  CHG  1  88   1
M  ISO  4   1 100  68 101  85 101  87 100
M  END
> <chiral flag>
0

> <version>
0

> <s_m_source_file>
/data/baiqing/PycharmProjects/Reinvent-master-3.2/result/LINK_invent/BTK/process_docking_weight1_custom_sum_contain_oxygen_bond_distance_aromatic_linkinvent_7_9_3/rearranged_h_0134.sdf

> <i_m_source_file_index>
50

> <r_mmod_Potential_Energy-OPLS-2005>
-309.866668701172

> <r_mmod_Stretch_Energy-OPLS-2005>
30.432243347168

> <r_mmod_Bend_Energy-OPLS-2005>
99.3678665161133

> <r_mmod_Torsional_Energy-OPLS-2005>
237.194122314453

> <r_mmod_Improper_Torsional_Energy-OPLS-2005>
4.04637479782104

> <r_mmod_Van_der_Waal_Energy-OPLS-2005>
159.243530273438

> <r_mmod_Electrostatic_Energy-OPLS-2005>
-381.818115234375

> <r_mmod_Solvation_Energy-OPLS-2005>
-466.366607666016

> <b_mmod_Minimization_Converged-OPLS-2005>
0

> <r_mmod_RMS_Derivative-OPLS-2005>
2.54451990127563

$$$$
50
                    3D
 Structure written by MMmdl.
164173  0  0  1  0            999 V2000
  -30.6511  -14.8772   20.4204 C   0  0  0  0  0  0
  -30.4127  -12.5511   19.4868 C   0  0  0  0  0  0
  -29.5025  -12.5166   18.2424 C   0  0  0  0  0  0
  -28.0398  -12.3042   18.6693 C   0  0  0  0  0  0
  -27.6211  -13.2428   19.8314 C   0  0  2  0  0  0
  -28.6702  -13.3106   20.9630 C   0  0  0  0  0  0
  -25.2441  -13.8197   20.5748 C   0  0  0  0  0  0
  -24.1757  -13.0430   20.9256 C   0  0  0  0  0  0
  -24.6372  -11.6915   20.8779 C   0  0  0  0  0  0
  -23.9062  -10.4291   21.0418 C   0  0  0  0  0  0
  -24.3611   -9.4207   21.9192 C   0  0  0  0  0  0
  -23.6286   -8.2241   22.0755 C   0  0  0  0  0  0
  -22.4270   -8.0281   21.3547 C   0  0  0  0  0  0
  -21.9904   -9.0256   20.4649 C   0  0  0  0  0  0
  -22.7234  -10.2134   20.3061 C   0  0  0  0  0  0
  -21.6849   -6.0734   22.5282 C   0  0  0  0  0  0
  -21.4015   -6.5636   23.8218 C   0  0  0  0  0  0
  -21.3661   -5.6788   24.9181 C   0  0  0  0  0  0
  -21.6042   -4.3052   24.7226 C   0  0  0  0  0  0
  -21.8817   -3.8145   23.4345 C   0  0  0  0  0  0
  -21.9194   -4.6962   22.3405 C   0  0  0  0  0  0
  -22.7781  -13.5213   21.1897 C   0  0  0  0  0  0
  -22.1662   -4.2151   21.0980 F   0  0  0  0  0  0
  -21.5626   -3.4532   25.7737 F   0  0  0  0  0  0
  -29.9500  -13.6774   20.3458 N   0  0  0  0  0  0
  -26.2854  -12.9422   20.3280 N   0  0  0  0  0  0
  -25.9305  -11.6558   20.5782 N   0  0  0  0  0  0
  -22.0418  -12.8211   22.0448 N   0  0  0  0  0  0
  -25.4098  -15.1923   20.4172 N   0  0  0  0  0  0
  -31.8650  -14.8163   20.2025 O   0  0  0  0  0  0
  -21.6637   -6.8876   21.4241 O   0  0  0  0  0  0
  -22.3479  -14.5523   20.6737 O   0  0  0  0  0  0
  -24.6406  -31.8498   23.1914 C   0  0  0  0  0  0
  -25.9203  -32.4718   23.8291 C   0  0  1  0  0  0
  -27.2094  -27.1722   20.1293 C   0  0  0  0  0  0
  -25.5973  -33.8520   24.2216 N   0  0  0  0  0  0
  -23.4397  -30.4738   21.5370 C   0  0  2  0  0  0
  -24.8844  -28.9116   20.1083 C   0  0  0  0  0  0
  -22.7541  -29.4597   22.4869 C   0  0  0  0  0  0
  -18.0303  -28.1404   22.8471 C   0  0  0  0  0  0
  -24.1492  -36.7253   23.2637 C   0  0  0  0  0  0
  -25.9946  -30.7341   21.3849 C   0  0  0  0  0  0
  -26.0633  -29.3495   20.7249 C   0  0  0  0  0  0
  -27.2247  -28.4942   20.7241 C   0  0  0  0  0  0
  -26.0005  -26.8355   19.4755 C   0  0  0  0  0  0
  -24.8637  -27.6648   19.4730 C   0  0  0  0  0  0
  -23.6613  -29.8104   20.1538 C   0  0  0  0  0  0
  -25.4119  -36.3035   24.0317 C   0  0  1  0  0  0
  -20.5912  -28.3729   23.1236 C   0  0  2  0  0  0
  -20.6791  -26.9437   22.5400 C   0  0  0  0  0  0
  -19.5766  -26.6394   21.5208 C   0  0  0  0  0  0
  -18.1945  -26.7942   22.1616 C   0  0  0  0  0  0
  -19.1558  -28.8877   23.2852 C   0  0  0  0  0  0
  -18.9482  -30.1472   23.8881 C   0  0  0  0  0  0
  -17.6482  -30.6599   24.0559 C   0  0  0  0  0  0
  -25.9074  -34.9419   23.5065 C   0  0  0  0  0  0
  -16.5368  -29.9095   23.6343 C   0  0  0  0  0  0
  -16.7288  -28.6517   23.0355 C   0  0  0  0  0  0
  -26.4533  -31.6560   25.0707 C   0  0  0  0  0  0
  -25.3732  -31.3746   26.1413 C   0  0  0  0  0  0
  -27.0377  -30.2953   24.6255 C   0  0  0  0  0  0
  -27.6063  -32.4313   25.7505 C   0  0  0  0  0  0
  -27.5574  -37.1781   24.8470 C   0  0  0  0  0  0
  -21.4237  -29.3071   22.3608 N   0  0  0  0  0  0
  -26.4281  -37.3748   23.9413 N   0  0  0  0  0  0
  -24.7116  -31.0395   22.0929 N   0  0  0  0  0  0
  -23.4208  -28.8152   23.3006 O   0  0  0  0  0  0
  -28.2753  -26.2076   20.2128 O   0  0  0  0  0  0
  -26.5646  -34.8910   22.4636 O   0  0  0  0  0  0
  -23.5536  -32.1361   23.7158 O   0  0  0  0  0  0
  -30.9024  -20.6519   18.9193 C   0  0  0  0  0  0
  -30.6623  -22.8490   19.0755 C   0  0  0  0  0  0
  -31.3985  -21.8904   18.4543 C   0  0  0  0  0  0
  -29.8608  -20.8258   19.7943 C   0  0  0  0  0  0
  -28.8742  -18.2876   19.5109 C   0  0  0  0  0  0
  -30.2679  -18.7255   21.4535 C   0  0  0  0  0  0
  -28.8252  -16.7609   20.0473 C   0  0  0  0  0  0
  -30.9455  -17.3333   21.0192 C   0  0  0  0  0  0
  -29.2838  -19.4878   20.4784 C   0  0  0  0  0  0
  -32.5348  -22.1052   17.4899 C   0  0  0  0  0  0
  -28.3083  -24.7131   18.2568 C   0  0  0  0  0  0
  -28.7242  -23.3455   20.5407 C   0  0  0  0  0  0
  -28.1135  -24.7277   19.7877 C   0  0  1  0  0  0
  -29.6351  -22.3005   19.8353 N   0  0  0  0  0  0
  -30.0739  -16.1654   20.6321 N   0  0  0  0  0  0
  -31.4527  -12.6584   19.1752 H   0  0  0  0  0  0
  -30.3644  -11.6075   20.0321 H   0  0  0  0  0  0
  -29.8156  -11.7232   17.5624 H   0  0  0  0  0  0
  -29.5960  -13.4526   17.6884 H   0  0  0  0  0  0
  -27.9384  -11.2639   18.9809 H   0  0  0  0  0  0
  -27.3727  -12.4360   17.8166 H   0  0  0  0  0  0
  -27.5622  -14.2294   19.3814 H   0  0  0  0  0  0
  -28.7462  -12.3599   21.4922 H   0  0  0  0  0  0
  -28.3824  -14.0590   21.7035 H   0  0  0  0  0  0
  -25.2750   -9.5685   22.4780 H   0  0  0  0  0  0
  -23.9997   -7.4624   22.7464 H   0  0  0  0  0  0
  -21.0840   -8.8771   19.8948 H   0  0  0  0  0  0
  -22.3690  -10.9675   19.6175 H   0  0  0  0  0  0
  -21.2014   -7.6144   23.9719 H   0  0  0  0  0  0
  -21.1479   -6.0521   25.9083 H   0  0  0  0  0  0
  -22.0594   -2.7606   23.2844 H   0  0  0  0  0  0
  -22.4033  -11.9874   22.4838 H   0  0  0  0  0  0
  -21.1032  -13.1237   22.2645 H   0  0  0  0  0  0
  -24.6409  -15.8437   20.5317 H   0  0  0  0  0  0
  -26.2615  -15.6351   20.0985 H   0  0  0  0  0  0
  -26.7255  -32.5331   23.1011 H   0  0  0  0  0  0
  -25.0134  -33.9657   25.0371 H   0  0  0  0  0  0
  -22.7402  -31.2986   21.3883 H   0  0  0  0  0  0
  -23.3761  -35.9579   23.3289 H   0  0  0  0  0  0
  -24.3590  -36.8889   22.2056 H   0  0  0  0  0  0
  -23.7244  -37.6445   23.6675 H   0  0  0  0  0  0
  -26.1461  -31.4906   20.6135 H   0  0  0  0  0  0
  -26.8665  -30.7818   22.0254 H   0  0  0  0  0  0
  -28.1195  -28.8240   21.2326 H   0  0  0  0  0  0
  -25.8715  -25.8937   18.9687 H   0  0  0  0  0  0
  -23.9637  -27.3206   18.9825 H   0  0  0  0  0  0
  -23.7947  -30.5878   19.4004 H   0  0  0  0  0  0
  -22.7755  -29.2528   19.8452 H   0  0  0  0  0  0
  -25.1306  -36.1858   25.0808 H   0  0  0  0  0  0
  -21.0005  -28.3312   24.1357 H   0  0  0  0  0  0
  -20.5685  -26.2343   23.3614 H   0  0  0  0  0  0
  -21.6659  -26.7456   22.1199 H   0  0  0  0  0  0
  -19.6934  -25.6306   21.1242 H   0  0  0  0  0  0
  -19.6697  -27.3197   20.6731 H   0  0  0  0  0  0
  -17.4213  -26.6673   21.4021 H   0  0  0  0  0  0
  -18.0351  -26.0096   22.9026 H   0  0  0  0  0  0
  -19.7964  -30.7288   24.2236 H   0  0  0  0  0  0
  -17.5048  -31.6280   24.5166 H   0  0  0  0  0  0
  -15.5372  -30.2996   23.7697 H   0  0  0  0  0  0
  -15.8682  -28.0843   22.7075 H   0  0  0  0  0  0
  -24.5936  -30.7050   25.7770 H   0  0  0  0  0  0
  -24.8889  -32.2918   26.4769 H   0  0  0  0  0  0
  -25.8051  -30.9001   27.0232 H   0  0  0  0  0  0
  -26.2978  -29.6689   24.1255 H   0  0  0  0  0  0
  -27.3989  -29.7240   25.4819 H   0  0  0  0  0  0
  -27.8896  -30.4193   23.9561 H   0  0  0  0  0  0
  -27.2656  -33.3632   26.2033 H   0  0  0  0  0  0
  -28.3918  -32.6835   25.0369 H   0  0  0  0  0  0
  -28.0667  -31.8456   26.5470 H   0  0  0  0  0  0
  -28.2582  -38.0087   24.7519 H   0  0  0  0  0  0
  -28.1071  -36.2615   24.6282 H   0  0  0  0  0  0
  -27.2295  -37.1419   25.8874 H   0  0  0  0  0  0
  -20.9427  -29.8780   21.6795 H   0  0  0  0  0  0
  -26.0142  -38.2811   24.1420 H   0  0  0  0  0  0
  -31.3118  -19.6874   18.6495 H   0  0  0  0  0  0
  -30.7818  -23.9222   19.0208 H   0  0  0  0  0  0
  -27.9156  -18.5340   19.0536 H   0  0  0  0  0  0
  -29.5731  -18.2739   18.6756 H   0  0  0  0  0  0
  -31.0457  -19.4192   21.7741 H   0  0  0  0  0  0
  -29.7055  -18.5159   22.3644 H   0  0  0  0  0  0
  -28.5303  -16.1426   19.2016 H   0  0  0  0  0  0
  -28.0349  -16.6641   20.7917 H   0  0  0  0  0  0
  -31.5764  -17.0058   21.8466 H   0  0  0  0  0  0
  -31.6300  -17.5277   20.1916 H   0  0  0  0  0  0
  -28.4040  -19.7728   21.0565 H   0  0  0  0  0  0
  -33.4804  -22.2085   18.0223 H   0  0  0  0  0  0
  -32.3754  -23.0071   16.8982 H   0  0  0  0  0  0
  -32.6195  -21.2635   16.8015 H   0  0  0  0  0  0
  -28.1899  -23.7085   17.8506 H   0  0  0  0  0  0
  -29.2944  -25.0786   17.9767 H   0  0  0  0  0  0
  -27.5928  -25.3500   17.7389 H   0  0  0  0  0  0
  -27.8813  -22.7817   20.9418 H   0  0  0  0  0  0
  -29.2645  -23.6759   21.4277 H   0  0  0  0  0  0
  -27.0582  -24.5252   19.9507 H   0  0  0  0  0  0
  1 25  1  0  0  0
  1 30  2  0  0  0
  1 85  1  0  0  0
  2  3  1  0  0  0
  2 25  1  0  0  0
  2 86  1  0  0  0
  2 87  1  0  0  0
  3  4  1  0  0  0
  3 88  1  0  0  0
  3 89  1  0  0  0
  4  5  1  0  0  0
  4 90  1  0  0  0
  4 91  1  0  0  0
  5  6  1  0  0  0
  5 26  1  0  0  0
  5 92  1  0  0  0
  6 25  1  0  0  0
  6 93  1  0  0  0
  6 94  1  0  0  0
  7  8  2  0  0  0
  7 26  1  0  0  0
  7 29  1  0  0  0
  8  9  1  0  0  0
  8 22  1  0  0  0
  9 10  1  0  0  0
  9 27  2  0  0  0
 10 11  2  0  0  0
 10 15  1  0  0  0
 11 12  1  0  0  0
 11 95  1  0  0  0
 12 13  2  0  0  0
 12 96  1  0  0  0
 13 14  1  0  0  0
 13 31  1  0  0  0
 14 15  2  0  0  0
 14 97  1  0  0  0
 15 98  1  0  0  0
 16 17  2  0  0  0
 16 21  1  0  0  0
 16 31  1  0  0  0
 17 18  1  0  0  0
 17 99  1  0  0  0
 18 19  2  0  0  0
 18100  1  0  0  0
 19 20  1  0  0  0
 19 24  1  0  0  0
 20 21  2  0  0  0
 20101  1  0  0  0
 21 23  1  0  0  0
 22 28  1  0  0  0
 22 32  2  0  0  0
 26 27  1  0  0  0
 28102  1  0  0  0
 28103  1  0  0  0
 29104  1  0  0  0
 29105  1  0  0  0
 33 34  1  0  0  0
 33 66  1  0  0  0
 33 70  2  0  0  0
 34 36  1  0  0  0
 34 59  1  0  0  0
 34106  1  0  0  0
 35 44  2  0  0  0
 35 45  1  0  0  0
 35 68  1  0  0  0
 36 56  1  0  0  0
 36107  1  0  0  0
 37 39  1  0  0  0
 37 47  1  0  0  0
 37 66  1  0  0  0
 37108  1  0  0  0
 38 43  2  0  0  0
 38 46  1  0  0  0
 38 47  1  0  0  0
 39 64  1  0  0  0
 39 67  2  0  0  0
 40 52  1  0  0  0
 40 53  2  0  0  0
 40 58  1  0  0  0
 41109  1  0  0  0
 41110  1  0  0  0
 41111  1  0  0  0
 41 48  1  0  0  0
 42 43  1  0  0  0
 42 66  1  0  0  0
 42112  1  0  0  0
 42113  1  0  0  0
 43 44  1  0  0  0
 44114  1  0  0  0
 45 46  2  0  0  0
 45115  1  0  0  0
 46116  1  0  0  0
 47117  1  0  0  0
 47118  1  0  0  0
 48 56  1  0  0  0
 48 65  1  0  0  0
 48119  1  0  0  0
 49 50  1  0  0  0
 49 53  1  0  0  0
 49 64  1  0  0  0
 49120  1  0  0  0
 50 51  1  0  0  0
 50121  1  0  0  0
 50122  1  0  0  0
 51 52  1  0  0  0
 51123  1  0  0  0
 51124  1  0  0  0
 52125  1  0  0  0
 52126  1  0  0  0
 53 54  1  0  0  0
 54 55  2  0  0  0
 54127  1  0  0  0
 55 57  1  0  0  0
 55128  1  0  0  0
 56 69  2  0  0  0
 57 58  2  0  0  0
 57129  1  0  0  0
 58130  1  0  0  0
 59 60  1  0  0  0
 59 61  1  0  0  0
 59 62  1  0  0  0
 60131  1  0  0  0
 60132  1  0  0  0
 60133  1  0  0  0
 61134  1  0  0  0
 61135  1  0  0  0
 61136  1  0  0  0
 62137  1  0  0  0
 62138  1  0  0  0
 62139  1  0  0  0
 63 65  1  0  0  0
 63140  1  0  0  0
 63141  1  0  0  0
 63142  1  0  0  0
 64143  1  0  0  0
 65144  1  0  0  0
 68 83  1  0  0  0
 71 73  1  0  0  0
 71 74  2  0  0  0
 71145  1  0  0  0
 72 73  2  0  0  0
 72 84  1  0  0  0
 72146  1  0  0  0
 73 80  1  0  0  0
 74 84  1  0  0  0
 74 79  1  0  0  0
 75 77  1  0  0  0
 75 79  1  0  0  0
 75147  1  0  0  0
 75148  1  0  0  0
 76 78  1  0  0  0
 76 79  1  0  0  0
 76149  1  0  0  0
 76150  1  0  0  0
 77 85  1  0  0  0
 77151  1  0  0  0
 77152  1  0  0  0
 78 85  1  0  0  0
 78153  1  0  0  0
 78154  1  0  0  0
 79155  1  0  0  0
 80156  1  0  0  0
 80157  1  0  0  0
 80158  1  0  0  0
 81159  1  0  0  0
 81160  1  0  0  0
 81161  1  0  0  0
 81 83  1  0  0  0
 82 83  1  0  0  0
 82 84  1  0  0  0
 82162  1  0  0  0
 82163  1  0  0  0
 83164  1  0  0  0
M  ISO  4   1 100  68 101  83 101  85 100
M  END
> <chiral flag>
0

> <version>
0

> <s_m_source_file>
/data/baiqing/PycharmProjects/Reinvent-master-3.2/result/LINK_invent/BTK/process_docking_weight1_custom_sum_contain_oxygen_bond_distance_aromatic_linkinvent_7_9_3/rearranged_h_0134.sdf

> <i_m_source_file_index>
51

> <r_mmod_Potential_Energy-OPLS-2005>
688.324951171875

> <r_mmod_Stretch_Energy-OPLS-2005>
219.686569213867

> <r_mmod_Bend_Energy-OPLS-2005>
323.449066162109

> <r_mmod_Torsional_Energy-OPLS-2005>
341.375549316406

> <r_mmod_Improper_Torsional_Energy-OPLS-2005>
4.38206481933594

> <r_mmod_Van_der_Waal_Energy-OPLS-2005>
131.545516967773

> <r_mmod_Electrostatic_Energy-OPLS-2005>
-287.412994384766

> <r_mmod_Solvation_Energy-OPLS-2005>
-202.957000732422

> <b_mmod_Minimization_Converged-OPLS-2005>
0

> <r_mmod_RMS_Derivative-OPLS-2005>
1.54483211040497

$$$$
51
                    3D
 Structure written by MMmdl.
168177  0  0  1  0            999 V2000
  -30.6630  -14.5943   20.5307 C   0  0  0  0  0  0
  -30.4328  -12.3886   19.4133 C   0  0  0  0  0  0
  -29.4909  -12.5088   18.1977 C   0  0  0  0  0  0
  -28.0152  -12.3493   18.6203 C   0  0  0  0  0  0
  -27.6459  -13.2161   19.8543 C   0  0  2  0  0  0
  -28.6986  -13.0673   20.9721 C   0  0  0  0  0  0
  -25.2521  -13.8164   20.5702 C   0  0  0  0  0  0
  -24.1780  -13.0410   20.9209 C   0  0  0  0  0  0
  -24.6358  -11.6898   20.8729 C   0  0  0  0  0  0
  -23.9026  -10.4287   21.0396 C   0  0  0  0  0  0
  -24.3589   -9.4222   21.9173 C   0  0  0  0  0  0
  -23.6287   -8.2238   22.0736 C   0  0  0  0  0  0
  -22.4260   -8.0266   21.3548 C   0  0  0  0  0  0
  -21.9893   -9.0231   20.4642 C   0  0  0  0  0  0
  -22.7194  -10.2119   20.3059 C   0  0  0  0  0  0
  -21.6858   -6.0733   22.5277 C   0  0  0  0  0  0
  -21.4015   -6.5637   23.8208 C   0  0  0  0  0  0
  -21.3657   -5.6790   24.9176 C   0  0  0  0  0  0
  -21.6053   -4.3054   24.7225 C   0  0  0  0  0  0
  -21.8819   -3.8144   23.4342 C   0  0  0  0  0  0
  -21.9191   -4.6961   22.3403 C   0  0  0  0  0  0
  -22.7811  -13.5230   21.1858 C   0  0  0  0  0  0
  -22.1656   -4.2144   21.0980 F   0  0  0  0  0  0
  -21.5635   -3.4534   25.7738 F   0  0  0  0  0  0
  -30.0027  -13.4081   20.3850 N   0  0  0  0  0  0
  -26.2938  -12.9333   20.3309 N   0  0  0  0  0  0
  -25.9285  -11.6483   20.5729 N   0  0  0  0  0  0
  -22.0448  -12.8233   22.0427 N   0  0  0  0  0  0
  -25.4212  -15.1877   20.4131 N   0  0  0  0  0  0
  -31.8436  -14.7302   20.2040 O   0  0  0  0  0  0
  -21.6633   -6.8859   21.4230 O   0  0  0  0  0  0
  -22.3513  -14.5549   20.6724 O   0  0  0  0  0  0
  -24.6299  -31.8625   23.2079 C   0  0  0  0  0  0
  -25.9151  -32.4813   23.8409 C   0  0  1  0  0  0
  -27.2218  -27.3255   20.1007 C   0  0  0  0  0  0
  -25.5992  -33.8628   24.2331 N   0  0  0  0  0  0
  -23.4240  -30.4906   21.5490 C   0  0  2  0  0  0
  -24.8686  -28.9545   20.1088 C   0  0  0  0  0  0
  -22.7502  -29.4653   22.4931 C   0  0  0  0  0  0
  -18.0309  -28.1427   22.8519 C   0  0  0  0  0  0
  -24.1485  -36.7215   23.2631 C   0  0  0  0  0  0
  -25.9715  -30.7851   21.3907 C   0  0  0  0  0  0
  -26.0370  -29.4184   20.7249 C   0  0  0  0  0  0
  -27.2154  -28.6116   20.7186 C   0  0  0  0  0  0
  -26.0241  -26.9209   19.4592 C   0  0  0  0  0  0
  -24.8637  -27.7070   19.4700 C   0  0  0  0  0  0
  -23.6370  -29.8310   20.1619 C   0  0  0  0  0  0
  -25.4113  -36.3094   24.0342 C   0  0  1  0  0  0
  -20.5925  -28.3722   23.1257 C   0  0  2  0  0  0
  -20.6830  -26.9443   22.5400 C   0  0  0  0  0  0
  -19.5771  -26.6422   21.5250 C   0  0  0  0  0  0
  -18.1935  -26.7989   22.1640 C   0  0  0  0  0  0
  -19.1569  -28.8907   23.2893 C   0  0  0  0  0  0
  -18.9496  -30.1515   23.8908 C   0  0  0  0  0  0
  -17.6480  -30.6632   24.0589 C   0  0  0  0  0  0
  -25.9062  -34.9485   23.5110 C   0  0  0  0  0  0
  -16.5375  -29.9132   23.6373 C   0  0  0  0  0  0
  -16.7295  -28.6536   23.0380 C   0  0  0  0  0  0
  -26.4540  -31.6670   25.0814 C   0  0  0  0  0  0
  -25.3742  -31.3837   26.1500 C   0  0  0  0  0  0
  -27.0418  -30.3107   24.6316 C   0  0  0  0  0  0
  -27.6121  -32.4390   25.7568 C   0  0  0  0  0  0
  -27.5552  -37.1729   24.8456 C   0  0  0  0  0  0
  -21.4227  -29.3039   22.3626 N   0  0  0  0  0  0
  -26.4266  -37.3797   23.9433 N   0  0  0  0  0  0
  -24.6942  -31.0634   22.1042 N   0  0  0  0  0  0
  -23.4216  -28.8181   23.3000 O   0  0  0  0  0  0
  -28.3340  -26.4662   20.1366 O   0  0  0  0  0  0
  -26.5556  -34.8941   22.4629 O   0  0  0  0  0  0
  -23.5436  -32.1417   23.7377 O   0  0  0  0  0  0
  -31.2446  -20.2296   22.9493 C   0  0  0  0  0  0
  -30.6355  -20.9433   21.9186 C   0  0  0  0  0  0
  -31.2028  -18.8182   22.9605 C   0  0  0  0  0  0
  -29.9518  -20.2548   20.9142 C   0  0  0  0  0  0
  -30.5025  -18.1514   21.8995 C   0  0  0  0  0  0
  -32.3415  -19.4790   26.0731 C   0  0  0  0  0  0
  -33.0245  -18.8811   24.8335 C   0  0  0  0  0  0
  -31.0315  -18.6921   26.2368 C   0  0  0  0  0  0
  -31.9320  -18.0669   24.1044 C   0  0  1  0  0  0
  -29.2744  -21.1194   19.8180 C   0  0  0  0  0  0
  -30.3633  -16.5904   22.0014 C   0  0  0  0  0  0
  -28.4922  -22.4301   20.2757 C   0  0  0  0  0  0
  -29.1259  -23.8879   20.1777 C   0  0  0  0  0  0
  -28.0624  -25.0318   19.9051 C   0  0  0  0  0  0
  -29.8821  -18.8739   20.9032 N   0  0  0  0  0  0
  -29.9268  -15.6671   20.9283 N   0  0  0  0  0  0
  -31.0238  -17.6480   25.1940 N   0  3  0  0  0  0
  -31.4684  -12.5298   19.0982 H   0  0  0  0  0  0
  -30.3836  -11.3926   19.8558 H   0  0  0  0  0  0
  -29.7470  -11.7622   17.4457 H   0  0  0  0  0  0
  -29.6257  -13.4791   17.7176 H   0  0  0  0  0  0
  -27.8486  -11.2956   18.8478 H   0  0  0  0  0  0
  -27.3553  -12.5857   17.7841 H   0  0  0  0  0  0
  -27.6609  -14.2520   19.5150 H   0  0  0  0  0  0
  -28.7079  -12.0449   21.3513 H   0  0  0  0  0  0
  -28.4557  -13.7042   21.8245 H   0  0  0  0  0  0
  -25.2733   -9.5710   22.4741 H   0  0  0  0  0  0
  -24.0003   -7.4635   22.7456 H   0  0  0  0  0  0
  -21.0826   -8.8763   19.8946 H   0  0  0  0  0  0
  -22.3658  -10.9665   19.6174 H   0  0  0  0  0  0
  -21.2003   -7.6141   23.9725 H   0  0  0  0  0  0
  -21.1481   -6.0510   25.9086 H   0  0  0  0  0  0
  -22.0594   -2.7602   23.2848 H   0  0  0  0  0  0
  -22.4045  -11.9915   22.4865 H   0  0  0  0  0  0
  -21.1062  -13.1262   22.2586 H   0  0  0  0  0  0
  -24.6506  -15.8369   20.5325 H   0  0  0  0  0  0
  -26.2681  -15.6393   20.0907 H   0  0  0  0  0  0
  -26.7226  -32.5468   23.1158 H   0  0  0  0  0  0
  -25.0426  -33.9824   25.0656 H   0  0  0  0  0  0
  -22.7175  -31.3124   21.4112 H   0  0  0  0  0  0
  -23.3816  -35.9471   23.3343 H   0  0  0  0  0  0
  -24.3528  -36.8761   22.2018 H   0  0  0  0  0  0
  -23.7183  -37.6407   23.6618 H   0  0  0  0  0  0
  -26.1164  -31.5484   20.6250 H   0  0  0  0  0  0
  -26.8466  -30.8225   22.0291 H   0  0  0  0  0  0
  -28.1113  -28.9571   21.2143 H   0  0  0  0  0  0
  -25.9391  -25.9805   18.9394 H   0  0  0  0  0  0
  -23.9715  -27.3440   18.9774 H   0  0  0  0  0  0
  -23.7381  -30.6106   19.4046 H   0  0  0  0  0  0
  -22.7668  -29.2439   19.8700 H   0  0  0  0  0  0
  -25.1300  -36.1935   25.0834 H   0  0  0  0  0  0
  -21.0044  -28.3334   24.1362 H   0  0  0  0  0  0
  -20.5824  -26.2320   23.3602 H   0  0  0  0  0  0
  -21.6670  -26.7513   22.1108 H   0  0  0  0  0  0
  -19.6912  -25.6343   21.1254 H   0  0  0  0  0  0
  -19.6739  -27.3282   20.6822 H   0  0  0  0  0  0
  -17.4226  -26.6822   21.4009 H   0  0  0  0  0  0
  -18.0251  -26.0143   22.9024 H   0  0  0  0  0  0
  -19.7976  -30.7349   24.2251 H   0  0  0  0  0  0
  -17.5049  -31.6324   24.5184 H   0  0  0  0  0  0
  -15.5369  -30.3014   23.7767 H   0  0  0  0  0  0
  -15.8693  -28.0887   22.7072 H   0  0  0  0  0  0
  -24.5900  -30.7267   25.7750 H   0  0  0  0  0  0
  -24.8992  -32.3047   26.4914 H   0  0  0  0  0  0
  -25.7982  -30.8968   27.0300 H   0  0  0  0  0  0
  -26.3071  -29.6839   24.1276 H   0  0  0  0  0  0
  -27.4089  -29.7375   25.4849 H   0  0  0  0  0  0
  -27.8954  -30.4447   23.9669 H   0  0  0  0  0  0
  -27.2798  -33.3698   26.2175 H   0  0  0  0  0  0
  -28.3921  -32.6908   25.0373 H   0  0  0  0  0  0
  -28.0862  -31.8525   26.5444 H   0  0  0  0  0  0
  -28.2558  -38.0040   24.7560 H   0  0  0  0  0  0
  -28.1076  -36.2570   24.6269 H   0  0  0  0  0  0
  -27.2249  -37.1336   25.8850 H   0  0  0  0  0  0
  -20.9422  -29.8688   21.6771 H   0  0  0  0  0  0
  -26.0148  -38.2852   24.1544 H   0  0  0  0  0  0
  -31.7406  -20.7924   23.7246 H   0  0  0  0  0  0
  -30.6902  -22.0205   21.8891 H   0  0  0  0  0  0
  -32.1311  -20.5434   25.9498 H   0  0  0  0  0  0
  -32.9818  -19.3902   26.9502 H   0  0  0  0  0  0
  -33.7960  -18.1877   25.1712 H   0  0  0  0  0  0
  -33.5475  -19.6162   24.2221 H   0  0  0  0  0  0
  -30.1830  -19.3603   26.0767 H   0  0  0  0  0  0
  -30.9269  -18.2554   27.2303 H   0  0  0  0  0  0
  -32.4402  -17.1962   23.6942 H   0  0  0  0  0  0
  -28.5510  -20.4646   19.3303 H   0  0  0  0  0  0
  -30.0051  -21.3614   19.0410 H   0  0  0  0  0  0
  -29.6500  -16.4140   22.8063 H   0  0  0  0  0  0
  -31.3031  -16.1799   22.3555 H   0  0  0  0  0  0
  -28.0912  -22.2732   21.2782 H   0  0  0  0  0  0
  -27.6011  -22.4623   19.6465 H   0  0  0  0  0  0
  -29.8667  -23.9062   19.3786 H   0  0  0  0  0  0
  -29.6626  -24.1050   21.1062 H   0  0  0  0  0  0
  -27.1912  -24.7717   20.5035 H   0  0  0  0  0  0
  -27.7674  -24.9106   18.8618 H   0  0  0  0  0  0
  -28.9296  -15.5417   20.8795 H   0  0  0  0  0  0
  -30.0826  -17.4388   24.9028 H   0  0  0  0  0  0
  -31.4039  -16.8069   25.6054 H   0  0  0  0  0  0
  1 25  1  0  0  0
  1 30  2  0  0  0
  1 86  1  0  0  0
  2  3  1  0  0  0
  2 25  1  0  0  0
  2 88  1  0  0  0
  2 89  1  0  0  0
  3  4  1  0  0  0
  3 90  1  0  0  0
  3 91  1  0  0  0
  4  5  1  0  0  0
  4 92  1  0  0  0
  4 93  1  0  0  0
  5  6  1  0  0  0
  5 26  1  0  0  0
  5 94  1  0  0  0
  6 25  1  0  0  0
  6 95  1  0  0  0
  6 96  1  0  0  0
  7  8  2  0  0  0
  7 26  1  0  0  0
  7 29  1  0  0  0
  8  9  1  0  0  0
  8 22  1  0  0  0
  9 10  1  0  0  0
  9 27  2  0  0  0
 10 11  2  0  0  0
 10 15  1  0  0  0
 11 12  1  0  0  0
 11 97  1  0  0  0
 12 13  2  0  0  0
 12 98  1  0  0  0
 13 14  1  0  0  0
 13 31  1  0  0  0
 14 15  2  0  0  0
 14 99  1  0  0  0
 15100  1  0  0  0
 16 17  2  0  0  0
 16 21  1  0  0  0
 16 31  1  0  0  0
 17 18  1  0  0  0
 17101  1  0  0  0
 18 19  2  0  0  0
 18102  1  0  0  0
 19 20  1  0  0  0
 19 24  1  0  0  0
 20 21  2  0  0  0
 20103  1  0  0  0
 21 23  1  0  0  0
 22 28  1  0  0  0
 22 32  2  0  0  0
 26 27  1  0  0  0
 28104  1  0  0  0
 28105  1  0  0  0
 29106  1  0  0  0
 29107  1  0  0  0
 33 34  1  0  0  0
 33 66  1  0  0  0
 33 70  2  0  0  0
 34 36  1  0  0  0
 34 59  1  0  0  0
 34108  1  0  0  0
 35 44  2  0  0  0
 35 45  1  0  0  0
 35 68  1  0  0  0
 36 56  1  0  0  0
 36109  1  0  0  0
 37 39  1  0  0  0
 37 47  1  0  0  0
 37 66  1  0  0  0
 37110  1  0  0  0
 38 43  2  0  0  0
 38 46  1  0  0  0
 38 47  1  0  0  0
 39 64  1  0  0  0
 39 67  2  0  0  0
 40 52  1  0  0  0
 40 53  2  0  0  0
 40 58  1  0  0  0
 41111  1  0  0  0
 41112  1  0  0  0
 41113  1  0  0  0
 41 48  1  0  0  0
 42 43  1  0  0  0
 42 66  1  0  0  0
 42114  1  0  0  0
 42115  1  0  0  0
 43 44  1  0  0  0
 44116  1  0  0  0
 45 46  2  0  0  0
 45117  1  0  0  0
 46118  1  0  0  0
 47119  1  0  0  0
 47120  1  0  0  0
 48 56  1  0  0  0
 48 65  1  0  0  0
 48121  1  0  0  0
 49 50  1  0  0  0
 49 53  1  0  0  0
 49 64  1  0  0  0
 49122  1  0  0  0
 50 51  1  0  0  0
 50123  1  0  0  0
 50124  1  0  0  0
 51 52  1  0  0  0
 51125  1  0  0  0
 51126  1  0  0  0
 52127  1  0  0  0
 52128  1  0  0  0
 53 54  1  0  0  0
 54 55  2  0  0  0
 54129  1  0  0  0
 55 57  1  0  0  0
 55130  1  0  0  0
 56 69  2  0  0  0
 57 58  2  0  0  0
 57131  1  0  0  0
 58132  1  0  0  0
 59 60  1  0  0  0
 59 61  1  0  0  0
 59 62  1  0  0  0
 60133  1  0  0  0
 60134  1  0  0  0
 60135  1  0  0  0
 61136  1  0  0  0
 61137  1  0  0  0
 61138  1  0  0  0
 62139  1  0  0  0
 62140  1  0  0  0
 62141  1  0  0  0
 63 65  1  0  0  0
 63142  1  0  0  0
 63143  1  0  0  0
 63144  1  0  0  0
 64145  1  0  0  0
 65146  1  0  0  0
 68 84  1  0  0  0
 71 72  2  0  0  0
 71 73  1  0  0  0
 71147  1  0  0  0
 72 74  1  0  0  0
 72148  1  0  0  0
 73 75  2  0  0  0
 73 79  1  0  0  0
 74 80  1  0  0  0
 74 85  2  0  0  0
 75 81  1  0  0  0
 75 85  1  0  0  0
 76 77  1  0  0  0
 76 78  1  0  0  0
 76149  1  0  0  0
 76150  1  0  0  0
 77 79  1  0  0  0
 77151  1  0  0  0
 77152  1  0  0  0
 78 87  1  0  0  0
 78153  1  0  0  0
 78154  1  0  0  0
 79 87  1  0  0  0
 79155  1  0  0  0
 80 82  1  0  0  0
 80156  1  0  0  0
 80157  1  0  0  0
 81 86  1  0  0  0
 81158  1  0  0  0
 81159  1  0  0  0
 82 83  1  0  0  0
 82160  1  0  0  0
 82161  1  0  0  0
 83 84  1  0  0  0
 83162  1  0  0  0
 83163  1  0  0  0
 84164  1  0  0  0
 84165  1  0  0  0
 86166  1  0  0  0
 87167  1  0  0  0
 87168  1  0  0  0
M  CHG  1  87   1
M  ISO  4   1 100  68 101  84 101  86 100
M  END
> <chiral flag>
0

> <version>
0

> <s_m_source_file>
/data/baiqing/PycharmProjects/Reinvent-master-3.2/result/LINK_invent/BTK/process_docking_weight1_custom_sum_contain_oxygen_bond_distance_aromatic_linkinvent_7_9_3/rearranged_h_0134.sdf

> <i_m_source_file_index>
52

> <r_mmod_Potential_Energy-OPLS-2005>
-215.644073486328

> <r_mmod_Stretch_Energy-OPLS-2005>
78.1524963378906

> <r_mmod_Bend_Energy-OPLS-2005>
179.797348022461

> <r_mmod_Torsional_Energy-OPLS-2005>
301.698944091797

> <r_mmod_Improper_Torsional_Energy-OPLS-2005>
5.46924448013306

> <r_mmod_Van_der_Waal_Energy-OPLS-2005>
162.187240600586

> <r_mmod_Electrostatic_Energy-OPLS-2005>
-488.941467285156

> <r_mmod_Solvation_Energy-OPLS-2005>
-499.511108398438

> <b_mmod_Minimization_Converged-OPLS-2005>
0

> <r_mmod_RMS_Derivative-OPLS-2005>
4.92184400558472

$$$$
52
                    3D
 Structure written by MMmdl.
156164  0  0  1  0            999 V2000
  -30.6088  -14.6358   20.4971 C   0  0  0  0  0  0
  -30.4376  -12.3945   19.4415 C   0  0  0  0  0  0
  -29.5022  -12.5333   18.2169 C   0  0  0  0  0  0
  -28.0234  -12.3752   18.6256 C   0  0  0  0  0  0
  -27.6528  -13.2205   19.8713 C   0  0  2  0  0  0
  -28.7025  -13.0479   20.9941 C   0  0  0  0  0  0
  -25.2518  -13.8184   20.5702 C   0  0  0  0  0  0
  -24.1802  -13.0431   20.9231 C   0  0  0  0  0  0
  -24.6387  -11.6914   20.8753 C   0  0  0  0  0  0
  -23.9058  -10.4299   21.0398 C   0  0  0  0  0  0
  -24.3614   -9.4226   21.9175 C   0  0  0  0  0  0
  -23.6305   -8.2254   22.0758 C   0  0  0  0  0  0
  -22.4285   -8.0283   21.3540 C   0  0  0  0  0  0
  -21.9912   -9.0247   20.4631 C   0  0  0  0  0  0
  -22.7240  -10.2126   20.3048 C   0  0  0  0  0  0
  -21.6855   -6.0736   22.5288 C   0  0  0  0  0  0
  -21.4012   -6.5642   23.8218 C   0  0  0  0  0  0
  -21.3666   -5.6801   24.9186 C   0  0  0  0  0  0
  -21.6052   -4.3069   24.7237 C   0  0  0  0  0  0
  -21.8811   -3.8151   23.4364 C   0  0  0  0  0  0
  -21.9188   -4.6962   22.3409 C   0  0  0  0  0  0
  -22.7813  -13.5186   21.1882 C   0  0  0  0  0  0
  -22.1630   -4.2139   21.0981 F   0  0  0  0  0  0
  -21.5661   -3.4551   25.7755 F   0  0  0  0  0  0
  -30.0172  -13.4007   20.4357 N   0  0  0  0  0  0
  -26.2966  -12.9379   20.3351 N   0  0  0  0  0  0
  -25.9319  -11.6527   20.5747 N   0  0  0  0  0  0
  -22.0454  -12.8168   22.0418 N   0  0  0  0  0  0
  -25.4161  -15.1914   20.4041 N   0  0  0  0  0  0
  -31.7683  -14.8148   20.1112 O   0  0  0  0  0  0
  -21.6666   -6.8877   21.4240 O   0  0  0  0  0  0
  -22.3476  -14.5482   20.6735 O   0  0  0  0  0  0
  -24.6256  -31.8607   23.2038 C   0  0  0  0  0  0
  -25.9101  -32.4779   23.8363 C   0  0  1  0  0  0
  -27.2252  -27.3347   20.1203 C   0  0  0  0  0  0
  -25.5912  -33.8581   24.2287 N   0  0  0  0  0  0
  -23.4154  -30.4814   21.5513 C   0  0  2  0  0  0
  -24.8624  -28.9340   20.1159 C   0  0  0  0  0  0
  -22.7451  -29.4623   22.5021 C   0  0  0  0  0  0
  -18.0269  -28.1357   22.8543 C   0  0  0  0  0  0
  -24.1488  -36.7296   23.2642 C   0  0  0  0  0  0
  -25.9533  -30.7956   21.3678 C   0  0  0  0  0  0
  -26.0291  -29.4198   20.7208 C   0  0  0  0  0  0
  -27.2151  -28.6302   20.7181 C   0  0  0  0  0  0
  -26.0463  -26.9040   19.4745 C   0  0  0  0  0  0
  -24.8706  -27.6800   19.4857 C   0  0  0  0  0  0
  -23.6257  -29.8082   20.1685 C   0  0  0  0  0  0
  -25.4109  -36.3084   24.0331 C   0  0  1  0  0  0
  -20.5873  -28.3653   23.1342 C   0  0  2  0  0  0
  -20.6767  -26.9384   22.5440 C   0  0  0  0  0  0
  -19.5740  -26.6365   21.5252 C   0  0  0  0  0  0
  -18.1911  -26.7903   22.1652 C   0  0  0  0  0  0
  -19.1521  -28.8826   23.2930 C   0  0  0  0  0  0
  -18.9426  -30.1436   23.8923 C   0  0  0  0  0  0
  -17.6426  -30.6565   24.0568 C   0  0  0  0  0  0
  -25.9053  -34.9453   23.5108 C   0  0  0  0  0  0
  -16.5330  -29.9054   23.6337 C   0  0  0  0  0  0
  -16.7258  -28.6465   23.0392 C   0  0  0  0  0  0
  -26.4479  -31.6565   25.0718 C   0  0  0  0  0  0
  -25.3707  -31.3647   26.1426 C   0  0  0  0  0  0
  -27.0294  -30.2998   24.6108 C   0  0  0  0  0  0
  -27.6048  -32.4278   25.7504 C   0  0  0  0  0  0
  -27.5575  -37.1795   24.8473 C   0  0  0  0  0  0
  -21.4179  -29.3017   22.3742 N   0  0  0  0  0  0
  -26.4288  -37.3775   23.9414 N   0  0  0  0  0  0
  -24.6837  -31.0632   22.0981 N   0  0  0  0  0  0
  -23.4192  -28.8167   23.3086 O   0  0  0  0  0  0
  -28.3476  -26.5021   20.1384 O   0  0  0  0  0  0
  -26.5635  -34.8929   22.4681 O   0  0  0  0  0  0
  -23.5429  -32.1402   23.7390 O   0  0  0  0  0  0
  -30.7327  -19.2756   19.8860 C   0  0  0  0  0  0
  -28.4196  -19.2053   20.5396 C   0  0  0  0  0  0
  -30.8670  -17.8769   20.1565 C   0  0  0  0  0  0
  -28.5527  -17.8129   20.8168 C   0  0  0  0  0  0
  -29.5019  -19.9792   20.0472 C   0  0  0  0  0  0
  -29.7666  -17.0985   20.6083 C   0  0  0  0  0  0
  -28.2938  -21.4080   18.3400 C   0  0  0  0  0  0
  -29.1396  -24.0087   19.9738 C   0  0  0  0  0  0
  -28.1562  -25.1000   20.5702 C   0  0  0  0  0  0
  -29.3110  -21.4505   19.4969 C   0  0  1  0  0  0
  -29.7761  -15.6592   20.8683 N   0  0  0  0  0  0
  -28.9488  -22.5691   20.4535 N   0  3  0  0  0  0
  -31.4770  -12.5276   19.1389 H   0  0  0  0  0  0
  -30.3772  -11.3876   19.8637 H   0  0  0  0  0  0
  -29.7604  -11.8025   17.4513 H   0  0  0  0  0  0
  -29.6443  -13.5155   17.7605 H   0  0  0  0  0  0
  -27.8467  -11.3174   18.8273 H   0  0  0  0  0  0
  -27.3789  -12.6389   17.7854 H   0  0  0  0  0  0
  -27.6709  -14.2627   19.5539 H   0  0  0  0  0  0
  -28.7118  -12.0152   21.3443 H   0  0  0  0  0  0
  -28.4549  -13.6514   21.8679 H   0  0  0  0  0  0
  -25.2748   -9.5741   22.4753 H   0  0  0  0  0  0
  -24.0020   -7.4653   22.7493 H   0  0  0  0  0  0
  -21.0852   -8.8770   19.8909 H   0  0  0  0  0  0
  -22.3698  -10.9670   19.6167 H   0  0  0  0  0  0
  -21.1988   -7.6149   23.9729 H   0  0  0  0  0  0
  -21.1487   -6.0527   25.9087 H   0  0  0  0  0  0
  -22.0578   -2.7613   23.2884 H   0  0  0  0  0  0
  -22.4054  -11.9808   22.4786 H   0  0  0  0  0  0
  -21.1061  -13.1185   22.2601 H   0  0  0  0  0  0
  -24.6440  -15.8403   20.5084 H   0  0  0  0  0  0
  -26.2264  -15.6123   19.9684 H   0  0  0  0  0  0
  -26.7176  -32.5464   23.1127 H   0  0  0  0  0  0
  -25.0026  -33.9727   25.0406 H   0  0  0  0  0  0
  -22.7084  -31.3016   21.4094 H   0  0  0  0  0  0
  -23.3748  -35.9629   23.3292 H   0  0  0  0  0  0
  -24.3584  -36.8935   22.2059 H   0  0  0  0  0  0
  -23.7232  -37.6491   23.6680 H   0  0  0  0  0  0
  -26.0669  -31.5449   20.5825 H   0  0  0  0  0  0
  -26.8429  -30.8637   21.9820 H   0  0  0  0  0  0
  -28.1137  -28.9948   21.1987 H   0  0  0  0  0  0
  -26.0198  -25.9590   18.9502 H   0  0  0  0  0  0
  -23.9793  -27.3058   19.0002 H   0  0  0  0  0  0
  -23.7230  -30.5775   19.4020 H   0  0  0  0  0  0
  -22.7485  -29.2236   19.8868 H   0  0  0  0  0  0
  -25.1271  -36.1937   25.0819 H   0  0  0  0  0  0
  -20.9953  -28.3205   24.1467 H   0  0  0  0  0  0
  -20.5700  -26.2247   23.3627 H   0  0  0  0  0  0
  -21.6633  -26.7430   22.1213 H   0  0  0  0  0  0
  -19.6888  -25.6276   21.1269 H   0  0  0  0  0  0
  -19.6655  -27.3200   20.6803 H   0  0  0  0  0  0
  -17.4184  -26.6698   21.4039 H   0  0  0  0  0  0
  -18.0272  -26.0025   22.9023 H   0  0  0  0  0  0
  -19.7894  -30.7272   24.2304 H   0  0  0  0  0  0
  -17.4955  -31.6263   24.5124 H   0  0  0  0  0  0
  -15.5319  -30.2943   23.7633 H   0  0  0  0  0  0
  -15.8671  -28.0758   22.7119 H   0  0  0  0  0  0
  -24.5952  -30.6927   25.7726 H   0  0  0  0  0  0
  -24.8808  -32.2781   26.4821 H   0  0  0  0  0  0
  -25.8029  -30.8850   27.0219 H   0  0  0  0  0  0
  -26.2832  -29.6774   24.1160 H   0  0  0  0  0  0
  -27.4043  -29.7210   25.4560 H   0  0  0  0  0  0
  -27.8684  -30.4295   23.9266 H   0  0  0  0  0  0
  -27.2679  -33.3608   26.2041 H   0  0  0  0  0  0
  -28.3889  -32.6776   25.0339 H   0  0  0  0  0  0
  -28.0678  -31.8409   26.5450 H   0  0  0  0  0  0
  -28.2572  -38.0117   24.7532 H   0  0  0  0  0  0
  -28.1082  -36.2630   24.6269 H   0  0  0  0  0  0
  -27.2293  -37.1414   25.8883 H   0  0  0  0  0  0
  -20.9348  -29.8730   21.6953 H   0  0  0  0  0  0
  -26.0161  -38.2846   24.1421 H   0  0  0  0  0  0
  -31.5931  -19.7934   19.4832 H   0  0  0  0  0  0
  -27.4484  -19.6651   20.6629 H   0  0  0  0  0  0
  -31.8260  -17.4076   19.9811 H   0  0  0  0  0  0
  -27.6766  -17.2822   21.1632 H   0  0  0  0  0  0
  -28.5544  -20.6345   17.6195 H   0  0  0  0  0  0
  -28.2386  -22.3472   17.7907 H   0  0  0  0  0  0
  -27.2903  -21.1861   18.7048 H   0  0  0  0  0  0
  -30.1666  -24.2997   20.2006 H   0  0  0  0  0  0
  -29.0645  -24.0559   18.8892 H   0  0  0  0  0  0
  -28.2537  -25.1033   21.6570 H   0  0  0  0  0  0
  -27.1391  -24.7566   20.3825 H   0  0  0  0  0  0
  -30.2772  -21.7351   19.0745 H   0  0  0  0  0  0
  -28.8993  -15.3001   21.2160 H   0  0  0  0  0  0
  -27.9855  -22.4451   20.7143 H   0  0  0  0  0  0
  -29.4954  -22.4462   21.2914 H   0  0  0  0  0  0
  1 25  1  0  0  0
  1 30  2  0  0  0
  1 81  1  0  0  0
  2  3  1  0  0  0
  2 25  1  0  0  0
  2 83  1  0  0  0
  2 84  1  0  0  0
  3  4  1  0  0  0
  3 85  1  0  0  0
  3 86  1  0  0  0
  4  5  1  0  0  0
  4 87  1  0  0  0
  4 88  1  0  0  0
  5  6  1  0  0  0
  5 26  1  0  0  0
  5 89  1  0  0  0
  6 25  1  0  0  0
  6 90  1  0  0  0
  6 91  1  0  0  0
  7  8  2  0  0  0
  7 26  1  0  0  0
  7 29  1  0  0  0
  8  9  1  0  0  0
  8 22  1  0  0  0
  9 10  1  0  0  0
  9 27  2  0  0  0
 10 11  2  0  0  0
 10 15  1  0  0  0
 11 12  1  0  0  0
 11 92  1  0  0  0
 12 13  2  0  0  0
 12 93  1  0  0  0
 13 14  1  0  0  0
 13 31  1  0  0  0
 14 15  2  0  0  0
 14 94  1  0  0  0
 15 95  1  0  0  0
 16 17  2  0  0  0
 16 21  1  0  0  0
 16 31  1  0  0  0
 17 18  1  0  0  0
 17 96  1  0  0  0
 18 19  2  0  0  0
 18 97  1  0  0  0
 19 20  1  0  0  0
 19 24  1  0  0  0
 20 21  2  0  0  0
 20 98  1  0  0  0
 21 23  1  0  0  0
 22 28  1  0  0  0
 22 32  2  0  0  0
 26 27  1  0  0  0
 28 99  1  0  0  0
 28100  1  0  0  0
 29101  1  0  0  0
 29102  1  0  0  0
 33 34  1  0  0  0
 33 66  1  0  0  0
 33 70  2  0  0  0
 34 36  1  0  0  0
 34 59  1  0  0  0
 34103  1  0  0  0
 35 44  2  0  0  0
 35 45  1  0  0  0
 35 68  1  0  0  0
 36 56  1  0  0  0
 36104  1  0  0  0
 37 39  1  0  0  0
 37 47  1  0  0  0
 37 66  1  0  0  0
 37105  1  0  0  0
 38 43  2  0  0  0
 38 46  1  0  0  0
 38 47  1  0  0  0
 39 64  1  0  0  0
 39 67  2  0  0  0
 40 52  1  0  0  0
 40 53  2  0  0  0
 40 58  1  0  0  0
 41106  1  0  0  0
 41107  1  0  0  0
 41108  1  0  0  0
 41 48  1  0  0  0
 42 43  1  0  0  0
 42 66  1  0  0  0
 42109  1  0  0  0
 42110  1  0  0  0
 43 44  1  0  0  0
 44111  1  0  0  0
 45 46  2  0  0  0
 45112  1  0  0  0
 46113  1  0  0  0
 47114  1  0  0  0
 47115  1  0  0  0
 48 56  1  0  0  0
 48 65  1  0  0  0
 48116  1  0  0  0
 49 50  1  0  0  0
 49 53  1  0  0  0
 49 64  1  0  0  0
 49117  1  0  0  0
 50 51  1  0  0  0
 50118  1  0  0  0
 50119  1  0  0  0
 51 52  1  0  0  0
 51120  1  0  0  0
 51121  1  0  0  0
 52122  1  0  0  0
 52123  1  0  0  0
 53 54  1  0  0  0
 54 55  2  0  0  0
 54124  1  0  0  0
 55 57  1  0  0  0
 55125  1  0  0  0
 56 69  2  0  0  0
 57 58  2  0  0  0
 57126  1  0  0  0
 58127  1  0  0  0
 59 60  1  0  0  0
 59 61  1  0  0  0
 59 62  1  0  0  0
 60128  1  0  0  0
 60129  1  0  0  0
 60130  1  0  0  0
 61131  1  0  0  0
 61132  1  0  0  0
 61133  1  0  0  0
 62134  1  0  0  0
 62135  1  0  0  0
 62136  1  0  0  0
 63 65  1  0  0  0
 63137  1  0  0  0
 63138  1  0  0  0
 63139  1  0  0  0
 64140  1  0  0  0
 65141  1  0  0  0
 68 79  1  0  0  0
 71 73  2  0  0  0
 71 75  1  0  0  0
 71142  1  0  0  0
 72 74  1  0  0  0
 72 75  2  0  0  0
 72143  1  0  0  0
 73 76  1  0  0  0
 73144  1  0  0  0
 74 76  2  0  0  0
 74145  1  0  0  0
 75 80  1  0  0  0
 76 81  1  0  0  0
 77146  1  0  0  0
 77147  1  0  0  0
 77148  1  0  0  0
 77 80  1  0  0  0
 78 79  1  0  0  0
 78 82  1  0  0  0
 78149  1  0  0  0
 78150  1  0  0  0
 79151  1  0  0  0
 79152  1  0  0  0
 80 82  1  0  0  0
 80153  1  0  0  0
 81154  1  0  0  0
 82155  1  0  0  0
 82156  1  0  0  0
M  CHG  1  82   1
M  ISO  4   1 100  68 101  79 101  81 100
M  END
> <chiral flag>
0

> <version>
0

> <s_m_source_file>
/data/baiqing/PycharmProjects/Reinvent-master-3.2/result/LINK_invent/BTK/process_docking_weight1_custom_sum_contain_oxygen_bond_distance_aromatic_linkinvent_7_9_3/rearranged_h_0134.sdf

> <i_m_source_file_index>
53

> <r_mmod_Potential_Energy-OPLS-2005>
-112.693420410156

> <r_mmod_Stretch_Energy-OPLS-2005>
76.4696960449219

> <r_mmod_Bend_Energy-OPLS-2005>
133.745544433594

> <r_mmod_Torsional_Energy-OPLS-2005>
232.884887695312

> <r_mmod_Improper_Torsional_Energy-OPLS-2005>
5.73025226593018

> <r_mmod_Van_der_Waal_Energy-OPLS-2005>
141.418701171875

> <r_mmod_Electrostatic_Energy-OPLS-2005>
-289.194519042969

> <r_mmod_Solvation_Energy-OPLS-2005>
-457.180725097656

> <b_mmod_Minimization_Converged-OPLS-2005>
0

> <r_mmod_RMS_Derivative-OPLS-2005>
3.6893048286438

$$$$
53
                    3D
 Structure written by MMmdl.
151159  0  0  1  0            999 V2000
  -30.6182  -14.6579   20.4752 C   0  0  0  0  0  0
  -30.4338  -12.4034   19.4342 C   0  0  0  0  0  0
  -29.4961  -12.4865   18.2102 C   0  0  0  0  0  0
  -28.0231  -12.3276   18.6378 C   0  0  0  0  0  0
  -27.6487  -13.2149   19.8548 C   0  0  2  0  0  0
  -28.6977  -13.1012   20.9808 C   0  0  0  0  0  0
  -25.2580  -13.8154   20.5706 C   0  0  0  0  0  0
  -24.1839  -13.0428   20.9197 C   0  0  0  0  0  0
  -24.6406  -11.6898   20.8758 C   0  0  0  0  0  0
  -23.9077  -10.4290   21.0408 C   0  0  0  0  0  0
  -24.3627   -9.4212   21.9197 C   0  0  0  0  0  0
  -23.6304   -8.2247   22.0768 C   0  0  0  0  0  0
  -22.4293   -8.0280   21.3544 C   0  0  0  0  0  0
  -21.9919   -9.0261   20.4656 C   0  0  0  0  0  0
  -22.7245  -10.2136   20.3063 C   0  0  0  0  0  0
  -21.6864   -6.0735   22.5269 C   0  0  0  0  0  0
  -21.4015   -6.5642   23.8205 C   0  0  0  0  0  0
  -21.3661   -5.6795   24.9168 C   0  0  0  0  0  0
  -21.6036   -4.3056   24.7215 C   0  0  0  0  0  0
  -21.8830   -3.8151   23.4341 C   0  0  0  0  0  0
  -21.9202   -4.6965   22.3394 C   0  0  0  0  0  0
  -22.7874  -13.5226   21.1851 C   0  0  0  0  0  0
  -22.1672   -4.2147   21.0976 F   0  0  0  0  0  0
  -21.5624   -3.4543   25.7736 F   0  0  0  0  0  0
  -29.9986  -13.4409   20.3920 N   0  0  0  0  0  0
  -26.2989  -12.9330   20.3321 N   0  0  0  0  0  0
  -25.9335  -11.6487   20.5779 N   0  0  0  0  0  0
  -22.0528  -12.8206   22.0400 N   0  0  0  0  0  0
  -25.4308  -15.1881   20.4143 N   0  0  0  0  0  0
  -31.8061  -14.7952   20.1723 O   0  0  0  0  0  0
  -21.6644   -6.8876   21.4235 O   0  0  0  0  0  0
  -22.3571  -14.5542   20.6720 O   0  0  0  0  0  0
  -24.6256  -31.8579   23.2021 C   0  0  0  0  0  0
  -25.9115  -32.4760   23.8341 C   0  0  1  0  0  0
  -27.1994  -27.2905   20.1052 C   0  0  0  0  0  0
  -25.5959  -33.8575   24.2250 N   0  0  0  0  0  0
  -23.4174  -30.4837   21.5494 C   0  0  2  0  0  0
  -24.8530  -28.9384   20.1093 C   0  0  0  0  0  0
  -22.7477  -29.4635   22.4993 C   0  0  0  0  0  0
  -18.0297  -28.1374   22.8516 C   0  0  0  0  0  0
  -24.1487  -36.7271   23.2636 C   0  0  0  0  0  0
  -25.9600  -30.7802   21.3730 C   0  0  0  0  0  0
  -26.0266  -29.4065   20.7121 C   0  0  0  0  0  0
  -27.2000  -28.5931   20.7029 C   0  0  0  0  0  0
  -25.9893  -26.8692   19.5088 C   0  0  0  0  0  0
  -24.8367  -27.6751   19.5018 C   0  0  0  0  0  0
  -23.6242  -29.8223   20.1613 C   0  0  0  0  0  0
  -25.4109  -36.3065   24.0317 C   0  0  1  0  0  0
  -20.5895  -28.3670   23.1309 C   0  0  2  0  0  0
  -20.6793  -26.9402   22.5425 C   0  0  0  0  0  0
  -19.5748  -26.6381   21.5247 C   0  0  0  0  0  0
  -18.1929  -26.7928   22.1646 C   0  0  0  0  0  0
  -19.1541  -28.8844   23.2896 C   0  0  0  0  0  0
  -18.9461  -30.1478   23.8872 C   0  0  0  0  0  0
  -17.6448  -30.6581   24.0583 C   0  0  0  0  0  0
  -25.9057  -34.9452   23.5056 C   0  0  0  0  0  0
  -16.5344  -29.9071   23.6357 C   0  0  0  0  0  0
  -16.7277  -28.6495   23.0367 C   0  0  0  0  0  0
  -26.4500  -31.6595   25.0739 C   0  0  0  0  0  0
  -25.3719  -31.3784   26.1457 C   0  0  0  0  0  0
  -27.0350  -30.3008   24.6239 C   0  0  0  0  0  0
  -27.6047  -32.4356   25.7511 C   0  0  0  0  0  0
  -27.5564  -37.1775   24.8465 C   0  0  0  0  0  0
  -21.4193  -29.3019   22.3721 N   0  0  0  0  0  0
  -26.4272  -37.3770   23.9428 N   0  0  0  0  0  0
  -24.6883  -31.0590   22.0964 N   0  0  0  0  0  0
  -23.4202  -28.8180   23.3079 O   0  0  0  0  0  0
  -28.3151  -26.4352   20.1651 O   0  0  0  0  0  0
  -26.5646  -34.8931   22.4643 O   0  0  0  0  0  0
  -23.5436  -32.1411   23.7335 O   0  0  0  0  0  0
  -28.1211  -22.6285   19.1514 C   0  0  0  0  0  0
  -29.3531  -23.4490   21.0382 C   0  0  0  0  0  0
  -28.4552  -21.2770   19.4911 C   0  0  0  0  0  0
  -29.6829  -22.1002   21.3773 C   0  0  0  0  0  0
  -28.5811  -23.7603   19.8931 C   0  0  0  0  0  0
  -29.2755  -20.9725   20.6097 C   0  0  0  0  0  0
  -28.4231  -25.2237   19.3136 C   0  0  0  0  0  0
  -30.2282  -17.1833   20.9771 C   0  0  0  0  0  0
  -29.3845  -18.4088   20.3757 C   0  0  0  0  0  0
  -29.8211  -15.7499   20.7186 N   0  0  0  0  0  0
  -29.7367  -19.6923   21.0025 O   0  0  0  0  0  0
  -31.4719  -12.5368   19.1209 H   0  0  0  0  0  0
  -30.3795  -11.4145   19.8912 H   0  0  0  0  0  0
  -29.7529  -11.7114   17.4855 H   0  0  0  0  0  0
  -29.6333  -13.4410   17.6990 H   0  0  0  0  0  0
  -27.8693  -11.2768   18.8886 H   0  0  0  0  0  0
  -27.3588  -12.5363   17.7983 H   0  0  0  0  0  0
  -27.6579  -14.2438   19.4941 H   0  0  0  0  0  0
  -28.7230  -12.0931   21.3968 H   0  0  0  0  0  0
  -28.4543  -13.7663   21.8120 H   0  0  0  0  0  0
  -25.2777   -9.5675   22.4773 H   0  0  0  0  0  0
  -24.0005   -7.4633   22.7491 H   0  0  0  0  0  0
  -21.0844   -8.8778   19.8966 H   0  0  0  0  0  0
  -22.3714  -10.9673   19.6172 H   0  0  0  0  0  0
  -21.2010   -7.6159   23.9699 H   0  0  0  0  0  0
  -21.1465   -6.0534   25.9067 H   0  0  0  0  0  0
  -22.0609   -2.7608   23.2843 H   0  0  0  0  0  0
  -22.4158  -11.9844   22.4734 H   0  0  0  0  0  0
  -21.1159  -13.1229   22.2641 H   0  0  0  0  0  0
  -24.6653  -15.8428   20.5367 H   0  0  0  0  0  0
  -26.2769  -15.6298   20.0757 H   0  0  0  0  0  0
  -26.7182  -32.5393   23.1092 H   0  0  0  0  0  0
  -25.0170  -33.9766   25.0433 H   0  0  0  0  0  0
  -22.7102  -31.3043   21.4110 H   0  0  0  0  0  0
  -23.3761  -35.9594   23.3309 H   0  0  0  0  0  0
  -24.3569  -36.8880   22.2044 H   0  0  0  0  0  0
  -23.7239  -37.6463   23.6678 H   0  0  0  0  0  0
  -26.0986  -31.5448   20.6083 H   0  0  0  0  0  0
  -26.8369  -30.8168   22.0075 H   0  0  0  0  0  0
  -28.1007  -28.9490   21.1830 H   0  0  0  0  0  0
  -25.8768  -25.8865   19.0811 H   0  0  0  0  0  0
  -23.9286  -27.3018   19.0485 H   0  0  0  0  0  0
  -23.7361  -30.5992   19.4037 H   0  0  0  0  0  0
  -22.7417  -29.2544   19.8622 H   0  0  0  0  0  0
  -25.1290  -36.1885   25.0802 H   0  0  0  0  0  0
  -20.9976  -28.3204   24.1430 H   0  0  0  0  0  0
  -20.5752  -26.2261   23.3605 H   0  0  0  0  0  0
  -21.6644  -26.7472   22.1160 H   0  0  0  0  0  0
  -19.6919  -25.6300   21.1252 H   0  0  0  0  0  0
  -19.6673  -27.3228   20.6803 H   0  0  0  0  0  0
  -17.4210  -26.6721   21.4030 H   0  0  0  0  0  0
  -18.0282  -26.0055   22.9005 H   0  0  0  0  0  0
  -19.7936  -30.7350   24.2148 H   0  0  0  0  0  0
  -17.4999  -31.6257   24.5202 H   0  0  0  0  0  0
  -15.5346  -30.2963   23.7710 H   0  0  0  0  0  0
  -15.8678  -28.0834   22.7059 H   0  0  0  0  0  0
  -24.5924  -30.7078   25.7813 H   0  0  0  0  0  0
  -24.8886  -32.2965   26.4789 H   0  0  0  0  0  0
  -25.8004  -30.9045   27.0286 H   0  0  0  0  0  0
  -26.2924  -29.6776   24.1229 H   0  0  0  0  0  0
  -27.3993  -29.7267   25.4773 H   0  0  0  0  0  0
  -27.8842  -30.4304   23.9514 H   0  0  0  0  0  0
  -27.2654  -33.3707   26.1982 H   0  0  0  0  0  0
  -28.3900  -32.6802   25.0350 H   0  0  0  0  0  0
  -28.0671  -31.8544   26.5501 H   0  0  0  0  0  0
  -28.2550  -38.0100   24.7530 H   0  0  0  0  0  0
  -28.1060  -36.2621   24.6232 H   0  0  0  0  0  0
  -27.2291  -37.1349   25.8866 H   0  0  0  0  0  0
  -20.9371  -29.8703   21.6907 H   0  0  0  0  0  0
  -26.0125  -38.2821   24.1470 H   0  0  0  0  0  0
  -27.5334  -22.7953   18.2579 H   0  0  0  0  0  0
  -29.7437  -24.2592   21.6364 H   0  0  0  0  0  0
  -28.1027  -20.4762   18.8566 H   0  0  0  0  0  0
  -30.3078  -21.9293   22.2439 H   0  0  0  0  0  0
  -27.7076  -25.2028   18.4956 H   0  0  0  0  0  0
  -29.3653  -25.3771   18.7889 H   0  0  0  0  0  0
  -30.2079  -17.2873   22.0627 H   0  0  0  0  0  0
  -31.2741  -17.3177   20.7002 H   0  0  0  0  0  0
  -28.3189  -18.2404   20.5300 H   0  0  0  0  0  0
  -29.5434  -18.4691   19.2975 H   0  0  0  0  0  0
  -28.8459  -15.5353   20.8658 H   0  0  0  0  0  0
  1 25  1  0  0  0
  1 30  2  0  0  0
  1 80  1  0  0  0
  2  3  1  0  0  0
  2 25  1  0  0  0
  2 82  1  0  0  0
  2 83  1  0  0  0
  3  4  1  0  0  0
  3 84  1  0  0  0
  3 85  1  0  0  0
  4  5  1  0  0  0
  4 86  1  0  0  0
  4 87  1  0  0  0
  5  6  1  0  0  0
  5 26  1  0  0  0
  5 88  1  0  0  0
  6 25  1  0  0  0
  6 89  1  0  0  0
  6 90  1  0  0  0
  7  8  2  0  0  0
  7 26  1  0  0  0
  7 29  1  0  0  0
  8  9  1  0  0  0
  8 22  1  0  0  0
  9 10  1  0  0  0
  9 27  2  0  0  0
 10 11  2  0  0  0
 10 15  1  0  0  0
 11 12  1  0  0  0
 11 91  1  0  0  0
 12 13  2  0  0  0
 12 92  1  0  0  0
 13 14  1  0  0  0
 13 31  1  0  0  0
 14 15  2  0  0  0
 14 93  1  0  0  0
 15 94  1  0  0  0
 16 17  2  0  0  0
 16 21  1  0  0  0
 16 31  1  0  0  0
 17 18  1  0  0  0
 17 95  1  0  0  0
 18 19  2  0  0  0
 18 96  1  0  0  0
 19 20  1  0  0  0
 19 24  1  0  0  0
 20 21  2  0  0  0
 20 97  1  0  0  0
 21 23  1  0  0  0
 22 28  1  0  0  0
 22 32  2  0  0  0
 26 27  1  0  0  0
 28 98  1  0  0  0
 28 99  1  0  0  0
 29100  1  0  0  0
 29101  1  0  0  0
 33 34  1  0  0  0
 33 66  1  0  0  0
 33 70  2  0  0  0
 34 36  1  0  0  0
 34 59  1  0  0  0
 34102  1  0  0  0
 35 44  2  0  0  0
 35 45  1  0  0  0
 35 68  1  0  0  0
 36 56  1  0  0  0
 36103  1  0  0  0
 37 39  1  0  0  0
 37 47  1  0  0  0
 37 66  1  0  0  0
 37104  1  0  0  0
 38 43  2  0  0  0
 38 46  1  0  0  0
 38 47  1  0  0  0
 39 64  1  0  0  0
 39 67  2  0  0  0
 40 52  1  0  0  0
 40 53  2  0  0  0
 40 58  1  0  0  0
 41105  1  0  0  0
 41106  1  0  0  0
 41107  1  0  0  0
 41 48  1  0  0  0
 42 43  1  0  0  0
 42 66  1  0  0  0
 42108  1  0  0  0
 42109  1  0  0  0
 43 44  1  0  0  0
 44110  1  0  0  0
 45 46  2  0  0  0
 45111  1  0  0  0
 46112  1  0  0  0
 47113  1  0  0  0
 47114  1  0  0  0
 48 56  1  0  0  0
 48 65  1  0  0  0
 48115  1  0  0  0
 49 50  1  0  0  0
 49 53  1  0  0  0
 49 64  1  0  0  0
 49116  1  0  0  0
 50 51  1  0  0  0
 50117  1  0  0  0
 50118  1  0  0  0
 51 52  1  0  0  0
 51119  1  0  0  0
 51120  1  0  0  0
 52121  1  0  0  0
 52122  1  0  0  0
 53 54  1  0  0  0
 54 55  2  0  0  0
 54123  1  0  0  0
 55 57  1  0  0  0
 55124  1  0  0  0
 56 69  2  0  0  0
 57 58  2  0  0  0
 57125  1  0  0  0
 58126  1  0  0  0
 59 60  1  0  0  0
 59 61  1  0  0  0
 59 62  1  0  0  0
 60127  1  0  0  0
 60128  1  0  0  0
 60129  1  0  0  0
 61130  1  0  0  0
 61131  1  0  0  0
 61132  1  0  0  0
 62133  1  0  0  0
 62134  1  0  0  0
 62135  1  0  0  0
 63 65  1  0  0  0
 63136  1  0  0  0
 63137  1  0  0  0
 63138  1  0  0  0
 64139  1  0  0  0
 65140  1  0  0  0
 68 77  1  0  0  0
 71 73  2  0  0  0
 71 75  1  0  0  0
 71141  1  0  0  0
 72 74  1  0  0  0
 72 75  2  0  0  0
 72142  1  0  0  0
 73 76  1  0  0  0
 73143  1  0  0  0
 74 76  2  0  0  0
 74144  1  0  0  0
 75 77  1  0  0  0
 76 81  1  0  0  0
 77145  1  0  0  0
 77146  1  0  0  0
 78 79  1  0  0  0
 78 80  1  0  0  0
 78147  1  0  0  0
 78148  1  0  0  0
 79 81  1  0  0  0
 79149  1  0  0  0
 79150  1  0  0  0
 80151  1  0  0  0
M  ISO  4   1 100  68 101  77 101  80 100
M  END
> <chiral flag>
0

> <version>
0

> <s_m_source_file>
/data/baiqing/PycharmProjects/Reinvent-master-3.2/result/LINK_invent/BTK/process_docking_weight1_custom_sum_contain_oxygen_bond_distance_aromatic_linkinvent_7_9_3/rearranged_h_0134.sdf

> <i_m_source_file_index>
54

> <r_mmod_Potential_Energy-OPLS-2005>
58.6459274291992

> <r_mmod_Stretch_Energy-OPLS-2005>
85.370719909668

> <r_mmod_Bend_Energy-OPLS-2005>
166.435256958008

> <r_mmod_Torsional_Energy-OPLS-2005>
213.142990112305

> <r_mmod_Improper_Torsional_Energy-OPLS-2005>
5.59491395950317

> <r_mmod_Van_der_Waal_Energy-OPLS-2005>
142.30046081543

> <r_mmod_Electrostatic_Energy-OPLS-2005>
-399.561248779297

> <r_mmod_Solvation_Energy-OPLS-2005>
-215.326858520508

> <b_mmod_Minimization_Converged-OPLS-2005>
0

> <r_mmod_RMS_Derivative-OPLS-2005>
3.37520265579224

$$$$
54
                    3D
 Structure written by MMmdl.
154162  0  0  1  0            999 V2000
  -30.0463  -14.7417   20.1389 C   0  0  0  0  0  0
  -30.7078  -12.4690   19.4051 C   0  0  0  0  0  0
  -29.7034  -12.1948   18.2593 C   0  0  0  0  0  0
  -28.3333  -11.8035   18.8858 C   0  0  0  0  0  0
  -28.0841  -12.7089   20.1377 C   0  0  2  0  0  0
  -29.1016  -12.8134   21.1829 C   0  0  0  0  0  0
  -25.6340  -14.3211   21.6556 C   0  0  0  0  0  0
  -24.1080  -13.7277   21.0117 C   0  0  0  0  0  0
  -24.3082  -12.3248   20.0351 C   0  0  0  0  0  0
  -23.7668  -10.8644   20.5652 C   0  0  0  0  0  0
  -24.3218   -9.9104   21.5430 C   0  0  0  0  0  0
  -23.7120   -8.6347   21.9002 C   0  0  0  0  0  0
  -22.4856   -8.2263   21.3078 C   0  0  0  0  0  0
  -21.9409   -9.1429   20.3904 C   0  0  0  0  0  0
  -22.5464  -10.3852   20.0508 C   0  0  0  0  0  0
  -21.7882   -6.1644   22.5247 C   0  0  0  0  0  0
  -21.4824   -6.6272   23.8232 C   0  0  0  0  0  0
  -21.3904   -5.7216   24.9042 C   0  0  0  0  0  0
  -21.6017   -4.3429   24.7004 C   0  0  0  0  0  0
  -21.8744   -3.8690   23.4059 C   0  0  0  0  0  0
  -21.9541   -4.7699   22.3263 C   0  0  0  0  0  0
  -22.7089  -13.9722   21.3602 C   0  0  0  0  0  0
  -22.1800   -4.2800   21.0826 F   0  0  0  0  0  0
  -21.5407   -3.4772   25.7414 F   0  0  0  0  0  0
  -30.0980  -13.4121   20.3735 N   0  0  0  0  0  0
  -26.8754  -13.1131   20.6024 N   0  0  0  0  0  0
  -25.8363  -12.1591   19.6853 N   0  0  0  0  0  0
  -22.0958  -13.0559   22.1107 N   0  0  0  0  0  0
  -25.9949  -15.5699   21.9910 N   0  0  0  0  0  0
  -31.1706  -15.2544   20.0206 O   0  0  0  0  0  0
  -21.8133   -7.0040   21.4212 O   0  0  0  0  0  0
  -22.1131  -14.8690   20.7931 O   0  0  0  0  0  0
  -24.6960  -31.7912   23.1502 C   0  0  0  0  0  0
  -25.9524  -32.4431   23.8022 C   0  0  1  0  0  0
  -26.8374  -26.4669   20.1390 C   0  0  0  0  0  0
  -25.6054  -33.8279   24.1873 N   0  0  0  0  0  0
  -23.5027  -30.4212   21.5170 C   0  0  2  0  0  0
  -24.8765  -28.7633   20.0743 C   0  0  0  0  0  0
  -22.7713  -29.4333   22.4662 C   0  0  0  0  0  0
  -18.0309  -28.1434   22.8417 C   0  0  0  0  0  0
  -24.1474  -36.7146   23.2638 C   0  0  0  0  0  0
  -26.0862  -30.4300   21.4372 C   0  0  0  0  0  0
  -26.0698  -28.9905   20.7597 C   0  0  0  0  0  0
  -27.0557  -27.8520   20.7839 C   0  0  0  0  0  0
  -25.7089  -26.5527   19.3273 C   0  0  0  0  0  0
  -24.7509  -27.5877   19.3365 C   0  0  0  0  0  0
  -23.7295  -29.7729   20.1281 C   0  0  0  0  0  0
  -25.4132  -36.2905   24.0263 C   0  0  1  0  0  0
  -20.5946  -28.3811   23.1101 C   0  0  2  0  0  0
  -20.6803  -26.9479   22.5377 C   0  0  0  0  0  0
  -19.5794  -26.6370   21.5187 C   0  0  0  0  0  0
  -18.1962  -26.7953   22.1574 C   0  0  0  0  0  0
  -19.1579  -28.8927   23.2749 C   0  0  0  0  0  0
  -18.9510  -30.1506   23.8803 C   0  0  0  0  0  0
  -17.6520  -30.6632   24.0535 C   0  0  0  0  0  0
  -25.9133  -34.9290   23.4911 C   0  0  0  0  0  0
  -16.5397  -29.9121   23.6369 C   0  0  0  0  0  0
  -16.7291  -28.6541   23.0367 C   0  0  0  0  0  0
  -26.4608  -31.6572   25.0750 C   0  0  0  0  0  0
  -25.3618  -31.4014   26.1346 C   0  0  0  0  0  0
  -27.0602  -30.2893   24.6849 C   0  0  0  0  0  0
  -27.6028  -32.4467   25.7586 C   0  0  0  0  0  0
  -27.5576  -37.1728   24.8446 C   0  0  0  0  0  0
  -21.4367  -29.3066   22.3408 N   0  0  0  0  0  0
  -26.4250  -37.3695   23.9437 N   0  0  0  0  0  0
  -24.7927  -30.9202   22.0838 N   0  0  0  0  0  0
  -23.4143  -28.7861   23.2963 O   0  0  0  0  0  0
  -27.4031  -24.9999   20.2363 O   0  0  0  0  0  0
  -26.5788  -34.8880   22.4543 O   0  0  0  0  0  0
  -23.5981  -32.1124   23.6392 O   0  0  0  0  0  0
  -26.3683  -19.9441   19.4645 C   0  0  0  0  0  0
  -26.0392  -21.2378   21.4169 C   0  0  0  0  0  0
  -26.5031  -21.4691   20.1022 C   0  0  0  0  0  0
  -25.8355  -18.4722   20.0140 C   0  0  0  0  0  0
  -25.3614  -18.8761   21.2931 C   0  0  0  0  0  0
  -25.3207  -16.6496   19.4952 C   0  0  0  0  0  0
  -26.9119  -23.3186   19.6178 C   0  0  0  0  0  0
  -25.6822  -14.6106   19.5043 C   0  0  0  0  0  0
  -27.3479  -15.2646   19.1313 C   0  0  0  0  0  0
  -25.4846  -20.0842   21.9186 N   0  0  0  0  0  0
  -24.5565  -18.0180   22.0193 N   0  0  0  0  0  0
  -28.7344  -15.3922   20.0213 N   0  0  0  0  0  0
  -31.6510  -12.8622   19.0126 H   0  0  0  0  0  0
  -30.9584  -11.5333   19.9041 H   0  0  0  0  0  0
  -30.0627  -11.3951   17.6080 H   0  0  0  0  0  0
  -29.6140  -13.0835   17.6338 H   0  0  0  0  0  0
  -28.3729  -10.7658   19.2214 H   0  0  0  0  0  0
  -27.5899  -11.8342   18.0844 H   0  0  0  0  0  0
  -28.1716  -13.3103   19.3173 H   0  0  0  0  0  0
  -29.3957  -11.8386   21.5716 H   0  0  0  0  0  0
  -28.8248  -13.4405   22.0363 H   0  0  0  0  0  0
  -25.2614  -10.1683   22.0105 H   0  0  0  0  0  0
  -24.2143   -7.9795   22.5956 H   0  0  0  0  0  0
  -21.0212   -8.8757   19.8950 H   0  0  0  0  0  0
  -22.0303  -11.0018   19.3264 H   0  0  0  0  0  0
  -21.3177   -7.6807   23.9942 H   0  0  0  0  0  0
  -21.1666   -6.0877   25.8958 H   0  0  0  0  0  0
  -22.0196   -2.8143   23.2330 H   0  0  0  0  0  0
  -22.6045  -12.2895   22.5270 H   0  0  0  0  0  0
  -21.1119  -13.1607   22.3099 H   0  0  0  0  0  0
  -26.6480  -15.8140   21.2551 H   0  0  0  0  0  0
  -26.5788  -15.4956   22.8162 H   0  0  0  0  0  0
  -26.7617  -32.4775   23.0723 H   0  0  0  0  0  0
  -25.0188  -33.9320   25.0012 H   0  0  0  0  0  0
  -22.8398  -31.2721   21.3562 H   0  0  0  0  0  0
  -23.3820  -35.9405   23.3202 H   0  0  0  0  0  0
  -24.3533  -36.8926   22.2083 H   0  0  0  0  0  0
  -23.7127  -37.6234   23.6788 H   0  0  0  0  0  0
  -26.3407  -31.1537   20.6611 H   0  0  0  0  0  0
  -26.9284  -30.4512   22.1143 H   0  0  0  0  0  0
  -27.9209  -27.9817   21.4186 H   0  0  0  0  0  0
  -25.4406  -25.6890   18.7442 H   0  0  0  0  0  0
  -23.8464  -27.4286   18.7672 H   0  0  0  0  0  0
  -23.9601  -30.5541   19.4011 H   0  0  0  0  0  0
  -22.8053  -29.3119   19.7679 H   0  0  0  0  0  0
  -25.1340  -36.1684   25.0761 H   0  0  0  0  0  0
  -21.0017  -28.3473   24.1230 H   0  0  0  0  0  0
  -20.5666  -26.2463   23.3648 H   0  0  0  0  0  0
  -21.6674  -26.7444   22.1205 H   0  0  0  0  0  0
  -19.7000  -25.6245   21.1319 H   0  0  0  0  0  0
  -19.6761  -27.3081   20.6636 H   0  0  0  0  0  0
  -17.4238  -26.6634   21.3979 H   0  0  0  0  0  0
  -18.0396  -26.0109   22.8986 H   0  0  0  0  0  0
  -19.7996  -30.7320   24.2141 H   0  0  0  0  0  0
  -17.5094  -31.6295   24.5169 H   0  0  0  0  0  0
  -15.5408  -30.3015   23.7774 H   0  0  0  0  0  0
  -15.8663  -28.0843   22.7182 H   0  0  0  0  0  0
  -24.5804  -30.7342   25.7691 H   0  0  0  0  0  0
  -24.8813  -32.3301   26.4439 H   0  0  0  0  0  0
  -25.7737  -30.9420   27.0343 H   0  0  0  0  0  0
  -26.3398  -29.6421   24.1854 H   0  0  0  0  0  0
  -27.3933  -29.7462   25.5702 H   0  0  0  0  0  0
  -27.9394  -30.3991   24.0507 H   0  0  0  0  0  0
  -27.2551  -33.3857   26.1902 H   0  0  0  0  0  0
  -28.3991  -32.6881   25.0536 H   0  0  0  0  0  0
  -28.0536  -31.8787   26.5734 H   0  0  0  0  0  0
  -28.2502  -38.0108   24.7628 H   0  0  0  0  0  0
  -28.1150  -36.2652   24.6109 H   0  0  0  0  0  0
  -27.2315  -37.1183   25.8839 H   0  0  0  0  0  0
  -20.9665  -29.8782   21.6526 H   0  0  0  0  0  0
  -26.0081  -38.2741   24.1501 H   0  0  0  0  0  0
  -26.6843  -19.9141   18.4303 H   0  0  0  0  0  0
  -26.0630  -22.0551   22.1140 H   0  0  0  0  0  0
  -25.1880  -16.8325   18.4291 H   0  0  0  0  0  0
  -24.2868  -16.6415   19.8456 H   0  0  0  0  0  0
  -26.0862  -23.5494   18.9456 H   0  0  0  0  0  0
  -27.7374  -23.1486   18.9170 H   0  0  0  0  0  0
  -25.2159  -14.2700   18.5734 H   0  0  0  0  0  0
  -25.4440  -12.5501   21.4836 H   0  0  0  0  0  0
  -27.3228  -16.2684   18.7091 H   0  0  0  0  0  0
  -27.6176  -14.7962   18.1823 H   0  0  0  0  0  0
  -24.9983  -17.0957   22.0880 H   0  0  0  0  0  0
  -24.2639  -18.3434   22.9256 H   0  0  0  0  0  0
  -28.9067  -16.3764   20.1775 H   0  0  0  0  0  0
  1 25  1  0  0  0
  1 30  2  0  0  0
  1 82  1  0  0  0
  2  3  1  0  0  0
  2 25  1  0  0  0
  2 83  1  0  0  0
  2 84  1  0  0  0
  3  4  1  0  0  0
  3 85  1  0  0  0
  3 86  1  0  0  0
  4  5  1  0  0  0
  4 87  1  0  0  0
  4 88  1  0  0  0
  5  6  1  0  0  0
  5 26  1  0  0  0
  5 89  1  0  0  0
  6 25  1  0  0  0
  6 90  1  0  0  0
  6 91  1  0  0  0
  7  8  2  0  0  0
  7 26  1  0  0  0
  7 29  1  0  0  0
  8  9  1  0  0  0
  8 22  1  0  0  0
  9 10  1  0  0  0
  9 27  2  0  0  0
 10 11  2  0  0  0
 10 15  1  0  0  0
 11 12  1  0  0  0
 11 92  1  0  0  0
 12 13  2  0  0  0
 12 93  1  0  0  0
 13 14  1  0  0  0
 13 31  1  0  0  0
 14 15  2  0  0  0
 14 94  1  0  0  0
 15 95  1  0  0  0
 16 17  2  0  0  0
 16 21  1  0  0  0
 16 31  1  0  0  0
 17 18  1  0  0  0
 17 96  1  0  0  0
 18 19  2  0  0  0
 18 97  1  0  0  0
 19 20  1  0  0  0
 19 24  1  0  0  0
 20 21  2  0  0  0
 20 98  1  0  0  0
 21 23  1  0  0  0
 22 28  1  0  0  0
 22 32  2  0  0  0
 26 27  1  0  0  0
 28 99  1  0  0  0
 28100  1  0  0  0
 29101  1  0  0  0
 29102  1  0  0  0
 33 34  1  0  0  0
 33 66  1  0  0  0
 33 70  2  0  0  0
 34 36  1  0  0  0
 34 59  1  0  0  0
 34103  1  0  0  0
 35 44  2  0  0  0
 35 45  1  0  0  0
 35 68  1  0  0  0
 36 56  1  0  0  0
 36104  1  0  0  0
 37 39  1  0  0  0
 37 47  1  0  0  0
 37 66  1  0  0  0
 37105  1  0  0  0
 38 43  2  0  0  0
 38 46  1  0  0  0
 38 47  1  0  0  0
 39 64  1  0  0  0
 39 67  2  0  0  0
 40 52  1  0  0  0
 40 53  2  0  0  0
 40 58  1  0  0  0
 41106  1  0  0  0
 41107  1  0  0  0
 41108  1  0  0  0
 41 48  1  0  0  0
 42 43  1  0  0  0
 42 66  1  0  0  0
 42109  1  0  0  0
 42110  1  0  0  0
 43 44  1  0  0  0
 44111  1  0  0  0
 45 46  2  0  0  0
 45112  1  0  0  0
 46113  1  0  0  0
 47114  1  0  0  0
 47115  1  0  0  0
 48 56  1  0  0  0
 48 65  1  0  0  0
 48116  1  0  0  0
 49 50  1  0  0  0
 49 53  1  0  0  0
 49 64  1  0  0  0
 49117  1  0  0  0
 50 51  1  0  0  0
 50118  1  0  0  0
 50119  1  0  0  0
 51 52  1  0  0  0
 51120  1  0  0  0
 51121  1  0  0  0
 52122  1  0  0  0
 52123  1  0  0  0
 53 54  1  0  0  0
 54 55  2  0  0  0
 54124  1  0  0  0
 55 57  1  0  0  0
 55125  1  0  0  0
 56 69  2  0  0  0
 57 58  2  0  0  0
 57126  1  0  0  0
 58127  1  0  0  0
 59 60  1  0  0  0
 59 61  1  0  0  0
 59 62  1  0  0  0
 60128  1  0  0  0
 60129  1  0  0  0
 60130  1  0  0  0
 61131  1  0  0  0
 61132  1  0  0  0
 61133  1  0  0  0
 62134  1  0  0  0
 62135  1  0  0  0
 62136  1  0  0  0
 63 65  1  0  0  0
 63137  1  0  0  0
 63138  1  0  0  0
 63139  1  0  0  0
 64140  1  0  0  0
 65141  1  0  0  0
 68 77  1  0  0  0
 71 73  2  0  0  0
 71 74  1  0  0  0
 71142  1  0  0  0
 72 73  1  0  0  0
 72 80  2  0  0  0
 72143  1  0  0  0
 73 77  1  0  0  0
 74 75  2  0  0  0
 74 76  1  0  0  0
 75 80  1  0  0  0
 75 81  1  0  0  0
 76 78  1  0  0  0
 76144  1  0  0  0
 76145  1  0  0  0
 77146  1  0  0  0
 77147  1  0  0  0
 78 79  1  0  0  0
 78148  1  0  0  0
 78149  1  0  0  0
 79 82  1  0  0  0
 79150  1  0  0  0
 79151  1  0  0  0
 81152  1  0  0  0
 81153  1  0  0  0
 82154  1  0  0  0
M  ISO  4   1 100  68 101  77 101  82 100
M  END
> <chiral flag>
0

> <version>
0

> <s_m_source_file>
/data/baiqing/PycharmProjects/Reinvent-master-3.2/result/LINK_invent/BTK/process_docking_weight1_custom_sum_contain_oxygen_bond_distance_aromatic_linkinvent_7_9_3/rearranged_h_0134.sdf

> <i_m_source_file_index>
55

> <r_mmod_Potential_Energy-OPLS-2005>
13399.9560546875

> <r_mmod_Stretch_Energy-OPLS-2005>
7959.4775390625

> <r_mmod_Bend_Energy-OPLS-2005>
1285.30712890625

> <r_mmod_Torsional_Energy-OPLS-2005>
510.449615478516

> <r_mmod_Improper_Torsional_Energy-OPLS-2005>
66.0680770874023

> <r_mmod_Van_der_Waal_Energy-OPLS-2005>
2457.77856445312

> <r_mmod_Electrostatic_Energy-OPLS-2005>
-657.491149902344

> <r_mmod_Solvation_Energy-OPLS-2005>
-239.35514831543

> <b_mmod_Minimization_Converged-OPLS-2005>
0

> <r_mmod_RMS_Derivative-OPLS-2005>
14.982045173645

$$$$
55
                    3D
 Structure written by MMmdl.
187196  0  0  1  0            999 V2000
  -30.6309  -14.5998   20.5034 C   0  0  0  0  0  0
  -30.4437  -12.3704   19.4249 C   0  0  0  0  0  0
  -29.4992  -12.4935   18.2073 C   0  0  0  0  0  0
  -28.0240  -12.3335   18.6306 C   0  0  0  0  0  0
  -27.6567  -13.2026   19.8622 C   0  0  2  0  0  0
  -28.7086  -13.0356   20.9827 C   0  0  0  0  0  0
  -25.2600  -13.8138   20.5690 C   0  0  0  0  0  0
  -24.1852  -13.0427   20.9201 C   0  0  0  0  0  0
  -24.6403  -11.6896   20.8750 C   0  0  0  0  0  0
  -23.9067  -10.4283   21.0424 C   0  0  0  0  0  0
  -24.3624   -9.4197   21.9187 C   0  0  0  0  0  0
  -23.6295   -8.2230   22.0752 C   0  0  0  0  0  0
  -22.4280   -8.0276   21.3543 C   0  0  0  0  0  0
  -21.9918   -9.0260   20.4643 C   0  0  0  0  0  0
  -22.7246  -10.2131   20.3057 C   0  0  0  0  0  0
  -21.6844   -6.0736   22.5285 C   0  0  0  0  0  0
  -21.4015   -6.5637   23.8217 C   0  0  0  0  0  0
  -21.3654   -5.6786   24.9173 C   0  0  0  0  0  0
  -21.6043   -4.3056   24.7227 C   0  0  0  0  0  0
  -21.8818   -3.8151   23.4344 C   0  0  0  0  0  0
  -21.9200   -4.6964   22.3405 C   0  0  0  0  0  0
  -22.7874  -13.5230   21.1856 C   0  0  0  0  0  0
  -22.1660   -4.2155   21.0977 F   0  0  0  0  0  0
  -21.5628   -3.4539   25.7735 F   0  0  0  0  0  0
  -30.0230  -13.3793   20.4127 N   0  0  0  0  0  0
  -26.3017  -12.9297   20.3343 N   0  0  0  0  0  0
  -25.9332  -11.6462   20.5785 N   0  0  0  0  0  0
  -22.0524  -12.8207   22.0409 N   0  0  0  0  0  0
  -25.4325  -15.1853   20.4055 N   0  0  0  0  0  0
  -31.7955  -14.7911   20.1506 O   0  0  0  0  0  0
  -21.6637   -6.8883   21.4243 O   0  0  0  0  0  0
  -22.3567  -14.5548   20.6715 O   0  0  0  0  0  0
  -24.6284  -31.8574   23.2006 C   0  0  0  0  0  0
  -25.9116  -32.4763   23.8330 C   0  0  1  0  0  0
  -27.2395  -27.3222   20.1006 C   0  0  0  0  0  0
  -25.5945  -33.8562   24.2254 N   0  0  0  0  0  0
  -23.4222  -30.4794   21.5437 C   0  0  2  0  0  0
  -24.8694  -28.9288   20.1161 C   0  0  0  0  0  0
  -22.7483  -29.4607   22.4941 C   0  0  0  0  0  0
  -18.0289  -28.1402   22.8462 C   0  0  0  0  0  0
  -24.1497  -36.7269   23.2636 C   0  0  0  0  0  0
  -25.9639  -30.7868   21.3712 C   0  0  0  0  0  0
  -26.0388  -29.4151   20.7097 C   0  0  0  0  0  0
  -27.2263  -28.6245   20.6901 C   0  0  0  0  0  0
  -26.0381  -26.8783   19.5055 C   0  0  0  0  0  0
  -24.8702  -27.6643   19.5078 C   0  0  0  0  0  0
  -23.6360  -29.8069   20.1639 C   0  0  0  0  0  0
  -25.4119  -36.3054   24.0317 C   0  0  1  0  0  0
  -20.5887  -28.3680   23.1292 C   0  0  2  0  0  0
  -20.6787  -26.9403   22.5428 C   0  0  0  0  0  0
  -19.5761  -26.6380   21.5233 C   0  0  0  0  0  0
  -18.1926  -26.7948   22.1610 C   0  0  0  0  0  0
  -19.1547  -28.8864   23.2868 C   0  0  0  0  0  0
  -18.9474  -30.1472   23.8866 C   0  0  0  0  0  0
  -17.6474  -30.6593   24.0562 C   0  0  0  0  0  0
  -25.9065  -34.9424   23.5082 C   0  0  0  0  0  0
  -16.5362  -29.9084   23.6356 C   0  0  0  0  0  0
  -16.7286  -28.6522   23.0328 C   0  0  0  0  0  0
  -26.4515  -31.6597   25.0707 C   0  0  0  0  0  0
  -25.3738  -31.3730   26.1439 C   0  0  0  0  0  0
  -27.0366  -30.3017   24.6185 C   0  0  0  0  0  0
  -27.6084  -32.4332   25.7437 C   0  0  0  0  0  0
  -27.5569  -37.1767   24.8464 C   0  0  0  0  0  0
  -21.4204  -29.3028   22.3685 N   0  0  0  0  0  0
  -26.4285  -37.3758   23.9417 N   0  0  0  0  0  0
  -24.6893  -31.0584   22.0945 N   0  0  0  0  0  0
  -23.4200  -28.8153   23.3032 O   0  0  0  0  0  0
  -28.3883  -26.5140   20.1169 O   0  0  0  0  0  0
  -26.5633  -34.8886   22.4648 O   0  0  0  0  0  0
  -23.5438  -32.1371   23.7334 O   0  0  0  0  0  0
  -29.4092  -22.7318   20.7382 C   0  0  0  0  0  0
  -29.4822  -24.3070   20.7490 C   0  0  0  0  0  0
  -28.1814  -24.4425   18.6316 C   0  0  0  0  0  0
  -30.5508  -18.8622   15.6799 C   0  0  0  0  0  0
  -29.1251  -18.3747   15.3754 C   0  0  0  0  0  0
  -28.2994  -19.6732   17.2583 C   0  0  0  0  0  0
  -29.0441  -22.0181   19.3869 C   0  0  1  0  0  0
  -28.2917  -25.0320   20.0627 C   0  0  2  0  0  0
  -29.0161  -23.1508   18.2743 C   0  0  1  0  0  0
  -29.7513  -20.1400   17.5988 C   0  0  1  0  0  0
  -32.7270  -20.6768   16.8001 C   0  0  0  0  0  0
  -33.0368  -18.1693   17.1267 C   0  0  0  0  0  0
  -28.5281  -23.4871   15.9170 C   0  0  0  0  0  0
  -29.9825  -17.0881   21.0780 C   0  0  0  0  0  0
  -30.0273  -18.0724   19.8440 C   0  0  0  0  0  0
  -29.8932  -20.6498   19.0951 C   0  0  2  0  0  0
  -32.1602  -19.3963   17.4390 C   0  0  0  0  0  0
  -30.7385  -19.1267   17.1251 N   0  0  0  0  0  0
  -29.7937  -15.6226   20.8271 N   0  0  0  0  0  0
  -28.1471  -19.3798   15.8208 N   0  3  0  0  0  0
  -29.7082  -19.5388   20.1386 N   0  3  0  0  0  0
  -28.4433  -22.6412   17.0664 O   0  0  0  0  0  0
  -31.4812  -12.5086   19.1131 H   0  0  0  0  0  0
  -30.3891  -11.3706   19.8574 H   0  0  0  0  0  0
  -29.7538  -11.7413   17.4588 H   0  0  0  0  0  0
  -29.6372  -13.4637   17.7255 H   0  0  0  0  0  0
  -27.8597  -11.2802   18.8603 H   0  0  0  0  0  0
  -27.3629  -12.5646   17.7943 H   0  0  0  0  0  0
  -27.6799  -14.2387   19.5262 H   0  0  0  0  0  0
  -28.7185  -12.0075   21.3470 H   0  0  0  0  0  0
  -28.4641  -13.6520   21.8497 H   0  0  0  0  0  0
  -25.2778   -9.5653   22.4759 H   0  0  0  0  0  0
  -24.0006   -7.4612   22.7454 H   0  0  0  0  0  0
  -21.0863   -8.8786   19.8938 H   0  0  0  0  0  0
  -22.3734  -10.9678   19.6164 H   0  0  0  0  0  0
  -21.2001   -7.6148   23.9722 H   0  0  0  0  0  0
  -21.1471   -6.0516   25.9074 H   0  0  0  0  0  0
  -22.0606   -2.7618   23.2847 H   0  0  0  0  0  0
  -22.4152  -11.9853   22.4766 H   0  0  0  0  0  0
  -21.1136  -13.1209   22.2627 H   0  0  0  0  0  0
  -24.6652  -15.8383   20.5162 H   0  0  0  0  0  0
  -26.2718  -15.6208   20.0492 H   0  0  0  0  0  0
  -26.7153  -32.5436   23.1043 H   0  0  0  0  0  0
  -25.0141  -33.9748   25.0420 H   0  0  0  0  0  0
  -22.7167  -31.2982   21.3924 H   0  0  0  0  0  0
  -23.3763  -35.9601   23.3329 H   0  0  0  0  0  0
  -24.3581  -36.8893   22.2052 H   0  0  0  0  0  0
  -23.7250  -37.6463   23.6663 H   0  0  0  0  0  0
  -26.0998  -31.5525   20.6067 H   0  0  0  0  0  0
  -26.8426  -30.8294   22.0027 H   0  0  0  0  0  0
  -28.1270  -28.9951   21.1582 H   0  0  0  0  0  0
  -25.9760  -25.9124   19.0328 H   0  0  0  0  0  0
  -23.9738  -27.2793   19.0445 H   0  0  0  0  0  0
  -23.7493  -30.5772   19.4019 H   0  0  0  0  0  0
  -22.7594  -29.2322   19.8627 H   0  0  0  0  0  0
  -25.1306  -36.1890   25.0808 H   0  0  0  0  0  0
  -20.9961  -28.3252   24.1421 H   0  0  0  0  0  0
  -20.5717  -26.2279   23.3622 H   0  0  0  0  0  0
  -21.6644  -26.7459   22.1185 H   0  0  0  0  0  0
  -19.6939  -25.6297   21.1244 H   0  0  0  0  0  0
  -19.6725  -27.3210   20.6782 H   0  0  0  0  0  0
  -17.4213  -26.6726   21.3989 H   0  0  0  0  0  0
  -18.0280  -26.0099   22.9009 H   0  0  0  0  0  0
  -19.7959  -30.7304   24.2178 H   0  0  0  0  0  0
  -17.5038  -31.6268   24.5180 H   0  0  0  0  0  0
  -15.5361  -30.2963   23.7730 H   0  0  0  0  0  0
  -15.8687  -28.0864   22.7008 H   0  0  0  0  0  0
  -24.6018  -30.6945   25.7815 H   0  0  0  0  0  0
  -24.8791  -32.2868   26.4722 H   0  0  0  0  0  0
  -25.8078  -30.9068   27.0292 H   0  0  0  0  0  0
  -26.2946  -29.6727   24.1267 H   0  0  0  0  0  0
  -27.4141  -29.7322   25.4687 H   0  0  0  0  0  0
  -27.8763  -30.4322   23.9355 H   0  0  0  0  0  0
  -27.2754  -33.3695   26.1917 H   0  0  0  0  0  0
  -28.3904  -32.6804   25.0245 H   0  0  0  0  0  0
  -28.0723  -31.8508   26.5413 H   0  0  0  0  0  0
  -28.2582  -38.0067   24.7524 H   0  0  0  0  0  0
  -28.1058  -36.2595   24.6269 H   0  0  0  0  0  0
  -27.2290  -37.1410   25.8866 H   0  0  0  0  0  0
  -20.9387  -29.8719   21.6868 H   0  0  0  0  0  0
  -26.0166  -38.2817   24.1456 H   0  0  0  0  0  0
  -28.6802  -22.4246   21.4903 H   0  0  0  0  0  0
  -30.3631  -22.3569   21.1088 H   0  0  0  0  0  0
  -30.4085  -24.6271   20.2681 H   0  0  0  0  0  0
  -29.5600  -24.6460   21.7829 H   0  0  0  0  0  0
  -28.4465  -25.2350   17.9312 H   0  0  0  0  0  0
  -27.1341  -24.2130   18.4412 H   0  0  0  0  0  0
  -30.7776  -19.7468   15.0811 H   0  0  0  0  0  0
  -31.2264  -18.0803   15.3345 H   0  0  0  0  0  0
  -28.9363  -17.4193   15.8674 H   0  0  0  0  0  0
  -29.0039  -18.2037   14.3045 H   0  0  0  0  0  0
  -27.5608  -20.4237   17.5327 H   0  0  0  0  0  0
  -28.0216  -18.7835   17.8182 H   0  0  0  0  0  0
  -28.0035  -21.7092   19.4869 H   0  0  0  0  0  0
  -27.4031  -24.7345   20.6237 H   0  0  0  0  0  0
  -30.0491  -23.4406   18.0707 H   0  0  0  0  0  0
  -29.9798  -20.9961   16.9705 H   0  0  0  0  0  0
  -33.7310  -20.8642   17.1844 H   0  0  0  0  0  0
  -32.1379  -21.5618   17.0400 H   0  0  0  0  0  0
  -32.8102  -20.6039   15.7155 H   0  0  0  0  0  0
  -33.9883  -18.2328   17.6554 H   0  0  0  0  0  0
  -33.2753  -18.0845   16.0663 H   0  0  0  0  0  0
  -32.5586  -17.2415   17.4426 H   0  0  0  0  0  0
  -28.2942  -22.9100   15.0220 H   0  0  0  0  0  0
  -29.5249  -23.9105   15.7903 H   0  0  0  0  0  0
  -27.8017  -24.2994   15.9587 H   0  0  0  0  0  0
  -29.1348  -17.3762   21.6997 H   0  0  0  0  0  0
  -30.8664  -17.2284   21.7027 H   0  0  0  0  0  0
  -29.3543  -17.6875   19.0815 H   0  0  0  0  0  0
  -31.0313  -17.9855   19.4376 H   0  0  0  0  0  0
  -30.9272  -20.9686   19.2106 H   0  0  0  0  0  0
  -32.2494  -19.5209   18.5167 H   0  0  0  0  0  0
  -28.8615  -15.2920   21.0263 H   0  0  0  0  0  0
  -27.2172  -19.0351   15.6478 H   0  0  0  0  0  0
  -28.2672  -20.2247   15.2868 H   0  0  0  0  0  0
  -30.2746  -19.8013   20.9309 H   0  0  0  0  0  0
  -28.7529  -19.5660   20.4555 H   0  0  0  0  0  0
  1 25  1  0  0  0
  1 30  2  0  0  0
  1 89  1  0  0  0
  2  3  1  0  0  0
  2 25  1  0  0  0
  2 93  1  0  0  0
  2 94  1  0  0  0
  3  4  1  0  0  0
  3 95  1  0  0  0
  3 96  1  0  0  0
  4  5  1  0  0  0
  4 97  1  0  0  0
  4 98  1  0  0  0
  5  6  1  0  0  0
  5 26  1  0  0  0
  5 99  1  0  0  0
  6 25  1  0  0  0
  6100  1  0  0  0
  6101  1  0  0  0
  7  8  2  0  0  0
  7 26  1  0  0  0
  7 29  1  0  0  0
  8  9  1  0  0  0
  8 22  1  0  0  0
  9 10  1  0  0  0
  9 27  2  0  0  0
 10 11  2  0  0  0
 10 15  1  0  0  0
 11 12  1  0  0  0
 11102  1  0  0  0
 12 13  2  0  0  0
 12103  1  0  0  0
 13 14  1  0  0  0
 13 31  1  0  0  0
 14 15  2  0  0  0
 14104  1  0  0  0
 15105  1  0  0  0
 16 17  2  0  0  0
 16 21  1  0  0  0
 16 31  1  0  0  0
 17 18  1  0  0  0
 17106  1  0  0  0
 18 19  2  0  0  0
 18107  1  0  0  0
 19 20  1  0  0  0
 19 24  1  0  0  0
 20 21  2  0  0  0
 20108  1  0  0  0
 21 23  1  0  0  0
 22 28  1  0  0  0
 22 32  2  0  0  0
 26 27  1  0  0  0
 28109  1  0  0  0
 28110  1  0  0  0
 29111  1  0  0  0
 29112  1  0  0  0
 33 34  1  0  0  0
 33 66  1  0  0  0
 33 70  2  0  0  0
 34 36  1  0  0  0
 34 59  1  0  0  0
 34113  1  0  0  0
 35 44  2  0  0  0
 35 45  1  0  0  0
 35 68  1  0  0  0
 36 56  1  0  0  0
 36114  1  0  0  0
 37 39  1  0  0  0
 37 47  1  0  0  0
 37 66  1  0  0  0
 37115  1  0  0  0
 38 43  2  0  0  0
 38 46  1  0  0  0
 38 47  1  0  0  0
 39 64  1  0  0  0
 39 67  2  0  0  0
 40 52  1  0  0  0
 40 53  2  0  0  0
 40 58  1  0  0  0
 41116  1  0  0  0
 41117  1  0  0  0
 41118  1  0  0  0
 41 48  1  0  0  0
 42 43  1  0  0  0
 42 66  1  0  0  0
 42119  1  0  0  0
 42120  1  0  0  0
 43 44  1  0  0  0
 44121  1  0  0  0
 45 46  2  0  0  0
 45122  1  0  0  0
 46123  1  0  0  0
 47124  1  0  0  0
 47125  1  0  0  0
 48 56  1  0  0  0
 48 65  1  0  0  0
 48126  1  0  0  0
 49 50  1  0  0  0
 49 53  1  0  0  0
 49 64  1  0  0  0
 49127  1  0  0  0
 50 51  1  0  0  0
 50128  1  0  0  0
 50129  1  0  0  0
 51 52  1  0  0  0
 51130  1  0  0  0
 51131  1  0  0  0
 52132  1  0  0  0
 52133  1  0  0  0
 53 54  1  0  0  0
 54 55  2  0  0  0
 54134  1  0  0  0
 55 57  1  0  0  0
 55135  1  0  0  0
 56 69  2  0  0  0
 57 58  2  0  0  0
 57136  1  0  0  0
 58137  1  0  0  0
 59 60  1  0  0  0
 59 61  1  0  0  0
 59 62  1  0  0  0
 60138  1  0  0  0
 60139  1  0  0  0
 60140  1  0  0  0
 61141  1  0  0  0
 61142  1  0  0  0
 61143  1  0  0  0
 62144  1  0  0  0
 62145  1  0  0  0
 62146  1  0  0  0
 63 65  1  0  0  0
 63147  1  0  0  0
 63148  1  0  0  0
 63149  1  0  0  0
 64150  1  0  0  0
 65151  1  0  0  0
 68 78  1  0  0  0
 71 72  1  0  0  0
 71152  1  0  0  0
 71153  1  0  0  0
 71 77  1  0  0  0
 72 78  1  0  0  0
 72154  1  0  0  0
 72155  1  0  0  0
 73 78  1  0  0  0
 73 79  1  0  0  0
 73156  1  0  0  0
 73157  1  0  0  0
 74 75  1  0  0  0
 74 88  1  0  0  0
 74158  1  0  0  0
 74159  1  0  0  0
 75 90  1  0  0  0
 75160  1  0  0  0
 75161  1  0  0  0
 76 90  1  0  0  0
 76162  1  0  0  0
 76163  1  0  0  0
 76 80  1  0  0  0
 77 79  1  0  0  0
 77 86  1  0  0  0
 77164  1  0  0  0
 78165  1  0  0  0
 79 92  1  0  0  0
 79166  1  0  0  0
 80 86  1  0  0  0
 80 88  1  0  0  0
 80167  1  0  0  0
 81168  1  0  0  0
 81169  1  0  0  0
 81170  1  0  0  0
 81 87  1  0  0  0
 82 87  1  0  0  0
 82171  1  0  0  0
 82172  1  0  0  0
 82173  1  0  0  0
 83 92  1  0  0  0
 83174  1  0  0  0
 83175  1  0  0  0
 83176  1  0  0  0
 84 85  1  0  0  0
 84 89  1  0  0  0
 84177  1  0  0  0
 84178  1  0  0  0
 85 91  1  0  0  0
 85179  1  0  0  0
 85180  1  0  0  0
 86 91  1  0  0  0
 86181  1  0  0  0
 87 88  1  0  0  0
 87182  1  0  0  0
 89183  1  0  0  0
 90184  1  0  0  0
 90185  1  0  0  0
 91186  1  0  0  0
 91187  1  0  0  0
M  CHG  2  90   1  91   1
M  ISO  4   1 100  68 101  78 101  89 100
M  END
> <chiral flag>
0

> <version>
0

> <s_m_source_file>
/data/baiqing/PycharmProjects/Reinvent-master-3.2/result/LINK_invent/BTK/process_docking_weight1_custom_sum_contain_oxygen_bond_distance_aromatic_linkinvent_7_9_3/rearranged_h_0134.sdf

> <i_m_source_file_index>
56

> <r_mmod_Potential_Energy-OPLS-2005>
-218.410980224609

> <r_mmod_Stretch_Energy-OPLS-2005>
102.281929016113

> <r_mmod_Bend_Energy-OPLS-2005>
187.850189208984

> <r_mmod_Torsional_Energy-OPLS-2005>
290.083099365234

> <r_mmod_Improper_Torsional_Energy-OPLS-2005>
4.3383264541626

> <r_mmod_Van_der_Waal_Energy-OPLS-2005>
153.957916259766

> <r_mmod_Electrostatic_Energy-OPLS-2005>
-37.2230796813965

> <r_mmod_Solvation_Energy-OPLS-2005>
-960.147094726562

> <b_mmod_Minimization_Converged-OPLS-2005>
0

> <r_mmod_RMS_Derivative-OPLS-2005>
3.27930235862732

$$$$
56
                    3D
 Structure written by MMmdl.
152160  0  0  1  0            999 V2000
  -30.5721  -14.9670   20.3818 C   0  0  0  0  0  0
  -30.4383  -12.5979   19.4937 C   0  0  0  0  0  0
  -29.5285  -12.5249   18.2479 C   0  0  0  0  0  0
  -28.0630  -12.3063   18.6650 C   0  0  0  0  0  0
  -27.6287  -13.2521   19.8178 C   0  0  2  0  0  0
  -28.6701  -13.3233   20.9536 C   0  0  0  0  0  0
  -25.2479  -13.8219   20.5630 C   0  0  0  0  0  0
  -24.1808  -13.0440   20.9183 C   0  0  0  0  0  0
  -24.6430  -11.6928   20.8714 C   0  0  0  0  0  0
  -23.9119  -10.4291   21.0373 C   0  0  0  0  0  0
  -24.3674   -9.4206   21.9143 C   0  0  0  0  0  0
  -23.6328   -8.2258   22.0747 C   0  0  0  0  0  0
  -22.4305   -8.0288   21.3548 C   0  0  0  0  0  0
  -21.9946   -9.0255   20.4633 C   0  0  0  0  0  0
  -22.7294  -10.2119   20.3023 C   0  0  0  0  0  0
  -21.6856   -6.0740   22.5274 C   0  0  0  0  0  0
  -21.4012   -6.5635   23.8203 C   0  0  0  0  0  0
  -21.3670   -5.6777   24.9150 C   0  0  0  0  0  0
  -21.6059   -4.3047   24.7197 C   0  0  0  0  0  0
  -21.8820   -3.8146   23.4314 C   0  0  0  0  0  0
  -21.9189   -4.6965   22.3379 C   0  0  0  0  0  0
  -22.7820  -13.5201   21.1799 C   0  0  0  0  0  0
  -22.1647   -4.2160   21.0951 F   0  0  0  0  0  0
  -21.5654   -3.4525   25.7709 F   0  0  0  0  0  0
  -29.9468  -13.7205   20.3479 N   0  0  0  0  0  0
  -26.2898  -12.9451   20.3122 N   0  0  0  0  0  0
  -25.9362  -11.6587   20.5682 N   0  0  0  0  0  0
  -22.0449  -12.8233   22.0376 N   0  0  0  0  0  0
  -25.4147  -15.1949   20.4052 N   0  0  0  0  0  0
  -31.7928  -14.9514   20.1955 O   0  0  0  0  0  0
  -21.6652   -6.8894   21.4247 O   0  0  0  0  0  0
  -22.3507  -14.5461   20.6572 O   0  0  0  0  0  0
  -24.6460  -31.8410   23.1891 C   0  0  0  0  0  0
  -25.9231  -32.4678   23.8282 C   0  0  1  0  0  0
  -27.2173  -27.1142   20.1561 C   0  0  0  0  0  0
  -25.5978  -33.8491   24.2206 N   0  0  0  0  0  0
  -23.4507  -30.4584   21.5349 C   0  0  2  0  0  0
  -24.9016  -28.8829   20.1140 C   0  0  0  0  0  0
  -22.7580  -29.4504   22.4859 C   0  0  0  0  0  0
  -18.0297  -28.1345   22.8489 C   0  0  0  0  0  0
  -24.1500  -36.7253   23.2636 C   0  0  0  0  0  0
  -26.0083  -30.7071   21.3916 C   0  0  0  0  0  0
  -26.0799  -29.3146   20.7375 C   0  0  0  0  0  0
  -27.2387  -28.4477   20.7398 C   0  0  0  0  0  0
  -26.0147  -26.7941   19.4864 C   0  0  0  0  0  0
  -24.8838  -27.6375   19.4714 C   0  0  0  0  0  0
  -23.6792  -29.7885   20.1542 C   0  0  0  0  0  0
  -25.4128  -36.3034   24.0314 C   0  0  1  0  0  0
  -20.5923  -28.3676   23.1243 C   0  0  2  0  0  0
  -20.6773  -26.9374   22.5400 C   0  0  0  0  0  0
  -19.5744  -26.6349   21.5208 C   0  0  0  0  0  0
  -18.1931  -26.7888   22.1618 C   0  0  0  0  0  0
  -19.1554  -28.8834   23.2856 C   0  0  0  0  0  0
  -18.9461  -30.1428   23.8875 C   0  0  0  0  0  0
  -17.6451  -30.6560   24.0531 C   0  0  0  0  0  0
  -25.9076  -34.9398   23.5067 C   0  0  0  0  0  0
  -16.5345  -29.9039   23.6320 C   0  0  0  0  0  0
  -16.7271  -28.6445   23.0377 C   0  0  0  0  0  0
  -26.4550  -31.6541   25.0719 C   0  0  0  0  0  0
  -25.3734  -31.3718   26.1415 C   0  0  0  0  0  0
  -27.0418  -30.2939   24.6293 C   0  0  0  0  0  0
  -27.6095  -32.4277   25.7505 C   0  0  0  0  0  0
  -27.5582  -37.1783   24.8461 C   0  0  0  0  0  0
  -21.4272  -29.3015   22.3639 N   0  0  0  0  0  0
  -26.4290  -37.3744   23.9408 N   0  0  0  0  0  0
  -24.7217  -31.0243   22.0940 N   0  0  0  0  0  0
  -23.4213  -28.8030   23.2998 O   0  0  0  0  0  0
  -28.2725  -26.1245   20.1987 O   0  0  0  0  0  0
  -26.5652  -34.8894   22.4643 O   0  0  0  0  0  0
  -23.5569  -32.1291   23.7095 O   0  0  0  0  0  0
  -30.6282  -20.4916   19.2893 C   0  0  0  0  0  0
  -31.4150  -19.4047   18.8607 C   0  0  0  0  0  0
  -29.2687  -18.8753   20.4931 C   0  0  0  0  0  0
  -29.5017  -20.3012   20.1063 C   0  0  0  0  0  0
  -31.1723  -18.0623   19.2385 C   0  0  0  0  0  0
  -30.0950  -17.6884   20.1000 C   0  0  0  0  0  0
  -28.5981  -21.6430   20.4384 C   0  0  0  0  0  0
  -29.0229  -23.2639   20.1696 C   0  0  0  0  0  0
  -27.9813  -24.5887   20.3241 C   0  0  0  0  0  0
  -32.0405  -17.1312   18.6838 N   0  0  0  0  0  0
  -29.8316  -16.1954   20.4481 N   0  0  0  0  0  0
  -31.4755  -12.7369   19.1862 H   0  0  0  0  0  0
  -30.4187  -11.6565   20.0443 H   0  0  0  0  0  0
  -29.8591  -11.7270   17.5824 H   0  0  0  0  0  0
  -29.6125  -13.4520   17.6787 H   0  0  0  0  0  0
  -27.9632  -11.2667   18.9787 H   0  0  0  0  0  0
  -27.4061  -12.4230   17.8028 H   0  0  0  0  0  0
  -27.5783  -14.2424   19.3672 H   0  0  0  0  0  0
  -28.7645  -12.3672   21.4683 H   0  0  0  0  0  0
  -28.3688  -14.0589   21.7010 H   0  0  0  0  0  0
  -25.2822   -9.5665   22.4693 H   0  0  0  0  0  0
  -24.0023   -7.4662   22.7486 H   0  0  0  0  0  0
  -21.0878   -8.8766   19.8953 H   0  0  0  0  0  0
  -22.3752  -10.9640   19.6122 H   0  0  0  0  0  0
  -21.1987   -7.6137   23.9706 H   0  0  0  0  0  0
  -21.1505   -6.0495   25.9059 H   0  0  0  0  0  0
  -22.0594   -2.7612   23.2786 H   0  0  0  0  0  0
  -22.4077  -12.0001   22.4945 H   0  0  0  0  0  0
  -21.1017  -13.1214   22.2417 H   0  0  0  0  0  0
  -24.6440  -15.8443   20.5073 H   0  0  0  0  0  0
  -26.2585  -15.6365   20.0624 H   0  0  0  0  0  0
  -26.7284  -32.5279   23.0994 H   0  0  0  0  0  0
  -25.0134  -33.9603   25.0363 H   0  0  0  0  0  0
  -22.7542  -31.2845   21.3803 H   0  0  0  0  0  0
  -23.3770  -35.9577   23.3282 H   0  0  0  0  0  0
  -24.3574  -36.8902   22.2049 H   0  0  0  0  0  0
  -23.7240  -37.6442   23.6676 H   0  0  0  0  0  0
  -26.1629  -31.4558   20.6145 H   0  0  0  0  0  0
  -26.8797  -30.7617   22.0307 H   0  0  0  0  0  0
  -28.1349  -28.7710   21.2491 H   0  0  0  0  0  0
  -25.9149  -25.8558   18.9653 H   0  0  0  0  0  0
  -23.9912  -27.3091   18.9581 H   0  0  0  0  0  0
  -23.8181  -30.5632   19.3997 H   0  0  0  0  0  0
  -22.7946  -29.2309   19.8423 H   0  0  0  0  0  0
  -25.1315  -36.1866   25.0800 H   0  0  0  0  0  0
  -20.9992  -28.3225   24.1375 H   0  0  0  0  0  0
  -20.5645  -26.2264   23.3609 H   0  0  0  0  0  0
  -21.6627  -26.7359   22.1207 H   0  0  0  0  0  0
  -19.6900  -25.6259   21.1236 H   0  0  0  0  0  0
  -19.6688  -27.3155   20.6738 H   0  0  0  0  0  0
  -17.4202  -26.6643   21.4020 H   0  0  0  0  0  0
  -18.0320  -26.0008   22.9000 H   0  0  0  0  0  0
  -19.7928  -30.7255   24.2235 H   0  0  0  0  0  0
  -17.4992  -31.6250   24.5113 H   0  0  0  0  0  0
  -15.5337  -30.2926   23.7649 H   0  0  0  0  0  0
  -15.8672  -28.0737   22.7131 H   0  0  0  0  0  0
  -24.5927  -30.7051   25.7739 H   0  0  0  0  0  0
  -24.8906  -32.2891   26.4796 H   0  0  0  0  0  0
  -25.8020  -30.8925   27.0229 H   0  0  0  0  0  0
  -26.3038  -29.6645   24.1305 H   0  0  0  0  0  0
  -27.4054  -29.7246   25.4859 H   0  0  0  0  0  0
  -27.8940  -30.4191   23.9606 H   0  0  0  0  0  0
  -27.2726  -33.3603   26.2046 H   0  0  0  0  0  0
  -28.3945  -32.6778   25.0353 H   0  0  0  0  0  0
  -28.0721  -31.8405   26.5452 H   0  0  0  0  0  0
  -28.2587  -38.0094   24.7530 H   0  0  0  0  0  0
  -28.1099  -36.2630   24.6276 H   0  0  0  0  0  0
  -27.2297  -37.1403   25.8859 H   0  0  0  0  0  0
  -20.9461  -29.8764   21.6873 H   0  0  0  0  0  0
  -26.0169  -38.2818   24.1409 H   0  0  0  0  0  0
  -30.8887  -21.4847   18.9509 H   0  0  0  0  0  0
  -32.2356  -19.6267   18.1900 H   0  0  0  0  0  0
  -28.4053  -18.6939   21.1163 H   0  0  0  0  0  0
  -28.3098  -21.5546   21.4867 H   0  0  0  0  0  0
  -27.6738  -21.4803   19.8807 H   0  0  0  0  0  0
  -29.4073  -23.3161   19.1520 H   0  0  0  0  0  0
  -29.8888  -23.4641   20.7991 H   0  0  0  0  0  0
  -27.5343  -24.4828   21.3125 H   0  0  0  0  0  0
  -27.1723  -24.3493   19.6390 H   0  0  0  0  0  0
  -32.9610  -17.4727   18.4310 H   0  0  0  0  0  0
  -32.1036  -16.2507   19.2093 H   0  0  0  0  0  0
  -28.8727  -16.0248   20.7076 H   0  0  0  0  0  0
  1 25  1  0  0  0
  1 30  2  0  0  0
  1 81  1  0  0  0
  2  3  1  0  0  0
  2 25  1  0  0  0
  2 82  1  0  0  0
  2 83  1  0  0  0
  3  4  1  0  0  0
  3 84  1  0  0  0
  3 85  1  0  0  0
  4  5  1  0  0  0
  4 86  1  0  0  0
  4 87  1  0  0  0
  5  6  1  0  0  0
  5 26  1  0  0  0
  5 88  1  0  0  0
  6 25  1  0  0  0
  6 89  1  0  0  0
  6 90  1  0  0  0
  7  8  2  0  0  0
  7 26  1  0  0  0
  7 29  1  0  0  0
  8  9  1  0  0  0
  8 22  1  0  0  0
  9 10  1  0  0  0
  9 27  2  0  0  0
 10 11  2  0  0  0
 10 15  1  0  0  0
 11 12  1  0  0  0
 11 91  1  0  0  0
 12 13  2  0  0  0
 12 92  1  0  0  0
 13 14  1  0  0  0
 13 31  1  0  0  0
 14 15  2  0  0  0
 14 93  1  0  0  0
 15 94  1  0  0  0
 16 17  2  0  0  0
 16 21  1  0  0  0
 16 31  1  0  0  0
 17 18  1  0  0  0
 17 95  1  0  0  0
 18 19  2  0  0  0
 18 96  1  0  0  0
 19 20  1  0  0  0
 19 24  1  0  0  0
 20 21  2  0  0  0
 20 97  1  0  0  0
 21 23  1  0  0  0
 22 28  1  0  0  0
 22 32  2  0  0  0
 26 27  1  0  0  0
 28 98  1  0  0  0
 28 99  1  0  0  0
 29100  1  0  0  0
 29101  1  0  0  0
 33 34  1  0  0  0
 33 66  1  0  0  0
 33 70  2  0  0  0
 34 36  1  0  0  0
 34 59  1  0  0  0
 34102  1  0  0  0
 35 44  2  0  0  0
 35 45  1  0  0  0
 35 68  1  0  0  0
 36 56  1  0  0  0
 36103  1  0  0  0
 37 39  1  0  0  0
 37 47  1  0  0  0
 37 66  1  0  0  0
 37104  1  0  0  0
 38 43  2  0  0  0
 38 46  1  0  0  0
 38 47  1  0  0  0
 39 64  1  0  0  0
 39 67  2  0  0  0
 40 52  1  0  0  0
 40 53  2  0  0  0
 40 58  1  0  0  0
 41105  1  0  0  0
 41106  1  0  0  0
 41107  1  0  0  0
 41 48  1  0  0  0
 42 43  1  0  0  0
 42 66  1  0  0  0
 42108  1  0  0  0
 42109  1  0  0  0
 43 44  1  0  0  0
 44110  1  0  0  0
 45 46  2  0  0  0
 45111  1  0  0  0
 46112  1  0  0  0
 47113  1  0  0  0
 47114  1  0  0  0
 48 56  1  0  0  0
 48 65  1  0  0  0
 48115  1  0  0  0
 49 50  1  0  0  0
 49 53  1  0  0  0
 49 64  1  0  0  0
 49116  1  0  0  0
 50 51  1  0  0  0
 50117  1  0  0  0
 50118  1  0  0  0
 51 52  1  0  0  0
 51119  1  0  0  0
 51120  1  0  0  0
 52121  1  0  0  0
 52122  1  0  0  0
 53 54  1  0  0  0
 54 55  2  0  0  0
 54123  1  0  0  0
 55 57  1  0  0  0
 55124  1  0  0  0
 56 69  2  0  0  0
 57 58  2  0  0  0
 57125  1  0  0  0
 58126  1  0  0  0
 59 60  1  0  0  0
 59 61  1  0  0  0
 59 62  1  0  0  0
 60127  1  0  0  0
 60128  1  0  0  0
 60129  1  0  0  0
 61130  1  0  0  0
 61131  1  0  0  0
 61132  1  0  0  0
 62133  1  0  0  0
 62134  1  0  0  0
 62135  1  0  0  0
 63 65  1  0  0  0
 63136  1  0  0  0
 63137  1  0  0  0
 63138  1  0  0  0
 64139  1  0  0  0
 65140  1  0  0  0
 68 79  1  0  0  0
 71 72  2  0  0  0
 71 74  1  0  0  0
 71141  1  0  0  0
 72 75  1  0  0  0
 72142  1  0  0  0
 73 74  2  0  0  0
 73 76  1  0  0  0
 73143  1  0  0  0
 74 77  1  0  0  0
 75 76  2  0  0  0
 75 80  1  0  0  0
 76 81  1  0  0  0
 77 78  1  0  0  0
 77144  1  0  0  0
 77145  1  0  0  0
 78 79  1  0  0  0
 78146  1  0  0  0
 78147  1  0  0  0
 79148  1  0  0  0
 79149  1  0  0  0
 80150  1  0  0  0
 80151  1  0  0  0
 81152  1  0  0  0
M  ISO  4   1 100  68 101  79 101  81 100
M  END
> <chiral flag>
0

> <version>
0

> <s_m_source_file>
/data/baiqing/PycharmProjects/Reinvent-master-3.2/result/LINK_invent/BTK/process_docking_weight1_custom_sum_contain_oxygen_bond_distance_aromatic_linkinvent_7_9_3/rearranged_h_0134.sdf

> <i_m_source_file_index>
57

> <r_mmod_Potential_Energy-OPLS-2005>
430.958679199219

> <r_mmod_Stretch_Energy-OPLS-2005>
281.782135009766

> <r_mmod_Bend_Energy-OPLS-2005>
255.941497802734

> <r_mmod_Torsional_Energy-OPLS-2005>
231.22900390625

> <r_mmod_Improper_Torsional_Energy-OPLS-2005>
8.68139266967773

> <r_mmod_Van_der_Waal_Energy-OPLS-2005>
148.091049194336

> <r_mmod_Electrostatic_Energy-OPLS-2005>
-495.7939453125

> <r_mmod_Solvation_Energy-OPLS-2005>
-207.043228149414

> <b_mmod_Minimization_Converged-OPLS-2005>
0

> <r_mmod_RMS_Derivative-OPLS-2005>
3.64194679260254

$$$$
57
                    3D
 Structure written by MMmdl.
158166  0  0  1  0            999 V2000
  -30.6186  -14.6802   20.4886 C   0  0  0  0  0  0
  -30.4362  -12.4202   19.4503 C   0  0  0  0  0  0
  -29.5044  -12.5012   18.2216 C   0  0  0  0  0  0
  -28.0301  -12.3313   18.6400 C   0  0  0  0  0  0
  -27.6459  -13.2200   19.8527 C   0  0  2  0  0  0
  -28.6927  -13.1125   20.9822 C   0  0  0  0  0  0
  -25.2534  -13.8175   20.5685 C   0  0  0  0  0  0
  -24.1815  -13.0437   20.9208 C   0  0  0  0  0  0
  -24.6389  -11.6908   20.8750 C   0  0  0  0  0  0
  -23.9065  -10.4291   21.0411 C   0  0  0  0  0  0
  -24.3618   -9.4203   21.9187 C   0  0  0  0  0  0
  -23.6293   -8.2239   22.0753 C   0  0  0  0  0  0
  -22.4275   -8.0279   21.3543 C   0  0  0  0  0  0
  -21.9912   -9.0252   20.4645 C   0  0  0  0  0  0
  -22.7241  -10.2132   20.3057 C   0  0  0  0  0  0
  -21.6851   -6.0735   22.5280 C   0  0  0  0  0  0
  -21.4011   -6.5639   23.8213 C   0  0  0  0  0  0
  -21.3660   -5.6792   24.9177 C   0  0  0  0  0  0
  -21.6045   -4.3056   24.7227 C   0  0  0  0  0  0
  -21.8820   -3.8147   23.4347 C   0  0  0  0  0  0
  -21.9191   -4.6963   22.3403 C   0  0  0  0  0  0
  -22.7837  -13.5221   21.1873 C   0  0  0  0  0  0
  -22.1661   -4.2150   21.0980 F   0  0  0  0  0  0
  -21.5630   -3.4538   25.7738 F   0  0  0  0  0  0
  -29.9974  -13.4601   20.4024 N   0  0  0  0  0  0
  -26.2954  -12.9360   20.3286 N   0  0  0  0  0  0
  -25.9316  -11.6515   20.5755 N   0  0  0  0  0  0
  -22.0485  -12.8203   22.0425 N   0  0  0  0  0  0
  -25.4231  -15.1899   20.4087 N   0  0  0  0  0  0
  -31.8059  -14.8121   20.1803 O   0  0  0  0  0  0
  -21.6638   -6.8876   21.4241 O   0  0  0  0  0  0
  -22.3523  -14.5533   20.6729 O   0  0  0  0  0  0
  -24.6276  -31.8582   23.2000 C   0  0  0  0  0  0
  -25.9117  -32.4775   23.8337 C   0  0  1  0  0  0
  -27.2224  -27.3048   20.1253 C   0  0  0  0  0  0
  -25.5929  -33.8575   24.2264 N   0  0  0  0  0  0
  -23.4218  -30.4801   21.5441 C   0  0  2  0  0  0
  -24.8685  -28.9289   20.1151 C   0  0  0  0  0  0
  -22.7478  -29.4615   22.4941 C   0  0  0  0  0  0
  -18.0287  -28.1383   22.8488 C   0  0  0  0  0  0
  -24.1485  -36.7285   23.2638 C   0  0  0  0  0  0
  -25.9636  -30.7861   21.3708 C   0  0  0  0  0  0
  -26.0394  -29.4111   20.7148 C   0  0  0  0  0  0
  -27.2238  -28.6135   20.7027 C   0  0  0  0  0  0
  -26.0284  -26.8714   19.5128 C   0  0  0  0  0  0
  -24.8652  -27.6647   19.5040 C   0  0  0  0  0  0
  -23.6369  -29.8108   20.1612 C   0  0  0  0  0  0
  -25.4113  -36.3078   24.0325 C   0  0  1  0  0  0
  -20.5885  -28.3687   23.1286 C   0  0  2  0  0  0
  -20.6773  -26.9409   22.5416 C   0  0  0  0  0  0
  -19.5753  -26.6381   21.5213 C   0  0  0  0  0  0
  -18.1929  -26.7930   22.1616 C   0  0  0  0  0  0
  -19.1539  -28.8852   23.2881 C   0  0  0  0  0  0
  -18.9461  -30.1455   23.8895 C   0  0  0  0  0  0
  -17.6462  -30.6587   24.0563 C   0  0  0  0  0  0
  -25.9051  -34.9450   23.5092 C   0  0  0  0  0  0
  -16.5352  -29.9083   23.6334 C   0  0  0  0  0  0
  -16.7274  -28.6500   23.0356 C   0  0  0  0  0  0
  -26.4490  -31.6598   25.0720 C   0  0  0  0  0  0
  -25.3714  -31.3757   26.1445 C   0  0  0  0  0  0
  -27.0329  -30.3015   24.6193 C   0  0  0  0  0  0
  -27.6047  -32.4339   25.7493 C   0  0  0  0  0  0
  -27.5578  -37.1799   24.8464 C   0  0  0  0  0  0
  -21.4192  -29.3040   22.3682 N   0  0  0  0  0  0
  -26.4290  -37.3775   23.9407 N   0  0  0  0  0  0
  -24.6900  -31.0583   22.0951 N   0  0  0  0  0  0
  -23.4196  -28.8153   23.3024 O   0  0  0  0  0  0
  -28.3336  -26.4471   20.1254 O   0  0  0  0  0  0
  -26.5620  -34.8920   22.4658 O   0  0  0  0  0  0
  -23.5437  -32.1382   23.7324 O   0  0  0  0  0  0
  -27.7136  -23.5105   18.6798 C   0  0  0  0  0  0
  -26.9818  -22.1180   20.4729 C   0  0  0  0  0  0
  -28.6328  -23.7469   19.8796 C   0  0  2  0  0  0
  -28.4937  -22.3326   20.6179 C   0  0  2  0  0  0
  -28.1634  -25.0721   20.6749 C   0  0  0  0  0  0
  -29.5255  -18.4212   20.2116 C   0  0  0  0  0  0
  -30.1775  -17.2155   21.0541 C   0  0  0  0  0  0
  -29.4370  -19.8797   20.8974 C   0  0  0  0  0  0
  -26.5993  -22.7043   19.1838 N   0  0  0  0  0  0
  -29.8211  -15.7725   20.7467 N   0  0  0  0  0  0
  -29.1981  -21.1111   20.0195 N   0  3  0  0  0  0
  -31.4755  -12.5528   19.1449 H   0  0  0  0  0  0
  -30.3823  -11.4339   19.9139 H   0  0  0  0  0  0
  -29.7757  -11.7378   17.4910 H   0  0  0  0  0  0
  -29.6355  -13.4626   17.7223 H   0  0  0  0  0  0
  -27.8801  -11.2809   18.8922 H   0  0  0  0  0  0
  -27.3706  -12.5369   17.7961 H   0  0  0  0  0  0
  -27.6519  -14.2476   19.4893 H   0  0  0  0  0  0
  -28.7180  -12.1021   21.3927 H   0  0  0  0  0  0
  -28.4376  -13.7701   21.8147 H   0  0  0  0  0  0
  -25.2762   -9.5678   22.4761 H   0  0  0  0  0  0
  -24.0005   -7.4626   22.7468 H   0  0  0  0  0  0
  -21.0846   -8.8771   19.8946 H   0  0  0  0  0  0
  -22.3702  -10.9672   19.6166 H   0  0  0  0  0  0
  -21.2003   -7.6147   23.9718 H   0  0  0  0  0  0
  -21.1482   -6.0521   25.9078 H   0  0  0  0  0  0
  -22.0598   -2.7609   23.2847 H   0  0  0  0  0  0
  -22.4100  -11.9851   22.4788 H   0  0  0  0  0  0
  -21.1104  -13.1223   22.2648 H   0  0  0  0  0  0
  -24.6517  -15.8403   20.5120 H   0  0  0  0  0  0
  -26.2628  -15.6288   20.0541 H   0  0  0  0  0  0
  -26.7186  -32.5442   23.1088 H   0  0  0  0  0  0
  -25.0104  -33.9716   25.0430 H   0  0  0  0  0  0
  -22.7165  -31.3008   21.3985 H   0  0  0  0  0  0
  -23.3747  -35.9618   23.3312 H   0  0  0  0  0  0
  -24.3572  -36.8895   22.2050 H   0  0  0  0  0  0
  -23.7241  -37.6490   23.6657 H   0  0  0  0  0  0
  -26.0952  -31.5476   20.6009 H   0  0  0  0  0  0
  -26.8431  -30.8367   22.0010 H   0  0  0  0  0  0
  -28.1265  -28.9825   21.1688 H   0  0  0  0  0  0
  -25.9833  -25.8973   19.0494 H   0  0  0  0  0  0
  -23.9664  -27.2869   19.0359 H   0  0  0  0  0  0
  -23.7559  -30.5845   19.4018 H   0  0  0  0  0  0
  -22.7565  -29.2392   19.8618 H   0  0  0  0  0  0
  -25.1296  -36.1925   25.0818 H   0  0  0  0  0  0
  -20.9978  -28.3262   24.1406 H   0  0  0  0  0  0
  -20.5669  -26.2296   23.3615 H   0  0  0  0  0  0
  -21.6643  -26.7434   22.1214 H   0  0  0  0  0  0
  -19.6913  -25.6290   21.1247 H   0  0  0  0  0  0
  -19.6697  -27.3188   20.6739 H   0  0  0  0  0  0
  -17.4205  -26.6693   21.4009 H   0  0  0  0  0  0
  -18.0313  -26.0065   22.9002 H   0  0  0  0  0  0
  -19.7938  -30.7272   24.2263 H   0  0  0  0  0  0
  -17.5017  -31.6270   24.5160 H   0  0  0  0  0  0
  -15.5354  -30.2983   23.7665 H   0  0  0  0  0  0
  -15.8673  -28.0820   22.7074 H   0  0  0  0  0  0
  -24.5929  -30.7045   25.7803 H   0  0  0  0  0  0
  -24.8849  -32.2922   26.4795 H   0  0  0  0  0  0
  -25.8038  -30.9024   27.0271 H   0  0  0  0  0  0
  -26.2906  -29.6776   24.1201 H   0  0  0  0  0  0
  -27.3994  -29.7272   25.4713 H   0  0  0  0  0  0
  -27.8789  -30.4287   23.9434 H   0  0  0  0  0  0
  -27.2665  -33.3666   26.2023 H   0  0  0  0  0  0
  -28.3883  -32.6858   25.0334 H   0  0  0  0  0  0
  -28.0683  -31.8493   26.5451 H   0  0  0  0  0  0
  -28.2603  -38.0090   24.7508 H   0  0  0  0  0  0
  -28.1066  -36.2622   24.6294 H   0  0  0  0  0  0
  -27.2299  -37.1457   25.8869 H   0  0  0  0  0  0
  -20.9368  -29.8770   21.6898 H   0  0  0  0  0  0
  -26.0169  -38.2848   24.1412 H   0  0  0  0  0  0
  -28.2442  -22.9398   17.9152 H   0  0  0  0  0  0
  -27.3823  -24.4343   18.2051 H   0  0  0  0  0  0
  -26.4586  -22.6580   21.2640 H   0  0  0  0  0  0
  -26.6783  -21.0726   20.5550 H   0  0  0  0  0  0
  -29.6621  -23.9014   19.5546 H   0  0  0  0  0  0
  -28.7894  -22.4236   21.6642 H   0  0  0  0  0  0
  -28.7207  -25.0833   21.6119 H   0  0  0  0  0  0
  -27.1285  -24.9354   20.9914 H   0  0  0  0  0  0
  -28.5160  -18.1349   19.9158 H   0  0  0  0  0  0
  -30.0855  -18.5070   19.2799 H   0  0  0  0  0  0
  -29.8965  -17.3595   22.0984 H   0  0  0  0  0  0
  -31.2633  -17.3251   21.0408 H   0  0  0  0  0  0
  -30.3553  -20.0639   21.4560 H   0  0  0  0  0  0
  -28.6475  -19.8394   21.6488 H   0  0  0  0  0  0
  -26.3161  -22.0016   18.5023 H   0  0  0  0  0  0
  -28.8508  -15.5358   20.8908 H   0  0  0  0  0  0
  -30.0972  -21.4042   19.6730 H   0  0  0  0  0  0
  -28.6524  -20.8329   19.2208 H   0  0  0  0  0  0
  1 25  1  0  0  0
  1 30  2  0  0  0
  1 80  1  0  0  0
  2  3  1  0  0  0
  2 25  1  0  0  0
  2 82  1  0  0  0
  2 83  1  0  0  0
  3  4  1  0  0  0
  3 84  1  0  0  0
  3 85  1  0  0  0
  4  5  1  0  0  0
  4 86  1  0  0  0
  4 87  1  0  0  0
  5  6  1  0  0  0
  5 26  1  0  0  0
  5 88  1  0  0  0
  6 25  1  0  0  0
  6 89  1  0  0  0
  6 90  1  0  0  0
  7  8  2  0  0  0
  7 26  1  0  0  0
  7 29  1  0  0  0
  8  9  1  0  0  0
  8 22  1  0  0  0
  9 10  1  0  0  0
  9 27  2  0  0  0
 10 11  2  0  0  0
 10 15  1  0  0  0
 11 12  1  0  0  0
 11 91  1  0  0  0
 12 13  2  0  0  0
 12 92  1  0  0  0
 13 14  1  0  0  0
 13 31  1  0  0  0
 14 15  2  0  0  0
 14 93  1  0  0  0
 15 94  1  0  0  0
 16 17  2  0  0  0
 16 21  1  0  0  0
 16 31  1  0  0  0
 17 18  1  0  0  0
 17 95  1  0  0  0
 18 19  2  0  0  0
 18 96  1  0  0  0
 19 20  1  0  0  0
 19 24  1  0  0  0
 20 21  2  0  0  0
 20 97  1  0  0  0
 21 23  1  0  0  0
 22 28  1  0  0  0
 22 32  2  0  0  0
 26 27  1  0  0  0
 28 98  1  0  0  0
 28 99  1  0  0  0
 29100  1  0  0  0
 29101  1  0  0  0
 33 34  1  0  0  0
 33 66  1  0  0  0
 33 70  2  0  0  0
 34 36  1  0  0  0
 34 59  1  0  0  0
 34102  1  0  0  0
 35 44  2  0  0  0
 35 45  1  0  0  0
 35 68  1  0  0  0
 36 56  1  0  0  0
 36103  1  0  0  0
 37 39  1  0  0  0
 37 47  1  0  0  0
 37 66  1  0  0  0
 37104  1  0  0  0
 38 43  2  0  0  0
 38 46  1  0  0  0
 38 47  1  0  0  0
 39 64  1  0  0  0
 39 67  2  0  0  0
 40 52  1  0  0  0
 40 53  2  0  0  0
 40 58  1  0  0  0
 41105  1  0  0  0
 41106  1  0  0  0
 41107  1  0  0  0
 41 48  1  0  0  0
 42 43  1  0  0  0
 42 66  1  0  0  0
 42108  1  0  0  0
 42109  1  0  0  0
 43 44  1  0  0  0
 44110  1  0  0  0
 45 46  2  0  0  0
 45111  1  0  0  0
 46112  1  0  0  0
 47113  1  0  0  0
 47114  1  0  0  0
 48 56  1  0  0  0
 48 65  1  0  0  0
 48115  1  0  0  0
 49 50  1  0  0  0
 49 53  1  0  0  0
 49 64  1  0  0  0
 49116  1  0  0  0
 50 51  1  0  0  0
 50117  1  0  0  0
 50118  1  0  0  0
 51 52  1  0  0  0
 51119  1  0  0  0
 51120  1  0  0  0
 52121  1  0  0  0
 52122  1  0  0  0
 53 54  1  0  0  0
 54 55  2  0  0  0
 54123  1  0  0  0
 55 57  1  0  0  0
 55124  1  0  0  0
 56 69  2  0  0  0
 57 58  2  0  0  0
 57125  1  0  0  0
 58126  1  0  0  0
 59 60  1  0  0  0
 59 61  1  0  0  0
 59 62  1  0  0  0
 60127  1  0  0  0
 60128  1  0  0  0
 60129  1  0  0  0
 61130  1  0  0  0
 61131  1  0  0  0
 61132  1  0  0  0
 62133  1  0  0  0
 62134  1  0  0  0
 62135  1  0  0  0
 63 65  1  0  0  0
 63136  1  0  0  0
 63137  1  0  0  0
 63138  1  0  0  0
 64139  1  0  0  0
 65140  1  0  0  0
 68 75  1  0  0  0
 71 73  1  0  0  0
 71 79  1  0  0  0
 71141  1  0  0  0
 71142  1  0  0  0
 72 74  1  0  0  0
 72 79  1  0  0  0
 72143  1  0  0  0
 72144  1  0  0  0
 73 74  1  0  0  0
 73 75  1  0  0  0
 73145  1  0  0  0
 74 81  1  0  0  0
 74146  1  0  0  0
 75147  1  0  0  0
 75148  1  0  0  0
 76 77  1  0  0  0
 76 78  1  0  0  0
 76149  1  0  0  0
 76150  1  0  0  0
 77 80  1  0  0  0
 77151  1  0  0  0
 77152  1  0  0  0
 78 81  1  0  0  0
 78153  1  0  0  0
 78154  1  0  0  0
 79155  1  0  0  0
 80156  1  0  0  0
 81157  1  0  0  0
 81158  1  0  0  0
M  CHG  1  81   1
M  ISO  4   1 100  68 101  75 101  80 100
M  END
> <chiral flag>
0

> <version>
0

> <s_m_source_file>
/data/baiqing/PycharmProjects/Reinvent-master-3.2/result/LINK_invent/BTK/process_docking_weight1_custom_sum_contain_oxygen_bond_distance_aromatic_linkinvent_7_9_3/rearranged_h_0134.sdf

> <i_m_source_file_index>
58

> <r_mmod_Potential_Energy-OPLS-2005>
33.9661674499512

> <r_mmod_Stretch_Energy-OPLS-2005>
98.5472564697266

> <r_mmod_Bend_Energy-OPLS-2005>
176.503860473633

> <r_mmod_Torsional_Energy-OPLS-2005>
297.655090332031

> <r_mmod_Improper_Torsional_Energy-OPLS-2005>
4.25232315063477

> <r_mmod_Van_der_Waal_Energy-OPLS-2005>
116.205101013184

> <r_mmod_Electrostatic_Energy-OPLS-2005>
-219.413879394531

> <r_mmod_Solvation_Energy-OPLS-2005>
-499.571533203125

> <b_mmod_Minimization_Converged-OPLS-2005>
0

> <r_mmod_RMS_Derivative-OPLS-2005>
0.522926330566406

$$$$
58
                    3D
 Structure written by MMmdl.
171180  0  0  1  0            999 V2000
  -30.6472  -14.5645   20.5234 C   0  0  0  0  0  0
  -30.4407  -12.3452   19.4556 C   0  0  0  0  0  0
  -29.5166  -12.5126   18.2282 C   0  0  0  0  0  0
  -28.0377  -12.3486   18.6322 C   0  0  0  0  0  0
  -27.6649  -13.2078   19.8707 C   0  0  2  0  0  0
  -28.7041  -13.0272   21.0038 C   0  0  0  0  0  0
  -25.2608  -13.8164   20.5671 C   0  0  0  0  0  0
  -24.1841  -13.0440   20.9143 C   0  0  0  0  0  0
  -24.6404  -11.6892   20.8712 C   0  0  0  0  0  0
  -23.9055  -10.4298   21.0412 C   0  0  0  0  0  0
  -24.3619   -9.4208   21.9190 C   0  0  0  0  0  0
  -23.6294   -8.2234   22.0746 C   0  0  0  0  0  0
  -22.4274   -8.0286   21.3533 C   0  0  0  0  0  0
  -21.9905   -9.0247   20.4632 C   0  0  0  0  0  0
  -22.7229  -10.2134   20.3057 C   0  0  0  0  0  0
  -21.6859   -6.0732   22.5272 C   0  0  0  0  0  0
  -21.4000   -6.5639   23.8201 C   0  0  0  0  0  0
  -21.3661   -5.6798   24.9166 C   0  0  0  0  0  0
  -21.6050   -4.3051   24.7224 C   0  0  0  0  0  0
  -21.8823   -3.8134   23.4342 C   0  0  0  0  0  0
  -21.9178   -4.6954   22.3389 C   0  0  0  0  0  0
  -22.7864  -13.5246   21.1806 C   0  0  0  0  0  0
  -22.1662   -4.2146   21.0966 F   0  0  0  0  0  0
  -21.5639   -3.4525   25.7731 F   0  0  0  0  0  0
  -30.0372  -13.3437   20.4617 N   0  0  0  0  0  0
  -26.3043  -12.9327   20.3324 N   0  0  0  0  0  0
  -25.9333  -11.6492   20.5737 N   0  0  0  0  0  0
  -22.0472  -12.8269   22.0377 N   0  0  0  0  0  0
  -25.4303  -15.1880   20.4080 N   0  0  0  0  0  0
  -31.7698  -14.7672   20.0529 O   0  0  0  0  0  0
  -21.6636   -6.8878   21.4241 O   0  0  0  0  0  0
  -22.3553  -14.5544   20.6630 O   0  0  0  0  0  0
  -24.6235  -31.8629   23.2040 C   0  0  0  0  0  0
  -25.9110  -32.4802   23.8330 C   0  0  1  0  0  0
  -27.2238  -27.3812   20.1049 C   0  0  0  0  0  0
  -25.5954  -33.8596   24.2290 N   0  0  0  0  0  0
  -23.4141  -30.4881   21.5444 C   0  0  2  0  0  0
  -24.8560  -28.9449   20.1177 C   0  0  0  0  0  0
  -22.7477  -29.4649   22.4923 C   0  0  0  0  0  0
  -18.0290  -28.1436   22.8471 C   0  0  0  0  0  0
  -24.1519  -36.7264   23.2642 C   0  0  0  0  0  0
  -25.9494  -30.8142   21.3646 C   0  0  0  0  0  0
  -26.0234  -29.4471   20.7063 C   0  0  0  0  0  0
  -27.2156  -28.6775   20.6883 C   0  0  0  0  0  0
  -26.0374  -26.9040   19.5104 C   0  0  0  0  0  0
  -24.8591  -27.6740   19.5176 C   0  0  0  0  0  0
  -23.6284  -29.8273   20.1583 C   0  0  0  0  0  0
  -25.4147  -36.3099   24.0349 C   0  0  1  0  0  0
  -20.5902  -28.3738   23.1281 C   0  0  2  0  0  0
  -20.6797  -26.9459   22.5410 C   0  0  0  0  0  0
  -19.5772  -26.6421   21.5213 C   0  0  0  0  0  0
  -18.1947  -26.7968   22.1611 C   0  0  0  0  0  0
  -19.1554  -28.8891   23.2872 C   0  0  0  0  0  0
  -18.9478  -30.1488   23.8904 C   0  0  0  0  0  0
  -17.6498  -30.6622   24.0580 C   0  0  0  0  0  0
  -25.9094  -34.9473   23.5122 C   0  0  0  0  0  0
  -16.5379  -29.9153   23.6315 C   0  0  0  0  0  0
  -16.7287  -28.6569   23.0319 C   0  0  0  0  0  0
  -26.4538  -31.6604   25.0664 C   0  0  0  0  0  0
  -25.3800  -31.3763   26.1409 C   0  0  0  0  0  0
  -27.0437  -30.3071   24.6065 C   0  0  0  0  0  0
  -27.6093  -32.4354   25.7421 C   0  0  0  0  0  0
  -27.5606  -37.1793   24.8481 C   0  0  0  0  0  0
  -21.4202  -29.3073   22.3669 N   0  0  0  0  0  0
  -26.4316  -37.3799   23.9424 N   0  0  0  0  0  0
  -24.6807  -31.0685   22.0969 N   0  0  0  0  0  0
  -23.4214  -28.8202   23.3005 O   0  0  0  0  0  0
  -28.3666  -26.5940   20.0928 O   0  0  0  0  0  0
  -26.5653  -34.8925   22.4686 O   0  0  0  0  0  0
  -23.5412  -32.1405   23.7410 O   0  0  0  0  0  0
  -31.1702  -18.3222   21.5156 C   0  0  0  0  0  0
  -31.1921  -20.7162   21.0734 C   0  0  0  0  0  0
  -31.7107  -19.5953   21.7801 C   0  0  0  0  0  0
  -30.1101  -18.1950   20.6063 C   0  0  0  0  0  0
  -30.0038  -20.5322   20.3230 C   0  0  0  0  0  0
  -32.2385  -22.6883   19.6735 C   0  0  0  0  0  0
  -33.3501  -22.0670   20.4775 C   0  0  0  0  0  0
  -31.9283  -22.0270   21.0017 C   0  0  0  0  0  0
  -30.6858  -23.1567   25.1155 C   0  0  0  0  0  0
  -29.6231  -16.8194   20.1061 C   0  0  0  0  0  0
  -28.8110  -24.0714   19.7531 C   0  0  0  0  0  0
  -28.2407  -25.2433   20.6258 C   0  0  0  0  0  0
  -28.8641  -22.6855   20.4869 C   0  0  0  0  0  0
  -31.7117  -21.1498   24.3224 C   0  0  0  0  0  0
  -32.9636  -20.6485   23.5537 C   0  0  2  0  0  0
  -29.5052  -19.2922   20.0700 N   0  0  0  0  0  0
  -29.8567  -15.5913   20.9084 N   0  0  0  0  0  0
  -32.7753  -19.6296   22.6583 O   0  0  0  0  0  0
  -29.3510  -21.5814   19.6796 O   0  0  0  0  0  0
  -31.8310  -22.5563   24.5287 O   0  0  0  0  0  0
  -33.8429  -20.2300   24.4994 F   0  0  0  0  0  0
  -31.4881  -12.4529   19.1642 H   0  0  0  0  0  0
  -30.3524  -11.3382   19.8682 H   0  0  0  0  0  0
  -29.7816  -11.7867   17.4589 H   0  0  0  0  0  0
  -29.6711  -13.4974   17.7832 H   0  0  0  0  0  0
  -27.8744  -11.2942   18.8527 H   0  0  0  0  0  0
  -27.3853  -12.5903   17.7912 H   0  0  0  0  0  0
  -27.6944  -14.2480   19.5484 H   0  0  0  0  0  0
  -28.6909  -11.9981   21.3674 H   0  0  0  0  0  0
  -28.4539  -13.6474   21.8654 H   0  0  0  0  0  0
  -25.2780   -9.5691   22.4738 H   0  0  0  0  0  0
  -23.9997   -7.4652   22.7494 H   0  0  0  0  0  0
  -21.0811   -8.8768   19.8975 H   0  0  0  0  0  0
  -22.3690  -10.9651   19.6152 H   0  0  0  0  0  0
  -21.1994   -7.6143   23.9712 H   0  0  0  0  0  0
  -21.1490   -6.0512   25.9080 H   0  0  0  0  0  0
  -22.0597   -2.7588   23.2829 H   0  0  0  0  0  0
  -22.4055  -11.9966   22.4832 H   0  0  0  0  0  0
  -21.1100  -13.1317   22.2536 H   0  0  0  0  0  0
  -24.6588  -15.8387   20.5130 H   0  0  0  0  0  0
  -26.2758  -15.6255   20.0632 H   0  0  0  0  0  0
  -26.7167  -32.5472   23.1066 H   0  0  0  0  0  0
  -25.0119  -33.9759   25.0446 H   0  0  0  0  0  0
  -22.7079  -31.3070   21.4040 H   0  0  0  0  0  0
  -23.3814  -35.9562   23.3329 H   0  0  0  0  0  0
  -24.3615  -36.8854   22.2046 H   0  0  0  0  0  0
  -23.7223  -37.6450   23.6652 H   0  0  0  0  0  0
  -26.0745  -31.5815   20.5992 H   0  0  0  0  0  0
  -26.8321  -30.8626   21.9899 H   0  0  0  0  0  0
  -28.1214  -29.0609   21.1368 H   0  0  0  0  0  0
  -26.0218  -25.9275   19.0438 H   0  0  0  0  0  0
  -23.9598  -27.2817   19.0642 H   0  0  0  0  0  0
  -23.7674  -30.6077   19.4079 H   0  0  0  0  0  0
  -22.7495  -29.2683   19.8354 H   0  0  0  0  0  0
  -25.1324  -36.1953   25.0842 H   0  0  0  0  0  0
  -20.9975  -28.3306   24.1415 H   0  0  0  0  0  0
  -20.5742  -26.2336   23.3618 H   0  0  0  0  0  0
  -21.6659  -26.7516   22.1185 H   0  0  0  0  0  0
  -19.6942  -25.6335   21.1246 H   0  0  0  0  0  0
  -19.6707  -27.3228   20.6748 H   0  0  0  0  0  0
  -17.4216  -26.6711   21.4021 H   0  0  0  0  0  0
  -18.0339  -26.0128   22.9025 H   0  0  0  0  0  0
  -19.7967  -30.7285   24.2265 H   0  0  0  0  0  0
  -17.5060  -31.6280   24.5231 H   0  0  0  0  0  0
  -15.5388  -30.3078   23.7629 H   0  0  0  0  0  0
  -15.8675  -28.0919   22.7008 H   0  0  0  0  0  0
  -24.5958  -30.7137   25.7760 H   0  0  0  0  0  0
  -24.9024  -32.2961   26.4799 H   0  0  0  0  0  0
  -25.8123  -30.8970   27.0202 H   0  0  0  0  0  0
  -26.3027  -29.6725   24.1203 H   0  0  0  0  0  0
  -27.4374  -29.7381   25.4487 H   0  0  0  0  0  0
  -27.8768  -30.4446   23.9163 H   0  0  0  0  0  0
  -27.2738  -33.3713   26.1898 H   0  0  0  0  0  0
  -28.3949  -32.6814   25.0265 H   0  0  0  0  0  0
  -28.0723  -31.8549   26.5413 H   0  0  0  0  0  0
  -28.2630  -38.0086   24.7555 H   0  0  0  0  0  0
  -28.1121  -36.2619   24.6320 H   0  0  0  0  0  0
  -27.2338  -37.1450   25.8892 H   0  0  0  0  0  0
  -20.9414  -29.8779   21.6852 H   0  0  0  0  0  0
  -26.0212  -38.2883   24.1426 H   0  0  0  0  0  0
  -31.6189  -17.4420   21.9531 H   0  0  0  0  0  0
  -31.9461  -22.1773   18.7564 H   0  0  0  0  0  0
  -32.2186  -23.7748   19.6286 H   0  0  0  0  0  0
  -34.0489  -22.7408   20.9662 H   0  0  0  0  0  0
  -33.7826  -21.1433   20.0980 H   0  0  0  0  0  0
  -31.6708  -22.6789   21.8332 H   0  0  0  0  0  0
  -30.8549  -24.2288   25.2258 H   0  0  0  0  0  0
  -30.4752  -22.7443   26.1026 H   0  0  0  0  0  0
  -29.8036  -23.0334   24.4859 H   0  0  0  0  0  0
  -30.0172  -16.6788   19.0981 H   0  0  0  0  0  0
  -28.5438  -16.8915   19.9767 H   0  0  0  0  0  0
  -29.8157  -24.3281   19.4197 H   0  0  0  0  0  0
  -28.2114  -23.9730   18.8469 H   0  0  0  0  0  0
  -28.7806  -25.2539   21.5736 H   0  0  0  0  0  0
  -27.2125  -25.0104   20.9023 H   0  0  0  0  0  0
  -27.8541  -22.4244   20.8013 H   0  0  0  0  0  0
  -29.4358  -22.7946   21.4092 H   0  0  0  0  0  0
  -31.6073  -20.6220   25.2722 H   0  0  0  0  0  0
  -30.7956  -20.9701   23.7650 H   0  0  0  0  0  0
  -33.4324  -21.4898   23.0505 H   0  0  0  0  0  0
  -29.0580  -15.3137   21.4574 H   0  0  0  0  0  0
  1 25  1  0  0  0
  1 30  2  0  0  0
  1 87  1  0  0  0
  2  3  1  0  0  0
  2 25  1  0  0  0
  2 92  1  0  0  0
  2 93  1  0  0  0
  3  4  1  0  0  0
  3 94  1  0  0  0
  3 95  1  0  0  0
  4  5  1  0  0  0
  4 96  1  0  0  0
  4 97  1  0  0  0
  5  6  1  0  0  0
  5 26  1  0  0  0
  5 98  1  0  0  0
  6 25  1  0  0  0
  6 99  1  0  0  0
  6100  1  0  0  0
  7  8  2  0  0  0
  7 26  1  0  0  0
  7 29  1  0  0  0
  8  9  1  0  0  0
  8 22  1  0  0  0
  9 10  1  0  0  0
  9 27  2  0  0  0
 10 11  2  0  0  0
 10 15  1  0  0  0
 11 12  1  0  0  0
 11101  1  0  0  0
 12 13  2  0  0  0
 12102  1  0  0  0
 13 14  1  0  0  0
 13 31  1  0  0  0
 14 15  2  0  0  0
 14103  1  0  0  0
 15104  1  0  0  0
 16 17  2  0  0  0
 16 21  1  0  0  0
 16 31  1  0  0  0
 17 18  1  0  0  0
 17105  1  0  0  0
 18 19  2  0  0  0
 18106  1  0  0  0
 19 20  1  0  0  0
 19 24  1  0  0  0
 20 21  2  0  0  0
 20107  1  0  0  0
 21 23  1  0  0  0
 22 28  1  0  0  0
 22 32  2  0  0  0
 26 27  1  0  0  0
 28108  1  0  0  0
 28109  1  0  0  0
 29110  1  0  0  0
 29111  1  0  0  0
 33 34  1  0  0  0
 33 66  1  0  0  0
 33 70  2  0  0  0
 34 36  1  0  0  0
 34 59  1  0  0  0
 34112  1  0  0  0
 35 44  2  0  0  0
 35 45  1  0  0  0
 35 68  1  0  0  0
 36 56  1  0  0  0
 36113  1  0  0  0
 37 39  1  0  0  0
 37 47  1  0  0  0
 37 66  1  0  0  0
 37114  1  0  0  0
 38 43  2  0  0  0
 38 46  1  0  0  0
 38 47  1  0  0  0
 39 64  1  0  0  0
 39 67  2  0  0  0
 40 52  1  0  0  0
 40 53  2  0  0  0
 40 58  1  0  0  0
 41115  1  0  0  0
 41116  1  0  0  0
 41117  1  0  0  0
 41 48  1  0  0  0
 42 43  1  0  0  0
 42 66  1  0  0  0
 42118  1  0  0  0
 42119  1  0  0  0
 43 44  1  0  0  0
 44120  1  0  0  0
 45 46  2  0  0  0
 45121  1  0  0  0
 46122  1  0  0  0
 47123  1  0  0  0
 47124  1  0  0  0
 48 56  1  0  0  0
 48 65  1  0  0  0
 48125  1  0  0  0
 49 50  1  0  0  0
 49 53  1  0  0  0
 49 64  1  0  0  0
 49126  1  0  0  0
 50 51  1  0  0  0
 50127  1  0  0  0
 50128  1  0  0  0
 51 52  1  0  0  0
 51129  1  0  0  0
 51130  1  0  0  0
 52131  1  0  0  0
 52132  1  0  0  0
 53 54  1  0  0  0
 54 55  2  0  0  0
 54133  1  0  0  0
 55 57  1  0  0  0
 55134  1  0  0  0
 56 69  2  0  0  0
 57 58  2  0  0  0
 57135  1  0  0  0
 58136  1  0  0  0
 59 60  1  0  0  0
 59 61  1  0  0  0
 59 62  1  0  0  0
 60137  1  0  0  0
 60138  1  0  0  0
 60139  1  0  0  0
 61140  1  0  0  0
 61141  1  0  0  0
 61142  1  0  0  0
 62143  1  0  0  0
 62144  1  0  0  0
 62145  1  0  0  0
 63 65  1  0  0  0
 63146  1  0  0  0
 63147  1  0  0  0
 63148  1  0  0  0
 64149  1  0  0  0
 65150  1  0  0  0
 68 82  1  0  0  0
 71 73  2  0  0  0
 71 74  1  0  0  0
 71151  1  0  0  0
 72 73  1  0  0  0
 72 75  2  0  0  0
 72 78  1  0  0  0
 73 88  1  0  0  0
 74 80  1  0  0  0
 74 86  2  0  0  0
 75 86  1  0  0  0
 75 89  1  0  0  0
 76 77  1  0  0  0
 76 78  1  0  0  0
 76152  1  0  0  0
 76153  1  0  0  0
 77 78  1  0  0  0
 77154  1  0  0  0
 77155  1  0  0  0
 78156  1  0  0  0
 79 90  1  0  0  0
 79157  1  0  0  0
 79158  1  0  0  0
 79159  1  0  0  0
 80 87  1  0  0  0
 80160  1  0  0  0
 80161  1  0  0  0
 81 82  1  0  0  0
 81 83  1  0  0  0
 81162  1  0  0  0
 81163  1  0  0  0
 82164  1  0  0  0
 82165  1  0  0  0
 83 89  1  0  0  0
 83166  1  0  0  0
 83167  1  0  0  0
 84 85  1  0  0  0
 84 90  1  0  0  0
 84168  1  0  0  0
 84169  1  0  0  0
 85 88  1  0  0  0
 85 91  1  0  0  0
 85170  1  0  0  0
 87171  1  0  0  0
M  ISO  4   1 100  68 101  82 101  87 100
M  END
> <chiral flag>
0

> <version>
0

> <s_m_source_file>
/data/baiqing/PycharmProjects/Reinvent-master-3.2/result/LINK_invent/BTK/process_docking_weight1_custom_sum_contain_oxygen_bond_distance_aromatic_linkinvent_7_9_3/rearranged_h_0134.sdf

> <i_m_source_file_index>
59

> <r_mmod_Potential_Energy-OPLS-2005>
-171.183731079102

> <r_mmod_Stretch_Energy-OPLS-2005>
53.6336822509766

> <r_mmod_Bend_Energy-OPLS-2005>
131.198257446289

> <r_mmod_Torsional_Energy-OPLS-2005>
305.377197265625

> <r_mmod_Improper_Torsional_Energy-OPLS-2005>
9.47126960754395

> <r_mmod_Van_der_Waal_Energy-OPLS-2005>
147.867492675781

> <r_mmod_Electrostatic_Energy-OPLS-2005>
-613.071960449219

> <r_mmod_Solvation_Energy-OPLS-2005>
-232.042602539062

> <b_mmod_Minimization_Converged-OPLS-2005>
0

> <r_mmod_RMS_Derivative-OPLS-2005>
4.42010068893433

$$$$
59
                    3D
 Structure written by MMmdl.
168176  0  0  1  0            999 V2000
  -30.6878  -14.4507   20.5279 C   0  0  0  0  0  0
  -30.4260  -12.2775   19.4246 C   0  0  0  0  0  0
  -29.4963  -12.4963   18.2118 C   0  0  0  0  0  0
  -28.0146  -12.3672   18.6179 C   0  0  0  0  0  0
  -27.6631  -13.1987   19.8811 C   0  0  2  0  0  0
  -28.7066  -12.9666   20.9993 C   0  0  0  0  0  0
  -25.2571  -13.8111   20.5689 C   0  0  0  0  0  0
  -24.1827  -13.0385   20.9202 C   0  0  0  0  0  0
  -24.6357  -11.6859   20.8752 C   0  0  0  0  0  0
  -23.9005  -10.4264   21.0426 C   0  0  0  0  0  0
  -24.3568   -9.4168   21.9190 C   0  0  0  0  0  0
  -23.6262   -8.2190   22.0738 C   0  0  0  0  0  0
  -22.4246   -8.0242   21.3535 C   0  0  0  0  0  0
  -21.9886   -9.0213   20.4629 C   0  0  0  0  0  0
  -22.7198  -10.2112   20.3053 C   0  0  0  0  0  0
  -21.6813   -6.0732   22.5287 C   0  0  0  0  0  0
  -21.3989   -6.5638   23.8217 C   0  0  0  0  0  0
  -21.3665   -5.6799   24.9198 C   0  0  0  0  0  0
  -21.6035   -4.3066   24.7243 C   0  0  0  0  0  0
  -21.8803   -3.8152   23.4360 C   0  0  0  0  0  0
  -21.9178   -4.6963   22.3410 C   0  0  0  0  0  0
  -22.7853  -13.5204   21.1822 C   0  0  0  0  0  0
  -22.1664   -4.2159   21.0983 F   0  0  0  0  0  0
  -21.5626   -3.4532   25.7745 F   0  0  0  0  0  0
  -30.0420  -13.2598   20.4485 N   0  0  0  0  0  0
  -26.3012  -12.9270   20.3404 N   0  0  0  0  0  0
  -25.9288  -11.6438   20.5766 N   0  0  0  0  0  0
  -22.0468  -12.8217   22.0385 N   0  0  0  0  0  0
  -25.4263  -15.1821   20.4030 N   0  0  0  0  0  0
  -31.8331  -14.6246   20.1088 O   0  0  0  0  0  0
  -21.6593   -6.8851   21.4233 O   0  0  0  0  0  0
  -22.3564  -14.5507   20.6634 O   0  0  0  0  0  0
  -24.6117  -31.8692   23.2095 C   0  0  0  0  0  0
  -25.9030  -32.4823   23.8382 C   0  0  1  0  0  0
  -27.2491  -27.4578   20.1096 C   0  0  0  0  0  0
  -25.5897  -33.8617   24.2322 N   0  0  0  0  0  0
  -23.3991  -30.4906   21.5452 C   0  0  2  0  0  0
  -24.8516  -28.9497   20.1196 C   0  0  0  0  0  0
  -22.7388  -29.4673   22.4970 C   0  0  0  0  0  0
  -18.0273  -28.1392   22.8497 C   0  0  0  0  0  0
  -24.1482  -36.7309   23.2641 C   0  0  0  0  0  0
  -25.9248  -30.8430   21.3587 C   0  0  0  0  0  0
  -26.0075  -29.4753   20.7129 C   0  0  0  0  0  0
  -27.2115  -28.7383   20.7004 C   0  0  0  0  0  0
  -26.0799  -26.9327   19.5214 C   0  0  0  0  0  0
  -24.8830  -27.6772   19.5176 C   0  0  0  0  0  0
  -23.6105  -29.8131   20.1623 C   0  0  0  0  0  0
  -25.4100  -36.3104   24.0345 C   0  0  1  0  0  0
  -20.5865  -28.3689   23.1312 C   0  0  2  0  0  0
  -20.6769  -26.9427   22.5414 C   0  0  0  0  0  0
  -19.5747  -26.6405   21.5215 C   0  0  0  0  0  0
  -18.1921  -26.7945   22.1628 C   0  0  0  0  0  0
  -19.1526  -28.8858   23.2908 C   0  0  0  0  0  0
  -18.9453  -30.1464   23.8919 C   0  0  0  0  0  0
  -17.6455  -30.6594   24.0582 C   0  0  0  0  0  0
  -25.9034  -34.9477   23.5129 C   0  0  0  0  0  0
  -16.5343  -29.9105   23.6328 C   0  0  0  0  0  0
  -16.7264  -28.6522   23.0346 C   0  0  0  0  0  0
  -26.4461  -31.6593   25.0694 C   0  0  0  0  0  0
  -25.3748  -31.3704   26.1464 C   0  0  0  0  0  0
  -27.0302  -30.3039   24.6069 C   0  0  0  0  0  0
  -27.6029  -32.4322   25.7462 C   0  0  0  0  0  0
  -27.5570  -37.1806   24.8466 C   0  0  0  0  0  0
  -21.4123  -29.3050   22.3710 N   0  0  0  0  0  0
  -26.4283  -37.3799   23.9419 N   0  0  0  0  0  0
  -24.6625  -31.0821   22.0971 N   0  0  0  0  0  0
  -23.4167  -28.8231   23.3021 O   0  0  0  0  0  0
  -28.4270  -26.7493   20.0800 O   0  0  0  0  0  0
  -26.5575  -34.8935   22.4683 O   0  0  0  0  0  0
  -23.5323  -32.1425   23.7513 O   0  0  0  0  0  0
  -27.6414  -22.0009   20.4978 C   0  0  0  0  0  0
  -29.9446  -22.3166   21.4419 C   0  0  0  0  0  0
  -27.3610  -20.8753   21.5119 C   0  0  0  0  0  0
  -29.7171  -21.1636   22.4469 C   0  0  0  0  0  0
  -28.6245  -23.0389   21.0734 C   0  0  1  0  0  0
  -28.6333  -20.1507   22.0021 C   0  0  2  0  0  0
  -30.0840  -24.3960   19.3888 C   0  0  0  0  0  0
  -31.0281  -17.3184   19.4998 C   0  0  0  0  0  0
  -29.5016  -17.8485   21.5018 C   0  0  0  0  0  0
  -28.4866  -25.6145   20.9496 C   0  0  0  0  0  0
  -28.7539  -24.3083   20.1641 C   0  0  2  0  0  0
  -29.8215  -16.8596   20.3538 C   0  0  2  0  0  0
  -29.8788  -15.4715   20.8631 N   0  0  0  0  0  0
  -29.1314  -19.1915   20.9870 N   0  3  0  0  0  0
  -31.4726  -12.3673   19.1223 H   0  0  0  0  0  0
  -30.3180  -11.2668   19.8209 H   0  0  0  0  0  0
  -29.7293  -11.7796   17.4240 H   0  0  0  0  0  0
  -29.6761  -13.4848   17.7863 H   0  0  0  0  0  0
  -27.8127  -11.3108   18.8003 H   0  0  0  0  0  0
  -27.3694  -12.6626   17.7899 H   0  0  0  0  0  0
  -27.7073  -14.2457   19.5859 H   0  0  0  0  0  0
  -28.6721  -11.9294   21.3385 H   0  0  0  0  0  0
  -28.4831  -13.5689   21.8816 H   0  0  0  0  0  0
  -25.2716   -9.5656   22.4763 H   0  0  0  0  0  0
  -23.9992   -7.4565   22.7446 H   0  0  0  0  0  0
  -21.0815   -8.8716   19.8957 H   0  0  0  0  0  0
  -22.3639  -10.9633   19.6158 H   0  0  0  0  0  0
  -21.1970   -7.6146   23.9726 H   0  0  0  0  0  0
  -21.1518   -6.0548   25.9104 H   0  0  0  0  0  0
  -22.0579   -2.7611   23.2866 H   0  0  0  0  0  0
  -22.4102  -11.9950   22.4899 H   0  0  0  0  0  0
  -21.1034  -13.1167   22.2491 H   0  0  0  0  0  0
  -24.6409  -15.8213   20.4652 H   0  0  0  0  0  0
  -26.2582  -15.6101   20.0194 H   0  0  0  0  0  0
  -26.7104  -32.5543   23.1155 H   0  0  0  0  0  0
  -25.0088  -33.9785   25.0493 H   0  0  0  0  0  0
  -22.6880  -31.3060   21.4009 H   0  0  0  0  0  0
  -23.3734  -35.9643   23.3311 H   0  0  0  0  0  0
  -24.3581  -36.8907   22.2051 H   0  0  0  0  0  0
  -23.7235  -37.6522   23.6643 H   0  0  0  0  0  0
  -26.0356  -31.6057   20.5870 H   0  0  0  0  0  0
  -26.8147  -30.9014   21.9737 H   0  0  0  0  0  0
  -28.1073  -29.1482   21.1473 H   0  0  0  0  0  0
  -26.1037  -25.9546   19.0625 H   0  0  0  0  0  0
  -23.9982  -27.2698   19.0477 H   0  0  0  0  0  0
  -23.7186  -30.5819   19.3969 H   0  0  0  0  0  0
  -22.7374  -29.2274   19.8686 H   0  0  0  0  0  0
  -25.1281  -36.1958   25.0833 H   0  0  0  0  0  0
  -20.9986  -28.3267   24.1429 H   0  0  0  0  0  0
  -20.5691  -26.2300   23.3603 H   0  0  0  0  0  0
  -21.6634  -26.7473   22.1202 H   0  0  0  0  0  0
  -19.6904  -25.6323   21.1235 H   0  0  0  0  0  0
  -19.6683  -27.3223   20.6747 H   0  0  0  0  0  0
  -17.4196  -26.6714   21.4015 H   0  0  0  0  0  0
  -18.0318  -26.0075   22.9011 H   0  0  0  0  0  0
  -19.7927  -30.7290   24.2281 H   0  0  0  0  0  0
  -17.5009  -31.6277   24.5194 H   0  0  0  0  0  0
  -15.5355  -30.3023   23.7642 H   0  0  0  0  0  0
  -15.8661  -28.0865   22.7038 H   0  0  0  0  0  0
  -24.5923  -30.7043   25.7814 H   0  0  0  0  0  0
  -24.8944  -32.2868   26.4899 H   0  0  0  0  0  0
  -25.8131  -30.8888   27.0214 H   0  0  0  0  0  0
  -26.2842  -29.6797   24.1144 H   0  0  0  0  0  0
  -27.4101  -29.7279   25.4510 H   0  0  0  0  0  0
  -27.8653  -30.4361   23.9192 H   0  0  0  0  0  0
  -27.2634  -33.3618   26.2044 H   0  0  0  0  0  0
  -28.3837  -32.6894   25.0292 H   0  0  0  0  0  0
  -28.0704  -31.8452   26.5384 H   0  0  0  0  0  0
  -28.2599  -38.0096   24.7517 H   0  0  0  0  0  0
  -28.1060  -36.2633   24.6284 H   0  0  0  0  0  0
  -27.2304  -37.1448   25.8876 H   0  0  0  0  0  0
  -20.9287  -29.8738   21.6898 H   0  0  0  0  0  0
  -26.0163  -38.2867   24.1425 H   0  0  0  0  0  0
  -26.6956  -22.4855   20.2458 H   0  0  0  0  0  0
  -28.0313  -21.5893   19.5664 H   0  0  0  0  0  0
  -30.4241  -21.9193   20.5471 H   0  0  0  0  0  0
  -30.6488  -23.0251   21.8766 H   0  0  0  0  0  0
  -26.6480  -20.1632   21.0972 H   0  0  0  0  0  0
  -26.8622  -21.3112   22.3783 H   0  0  0  0  0  0
  -29.4055  -21.6014   23.3956 H   0  0  0  0  0  0
  -30.6579  -20.6493   22.6608 H   0  0  0  0  0  0
  -28.1864  -23.3730   22.0146 H   0  0  0  0  0  0
  -28.3406  -19.5712   22.8791 H   0  0  0  0  0  0
  -30.2611  -23.5024   18.7911 H   0  0  0  0  0  0
  -30.9340  -24.5279   20.0600 H   0  0  0  0  0  0
  -30.0848  -25.2473   18.7053 H   0  0  0  0  0  0
  -30.8911  -18.3242   19.1027 H   0  0  0  0  0  0
  -31.1776  -16.6714   18.6326 H   0  0  0  0  0  0
  -31.9516  -17.3233   20.0788 H   0  0  0  0  0  0
  -30.3483  -17.9354   22.1837 H   0  0  0  0  0  0
  -28.6690  -17.4536   22.0885 H   0  0  0  0  0  0
  -29.2862  -25.7746   21.6750 H   0  0  0  0  0  0
  -27.5700  -25.5193   21.5335 H   0  0  0  0  0  0
  -27.9640  -24.2569   19.4125 H   0  0  0  0  0  0
  -28.9593  -16.8546   19.6834 H   0  0  0  0  0  0
  -29.0147  -15.1467   21.2736 H   0  0  0  0  0  0
  -29.9119  -19.5979   20.4966 H   0  0  0  0  0  0
  -28.3925  -19.0518   20.3164 H   0  0  0  0  0  0
  1 25  1  0  0  0
  1 30  2  0  0  0
  1 83  1  0  0  0
  2  3  1  0  0  0
  2 25  1  0  0  0
  2 85  1  0  0  0
  2 86  1  0  0  0
  3  4  1  0  0  0
  3 87  1  0  0  0
  3 88  1  0  0  0
  4  5  1  0  0  0
  4 89  1  0  0  0
  4 90  1  0  0  0
  5  6  1  0  0  0
  5 26  1  0  0  0
  5 91  1  0  0  0
  6 25  1  0  0  0
  6 92  1  0  0  0
  6 93  1  0  0  0
  7  8  2  0  0  0
  7 26  1  0  0  0
  7 29  1  0  0  0
  8  9  1  0  0  0
  8 22  1  0  0  0
  9 10  1  0  0  0
  9 27  2  0  0  0
 10 11  2  0  0  0
 10 15  1  0  0  0
 11 12  1  0  0  0
 11 94  1  0  0  0
 12 13  2  0  0  0
 12 95  1  0  0  0
 13 14  1  0  0  0
 13 31  1  0  0  0
 14 15  2  0  0  0
 14 96  1  0  0  0
 15 97  1  0  0  0
 16 17  2  0  0  0
 16 21  1  0  0  0
 16 31  1  0  0  0
 17 18  1  0  0  0
 17 98  1  0  0  0
 18 19  2  0  0  0
 18 99  1  0  0  0
 19 20  1  0  0  0
 19 24  1  0  0  0
 20 21  2  0  0  0
 20100  1  0  0  0
 21 23  1  0  0  0
 22 28  1  0  0  0
 22 32  2  0  0  0
 26 27  1  0  0  0
 28101  1  0  0  0
 28102  1  0  0  0
 29103  1  0  0  0
 29104  1  0  0  0
 33 34  1  0  0  0
 33 66  1  0  0  0
 33 70  2  0  0  0
 34 36  1  0  0  0
 34 59  1  0  0  0
 34105  1  0  0  0
 35 44  2  0  0  0
 35 45  1  0  0  0
 35 68  1  0  0  0
 36 56  1  0  0  0
 36106  1  0  0  0
 37 39  1  0  0  0
 37 47  1  0  0  0
 37 66  1  0  0  0
 37107  1  0  0  0
 38 43  2  0  0  0
 38 46  1  0  0  0
 38 47  1  0  0  0
 39 64  1  0  0  0
 39 67  2  0  0  0
 40 52  1  0  0  0
 40 53  2  0  0  0
 40 58  1  0  0  0
 41108  1  0  0  0
 41109  1  0  0  0
 41110  1  0  0  0
 41 48  1  0  0  0
 42 43  1  0  0  0
 42 66  1  0  0  0
 42111  1  0  0  0
 42112  1  0  0  0
 43 44  1  0  0  0
 44113  1  0  0  0
 45 46  2  0  0  0
 45114  1  0  0  0
 46115  1  0  0  0
 47116  1  0  0  0
 47117  1  0  0  0
 48 56  1  0  0  0
 48 65  1  0  0  0
 48118  1  0  0  0
 49 50  1  0  0  0
 49 53  1  0  0  0
 49 64  1  0  0  0
 49119  1  0  0  0
 50 51  1  0  0  0
 50120  1  0  0  0
 50121  1  0  0  0
 51 52  1  0  0  0
 51122  1  0  0  0
 51123  1  0  0  0
 52124  1  0  0  0
 52125  1  0  0  0
 53 54  1  0  0  0
 54 55  2  0  0  0
 54126  1  0  0  0
 55 57  1  0  0  0
 55127  1  0  0  0
 56 69  2  0  0  0
 57 58  2  0  0  0
 57128  1  0  0  0
 58129  1  0  0  0
 59 60  1  0  0  0
 59 61  1  0  0  0
 59 62  1  0  0  0
 60130  1  0  0  0
 60131  1  0  0  0
 60132  1  0  0  0
 61133  1  0  0  0
 61134  1  0  0  0
 61135  1  0  0  0
 62136  1  0  0  0
 62137  1  0  0  0
 62138  1  0  0  0
 63 65  1  0  0  0
 63139  1  0  0  0
 63140  1  0  0  0
 63141  1  0  0  0
 64142  1  0  0  0
 65143  1  0  0  0
 68 80  1  0  0  0
 71 73  1  0  0  0
 71144  1  0  0  0
 71145  1  0  0  0
 71 75  1  0  0  0
 72 74  1  0  0  0
 72 75  1  0  0  0
 72146  1  0  0  0
 72147  1  0  0  0
 73 76  1  0  0  0
 73148  1  0  0  0
 73149  1  0  0  0
 74 76  1  0  0  0
 74150  1  0  0  0
 74151  1  0  0  0
 75 81  1  0  0  0
 75152  1  0  0  0
 76 84  1  0  0  0
 76153  1  0  0  0
 77154  1  0  0  0
 77155  1  0  0  0
 77156  1  0  0  0
 77 81  1  0  0  0
 78157  1  0  0  0
 78158  1  0  0  0
 78159  1  0  0  0
 78 82  1  0  0  0
 79 82  1  0  0  0
 79 84  1  0  0  0
 79160  1  0  0  0
 79161  1  0  0  0
 80 81  1  0  0  0
 80162  1  0  0  0
 80163  1  0  0  0
 81164  1  0  0  0
 82 83  1  0  0  0
 82165  1  0  0  0
 83166  1  0  0  0
 84167  1  0  0  0
 84168  1  0  0  0
M  CHG  1  84   1
M  ISO  4   1 100  68 101  80 101  83 100
M  END
> <chiral flag>
0

> <version>
0

> <s_m_source_file>
/data/baiqing/PycharmProjects/Reinvent-master-3.2/result/LINK_invent/BTK/process_docking_weight1_custom_sum_contain_oxygen_bond_distance_aromatic_linkinvent_7_9_3/rearranged_h_0134.sdf

> <i_m_source_file_index>
60

> <r_mmod_Potential_Energy-OPLS-2005>
-138.532852172852

> <r_mmod_Stretch_Energy-OPLS-2005>
36.4632949829102

> <r_mmod_Bend_Energy-OPLS-2005>
105.796806335449

> <r_mmod_Torsional_Energy-OPLS-2005>
306.541137695312

> <r_mmod_Improper_Torsional_Energy-OPLS-2005>
7.77068328857422

> <r_mmod_Van_der_Waal_Energy-OPLS-2005>
139.294006347656

> <r_mmod_Electrostatic_Energy-OPLS-2005>
-283.321807861328

> <r_mmod_Solvation_Energy-OPLS-2005>
-462.516876220703

> <b_mmod_Minimization_Converged-OPLS-2005>
0

> <r_mmod_RMS_Derivative-OPLS-2005>
3.24636435508728

$$$$
60
                    3D
 Structure written by MMmdl.
158167  0  0  1  0            999 V2000
  -30.7151  -14.4601   20.5973 C   0  0  0  0  0  0
  -30.4302  -12.3085   19.4243 C   0  0  0  0  0  0
  -29.5025  -12.5194   18.2122 C   0  0  0  0  0  0
  -28.0233  -12.3705   18.6199 C   0  0  0  0  0  0
  -27.6671  -13.2058   19.8808 C   0  0  2  0  0  0
  -28.7088  -12.9811   21.0013 C   0  0  0  0  0  0
  -25.2618  -13.8168   20.5673 C   0  0  0  0  0  0
  -24.1854  -13.0453   20.9148 C   0  0  0  0  0  0
  -24.6405  -11.6922   20.8732 C   0  0  0  0  0  0
  -23.9066  -10.4308   21.0400 C   0  0  0  0  0  0
  -24.3618   -9.4227   21.9185 C   0  0  0  0  0  0
  -23.6290   -8.2272   22.0762 C   0  0  0  0  0  0
  -22.4279   -8.0300   21.3557 C   0  0  0  0  0  0
  -21.9914   -9.0271   20.4656 C   0  0  0  0  0  0
  -22.7238  -10.2149   20.3060 C   0  0  0  0  0  0
  -21.6858   -6.0736   22.5274 C   0  0  0  0  0  0
  -21.4016   -6.5634   23.8204 C   0  0  0  0  0  0
  -21.3668   -5.6785   24.9168 C   0  0  0  0  0  0
  -21.6048   -4.3050   24.7218 C   0  0  0  0  0  0
  -21.8825   -3.8145   23.4337 C   0  0  0  0  0  0
  -21.9200   -4.6967   22.3395 C   0  0  0  0  0  0
  -22.7884  -13.5269   21.1810 C   0  0  0  0  0  0
  -22.1670   -4.2155   21.0974 F   0  0  0  0  0  0
  -21.5635   -3.4532   25.7729 F   0  0  0  0  0  0
  -30.0409  -13.2882   20.4504 N   0  0  0  0  0  0
  -26.3064  -12.9330   20.3407 N   0  0  0  0  0  0
  -25.9337  -11.6492   20.5783 N   0  0  0  0  0  0
  -22.0508  -12.8279   22.0363 N   0  0  0  0  0  0
  -25.4320  -15.1891   20.4080 N   0  0  0  0  0  0
  -31.8217  -14.6682   20.0900 O   0  0  0  0  0  0
  -21.6652   -6.8891   21.4241 O   0  0  0  0  0  0
  -22.3572  -14.5571   20.6644 O   0  0  0  0  0  0
  -24.6157  -31.8685   23.2092 C   0  0  0  0  0  0
  -25.9043  -32.4821   23.8400 C   0  0  1  0  0  0
  -27.2366  -27.4298   20.0838 C   0  0  0  0  0  0
  -25.5901  -33.8624   24.2339 N   0  0  0  0  0  0
  -23.4028  -30.4929   21.5502 C   0  0  2  0  0  0
  -24.8475  -28.9616   20.1116 C   0  0  0  0  0  0
  -22.7411  -29.4665   22.4982 C   0  0  0  0  0  0
  -18.0268  -28.1365   22.8485 C   0  0  0  0  0  0
  -24.1491  -36.7321   23.2639 C   0  0  0  0  0  0
  -25.9331  -30.8337   21.3612 C   0  0  0  0  0  0
  -26.0101  -29.4685   20.7049 C   0  0  0  0  0  0
  -27.2053  -28.7106   20.6879 C   0  0  0  0  0  0
  -26.0428  -26.9355   19.5030 C   0  0  0  0  0  0
  -24.8590  -27.6940   19.5085 C   0  0  0  0  0  0
  -23.6095  -29.8273   20.1641 C   0  0  0  0  0  0
  -25.4108  -36.3119   24.0345 C   0  0  1  0  0  0
  -20.5856  -28.3655   23.1311 C   0  0  2  0  0  0
  -20.6752  -26.9389   22.5407 C   0  0  0  0  0  0
  -19.5733  -26.6372   21.5202 C   0  0  0  0  0  0
  -18.1913  -26.7913   22.1614 C   0  0  0  0  0  0
  -19.1515  -28.8825   23.2894 C   0  0  0  0  0  0
  -18.9447  -30.1430   23.8903 C   0  0  0  0  0  0
  -17.6450  -30.6572   24.0557 C   0  0  0  0  0  0
  -25.9031  -34.9476   23.5140 C   0  0  0  0  0  0
  -16.5341  -29.9076   23.6315 C   0  0  0  0  0  0
  -16.7258  -28.6489   23.0345 C   0  0  0  0  0  0
  -26.4465  -31.6594   25.0726 C   0  0  0  0  0  0
  -25.3735  -31.3702   26.1481 C   0  0  0  0  0  0
  -27.0292  -30.3039   24.6094 C   0  0  0  0  0  0
  -27.6045  -32.4305   25.7485 C   0  0  0  0  0  0
  -27.5587  -37.1815   24.8463 C   0  0  0  0  0  0
  -21.4134  -29.3039   22.3727 N   0  0  0  0  0  0
  -26.4301  -37.3793   23.9406 N   0  0  0  0  0  0
  -24.6690  -31.0785   22.0988 N   0  0  0  0  0  0
  -23.4194  -28.8193   23.3004 O   0  0  0  0  0  0
  -28.4010  -26.6787   20.1365 O   0  0  0  0  0  0
  -26.5583  -34.8924   22.4697 O   0  0  0  0  0  0
  -23.5341  -32.1433   23.7477 O   0  0  0  0  0  0
  -31.3713  -21.6258   18.1677 C   0  0  0  0  0  0
  -31.1835  -20.2639   18.4905 C   0  0  0  0  0  0
  -29.5373  -20.8587   20.2014 C   0  0  0  0  0  0
  -30.6308  -22.5891   18.8700 C   0  0  0  0  0  0
  -29.7280  -22.2198   19.8574 C   0  0  0  0  0  0
  -30.2813  -19.8616   19.5068 C   0  0  0  0  0  0
  -28.7371  -25.7237   19.2133 C   0  0  0  0  0  0
  -30.6822  -24.0834   18.6711 C   0  0  0  0  0  0
  -29.0353  -23.4389   20.4358 C   0  0  0  0  0  0
  -29.7265  -24.6661   19.7542 C   0  0  2  0  0  0
  -29.6289  -17.8945   20.9711 C   0  0  0  0  0  0
  -30.5493  -16.7829   21.5343 C   0  0  0  0  0  0
  -30.1724  -18.4759   19.7452 N   0  0  0  0  0  0
  -30.0589  -15.4266   21.2612 N   0  0  0  0  0  0
  -28.2934  -25.6549   18.0628 O   0  0  0  0  0  0
  -31.4747  -12.4131   19.1236 H   0  0  0  0  0  0
  -30.3347  -11.2943   19.8170 H   0  0  0  0  0  0
  -29.7505  -11.8131   17.4190 H   0  0  0  0  0  0
  -29.6676  -13.5146   17.7960 H   0  0  0  0  0  0
  -27.8327  -11.3124   18.8071 H   0  0  0  0  0  0
  -27.3768  -12.6519   17.7887 H   0  0  0  0  0  0
  -27.7121  -14.2543   19.5905 H   0  0  0  0  0  0
  -28.6903  -11.9439   21.3372 H   0  0  0  0  0  0
  -28.4647  -13.5698   21.8860 H   0  0  0  0  0  0
  -25.2771   -9.5709   22.4743 H   0  0  0  0  0  0
  -24.0008   -7.4671   22.7481 H   0  0  0  0  0  0
  -21.0849   -8.8787   19.8951 H   0  0  0  0  0  0
  -22.3703  -10.9685   19.6162 H   0  0  0  0  0  0
  -21.1991   -7.6139   23.9708 H   0  0  0  0  0  0
  -21.1490   -6.0512   25.9070 H   0  0  0  0  0  0
  -22.0594   -2.7610   23.2826 H   0  0  0  0  0  0
  -22.4106  -11.9927   22.4747 H   0  0  0  0  0  0
  -21.1144  -13.1349   22.2586 H   0  0  0  0  0  0
  -24.6555  -15.8377   20.4831 H   0  0  0  0  0  0
  -26.2874  -15.6314   20.0938 H   0  0  0  0  0  0
  -26.7114  -32.5534   23.1165 H   0  0  0  0  0  0
  -25.0085  -33.9788   25.0509 H   0  0  0  0  0  0
  -22.6913  -31.3100   21.4119 H   0  0  0  0  0  0
  -23.3749  -35.9658   23.3301 H   0  0  0  0  0  0
  -24.3586  -36.8930   22.2054 H   0  0  0  0  0  0
  -23.7247  -37.6533   23.6641 H   0  0  0  0  0  0
  -26.0436  -31.6013   20.5939 H   0  0  0  0  0  0
  -26.8219  -30.8872   21.9781 H   0  0  0  0  0  0
  -28.1012  -29.0965   21.1539 H   0  0  0  0  0  0
  -26.0028  -25.9520   19.0581 H   0  0  0  0  0  0
  -23.9628  -27.2907   19.0574 H   0  0  0  0  0  0
  -23.7156  -30.6033   19.4056 H   0  0  0  0  0  0
  -22.7338  -29.2475   19.8675 H   0  0  0  0  0  0
  -25.1281  -36.1996   25.0839 H   0  0  0  0  0  0
  -20.9945  -28.3214   24.1433 H   0  0  0  0  0  0
  -20.5635  -26.2267   23.3591 H   0  0  0  0  0  0
  -21.6626  -26.7417   22.1211 H   0  0  0  0  0  0
  -19.6889  -25.6284   21.1225 H   0  0  0  0  0  0
  -19.6671  -27.3184   20.6734 H   0  0  0  0  0  0
  -17.4179  -26.6658   21.4018 H   0  0  0  0  0  0
  -18.0315  -26.0050   22.9005 H   0  0  0  0  0  0
  -19.7926  -30.7235   24.2281 H   0  0  0  0  0  0
  -17.5008  -31.6253   24.5158 H   0  0  0  0  0  0
  -15.5342  -30.2983   23.7625 H   0  0  0  0  0  0
  -15.8657  -28.0807   22.7062 H   0  0  0  0  0  0
  -24.5904  -30.7051   25.7825 H   0  0  0  0  0  0
  -24.8931  -32.2860   26.4939 H   0  0  0  0  0  0
  -25.8101  -30.8870   27.0232 H   0  0  0  0  0  0
  -26.2840  -29.6803   24.1147 H   0  0  0  0  0  0
  -27.4065  -29.7269   25.4547 H   0  0  0  0  0  0
  -27.8667  -30.4356   23.9240 H   0  0  0  0  0  0
  -27.2675  -33.3590   26.2100 H   0  0  0  0  0  0
  -28.3839  -32.6889   25.0306 H   0  0  0  0  0  0
  -28.0730  -31.8408   26.5372 H   0  0  0  0  0  0
  -28.2607  -38.0109   24.7502 H   0  0  0  0  0  0
  -28.1083  -36.2643   24.6295 H   0  0  0  0  0  0
  -27.2301  -37.1470   25.8864 H   0  0  0  0  0  0
  -20.9281  -29.8813   21.7000 H   0  0  0  0  0  0
  -26.0200  -38.2880   24.1387 H   0  0  0  0  0  0
  -32.0656  -21.9197   17.3929 H   0  0  0  0  0  0
  -31.7488  -19.5225   17.9426 H   0  0  0  0  0  0
  -28.8233  -20.5984   20.9691 H   0  0  0  0  0  0
  -30.3859  -24.3250   17.6497 H   0  0  0  0  0  0
  -31.6997  -24.4480   18.8159 H   0  0  0  0  0  0
  -29.1605  -23.4686   21.5187 H   0  0  0  0  0  0
  -27.9665  -23.3919   20.2189 H   0  0  0  0  0  0
  -30.3480  -25.1542   20.5062 H   0  0  0  0  0  0
  -29.5258  -18.6668   21.7339 H   0  0  0  0  0  0
  -28.6230  -17.5146   20.7870 H   0  0  0  0  0  0
  -30.5720  -16.8751   22.6219 H   0  0  0  0  0  0
  -31.5848  -16.9261   21.2172 H   0  0  0  0  0  0
  -30.7546  -17.8578   19.1846 H   0  0  0  0  0  0
  -29.1549  -15.1798   21.6341 H   0  0  0  0  0  0
  1 25  1  0  0  0
  1 30  2  0  0  0
  1 84  1  0  0  0
  2  3  1  0  0  0
  2 25  1  0  0  0
  2 86  1  0  0  0
  2 87  1  0  0  0
  3  4  1  0  0  0
  3 88  1  0  0  0
  3 89  1  0  0  0
  4  5  1  0  0  0
  4 90  1  0  0  0
  4 91  1  0  0  0
  5  6  1  0  0  0
  5 26  1  0  0  0
  5 92  1  0  0  0
  6 25  1  0  0  0
  6 93  1  0  0  0
  6 94  1  0  0  0
  7  8  2  0  0  0
  7 26  1  0  0  0
  7 29  1  0  0  0
  8  9  1  0  0  0
  8 22  1  0  0  0
  9 10  1  0  0  0
  9 27  2  0  0  0
 10 11  2  0  0  0
 10 15  1  0  0  0
 11 12  1  0  0  0
 11 95  1  0  0  0
 12 13  2  0  0  0
 12 96  1  0  0  0
 13 14  1  0  0  0
 13 31  1  0  0  0
 14 15  2  0  0  0
 14 97  1  0  0  0
 15 98  1  0  0  0
 16 17  2  0  0  0
 16 21  1  0  0  0
 16 31  1  0  0  0
 17 18  1  0  0  0
 17 99  1  0  0  0
 18 19  2  0  0  0
 18100  1  0  0  0
 19 20  1  0  0  0
 19 24  1  0  0  0
 20 21  2  0  0  0
 20101  1  0  0  0
 21 23  1  0  0  0
 22 28  1  0  0  0
 22 32  2  0  0  0
 26 27  1  0  0  0
 28102  1  0  0  0
 28103  1  0  0  0
 29104  1  0  0  0
 29105  1  0  0  0
 33 34  1  0  0  0
 33 66  1  0  0  0
 33 70  2  0  0  0
 34 36  1  0  0  0
 34 59  1  0  0  0
 34106  1  0  0  0
 35 44  2  0  0  0
 35 45  1  0  0  0
 35 68  1  0  0  0
 36 56  1  0  0  0
 36107  1  0  0  0
 37 39  1  0  0  0
 37 47  1  0  0  0
 37 66  1  0  0  0
 37108  1  0  0  0
 38 43  2  0  0  0
 38 46  1  0  0  0
 38 47  1  0  0  0
 39 64  1  0  0  0
 39 67  2  0  0  0
 40 52  1  0  0  0
 40 53  2  0  0  0
 40 58  1  0  0  0
 41109  1  0  0  0
 41110  1  0  0  0
 41111  1  0  0  0
 41 48  1  0  0  0
 42 43  1  0  0  0
 42 66  1  0  0  0
 42112  1  0  0  0
 42113  1  0  0  0
 43 44  1  0  0  0
 44114  1  0  0  0
 45 46  2  0  0  0
 45115  1  0  0  0
 46116  1  0  0  0
 47117  1  0  0  0
 47118  1  0  0  0
 48 56  1  0  0  0
 48 65  1  0  0  0
 48119  1  0  0  0
 49 50  1  0  0  0
 49 53  1  0  0  0
 49 64  1  0  0  0
 49120  1  0  0  0
 50 51  1  0  0  0
 50121  1  0  0  0
 50122  1  0  0  0
 51 52  1  0  0  0
 51123  1  0  0  0
 51124  1  0  0  0
 52125  1  0  0  0
 52126  1  0  0  0
 53 54  1  0  0  0
 54 55  2  0  0  0
 54127  1  0  0  0
 55 57  1  0  0  0
 55128  1  0  0  0
 56 69  2  0  0  0
 57 58  2  0  0  0
 57129  1  0  0  0
 58130  1  0  0  0
 59 60  1  0  0  0
 59 61  1  0  0  0
 59 62  1  0  0  0
 60131  1  0  0  0
 60132  1  0  0  0
 60133  1  0  0  0
 61134  1  0  0  0
 61135  1  0  0  0
 61136  1  0  0  0
 62137  1  0  0  0
 62138  1  0  0  0
 62139  1  0  0  0
 63 65  1  0  0  0
 63140  1  0  0  0
 63141  1  0  0  0
 63142  1  0  0  0
 64143  1  0  0  0
 65144  1  0  0  0
 68 77  1  0  0  0
 71 72  2  0  0  0
 71 74  1  0  0  0
 71145  1  0  0  0
 72 76  1  0  0  0
 72146  1  0  0  0
 73 75  1  0  0  0
 73 76  2  0  0  0
 73147  1  0  0  0
 74 75  2  0  0  0
 74 78  1  0  0  0
 75 79  1  0  0  0
 76 83  1  0  0  0
 77 85  2  0  0  0
 77 80  1  0  0  0
 78 80  1  0  0  0
 78148  1  0  0  0
 78149  1  0  0  0
 79 80  1  0  0  0
 79150  1  0  0  0
 79151  1  0  0  0
 80152  1  0  0  0
 81 82  1  0  0  0
 81 83  1  0  0  0
 81153  1  0  0  0
 81154  1  0  0  0
 82 84  1  0  0  0
 82155  1  0  0  0
 82156  1  0  0  0
 83157  1  0  0  0
 84158  1  0  0  0
M  ISO  4   1 100  68 101  77 101  84 100
M  END
> <chiral flag>
0

> <version>
0

> <s_m_source_file>
/data/baiqing/PycharmProjects/Reinvent-master-3.2/result/LINK_invent/BTK/process_docking_weight1_custom_sum_contain_oxygen_bond_distance_aromatic_linkinvent_7_9_3/rearranged_h_0134.sdf

> <i_m_source_file_index>
61

> <r_mmod_Potential_Energy-OPLS-2005>
-101.590599060059

> <r_mmod_Stretch_Energy-OPLS-2005>
40.6850776672363

> <r_mmod_Bend_Energy-OPLS-2005>
145.368499755859

> <r_mmod_Torsional_Energy-OPLS-2005>
210.780548095703

> <r_mmod_Improper_Torsional_Energy-OPLS-2005>
3.53434753417969

> <r_mmod_Van_der_Waal_Energy-OPLS-2005>
154.816207885742

> <r_mmod_Electrostatic_Energy-OPLS-2005>
-443.841156005859

> <r_mmod_Solvation_Energy-OPLS-2005>
-225.648406982422

> <b_mmod_Minimization_Converged-OPLS-2005>
0

> <r_mmod_RMS_Derivative-OPLS-2005>
1.94043779373169

$$$$
61
                    3D
 Structure written by MMmdl.
185195  0  0  1  0            999 V2000
  -30.7918  -14.3953   20.6324 C   0  0  0  0  0  0
  -30.3988  -12.2820   19.4324 C   0  0  0  0  0  0
  -29.4941  -12.5231   18.2109 C   0  0  0  0  0  0
  -28.0152  -12.3880   18.6152 C   0  0  0  0  0  0
  -27.6595  -13.2172   19.8785 C   0  0  2  0  0  0
  -28.6981  -13.0165   21.0082 C   0  0  0  0  0  0
  -25.2468  -13.8067   20.5506 C   0  0  0  0  0  0
  -24.1786  -13.0364   20.9149 C   0  0  0  0  0  0
  -24.6398  -11.6866   20.8753 C   0  0  0  0  0  0
  -23.9058  -10.4271   21.0410 C   0  0  0  0  0  0
  -24.3608   -9.4192   21.9187 C   0  0  0  0  0  0
  -23.6268   -8.2243   22.0757 C   0  0  0  0  0  0
  -22.4255   -8.0285   21.3545 C   0  0  0  0  0  0
  -21.9894   -9.0253   20.4646 C   0  0  0  0  0  0
  -22.7233  -10.2123   20.3056 C   0  0  0  0  0  0
  -21.6851   -6.0730   22.5275 C   0  0  0  0  0  0
  -21.4021   -6.5632   23.8210 C   0  0  0  0  0  0
  -21.3651   -5.6780   24.9164 C   0  0  0  0  0  0
  -21.6040   -4.3045   24.7209 C   0  0  0  0  0  0
  -21.8818   -3.8135   23.4336 C   0  0  0  0  0  0
  -21.9195   -4.6957   22.3395 C   0  0  0  0  0  0
  -22.7819  -13.5195   21.1826 C   0  0  0  0  0  0
  -22.1673   -4.2151   21.0972 F   0  0  0  0  0  0
  -21.5614   -3.4525   25.7715 F   0  0  0  0  0  0
  -30.0429  -13.2720   20.4644 N   0  0  0  0  0  0
  -26.2997  -12.9337   20.3342 N   0  0  0  0  0  0
  -25.9351  -11.6490   20.5825 N   0  0  0  0  0  0
  -22.0458  -12.8228   22.0417 N   0  0  0  0  0  0
  -25.3934  -15.1713   20.3571 N   0  0  0  0  0  0
  -31.8489  -14.5704   20.0226 O   0  0  0  0  0  0
  -21.6628   -6.8881   21.4244 O   0  0  0  0  0  0
  -22.3521  -14.5500   20.6658 O   0  0  0  0  0  0
  -24.6106  -31.8718   23.2142 C   0  0  0  0  0  0
  -25.9033  -32.4832   23.8412 C   0  0  1  0  0  0
  -27.2327  -27.4668   20.0753 C   0  0  0  0  0  0
  -25.5912  -33.8631   24.2355 N   0  0  0  0  0  0
  -23.3947  -30.4956   21.5569 C   0  0  2  0  0  0
  -24.8380  -28.9656   20.1198 C   0  0  0  0  0  0
  -22.7403  -29.4627   22.5034 C   0  0  0  0  0  0
  -18.0284  -28.1327   22.8491 C   0  0  0  0  0  0
  -24.1489  -36.7314   23.2630 C   0  0  0  0  0  0
  -25.9208  -30.8429   21.3643 C   0  0  0  0  0  0
  -25.9972  -29.4788   20.7133 C   0  0  0  0  0  0
  -27.1955  -28.7337   20.6910 C   0  0  0  0  0  0
  -26.0542  -26.9667   19.4663 C   0  0  0  0  0  0
  -24.8585  -27.7058   19.5013 C   0  0  0  0  0  0
  -23.6002  -29.8314   20.1705 C   0  0  0  0  0  0
  -25.4104  -36.3119   24.0338 C   0  0  1  0  0  0
  -20.5869  -28.3597   23.1356 C   0  0  2  0  0  0
  -20.6776  -26.9320   22.5457 C   0  0  0  0  0  0
  -19.5774  -26.6339   21.5207 C   0  0  0  0  0  0
  -18.1951  -26.7853   22.1648 C   0  0  0  0  0  0
  -19.1533  -28.8783   23.2906 C   0  0  0  0  0  0
  -18.9462  -30.1428   23.8868 C   0  0  0  0  0  0
  -17.6447  -30.6564   24.0499 C   0  0  0  0  0  0
  -25.9038  -34.9476   23.5144 C   0  0  0  0  0  0
  -16.5348  -29.9040   23.6303 C   0  0  0  0  0  0
  -16.7275  -28.6442   23.0355 C   0  0  0  0  0  0
  -26.4476  -31.6598   25.0720 C   0  0  0  0  0  0
  -25.3753  -31.3692   26.1476 C   0  0  0  0  0  0
  -27.0297  -30.3048   24.6056 C   0  0  0  0  0  0
  -27.6066  -32.4295   25.7482 C   0  0  0  0  0  0
  -27.5578  -37.1812   24.8464 C   0  0  0  0  0  0
  -21.4136  -29.2967   22.3771 N   0  0  0  0  0  0
  -26.4297  -37.3791   23.9410 N   0  0  0  0  0  0
  -24.6599  -31.0824   22.1050 N   0  0  0  0  0  0
  -23.4211  -28.8159   23.3017 O   0  0  0  0  0  0
  -28.4336  -26.7951   20.0563 O   0  0  0  0  0  0
  -26.5576  -34.8934   22.4690 O   0  0  0  0  0  0
  -23.5314  -32.1473   23.7583 O   0  0  0  0  0  0
  -25.6580  -20.2474   23.6209 C   0  0  0  0  0  0
  -26.1679  -19.0617   23.0619 C   0  0  0  0  0  0
  -27.2188  -20.3627   21.2989 C   0  0  0  0  0  0
  -25.9104  -21.5027   23.0236 C   0  0  0  0  0  0
  -26.7197  -21.5659   21.8507 C   0  0  0  0  0  0
  -26.9425  -19.1149   21.8901 C   0  0  0  0  0  0
  -25.2754  -22.7219   23.6909 C   0  0  0  0  0  0
  -27.0585  -22.8609   21.1090 C   0  0  0  0  0  0
  -24.8775  -23.8507   22.7295 C   0  0  0  0  0  0
  -32.3183  -16.6865   22.2517 C   0  0  0  0  0  0
  -31.7943  -17.9167   21.4904 C   0  0  0  0  0  0
  -31.1842  -15.7065   22.6386 C   0  0  0  0  0  0
  -26.0531  -24.7652   22.3522 C   0  0  0  0  0  0
  -30.8184  -17.5206   20.3585 C   0  0  1  0  0  0
  -29.6995  -16.5561   20.8911 C   0  0  2  0  0  0
  -29.7064  -18.4606   18.3311 C   0  0  0  0  0  0
  -27.4287  -17.8291   21.2421 C   0  0  0  0  0  0
  -28.6949  -17.2252   21.8848 C   0  0  0  0  0  0
  -28.4233  -24.9070   21.6154 C   0  0  0  0  0  0
  -28.4332  -25.3708   20.1390 C   0  0  0  0  0  0
  -30.3329  -15.3511   21.4838 N   0  0  0  0  0  0
  -27.2896  -24.0189   22.0054 N   0  3  2  0  0  0
  -30.2943  -18.7188   19.6644 N   0  3  0  0  0  0
  -31.4510  -12.3238   19.1468 H   0  0  0  0  0  0
  -30.2477  -11.2743   19.8216 H   0  0  0  0  0  0
  -29.7332  -11.8170   17.4153 H   0  0  0  0  0  0
  -29.6767  -13.5180   17.8007 H   0  0  0  0  0  0
  -27.8103  -11.3320   18.7912 H   0  0  0  0  0  0
  -27.3773  -12.6834   17.7831 H   0  0  0  0  0  0
  -27.6992  -14.2655   19.5844 H   0  0  0  0  0  0
  -28.6537  -11.9940   21.3860 H   0  0  0  0  0  0
  -28.4581  -13.6580   21.8581 H   0  0  0  0  0  0
  -25.2763   -9.5658   22.4753 H   0  0  0  0  0  0
  -23.9960   -7.4628   22.7473 H   0  0  0  0  0  0
  -21.0829   -8.8782   19.8949 H   0  0  0  0  0  0
  -22.3701  -10.9659   19.6162 H   0  0  0  0  0  0
  -21.2035   -7.6144   23.9707 H   0  0  0  0  0  0
  -21.1469   -6.0514   25.9061 H   0  0  0  0  0  0
  -22.0604   -2.7598   23.2832 H   0  0  0  0  0  0
  -22.4042  -11.9897   22.4850 H   0  0  0  0  0  0
  -21.1068  -13.1272   22.2581 H   0  0  0  0  0  0
  -24.5959  -15.7943   20.4124 H   0  0  0  0  0  0
  -26.2079  -15.6014   19.9438 H   0  0  0  0  0  0
  -26.7071  -32.5562   23.1154 H   0  0  0  0  0  0
  -25.0107  -33.9782   25.0529 H   0  0  0  0  0  0
  -22.6815  -31.3114   21.4246 H   0  0  0  0  0  0
  -23.3748  -35.9648   23.3312 H   0  0  0  0  0  0
  -24.3584  -36.8917   22.2042 H   0  0  0  0  0  0
  -23.7259  -37.6532   23.6632 H   0  0  0  0  0  0
  -26.0278  -31.6082   20.5936 H   0  0  0  0  0  0
  -26.8096  -30.8978   21.9806 H   0  0  0  0  0  0
  -28.0939  -29.1266   21.1458 H   0  0  0  0  0  0
  -26.0291  -26.0275   18.9363 H   0  0  0  0  0  0
  -23.9680  -27.3080   19.0339 H   0  0  0  0  0  0
  -23.7062  -30.6110   19.4134 H   0  0  0  0  0  0
  -22.7225  -29.2522   19.8732 H   0  0  0  0  0  0
  -25.1276  -36.1985   25.0828 H   0  0  0  0  0  0
  -20.9943  -28.3197   24.1485 H   0  0  0  0  0  0
  -20.5605  -26.2192   23.3656 H   0  0  0  0  0  0
  -21.6681  -26.7355   22.1310 H   0  0  0  0  0  0
  -19.6918  -25.6267   21.1212 H   0  0  0  0  0  0
  -19.6683  -27.3158   20.6745 H   0  0  0  0  0  0
  -17.4157  -26.6436   21.4134 H   0  0  0  0  0  0
  -18.0490  -26.0067   22.9153 H   0  0  0  0  0  0
  -19.7939  -30.7278   24.2192 H   0  0  0  0  0  0
  -17.5003  -31.6281   24.5014 H   0  0  0  0  0  0
  -15.5319  -30.2911   23.7624 H   0  0  0  0  0  0
  -15.8684  -28.0735   22.7079 H   0  0  0  0  0  0
  -24.5920  -30.7031   25.7825 H   0  0  0  0  0  0
  -24.8924  -32.2836   26.4932 H   0  0  0  0  0  0
  -25.8107  -30.8869   27.0237 H   0  0  0  0  0  0
  -26.2815  -29.6819   24.1118 H   0  0  0  0  0  0
  -27.4105  -29.7272   25.4493 H   0  0  0  0  0  0
  -27.8651  -30.4393   23.9174 H   0  0  0  0  0  0
  -27.2697  -33.3588   26.2094 H   0  0  0  0  0  0
  -28.3859  -32.6860   25.0290 H   0  0  0  0  0  0
  -28.0744  -31.8386   26.5371 H   0  0  0  0  0  0
  -28.2593  -38.0112   24.7495 H   0  0  0  0  0  0
  -28.1080  -36.2638   24.6295 H   0  0  0  0  0  0
  -27.2299  -37.1471   25.8871 H   0  0  0  0  0  0
  -20.9259  -29.8776   21.7100 H   0  0  0  0  0  0
  -26.0200  -38.2876   24.1406 H   0  0  0  0  0  0
  -25.0539  -20.1846   24.5169 H   0  0  0  0  0  0
  -25.9465  -18.1107   23.5257 H   0  0  0  0  0  0
  -27.7970  -20.3954   20.3871 H   0  0  0  0  0  0
  -25.9348  -23.0930   24.4762 H   0  0  0  0  0  0
  -24.3701  -22.3915   24.2010 H   0  0  0  0  0  0
  -26.2897  -23.0813   20.3656 H   0  0  0  0  0  0
  -27.9736  -22.6757   20.5428 H   0  0  0  0  0  0
  -24.1214  -24.4746   23.2092 H   0  0  0  0  0  0
  -24.3851  -23.4408   21.8457 H   0  0  0  0  0  0
  -32.8588  -17.0085   23.1442 H   0  0  0  0  0  0
  -33.0585  -16.1709   21.6380 H   0  0  0  0  0  0
  -32.6395  -18.4704   21.0782 H   0  0  0  0  0  0
  -31.3184  -18.5988   22.1952 H   0  0  0  0  0  0
  -30.5769  -16.1450   23.4309 H   0  0  0  0  0  0
  -31.6181  -14.8042   23.0748 H   0  0  0  0  0  0
  -26.2680  -25.4424   23.1790 H   0  0  0  0  0  0
  -25.7412  -25.3940   21.5241 H   0  0  0  0  0  0
  -31.4108  -16.9970   19.6060 H   0  0  0  0  0  0
  -29.1185  -16.2046   20.0376 H   0  0  0  0  0  0
  -29.3624  -19.3914   17.8815 H   0  0  0  0  0  0
  -28.8543  -17.7849   18.3777 H   0  0  0  0  0  0
  -30.4443  -18.0190   17.6604 H   0  0  0  0  0  0
  -27.5362  -17.9888   20.1721 H   0  0  0  0  0  0
  -26.6235  -17.1098   21.3412 H   0  0  0  0  0  0
  -29.2030  -18.0040   22.4500 H   0  0  0  0  0  0
  -28.3656  -16.5094   22.6393 H   0  0  0  0  0  0
  -28.4561  -25.7683   22.2842 H   0  0  0  0  0  0
  -29.3517  -24.3661   21.8062 H   0  0  0  0  0  0
  -27.6625  -24.8982   19.5349 H   0  0  0  0  0  0
  -29.3662  -25.0379   19.6839 H   0  0  0  0  0  0
  -27.5935  -23.5952   22.8698 H   0  0  0  0  0  0
  -31.0693  -19.3474   19.5144 H   0  0  0  0  0  0
  -29.6346  -19.1983   20.2539 H   0  0  0  0  0  0
  1 25  1  0  0  0
  1 30  2  0  0  0
  1 91  1  0  0  0
  2  3  1  0  0  0
  2 25  1  0  0  0
  2 94  1  0  0  0
  2 95  1  0  0  0
  3  4  1  0  0  0
  3 96  1  0  0  0
  3 97  1  0  0  0
  4  5  1  0  0  0
  4 98  1  0  0  0
  4 99  1  0  0  0
  5  6  1  0  0  0
  5 26  1  0  0  0
  5100  1  0  0  0
  6 25  1  0  0  0
  6101  1  0  0  0
  6102  1  0  0  0
  7  8  2  0  0  0
  7 26  1  0  0  0
  7 29  1  0  0  0
  8  9  1  0  0  0
  8 22  1  0  0  0
  9 10  1  0  0  0
  9 27  2  0  0  0
 10 11  2  0  0  0
 10 15  1  0  0  0
 11 12  1  0  0  0
 11103  1  0  0  0
 12 13  2  0  0  0
 12104  1  0  0  0
 13 14  1  0  0  0
 13 31  1  0  0  0
 14 15  2  0  0  0
 14105  1  0  0  0
 15106  1  0  0  0
 16 17  2  0  0  0
 16 21  1  0  0  0
 16 31  1  0  0  0
 17 18  1  0  0  0
 17107  1  0  0  0
 18 19  2  0  0  0
 18108  1  0  0  0
 19 20  1  0  0  0
 19 24  1  0  0  0
 20 21  2  0  0  0
 20109  1  0  0  0
 21 23  1  0  0  0
 22 28  1  0  0  0
 22 32  2  0  0  0
 26 27  1  0  0  0
 28110  1  0  0  0
 28111  1  0  0  0
 29112  1  0  0  0
 29113  1  0  0  0
 33 34  1  0  0  0
 33 66  1  0  0  0
 33 70  2  0  0  0
 34 36  1  0  0  0
 34 59  1  0  0  0
 34114  1  0  0  0
 35 44  2  0  0  0
 35 45  1  0  0  0
 35 68  1  0  0  0
 36 56  1  0  0  0
 36115  1  0  0  0
 37 39  1  0  0  0
 37 47  1  0  0  0
 37 66  1  0  0  0
 37116  1  0  0  0
 38 43  2  0  0  0
 38 46  1  0  0  0
 38 47  1  0  0  0
 39 64  1  0  0  0
 39 67  2  0  0  0
 40 52  1  0  0  0
 40 53  2  0  0  0
 40 58  1  0  0  0
 41117  1  0  0  0
 41118  1  0  0  0
 41119  1  0  0  0
 41 48  1  0  0  0
 42 43  1  0  0  0
 42 66  1  0  0  0
 42120  1  0  0  0
 42121  1  0  0  0
 43 44  1  0  0  0
 44122  1  0  0  0
 45 46  2  0  0  0
 45123  1  0  0  0
 46124  1  0  0  0
 47125  1  0  0  0
 47126  1  0  0  0
 48 56  1  0  0  0
 48 65  1  0  0  0
 48127  1  0  0  0
 49 50  1  0  0  0
 49 53  1  0  0  0
 49 64  1  0  0  0
 49128  1  0  0  0
 50 51  1  0  0  0
 50129  1  0  0  0
 50130  1  0  0  0
 51 52  1  0  0  0
 51131  1  0  0  0
 51132  1  0  0  0
 52133  1  0  0  0
 52134  1  0  0  0
 53 54  1  0  0  0
 54 55  2  0  0  0
 54135  1  0  0  0
 55 57  1  0  0  0
 55136  1  0  0  0
 56 69  2  0  0  0
 57 58  2  0  0  0
 57137  1  0  0  0
 58138  1  0  0  0
 59 60  1  0  0  0
 59 61  1  0  0  0
 59 62  1  0  0  0
 60139  1  0  0  0
 60140  1  0  0  0
 60141  1  0  0  0
 61142  1  0  0  0
 61143  1  0  0  0
 61144  1  0  0  0
 62145  1  0  0  0
 62146  1  0  0  0
 62147  1  0  0  0
 63 65  1  0  0  0
 63148  1  0  0  0
 63149  1  0  0  0
 63150  1  0  0  0
 64151  1  0  0  0
 65152  1  0  0  0
 68 90  1  0  0  0
 71 72  2  0  0  0
 71 74  1  0  0  0
 71153  1  0  0  0
 72 76  1  0  0  0
 72154  1  0  0  0
 73 75  1  0  0  0
 73 76  2  0  0  0
 73155  1  0  0  0
 74 75  2  0  0  0
 74 77  1  0  0  0
 75 78  1  0  0  0
 76 87  1  0  0  0
 77 79  1  0  0  0
 77156  1  0  0  0
 77157  1  0  0  0
 78 92  1  0  0  0
 78158  1  0  0  0
 78159  1  0  0  0
 79 83  1  0  0  0
 79160  1  0  0  0
 79161  1  0  0  0
 80 81  1  0  0  0
 80 82  1  0  0  0
 80162  1  0  0  0
 80163  1  0  0  0
 81 84  1  0  0  0
 81164  1  0  0  0
 81165  1  0  0  0
 82 91  1  0  0  0
 82166  1  0  0  0
 82167  1  0  0  0
 83 92  1  0  0  0
 83168  1  0  0  0
 83169  1  0  0  0
 84 85  1  0  0  0
 84 93  1  0  0  0
 84170  1  0  0  0
 85 88  1  0  0  0
 85 91  1  0  0  0
 85171  1  0  0  0
 86 93  1  0  0  0
 86172  1  0  0  0
 86173  1  0  0  0
 86174  1  0  0  0
 87 88  1  0  0  0
 87175  1  0  0  0
 87176  1  0  0  0
 88177  1  0  0  0
 88178  1  0  0  0
 89 90  1  0  0  0
 89179  1  0  0  0
 89180  1  0  0  0
 89 92  1  0  0  0
 90181  1  0  0  0
 90182  1  0  0  0
 92183  1  0  0  0
 93184  1  0  0  0
 93185  1  0  0  0
M  CHG  2  92   1  93   1
M  ISO  4   1 100  68 101  90 101  91 100
M  END
> <chiral flag>
0

> <version>
0

> <s_m_source_file>
/data/baiqing/PycharmProjects/Reinvent-master-3.2/result/LINK_invent/BTK/process_docking_weight1_custom_sum_contain_oxygen_bond_distance_aromatic_linkinvent_7_9_3/rearranged_h_0134.sdf

> <i_m_source_file_index>
62

> <r_mmod_Potential_Energy-OPLS-2005>
-24.8068809509277

> <r_mmod_Stretch_Energy-OPLS-2005>
43.4413452148438

> <r_mmod_Bend_Energy-OPLS-2005>
124.291236877441

> <r_mmod_Torsional_Energy-OPLS-2005>
400.570831298828

> <r_mmod_Improper_Torsional_Energy-OPLS-2005>
6.29724502563477

> <r_mmod_Van_der_Waal_Energy-OPLS-2005>
161.126693725586

> <r_mmod_Electrostatic_Energy-OPLS-2005>
63.3911018371582

> <r_mmod_Solvation_Energy-OPLS-2005>
-834.758239746094

> <b_mmod_Minimization_Converged-OPLS-2005>
0

> <r_mmod_RMS_Derivative-OPLS-2005>
3.21947407722473

$$$$
62
                    3D
 Structure written by MMmdl.
158168  0  0  1  0            999 V2000
  -30.7240  -14.4503   20.5604 C   0  0  0  0  0  0
  -30.4198  -12.2897   19.4270 C   0  0  0  0  0  0
  -29.4944  -12.4986   18.2111 C   0  0  0  0  0  0
  -28.0166  -12.3628   18.6229 C   0  0  0  0  0  0
  -27.6629  -13.2067   19.8761 C   0  0  2  0  0  0
  -28.7046  -12.9928   20.9988 C   0  0  0  0  0  0
  -25.2614  -13.8162   20.5719 C   0  0  0  0  0  0
  -24.1849  -13.0441   20.9175 C   0  0  0  0  0  0
  -24.6392  -11.6905   20.8730 C   0  0  0  0  0  0
  -23.9043  -10.4297   21.0393 C   0  0  0  0  0  0
  -24.3600   -9.4221   21.9169 C   0  0  0  0  0  0
  -23.6282   -8.2251   22.0745 C   0  0  0  0  0  0
  -22.4261   -8.0290   21.3542 C   0  0  0  0  0  0
  -21.9880   -9.0262   20.4648 C   0  0  0  0  0  0
  -22.7205  -10.2140   20.3057 C   0  0  0  0  0  0
  -21.6857   -6.0726   22.5272 C   0  0  0  0  0  0
  -21.4018   -6.5628   23.8203 C   0  0  0  0  0  0
  -21.3661   -5.6789   24.9169 C   0  0  0  0  0  0
  -21.6047   -4.3052   24.7222 C   0  0  0  0  0  0
  -21.8824   -3.8132   23.4342 C   0  0  0  0  0  0
  -21.9198   -4.6951   22.3397 C   0  0  0  0  0  0
  -22.7870  -13.5247   21.1830 C   0  0  0  0  0  0
  -22.1665   -4.2140   21.0975 F   0  0  0  0  0  0
  -21.5624   -3.4531   25.7729 F   0  0  0  0  0  0
  -30.0414  -13.2787   20.4486 N   0  0  0  0  0  0
  -26.3036  -12.9327   20.3384 N   0  0  0  0  0  0
  -25.9323  -11.6480   20.5764 N   0  0  0  0  0  0
  -22.0496  -12.8274   22.0400 N   0  0  0  0  0  0
  -25.4378  -15.1891   20.4191 N   0  0  0  0  0  0
  -31.8665  -14.5872   20.1112 O   0  0  0  0  0  0
  -21.6645   -6.8874   21.4231 O   0  0  0  0  0  0
  -22.3563  -14.5547   20.6664 O   0  0  0  0  0  0
  -24.6133  -31.8697   23.2093 C   0  0  0  0  0  0
  -25.9033  -32.4825   23.8394 C   0  0  1  0  0  0
  -27.2464  -27.4489   20.0835 C   0  0  0  0  0  0
  -25.5894  -33.8624   24.2329 N   0  0  0  0  0  0
  -23.4003  -30.4923   21.5496 C   0  0  2  0  0  0
  -24.8460  -28.9592   20.1128 C   0  0  0  0  0  0
  -22.7406  -29.4661   22.4982 C   0  0  0  0  0  0
  -18.0279  -28.1371   22.8488 C   0  0  0  0  0  0
  -24.1484  -36.7320   23.2629 C   0  0  0  0  0  0
  -25.9278  -30.8378   21.3609 C   0  0  0  0  0  0
  -26.0038  -29.4731   20.7073 C   0  0  0  0  0  0
  -27.1991  -28.7217   20.6946 C   0  0  0  0  0  0
  -26.0586  -26.9367   19.5054 C   0  0  0  0  0  0
  -24.8672  -27.6879   19.5144 C   0  0  0  0  0  0
  -23.6070  -29.8245   20.1631 C   0  0  0  0  0  0
  -25.4098  -36.3114   24.0333 C   0  0  1  0  0  0
  -20.5864  -28.3663   23.1308 C   0  0  2  0  0  0
  -20.6767  -26.9402   22.5400 C   0  0  0  0  0  0
  -19.5737  -26.6379   21.5205 C   0  0  0  0  0  0
  -18.1923  -26.7915   22.1630 C   0  0  0  0  0  0
  -19.1525  -28.8835   23.2896 C   0  0  0  0  0  0
  -18.9455  -30.1434   23.8914 C   0  0  0  0  0  0
  -17.6456  -30.6579   24.0563 C   0  0  0  0  0  0
  -25.9036  -34.9478   23.5130 C   0  0  0  0  0  0
  -16.5350  -29.9077   23.6324 C   0  0  0  0  0  0
  -16.7267  -28.6492   23.0353 C   0  0  0  0  0  0
  -26.4459  -31.6606   25.0724 C   0  0  0  0  0  0
  -25.3756  -31.3786   26.1525 C   0  0  0  0  0  0
  -27.0209  -30.3013   24.6104 C   0  0  0  0  0  0
  -27.6095  -32.4283   25.7435 C   0  0  0  0  0  0
  -27.5583  -37.1800   24.8457 C   0  0  0  0  0  0
  -21.4137  -29.3031   22.3724 N   0  0  0  0  0  0
  -26.4286  -37.3795   23.9416 N   0  0  0  0  0  0
  -24.6652  -31.0802   22.0989 N   0  0  0  0  0  0
  -23.4180  -28.8214   23.3036 O   0  0  0  0  0  0
  -28.4498  -26.7701   20.1334 O   0  0  0  0  0  0
  -26.5610  -34.8933   22.4704 O   0  0  0  0  0  0
  -23.5331  -32.1462   23.7490 O   0  0  0  0  0  0
  -30.7016  -23.5551   21.8321 C   0  0  0  0  0  0
  -30.7043  -22.2919   21.2039 C   0  0  0  0  0  0
  -29.1930  -19.1141   21.0976 C   0  0  0  0  0  0
  -30.0614  -24.6551   21.2212 C   0  0  0  0  0  0
  -29.2706  -17.7469   21.4621 C   0  0  0  0  0  0
  -29.4416  -23.2376   19.3469 C   0  0  0  0  0  0
  -30.0613  -22.1254   19.9573 C   0  0  0  0  0  0
  -29.9998  -19.5164   20.0234 C   0  0  0  0  0  0
  -29.4224  -24.5025   19.9704 C   0  0  0  0  0  0
  -30.1242  -16.8550   20.7545 C   0  0  0  0  0  0
  -30.8303  -18.6090   19.4144 C   0  0  0  0  0  0
  -31.2599  -20.5271   18.3163 C   0  0  0  0  0  0
  -30.0310  -20.7862   19.2273 C   0  0  2  0  0  0
  -28.7346  -25.6684   19.2640 C   0  0  0  0  0  0
  -30.9128  -17.3109   19.7424 N   0  0  0  0  0  0
  -30.0356  -15.4745   21.1030 N   0  0  0  0  0  0
  -31.5213  -19.1103   18.3498 O   0  0  0  0  0  0
  -31.4653  -12.3713   19.1233 H   0  0  0  0  0  0
  -30.3088  -11.2803   19.8274 H   0  0  0  0  0  0
  -29.7311  -11.7746   17.4308 H   0  0  0  0  0  0
  -29.6696  -13.4862   17.7803 H   0  0  0  0  0  0
  -27.8293  -11.3063   18.8218 H   0  0  0  0  0  0
  -27.3663  -12.6335   17.7909 H   0  0  0  0  0  0
  -27.7064  -14.2536   19.5752 H   0  0  0  0  0  0
  -28.6707  -11.9602   21.3500 H   0  0  0  0  0  0
  -28.4710  -13.6045   21.8714 H   0  0  0  0  0  0
  -25.2736   -9.5704   22.4745 H   0  0  0  0  0  0
  -24.0004   -7.4642   22.7461 H   0  0  0  0  0  0
  -21.0796   -8.8770   19.8964 H   0  0  0  0  0  0
  -22.3641  -10.9681   19.6184 H   0  0  0  0  0  0
  -21.2009   -7.6138   23.9704 H   0  0  0  0  0  0
  -21.1475   -6.0515   25.9075 H   0  0  0  0  0  0
  -22.0601   -2.7594   23.2849 H   0  0  0  0  0  0
  -22.4096  -11.9962   22.4846 H   0  0  0  0  0  0
  -21.1125  -13.1340   22.2596 H   0  0  0  0  0  0
  -24.6786  -15.8506   20.5420 H   0  0  0  0  0  0
  -26.2960  -15.6270   20.1085 H   0  0  0  0  0  0
  -26.7106  -32.5540   23.1165 H   0  0  0  0  0  0
  -25.0066  -33.9786   25.0486 H   0  0  0  0  0  0
  -22.6890  -31.3089   21.4106 H   0  0  0  0  0  0
  -23.3748  -35.9643   23.3245 H   0  0  0  0  0  0
  -24.3600  -36.8987   22.2054 H   0  0  0  0  0  0
  -23.7217  -37.6500   23.6681 H   0  0  0  0  0  0
  -26.0399  -31.6055   20.5937 H   0  0  0  0  0  0
  -26.8164  -30.8899   21.9785 H   0  0  0  0  0  0
  -28.0943  -29.1168   21.1550 H   0  0  0  0  0  0
  -26.0057  -25.9539   19.0650 H   0  0  0  0  0  0
  -23.9714  -27.2760   19.0680 H   0  0  0  0  0  0
  -23.7151  -30.5999   19.4037 H   0  0  0  0  0  0
  -22.7308  -29.2452   19.8669 H   0  0  0  0  0  0
  -25.1258  -36.1976   25.0819 H   0  0  0  0  0  0
  -20.9956  -28.3232   24.1426 H   0  0  0  0  0  0
  -20.5669  -26.2276   23.3587 H   0  0  0  0  0  0
  -21.6645  -26.7453   22.1196 H   0  0  0  0  0  0
  -19.6897  -25.6295   21.1219 H   0  0  0  0  0  0
  -19.6645  -27.3201   20.6740 H   0  0  0  0  0  0
  -17.4178  -26.6643   21.4052 H   0  0  0  0  0  0
  -18.0339  -26.0063   22.9038 H   0  0  0  0  0  0
  -19.7934  -30.7243   24.2295 H   0  0  0  0  0  0
  -17.5016  -31.6265   24.5152 H   0  0  0  0  0  0
  -15.5351  -30.2986   23.7631 H   0  0  0  0  0  0
  -15.8669  -28.0805   22.7070 H   0  0  0  0  0  0
  -24.5748  -30.7349   25.7875 H   0  0  0  0  0  0
  -24.9190  -32.3003   26.5148 H   0  0  0  0  0  0
  -25.8092  -30.8762   27.0180 H   0  0  0  0  0  0
  -26.2697  -29.6811   24.1199 H   0  0  0  0  0  0
  -27.3974  -29.7236   25.4556 H   0  0  0  0  0  0
  -27.8563  -30.4272   23.9214 H   0  0  0  0  0  0
  -27.2795  -33.3636   26.1971 H   0  0  0  0  0  0
  -28.3908  -32.6741   25.0229 H   0  0  0  0  0  0
  -28.0733  -31.8409   26.5372 H   0  0  0  0  0  0
  -28.2602  -38.0099   24.7522 H   0  0  0  0  0  0
  -28.1078  -36.2638   24.6241 H   0  0  0  0  0  0
  -27.2320  -37.1410   25.8866 H   0  0  0  0  0  0
  -20.9296  -29.8771   21.6961 H   0  0  0  0  0  0
  -26.0174  -38.2867   24.1433 H   0  0  0  0  0  0
  -31.1941  -23.6814   22.7864 H   0  0  0  0  0  0
  -31.2032  -21.4583   21.6793 H   0  0  0  0  0  0
  -28.5141  -19.7986   21.5854 H   0  0  0  0  0  0
  -30.0674  -25.6157   21.7158 H   0  0  0  0  0  0
  -28.6354  -17.3865   22.2600 H   0  0  0  0  0  0
  -28.9715  -23.1203   18.3800 H   0  0  0  0  0  0
  -32.1466  -21.0250   18.7114 H   0  0  0  0  0  0
  -31.0968  -20.8916   17.3020 H   0  0  0  0  0  0
  -29.1336  -20.7615   18.6075 H   0  0  0  0  0  0
  -27.8806  -25.2743   18.7224 H   0  0  0  0  0  0
  -29.4180  -26.0351   18.4971 H   0  0  0  0  0  0
  -29.2030  -15.2077   21.6014 H   0  0  0  0  0  0
  1 25  1  0  0  0
  1 30  2  0  0  0
  1 86  1  0  0  0
  2  3  1  0  0  0
  2 25  1  0  0  0
  2 88  1  0  0  0
  2 89  1  0  0  0
  3  4  1  0  0  0
  3 90  1  0  0  0
  3 91  1  0  0  0
  4  5  1  0  0  0
  4 92  1  0  0  0
  4 93  1  0  0  0
  5  6  1  0  0  0
  5 26  1  0  0  0
  5 94  1  0  0  0
  6 25  1  0  0  0
  6 95  1  0  0  0
  6 96  1  0  0  0
  7  8  2  0  0  0
  7 26  1  0  0  0
  7 29  1  0  0  0
  8  9  1  0  0  0
  8 22  1  0  0  0
  9 10  1  0  0  0
  9 27  2  0  0  0
 10 11  2  0  0  0
 10 15  1  0  0  0
 11 12  1  0  0  0
 11 97  1  0  0  0
 12 13  2  0  0  0
 12 98  1  0  0  0
 13 14  1  0  0  0
 13 31  1  0  0  0
 14 15  2  0  0  0
 14 99  1  0  0  0
 15100  1  0  0  0
 16 17  2  0  0  0
 16 21  1  0  0  0
 16 31  1  0  0  0
 17 18  1  0  0  0
 17101  1  0  0  0
 18 19  2  0  0  0
 18102  1  0  0  0
 19 20  1  0  0  0
 19 24  1  0  0  0
 20 21  2  0  0  0
 20103  1  0  0  0
 21 23  1  0  0  0
 22 28  1  0  0  0
 22 32  2  0  0  0
 26 27  1  0  0  0
 28104  1  0  0  0
 28105  1  0  0  0
 29106  1  0  0  0
 29107  1  0  0  0
 33 34  1  0  0  0
 33 66  1  0  0  0
 33 70  2  0  0  0
 34 36  1  0  0  0
 34 59  1  0  0  0
 34108  1  0  0  0
 35 44  2  0  0  0
 35 45  1  0  0  0
 35 68  1  0  0  0
 36 56  1  0  0  0
 36109  1  0  0  0
 37 39  1  0  0  0
 37 47  1  0  0  0
 37 66  1  0  0  0
 37110  1  0  0  0
 38 43  2  0  0  0
 38 46  1  0  0  0
 38 47  1  0  0  0
 39 64  1  0  0  0
 39 67  2  0  0  0
 40 52  1  0  0  0
 40 53  2  0  0  0
 40 58  1  0  0  0
 41111  1  0  0  0
 41112  1  0  0  0
 41113  1  0  0  0
 41 48  1  0  0  0
 42 43  1  0  0  0
 42 66  1  0  0  0
 42114  1  0  0  0
 42115  1  0  0  0
 43 44  1  0  0  0
 44116  1  0  0  0
 45 46  2  0  0  0
 45117  1  0  0  0
 46118  1  0  0  0
 47119  1  0  0  0
 47120  1  0  0  0
 48 56  1  0  0  0
 48 65  1  0  0  0
 48121  1  0  0  0
 49 50  1  0  0  0
 49 53  1  0  0  0
 49 64  1  0  0  0
 49122  1  0  0  0
 50 51  1  0  0  0
 50123  1  0  0  0
 50124  1  0  0  0
 51 52  1  0  0  0
 51125  1  0  0  0
 51126  1  0  0  0
 52127  1  0  0  0
 52128  1  0  0  0
 53 54  1  0  0  0
 54 55  2  0  0  0
 54129  1  0  0  0
 55 57  1  0  0  0
 55130  1  0  0  0
 56 69  2  0  0  0
 57 58  2  0  0  0
 57131  1  0  0  0
 58132  1  0  0  0
 59 60  1  0  0  0
 59 61  1  0  0  0
 59 62  1  0  0  0
 60133  1  0  0  0
 60134  1  0  0  0
 60135  1  0  0  0
 61136  1  0  0  0
 61137  1  0  0  0
 61138  1  0  0  0
 62139  1  0  0  0
 62140  1  0  0  0
 62141  1  0  0  0
 63 65  1  0  0  0
 63142  1  0  0  0
 63143  1  0  0  0
 63144  1  0  0  0
 64145  1  0  0  0
 65146  1  0  0  0
 68 84  1  0  0  0
 71 72  2  0  0  0
 71 74  1  0  0  0
 71147  1  0  0  0
 72 77  1  0  0  0
 72148  1  0  0  0
 73 75  2  0  0  0
 73 78  1  0  0  0
 73149  1  0  0  0
 74 79  2  0  0  0
 74150  1  0  0  0
 75 80  1  0  0  0
 75151  1  0  0  0
 76 77  2  0  0  0
 76 79  1  0  0  0
 76152  1  0  0  0
 77 83  1  0  0  0
 78 81  2  0  0  0
 78 83  1  0  0  0
 79 84  1  0  0  0
 80 85  2  0  0  0
 80 86  1  0  0  0
 81 85  1  0  0  0
 81 87  1  0  0  0
 82 83  1  0  0  0
 82 87  1  0  0  0
 82153  1  0  0  0
 82154  1  0  0  0
 83155  1  0  0  0
 84156  1  0  0  0
 84157  1  0  0  0
 86158  1  0  0  0
M  ISO  4   1 100  68 101  84 101  86 100
M  END
> <chiral flag>
0

> <version>
0

> <s_m_source_file>
/data/baiqing/PycharmProjects/Reinvent-master-3.2/result/LINK_invent/BTK/process_docking_weight1_custom_sum_contain_oxygen_bond_distance_aromatic_linkinvent_7_9_3/rearranged_h_0134.sdf

> <i_m_source_file_index>
63

> <r_mmod_Potential_Energy-OPLS-2005>
-119.078460693359

> <r_mmod_Stretch_Energy-OPLS-2005>
40.2646217346191

> <r_mmod_Bend_Energy-OPLS-2005>
154.674682617188

> <r_mmod_Torsional_Energy-OPLS-2005>
224.647537231445

> <r_mmod_Improper_Torsional_Energy-OPLS-2005>
4.6038818359375

> <r_mmod_Van_der_Waal_Energy-OPLS-2005>
174.113006591797

> <r_mmod_Electrostatic_Energy-OPLS-2005>
-490.775756835938

> <r_mmod_Solvation_Energy-OPLS-2005>
-240.416595458984

> <b_mmod_Minimization_Converged-OPLS-2005>
0

> <r_mmod_RMS_Derivative-OPLS-2005>
2.09196138381958

$$$$
63
                    3D
 Structure written by MMmdl.
160168  0  0  1  0            999 V2000
  -30.6721  -14.4670   20.5531 C   0  0  0  0  0  0
  -30.4303  -12.2935   19.4306 C   0  0  0  0  0  0
  -29.5009  -12.5007   18.2148 C   0  0  0  0  0  0
  -28.0199  -12.3617   18.6219 C   0  0  0  0  0  0
  -27.6654  -13.1974   19.8811 C   0  0  2  0  0  0
  -28.7041  -12.9625   21.0044 C   0  0  0  0  0  0
  -25.2604  -13.8146   20.5673 C   0  0  0  0  0  0
  -24.1841  -13.0439   20.9172 C   0  0  0  0  0  0
  -24.6383  -11.6903   20.8737 C   0  0  0  0  0  0
  -23.9050  -10.4294   21.0413 C   0  0  0  0  0  0
  -24.3608   -9.4210   21.9185 C   0  0  0  0  0  0
  -23.6288   -8.2243   22.0753 C   0  0  0  0  0  0
  -22.4268   -8.0281   21.3549 C   0  0  0  0  0  0
  -21.9902   -9.0255   20.4649 C   0  0  0  0  0  0
  -22.7228  -10.2137   20.3060 C   0  0  0  0  0  0
  -21.6850   -6.0737   22.5281 C   0  0  0  0  0  0
  -21.4011   -6.5640   23.8216 C   0  0  0  0  0  0
  -21.3660   -5.6792   24.9176 C   0  0  0  0  0  0
  -21.6044   -4.3055   24.7226 C   0  0  0  0  0  0
  -21.8819   -3.8149   23.4345 C   0  0  0  0  0  0
  -21.9194   -4.6966   22.3403 C   0  0  0  0  0  0
  -22.7868  -13.5251   21.1834 C   0  0  0  0  0  0
  -22.1661   -4.2153   21.0980 F   0  0  0  0  0  0
  -21.5629   -3.4539   25.7738 F   0  0  0  0  0  0
  -30.0413  -13.2664   20.4629 N   0  0  0  0  0  0
  -26.3034  -12.9292   20.3377 N   0  0  0  0  0  0
  -25.9305  -11.6467   20.5770 N   0  0  0  0  0  0
  -22.0498  -12.8259   22.0392 N   0  0  0  0  0  0
  -25.4348  -15.1858   20.4076 N   0  0  0  0  0  0
  -31.7928  -14.6841   20.0829 O   0  0  0  0  0  0
  -21.6635   -6.8878   21.4242 O   0  0  0  0  0  0
  -22.3564  -14.5561   20.6682 O   0  0  0  0  0  0
  -24.6132  -31.8683   23.2098 C   0  0  0  0  0  0
  -25.9035  -32.4821   23.8388 C   0  0  1  0  0  0
  -27.2356  -27.4342   20.1008 C   0  0  0  0  0  0
  -25.5893  -33.8619   24.2322 N   0  0  0  0  0  0
  -23.4011  -30.4922   21.5493 C   0  0  2  0  0  0
  -24.8469  -28.9569   20.1134 C   0  0  0  0  0  0
  -22.7403  -29.4663   22.4982 C   0  0  0  0  0  0
  -18.0275  -28.1376   22.8499 C   0  0  0  0  0  0
  -24.1487  -36.7315   23.2640 C   0  0  0  0  0  0
  -25.9289  -30.8342   21.3621 C   0  0  0  0  0  0
  -26.0056  -29.4687   20.7098 C   0  0  0  0  0  0
  -27.2005  -28.7149   20.6984 C   0  0  0  0  0  0
  -26.0595  -26.9409   19.4884 C   0  0  0  0  0  0
  -24.8686  -27.6925   19.4997 C   0  0  0  0  0  0
  -23.6088  -29.8230   20.1640 C   0  0  0  0  0  0
  -25.4109  -36.3110   24.0338 C   0  0  1  0  0  0
  -20.5862  -28.3663   23.1313 C   0  0  2  0  0  0
  -20.6760  -26.9398   22.5416 C   0  0  0  0  0  0
  -19.5738  -26.6384   21.5212 C   0  0  0  0  0  0
  -18.1918  -26.7925   22.1626 C   0  0  0  0  0  0
  -19.1524  -28.8836   23.2906 C   0  0  0  0  0  0
  -18.9455  -30.1441   23.8915 C   0  0  0  0  0  0
  -17.6456  -30.6582   24.0568 C   0  0  0  0  0  0
  -25.9033  -34.9475   23.5129 C   0  0  0  0  0  0
  -16.5348  -29.9087   23.6321 C   0  0  0  0  0  0
  -16.7264  -28.6504   23.0347 C   0  0  0  0  0  0
  -26.4472  -31.6599   25.0712 C   0  0  0  0  0  0
  -25.3748  -31.3704   26.1467 C   0  0  0  0  0  0
  -27.0301  -30.3045   24.6079 C   0  0  0  0  0  0
  -27.6049  -32.4318   25.7478 C   0  0  0  0  0  0
  -27.5580  -37.1811   24.8465 C   0  0  0  0  0  0
  -21.4132  -29.3035   22.3721 N   0  0  0  0  0  0
  -26.4295  -37.3792   23.9409 N   0  0  0  0  0  0
  -24.6664  -31.0790   22.0991 N   0  0  0  0  0  0
  -23.4176  -28.8206   23.3024 O   0  0  0  0  0  0
  -28.4182  -26.7212   20.1331 O   0  0  0  0  0  0
  -26.5591  -34.8928   22.4686 O   0  0  0  0  0  0
  -23.5327  -32.1432   23.7497 O   0  0  0  0  0  0
  -28.8952  -22.2492   21.3947 C   0  0  0  0  0  0
  -29.7046  -23.1668   20.6960 C   0  0  0  0  0  0
  -29.1150  -20.8590   21.2487 C   0  0  0  0  0  0
  -30.7174  -22.6391   19.8669 C   0  0  0  0  0  0
  -30.1734  -20.4305   20.4085 C   0  0  0  0  0  0
  -28.1730  -19.9082   21.9707 C   0  0  0  0  0  0
  -31.6540  -23.5248   19.0661 C   0  0  0  0  0  0
  -29.4986  -24.6758   20.8771 C   0  0  0  0  0  0
  -30.4834  -17.9532   20.9915 C   0  0  0  0  0  0
  -29.8005  -16.7706   20.2743 C   0  0  0  0  0  0
  -28.3751  -25.2902   20.0142 C   0  0  0  0  0  0
  -30.9335  -21.3121   19.7371 N   0  0  0  0  0  0
  -30.5233  -19.1094   20.0942 N   0  0  0  0  0  0
  -29.8775  -15.4726   20.9552 N   0  0  0  0  0  0
  -31.4750  -12.3987   19.1322 H   0  0  0  0  0  0
  -30.3343  -11.2793   19.8205 H   0  0  0  0  0  0
  -29.7407  -11.7800   17.4319 H   0  0  0  0  0  0
  -29.6700  -13.4882   17.7829 H   0  0  0  0  0  0
  -27.8262  -11.3054   18.8129 H   0  0  0  0  0  0
  -27.3725  -12.6412   17.7893 H   0  0  0  0  0  0
  -27.7140  -14.2459   19.5871 H   0  0  0  0  0  0
  -28.6730  -11.9239   21.3369 H   0  0  0  0  0  0
  -28.4675  -13.5561   21.8886 H   0  0  0  0  0  0
  -25.2756   -9.5686   22.4757 H   0  0  0  0  0  0
  -24.0001   -7.4636   22.7469 H   0  0  0  0  0  0
  -21.0834   -8.8781   19.8953 H   0  0  0  0  0  0
  -22.3693  -10.9679   19.6169 H   0  0  0  0  0  0
  -21.2000   -7.6148   23.9724 H   0  0  0  0  0  0
  -21.1480   -6.0518   25.9081 H   0  0  0  0  0  0
  -22.0597   -2.7610   23.2846 H   0  0  0  0  0  0
  -22.4102  -11.9925   22.4795 H   0  0  0  0  0  0
  -21.1119  -13.1299   22.2592 H   0  0  0  0  0  0
  -24.6676  -15.8415   20.5077 H   0  0  0  0  0  0
  -26.2852  -15.6219   20.0744 H   0  0  0  0  0  0
  -26.7104  -32.5536   23.1149 H   0  0  0  0  0  0
  -25.0063  -33.9780   25.0481 H   0  0  0  0  0  0
  -22.6895  -31.3091   21.4094 H   0  0  0  0  0  0
  -23.3742  -35.9653   23.3313 H   0  0  0  0  0  0
  -24.3584  -36.8917   22.2051 H   0  0  0  0  0  0
  -23.7244  -37.6528   23.6645 H   0  0  0  0  0  0
  -26.0392  -31.5991   20.5923 H   0  0  0  0  0  0
  -26.8182  -30.8885   21.9790 H   0  0  0  0  0  0
  -28.0951  -29.1073   21.1626 H   0  0  0  0  0  0
  -26.0472  -25.9814   18.9926 H   0  0  0  0  0  0
  -23.9788  -27.2943   19.0313 H   0  0  0  0  0  0
  -23.7169  -30.5966   19.4028 H   0  0  0  0  0  0
  -22.7334  -29.2412   19.8691 H   0  0  0  0  0  0
  -25.1285  -36.1980   25.0831 H   0  0  0  0  0  0
  -20.9965  -28.3236   24.1428 H   0  0  0  0  0  0
  -20.5655  -26.2278   23.3610 H   0  0  0  0  0  0
  -21.6635  -26.7436   22.1216 H   0  0  0  0  0  0
  -19.6899  -25.6300   21.1230 H   0  0  0  0  0  0
  -19.6675  -27.3207   20.6752 H   0  0  0  0  0  0
  -17.4191  -26.6682   21.4024 H   0  0  0  0  0  0
  -18.0317  -26.0059   22.9014 H   0  0  0  0  0  0
  -19.7931  -30.7252   24.2294 H   0  0  0  0  0  0
  -17.5012  -31.6263   24.5167 H   0  0  0  0  0  0
  -15.5347  -30.2995   23.7630 H   0  0  0  0  0  0
  -15.8667  -28.0825   22.7046 H   0  0  0  0  0  0
  -24.5915  -30.7052   25.7815 H   0  0  0  0  0  0
  -24.8942  -32.2859   26.4928 H   0  0  0  0  0  0
  -25.8110  -30.8872   27.0217 H   0  0  0  0  0  0
  -26.2838  -29.6807   24.1142 H   0  0  0  0  0  0
  -27.4092  -29.7278   25.4527 H   0  0  0  0  0  0
  -27.8664  -30.4371   23.9210 H   0  0  0  0  0  0
  -27.2664  -33.3604   26.2089 H   0  0  0  0  0  0
  -28.3844  -32.6902   25.0297 H   0  0  0  0  0  0
  -28.0733  -31.8420   26.5368 H   0  0  0  0  0  0
  -28.2607  -38.0100   24.7505 H   0  0  0  0  0  0
  -28.1066  -36.2631   24.6298 H   0  0  0  0  0  0
  -27.2297  -37.1474   25.8867 H   0  0  0  0  0  0
  -20.9287  -29.8768   21.6958 H   0  0  0  0  0  0
  -26.0185  -38.2873   24.1405 H   0  0  0  0  0  0
  -28.1030  -22.6120   22.0348 H   0  0  0  0  0  0
  -27.2218  -20.3944   22.1906 H   0  0  0  0  0  0
  -28.6049  -19.5884   22.9194 H   0  0  0  0  0  0
  -27.9507  -19.0309   21.3641 H   0  0  0  0  0  0
  -32.1866  -22.9562   18.3027 H   0  0  0  0  0  0
  -32.3970  -23.9776   19.7232 H   0  0  0  0  0  0
  -31.1071  -24.3212   18.5611 H   0  0  0  0  0  0
  -30.4323  -25.2033   20.6861 H   0  0  0  0  0  0
  -29.2786  -24.8650   21.9286 H   0  0  0  0  0  0
  -31.5159  -17.6849   21.2202 H   0  0  0  0  0  0
  -30.0160  -18.1702   21.9485 H   0  0  0  0  0  0
  -30.2091  -16.6673   19.2659 H   0  0  0  0  0  0
  -28.7443  -17.0017   20.1338 H   0  0  0  0  0  0
  -28.5040  -25.0216   18.9650 H   0  0  0  0  0  0
  -27.4247  -24.8719   20.3495 H   0  0  0  0  0  0
  -31.2567  -19.0566   19.3964 H   0  0  0  0  0  0
  -29.0236  -15.1720   21.4015 H   0  0  0  0  0  0
  1 25  1  0  0  0
  1 30  2  0  0  0
  1 84  1  0  0  0
  2  3  1  0  0  0
  2 25  1  0  0  0
  2 85  1  0  0  0
  2 86  1  0  0  0
  3  4  1  0  0  0
  3 87  1  0  0  0
  3 88  1  0  0  0
  4  5  1  0  0  0
  4 89  1  0  0  0
  4 90  1  0  0  0
  5  6  1  0  0  0
  5 26  1  0  0  0
  5 91  1  0  0  0
  6 25  1  0  0  0
  6 92  1  0  0  0
  6 93  1  0  0  0
  7  8  2  0  0  0
  7 26  1  0  0  0
  7 29  1  0  0  0
  8  9  1  0  0  0
  8 22  1  0  0  0
  9 10  1  0  0  0
  9 27  2  0  0  0
 10 11  2  0  0  0
 10 15  1  0  0  0
 11 12  1  0  0  0
 11 94  1  0  0  0
 12 13  2  0  0  0
 12 95  1  0  0  0
 13 14  1  0  0  0
 13 31  1  0  0  0
 14 15  2  0  0  0
 14 96  1  0  0  0
 15 97  1  0  0  0
 16 17  2  0  0  0
 16 21  1  0  0  0
 16 31  1  0  0  0
 17 18  1  0  0  0
 17 98  1  0  0  0
 18 19  2  0  0  0
 18 99  1  0  0  0
 19 20  1  0  0  0
 19 24  1  0  0  0
 20 21  2  0  0  0
 20100  1  0  0  0
 21 23  1  0  0  0
 22 28  1  0  0  0
 22 32  2  0  0  0
 26 27  1  0  0  0
 28101  1  0  0  0
 28102  1  0  0  0
 29103  1  0  0  0
 29104  1  0  0  0
 33 34  1  0  0  0
 33 66  1  0  0  0
 33 70  2  0  0  0
 34 36  1  0  0  0
 34 59  1  0  0  0
 34105  1  0  0  0
 35 44  2  0  0  0
 35 45  1  0  0  0
 35 68  1  0  0  0
 36 56  1  0  0  0
 36106  1  0  0  0
 37 39  1  0  0  0
 37 47  1  0  0  0
 37 66  1  0  0  0
 37107  1  0  0  0
 38 43  2  0  0  0
 38 46  1  0  0  0
 38 47  1  0  0  0
 39 64  1  0  0  0
 39 67  2  0  0  0
 40 52  1  0  0  0
 40 53  2  0  0  0
 40 58  1  0  0  0
 41108  1  0  0  0
 41109  1  0  0  0
 41110  1  0  0  0
 41 48  1  0  0  0
 42 43  1  0  0  0
 42 66  1  0  0  0
 42111  1  0  0  0
 42112  1  0  0  0
 43 44  1  0  0  0
 44113  1  0  0  0
 45 46  2  0  0  0
 45114  1  0  0  0
 46115  1  0  0  0
 47116  1  0  0  0
 47117  1  0  0  0
 48 56  1  0  0  0
 48 65  1  0  0  0
 48118  1  0  0  0
 49 50  1  0  0  0
 49 53  1  0  0  0
 49 64  1  0  0  0
 49119  1  0  0  0
 50 51  1  0  0  0
 50120  1  0  0  0
 50121  1  0  0  0
 51 52  1  0  0  0
 51122  1  0  0  0
 51123  1  0  0  0
 52124  1  0  0  0
 52125  1  0  0  0
 53 54  1  0  0  0
 54 55  2  0  0  0
 54126  1  0  0  0
 55 57  1  0  0  0
 55127  1  0  0  0
 56 69  2  0  0  0
 57 58  2  0  0  0
 57128  1  0  0  0
 58129  1  0  0  0
 59 60  1  0  0  0
 59 61  1  0  0  0
 59 62  1  0  0  0
 60130  1  0  0  0
 60131  1  0  0  0
 60132  1  0  0  0
 61133  1  0  0  0
 61134  1  0  0  0
 61135  1  0  0  0
 62136  1  0  0  0
 62137  1  0  0  0
 62138  1  0  0  0
 63 65  1  0  0  0
 63139  1  0  0  0
 63140  1  0  0  0
 63141  1  0  0  0
 64142  1  0  0  0
 65143  1  0  0  0
 68 81  1  0  0  0
 71 72  2  0  0  0
 71 73  1  0  0  0
 71144  1  0  0  0
 72 74  1  0  0  0
 72 78  1  0  0  0
 73 75  2  0  0  0
 73 76  1  0  0  0
 74 77  1  0  0  0
 74 82  2  0  0  0
 75 82  1  0  0  0
 75 83  1  0  0  0
 76145  1  0  0  0
 76146  1  0  0  0
 76147  1  0  0  0
 77148  1  0  0  0
 77149  1  0  0  0
 77150  1  0  0  0
 78 81  1  0  0  0
 78151  1  0  0  0
 78152  1  0  0  0
 79 80  1  0  0  0
 79 83  1  0  0  0
 79153  1  0  0  0
 79154  1  0  0  0
 80 84  1  0  0  0
 80155  1  0  0  0
 80156  1  0  0  0
 81157  1  0  0  0
 81158  1  0  0  0
 83159  1  0  0  0
 84160  1  0  0  0
M  ISO  4   1 100  68 101  81 101  84 100
M  END
> <chiral flag>
0

> <version>
0

> <s_m_source_file>
/data/baiqing/PycharmProjects/Reinvent-master-3.2/result/LINK_invent/BTK/process_docking_weight1_custom_sum_contain_oxygen_bond_distance_aromatic_linkinvent_7_9_3/rearranged_h_0134.sdf

> <i_m_source_file_index>
64

> <r_mmod_Potential_Energy-OPLS-2005>
-377.102233886719

> <r_mmod_Stretch_Energy-OPLS-2005>
35.2272567749023

> <r_mmod_Bend_Energy-OPLS-2005>
123.287124633789

> <r_mmod_Torsional_Energy-OPLS-2005>
212.851669311523

> <r_mmod_Improper_Torsional_Energy-OPLS-2005>
11.0668992996216

> <r_mmod_Van_der_Waal_Energy-OPLS-2005>
157.533203125

> <r_mmod_Electrostatic_Energy-OPLS-2005>
-691.859802246094

> <r_mmod_Solvation_Energy-OPLS-2005>
-238.089111328125

> <b_mmod_Minimization_Converged-OPLS-2005>
0

> <r_mmod_RMS_Derivative-OPLS-2005>
0.965157449245453

$$$$
64
                    3D
 Structure written by MMmdl.
174183  0  0  1  0            999 V2000
  -30.5918  -14.6923   20.5212 C   0  0  0  0  0  0
  -30.4520  -12.4308   19.4481 C   0  0  0  0  0  0
  -29.5099  -12.5093   18.2229 C   0  0  0  0  0  0
  -28.0332  -12.3355   18.6367 C   0  0  0  0  0  0
  -27.6495  -13.2094   19.8586 C   0  0  2  0  0  0
  -28.6980  -13.0663   20.9871 C   0  0  0  0  0  0
  -25.2548  -13.8144   20.5650 C   0  0  0  0  0  0
  -24.1828  -13.0426   20.9214 C   0  0  0  0  0  0
  -24.6390  -11.6896   20.8762 C   0  0  0  0  0  0
  -23.9053  -10.4289   21.0420 C   0  0  0  0  0  0
  -24.3609   -9.4206   21.9193 C   0  0  0  0  0  0
  -23.6286   -8.2238   22.0757 C   0  0  0  0  0  0
  -22.4268   -8.0279   21.3545 C   0  0  0  0  0  0
  -21.9903   -9.0254   20.4648 C   0  0  0  0  0  0
  -22.7229  -10.2135   20.3067 C   0  0  0  0  0  0
  -21.6849   -6.0733   22.5277 C   0  0  0  0  0  0
  -21.4010   -6.5638   23.8210 C   0  0  0  0  0  0
  -21.3657   -5.6791   24.9172 C   0  0  0  0  0  0
  -21.6043   -4.3054   24.7221 C   0  0  0  0  0  0
  -21.8822   -3.8146   23.4343 C   0  0  0  0  0  0
  -21.9194   -4.6961   22.3400 C   0  0  0  0  0  0
  -22.7854  -13.5232   21.1862 C   0  0  0  0  0  0
  -22.1663   -4.2149   21.0974 F   0  0  0  0  0  0
  -21.5631   -3.4539   25.7733 F   0  0  0  0  0  0
  -30.0090  -13.4463   20.4287 N   0  0  0  0  0  0
  -26.2963  -12.9306   20.3277 N   0  0  0  0  0  0
  -25.9315  -11.6476   20.5762 N   0  0  0  0  0  0
  -22.0485  -12.8231   22.0410 N   0  0  0  0  0  0
  -25.4245  -15.1856   20.3969 N   0  0  0  0  0  0
  -31.7515  -14.8754   20.1197 O   0  0  0  0  0  0
  -21.6637   -6.8876   21.4237 O   0  0  0  0  0  0
  -22.3557  -14.5546   20.6709 O   0  0  0  0  0  0
  -24.6283  -31.8578   23.2011 C   0  0  0  0  0  0
  -25.9120  -32.4773   23.8347 C   0  0  1  0  0  0
  -27.2243  -27.2933   20.1163 C   0  0  0  0  0  0
  -25.5929  -33.8573   24.2275 N   0  0  0  0  0  0
  -23.4235  -30.4818   21.5440 C   0  0  2  0  0  0
  -24.8704  -28.9357   20.1080 C   0  0  0  0  0  0
  -22.7489  -29.4612   22.4923 C   0  0  0  0  0  0
  -18.0287  -28.1382   22.8489 C   0  0  0  0  0  0
  -24.1483  -36.7269   23.2642 C   0  0  0  0  0  0
  -25.9681  -30.7801   21.3772 C   0  0  0  0  0  0
  -26.0412  -29.4068   20.7156 C   0  0  0  0  0  0
  -27.2198  -28.5985   20.7091 C   0  0  0  0  0  0
  -26.0291  -26.8858   19.4785 C   0  0  0  0  0  0
  -24.8683  -27.6813   19.4806 C   0  0  0  0  0  0
  -23.6397  -29.8182   20.1586 C   0  0  0  0  0  0
  -25.4110  -36.3076   24.0336 C   0  0  1  0  0  0
  -20.5893  -28.3681   23.1274 C   0  0  2  0  0  0
  -20.6777  -26.9400   22.5407 C   0  0  0  0  0  0
  -19.5757  -26.6375   21.5207 C   0  0  0  0  0  0
  -18.1934  -26.7927   22.1618 C   0  0  0  0  0  0
  -19.1543  -28.8844   23.2880 C   0  0  0  0  0  0
  -18.9470  -30.1449   23.8894 C   0  0  0  0  0  0
  -17.6476  -30.6586   24.0559 C   0  0  0  0  0  0
  -25.9049  -34.9452   23.5104 C   0  0  0  0  0  0
  -16.5362  -29.9087   23.6336 C   0  0  0  0  0  0
  -16.7274  -28.6501   23.0359 C   0  0  0  0  0  0
  -26.4498  -31.6590   25.0722 C   0  0  0  0  0  0
  -25.3728  -31.3740   26.1447 C   0  0  0  0  0  0
  -27.0347  -30.3014   24.6181 C   0  0  0  0  0  0
  -27.6052  -32.4330   25.7495 C   0  0  0  0  0  0
  -27.5578  -37.1788   24.8473 C   0  0  0  0  0  0
  -21.4196  -29.3041   22.3676 N   0  0  0  0  0  0
  -26.4285  -37.3775   23.9424 N   0  0  0  0  0  0
  -24.6925  -31.0570   22.0971 N   0  0  0  0  0  0
  -23.4205  -28.8143   23.3003 O   0  0  0  0  0  0
  -28.3333  -26.4230   20.1778 O   0  0  0  0  0  0
  -26.5616  -34.8927   22.4671 O   0  0  0  0  0  0
  -23.5442  -32.1378   23.7326 O   0  0  0  0  0  0
  -29.4536  -20.0250   21.5055 C   0  0  0  0  0  0
  -29.2926  -17.6978   22.3643 C   0  0  0  0  0  0
  -29.1538  -19.1157   22.5608 C   0  0  0  0  0  0
  -29.9030  -19.4688   20.2958 C   0  0  0  0  0  0
  -29.7819  -17.1622   21.1259 C   0  0  0  0  0  0
  -29.3687  -21.5876   21.6320 C   0  0  0  0  0  0
  -30.1975  -20.4740   19.1802 C   0  0  0  0  0  0
  -29.1947  -21.6884   19.1321 C   0  0  0  0  0  0
  -27.4291  -16.3246   23.4815 C   0  0  0  0  0  0
  -30.4241  -19.3860   25.5333 C   0  0  0  0  0  0
  -28.8337  -21.3477   25.5015 C   0  0  0  0  0  0
  -28.9110  -16.7366   23.5025 C   0  0  0  0  0  0
  -29.2229  -23.9019   20.4949 C   0  0  0  0  0  0
  -28.1122  -24.9531   20.0064 C   0  0  0  0  0  0
  -29.6033  -20.3325   24.6463 C   0  0  0  0  0  0
  -30.0607  -18.1012   20.1495 N   0  3  0  0  0  0
  -28.6711  -19.5979   23.7942 N   0  0  0  0  0  0
  -29.7390  -15.6956   20.9287 N   0  0  0  0  0  0
  -28.9091  -22.3899   20.4341 N   0  3  2  0  0  0
  -31.4864  -12.5866   19.1359 H   0  0  0  0  0  0
  -30.4225  -11.4351   19.8942 H   0  0  0  0  0  0
  -29.7805  -11.7467   17.4917 H   0  0  0  0  0  0
  -29.6382  -13.4697   17.7205 H   0  0  0  0  0  0
  -27.8787  -11.2826   18.8758 H   0  0  0  0  0  0
  -27.3751  -12.5535   17.7944 H   0  0  0  0  0  0
  -27.6602  -14.2409   19.5071 H   0  0  0  0  0  0
  -28.7289  -12.0350   21.3434 H   0  0  0  0  0  0
  -28.4245  -13.6621   21.8587 H   0  0  0  0  0  0
  -25.2755   -9.5676   22.4769 H   0  0  0  0  0  0
  -23.9998   -7.4625   22.7474 H   0  0  0  0  0  0
  -21.0839   -8.8770   19.8952 H   0  0  0  0  0  0
  -22.3689  -10.9676   19.6181 H   0  0  0  0  0  0
  -21.1998   -7.6147   23.9709 H   0  0  0  0  0  0
  -21.1473   -6.0522   25.9071 H   0  0  0  0  0  0
  -22.0603   -2.7609   23.2841 H   0  0  0  0  0  0
  -22.4085  -11.9882   22.4796 H   0  0  0  0  0  0
  -21.1106  -13.1267   22.2614 H   0  0  0  0  0  0
  -24.6302  -15.8123   20.4672 H   0  0  0  0  0  0
  -26.2049  -15.6021   19.9075 H   0  0  0  0  0  0
  -26.7181  -32.5414   23.1090 H   0  0  0  0  0  0
  -25.0101  -33.9724   25.0435 H   0  0  0  0  0  0
  -22.7186  -31.3032   21.4013 H   0  0  0  0  0  0
  -23.3762  -35.9582   23.3303 H   0  0  0  0  0  0
  -24.3573  -36.8883   22.2055 H   0  0  0  0  0  0
  -23.7219  -37.6466   23.6657 H   0  0  0  0  0  0
  -26.1074  -31.5459   20.6130 H   0  0  0  0  0  0
  -26.8453  -30.8232   22.0109 H   0  0  0  0  0  0
  -28.1156  -28.9557   21.1976 H   0  0  0  0  0  0
  -25.9567  -25.9320   18.9779 H   0  0  0  0  0  0
  -23.9729  -27.3158   18.9969 H   0  0  0  0  0  0
  -23.7618  -30.5972   19.4048 H   0  0  0  0  0  0
  -22.7581  -29.2517   19.8532 H   0  0  0  0  0  0
  -25.1296  -36.1919   25.0828 H   0  0  0  0  0  0
  -20.9979  -28.3239   24.1394 H   0  0  0  0  0  0
  -20.5661  -26.2289   23.3606 H   0  0  0  0  0  0
  -21.6647  -26.7424   22.1207 H   0  0  0  0  0  0
  -19.6926  -25.6283   21.1233 H   0  0  0  0  0  0
  -19.6699  -27.3190   20.6740 H   0  0  0  0  0  0
  -17.4207  -26.6666   21.4017 H   0  0  0  0  0  0
  -18.0334  -26.0073   22.9011 H   0  0  0  0  0  0
  -19.7950  -30.7260   24.2258 H   0  0  0  0  0  0
  -17.5037  -31.6271   24.5152 H   0  0  0  0  0  0
  -15.5363  -30.2995   23.7671 H   0  0  0  0  0  0
  -15.8666  -28.0820   22.7088 H   0  0  0  0  0  0
  -24.5916  -30.7074   25.7783 H   0  0  0  0  0  0
  -24.8906  -32.2913   26.4832 H   0  0  0  0  0  0
  -25.8048  -30.8954   27.0242 H   0  0  0  0  0  0
  -26.2926  -29.6764   24.1202 H   0  0  0  0  0  0
  -27.4061  -29.7273   25.4678 H   0  0  0  0  0  0
  -27.8787  -30.4323   23.9405 H   0  0  0  0  0  0
  -27.2662  -33.3644   26.2044 H   0  0  0  0  0  0
  -28.3873  -32.6859   25.0325 H   0  0  0  0  0  0
  -28.0701  -31.8468   26.5437 H   0  0  0  0  0  0
  -28.2590  -38.0091   24.7531 H   0  0  0  0  0  0
  -28.1079  -36.2624   24.6280 H   0  0  0  0  0  0
  -27.2301  -37.1407   25.8878 H   0  0  0  0  0  0
  -20.9372  -29.8772   21.6896 H   0  0  0  0  0  0
  -26.0164  -38.2845   24.1441 H   0  0  0  0  0  0
  -30.3699  -21.9270   21.9007 H   0  0  0  0  0  0
  -28.7198  -21.8624   22.4628 H   0  0  0  0  0  0
  -30.1915  -19.9607   18.2186 H   0  0  0  0  0  0
  -31.2130  -20.8461   19.3189 H   0  0  0  0  0  0
  -28.2361  -21.3087   18.7762 H   0  0  0  0  0  0
  -29.5190  -22.4044   18.3760 H   0  0  0  0  0  0
  -27.2003  -15.6567   24.3132 H   0  0  0  0  0  0
  -27.1600  -15.8018   22.5642 H   0  0  0  0  0  0
  -26.7727  -17.1906   23.5690 H   0  0  0  0  0  0
  -31.1163  -19.9475   26.1619 H   0  0  0  0  0  0
  -31.0231  -18.6945   24.9402 H   0  0  0  0  0  0
  -29.7882  -18.7995   26.1977 H   0  0  0  0  0  0
  -29.5143  -21.9394   26.1148 H   0  0  0  0  0  0
  -28.1309  -20.8544   26.1747 H   0  0  0  0  0  0
  -28.2659  -22.0446   24.8847 H   0  0  0  0  0  0
  -29.1394  -17.1786   24.4699 H   0  0  0  0  0  0
  -29.5424  -15.8485   23.4846 H   0  0  0  0  0  0
  -29.4250  -24.1499   21.5372 H   0  0  0  0  0  0
  -30.1597  -24.0938   19.9712 H   0  0  0  0  0  0
  -27.1917  -24.6935   20.5313 H   0  0  0  0  0  0
  -27.9240  -24.7703   18.9479 H   0  0  0  0  0  0
  -30.3126  -20.8850   24.0297 H   0  0  0  0  0  0
  -30.3755  -17.7577   19.2356 H   0  0  0  0  0  0
  -28.1565  -18.8875   24.3026 H   0  0  0  0  0  0
  -28.8883  -15.2797   21.2617 H   0  0  0  0  0  0
  -27.9025  -22.3406   20.5096 H   0  0  0  0  0  0
  1 25  1  0  0  0
  1 30  2  0  0  0
  1 88  1  0  0  0
  2  3  1  0  0  0
  2 25  1  0  0  0
  2 90  1  0  0  0
  2 91  1  0  0  0
  3  4  1  0  0  0
  3 92  1  0  0  0
  3 93  1  0  0  0
  4  5  1  0  0  0
  4 94  1  0  0  0
  4 95  1  0  0  0
  5  6  1  0  0  0
  5 26  1  0  0  0
  5 96  1  0  0  0
  6 25  1  0  0  0
  6 97  1  0  0  0
  6 98  1  0  0  0
  7  8  2  0  0  0
  7 26  1  0  0  0
  7 29  1  0  0  0
  8  9  1  0  0  0
  8 22  1  0  0  0
  9 10  1  0  0  0
  9 27  2  0  0  0
 10 11  2  0  0  0
 10 15  1  0  0  0
 11 12  1  0  0  0
 11 99  1  0  0  0
 12 13  2  0  0  0
 12100  1  0  0  0
 13 14  1  0  0  0
 13 31  1  0  0  0
 14 15  2  0  0  0
 14101  1  0  0  0
 15102  1  0  0  0
 16 17  2  0  0  0
 16 21  1  0  0  0
 16 31  1  0  0  0
 17 18  1  0  0  0
 17103  1  0  0  0
 18 19  2  0  0  0
 18104  1  0  0  0
 19 20  1  0  0  0
 19 24  1  0  0  0
 20 21  2  0  0  0
 20105  1  0  0  0
 21 23  1  0  0  0
 22 28  1  0  0  0
 22 32  2  0  0  0
 26 27  1  0  0  0
 28106  1  0  0  0
 28107  1  0  0  0
 29108  1  0  0  0
 29109  1  0  0  0
 33 34  1  0  0  0
 33 66  1  0  0  0
 33 70  2  0  0  0
 34 36  1  0  0  0
 34 59  1  0  0  0
 34110  1  0  0  0
 35 44  2  0  0  0
 35 45  1  0  0  0
 35 68  1  0  0  0
 36 56  1  0  0  0
 36111  1  0  0  0
 37 39  1  0  0  0
 37 47  1  0  0  0
 37 66  1  0  0  0
 37112  1  0  0  0
 38 43  2  0  0  0
 38 46  1  0  0  0
 38 47  1  0  0  0
 39 64  1  0  0  0
 39 67  2  0  0  0
 40 52  1  0  0  0
 40 53  2  0  0  0
 40 58  1  0  0  0
 41113  1  0  0  0
 41114  1  0  0  0
 41115  1  0  0  0
 41 48  1  0  0  0
 42 43  1  0  0  0
 42 66  1  0  0  0
 42116  1  0  0  0
 42117  1  0  0  0
 43 44  1  0  0  0
 44118  1  0  0  0
 45 46  2  0  0  0
 45119  1  0  0  0
 46120  1  0  0  0
 47121  1  0  0  0
 47122  1  0  0  0
 48 56  1  0  0  0
 48 65  1  0  0  0
 48123  1  0  0  0
 49 50  1  0  0  0
 49 53  1  0  0  0
 49 64  1  0  0  0
 49124  1  0  0  0
 50 51  1  0  0  0
 50125  1  0  0  0
 50126  1  0  0  0
 51 52  1  0  0  0
 51127  1  0  0  0
 51128  1  0  0  0
 52129  1  0  0  0
 52130  1  0  0  0
 53 54  1  0  0  0
 54 55  2  0  0  0
 54131  1  0  0  0
 55 57  1  0  0  0
 55132  1  0  0  0
 56 69  2  0  0  0
 57 58  2  0  0  0
 57133  1  0  0  0
 58134  1  0  0  0
 59 60  1  0  0  0
 59 61  1  0  0  0
 59 62  1  0  0  0
 60135  1  0  0  0
 60136  1  0  0  0
 60137  1  0  0  0
 61138  1  0  0  0
 61139  1  0  0  0
 61140  1  0  0  0
 62141  1  0  0  0
 62142  1  0  0  0
 62143  1  0  0  0
 63 65  1  0  0  0
 63144  1  0  0  0
 63145  1  0  0  0
 63146  1  0  0  0
 64147  1  0  0  0
 65148  1  0  0  0
 68 84  1  0  0  0
 71 73  1  0  0  0
 71 74  2  0  0  0
 71 76  1  0  0  0
 72 73  2  0  0  0
 72 75  1  0  0  0
 72 82  1  0  0  0
 73 87  1  0  0  0
 74 77  1  0  0  0
 74 86  1  0  0  0
 75 86  2  0  0  0
 75 88  1  0  0  0
 76 89  1  0  0  0
 76149  1  0  0  0
 76150  1  0  0  0
 77 78  1  0  0  0
 77151  1  0  0  0
 77152  1  0  0  0
 78 89  1  0  0  0
 78153  1  0  0  0
 78154  1  0  0  0
 79 82  1  0  0  0
 79155  1  0  0  0
 79156  1  0  0  0
 79157  1  0  0  0
 80158  1  0  0  0
 80159  1  0  0  0
 80160  1  0  0  0
 80 85  1  0  0  0
 81 85  1  0  0  0
 81161  1  0  0  0
 81162  1  0  0  0
 81163  1  0  0  0
 82164  1  0  0  0
 82165  1  0  0  0
 83 84  1  0  0  0
 83166  1  0  0  0
 83167  1  0  0  0
 83 89  1  0  0  0
 84168  1  0  0  0
 84169  1  0  0  0
 85 87  1  0  0  0
 85170  1  0  0  0
 86171  1  0  0  0
 87172  1  0  0  0
 88173  1  0  0  0
 89174  1  0  0  0
M  CHG  2  86   1  89   1
M  ISO  4   1 100  68 101  84 101  88 100
M  END
> <chiral flag>
0

> <version>
0

> <s_m_source_file>
/data/baiqing/PycharmProjects/Reinvent-master-3.2/result/LINK_invent/BTK/process_docking_weight1_custom_sum_contain_oxygen_bond_distance_aromatic_linkinvent_7_9_3/rearranged_h_0134.sdf

> <i_m_source_file_index>
65

> <r_mmod_Potential_Energy-OPLS-2005>
67.4001541137695

> <r_mmod_Stretch_Energy-OPLS-2005>
107.669921875

> <r_mmod_Bend_Energy-OPLS-2005>
174.844299316406

> <r_mmod_Torsional_Energy-OPLS-2005>
265.677947998047

> <r_mmod_Improper_Torsional_Energy-OPLS-2005>
10.571759223938

> <r_mmod_Van_der_Waal_Energy-OPLS-2005>
143.923263549805

> <r_mmod_Electrostatic_Energy-OPLS-2005>
158.827529907227

> <r_mmod_Solvation_Energy-OPLS-2005>
-857.737060546875

> <b_mmod_Minimization_Converged-OPLS-2005>
0

> <r_mmod_RMS_Derivative-OPLS-2005>
1.15895080566406

$$$$
65
                    3D
 Structure written by MMmdl.
165174  0  0  1  0            999 V2000
  -30.6789  -14.4891   20.5591 C   0  0  0  0  0  0
  -30.4222  -12.3144   19.4270 C   0  0  0  0  0  0
  -29.4916  -12.5021   18.2102 C   0  0  0  0  0  0
  -28.0122  -12.3641   18.6225 C   0  0  0  0  0  0
  -27.6580  -13.2074   19.8757 C   0  0  2  0  0  0
  -28.6991  -12.9943   20.9982 C   0  0  0  0  0  0
  -25.2557  -13.8162   20.5681 C   0  0  0  0  0  0
  -24.1813  -13.0439   20.9194 C   0  0  0  0  0  0
  -24.6372  -11.6911   20.8751 C   0  0  0  0  0  0
  -23.9037  -10.4291   21.0411 C   0  0  0  0  0  0
  -24.3601   -9.4208   21.9188 C   0  0  0  0  0  0
  -23.6277   -8.2239   22.0748 C   0  0  0  0  0  0
  -22.4258   -8.0273   21.3540 C   0  0  0  0  0  0
  -21.9885   -9.0250   20.4648 C   0  0  0  0  0  0
  -22.7204  -10.2133   20.3064 C   0  0  0  0  0  0
  -21.6842   -6.0729   22.5279 C   0  0  0  0  0  0
  -21.4015   -6.5638   23.8212 C   0  0  0  0  0  0
  -21.3670   -5.6792   24.9174 C   0  0  0  0  0  0
  -21.6042   -4.3052   24.7220 C   0  0  0  0  0  0
  -21.8813   -3.8146   23.4340 C   0  0  0  0  0  0
  -21.9185   -4.6960   22.3400 C   0  0  0  0  0  0
  -22.7835  -13.5238   21.1861 C   0  0  0  0  0  0
  -22.1651   -4.2150   21.0973 F   0  0  0  0  0  0
  -21.5629   -3.4537   25.7735 F   0  0  0  0  0  0
  -30.0289  -13.2997   20.4447 N   0  0  0  0  0  0
  -26.2989  -12.9339   20.3360 N   0  0  0  0  0  0
  -25.9299  -11.6498   20.5775 N   0  0  0  0  0  0
  -22.0485  -12.8234   22.0429 N   0  0  0  0  0  0
  -25.4281  -15.1880   20.4073 N   0  0  0  0  0  0
  -31.8113  -14.6819   20.1063 O   0  0  0  0  0  0
  -21.6628   -6.8869   21.4234 O   0  0  0  0  0  0
  -22.3529  -14.5549   20.6706 O   0  0  0  0  0  0
  -24.6135  -31.8662   23.2104 C   0  0  0  0  0  0
  -25.9030  -32.4822   23.8398 C   0  0  1  0  0  0
  -27.2456  -27.4396   20.0903 C   0  0  0  0  0  0
  -25.5890  -33.8617   24.2327 N   0  0  0  0  0  0
  -23.4034  -30.4873   21.5492 C   0  0  2  0  0  0
  -24.8542  -28.9497   20.1212 C   0  0  0  0  0  0
  -22.7410  -29.4632   22.4984 C   0  0  0  0  0  0
  -18.0271  -28.1377   22.8472 C   0  0  0  0  0  0
  -24.1484  -36.7323   23.2635 C   0  0  0  0  0  0
  -25.9319  -30.8319   21.3654 C   0  0  0  0  0  0
  -26.0134  -29.4633   20.7188 C   0  0  0  0  0  0
  -27.2123  -28.7130   20.7048 C   0  0  0  0  0  0
  -26.0721  -26.9355   19.4941 C   0  0  0  0  0  0
  -24.8766  -27.6814   19.5135 C   0  0  0  0  0  0
  -23.6156  -29.8172   20.1656 C   0  0  0  0  0  0
  -25.4104  -36.3109   24.0330 C   0  0  1  0  0  0
  -20.5854  -28.3660   23.1316 C   0  0  2  0  0  0
  -20.6763  -26.9396   22.5422 C   0  0  0  0  0  0
  -19.5757  -26.6376   21.5210 C   0  0  0  0  0  0
  -18.1923  -26.7920   22.1611 C   0  0  0  0  0  0
  -19.1512  -28.8834   23.2890 C   0  0  0  0  0  0
  -18.9451  -30.1434   23.8911 C   0  0  0  0  0  0
  -17.6454  -30.6581   24.0555 C   0  0  0  0  0  0
  -25.9032  -34.9474   23.5129 C   0  0  0  0  0  0
  -16.5343  -29.9084   23.6318 C   0  0  0  0  0  0
  -16.7258  -28.6501   23.0336 C   0  0  0  0  0  0
  -26.4478  -31.6596   25.0720 C   0  0  0  0  0  0
  -25.3756  -31.3703   26.1480 C   0  0  0  0  0  0
  -27.0291  -30.3025   24.6092 C   0  0  0  0  0  0
  -27.6049  -32.4319   25.7487 C   0  0  0  0  0  0
  -27.5581  -37.1804   24.8462 C   0  0  0  0  0  0
  -21.4138  -29.3019   22.3725 N   0  0  0  0  0  0
  -26.4294  -37.3790   23.9412 N   0  0  0  0  0  0
  -24.6672  -31.0762   22.1008 N   0  0  0  0  0  0
  -23.4174  -28.8176   23.3028 O   0  0  0  0  0  0
  -28.4115  -26.7105   20.0074 O   0  0  0  0  0  0
  -26.5594  -34.8918   22.4690 O   0  0  0  0  0  0
  -23.5319  -32.1418   23.7487 O   0  0  0  0  0  0
  -29.7506  -20.0202   21.4587 C   0  0  0  0  0  0
  -28.8284  -20.0267   19.2152 C   0  0  0  0  0  0
  -29.8009  -21.4338   21.4363 C   0  0  0  0  0  0
  -28.8729  -21.4399   19.1958 C   0  0  0  0  0  0
  -29.2607  -19.2959   20.3474 C   0  0  0  0  0  0
  -29.3501  -22.1602   20.3110 C   0  0  0  0  0  0
  -25.0508  -24.2001   21.6575 C   0  0  0  0  0  0
  -25.1547  -23.5270   23.0062 C   0  0  0  0  0  0
  -26.3013  -24.3645   22.4899 C   0  0  0  0  0  0
  -29.1027  -17.7658   20.3705 C   0  0  0  0  0  0
  -27.6069  -23.7048   22.0795 C   0  0  0  0  0  0
  -30.2445  -16.9416   21.0271 C   0  0  0  0  0  0
  -28.6790  -25.8303   21.1037 C   0  0  0  0  0  0
  -28.2598  -24.3483   20.8311 C   0  0  1  0  0  0
  -29.3961  -23.5696   20.2949 N   0  0  0  0  0  0
  -29.9342  -15.4988   21.0481 N   0  0  0  0  0  0
  -31.4667  -12.4194   19.1289 H   0  0  0  0  0  0
  -30.3262  -11.3064   19.8311 H   0  0  0  0  0  0
  -29.7293  -11.7728   17.4351 H   0  0  0  0  0  0
  -29.6547  -13.4842   17.7626 H   0  0  0  0  0  0
  -27.8183  -11.3087   18.8186 H   0  0  0  0  0  0
  -27.3629  -12.6402   17.7917 H   0  0  0  0  0  0
  -27.6978  -14.2536   19.5726 H   0  0  0  0  0  0
  -28.6770  -11.9600   21.3461 H   0  0  0  0  0  0
  -28.4595  -13.5988   21.8742 H   0  0  0  0  0  0
  -25.2752   -9.5671   22.4758 H   0  0  0  0  0  0
  -23.9991   -7.4621   22.7458 H   0  0  0  0  0  0
  -21.0817   -8.8774   19.8954 H   0  0  0  0  0  0
  -22.3675  -10.9676   19.6181 H   0  0  0  0  0  0
  -21.2023   -7.6154   23.9712 H   0  0  0  0  0  0
  -21.1497   -6.0530   25.9078 H   0  0  0  0  0  0
  -22.0587   -2.7607   23.2842 H   0  0  0  0  0  0
  -22.4103  -11.9892   22.4814 H   0  0  0  0  0  0
  -21.1115  -13.1270   22.2664 H   0  0  0  0  0  0
  -24.6590  -15.8411   20.5070 H   0  0  0  0  0  0
  -26.2749  -15.6223   20.0632 H   0  0  0  0  0  0
  -26.7092  -32.5548   23.1158 H   0  0  0  0  0  0
  -25.0045  -33.9788   25.0474 H   0  0  0  0  0  0
  -22.6918  -31.3028   21.4059 H   0  0  0  0  0  0
  -23.3741  -35.9667   23.3321 H   0  0  0  0  0  0
  -24.3568  -36.8919   22.2046 H   0  0  0  0  0  0
  -23.7254  -37.6537   23.6644 H   0  0  0  0  0  0
  -26.0380  -31.5953   20.5931 H   0  0  0  0  0  0
  -26.8222  -30.8920   21.9789 H   0  0  0  0  0  0
  -28.1135  -29.1111   21.1493 H   0  0  0  0  0  0
  -26.0853  -25.9700   19.0070 H   0  0  0  0  0  0
  -23.9864  -27.2803   19.0494 H   0  0  0  0  0  0
  -23.7271  -30.5919   19.4060 H   0  0  0  0  0  0
  -22.7423  -29.2354   19.8663 H   0  0  0  0  0  0
  -25.1274  -36.1975   25.0820 H   0  0  0  0  0  0
  -20.9929  -28.3232   24.1446 H   0  0  0  0  0  0
  -20.5651  -26.2268   23.3605 H   0  0  0  0  0  0
  -21.6636  -26.7427   22.1229 H   0  0  0  0  0  0
  -19.6924  -25.6289   21.1234 H   0  0  0  0  0  0
  -19.6713  -27.3190   20.6745 H   0  0  0  0  0  0
  -17.4190  -26.6650   21.4015 H   0  0  0  0  0  0
  -18.0338  -26.0071   22.9017 H   0  0  0  0  0  0
  -19.7925  -30.7225   24.2310 H   0  0  0  0  0  0
  -17.5015  -31.6268   24.5149 H   0  0  0  0  0  0
  -15.5345  -30.2993   23.7641 H   0  0  0  0  0  0
  -15.8656  -28.0826   22.7055 H   0  0  0  0  0  0
  -24.5938  -30.7034   25.7843 H   0  0  0  0  0  0
  -24.8946  -32.2853   26.4933 H   0  0  0  0  0  0
  -25.8126  -30.8887   27.0231 H   0  0  0  0  0  0
  -26.2815  -29.6808   24.1149 H   0  0  0  0  0  0
  -27.4044  -29.7244   25.4546 H   0  0  0  0  0  0
  -27.8667  -30.4331   23.9239 H   0  0  0  0  0  0
  -27.2661  -33.3598   26.2105 H   0  0  0  0  0  0
  -28.3849  -32.6911   25.0322 H   0  0  0  0  0  0
  -28.0738  -31.8426   26.5375 H   0  0  0  0  0  0
  -28.2590  -38.0105   24.7490 H   0  0  0  0  0  0
  -28.1070  -36.2624   24.6298 H   0  0  0  0  0  0
  -27.2286  -37.1470   25.8861 H   0  0  0  0  0  0
  -20.9306  -29.8744   21.6948 H   0  0  0  0  0  0
  -26.0184  -38.2862   24.1432 H   0  0  0  0  0  0
  -30.0802  -19.5034   22.3485 H   0  0  0  0  0  0
  -28.4329  -19.5068   18.3534 H   0  0  0  0  0  0
  -30.1795  -21.9581   22.3028 H   0  0  0  0  0  0
  -28.5205  -21.9629   18.3183 H   0  0  0  0  0  0
  -24.3938  -25.0623   21.5698 H   0  0  0  0  0  0
  -25.1124  -23.5712   20.7712 H   0  0  0  0  0  0
  -25.2700  -22.4447   23.0123 H   0  0  0  0  0  0
  -24.5640  -23.9354   23.8241 H   0  0  0  0  0  0
  -26.4217  -25.3336   22.9688 H   0  0  0  0  0  0
  -28.1603  -17.5509   20.8765 H   0  0  0  0  0  0
  -28.9771  -17.4172   19.3440 H   0  0  0  0  0  0
  -27.3793  -22.6549   21.8989 H   0  0  0  0  0  0
  -28.2955  -23.7305   22.9252 H   0  0  0  0  0  0
  -30.3929  -17.2578   22.0596 H   0  0  0  0  0  0
  -31.1798  -17.1358   20.5006 H   0  0  0  0  0  0
  -28.1980  -26.2256   21.9990 H   0  0  0  0  0  0
  -29.7442  -25.8835   21.3338 H   0  0  0  0  0  0
  -27.4965  -24.3569   20.0514 H   0  0  0  0  0  0
  -29.6221  -23.9238   19.3692 H   0  0  0  0  0  0
  -29.0265  -15.2384   21.4049 H   0  0  0  0  0  0
  1 25  1  0  0  0
  1 30  2  0  0  0
  1 86  1  0  0  0
  2  3  1  0  0  0
  2 25  1  0  0  0
  2 87  1  0  0  0
  2 88  1  0  0  0
  3  4  1  0  0  0
  3 89  1  0  0  0
  3 90  1  0  0  0
  4  5  1  0  0  0
  4 91  1  0  0  0
  4 92  1  0  0  0
  5  6  1  0  0  0
  5 26  1  0  0  0
  5 93  1  0  0  0
  6 25  1  0  0  0
  6 94  1  0  0  0
  6 95  1  0  0  0
  7  8  2  0  0  0
  7 26  1  0  0  0
  7 29  1  0  0  0
  8  9  1  0  0  0
  8 22  1  0  0  0
  9 10  1  0  0  0
  9 27  2  0  0  0
 10 11  2  0  0  0
 10 15  1  0  0  0
 11 12  1  0  0  0
 11 96  1  0  0  0
 12 13  2  0  0  0
 12 97  1  0  0  0
 13 14  1  0  0  0
 13 31  1  0  0  0
 14 15  2  0  0  0
 14 98  1  0  0  0
 15 99  1  0  0  0
 16 17  2  0  0  0
 16 21  1  0  0  0
 16 31  1  0  0  0
 17 18  1  0  0  0
 17100  1  0  0  0
 18 19  2  0  0  0
 18101  1  0  0  0
 19 20  1  0  0  0
 19 24  1  0  0  0
 20 21  2  0  0  0
 20102  1  0  0  0
 21 23  1  0  0  0
 22 28  1  0  0  0
 22 32  2  0  0  0
 26 27  1  0  0  0
 28103  1  0  0  0
 28104  1  0  0  0
 29105  1  0  0  0
 29106  1  0  0  0
 33 34  1  0  0  0
 33 66  1  0  0  0
 33 70  2  0  0  0
 34 36  1  0  0  0
 34 59  1  0  0  0
 34107  1  0  0  0
 35 44  2  0  0  0
 35 45  1  0  0  0
 35 68  1  0  0  0
 36 56  1  0  0  0
 36108  1  0  0  0
 37 39  1  0  0  0
 37 47  1  0  0  0
 37 66  1  0  0  0
 37109  1  0  0  0
 38 43  2  0  0  0
 38 46  1  0  0  0
 38 47  1  0  0  0
 39 64  1  0  0  0
 39 67  2  0  0  0
 40 52  1  0  0  0
 40 53  2  0  0  0
 40 58  1  0  0  0
 41110  1  0  0  0
 41111  1  0  0  0
 41112  1  0  0  0
 41 48  1  0  0  0
 42 43  1  0  0  0
 42 66  1  0  0  0
 42113  1  0  0  0
 42114  1  0  0  0
 43 44  1  0  0  0
 44115  1  0  0  0
 45 46  2  0  0  0
 45116  1  0  0  0
 46117  1  0  0  0
 47118  1  0  0  0
 47119  1  0  0  0
 48 56  1  0  0  0
 48 65  1  0  0  0
 48120  1  0  0  0
 49 50  1  0  0  0
 49 53  1  0  0  0
 49 64  1  0  0  0
 49121  1  0  0  0
 50 51  1  0  0  0
 50122  1  0  0  0
 50123  1  0  0  0
 51 52  1  0  0  0
 51124  1  0  0  0
 51125  1  0  0  0
 52126  1  0  0  0
 52127  1  0  0  0
 53 54  1  0  0  0
 54 55  2  0  0  0
 54128  1  0  0  0
 55 57  1  0  0  0
 55129  1  0  0  0
 56 69  2  0  0  0
 57 58  2  0  0  0
 57130  1  0  0  0
 58131  1  0  0  0
 59 60  1  0  0  0
 59 61  1  0  0  0
 59 62  1  0  0  0
 60132  1  0  0  0
 60133  1  0  0  0
 60134  1  0  0  0
 61135  1  0  0  0
 61136  1  0  0  0
 61137  1  0  0  0
 62138  1  0  0  0
 62139  1  0  0  0
 62140  1  0  0  0
 63 65  1  0  0  0
 63141  1  0  0  0
 63142  1  0  0  0
 63143  1  0  0  0
 64144  1  0  0  0
 65145  1  0  0  0
 68 83  1  0  0  0
 71 73  2  0  0  0
 71 75  1  0  0  0
 71146  1  0  0  0
 72 74  1  0  0  0
 72 75  2  0  0  0
 72147  1  0  0  0
 73 76  1  0  0  0
 73148  1  0  0  0
 74 76  2  0  0  0
 74149  1  0  0  0
 75 80  1  0  0  0
 76 85  1  0  0  0
 77 78  1  0  0  0
 77 79  1  0  0  0
 77150  1  0  0  0
 77151  1  0  0  0
 78 79  1  0  0  0
 78152  1  0  0  0
 78153  1  0  0  0
 79 81  1  0  0  0
 79154  1  0  0  0
 80 82  1  0  0  0
 80155  1  0  0  0
 80156  1  0  0  0
 81157  1  0  0  0
 81158  1  0  0  0
 81 84  1  0  0  0
 82 86  1  0  0  0
 82159  1  0  0  0
 82160  1  0  0  0
 83 84  1  0  0  0
 83161  1  0  0  0
 83162  1  0  0  0
 84 85  1  0  0  0
 84163  1  0  0  0
 85164  1  0  0  0
 86165  1  0  0  0
M  ISO  4   1 100  68 101  83 101  86 100
M  END
> <chiral flag>
0

> <version>
0

> <s_m_source_file>
/data/baiqing/PycharmProjects/Reinvent-master-3.2/result/LINK_invent/BTK/process_docking_weight1_custom_sum_contain_oxygen_bond_distance_aromatic_linkinvent_7_9_3/rearranged_h_0134.sdf

> <i_m_source_file_index>
66

> <r_mmod_Potential_Energy-OPLS-2005>
-10.4162950515747

> <r_mmod_Stretch_Energy-OPLS-2005>
39.3655700683594

> <r_mmod_Bend_Energy-OPLS-2005>
98.3299179077148

> <r_mmod_Torsional_Energy-OPLS-2005>
294.172912597656

> <r_mmod_Improper_Torsional_Energy-OPLS-2005>
9.35831451416016

> <r_mmod_Van_der_Waal_Energy-OPLS-2005>
138.960174560547

> <r_mmod_Electrostatic_Energy-OPLS-2005>
-387.673187255859

> <r_mmod_Solvation_Energy-OPLS-2005>
-215.572265625

> <b_mmod_Minimization_Converged-OPLS-2005>
0

> <r_mmod_RMS_Derivative-OPLS-2005>
2.25421762466431

$$$$
66
                    3D
 Structure written by MMmdl.
161170  0  0  1  0            999 V2000
  -30.7833  -14.3746   20.6541 C   0  0  0  0  0  0
  -30.4116  -12.2861   19.3997 C   0  0  0  0  0  0
  -29.4820  -12.5177   18.1945 C   0  0  0  0  0  0
  -28.0078  -12.3753   18.6164 C   0  0  0  0  0  0
  -27.6660  -13.2080   19.8796 C   0  0  2  0  0  0
  -28.7083  -12.9716   20.9960 C   0  0  0  0  0  0
  -25.2601  -13.8182   20.5698 C   0  0  0  0  0  0
  -24.1847  -13.0442   20.9179 C   0  0  0  0  0  0
  -24.6408  -11.6913   20.8761 C   0  0  0  0  0  0
  -23.9077  -10.4297   21.0416 C   0  0  0  0  0  0
  -24.3625   -9.4213   21.9192 C   0  0  0  0  0  0
  -23.6293   -8.2253   22.0762 C   0  0  0  0  0  0
  -22.4280   -8.0295   21.3550 C   0  0  0  0  0  0
  -21.9924   -9.0274   20.4648 C   0  0  0  0  0  0
  -22.7257  -10.2147   20.3057 C   0  0  0  0  0  0
  -21.6847   -6.0742   22.5283 C   0  0  0  0  0  0
  -21.4011   -6.5643   23.8221 C   0  0  0  0  0  0
  -21.3659   -5.6790   24.9176 C   0  0  0  0  0  0
  -21.6043   -4.3053   24.7220 C   0  0  0  0  0  0
  -21.8816   -3.8151   23.4337 C   0  0  0  0  0  0
  -21.9191   -4.6971   22.3396 C   0  0  0  0  0  0
  -22.7865  -13.5230   21.1834 C   0  0  0  0  0  0
  -22.1659   -4.2163   21.0970 F   0  0  0  0  0  0
  -21.5628   -3.4533   25.7731 F   0  0  0  0  0  0
  -30.0493  -13.2509   20.4491 N   0  0  0  0  0  0
  -26.3050  -12.9348   20.3405 N   0  0  0  0  0  0
  -25.9339  -11.6505   20.5793 N   0  0  0  0  0  0
  -22.0503  -12.8230   22.0392 N   0  0  0  0  0  0
  -25.4340  -15.1892   20.4094 N   0  0  0  0  0  0
  -31.8199  -14.6262   20.0336 O   0  0  0  0  0  0
  -21.6635   -6.8894   21.4247 O   0  0  0  0  0  0
  -22.3555  -14.5537   20.6686 O   0  0  0  0  0  0
  -24.6111  -31.8704   23.2133 C   0  0  0  0  0  0
  -25.9004  -32.4839   23.8421 C   0  0  1  0  0  0
  -27.2376  -27.4698   20.0919 C   0  0  0  0  0  0
  -25.5848  -33.8627   24.2335 N   0  0  0  0  0  0
  -23.3974  -30.4943   21.5530 C   0  0  2  0  0  0
  -24.8456  -28.9586   20.1190 C   0  0  0  0  0  0
  -22.7387  -29.4689   22.5023 C   0  0  0  0  0  0
  -18.0262  -28.1409   22.8496 C   0  0  0  0  0  0
  -24.1476  -36.7333   23.2648 C   0  0  0  0  0  0
  -25.9215  -30.8463   21.3587 C   0  0  0  0  0  0
  -26.0016  -29.4795   20.7155 C   0  0  0  0  0  0
  -27.2020  -28.7390   20.7064 C   0  0  0  0  0  0
  -26.0728  -26.9516   19.4926 C   0  0  0  0  0  0
  -24.8728  -27.6903   19.5093 C   0  0  0  0  0  0
  -23.6039  -29.8230   20.1686 C   0  0  0  0  0  0
  -25.4103  -36.3120   24.0341 C   0  0  1  0  0  0
  -20.5848  -28.3698   23.1348 C   0  0  2  0  0  0
  -20.6753  -26.9432   22.5435 C   0  0  0  0  0  0
  -19.5727  -26.6417   21.5234 C   0  0  0  0  0  0
  -18.1908  -26.7954   22.1642 C   0  0  0  0  0  0
  -19.1508  -28.8868   23.2916 C   0  0  0  0  0  0
  -18.9441  -30.1465   23.8949 C   0  0  0  0  0  0
  -17.6442  -30.6597   24.0605 C   0  0  0  0  0  0
  -25.9020  -34.9482   23.5151 C   0  0  0  0  0  0
  -16.5335  -29.9115   23.6312 C   0  0  0  0  0  0
  -16.7256  -28.6539   23.0340 C   0  0  0  0  0  0
  -26.4433  -31.6615   25.0737 C   0  0  0  0  0  0
  -25.3698  -31.3652   26.1471 C   0  0  0  0  0  0
  -27.0323  -30.3095   24.6094 C   0  0  0  0  0  0
  -27.6001  -32.4360   25.7495 C   0  0  0  0  0  0
  -27.5580  -37.1824   24.8470 C   0  0  0  0  0  0
  -21.4125  -29.3049   22.3744 N   0  0  0  0  0  0
  -26.4297  -37.3798   23.9401 N   0  0  0  0  0  0
  -24.6618  -31.0821   22.1023 N   0  0  0  0  0  0
  -23.4175  -28.8226   23.3043 O   0  0  0  0  0  0
  -28.3937  -26.7358   20.0565 O   0  0  0  0  0  0
  -26.5602  -34.8946   22.4727 O   0  0  0  0  0  0
  -23.5306  -32.1454   23.7535 O   0  0  0  0  0  0
  -30.0240  -21.4842   19.5685 C   0  0  0  0  0  0
  -30.1273  -20.0959   19.7950 C   0  0  0  0  0  0
  -28.7903  -20.3363   21.8164 C   0  0  0  0  0  0
  -29.3167  -22.3099   20.4703 C   0  0  0  0  0  0
  -28.7050  -21.7303   21.6096 C   0  0  0  0  0  0
  -29.5064  -19.5134   20.9213 C   0  0  0  0  0  0
  -29.2372  -23.8119   20.2067 C   0  0  0  0  0  0
  -28.3914  -23.9264   22.5952 C   0  0  0  0  0  0
  -28.3389  -24.5797   21.2034 C   0  0  1  0  0  0
  -28.7003  -26.0778   21.2834 C   0  0  0  0  0  0
  -30.9337  -17.5697   21.1227 C   0  0  0  0  0  0
  -31.0661  -16.3777   22.0862 C   0  0  0  0  0  0
  -28.0209  -22.5168   22.5467 N   0  0  0  0  0  0
  -29.5928  -18.1377   21.1791 N   0  0  0  0  0  0
  -30.3429  -15.1986   21.6121 N   0  0  0  0  0  0
  -31.4555  -12.3694   19.0931 H   0  0  0  0  0  0
  -30.2981  -11.2692   19.7814 H   0  0  0  0  0  0
  -29.7119  -11.8094   17.3974 H   0  0  0  0  0  0
  -29.6543  -13.5121   17.7800 H   0  0  0  0  0  0
  -27.8193  -11.3187   18.8080 H   0  0  0  0  0  0
  -27.3511  -12.6561   17.7929 H   0  0  0  0  0  0
  -27.7190  -14.2583   19.5945 H   0  0  0  0  0  0
  -28.6716  -11.9350   21.3360 H   0  0  0  0  0  0
  -28.4645  -13.5716   21.8732 H   0  0  0  0  0  0
  -25.2765   -9.5678   22.4780 H   0  0  0  0  0  0
  -23.9994   -7.4641   22.7480 H   0  0  0  0  0  0
  -21.0857   -8.8796   19.8947 H   0  0  0  0  0  0
  -22.3727  -10.9689   19.6171 H   0  0  0  0  0  0
  -21.2013   -7.6152   23.9727 H   0  0  0  0  0  0
  -21.1476   -6.0514   25.9079 H   0  0  0  0  0  0
  -22.0599   -2.7614   23.2831 H   0  0  0  0  0  0
  -22.4101  -11.9873   22.4753 H   0  0  0  0  0  0
  -21.1124  -13.1269   22.2598 H   0  0  0  0  0  0
  -24.6748  -15.8531   20.5200 H   0  0  0  0  0  0
  -26.3004  -15.6227   20.1145 H   0  0  0  0  0  0
  -26.7082  -32.5559   23.1201 H   0  0  0  0  0  0
  -24.9893  -33.9747   25.0412 H   0  0  0  0  0  0
  -22.6852  -31.3111   21.4154 H   0  0  0  0  0  0
  -23.3725  -35.9679   23.3326 H   0  0  0  0  0  0
  -24.3573  -36.8952   22.2062 H   0  0  0  0  0  0
  -23.7248  -37.6545   23.6681 H   0  0  0  0  0  0
  -26.0192  -31.6038   20.5795 H   0  0  0  0  0  0
  -26.8153  -30.9131   21.9671 H   0  0  0  0  0  0
  -28.0974  -29.1358   21.1641 H   0  0  0  0  0  0
  -26.0960  -25.9791   19.0218 H   0  0  0  0  0  0
  -23.9820  -27.2828   19.0503 H   0  0  0  0  0  0
  -23.7109  -30.5972   19.4082 H   0  0  0  0  0  0
  -22.7278  -29.2425   19.8747 H   0  0  0  0  0  0
  -25.1283  -36.2001   25.0833 H   0  0  0  0  0  0
  -20.9941  -28.3287   24.1468 H   0  0  0  0  0  0
  -20.5690  -26.2301   23.3621 H   0  0  0  0  0  0
  -21.6631  -26.7495   22.1229 H   0  0  0  0  0  0
  -19.6905  -25.6345   21.1236 H   0  0  0  0  0  0
  -19.6665  -27.3244   20.6779 H   0  0  0  0  0  0
  -17.4177  -26.6716   21.4042 H   0  0  0  0  0  0
  -18.0288  -26.0107   22.9042 H   0  0  0  0  0  0
  -19.7911  -30.7256   24.2379 H   0  0  0  0  0  0
  -17.4998  -31.6263   24.5240 H   0  0  0  0  0  0
  -15.5342  -30.3052   23.7606 H   0  0  0  0  0  0
  -15.8652  -28.0873   22.7041 H   0  0  0  0  0  0
  -24.5943  -30.6927   25.7783 H   0  0  0  0  0  0
  -24.8771  -32.2750   26.4902 H   0  0  0  0  0  0
  -25.8056  -30.8855   27.0240 H   0  0  0  0  0  0
  -26.2886  -29.6796   24.1205 H   0  0  0  0  0  0
  -27.4194  -29.7384   25.4538 H   0  0  0  0  0  0
  -27.8648  -30.4468   23.9197 H   0  0  0  0  0  0
  -27.2630  -33.3679   26.2041 H   0  0  0  0  0  0
  -28.3798  -32.6893   25.0302 H   0  0  0  0  0  0
  -28.0684  -31.8520   26.5420 H   0  0  0  0  0  0
  -28.2597  -38.0120   24.7534 H   0  0  0  0  0  0
  -28.1078  -36.2659   24.6298 H   0  0  0  0  0  0
  -27.2290  -37.1475   25.8868 H   0  0  0  0  0  0
  -20.9308  -29.8766   21.6948 H   0  0  0  0  0  0
  -26.0194  -38.2873   24.1425 H   0  0  0  0  0  0
  -30.4964  -21.9142   18.6953 H   0  0  0  0  0  0
  -30.6755  -19.4846   19.0902 H   0  0  0  0  0  0
  -28.3187  -19.8971   22.6846 H   0  0  0  0  0  0
  -28.8887  -23.9869   19.1888 H   0  0  0  0  0  0
  -30.2564  -24.1967   20.2542 H   0  0  0  0  0  0
  -27.7111  -24.4427   23.2746 H   0  0  0  0  0  0
  -29.3922  -24.0242   23.0239 H   0  0  0  0  0  0
  -27.3080  -24.4968   20.8568 H   0  0  0  0  0  0
  -29.7645  -26.1989   21.4893 H   0  0  0  0  0  0
  -28.1785  -26.5391   22.1270 H   0  0  0  0  0  0
  -31.1819  -17.2787   20.1008 H   0  0  0  0  0  0
  -31.6617  -18.3310   21.4123 H   0  0  0  0  0  0
  -30.7141  -16.6443   23.0842 H   0  0  0  0  0  0
  -32.1223  -16.1243   22.2028 H   0  0  0  0  0  0
  -27.7669  -22.0756   23.4284 H   0  0  0  0  0  0
  -29.0491  -17.8210   21.9761 H   0  0  0  0  0  0
  -29.4842  -14.9532   22.0782 H   0  0  0  0  0  0
  1 25  1  0  0  0
  1 30  2  0  0  0
  1 85  1  0  0  0
  2  3  1  0  0  0
  2 25  1  0  0  0
  2 86  1  0  0  0
  2 87  1  0  0  0
  3  4  1  0  0  0
  3 88  1  0  0  0
  3 89  1  0  0  0
  4  5  1  0  0  0
  4 90  1  0  0  0
  4 91  1  0  0  0
  5  6  1  0  0  0
  5 26  1  0  0  0
  5 92  1  0  0  0
  6 25  1  0  0  0
  6 93  1  0  0  0
  6 94  1  0  0  0
  7  8  2  0  0  0
  7 26  1  0  0  0
  7 29  1  0  0  0
  8  9  1  0  0  0
  8 22  1  0  0  0
  9 10  1  0  0  0
  9 27  2  0  0  0
 10 11  2  0  0  0
 10 15  1  0  0  0
 11 12  1  0  0  0
 11 95  1  0  0  0
 12 13  2  0  0  0
 12 96  1  0  0  0
 13 14  1  0  0  0
 13 31  1  0  0  0
 14 15  2  0  0  0
 14 97  1  0  0  0
 15 98  1  0  0  0
 16 17  2  0  0  0
 16 21  1  0  0  0
 16 31  1  0  0  0
 17 18  1  0  0  0
 17 99  1  0  0  0
 18 19  2  0  0  0
 18100  1  0  0  0
 19 20  1  0  0  0
 19 24  1  0  0  0
 20 21  2  0  0  0
 20101  1  0  0  0
 21 23  1  0  0  0
 22 28  1  0  0  0
 22 32  2  0  0  0
 26 27  1  0  0  0
 28102  1  0  0  0
 28103  1  0  0  0
 29104  1  0  0  0
 29105  1  0  0  0
 33 34  1  0  0  0
 33 66  1  0  0  0
 33 70  2  0  0  0
 34 36  1  0  0  0
 34 59  1  0  0  0
 34106  1  0  0  0
 35 44  2  0  0  0
 35 45  1  0  0  0
 35 68  1  0  0  0
 36 56  1  0  0  0
 36107  1  0  0  0
 37 39  1  0  0  0
 37 47  1  0  0  0
 37 66  1  0  0  0
 37108  1  0  0  0
 38 43  2  0  0  0
 38 46  1  0  0  0
 38 47  1  0  0  0
 39 64  1  0  0  0
 39 67  2  0  0  0
 40 52  1  0  0  0
 40 53  2  0  0  0
 40 58  1  0  0  0
 41109  1  0  0  0
 41110  1  0  0  0
 41111  1  0  0  0
 41 48  1  0  0  0
 42 43  1  0  0  0
 42 66  1  0  0  0
 42112  1  0  0  0
 42113  1  0  0  0
 43 44  1  0  0  0
 44114  1  0  0  0
 45 46  2  0  0  0
 45115  1  0  0  0
 46116  1  0  0  0
 47117  1  0  0  0
 47118  1  0  0  0
 48 56  1  0  0  0
 48 65  1  0  0  0
 48119  1  0  0  0
 49 50  1  0  0  0
 49 53  1  0  0  0
 49 64  1  0  0  0
 49120  1  0  0  0
 50 51  1  0  0  0
 50121  1  0  0  0
 50122  1  0  0  0
 51 52  1  0  0  0
 51123  1  0  0  0
 51124  1  0  0  0
 52125  1  0  0  0
 52126  1  0  0  0
 53 54  1  0  0  0
 54 55  2  0  0  0
 54127  1  0  0  0
 55 57  1  0  0  0
 55128  1  0  0  0
 56 69  2  0  0  0
 57 58  2  0  0  0
 57129  1  0  0  0
 58130  1  0  0  0
 59 60  1  0  0  0
 59 61  1  0  0  0
 59 62  1  0  0  0
 60131  1  0  0  0
 60132  1  0  0  0
 60133  1  0  0  0
 61134  1  0  0  0
 61135  1  0  0  0
 61136  1  0  0  0
 62137  1  0  0  0
 62138  1  0  0  0
 62139  1  0  0  0
 63 65  1  0  0  0
 63140  1  0  0  0
 63141  1  0  0  0
 63142  1  0  0  0
 64143  1  0  0  0
 65144  1  0  0  0
 68 80  1  0  0  0
 71 72  2  0  0  0
 71 74  1  0  0  0
 71145  1  0  0  0
 72 76  1  0  0  0
 72146  1  0  0  0
 73 75  1  0  0  0
 73 76  2  0  0  0
 73147  1  0  0  0
 74 75  2  0  0  0
 74 77  1  0  0  0
 75 83  1  0  0  0
 76 84  1  0  0  0
 77 79  1  0  0  0
 77148  1  0  0  0
 77149  1  0  0  0
 78 79  1  0  0  0
 78 83  1  0  0  0
 78150  1  0  0  0
 78151  1  0  0  0
 79 80  1  0  0  0
 79152  1  0  0  0
 80153  1  0  0  0
 80154  1  0  0  0
 81 82  1  0  0  0
 81 84  1  0  0  0
 81155  1  0  0  0
 81156  1  0  0  0
 82 85  1  0  0  0
 82157  1  0  0  0
 82158  1  0  0  0
 83159  1  0  0  0
 84160  1  0  0  0
 85161  1  0  0  0
M  ISO  4   1 100  68 101  80 101  85 100
M  END
> <chiral flag>
0

> <version>
0

> <s_m_source_file>
/data/baiqing/PycharmProjects/Reinvent-master-3.2/result/LINK_invent/BTK/process_docking_weight1_custom_sum_contain_oxygen_bond_distance_aromatic_linkinvent_7_9_3/rearranged_h_0134.sdf

> <i_m_source_file_index>
67

> <r_mmod_Potential_Energy-OPLS-2005>
-119.34691619873

> <r_mmod_Stretch_Energy-OPLS-2005>
32.5041770935059

> <r_mmod_Bend_Energy-OPLS-2005>
89.7974395751953

> <r_mmod_Torsional_Energy-OPLS-2005>
237.241806030273

> <r_mmod_Improper_Torsional_Energy-OPLS-2005>
8.6714448928833

> <r_mmod_Van_der_Waal_Energy-OPLS-2005>
159.692932128906

> <r_mmod_Electrostatic_Energy-OPLS-2005>
-419.786346435547

> <r_mmod_Solvation_Energy-OPLS-2005>
-234.221282958984

> <b_mmod_Minimization_Converged-OPLS-2005>
0

> <r_mmod_RMS_Derivative-OPLS-2005>
2.55565357208252

$$$$
67
                    3D
 Structure written by MMmdl.
169178  0  0  1  0            999 V2000
  -30.7407  -14.4034   20.5657 C   0  0  0  0  0  0
  -30.4024  -12.2639   19.4187 C   0  0  0  0  0  0
  -29.4862  -12.4998   18.2020 C   0  0  0  0  0  0
  -28.0066  -12.3737   18.6124 C   0  0  0  0  0  0
  -27.6600  -13.2081   19.8753 C   0  0  2  0  0  0
  -28.6999  -12.9873   20.9986 C   0  0  0  0  0  0
  -25.2584  -13.8173   20.5672 C   0  0  0  0  0  0
  -24.1836  -13.0449   20.9171 C   0  0  0  0  0  0
  -24.6392  -11.6915   20.8731 C   0  0  0  0  0  0
  -23.9067  -10.4299   21.0409 C   0  0  0  0  0  0
  -24.3619   -9.4214   21.9189 C   0  0  0  0  0  0
  -23.6295   -8.2249   22.0761 C   0  0  0  0  0  0
  -22.4278   -8.0290   21.3546 C   0  0  0  0  0  0
  -21.9914   -9.0258   20.4645 C   0  0  0  0  0  0
  -22.7242  -10.2139   20.3055 C   0  0  0  0  0  0
  -21.6847   -6.0744   22.5278 C   0  0  0  0  0  0
  -21.4009   -6.5642   23.8212 C   0  0  0  0  0  0
  -21.3661   -5.6794   24.9173 C   0  0  0  0  0  0
  -21.6046   -4.3057   24.7223 C   0  0  0  0  0  0
  -21.8821   -3.8153   23.4344 C   0  0  0  0  0  0
  -21.9194   -4.6973   22.3400 C   0  0  0  0  0  0
  -22.7860  -13.5246   21.1846 C   0  0  0  0  0  0
  -22.1664   -4.2158   21.0975 F   0  0  0  0  0  0
  -21.5636   -3.4545   25.7739 F   0  0  0  0  0  0
  -30.0356  -13.2515   20.4434 N   0  0  0  0  0  0
  -26.3013  -12.9343   20.3364 N   0  0  0  0  0  0
  -25.9316  -11.6502   20.5769 N   0  0  0  0  0  0
  -22.0501  -12.8223   22.0389 N   0  0  0  0  0  0
  -25.4319  -15.1890   20.4068 N   0  0  0  0  0  0
  -31.8768  -14.5447   20.1073 O   0  0  0  0  0  0
  -21.6639   -6.8890   21.4241 O   0  0  0  0  0  0
  -22.3553  -14.5569   20.6724 O   0  0  0  0  0  0
  -24.6102  -31.8706   23.2131 C   0  0  0  0  0  0
  -25.9017  -32.4835   23.8416 C   0  0  1  0  0  0
  -27.2332  -27.4796   20.0919 C   0  0  0  0  0  0
  -25.5893  -33.8634   24.2355 N   0  0  0  0  0  0
  -23.3960  -30.4924   21.5525 C   0  0  2  0  0  0
  -24.8439  -28.9628   20.1164 C   0  0  0  0  0  0
  -22.7378  -29.4665   22.5018 C   0  0  0  0  0  0
  -18.0265  -28.1382   22.8494 C   0  0  0  0  0  0
  -24.1484  -36.7317   23.2642 C   0  0  0  0  0  0
  -25.9196  -30.8483   21.3609 C   0  0  0  0  0  0
  -25.9993  -29.4845   20.7134 C   0  0  0  0  0  0
  -27.2005  -28.7469   20.7050 C   0  0  0  0  0  0
  -26.0708  -26.9590   19.4914 C   0  0  0  0  0  0
  -24.8717  -27.6959   19.5048 C   0  0  0  0  0  0
  -23.6017  -29.8225   20.1668 C   0  0  0  0  0  0
  -25.4107  -36.3124   24.0342 C   0  0  1  0  0  0
  -20.5843  -28.3655   23.1340 C   0  0  2  0  0  0
  -20.6752  -26.9393   22.5436 C   0  0  0  0  0  0
  -19.5737  -26.6384   21.5223 C   0  0  0  0  0  0
  -18.1906  -26.7941   22.1605 C   0  0  0  0  0  0
  -19.1509  -28.8837   23.2913 C   0  0  0  0  0  0
  -18.9442  -30.1449   23.8912 C   0  0  0  0  0  0
  -17.6446  -30.6585   24.0581 C   0  0  0  0  0  0
  -25.9027  -34.9484   23.5144 C   0  0  0  0  0  0
  -16.5341  -29.9088   23.6337 C   0  0  0  0  0  0
  -16.7259  -28.6511   23.0351 C   0  0  0  0  0  0
  -26.4464  -31.6596   25.0725 C   0  0  0  0  0  0
  -25.3747  -31.3653   26.1480 C   0  0  0  0  0  0
  -27.0310  -30.3054   24.6069 C   0  0  0  0  0  0
  -27.6034  -32.4314   25.7500 C   0  0  0  0  0  0
  -27.5587  -37.1813   24.8466 C   0  0  0  0  0  0
  -21.4111  -29.3025   22.3752 N   0  0  0  0  0  0
  -26.4297  -37.3806   23.9418 N   0  0  0  0  0  0
  -24.6597  -31.0840   22.1012 N   0  0  0  0  0  0
  -23.4167  -28.8215   23.3053 O   0  0  0  0  0  0
  -28.3823  -26.7403   20.0672 O   0  0  0  0  0  0
  -26.5582  -34.8930   22.4699 O   0  0  0  0  0  0
  -23.5305  -32.1437   23.7551 O   0  0  0  0  0  0
  -28.8166  -23.8877   19.7661 C   0  0  0  0  0  0
  -30.2979  -24.1440   21.6743 C   0  0  0  0  0  0
  -29.2407  -24.6271   20.8839 C   0  0  0  0  0  0
  -29.4645  -22.6897   19.4052 C   0  0  0  0  0  0
  -30.9610  -22.9466   21.3330 C   0  0  0  0  0  0
  -30.5494  -22.2077   20.1883 C   0  0  0  0  0  0
  -30.3487  -17.2727   19.3348 C   0  0  0  0  0  0
  -29.8640  -17.9032   21.6813 C   0  0  0  0  0  0
  -31.0490  -18.6157   19.0967 C   0  0  0  0  0  0
  -30.5306  -19.2828   21.4394 C   0  0  0  0  0  0
  -30.5370  -16.8412   20.7997 C   0  0  1  0  0  0
  -28.9898  -21.9734   18.1480 C   0  0  0  0  0  0
  -32.1388  -22.5172   22.1952 C   0  0  0  0  0  0
  -31.3006  -20.9479   19.7519 C   0  0  0  0  0  0
  -28.5466  -25.9299   21.2262 C   0  0  0  0  0  0
  -30.0591  -15.4688   21.0173 N   0  0  0  0  0  0
  -30.5529  -19.6873   20.0011 N   0  3  1  0  0  0
  -31.4508  -12.3272   19.1234 H   0  0  0  0  0  0
  -30.2665  -11.2546   19.8094 H   0  0  0  0  0  0
  -29.7166  -11.7856   17.4108 H   0  0  0  0  0  0
  -29.6692  -13.4903   17.7822 H   0  0  0  0  0  0
  -27.8041  -11.3182   18.7970 H   0  0  0  0  0  0
  -27.3612  -12.6649   17.7826 H   0  0  0  0  0  0
  -27.7074  -14.2568   19.5818 H   0  0  0  0  0  0
  -28.6558  -11.9577   21.3579 H   0  0  0  0  0  0
  -28.4794  -13.6125   21.8647 H   0  0  0  0  0  0
  -25.2765   -9.5690   22.4761 H   0  0  0  0  0  0
  -24.0008   -7.4649   22.7481 H   0  0  0  0  0  0
  -21.0852   -8.8775   19.8944 H   0  0  0  0  0  0
  -22.3709  -10.9679   19.6163 H   0  0  0  0  0  0
  -21.1985   -7.6144   23.9717 H   0  0  0  0  0  0
  -21.1486   -6.0524   25.9080 H   0  0  0  0  0  0
  -22.0594   -2.7614   23.2845 H   0  0  0  0  0  0
  -22.4113  -11.9866   22.4740 H   0  0  0  0  0  0
  -21.1134  -13.1264   22.2628 H   0  0  0  0  0  0
  -24.6669  -15.8467   20.5105 H   0  0  0  0  0  0
  -26.2869  -15.6242   20.0839 H   0  0  0  0  0  0
  -26.7092  -32.5579   23.1190 H   0  0  0  0  0  0
  -25.0082  -33.9804   25.0526 H   0  0  0  0  0  0
  -22.6837  -31.3081   21.4135 H   0  0  0  0  0  0
  -23.3752  -35.9645   23.3309 H   0  0  0  0  0  0
  -24.3575  -36.8926   22.2056 H   0  0  0  0  0  0
  -23.7221  -37.6512   23.6658 H   0  0  0  0  0  0
  -26.0238  -31.6122   20.5896 H   0  0  0  0  0  0
  -26.8092  -30.9057   21.9751 H   0  0  0  0  0  0
  -28.0956  -29.1451   21.1618 H   0  0  0  0  0  0
  -26.0952  -25.9857   19.0216 H   0  0  0  0  0  0
  -23.9840  -27.2866   19.0434 H   0  0  0  0  0  0
  -23.7047  -30.5955   19.4047 H   0  0  0  0  0  0
  -22.7275  -29.2371   19.8750 H   0  0  0  0  0  0
  -25.1282  -36.1997   25.0839 H   0  0  0  0  0  0
  -20.9933  -28.3226   24.1462 H   0  0  0  0  0  0
  -20.5658  -26.2264   23.3621 H   0  0  0  0  0  0
  -21.6632  -26.7440   22.1240 H   0  0  0  0  0  0
  -19.6898  -25.6299   21.1249 H   0  0  0  0  0  0
  -19.6689  -27.3209   20.6770 H   0  0  0  0  0  0
  -17.4190  -26.6735   21.3981 H   0  0  0  0  0  0
  -18.0254  -26.0064   22.8971 H   0  0  0  0  0  0
  -19.7911  -30.7284   24.2267 H   0  0  0  0  0  0
  -17.4991  -31.6262   24.5185 H   0  0  0  0  0  0
  -15.5343  -30.2996   23.7652 H   0  0  0  0  0  0
  -15.8658  -28.0855   22.7041 H   0  0  0  0  0  0
  -24.5995  -30.6900   25.7837 H   0  0  0  0  0  0
  -24.8847  -32.2777   26.4884 H   0  0  0  0  0  0
  -25.8148  -30.8898   27.0256 H   0  0  0  0  0  0
  -26.2849  -29.6796   24.1159 H   0  0  0  0  0  0
  -27.4139  -29.7294   25.4504 H   0  0  0  0  0  0
  -27.8646  -30.4393   23.9170 H   0  0  0  0  0  0
  -27.2650  -33.3593   26.2117 H   0  0  0  0  0  0
  -28.3833  -32.6901   25.0328 H   0  0  0  0  0  0
  -28.0716  -31.8414   26.5390 H   0  0  0  0  0  0
  -28.2605  -38.0111   24.7535 H   0  0  0  0  0  0
  -28.1086  -36.2647   24.6274 H   0  0  0  0  0  0
  -27.2311  -37.1444   25.8868 H   0  0  0  0  0  0
  -20.9268  -29.8750   21.6977 H   0  0  0  0  0  0
  -26.0191  -38.2880   24.1435 H   0  0  0  0  0  0
  -27.9983  -24.2649   19.1684 H   0  0  0  0  0  0
  -30.6156  -24.7144   22.5361 H   0  0  0  0  0  0
  -30.7697  -16.5379   18.6471 H   0  0  0  0  0  0
  -29.2883  -17.3469   19.0880 H   0  0  0  0  0  0
  -28.7946  -17.9580   21.4718 H   0  0  0  0  0  0
  -29.9585  -17.6359   22.7348 H   0  0  0  0  0  0
  -30.9002  -18.9141   18.0582 H   0  0  0  0  0  0
  -32.1249  -18.4927   19.2336 H   0  0  0  0  0  0
  -31.5545  -19.2471   21.8150 H   0  0  0  0  0  0
  -30.0126  -20.0448   22.0232 H   0  0  0  0  0  0
  -31.6041  -16.8573   21.0397 H   0  0  0  0  0  0
  -28.1227  -22.4696   17.7108 H   0  0  0  0  0  0
  -28.6947  -20.9466   18.3590 H   0  0  0  0  0  0
  -29.7711  -21.9655   17.3875 H   0  0  0  0  0  0
  -32.2485  -23.1577   23.0709 H   0  0  0  0  0  0
  -33.0700  -22.5804   21.6307 H   0  0  0  0  0  0
  -32.0189  -21.4982   22.5595 H   0  0  0  0  0  0
  -32.2894  -20.8811   20.2032 H   0  0  0  0  0  0
  -31.5045  -21.0541   18.6856 H   0  0  0  0  0  0
  -29.1243  -26.4867   21.9653 H   0  0  0  0  0  0
  -27.5906  -25.6829   21.6940 H   0  0  0  0  0  0
  -29.1236  -15.3206   21.3669 H   0  0  0  0  0  0
  -29.5978  -19.8729   19.7356 H   0  0  0  0  0  0
  1 25  1  0  0  0
  1 30  2  0  0  0
  1 86  1  0  0  0
  2  3  1  0  0  0
  2 25  1  0  0  0
  2 88  1  0  0  0
  2 89  1  0  0  0
  3  4  1  0  0  0
  3 90  1  0  0  0
  3 91  1  0  0  0
  4  5  1  0  0  0
  4 92  1  0  0  0
  4 93  1  0  0  0
  5  6  1  0  0  0
  5 26  1  0  0  0
  5 94  1  0  0  0
  6 25  1  0  0  0
  6 95  1  0  0  0
  6 96  1  0  0  0
  7  8  2  0  0  0
  7 26  1  0  0  0
  7 29  1  0  0  0
  8  9  1  0  0  0
  8 22  1  0  0  0
  9 10  1  0  0  0
  9 27  2  0  0  0
 10 11  2  0  0  0
 10 15  1  0  0  0
 11 12  1  0  0  0
 11 97  1  0  0  0
 12 13  2  0  0  0
 12 98  1  0  0  0
 13 14  1  0  0  0
 13 31  1  0  0  0
 14 15  2  0  0  0
 14 99  1  0  0  0
 15100  1  0  0  0
 16 17  2  0  0  0
 16 21  1  0  0  0
 16 31  1  0  0  0
 17 18  1  0  0  0
 17101  1  0  0  0
 18 19  2  0  0  0
 18102  1  0  0  0
 19 20  1  0  0  0
 19 24  1  0  0  0
 20 21  2  0  0  0
 20103  1  0  0  0
 21 23  1  0  0  0
 22 28  1  0  0  0
 22 32  2  0  0  0
 26 27  1  0  0  0
 28104  1  0  0  0
 28105  1  0  0  0
 29106  1  0  0  0
 29107  1  0  0  0
 33 34  1  0  0  0
 33 66  1  0  0  0
 33 70  2  0  0  0
 34 36  1  0  0  0
 34 59  1  0  0  0
 34108  1  0  0  0
 35 44  2  0  0  0
 35 45  1  0  0  0
 35 68  1  0  0  0
 36 56  1  0  0  0
 36109  1  0  0  0
 37 39  1  0  0  0
 37 47  1  0  0  0
 37 66  1  0  0  0
 37110  1  0  0  0
 38 43  2  0  0  0
 38 46  1  0  0  0
 38 47  1  0  0  0
 39 64  1  0  0  0
 39 67  2  0  0  0
 40 52  1  0  0  0
 40 53  2  0  0  0
 40 58  1  0  0  0
 41111  1  0  0  0
 41112  1  0  0  0
 41113  1  0  0  0
 41 48  1  0  0  0
 42 43  1  0  0  0
 42 66  1  0  0  0
 42114  1  0  0  0
 42115  1  0  0  0
 43 44  1  0  0  0
 44116  1  0  0  0
 45 46  2  0  0  0
 45117  1  0  0  0
 46118  1  0  0  0
 47119  1  0  0  0
 47120  1  0  0  0
 48 56  1  0  0  0
 48 65  1  0  0  0
 48121  1  0  0  0
 49 50  1  0  0  0
 49 53  1  0  0  0
 49 64  1  0  0  0
 49122  1  0  0  0
 50 51  1  0  0  0
 50123  1  0  0  0
 50124  1  0  0  0
 51 52  1  0  0  0
 51125  1  0  0  0
 51126  1  0  0  0
 52127  1  0  0  0
 52128  1  0  0  0
 53 54  1  0  0  0
 54 55  2  0  0  0
 54129  1  0  0  0
 55 57  1  0  0  0
 55130  1  0  0  0
 56 69  2  0  0  0
 57 58  2  0  0  0
 57131  1  0  0  0
 58132  1  0  0  0
 59 60  1  0  0  0
 59 61  1  0  0  0
 59 62  1  0  0  0
 60133  1  0  0  0
 60134  1  0  0  0
 60135  1  0  0  0
 61136  1  0  0  0
 61137  1  0  0  0
 61138  1  0  0  0
 62139  1  0  0  0
 62140  1  0  0  0
 62141  1  0  0  0
 63 65  1  0  0  0
 63142  1  0  0  0
 63143  1  0  0  0
 63144  1  0  0  0
 64145  1  0  0  0
 65146  1  0  0  0
 68 85  1  0  0  0
 71 73  2  0  0  0
 71 74  1  0  0  0
 71147  1  0  0  0
 72 73  1  0  0  0
 72 75  2  0  0  0
 72148  1  0  0  0
 73 85  1  0  0  0
 74 76  2  0  0  0
 74 82  1  0  0  0
 75 76  1  0  0  0
 75 83  1  0  0  0
 76 84  1  0  0  0
 77 79  1  0  0  0
 77 81  1  0  0  0
 77149  1  0  0  0
 77150  1  0  0  0
 78 80  1  0  0  0
 78 81  1  0  0  0
 78151  1  0  0  0
 78152  1  0  0  0
 79 87  1  0  0  0
 79153  1  0  0  0
 79154  1  0  0  0
 80 87  1  0  0  0
 80155  1  0  0  0
 80156  1  0  0  0
 81 86  1  0  0  0
 81157  1  0  0  0
 82158  1  0  0  0
 82159  1  0  0  0
 82160  1  0  0  0
 83161  1  0  0  0
 83162  1  0  0  0
 83163  1  0  0  0
 84164  1  0  0  0
 84165  1  0  0  0
 84 87  1  0  0  0
 85166  1  0  0  0
 85167  1  0  0  0
 86168  1  0  0  0
 87169  1  0  0  0
M  CHG  1  87   1
M  ISO  4   1 100  68 101  85 101  86 100
M  END
> <chiral flag>
0

> <version>
0

> <s_m_source_file>
/data/baiqing/PycharmProjects/Reinvent-master-3.2/result/LINK_invent/BTK/process_docking_weight1_custom_sum_contain_oxygen_bond_distance_aromatic_linkinvent_7_9_3/rearranged_h_0134.sdf

> <i_m_source_file_index>
68

> <r_mmod_Potential_Energy-OPLS-2005>
-123.604286193848

> <r_mmod_Stretch_Energy-OPLS-2005>
34.365779876709

> <r_mmod_Bend_Energy-OPLS-2005>
93.4950637817383

> <r_mmod_Torsional_Energy-OPLS-2005>
255.818222045898

> <r_mmod_Improper_Torsional_Energy-OPLS-2005>
5.29676818847656

> <r_mmod_Van_der_Waal_Energy-OPLS-2005>
159.488067626953

> <r_mmod_Electrostatic_Energy-OPLS-2005>
-249.841812133789

> <r_mmod_Solvation_Energy-OPLS-2005>
-432.651977539062

> <b_mmod_Minimization_Converged-OPLS-2005>
0

> <r_mmod_RMS_Derivative-OPLS-2005>
1.27489459514618

$$$$
68
                    3D
 Structure written by MMmdl.
156165  0  0  1  0            999 V2000
  -30.5395  -14.9716   20.4412 C   0  0  0  0  0  0
  -30.4416  -12.6123   19.4916 C   0  0  0  0  0  0
  -29.5222  -12.5483   18.2491 C   0  0  0  0  0  0
  -28.0516  -12.3326   18.6638 C   0  0  0  0  0  0
  -27.6272  -13.2546   19.8370 C   0  0  2  0  0  0
  -28.6736  -13.2866   20.9710 C   0  0  0  0  0  0
  -25.2440  -13.8213   20.5708 C   0  0  0  0  0  0
  -24.1763  -13.0425   20.9230 C   0  0  0  0  0  0
  -24.6390  -11.6915   20.8740 C   0  0  0  0  0  0
  -23.9064  -10.4284   21.0385 C   0  0  0  0  0  0
  -24.3612   -9.4207   21.9166 C   0  0  0  0  0  0
  -23.6303   -8.2233   22.0731 C   0  0  0  0  0  0
  -22.4288   -8.0258   21.3528 C   0  0  0  0  0  0
  -21.9918   -9.0231   20.4631 C   0  0  0  0  0  0
  -22.7228  -10.2119   20.3041 C   0  0  0  0  0  0
  -21.6860   -6.0722   22.5281 C   0  0  0  0  0  0
  -21.4017   -6.5631   23.8212 C   0  0  0  0  0  0
  -21.3667   -5.6786   24.9176 C   0  0  0  0  0  0
  -21.6051   -4.3051   24.7223 C   0  0  0  0  0  0
  -21.8819   -3.8132   23.4346 C   0  0  0  0  0  0
  -21.9189   -4.6949   22.3405 C   0  0  0  0  0  0
  -22.7780  -13.5181   21.1897 C   0  0  0  0  0  0
  -22.1656   -4.2130   21.0982 F   0  0  0  0  0  0
  -21.5639   -3.4539   25.7736 F   0  0  0  0  0  0
  -29.9433  -13.7108   20.3677 N   0  0  0  0  0  0
  -26.2873  -12.9458   20.3243 N   0  0  0  0  0  0
  -25.9327  -11.6579   20.5728 N   0  0  0  0  0  0
  -22.0444  -12.8169   22.0468 N   0  0  0  0  0  0
  -25.4098  -15.1938   20.4095 N   0  0  0  0  0  0
  -31.7485  -15.0302   20.1979 O   0  0  0  0  0  0
  -21.6644   -6.8861   21.4235 O   0  0  0  0  0  0
  -22.3462  -14.5485   20.6729 O   0  0  0  0  0  0
  -24.6460  -31.8425   23.1867 C   0  0  0  0  0  0
  -25.9221  -32.4686   23.8270 C   0  0  1  0  0  0
  -27.2129  -27.1137   20.1535 C   0  0  0  0  0  0
  -25.5960  -33.8498   24.2180 N   0  0  0  0  0  0
  -23.4505  -30.4620   21.5323 C   0  0  2  0  0  0
  -24.8997  -28.8849   20.1072 C   0  0  0  0  0  0
  -22.7576  -29.4541   22.4846 C   0  0  0  0  0  0
  -18.0307  -28.1396   22.8480 C   0  0  0  0  0  0
  -24.1496  -36.7258   23.2643 C   0  0  0  0  0  0
  -26.0078  -30.7075   21.3905 C   0  0  0  0  0  0
  -26.0760  -29.3167   20.7320 C   0  0  0  0  0  0
  -27.2323  -28.4457   20.7403 C   0  0  0  0  0  0
  -26.0122  -26.7911   19.4839 C   0  0  0  0  0  0
  -24.8816  -27.6372   19.4659 C   0  0  0  0  0  0
  -23.6789  -29.7920   20.1508 C   0  0  0  0  0  0
  -25.4127  -36.3032   24.0316 C   0  0  1  0  0  0
  -20.5915  -28.3732   23.1233 C   0  0  2  0  0  0
  -20.6791  -26.9431   22.5413 C   0  0  0  0  0  0
  -19.5770  -26.6376   21.5223 C   0  0  0  0  0  0
  -18.1943  -26.7935   22.1623 C   0  0  0  0  0  0
  -19.1561  -28.8880   23.2850 C   0  0  0  0  0  0
  -18.9475  -30.1472   23.8885 C   0  0  0  0  0  0
  -17.6470  -30.6593   24.0557 C   0  0  0  0  0  0
  -25.9084  -34.9408   23.5060 C   0  0  0  0  0  0
  -16.5363  -29.9088   23.6327 C   0  0  0  0  0  0
  -16.7289  -28.6502   23.0356 C   0  0  0  0  0  0
  -26.4519  -31.6559   25.0727 C   0  0  0  0  0  0
  -25.3686  -31.3765   26.1412 C   0  0  0  0  0  0
  -27.0379  -30.2948   24.6334 C   0  0  0  0  0  0
  -27.6064  -32.4306   25.7511 C   0  0  0  0  0  0
  -27.5582  -37.1784   24.8450 C   0  0  0  0  0  0
  -21.4264  -29.3053   22.3602 N   0  0  0  0  0  0
  -26.4281  -37.3750   23.9412 N   0  0  0  0  0  0
  -24.7214  -31.0255   22.0917 N   0  0  0  0  0  0
  -23.4207  -28.8087   23.3005 O   0  0  0  0  0  0
  -28.2550  -26.1121   20.2369 O   0  0  0  0  0  0
  -26.5674  -34.8904   22.4640 O   0  0  0  0  0  0
  -23.5567  -32.1318   23.7065 O   0  0  0  0  0  0
  -29.2142  -18.8178   20.2377 C   0  0  0  0  0  0
  -30.5430  -20.4248   21.4132 C   0  0  0  0  0  0
  -29.4451  -20.2557   20.5603 C   0  0  0  0  0  0
  -30.0114  -17.6675   20.7552 C   0  0  0  0  0  0
  -31.0264  -18.1023   21.6572 C   0  0  0  0  0  0
  -32.8673  -17.6344   23.5369 C   0  0  0  0  0  0
  -33.3332  -16.9590   22.2688 C   0  0  0  0  0  0
  -31.8524  -17.1571   22.5084 C   0  0  0  0  0  0
  -28.5967  -21.6031   20.0839 C   0  0  0  0  0  0
  -28.9311  -23.2364   20.4408 C   0  0  0  0  0  0
  -27.9862  -24.5838   20.0094 C   0  0  0  0  0  0
  -31.2723  -19.4110   21.9322 N   0  0  0  0  0  0
  -29.7448  -16.1581   20.5301 N   0  0  0  0  0  0
  -31.4768  -12.7755   19.1845 H   0  0  0  0  0  0
  -30.4332  -11.6606   20.0243 H   0  0  0  0  0  0
  -29.8480  -11.7549   17.5763 H   0  0  0  0  0  0
  -29.6087  -13.4814   17.6868 H   0  0  0  0  0  0
  -27.9415  -11.2879   18.9560 H   0  0  0  0  0  0
  -27.3871  -12.4798   17.8108 H   0  0  0  0  0  0
  -27.5845  -14.2586   19.4144 H   0  0  0  0  0  0
  -28.7713  -12.3101   21.4460 H   0  0  0  0  0  0
  -28.3689  -13.9845   21.7523 H   0  0  0  0  0  0
  -25.2753   -9.5699   22.4741 H   0  0  0  0  0  0
  -24.0023   -7.4626   22.7460 H   0  0  0  0  0  0
  -21.0840   -8.8747   19.8949 H   0  0  0  0  0  0
  -22.3675  -10.9653   19.6156 H   0  0  0  0  0  0
  -21.2016   -7.6141   23.9713 H   0  0  0  0  0  0
  -21.1498   -6.0512   25.9083 H   0  0  0  0  0  0
  -22.0594   -2.7592   23.2843 H   0  0  0  0  0  0
  -22.4065  -11.9837   22.4875 H   0  0  0  0  0  0
  -21.1048  -13.1172   22.2659 H   0  0  0  0  0  0
  -24.6344  -15.8403   20.5029 H   0  0  0  0  0  0
  -26.2426  -15.6336   20.0406 H   0  0  0  0  0  0
  -26.7290  -32.5280   23.1003 H   0  0  0  0  0  0
  -25.0064  -33.9607   25.0301 H   0  0  0  0  0  0
  -22.7549  -31.2893   21.3770 H   0  0  0  0  0  0
  -23.3766  -35.9578   23.3264 H   0  0  0  0  0  0
  -24.3594  -36.8936   22.2065 H   0  0  0  0  0  0
  -23.7232  -37.6437   23.6706 H   0  0  0  0  0  0
  -26.1657  -31.4605   20.6166 H   0  0  0  0  0  0
  -26.8774  -30.7587   22.0337 H   0  0  0  0  0  0
  -28.1251  -28.7677   21.2574 H   0  0  0  0  0  0
  -25.9138  -25.8390   18.9849 H   0  0  0  0  0  0
  -23.9846  -27.3079   18.9599 H   0  0  0  0  0  0
  -23.8217  -30.5685   19.3985 H   0  0  0  0  0  0
  -22.7926  -29.2397   19.8344 H   0  0  0  0  0  0
  -25.1311  -36.1861   25.0806 H   0  0  0  0  0  0
  -21.0009  -28.3330   24.1356 H   0  0  0  0  0  0
  -20.5679  -26.2350   23.3641 H   0  0  0  0  0  0
  -21.6658  -26.7434   22.1219 H   0  0  0  0  0  0
  -19.6931  -25.6276   21.1283 H   0  0  0  0  0  0
  -19.6711  -27.3161   20.6728 H   0  0  0  0  0  0
  -17.4219  -26.6683   21.4017 H   0  0  0  0  0  0
  -18.0334  -26.0084   22.9019 H   0  0  0  0  0  0
  -19.7949  -30.7285   24.2258 H   0  0  0  0  0  0
  -17.5023  -31.6279   24.5154 H   0  0  0  0  0  0
  -15.5359  -30.2984   23.7662 H   0  0  0  0  0  0
  -15.8687  -28.0815   22.7079 H   0  0  0  0  0  0
  -24.5891  -30.7086   25.7728 H   0  0  0  0  0  0
  -24.8840  -32.2945   26.4744 H   0  0  0  0  0  0
  -25.7952  -30.9005   27.0247 H   0  0  0  0  0  0
  -26.3000  -29.6669   24.1325 H   0  0  0  0  0  0
  -27.3948  -29.7258   25.4925 H   0  0  0  0  0  0
  -27.8927  -30.4160   23.9680 H   0  0  0  0  0  0
  -27.2687  -33.3623   26.2047 H   0  0  0  0  0  0
  -28.3905  -32.6820   25.0363 H   0  0  0  0  0  0
  -28.0696  -31.8450   26.5457 H   0  0  0  0  0  0
  -28.2560  -38.0117   24.7539 H   0  0  0  0  0  0
  -28.1117  -36.2651   24.6214 H   0  0  0  0  0  0
  -27.2316  -37.1358   25.8854 H   0  0  0  0  0  0
  -20.9474  -29.8778   21.6795 H   0  0  0  0  0  0
  -26.0147  -38.2815   24.1427 H   0  0  0  0  0  0
  -28.3872  -18.5893   19.5812 H   0  0  0  0  0  0
  -30.8375  -21.4164   21.7281 H   0  0  0  0  0  0
  -33.0775  -18.6978   23.6367 H   0  0  0  0  0  0
  -32.9582  -17.0607   24.4585 H   0  0  0  0  0  0
  -33.7298  -15.9496   22.3618 H   0  0  0  0  0  0
  -33.8153  -17.5879   21.5250 H   0  0  0  0  0  0
  -31.2582  -16.3047   22.8275 H   0  0  0  0  0  0
  -27.5759  -21.4240   20.4211 H   0  0  0  0  0  0
  -28.5327  -21.5304   18.9981 H   0  0  0  0  0  0
  -29.9305  -23.4350   20.0551 H   0  0  0  0  0  0
  -29.0380  -23.2937   21.5239 H   0  0  0  0  0  0
  -27.0104  -24.3919   20.4583 H   0  0  0  0  0  0
  -27.8265  -24.4872   18.9350 H   0  0  0  0  0  0
  -28.7621  -15.9374   20.4499 H   0  0  0  0  0  0
  1 25  1  0  0  0
  1 30  2  0  0  0
  1 83  1  0  0  0
  2  3  1  0  0  0
  2 25  1  0  0  0
  2 84  1  0  0  0
  2 85  1  0  0  0
  3  4  1  0  0  0
  3 86  1  0  0  0
  3 87  1  0  0  0
  4  5  1  0  0  0
  4 88  1  0  0  0
  4 89  1  0  0  0
  5  6  1  0  0  0
  5 26  1  0  0  0
  5 90  1  0  0  0
  6 25  1  0  0  0
  6 91  1  0  0  0
  6 92  1  0  0  0
  7  8  2  0  0  0
  7 26  1  0  0  0
  7 29  1  0  0  0
  8  9  1  0  0  0
  8 22  1  0  0  0
  9 10  1  0  0  0
  9 27  2  0  0  0
 10 11  2  0  0  0
 10 15  1  0  0  0
 11 12  1  0  0  0
 11 93  1  0  0  0
 12 13  2  0  0  0
 12 94  1  0  0  0
 13 14  1  0  0  0
 13 31  1  0  0  0
 14 15  2  0  0  0
 14 95  1  0  0  0
 15 96  1  0  0  0
 16 17  2  0  0  0
 16 21  1  0  0  0
 16 31  1  0  0  0
 17 18  1  0  0  0
 17 97  1  0  0  0
 18 19  2  0  0  0
 18 98  1  0  0  0
 19 20  1  0  0  0
 19 24  1  0  0  0
 20 21  2  0  0  0
 20 99  1  0  0  0
 21 23  1  0  0  0
 22 28  1  0  0  0
 22 32  2  0  0  0
 26 27  1  0  0  0
 28100  1  0  0  0
 28101  1  0  0  0
 29102  1  0  0  0
 29103  1  0  0  0
 33 34  1  0  0  0
 33 66  1  0  0  0
 33 70  2  0  0  0
 34 36  1  0  0  0
 34 59  1  0  0  0
 34104  1  0  0  0
 35 44  2  0  0  0
 35 45  1  0  0  0
 35 68  1  0  0  0
 36 56  1  0  0  0
 36105  1  0  0  0
 37 39  1  0  0  0
 37 47  1  0  0  0
 37 66  1  0  0  0
 37106  1  0  0  0
 38 43  2  0  0  0
 38 46  1  0  0  0
 38 47  1  0  0  0
 39 64  1  0  0  0
 39 67  2  0  0  0
 40 52  1  0  0  0
 40 53  2  0  0  0
 40 58  1  0  0  0
 41107  1  0  0  0
 41108  1  0  0  0
 41109  1  0  0  0
 41 48  1  0  0  0
 42 43  1  0  0  0
 42 66  1  0  0  0
 42110  1  0  0  0
 42111  1  0  0  0
 43 44  1  0  0  0
 44112  1  0  0  0
 45 46  2  0  0  0
 45113  1  0  0  0
 46114  1  0  0  0
 47115  1  0  0  0
 47116  1  0  0  0
 48 56  1  0  0  0
 48 65  1  0  0  0
 48117  1  0  0  0
 49 50  1  0  0  0
 49 53  1  0  0  0
 49 64  1  0  0  0
 49118  1  0  0  0
 50 51  1  0  0  0
 50119  1  0  0  0
 50120  1  0  0  0
 51 52  1  0  0  0
 51121  1  0  0  0
 51122  1  0  0  0
 52123  1  0  0  0
 52124  1  0  0  0
 53 54  1  0  0  0
 54 55  2  0  0  0
 54125  1  0  0  0
 55 57  1  0  0  0
 55126  1  0  0  0
 56 69  2  0  0  0
 57 58  2  0  0  0
 57127  1  0  0  0
 58128  1  0  0  0
 59 60  1  0  0  0
 59 61  1  0  0  0
 59 62  1  0  0  0
 60129  1  0  0  0
 60130  1  0  0  0
 60131  1  0  0  0
 61132  1  0  0  0
 61133  1  0  0  0
 61134  1  0  0  0
 62135  1  0  0  0
 62136  1  0  0  0
 62137  1  0  0  0
 63 65  1  0  0  0
 63138  1  0  0  0
 63139  1  0  0  0
 63140  1  0  0  0
 64141  1  0  0  0
 65142  1  0  0  0
 68 81  1  0  0  0
 71 73  2  0  0  0
 71 74  1  0  0  0
 71143  1  0  0  0
 72 73  1  0  0  0
 72 82  2  0  0  0
 72144  1  0  0  0
 73 79  1  0  0  0
 74 75  2  0  0  0
 74 83  1  0  0  0
 75 82  1  0  0  0
 75 78  1  0  0  0
 76 77  1  0  0  0
 76 78  1  0  0  0
 76145  1  0  0  0
 76146  1  0  0  0
 77 78  1  0  0  0
 77147  1  0  0  0
 77148  1  0  0  0
 78149  1  0  0  0
 79 80  1  0  0  0
 79150  1  0  0  0
 79151  1  0  0  0
 80 81  1  0  0  0
 80152  1  0  0  0
 80153  1  0  0  0
 81154  1  0  0  0
 81155  1  0  0  0
 83156  1  0  0  0
M  ISO  4   1 100  68 101  81 101  83 100
M  END
> <chiral flag>
0

> <version>
0

> <s_m_source_file>
/data/baiqing/PycharmProjects/Reinvent-master-3.2/result/LINK_invent/BTK/process_docking_weight1_custom_sum_contain_oxygen_bond_distance_aromatic_linkinvent_7_9_3/rearranged_h_0134.sdf

> <i_m_source_file_index>
69

> <r_mmod_Potential_Energy-OPLS-2005>
408.643981933594

> <r_mmod_Stretch_Energy-OPLS-2005>
284.360961914062

> <r_mmod_Bend_Energy-OPLS-2005>
254.097106933594

> <r_mmod_Torsional_Energy-OPLS-2005>
252.343978881836

> <r_mmod_Improper_Torsional_Energy-OPLS-2005>
6.73450136184692

> <r_mmod_Van_der_Waal_Energy-OPLS-2005>
131.847045898438

> <r_mmod_Electrostatic_Energy-OPLS-2005>
-513.139953613281

> <r_mmod_Solvation_Energy-OPLS-2005>
-219.932281494141

> <b_mmod_Minimization_Converged-OPLS-2005>
0

> <r_mmod_RMS_Derivative-OPLS-2005>
2.31354284286499

$$$$
69
                    3D
 Structure written by MMmdl.
159168  0  0  1  0            999 V2000
  -30.6513  -14.7469   20.4818 C   0  0  0  0  0  0
  -30.4181  -12.4630   19.4722 C   0  0  0  0  0  0
  -29.4952  -12.5072   18.2363 C   0  0  0  0  0  0
  -28.0335  -12.2939   18.6685 C   0  0  0  0  0  0
  -27.6326  -13.2106   19.8526 C   0  0  2  0  0  0
  -28.6818  -13.1943   20.9868 C   0  0  0  0  0  0
  -25.2523  -13.8138   20.5767 C   0  0  0  0  0  0
  -24.1788  -13.0426   20.9251 C   0  0  0  0  0  0
  -24.6335  -11.6880   20.8776 C   0  0  0  0  0  0
  -23.9014  -10.4284   21.0422 C   0  0  0  0  0  0
  -24.3586   -9.4206   21.9195 C   0  0  0  0  0  0
  -23.6287   -8.2229   22.0747 C   0  0  0  0  0  0
  -22.4266   -8.0269   21.3542 C   0  0  0  0  0  0
  -21.9891   -9.0232   20.4647 C   0  0  0  0  0  0
  -22.7193  -10.2126   20.3066 C   0  0  0  0  0  0
  -21.6847   -6.0730   22.5286 C   0  0  0  0  0  0
  -21.4001   -6.5641   23.8218 C   0  0  0  0  0  0
  -21.3664   -5.6802   24.9179 C   0  0  0  0  0  0
  -21.6055   -4.3069   24.7238 C   0  0  0  0  0  0
  -21.8825   -3.8149   23.4365 C   0  0  0  0  0  0
  -21.9196   -4.6959   22.3408 C   0  0  0  0  0  0
  -22.7822  -13.5232   21.1889 C   0  0  0  0  0  0
  -22.1668   -4.2150   21.0982 F   0  0  0  0  0  0
  -21.5644   -3.4554   25.7749 F   0  0  0  0  0  0
  -29.9822  -13.5404   20.3964 N   0  0  0  0  0  0
  -26.2892  -12.9279   20.3350 N   0  0  0  0  0  0
  -25.9254  -11.6453   20.5797 N   0  0  0  0  0  0
  -22.0459  -12.8219   22.0434 N   0  0  0  0  0  0
  -25.4275  -15.1869   20.4207 N   0  0  0  0  0  0
  -31.8175  -14.8120   20.0804 O   0  0  0  0  0  0
  -21.6635   -6.8862   21.4238 O   0  0  0  0  0  0
  -22.3514  -14.5534   20.6730 O   0  0  0  0  0  0
  -24.6337  -31.8568   23.1988 C   0  0  0  0  0  0
  -25.9147  -32.4758   23.8344 C   0  0  1  0  0  0
  -27.2147  -27.2475   20.1172 C   0  0  0  0  0  0
  -25.5935  -33.8570   24.2288 N   0  0  0  0  0  0
  -23.4326  -30.4779   21.5424 C   0  0  2  0  0  0
  -24.8762  -28.9299   20.1031 C   0  0  0  0  0  0
  -22.7526  -29.4607   22.4903 C   0  0  0  0  0  0
  -18.0305  -28.1381   22.8526 C   0  0  0  0  0  0
  -24.1483  -36.7287   23.2641 C   0  0  0  0  0  0
  -25.9806  -30.7578   21.3845 C   0  0  0  0  0  0
  -26.0496  -29.3819   20.7224 C   0  0  0  0  0  0
  -27.2198  -28.5535   20.7218 C   0  0  0  0  0  0
  -26.0208  -26.8797   19.4525 C   0  0  0  0  0  0
  -24.8684  -27.6858   19.4577 C   0  0  0  0  0  0
  -23.6510  -29.8211   20.1554 C   0  0  0  0  0  0
  -25.4117  -36.3090   24.0334 C   0  0  1  0  0  0
  -20.5918  -28.3708   23.1240 C   0  0  2  0  0  0
  -20.6811  -26.9455   22.5341 C   0  0  0  0  0  0
  -19.5700  -26.6402   21.5220 C   0  0  0  0  0  0
  -18.1943  -26.7883   22.1760 C   0  0  0  0  0  0
  -19.1566  -28.8869   23.2865 C   0  0  0  0  0  0
  -18.9493  -30.1468   23.8891 C   0  0  0  0  0  0
  -17.6488  -30.6583   24.0584 C   0  0  0  0  0  0
  -25.9060  -34.9450   23.5121 C   0  0  0  0  0  0
  -16.5362  -29.9098   23.6326 C   0  0  0  0  0  0
  -16.7290  -28.6515   23.0362 C   0  0  0  0  0  0
  -26.4501  -31.6568   25.0731 C   0  0  0  0  0  0
  -25.3710  -31.3722   26.1444 C   0  0  0  0  0  0
  -27.0355  -30.2979   24.6227 C   0  0  0  0  0  0
  -27.6053  -32.4316   25.7494 C   0  0  0  0  0  0
  -27.5595  -37.1804   24.8472 C   0  0  0  0  0  0
  -21.4225  -29.3058   22.3632 N   0  0  0  0  0  0
  -26.4309  -37.3784   23.9408 N   0  0  0  0  0  0
  -24.7015  -31.0502   22.0979 N   0  0  0  0  0  0
  -23.4209  -28.8144   23.3004 O   0  0  0  0  0  0
  -28.2965  -26.3299   20.1920 O   0  0  0  0  0  0
  -26.5634  -34.8923   22.4693 O   0  0  0  0  0  0
  -23.5473  -32.1390   23.7261 O   0  0  0  0  0  0
  -28.5986  -16.9562   19.3317 C   0  0  0  0  0  0
  -28.0768  -19.3447   19.3573 C   0  0  0  0  0  0
  -27.8528  -18.0463   18.8368 C   0  0  0  0  0  0
  -29.1056  -19.5295   20.3044 C   0  0  0  0  0  0
  -29.5246  -17.1123   20.3807 C   0  0  0  0  0  0
  -27.2313  -20.5397   18.8982 C   0  0  0  0  0  0
  -29.4395  -21.0233   20.7650 C   0  0  0  0  0  0
  -27.3194  -21.7875   19.8084 C   0  0  0  0  0  0
  -26.8113  -17.7963   17.7591 C   0  0  0  0  0  0
  -28.9523  -23.6416   20.5163 C   0  0  0  0  0  0
  -28.0556  -24.8609   19.9107 C   0  0  0  0  0  0
  -29.7680  -18.4143   20.8247 N   0  0  0  0  0  0
  -30.0490  -15.8794   21.0136 N   0  0  0  0  0  0
  -28.7292  -22.1776   20.0295 N   0  3  1  0  0  0
  -31.4627  -12.5606   19.1719 H   0  0  0  0  0  0
  -30.3473  -11.4941   19.9678 H   0  0  0  0  0  0
  -29.7886  -11.7455   17.5126 H   0  0  0  0  0  0
  -29.5955  -13.4704   17.7327 H   0  0  0  0  0  0
  -27.9311  -11.2480   18.9668 H   0  0  0  0  0  0
  -27.3546  -12.4389   17.8274 H   0  0  0  0  0  0
  -27.5988  -14.2084   19.4373 H   0  0  0  0  0  0
  -28.7262  -12.2123   21.4609 H   0  0  0  0  0  0
  -28.4065  -13.9060   21.7678 H   0  0  0  0  0  0
  -25.2733   -9.5722   22.4750 H   0  0  0  0  0  0
  -24.0026   -7.4634   22.7467 H   0  0  0  0  0  0
  -21.0826   -8.8762   19.8943 H   0  0  0  0  0  0
  -22.3673  -10.9667   19.6178 H   0  0  0  0  0  0
  -21.1974   -7.6147   23.9731 H   0  0  0  0  0  0
  -21.1468   -6.0516   25.9090 H   0  0  0  0  0  0
  -22.0586   -2.7608   23.2865 H   0  0  0  0  0  0
  -22.4059  -11.9858   22.4781 H   0  0  0  0  0  0
  -21.1094  -13.1258   22.2670 H   0  0  0  0  0  0
  -24.6612  -15.8409   20.5341 H   0  0  0  0  0  0
  -26.2953  -15.6300   20.1459 H   0  0  0  0  0  0
  -26.7220  -32.5389   23.1086 H   0  0  0  0  0  0
  -25.0036  -33.9703   25.0403 H   0  0  0  0  0  0
  -22.7288  -31.2994   21.3996 H   0  0  0  0  0  0
  -23.3754  -35.9609   23.3306 H   0  0  0  0  0  0
  -24.3556  -36.8910   22.2052 H   0  0  0  0  0  0
  -23.7223  -37.6491   23.6654 H   0  0  0  0  0  0
  -26.1285  -31.5155   20.6141 H   0  0  0  0  0  0
  -26.8563  -30.8036   22.0187 H   0  0  0  0  0  0
  -28.1128  -28.8956   21.2271 H   0  0  0  0  0  0
  -25.9408  -25.9419   18.9226 H   0  0  0  0  0  0
  -23.9749  -27.3369   18.9565 H   0  0  0  0  0  0
  -23.7866  -30.6073   19.4111 H   0  0  0  0  0  0
  -22.7642  -29.2676   19.8410 H   0  0  0  0  0  0
  -25.1289  -36.1962   25.0828 H   0  0  0  0  0  0
  -21.0026  -28.3265   24.1338 H   0  0  0  0  0  0
  -20.5868  -26.2298   23.3530 H   0  0  0  0  0  0
  -21.6630  -26.7579   22.0996 H   0  0  0  0  0  0
  -19.6857  -25.6339   21.1214 H   0  0  0  0  0  0
  -19.6496  -27.3228   20.6736 H   0  0  0  0  0  0
  -17.4142  -26.6537   21.4254 H   0  0  0  0  0  0
  -18.0516  -26.0057   22.9248 H   0  0  0  0  0  0
  -19.7960  -30.7263   24.2299 H   0  0  0  0  0  0
  -17.5033  -31.6219   24.5273 H   0  0  0  0  0  0
  -15.5366  -30.3017   23.7660 H   0  0  0  0  0  0
  -15.8684  -28.0869   22.7057 H   0  0  0  0  0  0
  -24.5879  -30.7076   25.7784 H   0  0  0  0  0  0
  -24.8885  -32.2883   26.4859 H   0  0  0  0  0  0
  -25.8016  -30.8909   27.0227 H   0  0  0  0  0  0
  -26.2950  -29.6713   24.1234 H   0  0  0  0  0  0
  -27.4018  -29.7263   25.4765 H   0  0  0  0  0  0
  -27.8840  -30.4260   23.9494 H   0  0  0  0  0  0
  -27.2661  -33.3622   26.2047 H   0  0  0  0  0  0
  -28.3856  -32.6863   25.0315 H   0  0  0  0  0  0
  -28.0717  -31.8450   26.5414 H   0  0  0  0  0  0
  -28.2613  -38.0101   24.7511 H   0  0  0  0  0  0
  -28.1085  -36.2627   24.6306 H   0  0  0  0  0  0
  -27.2288  -37.1468   25.8869 H   0  0  0  0  0  0
  -20.9423  -29.8693   21.6750 H   0  0  0  0  0  0
  -26.0191  -38.2863   24.1412 H   0  0  0  0  0  0
  -28.4228  -15.9814   18.9133 H   0  0  0  0  0  0
  -26.1829  -20.2391   18.8493 H   0  0  0  0  0  0
  -27.5207  -20.8017   17.8802 H   0  0  0  0  0  0
  -30.5166  -21.1748   20.6948 H   0  0  0  0  0  0
  -29.1967  -21.0959   21.8246 H   0  0  0  0  0  0
  -26.8393  -21.5966   20.7705 H   0  0  0  0  0  0
  -26.7493  -22.5852   19.3350 H   0  0  0  0  0  0
  -26.8975  -16.7921   17.3440 H   0  0  0  0  0  0
  -26.9278  -18.4991   16.9341 H   0  0  0  0  0  0
  -25.8023  -17.8989   18.1591 H   0  0  0  0  0  0
  -28.8435  -23.6476   21.5995 H   0  0  0  0  0  0
  -30.0019  -23.8746   20.3257 H   0  0  0  0  0  0
  -27.0441  -24.6358   20.2481 H   0  0  0  0  0  0
  -28.0442  -24.7598   18.8229 H   0  0  0  0  0  0
  -30.5500  -16.1250   21.8537 H   0  0  0  0  0  0
  -29.1309  -22.1440   19.1040 H   0  0  0  0  0  0
  1 25  1  0  0  0
  1 30  2  0  0  0
  1 83  1  0  0  0
  2  3  1  0  0  0
  2 25  1  0  0  0
  2 85  1  0  0  0
  2 86  1  0  0  0
  3  4  1  0  0  0
  3 87  1  0  0  0
  3 88  1  0  0  0
  4  5  1  0  0  0
  4 89  1  0  0  0
  4 90  1  0  0  0
  5  6  1  0  0  0
  5 26  1  0  0  0
  5 91  1  0  0  0
  6 25  1  0  0  0
  6 92  1  0  0  0
  6 93  1  0  0  0
  7  8  2  0  0  0
  7 26  1  0  0  0
  7 29  1  0  0  0
  8  9  1  0  0  0
  8 22  1  0  0  0
  9 10  1  0  0  0
  9 27  2  0  0  0
 10 11  2  0  0  0
 10 15  1  0  0  0
 11 12  1  0  0  0
 11 94  1  0  0  0
 12 13  2  0  0  0
 12 95  1  0  0  0
 13 14  1  0  0  0
 13 31  1  0  0  0
 14 15  2  0  0  0
 14 96  1  0  0  0
 15 97  1  0  0  0
 16 17  2  0  0  0
 16 21  1  0  0  0
 16 31  1  0  0  0
 17 18  1  0  0  0
 17 98  1  0  0  0
 18 19  2  0  0  0
 18 99  1  0  0  0
 19 20  1  0  0  0
 19 24  1  0  0  0
 20 21  2  0  0  0
 20100  1  0  0  0
 21 23  1  0  0  0
 22 28  1  0  0  0
 22 32  2  0  0  0
 26 27  1  0  0  0
 28101  1  0  0  0
 28102  1  0  0  0
 29103  1  0  0  0
 29104  1  0  0  0
 33 34  1  0  0  0
 33 66  1  0  0  0
 33 70  2  0  0  0
 34 36  1  0  0  0
 34 59  1  0  0  0
 34105  1  0  0  0
 35 44  2  0  0  0
 35 45  1  0  0  0
 35 68  1  0  0  0
 36 56  1  0  0  0
 36106  1  0  0  0
 37 39  1  0  0  0
 37 47  1  0  0  0
 37 66  1  0  0  0
 37107  1  0  0  0
 38 43  2  0  0  0
 38 46  1  0  0  0
 38 47  1  0  0  0
 39 64  1  0  0  0
 39 67  2  0  0  0
 40 52  1  0  0  0
 40 53  2  0  0  0
 40 58  1  0  0  0
 41108  1  0  0  0
 41109  1  0  0  0
 41110  1  0  0  0
 41 48  1  0  0  0
 42 43  1  0  0  0
 42 66  1  0  0  0
 42111  1  0  0  0
 42112  1  0  0  0
 43 44  1  0  0  0
 44113  1  0  0  0
 45 46  2  0  0  0
 45114  1  0  0  0
 46115  1  0  0  0
 47116  1  0  0  0
 47117  1  0  0  0
 48 56  1  0  0  0
 48 65  1  0  0  0
 48118  1  0  0  0
 49 50  1  0  0  0
 49 53  1  0  0  0
 49 64  1  0  0  0
 49119  1  0  0  0
 50 51  1  0  0  0
 50120  1  0  0  0
 50121  1  0  0  0
 51 52  1  0  0  0
 51122  1  0  0  0
 51123  1  0  0  0
 52124  1  0  0  0
 52125  1  0  0  0
 53 54  1  0  0  0
 54 55  2  0  0  0
 54126  1  0  0  0
 55 57  1  0  0  0
 55127  1  0  0  0
 56 69  2  0  0  0
 57 58  2  0  0  0
 57128  1  0  0  0
 58129  1  0  0  0
 59 60  1  0  0  0
 59 61  1  0  0  0
 59 62  1  0  0  0
 60130  1  0  0  0
 60131  1  0  0  0
 60132  1  0  0  0
 61133  1  0  0  0
 61134  1  0  0  0
 61135  1  0  0  0
 62136  1  0  0  0
 62137  1  0  0  0
 62138  1  0  0  0
 63 65  1  0  0  0
 63139  1  0  0  0
 63140  1  0  0  0
 63141  1  0  0  0
 64142  1  0  0  0
 65143  1  0  0  0
 68 81  1  0  0  0
 71 73  2  0  0  0
 71 75  1  0  0  0
 71144  1  0  0  0
 72 73  1  0  0  0
 72 74  2  0  0  0
 72 76  1  0  0  0
 73 79  1  0  0  0
 74 77  1  0  0  0
 74 82  1  0  0  0
 75 82  2  0  0  0
 75 83  1  0  0  0
 76 78  1  0  0  0
 76145  1  0  0  0
 76146  1  0  0  0
 77 84  1  0  0  0
 77147  1  0  0  0
 77148  1  0  0  0
 78 84  1  0  0  0
 78149  1  0  0  0
 78150  1  0  0  0
 79151  1  0  0  0
 79152  1  0  0  0
 79153  1  0  0  0
 80 81  1  0  0  0
 80154  1  0  0  0
 80155  1  0  0  0
 80 84  1  0  0  0
 81156  1  0  0  0
 81157  1  0  0  0
 83158  1  0  0  0
 84159  1  0  0  0
M  CHG  1  84   1
M  ISO  4   1 100  68 101  81 101  83 100
M  END
> <chiral flag>
0

> <version>
0

> <s_m_source_file>
/data/baiqing/PycharmProjects/Reinvent-master-3.2/result/LINK_invent/BTK/process_docking_weight1_custom_sum_contain_oxygen_bond_distance_aromatic_linkinvent_7_9_3/rearranged_h_0134.sdf

> <i_m_source_file_index>
70

> <r_mmod_Potential_Energy-OPLS-2005>
-29.2042942047119

> <r_mmod_Stretch_Energy-OPLS-2005>
133.151031494141

> <r_mmod_Bend_Energy-OPLS-2005>
185.753646850586

> <r_mmod_Torsional_Energy-OPLS-2005>
285.975036621094

> <r_mmod_Improper_Torsional_Energy-OPLS-2005>
5.64473438262939

> <r_mmod_Van_der_Waal_Energy-OPLS-2005>
144.592727661133

> <r_mmod_Electrostatic_Energy-OPLS-2005>
-419.975372314453

> <r_mmod_Solvation_Energy-OPLS-2005>
-456.58740234375

> <b_mmod_Minimization_Converged-OPLS-2005>
0

> <r_mmod_RMS_Derivative-OPLS-2005>
3.41758012771606

$$$$
70
                    3D
 Structure written by MMmdl.
172181  0  0  1  0            999 V2000
  -30.6885  -14.5068   20.5064 C   0  0  0  0  0  0
  -30.4136  -12.3073   19.4266 C   0  0  0  0  0  0
  -29.4845  -12.4635   18.2041 C   0  0  0  0  0  0
  -28.0107  -12.3313   18.6267 C   0  0  0  0  0  0
  -27.6543  -13.2007   19.8607 C   0  0  2  0  0  0
  -28.6991  -13.0287   20.9870 C   0  0  0  0  0  0
  -25.2577  -13.8065   20.5569 C   0  0  0  0  0  0
  -24.1848  -13.0398   20.9199 C   0  0  0  0  0  0
  -24.6425  -11.6861   20.8801 C   0  0  0  0  0  0
  -23.9069  -10.4277   21.0445 C   0  0  0  0  0  0
  -24.3615   -9.4179   21.9201 C   0  0  0  0  0  0
  -23.6289   -8.2218   22.0750 C   0  0  0  0  0  0
  -22.4269   -8.0290   21.3534 C   0  0  0  0  0  0
  -21.9913   -9.0267   20.4635 C   0  0  0  0  0  0
  -22.7254  -10.2140   20.3067 C   0  0  0  0  0  0
  -21.6839   -6.0745   22.5292 C   0  0  0  0  0  0
  -21.4005   -6.5647   23.8230 C   0  0  0  0  0  0
  -21.3632   -5.6786   24.9182 C   0  0  0  0  0  0
  -21.6039   -4.3052   24.7235 C   0  0  0  0  0  0
  -21.8819   -3.8160   23.4355 C   0  0  0  0  0  0
  -21.9202   -4.6974   22.3411 C   0  0  0  0  0  0
  -22.7888  -13.5225   21.1834 C   0  0  0  0  0  0
  -22.1669   -4.2168   21.0982 F   0  0  0  0  0  0
  -21.5617   -3.4530   25.7746 F   0  0  0  0  0  0
  -30.0224  -13.3229   20.4185 N   0  0  0  0  0  0
  -26.3004  -12.9261   20.3322 N   0  0  0  0  0  0
  -25.9352  -11.6439   20.5842 N   0  0  0  0  0  0
  -22.0514  -12.8218   22.0380 N   0  0  0  0  0  0
  -25.4325  -15.1704   20.3646 N   0  0  0  0  0  0
  -31.8541  -14.6140   20.1230 O   0  0  0  0  0  0
  -21.6610   -6.8899   21.4255 O   0  0  0  0  0  0
  -22.3606  -14.5575   20.6724 O   0  0  0  0  0  0
  -24.6113  -31.8656   23.2136 C   0  0  0  0  0  0
  -25.9034  -32.4806   23.8388 C   0  0  1  0  0  0
  -27.2473  -27.4317   20.1031 C   0  0  0  0  0  0
  -25.5931  -33.8599   24.2342 N   0  0  0  0  0  0
  -23.4010  -30.4858   21.5479 C   0  0  2  0  0  0
  -24.8523  -28.9509   20.1137 C   0  0  0  0  0  0
  -22.7380  -29.4621   22.4959 C   0  0  0  0  0  0
  -18.0281  -28.1345   22.8423 C   0  0  0  0  0  0
  -24.1501  -36.7283   23.2634 C   0  0  0  0  0  0
  -25.9286  -30.8265   21.3727 C   0  0  0  0  0  0
  -26.0081  -29.4620   20.7164 C   0  0  0  0  0  0
  -27.2021  -28.7099   20.7076 C   0  0  0  0  0  0
  -26.0744  -26.9345   19.4887 C   0  0  0  0  0  0
  -24.8808  -27.6864   19.4959 C   0  0  0  0  0  0
  -23.6142  -29.8174   20.1606 C   0  0  0  0  0  0
  -25.4112  -36.3077   24.0343 C   0  0  1  0  0  0
  -20.5856  -28.3621   23.1287 C   0  0  2  0  0  0
  -20.6783  -26.9375   22.5357 C   0  0  0  0  0  0
  -19.5794  -26.6364   21.5139 C   0  0  0  0  0  0
  -18.1950  -26.7893   22.1552 C   0  0  0  0  0  0
  -19.1515  -28.8795   23.2848 C   0  0  0  0  0  0
  -18.9483  -30.1403   23.8854 C   0  0  0  0  0  0
  -17.6488  -30.6558   24.0540 C   0  0  0  0  0  0
  -25.9043  -34.9452   23.5115 C   0  0  0  0  0  0
  -16.5364  -29.9042   23.6332 C   0  0  0  0  0  0
  -16.7255  -28.6476   23.0307 C   0  0  0  0  0  0
  -26.4478  -31.6593   25.0700 C   0  0  0  0  0  0
  -25.3763  -31.3681   26.1448 C   0  0  0  0  0  0
  -27.0328  -30.3064   24.6067 C   0  0  0  0  0  0
  -27.6048  -32.4285   25.7461 C   0  0  0  0  0  0
  -27.5582  -37.1780   24.8458 C   0  0  0  0  0  0
  -21.4126  -29.2981   22.3693 N   0  0  0  0  0  0
  -26.4296  -37.3754   23.9404 N   0  0  0  0  0  0
  -24.6636  -31.0725   22.1037 N   0  0  0  0  0  0
  -23.4144  -28.8161   23.3012 O   0  0  0  0  0  0
  -28.4491  -26.7500   20.1380 O   0  0  0  0  0  0
  -26.5573  -34.8905   22.4658 O   0  0  0  0  0  0
  -23.5312  -32.1428   23.7519 O   0  0  0  0  0  0
  -31.6881  -18.8896   20.1631 C   0  0  0  0  0  0
  -31.4049  -17.5093   20.2010 C   0  0  0  0  0  0
  -29.6460  -19.3274   21.3763 C   0  0  0  0  0  0
  -29.2867  -17.9527   21.3312 C   0  0  0  0  0  0
  -30.8211  -19.8163   20.7724 C   0  0  0  0  0  0
  -30.2181  -16.9986   20.8011 C   0  0  0  0  0  0
  -27.7770  -17.4835   23.3541 C   0  0  0  0  0  0
  -26.7830  -18.5431   21.2782 C   0  0  0  0  0  0
  -26.3396  -17.1418   23.7983 C   0  0  0  0  0  0
  -25.3702  -18.2803   21.8397 C   0  0  0  0  0  0
  -27.8753  -17.5716   21.8184 C   0  0  0  0  0  0
  -31.1931  -21.3066   20.8051 C   0  0  0  0  0  0
  -29.5622  -24.7140   20.8640 C   0  0  0  0  0  0
  -30.5417  -23.6591   20.2802 C   0  0  0  0  0  0
  -28.5166  -25.3353   19.8993 C   0  0  0  0  0  0
  -29.9356  -15.5790   20.8719 N   0  0  0  0  0  0
  -25.3784  -18.1517   23.3114 N   0  3  0  0  0  0
  -30.1036  -22.2422   20.4193 N   0  3  0  0  0  0
  -31.4581  -12.3881   19.1225 H   0  0  0  0  0  0
  -30.3128  -11.3090   19.8570 H   0  0  0  0  0  0
  -29.7223  -11.7070   17.4532 H   0  0  0  0  0  0
  -29.6483  -13.4312   17.7262 H   0  0  0  0  0  0
  -27.8328  -11.2793   18.8560 H   0  0  0  0  0  0
  -27.3539  -12.5695   17.7909 H   0  0  0  0  0  0
  -27.6864  -14.2391   19.5290 H   0  0  0  0  0  0
  -28.6813  -12.0063   21.3683 H   0  0  0  0  0  0
  -28.4673  -13.6727   21.8371 H   0  0  0  0  0  0
  -25.2763   -9.5626   22.4763 H   0  0  0  0  0  0
  -23.9992   -7.4580   22.7436 H   0  0  0  0  0  0
  -21.0854   -8.8805   19.8908 H   0  0  0  0  0  0
  -22.3749  -10.9690   19.6170 H   0  0  0  0  0  0
  -21.1993   -7.6156   23.9752 H   0  0  0  0  0  0
  -21.1430   -6.0501   25.9086 H   0  0  0  0  0  0
  -22.0623   -2.7629   23.2850 H   0  0  0  0  0  0
  -22.4133  -11.9849   22.4725 H   0  0  0  0  0  0
  -21.1120  -13.1202   22.2589 H   0  0  0  0  0  0
  -24.5997  -15.7346   20.2525 H   0  0  0  0  0  0
  -26.2135  -15.5136   19.8220 H   0  0  0  0  0  0
  -26.7086  -32.5515   23.1133 H   0  0  0  0  0  0
  -25.0157  -33.9767   25.0546 H   0  0  0  0  0  0
  -22.6890  -31.3036   21.4056 H   0  0  0  0  0  0
  -23.3773  -35.9599   23.3273 H   0  0  0  0  0  0
  -24.3623  -36.8921   22.2053 H   0  0  0  0  0  0
  -23.7230  -37.6473   23.6666 H   0  0  0  0  0  0
  -26.0338  -31.5956   20.6067 H   0  0  0  0  0  0
  -26.8145  -30.8793   21.9932 H   0  0  0  0  0  0
  -28.0943  -29.0953   21.1820 H   0  0  0  0  0  0
  -26.0646  -25.9765   18.9876 H   0  0  0  0  0  0
  -23.9965  -27.2908   19.0149 H   0  0  0  0  0  0
  -23.7160  -30.5905   19.3957 H   0  0  0  0  0  0
  -22.7430  -29.2297   19.8690 H   0  0  0  0  0  0
  -25.1269  -36.1935   25.0832 H   0  0  0  0  0  0
  -20.9905  -28.3182   24.1434 H   0  0  0  0  0  0
  -20.5707  -26.2224   23.3528 H   0  0  0  0  0  0
  -21.6657  -26.7451   22.1166 H   0  0  0  0  0  0
  -19.7017  -25.6274   21.1182 H   0  0  0  0  0  0
  -19.6797  -27.3171   20.6658 H   0  0  0  0  0  0
  -17.4231  -26.6581   21.3961 H   0  0  0  0  0  0
  -18.0412  -26.0042   22.8980 H   0  0  0  0  0  0
  -19.7969  -30.7169   24.2271 H   0  0  0  0  0  0
  -17.5064  -31.6265   24.5071 H   0  0  0  0  0  0
  -15.5367  -30.2910   23.7724 H   0  0  0  0  0  0
  -15.8672  -28.0800   22.7000 H   0  0  0  0  0  0
  -24.5919  -30.7058   25.7760 H   0  0  0  0  0  0
  -24.8981  -32.2849   26.4904 H   0  0  0  0  0  0
  -25.8099  -30.8815   27.0207 H   0  0  0  0  0  0
  -26.2884  -29.6803   24.1155 H   0  0  0  0  0  0
  -27.4181  -29.7271   25.4466 H   0  0  0  0  0  0
  -27.8665  -30.4383   23.9171 H   0  0  0  0  0  0
  -27.2680  -33.3585   26.2034 H   0  0  0  0  0  0
  -28.3867  -32.6847   25.0305 H   0  0  0  0  0  0
  -28.0726  -31.8437   26.5395 H   0  0  0  0  0  0
  -28.2506  -38.0160   24.7537 H   0  0  0  0  0  0
  -28.1168  -36.2671   24.6227 H   0  0  0  0  0  0
  -27.2312  -37.1334   25.8868 H   0  0  0  0  0  0
  -20.9293  -29.8664   21.6899 H   0  0  0  0  0  0
  -26.0195  -38.2817   24.1485 H   0  0  0  0  0  0
  -32.6022  -19.2226   19.6909 H   0  0  0  0  0  0
  -32.1445  -16.8737   19.7374 H   0  0  0  0  0  0
  -28.9987  -20.0363   21.8671 H   0  0  0  0  0  0
  -28.4650  -16.7276   23.7330 H   0  0  0  0  0  0
  -28.0815  -18.4243   23.8126 H   0  0  0  0  0  0
  -27.0098  -19.5781   21.5203 H   0  0  0  0  0  0
  -26.7624  -18.4961   20.1884 H   0  0  0  0  0  0
  -26.2739  -17.0783   24.8852 H   0  0  0  0  0  0
  -26.0500  -16.1617   23.4169 H   0  0  0  0  0  0
  -24.9432  -17.3775   21.4193 H   0  0  0  0  0  0
  -24.6974  -19.0887   21.5477 H   0  0  0  0  0  0
  -27.6342  -16.5894   21.4173 H   0  0  0  0  0  0
  -32.0374  -21.4672   20.1302 H   0  0  0  0  0  0
  -31.5503  -21.5545   21.8071 H   0  0  0  0  0  0
  -30.1865  -25.5305   21.2278 H   0  0  0  0  0  0
  -29.0708  -24.3348   21.7627 H   0  0  0  0  0  0
  -31.4831  -23.7761   20.8199 H   0  0  0  0  0  0
  -30.7885  -23.8801   19.2392 H   0  0  0  0  0  0
  -27.5628  -24.8323   20.0594 H   0  0  0  0  0  0
  -28.8037  -25.1837   18.8580 H   0  0  0  0  0  0
  -29.0145  -15.3308   21.1958 H   0  0  0  0  0  0
  -25.5845  -19.0437   23.7279 H   0  0  0  0  0  0
  -24.4505  -17.8990   23.6148 H   0  0  0  0  0  0
  -29.3865  -22.1922   21.1226 H   0  0  0  0  0  0
  -29.7103  -21.9319   19.5466 H   0  0  0  0  0  0
  1 25  1  0  0  0
  1 30  2  0  0  0
  1 86  1  0  0  0
  2  3  1  0  0  0
  2 25  1  0  0  0
  2 89  1  0  0  0
  2 90  1  0  0  0
  3  4  1  0  0  0
  3 91  1  0  0  0
  3 92  1  0  0  0
  4  5  1  0  0  0
  4 93  1  0  0  0
  4 94  1  0  0  0
  5  6  1  0  0  0
  5 26  1  0  0  0
  5 95  1  0  0  0
  6 25  1  0  0  0
  6 96  1  0  0  0
  6 97  1  0  0  0
  7  8  2  0  0  0
  7 26  1  0  0  0
  7 29  1  0  0  0
  8  9  1  0  0  0
  8 22  1  0  0  0
  9 10  1  0  0  0
  9 27  2  0  0  0
 10 11  2  0  0  0
 10 15  1  0  0  0
 11 12  1  0  0  0
 11 98  1  0  0  0
 12 13  2  0  0  0
 12 99  1  0  0  0
 13 14  1  0  0  0
 13 31  1  0  0  0
 14 15  2  0  0  0
 14100  1  0  0  0
 15101  1  0  0  0
 16 17  2  0  0  0
 16 21  1  0  0  0
 16 31  1  0  0  0
 17 18  1  0  0  0
 17102  1  0  0  0
 18 19  2  0  0  0
 18103  1  0  0  0
 19 20  1  0  0  0
 19 24  1  0  0  0
 20 21  2  0  0  0
 20104  1  0  0  0
 21 23  1  0  0  0
 22 28  1  0  0  0
 22 32  2  0  0  0
 26 27  1  0  0  0
 28105  1  0  0  0
 28106  1  0  0  0
 29107  1  0  0  0
 29108  1  0  0  0
 33 34  1  0  0  0
 33 66  1  0  0  0
 33 70  2  0  0  0
 34 36  1  0  0  0
 34 59  1  0  0  0
 34109  1  0  0  0
 35 44  2  0  0  0
 35 45  1  0  0  0
 35 68  1  0  0  0
 36 56  1  0  0  0
 36110  1  0  0  0
 37 39  1  0  0  0
 37 47  1  0  0  0
 37 66  1  0  0  0
 37111  1  0  0  0
 38 43  2  0  0  0
 38 46  1  0  0  0
 38 47  1  0  0  0
 39 64  1  0  0  0
 39 67  2  0  0  0
 40 52  1  0  0  0
 40 53  2  0  0  0
 40 58  1  0  0  0
 41112  1  0  0  0
 41113  1  0  0  0
 41114  1  0  0  0
 41 48  1  0  0  0
 42 43  1  0  0  0
 42 66  1  0  0  0
 42115  1  0  0  0
 42116  1  0  0  0
 43 44  1  0  0  0
 44117  1  0  0  0
 45 46  2  0  0  0
 45118  1  0  0  0
 46119  1  0  0  0
 47120  1  0  0  0
 47121  1  0  0  0
 48 56  1  0  0  0
 48 65  1  0  0  0
 48122  1  0  0  0
 49 50  1  0  0  0
 49 53  1  0  0  0
 49 64  1  0  0  0
 49123  1  0  0  0
 50 51  1  0  0  0
 50124  1  0  0  0
 50125  1  0  0  0
 51 52  1  0  0  0
 51126  1  0  0  0
 51127  1  0  0  0
 52128  1  0  0  0
 52129  1  0  0  0
 53 54  1  0  0  0
 54 55  2  0  0  0
 54130  1  0  0  0
 55 57  1  0  0  0
 55131  1  0  0  0
 56 69  2  0  0  0
 57 58  2  0  0  0
 57132  1  0  0  0
 58133  1  0  0  0
 59 60  1  0  0  0
 59 61  1  0  0  0
 59 62  1  0  0  0
 60134  1  0  0  0
 60135  1  0  0  0
 60136  1  0  0  0
 61137  1  0  0  0
 61138  1  0  0  0
 61139  1  0  0  0
 62140  1  0  0  0
 62141  1  0  0  0
 62142  1  0  0  0
 63 65  1  0  0  0
 63143  1  0  0  0
 63144  1  0  0  0
 63145  1  0  0  0
 64146  1  0  0  0
 65147  1  0  0  0
 68 85  1  0  0  0
 71 72  2  0  0  0
 71 75  1  0  0  0
 71148  1  0  0  0
 72 76  1  0  0  0
 72149  1  0  0  0
 73 74  1  0  0  0
 73 75  2  0  0  0
 73150  1  0  0  0
 74 76  2  0  0  0
 74 81  1  0  0  0
 75 82  1  0  0  0
 76 86  1  0  0  0
 77 79  1  0  0  0
 77 81  1  0  0  0
 77151  1  0  0  0
 77152  1  0  0  0
 78 80  1  0  0  0
 78 81  1  0  0  0
 78153  1  0  0  0
 78154  1  0  0  0
 79 87  1  0  0  0
 79155  1  0  0  0
 79156  1  0  0  0
 80 87  1  0  0  0
 80157  1  0  0  0
 80158  1  0  0  0
 81159  1  0  0  0
 82 88  1  0  0  0
 82160  1  0  0  0
 82161  1  0  0  0
 83 84  1  0  0  0
 83 85  1  0  0  0
 83162  1  0  0  0
 83163  1  0  0  0
 84 88  1  0  0  0
 84164  1  0  0  0
 84165  1  0  0  0
 85166  1  0  0  0
 85167  1  0  0  0
 86168  1  0  0  0
 87169  1  0  0  0
 87170  1  0  0  0
 88171  1  0  0  0
 88172  1  0  0  0
M  CHG  2  87   1  88   1
M  ISO  4   1 100  68 101  85 101  86 100
M  END
> <chiral flag>
0

> <version>
0

> <s_m_source_file>
/data/baiqing/PycharmProjects/Reinvent-master-3.2/result/LINK_invent/BTK/process_docking_weight1_custom_sum_contain_oxygen_bond_distance_aromatic_linkinvent_7_9_3/rearranged_h_0134.sdf

> <i_m_source_file_index>
71

> <r_mmod_Potential_Energy-OPLS-2005>
-350.148132324219

> <r_mmod_Stretch_Energy-OPLS-2005>
45.8299522399902

> <r_mmod_Bend_Energy-OPLS-2005>
115.652236938477

> <r_mmod_Torsional_Energy-OPLS-2005>
269.614654541016

> <r_mmod_Improper_Torsional_Energy-OPLS-2005>
6.8915319442749

> <r_mmod_Van_der_Waal_Energy-OPLS-2005>
161.199081420898

> <r_mmod_Electrostatic_Energy-OPLS-2005>
-26.2406063079834

> <r_mmod_Solvation_Energy-OPLS-2005>
-942.480834960938

> <b_mmod_Minimization_Converged-OPLS-2005>
0

> <r_mmod_RMS_Derivative-OPLS-2005>
4.50179529190063

$$$$
71
                    3D
 Structure written by MMmdl.
172181  0  0  1  0            999 V2000
  -30.5209  -14.9576   20.4275 C   0  0  0  0  0  0
  -30.4320  -12.5977   19.4847 C   0  0  0  0  0  0
  -29.5100  -12.5297   18.2463 C   0  0  0  0  0  0
  -28.0486  -12.3050   18.6738 C   0  0  0  0  0  0
  -27.6213  -13.2403   19.8348 C   0  0  2  0  0  0
  -28.6648  -13.2711   20.9670 C   0  0  0  0  0  0
  -25.2436  -13.8179   20.5700 C   0  0  0  0  0  0
  -24.1744  -13.0417   20.9232 C   0  0  0  0  0  0
  -24.6351  -11.6894   20.8743 C   0  0  0  0  0  0
  -23.9034  -10.4282   21.0409 C   0  0  0  0  0  0
  -24.3592   -9.4202   21.9184 C   0  0  0  0  0  0
  -23.6294   -8.2226   22.0756 C   0  0  0  0  0  0
  -22.4282   -8.0259   21.3547 C   0  0  0  0  0  0
  -21.9900   -9.0216   20.4648 C   0  0  0  0  0  0
  -22.7203  -10.2112   20.3063 C   0  0  0  0  0  0
  -21.6857   -6.0715   22.5275 C   0  0  0  0  0  0
  -21.4003   -6.5633   23.8199 C   0  0  0  0  0  0
  -21.3675   -5.6784   24.9172 C   0  0  0  0  0  0
  -21.6066   -4.3054   24.7231 C   0  0  0  0  0  0
  -21.8818   -3.8140   23.4359 C   0  0  0  0  0  0
  -21.9192   -4.6946   22.3399 C   0  0  0  0  0  0
  -22.7778  -13.5196   21.1919 C   0  0  0  0  0  0
  -22.1660   -4.2131   21.0975 F   0  0  0  0  0  0
  -21.5646   -3.4536   25.7754 F   0  0  0  0  0  0
  -29.9314  -13.6956   20.3585 N   0  0  0  0  0  0
  -26.2834  -12.9385   20.3232 N   0  0  0  0  0  0
  -25.9276  -11.6523   20.5729 N   0  0  0  0  0  0
  -22.0441  -12.8162   22.0479 N   0  0  0  0  0  0
  -25.4118  -15.1908   20.4110 N   0  0  0  0  0  0
  -31.7369  -15.0268   20.2226 O   0  0  0  0  0  0
  -21.6656   -6.8855   21.4242 O   0  0  0  0  0  0
  -22.3451  -14.5516   20.6802 O   0  0  0  0  0  0
  -24.6427  -31.8408   23.1859 C   0  0  0  0  0  0
  -25.9202  -32.4665   23.8224 C   0  0  1  0  0  0
  -27.2261  -27.1368   20.1420 C   0  0  0  0  0  0
  -25.5937  -33.8488   24.2140 N   0  0  0  0  0  0
  -23.4475  -30.4591   21.5298 C   0  0  2  0  0  0
  -24.8977  -28.8814   20.1090 C   0  0  0  0  0  0
  -22.7548  -29.4538   22.4850 C   0  0  0  0  0  0
  -18.0293  -28.1405   22.8463 C   0  0  0  0  0  0
  -24.1491  -36.7260   23.2642 C   0  0  0  0  0  0
  -26.0024  -30.7110   21.3884 C   0  0  0  0  0  0
  -26.0723  -29.3231   20.7303 C   0  0  0  0  0  0
  -27.2315  -28.4631   20.7366 C   0  0  0  0  0  0
  -26.0210  -26.7923   19.4866 C   0  0  0  0  0  0
  -24.8841  -27.6281   19.4782 C   0  0  0  0  0  0
  -23.6738  -29.7823   20.1516 C   0  0  0  0  0  0
  -25.4135  -36.3026   24.0293 C   0  0  1  0  0  0
  -20.5894  -28.3729   23.1226 C   0  0  2  0  0  0
  -20.6774  -26.9427   22.5410 C   0  0  0  0  0  0
  -19.5755  -26.6375   21.5209 C   0  0  0  0  0  0
  -18.1927  -26.7941   22.1611 C   0  0  0  0  0  0
  -19.1542  -28.8889   23.2835 C   0  0  0  0  0  0
  -18.9480  -30.1474   23.8861 C   0  0  0  0  0  0
  -17.6479  -30.6596   24.0572 C   0  0  0  0  0  0
  -25.9090  -34.9389   23.5038 C   0  0  0  0  0  0
  -16.5367  -29.9088   23.6366 C   0  0  0  0  0  0
  -16.7276  -28.6523   23.0359 C   0  0  0  0  0  0
  -26.4526  -31.6579   25.0700 C   0  0  0  0  0  0
  -25.3684  -31.3813   26.1373 C   0  0  0  0  0  0
  -27.0404  -30.2955   24.6348 C   0  0  0  0  0  0
  -27.6021  -32.4386   25.7492 C   0  0  0  0  0  0
  -27.5574  -37.1766   24.8454 C   0  0  0  0  0  0
  -21.4234  -29.3041   22.3590 N   0  0  0  0  0  0
  -26.4283  -37.3742   23.9393 N   0  0  0  0  0  0
  -24.7171  -31.0247   22.0898 N   0  0  0  0  0  0
  -23.4170  -28.8098   23.3023 O   0  0  0  0  0  0
  -28.3039  -26.1854   20.2325 O   0  0  0  0  0  0
  -26.5684  -34.8881   22.4614 O   0  0  0  0  0  0
  -23.5555  -32.1286   23.7091 O   0  0  0  0  0  0
  -30.4338  -22.4351   23.4173 C   0  0  0  0  0  0
  -28.7252  -18.9127   22.7115 C   0  0  0  0  0  0
  -30.7871  -22.1824   24.8811 C   0  0  0  0  0  0
  -29.8313  -17.8852   22.3557 C   0  0  0  0  0  0
  -29.3085  -19.0149   20.0920 C   0  0  0  0  0  0
  -30.1808  -20.9293   23.2445 C   0  0  2  0  0  0
  -29.0570  -20.3868   22.3244 C   0  0  1  0  0  0
  -30.0288  -20.8507   24.7816 C   0  0  1  0  0  0
  -30.0153  -17.6681   20.8318 C   0  0  2  0  0  0
  -29.3577  -20.5630   20.7901 C   0  0  2  0  0  0
  -30.5694  -19.6401   25.5412 C   0  0  0  0  0  0
  -27.2054  -23.3673   21.5880 C   0  0  0  0  0  0
  -28.3218  -24.7015   19.7419 C   0  0  0  0  0  0
  -28.4688  -23.3222   20.6972 C   0  0  2  0  0  0
  -29.7180  -16.1341   20.5272 N   0  0  0  0  0  0
  -28.6690  -21.8427   20.0998 N   0  3  0  0  0  0
  -31.4630  -12.7658   19.1736 H   0  0  0  0  0  0
  -30.4288  -11.6439   20.0164 H   0  0  0  0  0  0
  -29.8314  -11.7326   17.5752 H   0  0  0  0  0  0
  -29.5853  -13.4554   17.6752 H   0  0  0  0  0  0
  -27.9573  -11.2628   18.9849 H   0  0  0  0  0  0
  -27.3800  -12.4308   17.8222 H   0  0  0  0  0  0
  -27.5793  -14.2402   19.4043 H   0  0  0  0  0  0
  -28.7570  -12.2896   21.4329 H   0  0  0  0  0  0
  -28.3598  -13.9608   21.7541 H   0  0  0  0  0  0
  -25.2730   -9.5694   22.4765 H   0  0  0  0  0  0
  -24.0021   -7.4606   22.7449 H   0  0  0  0  0  0
  -21.0845   -8.8701   19.8924 H   0  0  0  0  0  0
  -22.3635  -10.9642   19.6184 H   0  0  0  0  0  0
  -21.1968   -7.6135   23.9701 H   0  0  0  0  0  0
  -21.1520   -6.0520   25.9070 H   0  0  0  0  0  0
  -22.0591   -2.7604   23.2864 H   0  0  0  0  0  0
  -22.4104  -11.9807   22.4780 H   0  0  0  0  0  0
  -21.1050  -13.1146   22.2730 H   0  0  0  0  0  0
  -24.6405  -15.8420   20.5173 H   0  0  0  0  0  0
  -26.2514  -15.6291   20.0575 H   0  0  0  0  0  0
  -26.7256  -32.5262   23.0934 H   0  0  0  0  0  0
  -25.0035  -33.9608   25.0254 H   0  0  0  0  0  0
  -22.7512  -31.2849   21.3696 H   0  0  0  0  0  0
  -23.3739  -35.9600   23.3305 H   0  0  0  0  0  0
  -24.3589  -36.8932   22.2066 H   0  0  0  0  0  0
  -23.7254  -37.6449   23.6710 H   0  0  0  0  0  0
  -26.1647  -31.4659   20.6191 H   0  0  0  0  0  0
  -26.8689  -30.7568   22.0356 H   0  0  0  0  0  0
  -28.1229  -28.7932   21.2545 H   0  0  0  0  0  0
  -25.9083  -25.8379   19.0015 H   0  0  0  0  0  0
  -23.9839  -27.2778   18.9907 H   0  0  0  0  0  0
  -23.8034  -30.5507   19.3864 H   0  0  0  0  0  0
  -22.7906  -29.2152   19.8540 H   0  0  0  0  0  0
  -25.1326  -36.1855   25.0782 H   0  0  0  0  0  0
  -20.9975  -28.3346   24.1350 H   0  0  0  0  0  0
  -20.5719  -26.2324   23.3633 H   0  0  0  0  0  0
  -21.6636  -26.7478   22.1171 H   0  0  0  0  0  0
  -19.6951  -25.6289   21.1246 H   0  0  0  0  0  0
  -19.6723  -27.3179   20.6739 H   0  0  0  0  0  0
  -17.4208  -26.6675   21.4002 H   0  0  0  0  0  0
  -18.0336  -26.0106   22.9037 H   0  0  0  0  0  0
  -19.7962  -30.7287   24.2193 H   0  0  0  0  0  0
  -17.5049  -31.6274   24.5164 H   0  0  0  0  0  0
  -15.5376  -30.2981   23.7725 H   0  0  0  0  0  0
  -15.8668  -28.0847   22.7083 H   0  0  0  0  0  0
  -24.5826  -30.7232   25.7666 H   0  0  0  0  0  0
  -24.8907  -32.3017   26.4734 H   0  0  0  0  0  0
  -25.7892  -30.8995   27.0196 H   0  0  0  0  0  0
  -26.3063  -29.6629   24.1331 H   0  0  0  0  0  0
  -27.3961  -29.7336   25.4994 H   0  0  0  0  0  0
  -27.8978  -30.4170   23.9721 H   0  0  0  0  0  0
  -27.2580  -33.3693   26.1996 H   0  0  0  0  0  0
  -28.3830  -32.6941   25.0332 H   0  0  0  0  0  0
  -28.0647  -31.8570   26.5470 H   0  0  0  0  0  0
  -28.2548  -38.0095   24.7510 H   0  0  0  0  0  0
  -28.1098  -36.2617   24.6259 H   0  0  0  0  0  0
  -27.2279  -37.1399   25.8848 H   0  0  0  0  0  0
  -20.9454  -29.8774   21.6781 H   0  0  0  0  0  0
  -26.0154  -38.2801   24.1404 H   0  0  0  0  0  0
  -31.2490  -22.8357   22.8106 H   0  0  0  0  0  0
  -29.5345  -23.0465   23.3528 H   0  0  0  0  0  0
  -28.5121  -18.8515   23.7765 H   0  0  0  0  0  0
  -27.7859  -18.6133   22.2487 H   0  0  0  0  0  0
  -30.3459  -22.9037   25.5709 H   0  0  0  0  0  0
  -31.8584  -22.0680   25.0573 H   0  0  0  0  0  0
  -29.6070  -16.9391   22.8528 H   0  0  0  0  0  0
  -30.7755  -18.2041   22.7975 H   0  0  0  0  0  0
  -28.2557  -18.7783   19.9339 H   0  0  0  0  0  0
  -29.7146  -19.0843   19.0834 H   0  0  0  0  0  0
  -31.1355  -20.4665   22.9814 H   0  0  0  0  0  0
  -28.1441  -20.9236   22.5496 H   0  0  0  0  0  0
  -28.9849  -21.0352   25.0469 H   0  0  0  0  0  0
  -31.0829  -17.7708   20.6338 H   0  0  0  0  0  0
  -30.4153  -20.8313   20.7339 H   0  0  0  0  0  0
  -31.4101  -19.1820   25.0208 H   0  0  0  0  0  0
  -29.8111  -18.8668   25.6667 H   0  0  0  0  0  0
  -30.9110  -19.9185   26.5378 H   0  0  0  0  0  0
  -26.9852  -24.3922   21.8906 H   0  0  0  0  0  0
  -27.2825  -22.8004   22.5111 H   0  0  0  0  0  0
  -26.3276  -23.0164   21.0437 H   0  0  0  0  0  0
  -27.5014  -24.5350   19.0490 H   0  0  0  0  0  0
  -29.1993  -24.6792   19.0942 H   0  0  0  0  0  0
  -29.3547  -23.5220   21.2891 H   0  0  0  0  0  0
  -28.7349  -15.9122   20.5213 H   0  0  0  0  0  0
  -27.7560  -21.5384   19.7984 H   0  0  0  0  0  0
  -29.1929  -21.9745   19.2480 H   0  0  0  0  0  0
  1 25  1  0  0  0
  1 30  2  0  0  0
  1 85  1  0  0  0
  2  3  1  0  0  0
  2 25  1  0  0  0
  2 87  1  0  0  0
  2 88  1  0  0  0
  3  4  1  0  0  0
  3 89  1  0  0  0
  3 90  1  0  0  0
  4  5  1  0  0  0
  4 91  1  0  0  0
  4 92  1  0  0  0
  5  6  1  0  0  0
  5 26  1  0  0  0
  5 93  1  0  0  0
  6 25  1  0  0  0
  6 94  1  0  0  0
  6 95  1  0  0  0
  7  8  2  0  0  0
  7 26  1  0  0  0
  7 29  1  0  0  0
  8  9  1  0  0  0
  8 22  1  0  0  0
  9 10  1  0  0  0
  9 27  2  0  0  0
 10 11  2  0  0  0
 10 15  1  0  0  0
 11 12  1  0  0  0
 11 96  1  0  0  0
 12 13  2  0  0  0
 12 97  1  0  0  0
 13 14  1  0  0  0
 13 31  1  0  0  0
 14 15  2  0  0  0
 14 98  1  0  0  0
 15 99  1  0  0  0
 16 17  2  0  0  0
 16 21  1  0  0  0
 16 31  1  0  0  0
 17 18  1  0  0  0
 17100  1  0  0  0
 18 19  2  0  0  0
 18101  1  0  0  0
 19 20  1  0  0  0
 19 24  1  0  0  0
 20 21  2  0  0  0
 20102  1  0  0  0
 21 23  1  0  0  0
 22 28  1  0  0  0
 22 32  2  0  0  0
 26 27  1  0  0  0
 28103  1  0  0  0
 28104  1  0  0  0
 29105  1  0  0  0
 29106  1  0  0  0
 33 34  1  0  0  0
 33 66  1  0  0  0
 33 70  2  0  0  0
 34 36  1  0  0  0
 34 59  1  0  0  0
 34107  1  0  0  0
 35 44  2  0  0  0
 35 45  1  0  0  0
 35 68  1  0  0  0
 36 56  1  0  0  0
 36108  1  0  0  0
 37 39  1  0  0  0
 37 47  1  0  0  0
 37 66  1  0  0  0
 37109  1  0  0  0
 38 43  2  0  0  0
 38 46  1  0  0  0
 38 47  1  0  0  0
 39 64  1  0  0  0
 39 67  2  0  0  0
 40 52  1  0  0  0
 40 53  2  0  0  0
 40 58  1  0  0  0
 41110  1  0  0  0
 41111  1  0  0  0
 41112  1  0  0  0
 41 48  1  0  0  0
 42 43  1  0  0  0
 42 66  1  0  0  0
 42113  1  0  0  0
 42114  1  0  0  0
 43 44  1  0  0  0
 44115  1  0  0  0
 45 46  2  0  0  0
 45116  1  0  0  0
 46117  1  0  0  0
 47118  1  0  0  0
 47119  1  0  0  0
 48 56  1  0  0  0
 48 65  1  0  0  0
 48120  1  0  0  0
 49 50  1  0  0  0
 49 53  1  0  0  0
 49 64  1  0  0  0
 49121  1  0  0  0
 50 51  1  0  0  0
 50122  1  0  0  0
 50123  1  0  0  0
 51 52  1  0  0  0
 51124  1  0  0  0
 51125  1  0  0  0
 52126  1  0  0  0
 52127  1  0  0  0
 53 54  1  0  0  0
 54 55  2  0  0  0
 54128  1  0  0  0
 55 57  1  0  0  0
 55129  1  0  0  0
 56 69  2  0  0  0
 57 58  2  0  0  0
 57130  1  0  0  0
 58131  1  0  0  0
 59 60  1  0  0  0
 59 61  1  0  0  0
 59 62  1  0  0  0
 60132  1  0  0  0
 60133  1  0  0  0
 60134  1  0  0  0
 61135  1  0  0  0
 61136  1  0  0  0
 61137  1  0  0  0
 62138  1  0  0  0
 62139  1  0  0  0
 62140  1  0  0  0
 63 65  1  0  0  0
 63141  1  0  0  0
 63142  1  0  0  0
 63143  1  0  0  0
 64144  1  0  0  0
 65145  1  0  0  0
 68 83  1  0  0  0
 71 73  1  0  0  0
 71146  1  0  0  0
 71147  1  0  0  0
 71 76  1  0  0  0
 72 74  1  0  0  0
 72148  1  0  0  0
 72149  1  0  0  0
 72 77  1  0  0  0
 73 78  1  0  0  0
 73150  1  0  0  0
 73151  1  0  0  0
 74 79  1  0  0  0
 74152  1  0  0  0
 74153  1  0  0  0
 75 79  1  0  0  0
 75 80  1  0  0  0
 75154  1  0  0  0
 75155  1  0  0  0
 76 77  1  0  0  0
 76 78  1  0  0  0
 76156  1  0  0  0
 77 80  1  0  0  0
 77157  1  0  0  0
 78 81  1  0  0  0
 78158  1  0  0  0
 79 85  1  0  0  0
 79159  1  0  0  0
 80 86  1  0  0  0
 80160  1  0  0  0
 81161  1  0  0  0
 81162  1  0  0  0
 81163  1  0  0  0
 82164  1  0  0  0
 82165  1  0  0  0
 82166  1  0  0  0
 82 84  1  0  0  0
 83 84  1  0  0  0
 83167  1  0  0  0
 83168  1  0  0  0
 84 86  1  0  0  0
 84169  1  0  0  0
 85170  1  0  0  0
 86171  1  0  0  0
 86172  1  0  0  0
M  CHG  1  86   1
M  ISO  4   1 100  68 101  83 101  85 100
M  END
> <chiral flag>
0

> <version>
0

> <s_m_source_file>
/data/baiqing/PycharmProjects/Reinvent-master-3.2/result/LINK_invent/BTK/process_docking_weight1_custom_sum_contain_oxygen_bond_distance_aromatic_linkinvent_7_9_3/rearranged_h_0134.sdf

> <i_m_source_file_index>
72

> <r_mmod_Potential_Energy-OPLS-2005>
553.741577148438

> <r_mmod_Stretch_Energy-OPLS-2005>
291.238800048828

> <r_mmod_Bend_Energy-OPLS-2005>
307.405090332031

> <r_mmod_Torsional_Energy-OPLS-2005>
298.962280273438

> <r_mmod_Improper_Torsional_Energy-OPLS-2005>
4.33603382110596

> <r_mmod_Van_der_Waal_Energy-OPLS-2005>
123.010757446289

> <r_mmod_Electrostatic_Energy-OPLS-2005>
-217.14794921875

> <r_mmod_Solvation_Energy-OPLS-2005>
-450.215484619141

> <b_mmod_Minimization_Converged-OPLS-2005>
0

> <r_mmod_RMS_Derivative-OPLS-2005>
3.83777284622192

$$$$
72
                    3D
 Structure written by MMmdl.
172180  0  0  1  0            999 V2000
  -30.6041  -14.7005   20.5199 C   0  0  0  0  0  0
  -30.4470  -12.4260   19.4834 C   0  0  0  0  0  0
  -29.5199  -12.4959   18.2452 C   0  0  0  0  0  0
  -28.0394  -12.3299   18.6430 C   0  0  0  0  0  0
  -27.6469  -13.2177   19.8523 C   0  0  2  0  0  0
  -28.6853  -13.1029   20.9866 C   0  0  0  0  0  0
  -25.2531  -13.8168   20.5681 C   0  0  0  0  0  0
  -24.1814  -13.0419   20.9207 C   0  0  0  0  0  0
  -24.6404  -11.6896   20.8750 C   0  0  0  0  0  0
  -23.9083  -10.4278   21.0420 C   0  0  0  0  0  0
  -24.3631   -9.4193   21.9199 C   0  0  0  0  0  0
  -23.6300   -8.2229   22.0770 C   0  0  0  0  0  0
  -22.4290   -8.0270   21.3537 C   0  0  0  0  0  0
  -21.9926   -9.0253   20.4648 C   0  0  0  0  0  0
  -22.7259  -10.2129   20.3064 C   0  0  0  0  0  0
  -21.6856   -6.0735   22.5276 C   0  0  0  0  0  0
  -21.4019   -6.5641   23.8216 C   0  0  0  0  0  0
  -21.3656   -5.6791   24.9175 C   0  0  0  0  0  0
  -21.6038   -4.3051   24.7220 C   0  0  0  0  0  0
  -21.8820   -3.8149   23.4347 C   0  0  0  0  0  0
  -21.9197   -4.6965   22.3402 C   0  0  0  0  0  0
  -22.7824  -13.5199   21.1857 C   0  0  0  0  0  0
  -22.1655   -4.2156   21.0973 F   0  0  0  0  0  0
  -21.5636   -3.4536   25.7740 F   0  0  0  0  0  0
  -30.0020  -13.4638   20.4389 N   0  0  0  0  0  0
  -26.2948  -12.9353   20.3254 N   0  0  0  0  0  0
  -25.9320  -11.6505   20.5747 N   0  0  0  0  0  0
  -22.0448  -12.8189   22.0402 N   0  0  0  0  0  0
  -25.4214  -15.1898   20.4090 N   0  0  0  0  0  0
  -31.7506  -14.8520   20.0851 O   0  0  0  0  0  0
  -21.6633   -6.8882   21.4241 O   0  0  0  0  0  0
  -22.3507  -14.5508   20.6725 O   0  0  0  0  0  0
  -24.6252  -31.8576   23.1977 C   0  0  0  0  0  0
  -25.9099  -32.4752   23.8325 C   0  0  1  0  0  0
  -27.2423  -27.3121   20.1279 C   0  0  0  0  0  0
  -25.5915  -33.8553   24.2262 N   0  0  0  0  0  0
  -23.4190  -30.4737   21.5417 C   0  0  2  0  0  0
  -24.8707  -28.9157   20.1120 C   0  0  0  0  0  0
  -22.7461  -29.4599   22.4954 C   0  0  0  0  0  0
  -18.0277  -28.1356   22.8491 C   0  0  0  0  0  0
  -24.1473  -36.7282   23.2632 C   0  0  0  0  0  0
  -25.9574  -30.7821   21.3689 C   0  0  0  0  0  0
  -26.0332  -29.4058   20.7182 C   0  0  0  0  0  0
  -27.2156  -28.6127   20.7187 C   0  0  0  0  0  0
  -26.0602  -26.8639   19.4996 C   0  0  0  0  0  0
  -24.8870  -27.6504   19.4958 C   0  0  0  0  0  0
  -23.6352  -29.7944   20.1595 C   0  0  0  0  0  0
  -25.4094  -36.3066   24.0334 C   0  0  1  0  0  0
  -20.5867  -28.3666   23.1282 C   0  0  2  0  0  0
  -20.6761  -26.9384   22.5405 C   0  0  0  0  0  0
  -19.5741  -26.6362   21.5194 C   0  0  0  0  0  0
  -18.1916  -26.7900   22.1605 C   0  0  0  0  0  0
  -19.1527  -28.8828   23.2876 C   0  0  0  0  0  0
  -18.9461  -30.1439   23.8878 C   0  0  0  0  0  0
  -17.6455  -30.6567   24.0551 C   0  0  0  0  0  0
  -25.9053  -34.9446   23.5109 C   0  0  0  0  0  0
  -16.5353  -29.9057   23.6329 C   0  0  0  0  0  0
  -16.7269  -28.6471   23.0361 C   0  0  0  0  0  0
  -26.4486  -31.6579   25.0713 C   0  0  0  0  0  0
  -25.3725  -31.3703   26.1461 C   0  0  0  0  0  0
  -27.0345  -30.3008   24.6171 C   0  0  0  0  0  0
  -27.6059  -32.4325   25.7465 C   0  0  0  0  0  0
  -27.5588  -37.1753   24.8436 C   0  0  0  0  0  0
  -21.4176  -29.3030   22.3701 N   0  0  0  0  0  0
  -26.4248  -37.3791   23.9456 N   0  0  0  0  0  0
  -24.6856  -31.0557   22.0931 N   0  0  0  0  0  0
  -23.4183  -28.8178   23.3058 O   0  0  0  0  0  0
  -28.3963  -26.5200   20.2222 O   0  0  0  0  0  0
  -26.5628  -34.8917   22.4680 O   0  0  0  0  0  0
  -23.5417  -32.1396   23.7300 O   0  0  0  0  0  0
  -32.2699  -20.4603   20.6686 C   0  0  0  0  0  0
  -31.1453  -20.2777   19.9385 C   0  0  0  0  0  0
  -33.6629  -20.6577   20.2125 C   0  0  0  0  0  0
  -31.0351  -20.2805   18.4078 C   0  0  0  0  0  0
  -32.2392  -20.8091   17.6045 C   0  0  0  0  0  0
  -33.0353  -21.9153   18.3128 C   0  0  0  0  0  0
  -34.7094  -20.0201   21.0978 C   0  0  0  0  0  0
  -29.9108  -16.0033   22.6222 C   0  0  0  0  0  0
  -28.2858  -23.8213   20.4658 C   0  0  0  0  0  0
  -29.3338  -22.6048   20.3462 C   0  0  0  0  0  0
  -29.2816  -18.5340   20.5651 C   0  0  0  0  0  0
  -28.5611  -25.1690   19.6384 C   0  0  0  0  0  0
  -29.8285  -20.0545   20.6873 C   0  0  2  0  0  0
  -29.8404  -15.9933   21.0811 C   0  0  1  0  0  0
  -34.0261  -21.3241   19.1889 N   0  0  0  0  0  0
  -28.8439  -21.1780   20.4306 N   0  0  0  0  0  0
  -30.2757  -17.3634   20.5508 N   0  3  0  0  0  0
  -31.4895  -12.5544   19.1860 H   0  0  0  0  0  0
  -30.3923  -11.4416   19.9521 H   0  0  0  0  0  0
  -29.7977  -11.7217   17.5295 H   0  0  0  0  0  0
  -29.6590  -13.4494   17.7323 H   0  0  0  0  0  0
  -27.8822  -11.2803   18.8914 H   0  0  0  0  0  0
  -27.3904  -12.5415   17.7914 H   0  0  0  0  0  0
  -27.6534  -14.2446   19.4879 H   0  0  0  0  0  0
  -28.7120  -12.0865   21.3838 H   0  0  0  0  0  0
  -28.3935  -13.7354   21.8230 H   0  0  0  0  0  0
  -25.2780   -9.5663   22.4768 H   0  0  0  0  0  0
  -24.0008   -7.4623   22.7489 H   0  0  0  0  0  0
  -21.0866   -8.8766   19.8944 H   0  0  0  0  0  0
  -22.3727  -10.9666   19.6165 H   0  0  0  0  0  0
  -21.2007   -7.6143   23.9726 H   0  0  0  0  0  0
  -21.1479   -6.0513   25.9078 H   0  0  0  0  0  0
  -22.0610   -2.7610   23.2852 H   0  0  0  0  0  0
  -22.4061  -11.9855   22.4783 H   0  0  0  0  0  0
  -21.1056  -13.1201   22.2600 H   0  0  0  0  0  0
  -24.6500  -15.8385   20.5308 H   0  0  0  0  0  0
  -26.2521  -15.6319   20.0396 H   0  0  0  0  0  0
  -26.7173  -32.5409   23.1079 H   0  0  0  0  0  0
  -25.0068  -33.9699   25.0413 H   0  0  0  0  0  0
  -22.7128  -31.2925   21.3922 H   0  0  0  0  0  0
  -23.3766  -35.9566   23.3181 H   0  0  0  0  0  0
  -24.3584  -36.9034   22.2067 H   0  0  0  0  0  0
  -23.7185  -37.6433   23.6736 H   0  0  0  0  0  0
  -26.0830  -31.5360   20.5904 H   0  0  0  0  0  0
  -26.8401  -30.8413   21.9938 H   0  0  0  0  0  0
  -28.1076  -28.9851   21.2024 H   0  0  0  0  0  0
  -26.0210  -25.8895   19.0339 H   0  0  0  0  0  0
  -23.9941  -27.2653   19.0230 H   0  0  0  0  0  0
  -23.7463  -30.5652   19.3955 H   0  0  0  0  0  0
  -22.7560  -29.2177   19.8678 H   0  0  0  0  0  0
  -25.1247  -36.1886   25.0816 H   0  0  0  0  0  0
  -20.9944  -28.3228   24.1410 H   0  0  0  0  0  0
  -20.5627  -26.2269   23.3601 H   0  0  0  0  0  0
  -21.6639  -26.7392   22.1218 H   0  0  0  0  0  0
  -19.6895  -25.6271   21.1230 H   0  0  0  0  0  0
  -19.6667  -27.3162   20.6707 H   0  0  0  0  0  0
  -17.4183  -26.6653   21.4003 H   0  0  0  0  0  0
  -18.0319  -26.0024   22.8979 H   0  0  0  0  0  0
  -19.7941  -30.7262   24.2218 H   0  0  0  0  0  0
  -17.5021  -31.6244   24.5158 H   0  0  0  0  0  0
  -15.5351  -30.2958   23.7676 H   0  0  0  0  0  0
  -15.8662  -28.0795   22.7079 H   0  0  0  0  0  0
  -24.5901  -30.7041   25.7812 H   0  0  0  0  0  0
  -24.8895  -32.2851   26.4912 H   0  0  0  0  0  0
  -25.8075  -30.8887   27.0229 H   0  0  0  0  0  0
  -26.2922  -29.6731   24.1229 H   0  0  0  0  0  0
  -27.4114  -29.7294   25.4670 H   0  0  0  0  0  0
  -27.8751  -30.4319   23.9348 H   0  0  0  0  0  0
  -27.2714  -33.3689   26.1945 H   0  0  0  0  0  0
  -28.3901  -32.6782   25.0288 H   0  0  0  0  0  0
  -28.0678  -31.8498   26.5452 H   0  0  0  0  0  0
  -28.2486  -38.0161   24.7676 H   0  0  0  0  0  0
  -28.1217  -36.2728   24.6010 H   0  0  0  0  0  0
  -27.2353  -37.1108   25.8837 H   0  0  0  0  0  0
  -20.9367  -29.8770   21.6922 H   0  0  0  0  0  0
  -26.0113  -38.2834   24.1569 H   0  0  0  0  0  0
  -32.1980  -20.4277   21.7463 H   0  0  0  0  0  0
  -30.1814  -20.8999   18.1369 H   0  0  0  0  0  0
  -30.7794  -19.2779   18.0656 H   0  0  0  0  0  0
  -31.8670  -21.1986   16.6549 H   0  0  0  0  0  0
  -32.9031  -19.9869   17.3326 H   0  0  0  0  0  0
  -32.3778  -22.6105   18.8418 H   0  0  0  0  0  0
  -33.5513  -22.5198   17.5650 H   0  0  0  0  0  0
  -34.4173  -19.0007   21.3542 H   0  0  0  0  0  0
  -34.8160  -20.5891   22.0216 H   0  0  0  0  0  0
  -35.6794  -19.9840   20.6005 H   0  0  0  0  0  0
  -29.1937  -16.7046   23.0483 H   0  0  0  0  0  0
  -30.9027  -16.2876   22.9718 H   0  0  0  0  0  0
  -29.6976  -15.0270   23.0575 H   0  0  0  0  0  0
  -28.1972  -24.0817   21.5215 H   0  0  0  0  0  0
  -27.2962  -23.4659   20.1837 H   0  0  0  0  0  0
  -30.0861  -22.7506   21.1222 H   0  0  0  0  0  0
  -29.8726  -22.7218   19.4068 H   0  0  0  0  0  0
  -28.6754  -18.4471   19.6630 H   0  0  0  0  0  0
  -28.5824  -18.3794   21.3883 H   0  0  0  0  0  0
  -28.0628  -25.1110   18.6715 H   0  0  0  0  0  0
  -29.6213  -25.1429   19.3804 H   0  0  0  0  0  0
  -30.0686  -20.1734   21.7454 H   0  0  0  0  0  0
  -28.8004  -15.8752   20.7812 H   0  0  0  0  0  0
  -28.3336  -20.9734   19.5741 H   0  0  0  0  0  0
  -31.1045  -17.6199   21.0590 H   0  0  0  0  0  0
  -30.5660  -17.2245   19.5951 H   0  0  0  0  0  0
  1 25  1  0  0  0
  1 30  2  0  0  0
  1 84  1  0  0  0
  2  3  1  0  0  0
  2 25  1  0  0  0
  2 88  1  0  0  0
  2 89  1  0  0  0
  3  4  1  0  0  0
  3 90  1  0  0  0
  3 91  1  0  0  0
  4  5  1  0  0  0
  4 92  1  0  0  0
  4 93  1  0  0  0
  5  6  1  0  0  0
  5 26  1  0  0  0
  5 94  1  0  0  0
  6 25  1  0  0  0
  6 95  1  0  0  0
  6 96  1  0  0  0
  7  8  2  0  0  0
  7 26  1  0  0  0
  7 29  1  0  0  0
  8  9  1  0  0  0
  8 22  1  0  0  0
  9 10  1  0  0  0
  9 27  2  0  0  0
 10 11  2  0  0  0
 10 15  1  0  0  0
 11 12  1  0  0  0
 11 97  1  0  0  0
 12 13  2  0  0  0
 12 98  1  0  0  0
 13 14  1  0  0  0
 13 31  1  0  0  0
 14 15  2  0  0  0
 14 99  1  0  0  0
 15100  1  0  0  0
 16 17  2  0  0  0
 16 21  1  0  0  0
 16 31  1  0  0  0
 17 18  1  0  0  0
 17101  1  0  0  0
 18 19  2  0  0  0
 18102  1  0  0  0
 19 20  1  0  0  0
 19 24  1  0  0  0
 20 21  2  0  0  0
 20103  1  0  0  0
 21 23  1  0  0  0
 22 28  1  0  0  0
 22 32  2  0  0  0
 26 27  1  0  0  0
 28104  1  0  0  0
 28105  1  0  0  0
 29106  1  0  0  0
 29107  1  0  0  0
 33 34  1  0  0  0
 33 66  1  0  0  0
 33 70  2  0  0  0
 34 36  1  0  0  0
 34 59  1  0  0  0
 34108  1  0  0  0
 35 44  2  0  0  0
 35 45  1  0  0  0
 35 68  1  0  0  0
 36 56  1  0  0  0
 36109  1  0  0  0
 37 39  1  0  0  0
 37 47  1  0  0  0
 37 66  1  0  0  0
 37110  1  0  0  0
 38 43  2  0  0  0
 38 46  1  0  0  0
 38 47  1  0  0  0
 39 64  1  0  0  0
 39 67  2  0  0  0
 40 52  1  0  0  0
 40 53  2  0  0  0
 40 58  1  0  0  0
 41111  1  0  0  0
 41112  1  0  0  0
 41113  1  0  0  0
 41 48  1  0  0  0
 42 43  1  0  0  0
 42 66  1  0  0  0
 42114  1  0  0  0
 42115  1  0  0  0
 43 44  1  0  0  0
 44116  1  0  0  0
 45 46  2  0  0  0
 45117  1  0  0  0
 46118  1  0  0  0
 47119  1  0  0  0
 47120  1  0  0  0
 48 56  1  0  0  0
 48 65  1  0  0  0
 48121  1  0  0  0
 49 50  1  0  0  0
 49 53  1  0  0  0
 49 64  1  0  0  0
 49122  1  0  0  0
 50 51  1  0  0  0
 50123  1  0  0  0
 50124  1  0  0  0
 51 52  1  0  0  0
 51125  1  0  0  0
 51126  1  0  0  0
 52127  1  0  0  0
 52128  1  0  0  0
 53 54  1  0  0  0
 54 55  2  0  0  0
 54129  1  0  0  0
 55 57  1  0  0  0
 55130  1  0  0  0
 56 69  2  0  0  0
 57 58  2  0  0  0
 57131  1  0  0  0
 58132  1  0  0  0
 59 60  1  0  0  0
 59 61  1  0  0  0
 59 62  1  0  0  0
 60133  1  0  0  0
 60134  1  0  0  0
 60135  1  0  0  0
 61136  1  0  0  0
 61137  1  0  0  0
 61138  1  0  0  0
 62139  1  0  0  0
 62140  1  0  0  0
 62141  1  0  0  0
 63 65  1  0  0  0
 63142  1  0  0  0
 63143  1  0  0  0
 63144  1  0  0  0
 64145  1  0  0  0
 65146  1  0  0  0
 68 82  1  0  0  0
 71 72  2  0  0  0
 71 73  1  0  0  0
 71147  1  0  0  0
 72 74  1  0  0  0
 72 83  1  0  0  0
 73 77  1  0  0  0
 73 85  2  0  0  0
 74 75  1  0  0  0
 74148  1  0  0  0
 74149  1  0  0  0
 75 76  1  0  0  0
 75150  1  0  0  0
 75151  1  0  0  0
 76 85  1  0  0  0
 76152  1  0  0  0
 76153  1  0  0  0
 77154  1  0  0  0
 77155  1  0  0  0
 77156  1  0  0  0
 78157  1  0  0  0
 78158  1  0  0  0
 78159  1  0  0  0
 78 84  1  0  0  0
 79 80  1  0  0  0
 79 82  1  0  0  0
 79160  1  0  0  0
 79161  1  0  0  0
 80 86  1  0  0  0
 80162  1  0  0  0
 80163  1  0  0  0
 81 87  1  0  0  0
 81164  1  0  0  0
 81165  1  0  0  0
 81 83  1  0  0  0
 82166  1  0  0  0
 82167  1  0  0  0
 83 86  1  0  0  0
 83168  1  0  0  0
 84 87  1  0  0  0
 84169  1  0  0  0
 86170  1  0  0  0
 87171  1  0  0  0
 87172  1  0  0  0
M  CHG  1  87   1
M  ISO  4   1 100  68 101  82 101  84 100
M  END
> <chiral flag>
0

> <version>
0

> <s_m_source_file>
/data/baiqing/PycharmProjects/Reinvent-master-3.2/result/LINK_invent/BTK/process_docking_weight1_custom_sum_contain_oxygen_bond_distance_aromatic_linkinvent_7_9_3/rearranged_h_0134.sdf

> <i_m_source_file_index>
73

> <r_mmod_Potential_Energy-OPLS-2005>
-50.928050994873

> <r_mmod_Stretch_Energy-OPLS-2005>
106.861717224121

> <r_mmod_Bend_Energy-OPLS-2005>
198.178115844727

> <r_mmod_Torsional_Energy-OPLS-2005>
222.951049804688

> <r_mmod_Improper_Torsional_Energy-OPLS-2005>
2.5146164894104

> <r_mmod_Van_der_Waal_Energy-OPLS-2005>
130.090057373047

> <r_mmod_Electrostatic_Energy-OPLS-2005>
-298.862640380859

> <r_mmod_Solvation_Energy-OPLS-2005>
-472.661895751953

> <b_mmod_Minimization_Converged-OPLS-2005>
0

> <r_mmod_RMS_Derivative-OPLS-2005>
2.78500819206238

$$$$
73
                    3D
 Structure written by MMmdl.
156164  0  0  1  0            999 V2000
  -30.7465  -14.4008   20.6544 C   0  0  0  0  0  0
  -30.4180  -12.2998   19.3980 C   0  0  0  0  0  0
  -29.4842  -12.5204   18.1930 C   0  0  0  0  0  0
  -28.0088  -12.3747   18.6113 C   0  0  0  0  0  0
  -27.6637  -13.2032   19.8770 C   0  0  2  0  0  0
  -28.7032  -12.9554   20.9915 C   0  0  0  0  0  0
  -25.2596  -13.8155   20.5676 C   0  0  0  0  0  0
  -24.1843  -13.0436   20.9170 C   0  0  0  0  0  0
  -24.6393  -11.6903   20.8731 C   0  0  0  0  0  0
  -23.9060  -10.4291   21.0406 C   0  0  0  0  0  0
  -24.3613   -9.4207   21.9186 C   0  0  0  0  0  0
  -23.6288   -8.2244   22.0755 C   0  0  0  0  0  0
  -22.4272   -8.0283   21.3545 C   0  0  0  0  0  0
  -21.9910   -9.0256   20.4643 C   0  0  0  0  0  0
  -22.7237  -10.2134   20.3053 C   0  0  0  0  0  0
  -21.6851   -6.0738   22.5280 C   0  0  0  0  0  0
  -21.4012   -6.5641   23.8214 C   0  0  0  0  0  0
  -21.3658   -5.6793   24.9177 C   0  0  0  0  0  0
  -21.6045   -4.3055   24.7225 C   0  0  0  0  0  0
  -21.8821   -3.8149   23.4346 C   0  0  0  0  0  0
  -21.9193   -4.6966   22.3403 C   0  0  0  0  0  0
  -22.7867  -13.5240   21.1838 C   0  0  0  0  0  0
  -22.1663   -4.2152   21.0980 F   0  0  0  0  0  0
  -21.5630   -3.4539   25.7738 F   0  0  0  0  0  0
  -30.0402  -13.2580   20.4478 N   0  0  0  0  0  0
  -26.3033  -12.9320   20.3370 N   0  0  0  0  0  0
  -25.9316  -11.6481   20.5757 N   0  0  0  0  0  0
  -22.0507  -12.8228   22.0393 N   0  0  0  0  0  0
  -25.4331  -15.1870   20.4093 N   0  0  0  0  0  0
  -31.8104  -14.6517   20.0805 O   0  0  0  0  0  0
  -21.6637   -6.8882   21.4242 O   0  0  0  0  0  0
  -22.3558  -14.5551   20.6696 O   0  0  0  0  0  0
  -24.6127  -31.8687   23.2115 C   0  0  0  0  0  0
  -25.9026  -32.4823   23.8405 C   0  0  1  0  0  0
  -27.2394  -27.4492   20.0707 C   0  0  0  0  0  0
  -25.5882  -33.8622   24.2332 N   0  0  0  0  0  0
  -23.3993  -30.4932   21.5526 C   0  0  2  0  0  0
  -24.8437  -28.9587   20.1167 C   0  0  0  0  0  0
  -22.7386  -29.4670   22.5008 C   0  0  0  0  0  0
  -18.0263  -28.1372   22.8497 C   0  0  0  0  0  0
  -24.1484  -36.7323   23.2636 C   0  0  0  0  0  0
  -25.9274  -30.8352   21.3634 C   0  0  0  0  0  0
  -26.0035  -29.4696   20.7113 C   0  0  0  0  0  0
  -27.1993  -28.7173   20.6946 C   0  0  0  0  0  0
  -26.0499  -26.9372   19.5020 C   0  0  0  0  0  0
  -24.8599  -27.6883   19.5165 C   0  0  0  0  0  0
  -23.6059  -29.8250   20.1671 C   0  0  0  0  0  0
  -25.4102  -36.3115   24.0338 C   0  0  1  0  0  0
  -20.5849  -28.3658   23.1329 C   0  0  2  0  0  0
  -20.6752  -26.9399   22.5424 C   0  0  0  0  0  0
  -19.5737  -26.6389   21.5211 C   0  0  0  0  0  0
  -18.1912  -26.7922   22.1623 C   0  0  0  0  0  0
  -19.1511  -28.8831   23.2911 C   0  0  0  0  0  0
  -18.9440  -30.1438   23.8920 C   0  0  0  0  0  0
  -17.6444  -30.6580   24.0572 C   0  0  0  0  0  0
  -25.9029  -34.9476   23.5134 C   0  0  0  0  0  0
  -16.5335  -29.9086   23.6325 C   0  0  0  0  0  0
  -16.7254  -28.6502   23.0347 C   0  0  0  0  0  0
  -26.4458  -31.6592   25.0723 C   0  0  0  0  0  0
  -25.3726  -31.3672   26.1468 C   0  0  0  0  0  0
  -27.0296  -30.3043   24.6085 C   0  0  0  0  0  0
  -27.6038  -32.4302   25.7483 C   0  0  0  0  0  0
  -27.5580  -37.1808   24.8461 C   0  0  0  0  0  0
  -21.4115  -29.3035   22.3743 N   0  0  0  0  0  0
  -26.4292  -37.3795   23.9408 N   0  0  0  0  0  0
  -24.6650  -31.0795   22.1012 N   0  0  0  0  0  0
  -23.4166  -28.8209   23.3040 O   0  0  0  0  0  0
  -28.4264  -26.7452   20.0792 O   0  0  0  0  0  0
  -26.5600  -34.8926   22.4700 O   0  0  0  0  0  0
  -23.5324  -32.1446   23.7513 O   0  0  0  0  0  0
  -30.2757  -20.4365   20.2378 C   0  0  0  0  0  0
  -27.9570  -20.1122   20.8724 C   0  0  0  0  0  0
  -30.0117  -21.7965   19.9641 C   0  0  0  0  0  0
  -27.6925  -21.4685   20.5906 C   0  0  0  0  0  0
  -29.2514  -19.5789   20.7045 C   0  0  0  0  0  0
  -28.7100  -22.3313   20.1355 C   0  0  0  0  0  0
  -30.8063  -17.6566   21.1017 C   0  0  0  0  0  0
  -30.8650  -16.4554   22.0654 C   0  0  0  0  0  0
  -29.3633  -24.5538   19.4356 C   0  0  0  0  0  0
  -28.7409  -25.8872   18.9742 C   0  0  0  0  0  0
  -29.4626  -18.2218   21.0091 N   0  0  0  0  0  0
  -30.2158  -15.2535   21.5415 N   0  0  0  0  0  0
  -28.3563  -23.6439   19.8810 O   0  0  0  0  0  0
  -31.4606  -12.4034   19.0916 H   0  0  0  0  0  0
  -30.3214  -11.2805   19.7744 H   0  0  0  0  0  0
  -29.7183  -11.8102   17.3990 H   0  0  0  0  0  0
  -29.6513  -13.5141   17.7746 H   0  0  0  0  0  0
  -27.8197  -11.3171   18.7983 H   0  0  0  0  0  0
  -27.3536  -12.6584   17.7867 H   0  0  0  0  0  0
  -27.7186  -14.2556   19.5974 H   0  0  0  0  0  0
  -28.6730  -11.9124   21.3097 H   0  0  0  0  0  0
  -28.4515  -13.5315   21.8820 H   0  0  0  0  0  0
  -25.2759   -9.5685   22.4758 H   0  0  0  0  0  0
  -23.9998   -7.4639   22.7475 H   0  0  0  0  0  0
  -21.0844   -8.8776   19.8944 H   0  0  0  0  0  0
  -22.3702  -10.9675   19.6158 H   0  0  0  0  0  0
  -21.2001   -7.6149   23.9718 H   0  0  0  0  0  0
  -21.1478   -6.0522   25.9080 H   0  0  0  0  0  0
  -22.0601   -2.7611   23.2847 H   0  0  0  0  0  0
  -22.4117  -11.9877   22.4762 H   0  0  0  0  0  0
  -21.1130  -13.1261   22.2605 H   0  0  0  0  0  0
  -24.6690  -15.8455   20.5156 H   0  0  0  0  0  0
  -26.2928  -15.6237   20.1003 H   0  0  0  0  0  0
  -26.7092  -32.5539   23.1167 H   0  0  0  0  0  0
  -25.0003  -33.9793   25.0455 H   0  0  0  0  0  0
  -22.6875  -31.3097   21.4145 H   0  0  0  0  0  0
  -23.3744  -35.9658   23.3304 H   0  0  0  0  0  0
  -24.3578  -36.8937   22.2052 H   0  0  0  0  0  0
  -23.7245  -37.6528   23.6655 H   0  0  0  0  0  0
  -26.0366  -31.6010   20.5940 H   0  0  0  0  0  0
  -26.8169  -30.8900   21.9794 H   0  0  0  0  0  0
  -28.0972  -29.1118   21.1504 H   0  0  0  0  0  0
  -26.0124  -25.9510   19.0640 H   0  0  0  0  0  0
  -23.9619  -27.2795   19.0734 H   0  0  0  0  0  0
  -23.7127  -30.5999   19.4070 H   0  0  0  0  0  0
  -22.7295  -29.2444   19.8737 H   0  0  0  0  0  0
  -25.1280  -36.1980   25.0834 H   0  0  0  0  0  0
  -20.9938  -28.3221   24.1452 H   0  0  0  0  0  0
  -20.5643  -26.2265   23.3605 H   0  0  0  0  0  0
  -21.6627  -26.7441   22.1223 H   0  0  0  0  0  0
  -19.6899  -25.6305   21.1228 H   0  0  0  0  0  0
  -19.6675  -27.3208   20.6749 H   0  0  0  0  0  0
  -17.4181  -26.6673   21.4026 H   0  0  0  0  0  0
  -18.0313  -26.0057   22.9013 H   0  0  0  0  0  0
  -19.7916  -30.7247   24.2300 H   0  0  0  0  0  0
  -17.5002  -31.6260   24.5173 H   0  0  0  0  0  0
  -15.5337  -30.2997   23.7640 H   0  0  0  0  0  0
  -15.8652  -28.0833   22.7049 H   0  0  0  0  0  0
  -24.5921  -30.6994   25.7797 H   0  0  0  0  0  0
  -24.8882  -32.2809   26.4921 H   0  0  0  0  0  0
  -25.8088  -30.8841   27.0222 H   0  0  0  0  0  0
  -26.2841  -29.6792   24.1154 H   0  0  0  0  0  0
  -27.4097  -29.7281   25.4531 H   0  0  0  0  0  0
  -27.8658  -30.4374   23.9216 H   0  0  0  0  0  0
  -27.2674  -33.3604   26.2074 H   0  0  0  0  0  0
  -28.3841  -32.6850   25.0299 H   0  0  0  0  0  0
  -28.0711  -31.8410   26.5385 H   0  0  0  0  0  0
  -28.2589  -38.0112   24.7521 H   0  0  0  0  0  0
  -28.1087  -36.2646   24.6275 H   0  0  0  0  0  0
  -27.2299  -37.1440   25.8862 H   0  0  0  0  0  0
  -20.9259  -29.8778   21.6996 H   0  0  0  0  0  0
  -26.0186  -38.2873   24.1414 H   0  0  0  0  0  0
  -31.2803  -20.0738   20.0776 H   0  0  0  0  0  0
  -27.1485  -19.4861   21.2229 H   0  0  0  0  0  0
  -30.8332  -22.4061   19.6190 H   0  0  0  0  0  0
  -26.6913  -21.8507   20.7282 H   0  0  0  0  0  0
  -31.1679  -17.3821   20.1091 H   0  0  0  0  0  0
  -31.4929  -18.4125   21.4852 H   0  0  0  0  0  0
  -30.4198  -16.7126   23.0275 H   0  0  0  0  0  0
  -31.9101  -16.2213   22.2792 H   0  0  0  0  0  0
  -30.1056  -24.7241   20.2165 H   0  0  0  0  0  0
  -29.8803  -24.1251   18.5758 H   0  0  0  0  0  0
  -27.9309  -25.6960   18.2737 H   0  0  0  0  0  0
  -29.4890  -26.4231   18.3896 H   0  0  0  0  0  0
  -28.6949  -17.6738   21.3872 H   0  0  0  0  0  0
  -29.3379  -14.9830   21.9585 H   0  0  0  0  0  0
  1 25  1  0  0  0
  1 30  2  0  0  0
  1 82  1  0  0  0
  2  3  1  0  0  0
  2 25  1  0  0  0
  2 84  1  0  0  0
  2 85  1  0  0  0
  3  4  1  0  0  0
  3 86  1  0  0  0
  3 87  1  0  0  0
  4  5  1  0  0  0
  4 88  1  0  0  0
  4 89  1  0  0  0
  5  6  1  0  0  0
  5 26  1  0  0  0
  5 90  1  0  0  0
  6 25  1  0  0  0
  6 91  1  0  0  0
  6 92  1  0  0  0
  7  8  2  0  0  0
  7 26  1  0  0  0
  7 29  1  0  0  0
  8  9  1  0  0  0
  8 22  1  0  0  0
  9 10  1  0  0  0
  9 27  2  0  0  0
 10 11  2  0  0  0
 10 15  1  0  0  0
 11 12  1  0  0  0
 11 93  1  0  0  0
 12 13  2  0  0  0
 12 94  1  0  0  0
 13 14  1  0  0  0
 13 31  1  0  0  0
 14 15  2  0  0  0
 14 95  1  0  0  0
 15 96  1  0  0  0
 16 17  2  0  0  0
 16 21  1  0  0  0
 16 31  1  0  0  0
 17 18  1  0  0  0
 17 97  1  0  0  0
 18 19  2  0  0  0
 18 98  1  0  0  0
 19 20  1  0  0  0
 19 24  1  0  0  0
 20 21  2  0  0  0
 20 99  1  0  0  0
 21 23  1  0  0  0
 22 28  1  0  0  0
 22 32  2  0  0  0
 26 27  1  0  0  0
 28100  1  0  0  0
 28101  1  0  0  0
 29102  1  0  0  0
 29103  1  0  0  0
 33 34  1  0  0  0
 33 66  1  0  0  0
 33 70  2  0  0  0
 34 36  1  0  0  0
 34 59  1  0  0  0
 34104  1  0  0  0
 35 44  2  0  0  0
 35 45  1  0  0  0
 35 68  1  0  0  0
 36 56  1  0  0  0
 36105  1  0  0  0
 37 39  1  0  0  0
 37 47  1  0  0  0
 37 66  1  0  0  0
 37106  1  0  0  0
 38 43  2  0  0  0
 38 46  1  0  0  0
 38 47  1  0  0  0
 39 64  1  0  0  0
 39 67  2  0  0  0
 40 52  1  0  0  0
 40 53  2  0  0  0
 40 58  1  0  0  0
 41107  1  0  0  0
 41108  1  0  0  0
 41109  1  0  0  0
 41 48  1  0  0  0
 42 43  1  0  0  0
 42 66  1  0  0  0
 42110  1  0  0  0
 42111  1  0  0  0
 43 44  1  0  0  0
 44112  1  0  0  0
 45 46  2  0  0  0
 45113  1  0  0  0
 46114  1  0  0  0
 47115  1  0  0  0
 47116  1  0  0  0
 48 56  1  0  0  0
 48 65  1  0  0  0
 48117  1  0  0  0
 49 50  1  0  0  0
 49 53  1  0  0  0
 49 64  1  0  0  0
 49118  1  0  0  0
 50 51  1  0  0  0
 50119  1  0  0  0
 50120  1  0  0  0
 51 52  1  0  0  0
 51121  1  0  0  0
 51122  1  0  0  0
 52123  1  0  0  0
 52124  1  0  0  0
 53 54  1  0  0  0
 54 55  2  0  0  0
 54125  1  0  0  0
 55 57  1  0  0  0
 55126  1  0  0  0
 56 69  2  0  0  0
 57 58  2  0  0  0
 57127  1  0  0  0
 58128  1  0  0  0
 59 60  1  0  0  0
 59 61  1  0  0  0
 59 62  1  0  0  0
 60129  1  0  0  0
 60130  1  0  0  0
 60131  1  0  0  0
 61132  1  0  0  0
 61133  1  0  0  0
 61134  1  0  0  0
 62135  1  0  0  0
 62136  1  0  0  0
 62137  1  0  0  0
 63 65  1  0  0  0
 63138  1  0  0  0
 63139  1  0  0  0
 63140  1  0  0  0
 64141  1  0  0  0
 65142  1  0  0  0
 68 80  1  0  0  0
 71 73  2  0  0  0
 71 75  1  0  0  0
 71143  1  0  0  0
 72 74  1  0  0  0
 72 75  2  0  0  0
 72144  1  0  0  0
 73 76  1  0  0  0
 73145  1  0  0  0
 74 76  2  0  0  0
 74146  1  0  0  0
 75 81  1  0  0  0
 76 83  1  0  0  0
 77 78  1  0  0  0
 77 81  1  0  0  0
 77147  1  0  0  0
 77148  1  0  0  0
 78 82  1  0  0  0
 78149  1  0  0  0
 78150  1  0  0  0
 79 80  1  0  0  0
 79 83  1  0  0  0
 79151  1  0  0  0
 79152  1  0  0  0
 80153  1  0  0  0
 80154  1  0  0  0
 81155  1  0  0  0
 82156  1  0  0  0
M  ISO  4   1 100  68 101  80 101  82 100
M  END
> <chiral flag>
0

> <version>
0

> <s_m_source_file>
/data/baiqing/PycharmProjects/Reinvent-master-3.2/result/LINK_invent/BTK/process_docking_weight1_custom_sum_contain_oxygen_bond_distance_aromatic_linkinvent_7_9_3/rearranged_h_0134.sdf

> <i_m_source_file_index>
74

> <r_mmod_Potential_Energy-OPLS-2005>
-167.412490844727

> <r_mmod_Stretch_Energy-OPLS-2005>
34.4750823974609

> <r_mmod_Bend_Energy-OPLS-2005>
114.033226013184

> <r_mmod_Torsional_Energy-OPLS-2005>
197.818069458008

> <r_mmod_Improper_Torsional_Energy-OPLS-2005>
2.3855459690094

> <r_mmod_Van_der_Waal_Energy-OPLS-2005>
162.000228881836

> <r_mmod_Electrostatic_Energy-OPLS-2005>
-459.90087890625

> <r_mmod_Solvation_Energy-OPLS-2005>
-226.531814575195

> <b_mmod_Minimization_Converged-OPLS-2005>
0

> <r_mmod_RMS_Derivative-OPLS-2005>
0.63792097568512

$$$$
74
                    3D
 Structure written by MMmdl.
163172  0  0  1  0            999 V2000
  -30.7055  -14.4513   20.5750 C   0  0  0  0  0  0
  -30.4190  -12.2917   19.4252 C   0  0  0  0  0  0
  -29.4952  -12.5072   18.2088 C   0  0  0  0  0  0
  -28.0151  -12.3699   18.6177 C   0  0  0  0  0  0
  -27.6629  -13.2056   19.8780 C   0  0  2  0  0  0
  -28.7014  -12.9757   20.9993 C   0  0  0  0  0  0
  -25.2591  -13.8158   20.5683 C   0  0  0  0  0  0
  -24.1835  -13.0438   20.9164 C   0  0  0  0  0  0
  -24.6385  -11.6904   20.8726 C   0  0  0  0  0  0
  -23.9053  -10.4290   21.0398 C   0  0  0  0  0  0
  -24.3609   -9.4210   21.9179 C   0  0  0  0  0  0
  -23.6288   -8.2243   22.0754 C   0  0  0  0  0  0
  -22.4270   -8.0278   21.3545 C   0  0  0  0  0  0
  -21.9903   -9.0246   20.4643 C   0  0  0  0  0  0
  -22.7228  -10.2125   20.3046 C   0  0  0  0  0  0
  -21.6852   -6.0733   22.5280 C   0  0  0  0  0  0
  -21.4012   -6.5639   23.8214 C   0  0  0  0  0  0
  -21.3659   -5.6790   24.9175 C   0  0  0  0  0  0
  -21.6044   -4.3052   24.7226 C   0  0  0  0  0  0
  -21.8819   -3.8145   23.4344 C   0  0  0  0  0  0
  -21.9194   -4.6962   22.3400 C   0  0  0  0  0  0
  -22.7858  -13.5239   21.1832 C   0  0  0  0  0  0
  -22.1661   -4.2148   21.0977 F   0  0  0  0  0  0
  -21.5630   -3.4533   25.7735 F   0  0  0  0  0  0
  -30.0376  -13.2726   20.4534 N   0  0  0  0  0  0
  -26.3025  -12.9326   20.3372 N   0  0  0  0  0  0
  -25.9313  -11.6485   20.5761 N   0  0  0  0  0  0
  -22.0494  -12.8222   22.0374 N   0  0  0  0  0  0
  -25.4329  -15.1876   20.4110 N   0  0  0  0  0  0
  -31.8316  -14.6223   20.0991 O   0  0  0  0  0  0
  -21.6638   -6.8873   21.4240 O   0  0  0  0  0  0
  -22.3553  -14.5559   20.6700 O   0  0  0  0  0  0
  -24.6109  -31.8698   23.2117 C   0  0  0  0  0  0
  -25.9012  -32.4836   23.8407 C   0  0  1  0  0  0
  -27.2470  -27.4515   20.1057 C   0  0  0  0  0  0
  -25.5876  -33.8633   24.2342 N   0  0  0  0  0  0
  -23.3998  -30.4910   21.5502 C   0  0  2  0  0  0
  -24.8515  -28.9559   20.1186 C   0  0  0  0  0  0
  -22.7396  -29.4663   22.5000 C   0  0  0  0  0  0
  -18.0264  -28.1378   22.8494 C   0  0  0  0  0  0
  -24.1481  -36.7316   23.2628 C   0  0  0  0  0  0
  -25.9243  -30.8404   21.3629 C   0  0  0  0  0  0
  -26.0055  -29.4714   20.7216 C   0  0  0  0  0  0
  -27.2046  -28.7256   20.7229 C   0  0  0  0  0  0
  -26.0820  -26.9551   19.4877 C   0  0  0  0  0  0
  -24.8826  -27.6932   19.5006 C   0  0  0  0  0  0
  -23.6102  -29.8185   20.1660 C   0  0  0  0  0  0
  -25.4093  -36.3118   24.0345 C   0  0  1  0  0  0
  -20.5853  -28.3656   23.1329 C   0  0  2  0  0  0
  -20.6755  -26.9398   22.5423 C   0  0  0  0  0  0
  -19.5739  -26.6395   21.5213 C   0  0  0  0  0  0
  -18.1915  -26.7929   22.1620 C   0  0  0  0  0  0
  -19.1514  -28.8834   23.2911 C   0  0  0  0  0  0
  -18.9446  -30.1441   23.8919 C   0  0  0  0  0  0
  -17.6449  -30.6585   24.0572 C   0  0  0  0  0  0
  -25.9029  -34.9486   23.5145 C   0  0  0  0  0  0
  -16.5338  -29.9090   23.6328 C   0  0  0  0  0  0
  -16.7254  -28.6509   23.0343 C   0  0  0  0  0  0
  -26.4457  -31.6598   25.0717 C   0  0  0  0  0  0
  -25.3740  -31.3686   26.1476 C   0  0  0  0  0  0
  -27.0287  -30.3051   24.6056 C   0  0  0  0  0  0
  -27.6043  -32.4306   25.7473 C   0  0  0  0  0  0
  -27.5597  -37.1788   24.8435 C   0  0  0  0  0  0
  -21.4126  -29.3027   22.3740 N   0  0  0  0  0  0
  -26.4270  -37.3814   23.9442 N   0  0  0  0  0  0
  -24.6628  -31.0812   22.1009 N   0  0  0  0  0  0
  -23.4181  -28.8211   23.3035 O   0  0  0  0  0  0
  -28.3762  -26.6642   20.0453 O   0  0  0  0  0  0
  -26.5599  -34.8934   22.4711 O   0  0  0  0  0  0
  -23.5308  -32.1436   23.7526 O   0  0  0  0  0  0
  -31.0996  -18.8866   20.0095 C   0  0  0  0  0  0
  -29.4333  -19.1031   21.7596 C   0  0  0  0  0  0
  -31.0284  -17.4829   20.1081 C   0  0  0  0  0  0
  -29.3628  -17.6944   21.8609 C   0  0  0  0  0  0
  -30.3058  -19.7137   20.8317 C   0  0  0  0  0  0
  -30.1623  -16.8624   21.0431 C   0  0  0  0  0  0
  -29.1379  -21.9605   20.3004 C   0  0  0  0  0  0
  -30.9500  -21.8961   21.9978 C   0  0  0  0  0  0
  -29.3905  -23.4762   20.0898 C   0  0  0  0  0  0
  -31.2087  -23.3986   21.7679 C   0  0  0  0  0  0
  -30.4319  -21.2367   20.7139 C   0  0  1  0  0  0
  -30.3302  -25.5813   21.0470 C   0  0  0  0  0  0
  -29.1562  -26.5684   21.2355 C   0  0  0  0  0  0
  -30.0132  -15.4429   21.1722 N   0  0  0  0  0  0
  -30.0071  -24.1374   21.2787 N   0  3  1  0  0  0
  -31.4658  -12.3787   19.1286 H   0  0  0  0  0  0
  -30.3063  -11.2791   19.8157 H   0  0  0  0  0  0
  -29.7343  -11.7905   17.4220 H   0  0  0  0  0  0
  -29.6687  -13.4976   17.7838 H   0  0  0  0  0  0
  -27.8220  -11.3134   18.8085 H   0  0  0  0  0  0
  -27.3664  -12.6497   17.7868 H   0  0  0  0  0  0
  -27.7109  -14.2554   19.5876 H   0  0  0  0  0  0
  -28.6693  -11.9382   21.3353 H   0  0  0  0  0  0
  -28.4613  -13.5696   21.8818 H   0  0  0  0  0  0
  -25.2755   -9.5688   22.4749 H   0  0  0  0  0  0
  -24.0002   -7.4635   22.7471 H   0  0  0  0  0  0
  -21.0837   -8.8755   19.8947 H   0  0  0  0  0  0
  -22.3689  -10.9655   19.6147 H   0  0  0  0  0  0
  -21.2000   -7.6148   23.9718 H   0  0  0  0  0  0
  -21.1481   -6.0518   25.9079 H   0  0  0  0  0  0
  -22.0597   -2.7607   23.2841 H   0  0  0  0  0  0
  -22.4099  -11.9866   22.4736 H   0  0  0  0  0  0
  -21.1107  -13.1241   22.2569 H   0  0  0  0  0  0
  -24.6693  -15.8459   20.5202 H   0  0  0  0  0  0
  -26.2934  -15.6262   20.1069 H   0  0  0  0  0  0
  -26.7086  -32.5570   23.1183 H   0  0  0  0  0  0
  -25.0015  -33.9796   25.0480 H   0  0  0  0  0  0
  -22.6876  -31.3065   21.4088 H   0  0  0  0  0  0
  -23.3760  -35.9628   23.3250 H   0  0  0  0  0  0
  -24.3598  -36.8965   22.2052 H   0  0  0  0  0  0
  -23.7202  -37.6501   23.6656 H   0  0  0  0  0  0
  -26.0276  -31.6012   20.5878 H   0  0  0  0  0  0
  -26.8151  -30.9042   21.9755 H   0  0  0  0  0  0
  -28.0870  -29.1476   21.1819 H   0  0  0  0  0  0
  -26.1030  -25.9885   19.0042 H   0  0  0  0  0  0
  -23.9974  -27.2902   19.0279 H   0  0  0  0  0  0
  -23.7148  -30.5897   19.4022 H   0  0  0  0  0  0
  -22.7366  -29.2329   19.8733 H   0  0  0  0  0  0
  -25.1257  -36.1973   25.0833 H   0  0  0  0  0  0
  -20.9942  -28.3216   24.1451 H   0  0  0  0  0  0
  -20.5653  -26.2265   23.3608 H   0  0  0  0  0  0
  -21.6629  -26.7447   22.1216 H   0  0  0  0  0  0
  -19.6903  -25.6316   21.1218 H   0  0  0  0  0  0
  -19.6682  -27.3229   20.6763 H   0  0  0  0  0  0
  -17.4192  -26.6684   21.4016 H   0  0  0  0  0  0
  -18.0312  -26.0062   22.9006 H   0  0  0  0  0  0
  -19.7923  -30.7246   24.2301 H   0  0  0  0  0  0
  -17.5009  -31.6266   24.5173 H   0  0  0  0  0  0
  -15.5342  -30.3001   23.7648 H   0  0  0  0  0  0
  -15.8653  -28.0843   22.7039 H   0  0  0  0  0  0
  -24.5899  -30.7048   25.7812 H   0  0  0  0  0  0
  -24.8944  -32.2835   26.4965 H   0  0  0  0  0  0
  -25.8106  -30.8824   27.0208 H   0  0  0  0  0  0
  -26.2821  -29.6821   24.1113 H   0  0  0  0  0  0
  -27.4083  -29.7268   25.4489 H   0  0  0  0  0  0
  -27.8642  -30.4396   23.9183 H   0  0  0  0  0  0
  -27.2673  -33.3600   26.2075 H   0  0  0  0  0  0
  -28.3837  -32.6871   25.0285 H   0  0  0  0  0  0
  -28.0723  -31.8408   26.5365 H   0  0  0  0  0  0
  -28.2517  -38.0182   24.7635 H   0  0  0  0  0  0
  -28.1194  -36.2731   24.6052 H   0  0  0  0  0  0
  -27.2357  -37.1170   25.8838 H   0  0  0  0  0  0
  -20.9283  -29.8751   21.6966 H   0  0  0  0  0  0
  -26.0157  -38.2873   24.1531 H   0  0  0  0  0  0
  -31.7775  -19.3230   19.2892 H   0  0  0  0  0  0
  -28.8144  -19.7125   22.4033 H   0  0  0  0  0  0
  -31.6499  -16.9090   19.4379 H   0  0  0  0  0  0
  -28.6827  -17.2576   22.5791 H   0  0  0  0  0  0
  -28.7542  -21.5290   19.3751 H   0  0  0  0  0  0
  -28.3619  -21.8118   21.0521 H   0  0  0  0  0  0
  -30.2424  -21.7558   22.8160 H   0  0  0  0  0  0
  -31.8791  -21.4178   22.3102 H   0  0  0  0  0  0
  -28.4505  -23.9701   19.8417 H   0  0  0  0  0  0
  -30.0441  -23.6106   19.2262 H   0  0  0  0  0  0
  -32.0202  -23.5194   21.0480 H   0  0  0  0  0  0
  -31.5575  -23.8414   22.7020 H   0  0  0  0  0  0
  -31.1698  -21.4263   19.9318 H   0  0  0  0  0  0
  -31.0806  -25.8782   21.7811 H   0  0  0  0  0  0
  -30.8059  -25.7273   20.0765 H   0  0  0  0  0  0
  -29.5810  -27.5475   21.4582 H   0  0  0  0  0  0
  -28.5377  -26.2880   22.0897 H   0  0  0  0  0  0
  -29.1779  -15.1347   21.6464 H   0  0  0  0  0  0
  -29.3291  -24.0985   22.0270 H   0  0  0  0  0  0
  1 25  1  0  0  0
  1 30  2  0  0  0
  1 84  1  0  0  0
  2  3  1  0  0  0
  2 25  1  0  0  0
  2 86  1  0  0  0
  2 87  1  0  0  0
  3  4  1  0  0  0
  3 88  1  0  0  0
  3 89  1  0  0  0
  4  5  1  0  0  0
  4 90  1  0  0  0
  4 91  1  0  0  0
  5  6  1  0  0  0
  5 26  1  0  0  0
  5 92  1  0  0  0
  6 25  1  0  0  0
  6 93  1  0  0  0
  6 94  1  0  0  0
  7  8  2  0  0  0
  7 26  1  0  0  0
  7 29  1  0  0  0
  8  9  1  0  0  0
  8 22  1  0  0  0
  9 10  1  0  0  0
  9 27  2  0  0  0
 10 11  2  0  0  0
 10 15  1  0  0  0
 11 12  1  0  0  0
 11 95  1  0  0  0
 12 13  2  0  0  0
 12 96  1  0  0  0
 13 14  1  0  0  0
 13 31  1  0  0  0
 14 15  2  0  0  0
 14 97  1  0  0  0
 15 98  1  0  0  0
 16 17  2  0  0  0
 16 21  1  0  0  0
 16 31  1  0  0  0
 17 18  1  0  0  0
 17 99  1  0  0  0
 18 19  2  0  0  0
 18100  1  0  0  0
 19 20  1  0  0  0
 19 24  1  0  0  0
 20 21  2  0  0  0
 20101  1  0  0  0
 21 23  1  0  0  0
 22 28  1  0  0  0
 22 32  2  0  0  0
 26 27  1  0  0  0
 28102  1  0  0  0
 28103  1  0  0  0
 29104  1  0  0  0
 29105  1  0  0  0
 33 34  1  0  0  0
 33 66  1  0  0  0
 33 70  2  0  0  0
 34 36  1  0  0  0
 34 59  1  0  0  0
 34106  1  0  0  0
 35 44  2  0  0  0
 35 45  1  0  0  0
 35 68  1  0  0  0
 36 56  1  0  0  0
 36107  1  0  0  0
 37 39  1  0  0  0
 37 47  1  0  0  0
 37 66  1  0  0  0
 37108  1  0  0  0
 38 43  2  0  0  0
 38 46  1  0  0  0
 38 47  1  0  0  0
 39 64  1  0  0  0
 39 67  2  0  0  0
 40 52  1  0  0  0
 40 53  2  0  0  0
 40 58  1  0  0  0
 41109  1  0  0  0
 41110  1  0  0  0
 41111  1  0  0  0
 41 48  1  0  0  0
 42 43  1  0  0  0
 42 66  1  0  0  0
 42112  1  0  0  0
 42113  1  0  0  0
 43 44  1  0  0  0
 44114  1  0  0  0
 45 46  2  0  0  0
 45115  1  0  0  0
 46116  1  0  0  0
 47117  1  0  0  0
 47118  1  0  0  0
 48 56  1  0  0  0
 48 65  1  0  0  0
 48119  1  0  0  0
 49 50  1  0  0  0
 49 53  1  0  0  0
 49 64  1  0  0  0
 49120  1  0  0  0
 50 51  1  0  0  0
 50121  1  0  0  0
 50122  1  0  0  0
 51 52  1  0  0  0
 51123  1  0  0  0
 51124  1  0  0  0
 52125  1  0  0  0
 52126  1  0  0  0
 53 54  1  0  0  0
 54 55  2  0  0  0
 54127  1  0  0  0
 55 57  1  0  0  0
 55128  1  0  0  0
 56 69  2  0  0  0
 57 58  2  0  0  0
 57129  1  0  0  0
 58130  1  0  0  0
 59 60  1  0  0  0
 59 61  1  0  0  0
 59 62  1  0  0  0
 60131  1  0  0  0
 60132  1  0  0  0
 60133  1  0  0  0
 61134  1  0  0  0
 61135  1  0  0  0
 61136  1  0  0  0
 62137  1  0  0  0
 62138  1  0  0  0
 62139  1  0  0  0
 63 65  1  0  0  0
 63140  1  0  0  0
 63141  1  0  0  0
 63142  1  0  0  0
 64143  1  0  0  0
 65144  1  0  0  0
 68 83  1  0  0  0
 71 73  2  0  0  0
 71 75  1  0  0  0
 71145  1  0  0  0
 72 74  1  0  0  0
 72 75  2  0  0  0
 72146  1  0  0  0
 73 76  1  0  0  0
 73147  1  0  0  0
 74 76  2  0  0  0
 74148  1  0  0  0
 75 81  1  0  0  0
 76 84  1  0  0  0
 77 79  1  0  0  0
 77 81  1  0  0  0
 77149  1  0  0  0
 77150  1  0  0  0
 78 80  1  0  0  0
 78 81  1  0  0  0
 78151  1  0  0  0
 78152  1  0  0  0
 79 85  1  0  0  0
 79153  1  0  0  0
 79154  1  0  0  0
 80 85  1  0  0  0
 80155  1  0  0  0
 80156  1  0  0  0
 81157  1  0  0  0
 82 83  1  0  0  0
 82158  1  0  0  0
 82159  1  0  0  0
 82 85  1  0  0  0
 83160  1  0  0  0
 83161  1  0  0  0
 84162  1  0  0  0
 85163  1  0  0  0
M  CHG  1  85   1
M  ISO  4   1 100  68 101  83 101  84 100
M  END
> <chiral flag>
0

> <version>
0

> <s_m_source_file>
/data/baiqing/PycharmProjects/Reinvent-master-3.2/result/LINK_invent/BTK/process_docking_weight1_custom_sum_contain_oxygen_bond_distance_aromatic_linkinvent_7_9_3/rearranged_h_0134.sdf

> <i_m_source_file_index>
75

> <r_mmod_Potential_Energy-OPLS-2005>
-116.643402099609

> <r_mmod_Stretch_Energy-OPLS-2005>
37.8896369934082

> <r_mmod_Bend_Energy-OPLS-2005>
104.207641601562

> <r_mmod_Torsional_Energy-OPLS-2005>
257.503295898438

> <r_mmod_Improper_Torsional_Energy-OPLS-2005>
2.8865077495575

> <r_mmod_Van_der_Waal_Energy-OPLS-2005>
159.701919555664

> <r_mmod_Electrostatic_Energy-OPLS-2005>
-267.300842285156

> <r_mmod_Solvation_Energy-OPLS-2005>
-421.754913330078

> <b_mmod_Minimization_Converged-OPLS-2005>
0

> <r_mmod_RMS_Derivative-OPLS-2005>
0.618270814418793

$$$$
75
                    3D
 Structure written by MMmdl.
170178  0  0  1  0            999 V2000
  -30.6628  -14.5933   20.4825 C   0  0  0  0  0  0
  -30.4237  -12.3583   19.4534 C   0  0  0  0  0  0
  -29.5041  -12.4922   18.2207 C   0  0  0  0  0  0
  -28.0231  -12.3519   18.6255 C   0  0  0  0  0  0
  -27.6518  -13.2206   19.8582 C   0  0  2  0  0  0
  -28.6952  -13.0839   20.9908 C   0  0  0  0  0  0
  -25.2549  -13.8184   20.5659 C   0  0  0  0  0  0
  -24.1822  -13.0454   20.9182 C   0  0  0  0  0  0
  -24.6387  -11.6925   20.8714 C   0  0  0  0  0  0
  -23.9059  -10.4301   21.0374 C   0  0  0  0  0  0
  -24.3618   -9.4233   21.9162 C   0  0  0  0  0  0
  -23.6318   -8.2247   22.0730 C   0  0  0  0  0  0
  -22.4300   -8.0269   21.3515 C   0  0  0  0  0  0
  -21.9922   -9.0242   20.4623 C   0  0  0  0  0  0
  -22.7224  -10.2137   20.3034 C   0  0  0  0  0  0
  -21.6869   -6.0731   22.5266 C   0  0  0  0  0  0
  -21.4024   -6.5639   23.8195 C   0  0  0  0  0  0
  -21.3660   -5.6786   24.9163 C   0  0  0  0  0  0
  -21.6051   -4.3048   24.7210 C   0  0  0  0  0  0
  -21.8820   -3.8140   23.4333 C   0  0  0  0  0  0
  -21.9208   -4.6960   22.3391 C   0  0  0  0  0  0
  -22.7837  -13.5247   21.1853 C   0  0  0  0  0  0
  -22.1662   -4.2138   21.0971 F   0  0  0  0  0  0
  -21.5649   -3.4535   25.7730 F   0  0  0  0  0  0
  -30.0135  -13.3923   20.4215 N   0  0  0  0  0  0
  -26.2980  -12.9372   20.3288 N   0  0  0  0  0  0
  -25.9322  -11.6524   20.5736 N   0  0  0  0  0  0
  -22.0479  -12.8224   22.0403 N   0  0  0  0  0  0
  -25.4284  -15.1899   20.4062 N   0  0  0  0  0  0
  -31.8465  -14.7031   20.1563 O   0  0  0  0  0  0
  -21.6657   -6.8869   21.4219 O   0  0  0  0  0  0
  -22.3513  -14.5547   20.6705 O   0  0  0  0  0  0
  -24.6225  -31.8638   23.2060 C   0  0  0  0  0  0
  -25.9088  -32.4798   23.8379 C   0  0  1  0  0  0
  -27.2217  -27.3540   20.1153 C   0  0  0  0  0  0
  -25.5918  -33.8602   24.2300 N   0  0  0  0  0  0
  -23.4144  -30.4884   21.5478 C   0  0  2  0  0  0
  -24.8617  -28.9508   20.1113 C   0  0  0  0  0  0
  -22.7459  -29.4641   22.4952 C   0  0  0  0  0  0
  -18.0280  -28.1399   22.8489 C   0  0  0  0  0  0
  -24.1492  -36.7312   23.2634 C   0  0  0  0  0  0
  -25.9525  -30.8044   21.3726 C   0  0  0  0  0  0
  -26.0273  -29.4336   20.7197 C   0  0  0  0  0  0
  -27.2126  -28.6456   20.7156 C   0  0  0  0  0  0
  -26.0412  -26.9253   19.4668 C   0  0  0  0  0  0
  -24.8684  -27.7007   19.4759 C   0  0  0  0  0  0
  -23.6281  -29.8263   20.1614 C   0  0  0  0  0  0
  -25.4112  -36.3097   24.0326 C   0  0  1  0  0  0
  -20.5878  -28.3694   23.1301 C   0  0  2  0  0  0
  -20.6777  -26.9422   22.5417 C   0  0  0  0  0  0
  -19.5754  -26.6392   21.5224 C   0  0  0  0  0  0
  -18.1930  -26.7939   22.1629 C   0  0  0  0  0  0
  -19.1526  -28.8860   23.2892 C   0  0  0  0  0  0
  -18.9455  -30.1462   23.8906 C   0  0  0  0  0  0
  -17.6455  -30.6598   24.0564 C   0  0  0  0  0  0
  -25.9047  -34.9467   23.5111 C   0  0  0  0  0  0
  -16.5348  -29.9102   23.6329 C   0  0  0  0  0  0
  -16.7266  -28.6525   23.0341 C   0  0  0  0  0  0
  -26.4481  -31.6589   25.0733 C   0  0  0  0  0  0
  -25.3726  -31.3713   26.1464 C   0  0  0  0  0  0
  -27.0305  -30.3018   24.6151 C   0  0  0  0  0  0
  -27.6056  -32.4300   25.7503 C   0  0  0  0  0  0
  -27.5577  -37.1812   24.8459 C   0  0  0  0  0  0
  -21.4172  -29.3051   22.3694 N   0  0  0  0  0  0
  -26.4291  -37.3791   23.9406 N   0  0  0  0  0  0
  -24.6821  -31.0680   22.0994 N   0  0  0  0  0  0
  -23.4206  -28.8173   23.3006 O   0  0  0  0  0  0
  -28.3403  -26.5192   20.1441 O   0  0  0  0  0  0
  -26.5614  -34.8922   22.4676 O   0  0  0  0  0  0
  -23.5396  -32.1420   23.7400 O   0  0  0  0  0  0
  -28.4153  -20.2296   19.4991 C   0  0  0  0  0  0
  -30.1367  -20.5767   21.2037 C   0  0  0  0  0  0
  -28.7237  -21.7243   19.1730 C   0  0  0  0  0  0
  -29.2889  -21.8572   21.5834 C   0  0  2  0  0  0
  -26.5261  -22.2284   24.3952 C   0  0  0  0  0  0
  -30.3713  -17.1966   18.7170 C   0  0  0  0  0  0
  -28.2028  -21.4805   22.6213 C   0  0  0  0  0  0
  -27.4641  -22.6691   23.2618 C   0  0  0  0  0  0
  -29.2268  -18.2162   20.7684 C   0  0  0  0  0  0
  -29.1504  -24.0238   20.1565 C   0  0  0  0  0  0
  -28.1037  -25.1282   20.5684 C   0  0  0  0  0  0
  -30.2362  -17.1106   20.2544 C   0  0  1  0  0  0
  -29.4941  -19.6058   20.2855 N   0  0  0  0  0  0
  -29.8864  -15.7028   20.6467 N   0  0  0  0  0  0
  -28.7037  -22.5836   20.3956 N   0  3  1  0  0  0
  -31.4699  -12.4567   19.1569 H   0  0  0  0  0  0
  -30.3324  -11.3668   19.9003 H   0  0  0  0  0  0
  -29.7628  -11.7372   17.4771 H   0  0  0  0  0  0
  -29.6647  -13.4609   17.7448 H   0  0  0  0  0  0
  -27.8411  -11.2997   18.8453 H   0  0  0  0  0  0
  -27.3778  -12.6020   17.7817 H   0  0  0  0  0  0
  -27.6706  -14.2549   19.5162 H   0  0  0  0  0  0
  -28.6905  -12.0713   21.3975 H   0  0  0  0  0  0
  -28.4545  -13.7478   21.8228 H   0  0  0  0  0  0
  -25.2752   -9.5749   22.4746 H   0  0  0  0  0  0
  -24.0035   -7.4661   22.7476 H   0  0  0  0  0  0
  -21.0831   -8.8754   19.8959 H   0  0  0  0  0  0
  -22.3641  -10.9676   19.6153 H   0  0  0  0  0  0
  -21.1985   -7.6141   23.9686 H   0  0  0  0  0  0
  -21.1495   -6.0519   25.9065 H   0  0  0  0  0  0
  -22.0601   -2.7603   23.2828 H   0  0  0  0  0  0
  -22.4119  -11.9905   22.4808 H   0  0  0  0  0  0
  -21.1072  -13.1220   22.2597 H   0  0  0  0  0  0
  -24.6628  -15.8474   20.5105 H   0  0  0  0  0  0
  -26.2724  -15.6199   20.0520 H   0  0  0  0  0  0
  -26.7161  -32.5495   23.1137 H   0  0  0  0  0  0
  -25.0053  -33.9759   25.0433 H   0  0  0  0  0  0
  -22.7067  -31.3077   21.4081 H   0  0  0  0  0  0
  -23.3750  -35.9652   23.3295 H   0  0  0  0  0  0
  -24.3588  -36.8937   22.2050 H   0  0  0  0  0  0
  -23.7248  -37.6516   23.6659 H   0  0  0  0  0  0
  -26.0746  -31.5637   20.5986 H   0  0  0  0  0  0
  -26.8376  -30.8601   21.9948 H   0  0  0  0  0  0
  -28.1067  -29.0107   21.2021 H   0  0  0  0  0  0
  -26.0058  -25.9845   18.9384 H   0  0  0  0  0  0
  -23.9805  -27.3329   18.9798 H   0  0  0  0  0  0
  -23.7456  -30.6044   19.4063 H   0  0  0  0  0  0
  -22.7501  -29.2526   19.8586 H   0  0  0  0  0  0
  -25.1289  -36.1951   25.0818 H   0  0  0  0  0  0
  -20.9972  -28.3278   24.1423 H   0  0  0  0  0  0
  -20.5715  -26.2304   23.3617 H   0  0  0  0  0  0
  -21.6647  -26.7486   22.1192 H   0  0  0  0  0  0
  -19.6920  -25.6307   21.1251 H   0  0  0  0  0  0
  -19.6691  -27.3208   20.6761 H   0  0  0  0  0  0
  -17.4203  -26.6681   21.4026 H   0  0  0  0  0  0
  -18.0326  -26.0090   22.9035 H   0  0  0  0  0  0
  -19.7928  -30.7267   24.2297 H   0  0  0  0  0  0
  -17.5011  -31.6280   24.5159 H   0  0  0  0  0  0
  -15.5347  -30.3002   23.7655 H   0  0  0  0  0  0
  -15.8668  -28.0849   22.7044 H   0  0  0  0  0  0
  -24.5910  -30.7052   25.7786 H   0  0  0  0  0  0
  -24.8909  -32.2876   26.4893 H   0  0  0  0  0  0
  -25.8060  -30.8889   27.0235 H   0  0  0  0  0  0
  -26.2864  -29.6791   24.1171 H   0  0  0  0  0  0
  -27.4005  -29.7243   25.4630 H   0  0  0  0  0  0
  -27.8736  -30.4306   23.9361 H   0  0  0  0  0  0
  -27.2687  -33.3596   26.2102 H   0  0  0  0  0  0
  -28.3866  -32.6857   25.0331 H   0  0  0  0  0  0
  -28.0729  -31.8407   26.5401 H   0  0  0  0  0  0
  -28.2586  -38.0116   24.7510 H   0  0  0  0  0  0
  -28.1075  -36.2644   24.6273 H   0  0  0  0  0  0
  -27.2301  -37.1452   25.8864 H   0  0  0  0  0  0
  -20.9344  -29.8780   21.6908 H   0  0  0  0  0  0
  -26.0167  -38.2864   24.1417 H   0  0  0  0  0  0
  -28.2927  -19.6695   18.5703 H   0  0  0  0  0  0
  -27.4628  -20.1524   20.0254 H   0  0  0  0  0  0
  -30.4890  -20.0712   22.1043 H   0  0  0  0  0  0
  -31.0446  -20.9215   20.7056 H   0  0  0  0  0  0
  -27.9814  -22.1032   18.4700 H   0  0  0  0  0  0
  -29.6899  -21.8011   18.6712 H   0  0  0  0  0  0
  -29.9733  -22.5358   22.0947 H   0  0  0  0  0  0
  -26.0094  -23.0851   24.8314 H   0  0  0  0  0  0
  -27.0739  -21.7332   25.1979 H   0  0  0  0  0  0
  -25.7663  -21.5345   24.0328 H   0  0  0  0  0  0
  -30.6855  -18.1895   18.3943 H   0  0  0  0  0  0
  -29.4259  -16.9790   18.2211 H   0  0  0  0  0  0
  -31.1196  -16.5024   18.3336 H   0  0  0  0  0  0
  -28.6837  -20.9156   23.4216 H   0  0  0  0  0  0
  -27.4779  -20.7937   22.1855 H   0  0  0  0  0  0
  -28.1852  -23.3869   23.6566 H   0  0  0  0  0  0
  -26.8764  -23.1968   22.5109 H   0  0  0  0  0  0
  -29.1918  -18.2102   21.8595 H   0  0  0  0  0  0
  -28.2224  -17.9294   20.4498 H   0  0  0  0  0  0
  -30.1080  -24.2195   20.6417 H   0  0  0  0  0  0
  -29.3441  -24.1539   19.0902 H   0  0  0  0  0  0
  -28.0312  -25.1451   21.6559 H   0  0  0  0  0  0
  -27.1384  -24.7655   20.2248 H   0  0  0  0  0  0
  -31.2106  -17.3311   20.6924 H   0  0  0  0  0  0
  -28.9276  -15.5321   20.9087 H   0  0  0  0  0  0
  -27.7223  -22.6474   20.6193 H   0  0  0  0  0  0
  1 25  1  0  0  0
  1 30  2  0  0  0
  1 84  1  0  0  0
  2  3  1  0  0  0
  2 25  1  0  0  0
  2 86  1  0  0  0
  2 87  1  0  0  0
  3  4  1  0  0  0
  3 88  1  0  0  0
  3 89  1  0  0  0
  4  5  1  0  0  0
  4 90  1  0  0  0
  4 91  1  0  0  0
  5  6  1  0  0  0
  5 26  1  0  0  0
  5 92  1  0  0  0
  6 25  1  0  0  0
  6 93  1  0  0  0
  6 94  1  0  0  0
  7  8  2  0  0  0
  7 26  1  0  0  0
  7 29  1  0  0  0
  8  9  1  0  0  0
  8 22  1  0  0  0
  9 10  1  0  0  0
  9 27  2  0  0  0
 10 11  2  0  0  0
 10 15  1  0  0  0
 11 12  1  0  0  0
 11 95  1  0  0  0
 12 13  2  0  0  0
 12 96  1  0  0  0
 13 14  1  0  0  0
 13 31  1  0  0  0
 14 15  2  0  0  0
 14 97  1  0  0  0
 15 98  1  0  0  0
 16 17  2  0  0  0
 16 21  1  0  0  0
 16 31  1  0  0  0
 17 18  1  0  0  0
 17 99  1  0  0  0
 18 19  2  0  0  0
 18100  1  0  0  0
 19 20  1  0  0  0
 19 24  1  0  0  0
 20 21  2  0  0  0
 20101  1  0  0  0
 21 23  1  0  0  0
 22 28  1  0  0  0
 22 32  2  0  0  0
 26 27  1  0  0  0
 28102  1  0  0  0
 28103  1  0  0  0
 29104  1  0  0  0
 29105  1  0  0  0
 33 34  1  0  0  0
 33 66  1  0  0  0
 33 70  2  0  0  0
 34 36  1  0  0  0
 34 59  1  0  0  0
 34106  1  0  0  0
 35 44  2  0  0  0
 35 45  1  0  0  0
 35 68  1  0  0  0
 36 56  1  0  0  0
 36107  1  0  0  0
 37 39  1  0  0  0
 37 47  1  0  0  0
 37 66  1  0  0  0
 37108  1  0  0  0
 38 43  2  0  0  0
 38 46  1  0  0  0
 38 47  1  0  0  0
 39 64  1  0  0  0
 39 67  2  0  0  0
 40 52  1  0  0  0
 40 53  2  0  0  0
 40 58  1  0  0  0
 41109  1  0  0  0
 41110  1  0  0  0
 41111  1  0  0  0
 41 48  1  0  0  0
 42 43  1  0  0  0
 42 66  1  0  0  0
 42112  1  0  0  0
 42113  1  0  0  0
 43 44  1  0  0  0
 44114  1  0  0  0
 45 46  2  0  0  0
 45115  1  0  0  0
 46116  1  0  0  0
 47117  1  0  0  0
 47118  1  0  0  0
 48 56  1  0  0  0
 48 65  1  0  0  0
 48119  1  0  0  0
 49 50  1  0  0  0
 49 53  1  0  0  0
 49 64  1  0  0  0
 49120  1  0  0  0
 50 51  1  0  0  0
 50121  1  0  0  0
 50122  1  0  0  0
 51 52  1  0  0  0
 51123  1  0  0  0
 51124  1  0  0  0
 52125  1  0  0  0
 52126  1  0  0  0
 53 54  1  0  0  0
 54 55  2  0  0  0
 54127  1  0  0  0
 55 57  1  0  0  0
 55128  1  0  0  0
 56 69  2  0  0  0
 57 58  2  0  0  0
 57129  1  0  0  0
 58130  1  0  0  0
 59 60  1  0  0  0
 59 61  1  0  0  0
 59 62  1  0  0  0
 60131  1  0  0  0
 60132  1  0  0  0
 60133  1  0  0  0
 61134  1  0  0  0
 61135  1  0  0  0
 61136  1  0  0  0
 62137  1  0  0  0
 62138  1  0  0  0
 62139  1  0  0  0
 63 65  1  0  0  0
 63140  1  0  0  0
 63141  1  0  0  0
 63142  1  0  0  0
 64143  1  0  0  0
 65144  1  0  0  0
 68 81  1  0  0  0
 71 73  1  0  0  0
 71 83  1  0  0  0
 71145  1  0  0  0
 71146  1  0  0  0
 72 74  1  0  0  0
 72 83  1  0  0  0
 72147  1  0  0  0
 72148  1  0  0  0
 73 85  1  0  0  0
 73149  1  0  0  0
 73150  1  0  0  0
 74 77  1  0  0  0
 74 85  1  0  0  0
 74151  1  0  0  0
 75 78  1  0  0  0
 75152  1  0  0  0
 75153  1  0  0  0
 75154  1  0  0  0
 76155  1  0  0  0
 76156  1  0  0  0
 76157  1  0  0  0
 76 82  1  0  0  0
 77 78  1  0  0  0
 77158  1  0  0  0
 77159  1  0  0  0
 78160  1  0  0  0
 78161  1  0  0  0
 79 82  1  0  0  0
 79 83  1  0  0  0
 79162  1  0  0  0
 79163  1  0  0  0
 80 81  1  0  0  0
 80164  1  0  0  0
 80165  1  0  0  0
 80 85  1  0  0  0
 81166  1  0  0  0
 81167  1  0  0  0
 82 84  1  0  0  0
 82168  1  0  0  0
 84169  1  0  0  0
 85170  1  0  0  0
M  CHG  1  85   1
M  ISO  4   1 100  68 101  81 101  84 100
M  END
> <chiral flag>
0

> <version>
0

> <s_m_source_file>
/data/baiqing/PycharmProjects/Reinvent-master-3.2/result/LINK_invent/BTK/process_docking_weight1_custom_sum_contain_oxygen_bond_distance_aromatic_linkinvent_7_9_3/rearranged_h_0134.sdf

> <i_m_source_file_index>
76

> <r_mmod_Potential_Energy-OPLS-2005>
58.5092163085938

> <r_mmod_Stretch_Energy-OPLS-2005>
70.8341827392578

> <r_mmod_Bend_Energy-OPLS-2005>
135.954681396484

> <r_mmod_Torsional_Energy-OPLS-2005>
293.668121337891

> <r_mmod_Improper_Torsional_Energy-OPLS-2005>
6.84675359725952

> <r_mmod_Van_der_Waal_Energy-OPLS-2005>
136.431564331055

> <r_mmod_Electrostatic_Energy-OPLS-2005>
-197.183807373047

> <r_mmod_Solvation_Energy-OPLS-2005>
-425.873168945312

> <b_mmod_Minimization_Converged-OPLS-2005>
0

> <r_mmod_RMS_Derivative-OPLS-2005>
1.85572111606598

$$$$
76
                    3D
 Structure written by MMmdl.
162171  0  0  1  0            999 V2000
  -30.6818  -14.4826   20.6082 C   0  0  0  0  0  0
  -30.4345  -12.3239   19.4240 C   0  0  0  0  0  0
  -29.5028  -12.5144   18.2081 C   0  0  0  0  0  0
  -28.0210  -12.3729   18.6166 C   0  0  0  0  0  0
  -27.6631  -13.2044   19.8775 C   0  0  2  0  0  0
  -28.7025  -12.9691   20.9962 C   0  0  0  0  0  0
  -25.2585  -13.8153   20.5677 C   0  0  0  0  0  0
  -24.1833  -13.0436   20.9165 C   0  0  0  0  0  0
  -24.6376  -11.6906   20.8712 C   0  0  0  0  0  0
  -23.9040  -10.4296   21.0397 C   0  0  0  0  0  0
  -24.3598   -9.4209   21.9175 C   0  0  0  0  0  0
  -23.6278   -8.2240   22.0744 C   0  0  0  0  0  0
  -22.4259   -8.0275   21.3544 C   0  0  0  0  0  0
  -21.9887   -9.0249   20.4649 C   0  0  0  0  0  0
  -22.7212  -10.2133   20.3052 C   0  0  0  0  0  0
  -21.6850   -6.0734   22.5280 C   0  0  0  0  0  0
  -21.4022   -6.5637   23.8218 C   0  0  0  0  0  0
  -21.3659   -5.6785   24.9174 C   0  0  0  0  0  0
  -21.6036   -4.3049   24.7224 C   0  0  0  0  0  0
  -21.8814   -3.8144   23.4343 C   0  0  0  0  0  0
  -21.9191   -4.6965   22.3405 C   0  0  0  0  0  0
  -22.7852  -13.5236   21.1840 C   0  0  0  0  0  0
  -22.1655   -4.2150   21.0980 F   0  0  0  0  0  0
  -21.5627   -3.4532   25.7737 F   0  0  0  0  0  0
  -30.0312  -13.2982   20.4490 N   0  0  0  0  0  0
  -26.3025  -12.9319   20.3366 N   0  0  0  0  0  0
  -25.9297  -11.6481   20.5735 N   0  0  0  0  0  0
  -22.0476  -12.8252   22.0412 N   0  0  0  0  0  0
  -25.4307  -15.1873   20.4102 N   0  0  0  0  0  0
  -31.8027  -14.7049   20.1387 O   0  0  0  0  0  0
  -21.6626   -6.8870   21.4237 O   0  0  0  0  0  0
  -22.3545  -14.5549   20.6697 O   0  0  0  0  0  0
  -24.6162  -31.8678   23.2085 C   0  0  0  0  0  0
  -25.9046  -32.4821   23.8393 C   0  0  1  0  0  0
  -27.2295  -27.4071   20.0978 C   0  0  0  0  0  0
  -25.5880  -33.8621   24.2306 N   0  0  0  0  0  0
  -23.4051  -30.4921   21.5511 C   0  0  2  0  0  0
  -24.8501  -28.9622   20.1120 C   0  0  0  0  0  0
  -22.7430  -29.4649   22.4985 C   0  0  0  0  0  0
  -18.0268  -28.1373   22.8495 C   0  0  0  0  0  0
  -24.1482  -36.7317   23.2641 C   0  0  0  0  0  0
  -25.9391  -30.8244   21.3680 C   0  0  0  0  0  0
  -26.0137  -29.4591   20.7114 C   0  0  0  0  0  0
  -27.2043  -28.6911   20.7007 C   0  0  0  0  0  0
  -26.0444  -26.9460   19.4715 C   0  0  0  0  0  0
  -24.8627  -27.7058   19.4887 C   0  0  0  0  0  0
  -23.6134  -29.8304   20.1646 C   0  0  0  0  0  0
  -25.4103  -36.3110   24.0336 C   0  0  1  0  0  0
  -20.5863  -28.3655   23.1307 C   0  0  2  0  0  0
  -20.6744  -26.9382   22.5423 C   0  0  0  0  0  0
  -19.5723  -26.6372   21.5218 C   0  0  0  0  0  0
  -18.1904  -26.7914   22.1634 C   0  0  0  0  0  0
  -19.1521  -28.8830   23.2897 C   0  0  0  0  0  0
  -18.9456  -30.1435   23.8911 C   0  0  0  0  0  0
  -17.6460  -30.6580   24.0562 C   0  0  0  0  0  0
  -25.9037  -34.9478   23.5121 C   0  0  0  0  0  0
  -16.5347  -29.9089   23.6318 C   0  0  0  0  0  0
  -16.7259  -28.6501   23.0345 C   0  0  0  0  0  0
  -26.4454  -31.6615   25.0740 C   0  0  0  0  0  0
  -25.3711  -31.3757   26.1490 C   0  0  0  0  0  0
  -27.0283  -30.3040   24.6153 C   0  0  0  0  0  0
  -27.6012  -32.4362   25.7505 C   0  0  0  0  0  0
  -27.5579  -37.1806   24.8462 C   0  0  0  0  0  0
  -21.4152  -29.3027   22.3727 N   0  0  0  0  0  0
  -26.4284  -37.3797   23.9419 N   0  0  0  0  0  0
  -24.6721  -31.0763   22.0998 N   0  0  0  0  0  0
  -23.4195  -28.8183   23.3025 O   0  0  0  0  0  0
  -28.3861  -26.6376   20.1497 O   0  0  0  0  0  0
  -26.5626  -34.8931   22.4700 O   0  0  0  0  0  0
  -23.5348  -32.1444   23.7462 O   0  0  0  0  0  0
  -29.9337  -17.8772   20.7053 C   0  0  0  0  0  0
  -31.0278  -19.3663   22.2561 C   0  0  0  0  0  0
  -30.2474  -19.2041   21.0938 C   0  0  0  0  0  0
  -30.3703  -16.7875   21.4976 C   0  0  0  0  0  0
  -31.1016  -17.0739   22.6733 C   0  0  0  0  0  0
  -32.6823  -16.1252   24.5713 C   0  0  0  0  0  0
  -32.6444  -15.1040   23.4676 C   0  0  0  0  0  0
  -31.4564  -16.0165   23.6851 C   0  0  0  0  0  0
  -29.7110  -20.4036   20.2858 C   0  0  0  0  0  0
  -29.9193  -21.8426   20.8649 C   0  0  0  0  0  0
  -29.3427  -24.3072   20.5143 C   0  0  0  0  0  0
  -28.2631  -25.2220   19.8691 C   0  0  0  0  0  0
  -31.4284  -18.3364   23.0279 N   0  0  0  0  0  0
  -29.9546  -15.4536   21.1974 N   0  0  0  0  0  0
  -29.1957  -22.8813   20.0758 N   0  3  0  0  0  0
  -31.4789  -12.4436   19.1286 H   0  0  0  0  0  0
  -30.3512  -11.3094   19.8172 H   0  0  0  0  0  0
  -29.7471  -11.7877   17.4319 H   0  0  0  0  0  0
  -29.6703  -13.4982   17.7666 H   0  0  0  0  0  0
  -27.8272  -11.3171   18.8065 H   0  0  0  0  0  0
  -27.3738  -12.6557   17.7854 H   0  0  0  0  0  0
  -27.7099  -14.2546   19.5874 H   0  0  0  0  0  0
  -28.6852  -11.9256   21.3132 H   0  0  0  0  0  0
  -28.4569  -13.5422   21.8913 H   0  0  0  0  0  0
  -25.2745   -9.5693   22.4746 H   0  0  0  0  0  0
  -23.9999   -7.4627   22.7458 H   0  0  0  0  0  0
  -21.0820   -8.8768   19.8958 H   0  0  0  0  0  0
  -22.3664  -10.9669   19.6163 H   0  0  0  0  0  0
  -21.2024   -7.6146   23.9725 H   0  0  0  0  0  0
  -21.1482   -6.0515   25.9082 H   0  0  0  0  0  0
  -22.0597   -2.7607   23.2839 H   0  0  0  0  0  0
  -22.4080  -11.9934   22.4846 H   0  0  0  0  0  0
  -21.1100  -13.1316   22.2601 H   0  0  0  0  0  0
  -24.6639  -15.8428   20.5146 H   0  0  0  0  0  0
  -26.2843  -15.6267   20.0880 H   0  0  0  0  0  0
  -26.7125  -32.5516   23.1164 H   0  0  0  0  0  0
  -24.9989  -33.9788   25.0418 H   0  0  0  0  0  0
  -22.6927  -31.3086   21.4148 H   0  0  0  0  0  0
  -23.3738  -35.9655   23.3306 H   0  0  0  0  0  0
  -24.3577  -36.8934   22.2056 H   0  0  0  0  0  0
  -23.7236  -37.6521   23.6659 H   0  0  0  0  0  0
  -26.0626  -31.5915   20.6024 H   0  0  0  0  0  0
  -26.8220  -30.8702   21.9935 H   0  0  0  0  0  0
  -28.0992  -29.0723   21.1739 H   0  0  0  0  0  0
  -25.9963  -25.9971   18.9589 H   0  0  0  0  0  0
  -23.9717  -27.3177   19.0147 H   0  0  0  0  0  0
  -23.7222  -30.6074   19.4070 H   0  0  0  0  0  0
  -22.7359  -29.2532   19.8681 H   0  0  0  0  0  0
  -25.1274  -36.1975   25.0827 H   0  0  0  0  0  0
  -20.9952  -28.3222   24.1428 H   0  0  0  0  0  0
  -20.5615  -26.2275   23.3624 H   0  0  0  0  0  0
  -21.6616  -26.7403   22.1235 H   0  0  0  0  0  0
  -19.6870  -25.6286   21.1240 H   0  0  0  0  0  0
  -19.6642  -27.3188   20.6752 H   0  0  0  0  0  0
  -17.4165  -26.6654   21.4043 H   0  0  0  0  0  0
  -18.0301  -26.0059   22.9035 H   0  0  0  0  0  0
  -19.7935  -30.7239   24.2284 H   0  0  0  0  0  0
  -17.5021  -31.6259   24.5170 H   0  0  0  0  0  0
  -15.5348  -30.3005   23.7625 H   0  0  0  0  0  0
  -15.8656  -28.0833   22.7048 H   0  0  0  0  0  0
  -24.5848  -30.7141   25.7837 H   0  0  0  0  0  0
  -24.8947  -32.2938   26.4945 H   0  0  0  0  0  0
  -25.8048  -30.8917   27.0249 H   0  0  0  0  0  0
  -26.2842  -29.6827   24.1147 H   0  0  0  0  0  0
  -27.3959  -29.7257   25.4643 H   0  0  0  0  0  0
  -27.8724  -30.4335   23.9372 H   0  0  0  0  0  0
  -27.2583  -33.3636   26.2112 H   0  0  0  0  0  0
  -28.3790  -32.6984   25.0320 H   0  0  0  0  0  0
  -28.0715  -31.8492   26.5405 H   0  0  0  0  0  0
  -28.2595  -38.0108   24.7515 H   0  0  0  0  0  0
  -28.1073  -36.2638   24.6261 H   0  0  0  0  0  0
  -27.2312  -37.1432   25.8870 H   0  0  0  0  0  0
  -20.9307  -29.8789   21.6988 H   0  0  0  0  0  0
  -26.0171  -38.2876   24.1417 H   0  0  0  0  0  0
  -29.3293  -17.7001   19.8272 H   0  0  0  0  0  0
  -31.3195  -20.3450   22.6078 H   0  0  0  0  0  0
  -33.3363  -16.9849   24.4389 H   0  0  0  0  0  0
  -32.5926  -15.7594   25.5924 H   0  0  0  0  0  0
  -32.5332  -14.0604   23.7552 H   0  0  0  0  0  0
  -33.2741  -15.2862   22.5992 H   0  0  0  0  0  0
  -30.5581  -15.5788   24.1183 H   0  0  0  0  0  0
  -28.6425  -20.2322   20.1470 H   0  0  0  0  0  0
  -30.1542  -20.3557   19.2905 H   0  0  0  0  0  0
  -30.9818  -22.0895   20.8864 H   0  0  0  0  0  0
  -29.5590  -21.8856   21.8932 H   0  0  0  0  0  0
  -29.2504  -24.3657   21.6008 H   0  0  0  0  0  0
  -30.3408  -24.6659   20.2629 H   0  0  0  0  0  0
  -27.3094  -24.8435   20.2388 H   0  0  0  0  0  0
  -28.2666  -25.0924   18.7862 H   0  0  0  0  0  0
  -29.0133  -15.1976   21.4612 H   0  0  0  0  0  0
  -28.2165  -22.6431   20.1119 H   0  0  0  0  0  0
  -29.4830  -22.8067   19.1112 H   0  0  0  0  0  0
  1 25  1  0  0  0
  1 30  2  0  0  0
  1 84  1  0  0  0
  2  3  1  0  0  0
  2 25  1  0  0  0
  2 86  1  0  0  0
  2 87  1  0  0  0
  3  4  1  0  0  0
  3 88  1  0  0  0
  3 89  1  0  0  0
  4  5  1  0  0  0
  4 90  1  0  0  0
  4 91  1  0  0  0
  5  6  1  0  0  0
  5 26  1  0  0  0
  5 92  1  0  0  0
  6 25  1  0  0  0
  6 93  1  0  0  0
  6 94  1  0  0  0
  7  8  2  0  0  0
  7 26  1  0  0  0
  7 29  1  0  0  0
  8  9  1  0  0  0
  8 22  1  0  0  0
  9 10  1  0  0  0
  9 27  2  0  0  0
 10 11  2  0  0  0
 10 15  1  0  0  0
 11 12  1  0  0  0
 11 95  1  0  0  0
 12 13  2  0  0  0
 12 96  1  0  0  0
 13 14  1  0  0  0
 13 31  1  0  0  0
 14 15  2  0  0  0
 14 97  1  0  0  0
 15 98  1  0  0  0
 16 17  2  0  0  0
 16 21  1  0  0  0
 16 31  1  0  0  0
 17 18  1  0  0  0
 17 99  1  0  0  0
 18 19  2  0  0  0
 18100  1  0  0  0
 19 20  1  0  0  0
 19 24  1  0  0  0
 20 21  2  0  0  0
 20101  1  0  0  0
 21 23  1  0  0  0
 22 28  1  0  0  0
 22 32  2  0  0  0
 26 27  1  0  0  0
 28102  1  0  0  0
 28103  1  0  0  0
 29104  1  0  0  0
 29105  1  0  0  0
 33 34  1  0  0  0
 33 66  1  0  0  0
 33 70  2  0  0  0
 34 36  1  0  0  0
 34 59  1  0  0  0
 34106  1  0  0  0
 35 44  2  0  0  0
 35 45  1  0  0  0
 35 68  1  0  0  0
 36 56  1  0  0  0
 36107  1  0  0  0
 37 39  1  0  0  0
 37 47  1  0  0  0
 37 66  1  0  0  0
 37108  1  0  0  0
 38 43  2  0  0  0
 38 46  1  0  0  0
 38 47  1  0  0  0
 39 64  1  0  0  0
 39 67  2  0  0  0
 40 52  1  0  0  0
 40 53  2  0  0  0
 40 58  1  0  0  0
 41109  1  0  0  0
 41110  1  0  0  0
 41111  1  0  0  0
 41 48  1  0  0  0
 42 43  1  0  0  0
 42 66  1  0  0  0
 42112  1  0  0  0
 42113  1  0  0  0
 43 44  1  0  0  0
 44114  1  0  0  0
 45 46  2  0  0  0
 45115  1  0  0  0
 46116  1  0  0  0
 47117  1  0  0  0
 47118  1  0  0  0
 48 56  1  0  0  0
 48 65  1  0  0  0
 48119  1  0  0  0
 49 50  1  0  0  0
 49 53  1  0  0  0
 49 64  1  0  0  0
 49120  1  0  0  0
 50 51  1  0  0  0
 50121  1  0  0  0
 50122  1  0  0  0
 51 52  1  0  0  0
 51123  1  0  0  0
 51124  1  0  0  0
 52125  1  0  0  0
 52126  1  0  0  0
 53 54  1  0  0  0
 54 55  2  0  0  0
 54127  1  0  0  0
 55 57  1  0  0  0
 55128  1  0  0  0
 56 69  2  0  0  0
 57 58  2  0  0  0
 57129  1  0  0  0
 58130  1  0  0  0
 59 60  1  0  0  0
 59 61  1  0  0  0
 59 62  1  0  0  0
 60131  1  0  0  0
 60132  1  0  0  0
 60133  1  0  0  0
 61134  1  0  0  0
 61135  1  0  0  0
 61136  1  0  0  0
 62137  1  0  0  0
 62138  1  0  0  0
 62139  1  0  0  0
 63 65  1  0  0  0
 63140  1  0  0  0
 63141  1  0  0  0
 63142  1  0  0  0
 64143  1  0  0  0
 65144  1  0  0  0
 68 82  1  0  0  0
 71 73  2  0  0  0
 71 74  1  0  0  0
 71145  1  0  0  0
 72 73  1  0  0  0
 72 83  2  0  0  0
 72146  1  0  0  0
 73 79  1  0  0  0
 74 75  2  0  0  0
 74 84  1  0  0  0
 75 83  1  0  0  0
 75 78  1  0  0  0
 76 77  1  0  0  0
 76 78  1  0  0  0
 76147  1  0  0  0
 76148  1  0  0  0
 77 78  1  0  0  0
 77149  1  0  0  0
 77150  1  0  0  0
 78151  1  0  0  0
 79 80  1  0  0  0
 79152  1  0  0  0
 79153  1  0  0  0
 80 85  1  0  0  0
 80154  1  0  0  0
 80155  1  0  0  0
 81 82  1  0  0  0
 81 85  1  0  0  0
 81156  1  0  0  0
 81157  1  0  0  0
 82158  1  0  0  0
 82159  1  0  0  0
 84160  1  0  0  0
 85161  1  0  0  0
 85162  1  0  0  0
M  CHG  1  85   1
M  ISO  4   1 100  68 101  82 101  84 100
M  END
> <chiral flag>
0

> <version>
0

> <s_m_source_file>
/data/baiqing/PycharmProjects/Reinvent-master-3.2/result/LINK_invent/BTK/process_docking_weight1_custom_sum_contain_oxygen_bond_distance_aromatic_linkinvent_7_9_3/rearranged_h_0134.sdf

> <i_m_source_file_index>
77

> <r_mmod_Potential_Energy-OPLS-2005>
-332.157531738281

> <r_mmod_Stretch_Energy-OPLS-2005>
42.787353515625

> <r_mmod_Bend_Energy-OPLS-2005>
100.164947509766

> <r_mmod_Torsional_Energy-OPLS-2005>
257.272521972656

> <r_mmod_Improper_Torsional_Energy-OPLS-2005>
3.91919922828674

> <r_mmod_Van_der_Waal_Energy-OPLS-2005>
152.115447998047

> <r_mmod_Electrostatic_Energy-OPLS-2005>
-420.377990722656

> <r_mmod_Solvation_Energy-OPLS-2005>
-484.656982421875

> <b_mmod_Minimization_Converged-OPLS-2005>
0

> <r_mmod_RMS_Derivative-OPLS-2005>
1.73714292049408

$$$$
77
                    3D
 Structure written by MMmdl.
156164  0  0  1  0            999 V2000
  -30.6185  -14.8443   20.4395 C   0  0  0  0  0  0
  -30.4433  -12.5266   19.4814 C   0  0  0  0  0  0
  -29.5201  -12.5210   18.2423 C   0  0  0  0  0  0
  -28.0480  -12.3340   18.6535 C   0  0  0  0  0  0
  -27.6401  -13.2477   19.8401 C   0  0  2  0  0  0
  -28.6898  -13.2436   20.9748 C   0  0  0  0  0  0
  -25.2513  -13.8228   20.5709 C   0  0  0  0  0  0
  -24.1815  -13.0464   20.9210 C   0  0  0  0  0  0
  -24.6416  -11.6946   20.8718 C   0  0  0  0  0  0
  -23.9097  -10.4307   21.0374 C   0  0  0  0  0  0
  -24.3646   -9.4219   21.9159 C   0  0  0  0  0  0
  -23.6316   -8.2258   22.0735 C   0  0  0  0  0  0
  -22.4301   -8.0290   21.3528 C   0  0  0  0  0  0
  -21.9938   -9.0272   20.4642 C   0  0  0  0  0  0
  -22.7267  -10.2144   20.3029 C   0  0  0  0  0  0
  -21.6872   -6.0743   22.5265 C   0  0  0  0  0  0
  -21.4044   -6.5646   23.8202 C   0  0  0  0  0  0
  -21.3651   -5.6788   24.9159 C   0  0  0  0  0  0
  -21.6024   -4.3046   24.7206 C   0  0  0  0  0  0
  -21.8830   -3.8145   23.4325 C   0  0  0  0  0  0
  -21.9216   -4.6970   22.3385 C   0  0  0  0  0  0
  -22.7820  -13.5226   21.1841 C   0  0  0  0  0  0
  -22.1669   -4.2148   21.0964 F   0  0  0  0  0  0
  -21.5614   -3.4536   25.7718 F   0  0  0  0  0  0
  -29.9833  -13.6145   20.3821 N   0  0  0  0  0  0
  -26.2952  -12.9461   20.3250 N   0  0  0  0  0  0
  -25.9351  -11.6592   20.5724 N   0  0  0  0  0  0
  -22.0477  -12.8226   22.0411 N   0  0  0  0  0  0
  -25.4156  -15.1966   20.4120 N   0  0  0  0  0  0
  -31.8134  -14.9084   20.1383 O   0  0  0  0  0  0
  -21.6649   -6.8890   21.4231 O   0  0  0  0  0  0
  -22.3477  -14.5514   20.6659 O   0  0  0  0  0  0
  -24.6420  -31.8482   23.1938 C   0  0  0  0  0  0
  -25.9199  -32.4720   23.8305 C   0  0  1  0  0  0
  -27.2285  -27.1812   20.1385 C   0  0  0  0  0  0
  -25.5960  -33.8525   24.2215 N   0  0  0  0  0  0
  -23.4438  -30.4703   21.5379 C   0  0  2  0  0  0
  -24.8964  -28.9121   20.1082 C   0  0  0  0  0  0
  -22.7562  -29.4559   22.4864 C   0  0  0  0  0  0
  -18.0300  -28.1408   22.8486 C   0  0  0  0  0  0
  -24.1488  -36.7252   23.2639 C   0  0  0  0  0  0
  -26.0001  -30.7340   21.3925 C   0  0  0  0  0  0
  -26.0710  -29.3509   20.7323 C   0  0  0  0  0  0
  -27.2352  -28.4986   20.7399 C   0  0  0  0  0  0
  -26.0296  -26.8519   19.4568 C   0  0  0  0  0  0
  -24.8859  -27.6724   19.4577 C   0  0  0  0  0  0
  -23.6708  -29.8065   20.1549 C   0  0  0  0  0  0
  -25.4119  -36.3040   24.0318 C   0  0  1  0  0  0
  -20.5916  -28.3724   23.1242 C   0  0  2  0  0  0
  -20.6785  -26.9425   22.5407 C   0  0  0  0  0  0
  -19.5752  -26.6394   21.5215 C   0  0  0  0  0  0
  -18.1934  -26.7948   22.1632 C   0  0  0  0  0  0
  -19.1560  -28.8877   23.2870 C   0  0  0  0  0  0
  -18.9475  -30.1473   23.8895 C   0  0  0  0  0  0
  -17.6471  -30.6599   24.0559 C   0  0  0  0  0  0
  -25.9069  -34.9416   23.5066 C   0  0  0  0  0  0
  -16.5357  -29.9090   23.6350 C   0  0  0  0  0  0
  -16.7282  -28.6512   23.0370 C   0  0  0  0  0  0
  -26.4531  -31.6582   25.0734 C   0  0  0  0  0  0
  -25.3713  -31.3783   26.1429 C   0  0  0  0  0  0
  -27.0392  -30.2972   24.6317 C   0  0  0  0  0  0
  -27.6061  -32.4352   25.7525 C   0  0  0  0  0  0
  -27.5573  -37.1788   24.8466 C   0  0  0  0  0  0
  -21.4258  -29.3044   22.3607 N   0  0  0  0  0  0
  -26.4282  -37.3753   23.9411 N   0  0  0  0  0  0
  -24.7150  -31.0374   22.0960 N   0  0  0  0  0  0
  -23.4212  -28.8093   23.3002 O   0  0  0  0  0  0
  -28.2764  -26.1979   20.2381 O   0  0  0  0  0  0
  -26.5644  -34.8898   22.4636 O   0  0  0  0  0  0
  -23.5544  -32.1341   23.7170 O   0  0  0  0  0  0
  -28.3184  -22.5500   21.3224 C   0  0  0  0  0  0
  -28.5768  -21.1317   21.4397 C   0  0  0  0  0  0
  -29.4618  -22.5657   19.2527 C   0  0  0  0  0  0
  -28.7003  -23.3397   20.1949 C   0  0  0  0  0  0
  -29.2416  -20.3323   20.4501 C   0  0  0  0  0  0
  -29.7262  -21.1387   19.3598 C   0  0  0  0  0  0
  -31.9939  -20.6978   18.2950 C   0  0  0  0  0  0
  -29.1198  -18.6979   20.4888 C   0  0  0  0  0  0
  -30.4755  -20.4832   18.2075 C   0  0  0  0  0  0
  -27.9792  -24.7533   19.8093 C   0  0  0  0  0  0
  -30.2811  -17.5281   20.5167 C   0  0  0  0  0  0
  -29.8786  -16.0215   20.6240 N   0  0  0  0  0  0
  -31.4785  -12.6679   19.1651 H   0  0  0  0  0  0
  -30.4202  -11.5651   19.9988 H   0  0  0  0  0  0
  -29.8205  -11.7310   17.5524 H   0  0  0  0  0  0
  -29.6313  -13.4606   17.6986 H   0  0  0  0  0  0
  -27.9137  -11.2893   18.9293 H   0  0  0  0  0  0
  -27.3954  -12.5058   17.7965 H   0  0  0  0  0  0
  -27.6143  -14.2575   19.4313 H   0  0  0  0  0  0
  -28.7500  -12.2655   21.4547 H   0  0  0  0  0  0
  -28.4096  -13.9568   21.7512 H   0  0  0  0  0  0
  -25.2802   -9.5701   22.4723 H   0  0  0  0  0  0
  -24.0027   -7.4659   22.7456 H   0  0  0  0  0  0
  -21.0861   -8.8808   19.8957 H   0  0  0  0  0  0
  -22.3734  -10.9685   19.6124 H   0  0  0  0  0  0
  -21.2049   -7.6153   23.9716 H   0  0  0  0  0  0
  -21.1448   -6.0501   25.9061 H   0  0  0  0  0  0
  -22.0620   -2.7608   23.2821 H   0  0  0  0  0  0
  -22.4127  -11.9936   22.4864 H   0  0  0  0  0  0
  -21.1056  -13.1172   22.2535 H   0  0  0  0  0  0
  -24.6471  -15.8491   20.5207 H   0  0  0  0  0  0
  -26.2574  -15.6388   20.0667 H   0  0  0  0  0  0
  -26.7260  -32.5336   23.1037 H   0  0  0  0  0  0
  -25.0117  -33.9657   25.0367 H   0  0  0  0  0  0
  -22.7451  -31.2963   21.3874 H   0  0  0  0  0  0
  -23.3758  -35.9578   23.3308 H   0  0  0  0  0  0
  -24.3572  -36.8879   22.2054 H   0  0  0  0  0  0
  -23.7240  -37.6449   23.6666 H   0  0  0  0  0  0
  -26.1563  -31.4920   20.6244 H   0  0  0  0  0  0
  -26.8694  -30.7788   22.0365 H   0  0  0  0  0  0
  -28.1236  -28.8299   21.2586 H   0  0  0  0  0  0
  -25.9237  -25.9218   18.9213 H   0  0  0  0  0  0
  -23.9941  -27.3349   18.9483 H   0  0  0  0  0  0
  -23.8052  -30.5852   19.4039 H   0  0  0  0  0  0
  -22.7888  -29.2455   19.8394 H   0  0  0  0  0  0
  -25.1312  -36.1883   25.0815 H   0  0  0  0  0  0
  -21.0009  -28.3313   24.1365 H   0  0  0  0  0  0
  -20.5704  -26.2326   23.3630 H   0  0  0  0  0  0
  -21.6653  -26.7446   22.1198 H   0  0  0  0  0  0
  -19.6923  -25.6304   21.1260 H   0  0  0  0  0  0
  -19.6710  -27.3197   20.6742 H   0  0  0  0  0  0
  -17.4220  -26.6701   21.4026 H   0  0  0  0  0  0
  -18.0323  -26.0083   22.9026 H   0  0  0  0  0  0
  -19.7942  -30.7286   24.2276 H   0  0  0  0  0  0
  -17.5020  -31.6278   24.5152 H   0  0  0  0  0  0
  -15.5361  -30.2993   23.7667 H   0  0  0  0  0  0
  -15.8685  -28.0817   22.7108 H   0  0  0  0  0  0
  -24.5904  -30.7112   25.7761 H   0  0  0  0  0  0
  -24.8880  -32.2964   26.4774 H   0  0  0  0  0  0
  -25.7997  -30.9026   27.0259 H   0  0  0  0  0  0
  -26.3002  -29.6712   24.1297 H   0  0  0  0  0  0
  -27.3966  -29.7275   25.4911 H   0  0  0  0  0  0
  -27.8936  -30.4212   23.9653 H   0  0  0  0  0  0
  -27.2645  -33.3681   26.2030 H   0  0  0  0  0  0
  -28.3907  -32.6879   25.0373 H   0  0  0  0  0  0
  -28.0671  -31.8518   26.5511 H   0  0  0  0  0  0
  -28.2595  -38.0083   24.7503 H   0  0  0  0  0  0
  -28.1070  -36.2615   24.6308 H   0  0  0  0  0  0
  -27.2285  -37.1441   25.8867 H   0  0  0  0  0  0
  -20.9462  -29.8757   21.6801 H   0  0  0  0  0  0
  -26.0160  -38.2828   24.1417 H   0  0  0  0  0  0
  -27.7094  -23.0161   22.0852 H   0  0  0  0  0  0
  -28.1477  -20.6242   22.2934 H   0  0  0  0  0  0
  -29.7772  -23.0663   18.3465 H   0  0  0  0  0  0
  -32.2470  -21.7589   18.2940 H   0  0  0  0  0  0
  -32.5003  -20.2341   17.4471 H   0  0  0  0  0  0
  -32.4050  -20.2586   19.2049 H   0  0  0  0  0  0
  -28.4816  -18.4608   19.6385 H   0  0  0  0  0  0
  -28.4918  -18.4888   21.3550 H   0  0  0  0  0  0
  -30.1062  -20.8971   17.2676 H   0  0  0  0  0  0
  -30.2577  -19.4165   18.1644 H   0  0  0  0  0  0
  -26.9547  -24.5395   20.1123 H   0  0  0  0  0  0
  -27.9696  -24.7776   18.7190 H   0  0  0  0  0  0
  -30.9519  -17.7353   21.3511 H   0  0  0  0  0  0
  -30.8970  -17.6311   19.6211 H   0  0  0  0  0  0
  -28.9059  -15.8582   20.8314 H   0  0  0  0  0  0
  1 25  1  0  0  0
  1 30  2  0  0  0
  1 82  1  0  0  0
  2  3  1  0  0  0
  2 25  1  0  0  0
  2 83  1  0  0  0
  2 84  1  0  0  0
  3  4  1  0  0  0
  3 85  1  0  0  0
  3 86  1  0  0  0
  4  5  1  0  0  0
  4 87  1  0  0  0
  4 88  1  0  0  0
  5  6  1  0  0  0
  5 26  1  0  0  0
  5 89  1  0  0  0
  6 25  1  0  0  0
  6 90  1  0  0  0
  6 91  1  0  0  0
  7  8  2  0  0  0
  7 26  1  0  0  0
  7 29  1  0  0  0
  8  9  1  0  0  0
  8 22  1  0  0  0
  9 10  1  0  0  0
  9 27  2  0  0  0
 10 11  2  0  0  0
 10 15  1  0  0  0
 11 12  1  0  0  0
 11 92  1  0  0  0
 12 13  2  0  0  0
 12 93  1  0  0  0
 13 14  1  0  0  0
 13 31  1  0  0  0
 14 15  2  0  0  0
 14 94  1  0  0  0
 15 95  1  0  0  0
 16 17  2  0  0  0
 16 21  1  0  0  0
 16 31  1  0  0  0
 17 18  1  0  0  0
 17 96  1  0  0  0
 18 19  2  0  0  0
 18 97  1  0  0  0
 19 20  1  0  0  0
 19 24  1  0  0  0
 20 21  2  0  0  0
 20 98  1  0  0  0
 21 23  1  0  0  0
 22 28  1  0  0  0
 22 32  2  0  0  0
 26 27  1  0  0  0
 28 99  1  0  0  0
 28100  1  0  0  0
 29101  1  0  0  0
 29102  1  0  0  0
 33 34  1  0  0  0
 33 66  1  0  0  0
 33 70  2  0  0  0
 34 36  1  0  0  0
 34 59  1  0  0  0
 34103  1  0  0  0
 35 44  2  0  0  0
 35 45  1  0  0  0
 35 68  1  0  0  0
 36 56  1  0  0  0
 36104  1  0  0  0
 37 39  1  0  0  0
 37 47  1  0  0  0
 37 66  1  0  0  0
 37105  1  0  0  0
 38 43  2  0  0  0
 38 46  1  0  0  0
 38 47  1  0  0  0
 39 64  1  0  0  0
 39 67  2  0  0  0
 40 52  1  0  0  0
 40 53  2  0  0  0
 40 58  1  0  0  0
 41106  1  0  0  0
 41107  1  0  0  0
 41108  1  0  0  0
 41 48  1  0  0  0
 42 43  1  0  0  0
 42 66  1  0  0  0
 42109  1  0  0  0
 42110  1  0  0  0
 43 44  1  0  0  0
 44111  1  0  0  0
 45 46  2  0  0  0
 45112  1  0  0  0
 46113  1  0  0  0
 47114  1  0  0  0
 47115  1  0  0  0
 48 56  1  0  0  0
 48 65  1  0  0  0
 48116  1  0  0  0
 49 50  1  0  0  0
 49 53  1  0  0  0
 49 64  1  0  0  0
 49117  1  0  0  0
 50 51  1  0  0  0
 50118  1  0  0  0
 50119  1  0  0  0
 51 52  1  0  0  0
 51120  1  0  0  0
 51121  1  0  0  0
 52122  1  0  0  0
 52123  1  0  0  0
 53 54  1  0  0  0
 54 55  2  0  0  0
 54124  1  0  0  0
 55 57  1  0  0  0
 55125  1  0  0  0
 56 69  2  0  0  0
 57 58  2  0  0  0
 57126  1  0  0  0
 58127  1  0  0  0
 59 60  1  0  0  0
 59 61  1  0  0  0
 59 62  1  0  0  0
 60128  1  0  0  0
 60129  1  0  0  0
 60130  1  0  0  0
 61131  1  0  0  0
 61132  1  0  0  0
 61133  1  0  0  0
 62134  1  0  0  0
 62135  1  0  0  0
 62136  1  0  0  0
 63 65  1  0  0  0
 63137  1  0  0  0
 63138  1  0  0  0
 63139  1  0  0  0
 64140  1  0  0  0
 65141  1  0  0  0
 68 80  1  0  0  0
 71 72  2  0  0  0
 71 74  1  0  0  0
 71142  1  0  0  0
 72 75  1  0  0  0
 72143  1  0  0  0
 73 74  2  0  0  0
 73 76  1  0  0  0
 73144  1  0  0  0
 74 80  1  0  0  0
 75 76  2  0  0  0
 75 78  1  0  0  0
 76 79  1  0  0  0
 77 79  1  0  0  0
 77145  1  0  0  0
 77146  1  0  0  0
 77147  1  0  0  0
 78 81  1  0  0  0
 78148  1  0  0  0
 78149  1  0  0  0
 79150  1  0  0  0
 79151  1  0  0  0
 80152  1  0  0  0
 80153  1  0  0  0
 81 82  1  0  0  0
 81154  1  0  0  0
 81155  1  0  0  0
 82156  1  0  0  0
M  ISO  4   1 100  68 101  80 101  82 100
M  END
> <chiral flag>
0

> <version>
0

> <s_m_source_file>
/data/baiqing/PycharmProjects/Reinvent-master-3.2/result/LINK_invent/BTK/process_docking_weight1_custom_sum_contain_oxygen_bond_distance_aromatic_linkinvent_7_9_3/rearranged_h_0134.sdf

> <i_m_source_file_index>
78

> <r_mmod_Potential_Energy-OPLS-2005>
363.089172363281

> <r_mmod_Stretch_Energy-OPLS-2005>
184.14111328125

> <r_mmod_Bend_Energy-OPLS-2005>
234.166107177734

> <r_mmod_Torsional_Energy-OPLS-2005>
232.010360717773

> <r_mmod_Improper_Torsional_Energy-OPLS-2005>
10.9217958450317

> <r_mmod_Van_der_Waal_Energy-OPLS-2005>
138.121505737305

> <r_mmod_Electrostatic_Energy-OPLS-2005>
-368.845245361328

> <r_mmod_Solvation_Energy-OPLS-2005>
-211.531539916992

> <b_mmod_Minimization_Converged-OPLS-2005>
0

> <r_mmod_RMS_Derivative-OPLS-2005>
2.92684292793274

$$$$
78
                    3D
 Structure written by MMmdl.
171180  0  0  1  0            999 V2000
  -30.6514  -14.6046   20.4859 C   0  0  0  0  0  0
  -30.4339  -12.3595   19.4652 C   0  0  0  0  0  0
  -29.5140  -12.5035   18.2336 C   0  0  0  0  0  0
  -28.0339  -12.3557   18.6364 C   0  0  0  0  0  0
  -27.6604  -13.2191   19.8724 C   0  0  2  0  0  0
  -28.7048  -13.0682   21.0049 C   0  0  0  0  0  0
  -25.2585  -13.8177   20.5692 C   0  0  0  0  0  0
  -24.1848  -13.0442   20.9174 C   0  0  0  0  0  0
  -24.6418  -11.6913   20.8721 C   0  0  0  0  0  0
  -23.9083  -10.4295   21.0397 C   0  0  0  0  0  0
  -24.3626   -9.4213   21.9182 C   0  0  0  0  0  0
  -23.6297   -8.2248   22.0755 C   0  0  0  0  0  0
  -22.4278   -8.0283   21.3544 C   0  0  0  0  0  0
  -21.9918   -9.0258   20.4647 C   0  0  0  0  0  0
  -22.7249  -10.2137   20.3051 C   0  0  0  0  0  0
  -21.6861   -6.0737   22.5282 C   0  0  0  0  0  0
  -21.4020   -6.5640   23.8213 C   0  0  0  0  0  0
  -21.3661   -5.6790   24.9176 C   0  0  0  0  0  0
  -21.6048   -4.3052   24.7227 C   0  0  0  0  0  0
  -21.8821   -3.8147   23.4344 C   0  0  0  0  0  0
  -21.9200   -4.6967   22.3401 C   0  0  0  0  0  0
  -22.7867  -13.5233   21.1845 C   0  0  0  0  0  0
  -22.1663   -4.2153   21.0980 F   0  0  0  0  0  0
  -21.5635   -3.4539   25.7741 F   0  0  0  0  0  0
  -30.0293  -13.3852   20.4468 N   0  0  0  0  0  0
  -26.3036  -12.9368   20.3362 N   0  0  0  0  0  0
  -25.9357  -11.6523   20.5775 N   0  0  0  0  0  0
  -22.0502  -12.8216   22.0385 N   0  0  0  0  0  0
  -25.4288  -15.1898   20.4101 N   0  0  0  0  0  0
  -31.7904  -14.7687   20.0435 O   0  0  0  0  0  0
  -21.6647   -6.8876   21.4238 O   0  0  0  0  0  0
  -22.3554  -14.5543   20.6704 O   0  0  0  0  0  0
  -24.6256  -31.8617   23.2040 C   0  0  0  0  0  0
  -25.9107  -32.4790   23.8361 C   0  0  1  0  0  0
  -27.2307  -27.3377   20.1095 C   0  0  0  0  0  0
  -25.5936  -33.8590   24.2295 N   0  0  0  0  0  0
  -23.4182  -30.4853   21.5480 C   0  0  2  0  0  0
  -24.8650  -28.9445   20.1149 C   0  0  0  0  0  0
  -22.7467  -29.4634   22.4957 C   0  0  0  0  0  0
  -18.0285  -28.1386   22.8483 C   0  0  0  0  0  0
  -24.1498  -36.7295   23.2634 C   0  0  0  0  0  0
  -25.9593  -30.7972   21.3738 C   0  0  0  0  0  0
  -26.0343  -29.4270   20.7155 C   0  0  0  0  0  0
  -27.2204  -28.6352   20.7033 C   0  0  0  0  0  0
  -26.0327  -26.9045   19.4912 C   0  0  0  0  0  0
  -24.8653  -27.6871   19.4958 C   0  0  0  0  0  0
  -23.6317  -29.8206   20.1641 C   0  0  0  0  0  0
  -25.4123  -36.3092   24.0327 C   0  0  1  0  0  0
  -20.5884  -28.3685   23.1295 C   0  0  2  0  0  0
  -20.6786  -26.9410   22.5412 C   0  0  0  0  0  0
  -19.5759  -26.6386   21.5215 C   0  0  0  0  0  0
  -18.1939  -26.7933   22.1618 C   0  0  0  0  0  0
  -19.1536  -28.8853   23.2885 C   0  0  0  0  0  0
  -18.9452  -30.1457   23.8895 C   0  0  0  0  0  0
  -17.6452  -30.6585   24.0562 C   0  0  0  0  0  0
  -25.9054  -34.9456   23.5109 C   0  0  0  0  0  0
  -16.5345  -29.9077   23.6334 C   0  0  0  0  0  0
  -16.7272  -28.6498   23.0349 C   0  0  0  0  0  0
  -26.4486  -31.6584   25.0719 C   0  0  0  0  0  0
  -25.3720  -31.3711   26.1444 C   0  0  0  0  0  0
  -27.0318  -30.3008   24.6159 C   0  0  0  0  0  0
  -27.6060  -32.4290   25.7492 C   0  0  0  0  0  0
  -27.5585  -37.1810   24.8458 C   0  0  0  0  0  0
  -21.4183  -29.3039   22.3697 N   0  0  0  0  0  0
  -26.4306  -37.3778   23.9395 N   0  0  0  0  0  0
  -24.6863  -31.0636   22.0993 N   0  0  0  0  0  0
  -23.4198  -28.8173   23.3027 O   0  0  0  0  0  0
  -28.3606  -26.5052   20.1442 O   0  0  0  0  0  0
  -26.5605  -34.8911   22.4665 O   0  0  0  0  0  0
  -23.5421  -32.1406   23.7376 O   0  0  0  0  0  0
  -29.8225  -18.2826   22.8385 C   0  0  0  0  0  0
  -29.6092  -18.8403   24.0974 C   0  0  0  0  0  0
  -29.5527  -20.2095   24.2713 C   0  0  0  0  0  0
  -29.9513  -19.1120   21.7007 C   0  0  0  0  0  0
  -29.6614  -21.0987   23.1780 C   0  0  0  0  0  0
  -29.8105  -20.5667   21.8485 C   0  0  0  0  0  0
  -29.5007  -18.0889   25.3964 C   0  0  0  0  0  0
  -29.4193  -20.5458   25.7403 C   0  0  0  0  0  0
  -29.6035  -19.1941   26.4670 C   0  0  0  0  0  0
  -31.0828  -24.5115   23.6462 C   0  0  0  0  0  0
  -30.3984  -18.3382   20.4284 C   0  0  0  0  0  0
  -29.6899  -22.6008   23.4809 C   0  0  0  0  0  0
  -29.9321  -21.6123   20.6828 C   0  0  0  0  0  0
  -29.7261  -16.9525   20.0199 C   0  0  0  0  0  0
  -28.1282  -25.0460   20.1285 C   0  0  0  0  0  0
  -29.3364  -24.0343   20.2745 C   0  0  0  0  0  0
  -29.8652  -15.6718   20.7993 N   0  0  0  0  0  0
  -30.9653  -23.1675   23.2008 O   0  0  0  0  0  0
  -28.9313  -22.6806   20.6630 O   0  0  0  0  0  0
  -31.4795  -12.4584   19.1682 H   0  0  0  0  0  0
  -30.3400  -11.3619   19.8967 H   0  0  0  0  0  0
  -29.7719  -11.7585   17.4800 H   0  0  0  0  0  0
  -29.6741  -13.4769   17.7681 H   0  0  0  0  0  0
  -27.8558  -11.3019   18.8537 H   0  0  0  0  0  0
  -27.3884  -12.6056   17.7934 H   0  0  0  0  0  0
  -27.6806  -14.2568   19.5399 H   0  0  0  0  0  0
  -28.6996  -12.0497   21.3966 H   0  0  0  0  0  0
  -28.4580  -13.7126   21.8501 H   0  0  0  0  0  0
  -25.2774   -9.5701   22.4754 H   0  0  0  0  0  0
  -24.0020   -7.4650   22.7475 H   0  0  0  0  0  0
  -21.0859   -8.8773   19.8943 H   0  0  0  0  0  0
  -22.3710  -10.9674   19.6159 H   0  0  0  0  0  0
  -21.1992   -7.6145   23.9713 H   0  0  0  0  0  0
  -21.1489   -6.0523   25.9079 H   0  0  0  0  0  0
  -22.0594   -2.7608   23.2848 H   0  0  0  0  0  0
  -22.4126  -11.9877   22.4772 H   0  0  0  0  0  0
  -21.1118  -13.1252   22.2585 H   0  0  0  0  0  0
  -24.6622  -15.8443   20.5171 H   0  0  0  0  0  0
  -26.2808  -15.6295   20.0870 H   0  0  0  0  0  0
  -26.7178  -32.5463   23.1109 H   0  0  0  0  0  0
  -25.0111  -33.9743   25.0463 H   0  0  0  0  0  0
  -22.7112  -31.3053   21.4060 H   0  0  0  0  0  0
  -23.3762  -35.9624   23.3303 H   0  0  0  0  0  0
  -24.3587  -36.8911   22.2046 H   0  0  0  0  0  0
  -23.7247  -37.6500   23.6649 H   0  0  0  0  0  0
  -26.0895  -31.5615   20.6063 H   0  0  0  0  0  0
  -26.8412  -30.8455   22.0012 H   0  0  0  0  0  0
  -28.1180  -29.0024   21.1808 H   0  0  0  0  0  0
  -25.9599  -25.9494   18.9961 H   0  0  0  0  0  0
  -23.9688  -27.3116   19.0218 H   0  0  0  0  0  0
  -23.7466  -30.5969   19.4067 H   0  0  0  0  0  0
  -22.7537  -29.2457   19.8637 H   0  0  0  0  0  0
  -25.1308  -36.1951   25.0820 H   0  0  0  0  0  0
  -20.9971  -28.3254   24.1415 H   0  0  0  0  0  0
  -20.5718  -26.2277   23.3603 H   0  0  0  0  0  0
  -21.6656  -26.7470   22.1183 H   0  0  0  0  0  0
  -19.6929  -25.6297   21.1246 H   0  0  0  0  0  0
  -19.6719  -27.3197   20.6748 H   0  0  0  0  0  0
  -17.4218  -26.6682   21.4013 H   0  0  0  0  0  0
  -18.0331  -26.0079   22.9012 H   0  0  0  0  0  0
  -19.7922  -30.7281   24.2269 H   0  0  0  0  0  0
  -17.4997  -31.6267   24.5149 H   0  0  0  0  0  0
  -15.5342  -30.2970   23.7671 H   0  0  0  0  0  0
  -15.8670  -28.0820   22.7065 H   0  0  0  0  0  0
  -24.5908  -30.7049   25.7762 H   0  0  0  0  0  0
  -24.8893  -32.2871   26.4861 H   0  0  0  0  0  0
  -25.8045  -30.8889   27.0221 H   0  0  0  0  0  0
  -26.2883  -29.6768   24.1187 H   0  0  0  0  0  0
  -27.4022  -29.7246   25.4647 H   0  0  0  0  0  0
  -27.8749  -30.4289   23.9368 H   0  0  0  0  0  0
  -27.2696  -33.3590   26.2078 H   0  0  0  0  0  0
  -28.3875  -32.6845   25.0325 H   0  0  0  0  0  0
  -28.0719  -31.8403   26.5403 H   0  0  0  0  0  0
  -28.2608  -38.0104   24.7511 H   0  0  0  0  0  0
  -28.1086  -36.2638   24.6294 H   0  0  0  0  0  0
  -27.2294  -37.1459   25.8858 H   0  0  0  0  0  0
  -20.9359  -29.8750   21.6904 H   0  0  0  0  0  0
  -26.0194  -38.2860   24.1385 H   0  0  0  0  0  0
  -29.9448  -17.2132   22.7715 H   0  0  0  0  0  0
  -30.2868  -17.3398   25.5002 H   0  0  0  0  0  0
  -28.5365  -17.5820   25.4405 H   0  0  0  0  0  0
  -28.4275  -20.9588   25.9268 H   0  0  0  0  0  0
  -30.1683  -21.2711   26.0626 H   0  0  0  0  0  0
  -30.6093  -19.1674   26.8885 H   0  0  0  0  0  0
  -28.9095  -19.0534   27.2956 H   0  0  0  0  0  0
  -32.0450  -24.9208   23.3359 H   0  0  0  0  0  0
  -31.0286  -24.5710   24.7336 H   0  0  0  0  0  0
  -30.2999  -25.1462   23.2293 H   0  0  0  0  0  0
  -31.4744  -18.1841   20.5093 H   0  0  0  0  0  0
  -30.2792  -19.0004   19.5738 H   0  0  0  0  0  0
  -29.4577  -22.7823   24.5289 H   0  0  0  0  0  0
  -28.8974  -23.1250   22.9510 H   0  0  0  0  0  0
  -29.8898  -21.1171   19.7150 H   0  0  0  0  0  0
  -30.9280  -22.0527   20.7470 H   0  0  0  0  0  0
  -30.0742  -16.7298   19.0091 H   0  0  0  0  0  0
  -28.6560  -17.1281   19.9058 H   0  0  0  0  0  0
  -27.4242  -24.8306   20.9344 H   0  0  0  0  0  0
  -27.6360  -24.7624   19.2002 H   0  0  0  0  0  0
  -30.0300  -24.4155   21.0203 H   0  0  0  0  0  0
  -29.8908  -23.9938   19.3360 H   0  0  0  0  0  0
  -29.0173  -15.3944   21.2708 H   0  0  0  0  0  0
  1 25  1  0  0  0
  1 30  2  0  0  0
  1 87  1  0  0  0
  2  3  1  0  0  0
  2 25  1  0  0  0
  2 90  1  0  0  0
  2 91  1  0  0  0
  3  4  1  0  0  0
  3 92  1  0  0  0
  3 93  1  0  0  0
  4  5  1  0  0  0
  4 94  1  0  0  0
  4 95  1  0  0  0
  5  6  1  0  0  0
  5 26  1  0  0  0
  5 96  1  0  0  0
  6 25  1  0  0  0
  6 97  1  0  0  0
  6 98  1  0  0  0
  7  8  2  0  0  0
  7 26  1  0  0  0
  7 29  1  0  0  0
  8  9  1  0  0  0
  8 22  1  0  0  0
  9 10  1  0  0  0
  9 27  2  0  0  0
 10 11  2  0  0  0
 10 15  1  0  0  0
 11 12  1  0  0  0
 11 99  1  0  0  0
 12 13  2  0  0  0
 12100  1  0  0  0
 13 14  1  0  0  0
 13 31  1  0  0  0
 14 15  2  0  0  0
 14101  1  0  0  0
 15102  1  0  0  0
 16 17  2  0  0  0
 16 21  1  0  0  0
 16 31  1  0  0  0
 17 18  1  0  0  0
 17103  1  0  0  0
 18 19  2  0  0  0
 18104  1  0  0  0
 19 20  1  0  0  0
 19 24  1  0  0  0
 20 21  2  0  0  0
 20105  1  0  0  0
 21 23  1  0  0  0
 22 28  1  0  0  0
 22 32  2  0  0  0
 26 27  1  0  0  0
 28106  1  0  0  0
 28107  1  0  0  0
 29108  1  0  0  0
 29109  1  0  0  0
 33 34  1  0  0  0
 33 66  1  0  0  0
 33 70  2  0  0  0
 34 36  1  0  0  0
 34 59  1  0  0  0
 34110  1  0  0  0
 35 44  2  0  0  0
 35 45  1  0  0  0
 35 68  1  0  0  0
 36 56  1  0  0  0
 36111  1  0  0  0
 37 39  1  0  0  0
 37 47  1  0  0  0
 37 66  1  0  0  0
 37112  1  0  0  0
 38 43  2  0  0  0
 38 46  1  0  0  0
 38 47  1  0  0  0
 39 64  1  0  0  0
 39 67  2  0  0  0
 40 52  1  0  0  0
 40 53  2  0  0  0
 40 58  1  0  0  0
 41113  1  0  0  0
 41114  1  0  0  0
 41115  1  0  0  0
 41 48  1  0  0  0
 42 43  1  0  0  0
 42 66  1  0  0  0
 42116  1  0  0  0
 42117  1  0  0  0
 43 44  1  0  0  0
 44118  1  0  0  0
 45 46  2  0  0  0
 45119  1  0  0  0
 46120  1  0  0  0
 47121  1  0  0  0
 47122  1  0  0  0
 48 56  1  0  0  0
 48 65  1  0  0  0
 48123  1  0  0  0
 49 50  1  0  0  0
 49 53  1  0  0  0
 49 64  1  0  0  0
 49124  1  0  0  0
 50 51  1  0  0  0
 50125  1  0  0  0
 50126  1  0  0  0
 51 52  1  0  0  0
 51127  1  0  0  0
 51128  1  0  0  0
 52129  1  0  0  0
 52130  1  0  0  0
 53 54  1  0  0  0
 54 55  2  0  0  0
 54131  1  0  0  0
 55 57  1  0  0  0
 55132  1  0  0  0
 56 69  2  0  0  0
 57 58  2  0  0  0
 57133  1  0  0  0
 58134  1  0  0  0
 59 60  1  0  0  0
 59 61  1  0  0  0
 59 62  1  0  0  0
 60135  1  0  0  0
 60136  1  0  0  0
 60137  1  0  0  0
 61138  1  0  0  0
 61139  1  0  0  0
 61140  1  0  0  0
 62141  1  0  0  0
 62142  1  0  0  0
 62143  1  0  0  0
 63 65  1  0  0  0
 63144  1  0  0  0
 63145  1  0  0  0
 63146  1  0  0  0
 64147  1  0  0  0
 65148  1  0  0  0
 68 85  1  0  0  0
 71 72  2  0  0  0
 71 74  1  0  0  0
 71149  1  0  0  0
 72 73  1  0  0  0
 72 77  1  0  0  0
 73 75  2  0  0  0
 73 78  1  0  0  0
 74 76  2  0  0  0
 74 81  1  0  0  0
 75 76  1  0  0  0
 75 82  1  0  0  0
 76 83  1  0  0  0
 77 79  1  0  0  0
 77150  1  0  0  0
 77151  1  0  0  0
 78 79  1  0  0  0
 78152  1  0  0  0
 78153  1  0  0  0
 79154  1  0  0  0
 79155  1  0  0  0
 80 88  1  0  0  0
 80156  1  0  0  0
 80157  1  0  0  0
 80158  1  0  0  0
 81 84  1  0  0  0
 81159  1  0  0  0
 81160  1  0  0  0
 82 88  1  0  0  0
 82161  1  0  0  0
 82162  1  0  0  0
 83 89  1  0  0  0
 83163  1  0  0  0
 83164  1  0  0  0
 84 87  1  0  0  0
 84165  1  0  0  0
 84166  1  0  0  0
 85 86  1  0  0  0
 85167  1  0  0  0
 85168  1  0  0  0
 86 89  1  0  0  0
 86169  1  0  0  0
 86170  1  0  0  0
 87171  1  0  0  0
M  ISO  4   1 100  68 101  85 101  87 100
M  END
> <chiral flag>
0

> <version>
0

> <s_m_source_file>
/data/baiqing/PycharmProjects/Reinvent-master-3.2/result/LINK_invent/BTK/process_docking_weight1_custom_sum_contain_oxygen_bond_distance_aromatic_linkinvent_7_9_3/rearranged_h_0134.sdf

> <i_m_source_file_index>
79

> <r_mmod_Potential_Energy-OPLS-2005>
169.653564453125

> <r_mmod_Stretch_Energy-OPLS-2005>
87.9351577758789

> <r_mmod_Bend_Energy-OPLS-2005>
196.588302612305

> <r_mmod_Torsional_Energy-OPLS-2005>
272.480102539062

> <r_mmod_Improper_Torsional_Energy-OPLS-2005>
9.50008773803711

> <r_mmod_Van_der_Waal_Energy-OPLS-2005>
148.034942626953

> <r_mmod_Electrostatic_Energy-OPLS-2005>
-360.212127685547

> <r_mmod_Solvation_Energy-OPLS-2005>
-223.781768798828

> <b_mmod_Minimization_Converged-OPLS-2005>
0

> <r_mmod_RMS_Derivative-OPLS-2005>
1.54970860481262

$$$$
79
                    3D
 Structure written by MMmdl.
150158  0  0  1  0            999 V2000
  -30.4400  -15.2636   20.3637 C   0  0  0  0  0  0
  -30.4379  -12.8034   19.5368 C   0  0  0  0  0  0
  -29.5385  -12.5756   18.2950 C   0  0  0  0  0  0
  -28.0864  -12.3000   18.7198 C   0  0  0  0  0  0
  -27.6128  -13.2756   19.8260 C   0  0  2  0  0  0
  -28.6433  -13.4510   20.9631 C   0  0  0  0  0  0
  -25.2385  -13.8252   20.5740 C   0  0  0  0  0  0
  -24.1739  -13.0440   20.9256 C   0  0  0  0  0  0
  -24.6396  -11.6938   20.8764 C   0  0  0  0  0  0
  -23.9093  -10.4297   21.0408 C   0  0  0  0  0  0
  -24.3638   -9.4208   21.9183 C   0  0  0  0  0  0
  -23.6304   -8.2249   22.0755 C   0  0  0  0  0  0
  -22.4284   -8.0288   21.3547 C   0  0  0  0  0  0
  -21.9925   -9.0263   20.4650 C   0  0  0  0  0  0
  -22.7263  -10.2137   20.3058 C   0  0  0  0  0  0
  -21.6859   -6.0738   22.5278 C   0  0  0  0  0  0
  -21.4020   -6.5640   23.8212 C   0  0  0  0  0  0
  -21.3662   -5.6791   24.9173 C   0  0  0  0  0  0
  -21.6045   -4.3054   24.7222 C   0  0  0  0  0  0
  -21.8819   -3.8147   23.4343 C   0  0  0  0  0  0
  -21.9194   -4.6964   22.3399 C   0  0  0  0  0  0
  -22.7754  -13.5192   21.1895 C   0  0  0  0  0  0
  -22.1660   -4.2149   21.0977 F   0  0  0  0  0  0
  -21.5627   -3.4538   25.7735 F   0  0  0  0  0  0
  -29.8795  -13.9535   20.3425 N   0  0  0  0  0  0
  -26.2816  -12.9526   20.3220 N   0  0  0  0  0  0
  -25.9334  -11.6633   20.5723 N   0  0  0  0  0  0
  -22.0411  -12.8184   22.0454 N   0  0  0  0  0  0
  -25.4012  -15.1989   20.4166 N   0  0  0  0  0  0
  -31.6531  -15.2651   20.1114 O   0  0  0  0  0  0
  -21.6647   -6.8885   21.4242 O   0  0  0  0  0  0
  -22.3434  -14.5487   20.6724 O   0  0  0  0  0  0
  -24.6624  -31.8229   23.1704 C   0  0  0  0  0  0
  -25.9306  -32.4584   23.8165 C   0  0  1  0  0  0
  -27.2190  -26.9274   20.1827 C   0  0  0  0  0  0
  -25.5975  -33.8399   24.2068 N   0  0  0  0  0  0
  -23.4775  -30.4341   21.5190 C   0  0  2  0  0  0
  -24.9321  -28.8213   20.1090 C   0  0  0  0  0  0
  -22.7665  -29.4432   22.4777 C   0  0  0  0  0  0
  -18.0320  -28.1405   22.8466 C   0  0  0  0  0  0
  -24.1494  -36.7210   23.2647 C   0  0  0  0  0  0
  -26.0459  -30.6285   21.4018 C   0  0  0  0  0  0
  -26.1138  -29.2184   20.7460 C   0  0  0  0  0  0
  -27.2500  -28.2910   20.7610 C   0  0  0  0  0  0
  -26.0125  -26.6865   19.4875 C   0  0  0  0  0  0
  -24.9069  -27.5764   19.4590 C   0  0  0  0  0  0
  -23.7176  -29.7486   20.1449 C   0  0  0  0  0  0
  -25.4135  -36.2965   24.0296 C   0  0  1  0  0  0
  -20.5944  -28.3750   23.1186 C   0  0  2  0  0  0
  -20.6797  -26.9432   22.5401 C   0  0  0  0  0  0
  -19.5772  -26.6374   21.5213 C   0  0  0  0  0  0
  -18.1953  -26.7937   22.1620 C   0  0  0  0  0  0
  -19.1582  -28.8899   23.2813 C   0  0  0  0  0  0
  -18.9492  -30.1488   23.8848 C   0  0  0  0  0  0
  -17.6485  -30.6595   24.0554 C   0  0  0  0  0  0
  -25.9100  -34.9347   23.5003 C   0  0  0  0  0  0
  -16.5375  -29.9083   23.6343 C   0  0  0  0  0  0
  -16.7302  -28.6504   23.0362 C   0  0  0  0  0  0
  -26.4559  -31.6534   25.0699 C   0  0  0  0  0  0
  -25.3682  -31.3789   26.1355 C   0  0  0  0  0  0
  -27.0460  -30.2900   24.6440 C   0  0  0  0  0  0
  -27.6044  -32.4350   25.7506 C   0  0  0  0  0  0
  -27.5568  -37.1763   24.8465 C   0  0  0  0  0  0
  -21.4334  -29.3038   22.3532 N   0  0  0  0  0  0
  -26.4281  -37.3701   23.9404 N   0  0  0  0  0  0
  -24.7498  -30.9891   22.0840 N   0  0  0  0  0  0
  -23.4213  -28.8004   23.3021 O   0  0  0  0  0  0
  -28.2173  -25.8211   20.2904 O   0  0  0  0  0  0
  -26.5714  -34.8882   22.4602 O   0  0  0  0  0  0
  -23.5695  -32.1197   23.6798 O   0  0  0  0  0  0
  -28.3374  -20.9960   20.1108 C   0  0  0  0  0  0
  -30.2323  -22.2681   20.2829 C   0  0  0  0  0  0
  -28.7236  -22.6218   20.5084 C   0  0  1  0  0  0
  -29.4435  -19.8025   20.6279 C   0  0  1  0  0  0
  -28.0276  -24.2106   19.9663 C   0  0  0  0  0  0
  -29.9681  -18.1457   20.0799 C   0  0  0  0  0  0
  -29.6852  -16.5411   20.4595 N   0  0  0  0  0  0
  -30.5803  -20.7936   20.5595 N   0  3  0  0  0  0
  -31.4593  -12.9999   19.2093 H   0  0  0  0  0  0
  -30.4983  -11.8978   20.1425 H   0  0  0  0  0  0
  -29.9192  -11.7476   17.6958 H   0  0  0  0  0  0
  -29.5711  -13.4596   17.6563 H   0  0  0  0  0  0
  -28.0429  -11.2760   19.0932 H   0  0  0  0  0  0
  -27.4203  -12.3409   17.8575 H   0  0  0  0  0  0
  -27.5297  -14.2424   19.3279 H   0  0  0  0  0  0
  -28.8082  -12.5176   21.5040 H   0  0  0  0  0  0
  -28.2811  -14.1752   21.6941 H   0  0  0  0  0  0
  -25.2783   -9.5681   22.4758 H   0  0  0  0  0  0
  -24.0010   -7.4642   22.7477 H   0  0  0  0  0  0
  -21.0855   -8.8791   19.8956 H   0  0  0  0  0  0
  -22.3725  -10.9677   19.6168 H   0  0  0  0  0  0
  -21.2016   -7.6148   23.9716 H   0  0  0  0  0  0
  -21.1481   -6.0520   25.9076 H   0  0  0  0  0  0
  -22.0594   -2.7608   23.2844 H   0  0  0  0  0  0
  -22.4037  -11.9860   22.4860 H   0  0  0  0  0  0
  -21.1017  -13.1190   22.2642 H   0  0  0  0  0  0
  -24.6282  -15.8462   20.5282 H   0  0  0  0  0  0
  -26.2370  -15.6406   20.0568 H   0  0  0  0  0  0
  -26.7375  -32.5123   23.0879 H   0  0  0  0  0  0
  -25.0066  -33.9476   25.0181 H   0  0  0  0  0  0
  -22.7906  -31.2656   21.3479 H   0  0  0  0  0  0
  -23.3763  -35.9534   23.3282 H   0  0  0  0  0  0
  -24.3568  -36.8887   22.2066 H   0  0  0  0  0  0
  -23.7246  -37.6388   23.6723 H   0  0  0  0  0  0
  -26.2259  -31.3697   20.6219 H   0  0  0  0  0  0
  -26.9058  -30.6856   22.0571 H   0  0  0  0  0  0
  -28.1411  -28.5895   21.2948 H   0  0  0  0  0  0
  -25.8861  -25.7374   18.9873 H   0  0  0  0  0  0
  -24.0098  -27.2689   18.9394 H   0  0  0  0  0  0
  -23.8724  -30.5167   19.3864 H   0  0  0  0  0  0
  -22.8275  -29.2024   19.8281 H   0  0  0  0  0  0
  -25.1336  -36.1760   25.0787 H   0  0  0  0  0  0
  -21.0029  -28.3358   24.1311 H   0  0  0  0  0  0
  -20.5675  -26.2369   23.3642 H   0  0  0  0  0  0
  -21.6660  -26.7409   22.1208 H   0  0  0  0  0  0
  -19.6932  -25.6271   21.1276 H   0  0  0  0  0  0
  -19.6710  -27.3155   20.6719 H   0  0  0  0  0  0
  -17.4223  -26.6677   21.4026 H   0  0  0  0  0  0
  -18.0352  -26.0090   22.9027 H   0  0  0  0  0  0
  -19.7967  -30.7319   24.2194 H   0  0  0  0  0  0
  -17.5036  -31.6270   24.5165 H   0  0  0  0  0  0
  -15.5374  -30.2970   23.7693 H   0  0  0  0  0  0
  -15.8701  -28.0805   22.7105 H   0  0  0  0  0  0
  -24.5872  -30.7135   25.7661 H   0  0  0  0  0  0
  -24.8868  -32.2995   26.4663 H   0  0  0  0  0  0
  -25.7910  -30.9027   27.0211 H   0  0  0  0  0  0
  -26.3128  -29.6569   24.1432 H   0  0  0  0  0  0
  -27.3972  -29.7275   25.5101 H   0  0  0  0  0  0
  -27.9077  -30.4080   23.9868 H   0  0  0  0  0  0
  -27.2601  -33.3689   26.1964 H   0  0  0  0  0  0
  -28.3919  -32.6854   25.0385 H   0  0  0  0  0  0
  -28.0642  -31.8561   26.5525 H   0  0  0  0  0  0
  -28.2569  -38.0072   24.7507 H   0  0  0  0  0  0
  -28.1079  -36.2598   24.6303 H   0  0  0  0  0  0
  -27.2283  -37.1417   25.8867 H   0  0  0  0  0  0
  -20.9587  -29.8727   21.6659 H   0  0  0  0  0  0
  -26.0127  -38.2761   24.1407 H   0  0  0  0  0  0
  -28.2640  -20.9291   19.0239 H   0  0  0  0  0  0
  -27.3404  -20.7517   20.4774 H   0  0  0  0  0  0
  -30.8772  -22.9210   20.8718 H   0  0  0  0  0  0
  -30.4774  -22.4679   19.2388 H   0  0  0  0  0  0
  -28.5895  -22.6616   21.5895 H   0  0  0  0  0  0
  -29.2475  -19.6862   21.6944 H   0  0  0  0  0  0
  -26.9632  -24.0664   20.1488 H   0  0  0  0  0  0
  -28.1092  -24.1787   18.8796 H   0  0  0  0  0  0
  -31.0496  -18.1771   20.2140 H   0  0  0  0  0  0
  -29.8545  -18.1705   18.9958 H   0  0  0  0  0  0
  -28.7176  -16.3743   20.6962 H   0  0  0  0  0  0
  -31.0771  -20.7449   21.4346 H   0  0  0  0  0  0
  -31.2301  -20.5012   19.8480 H   0  0  0  0  0  0
  1 25  1  0  0  0
  1 30  2  0  0  0
  1 77  1  0  0  0
  2  3  1  0  0  0
  2 25  1  0  0  0
  2 79  1  0  0  0
  2 80  1  0  0  0
  3  4  1  0  0  0
  3 81  1  0  0  0
  3 82  1  0  0  0
  4  5  1  0  0  0
  4 83  1  0  0  0
  4 84  1  0  0  0
  5  6  1  0  0  0
  5 26  1  0  0  0
  5 85  1  0  0  0
  6 25  1  0  0  0
  6 86  1  0  0  0
  6 87  1  0  0  0
  7  8  2  0  0  0
  7 26  1  0  0  0
  7 29  1  0  0  0
  8  9  1  0  0  0
  8 22  1  0  0  0
  9 10  1  0  0  0
  9 27  2  0  0  0
 10 11  2  0  0  0
 10 15  1  0  0  0
 11 12  1  0  0  0
 11 88  1  0  0  0
 12 13  2  0  0  0
 12 89  1  0  0  0
 13 14  1  0  0  0
 13 31  1  0  0  0
 14 15  2  0  0  0
 14 90  1  0  0  0
 15 91  1  0  0  0
 16 17  2  0  0  0
 16 21  1  0  0  0
 16 31  1  0  0  0
 17 18  1  0  0  0
 17 92  1  0  0  0
 18 19  2  0  0  0
 18 93  1  0  0  0
 19 20  1  0  0  0
 19 24  1  0  0  0
 20 21  2  0  0  0
 20 94  1  0  0  0
 21 23  1  0  0  0
 22 28  1  0  0  0
 22 32  2  0  0  0
 26 27  1  0  0  0
 28 95  1  0  0  0
 28 96  1  0  0  0
 29 97  1  0  0  0
 29 98  1  0  0  0
 33 34  1  0  0  0
 33 66  1  0  0  0
 33 70  2  0  0  0
 34 36  1  0  0  0
 34 59  1  0  0  0
 34 99  1  0  0  0
 35 44  2  0  0  0
 35 45  1  0  0  0
 35 68  1  0  0  0
 36 56  1  0  0  0
 36100  1  0  0  0
 37 39  1  0  0  0
 37 47  1  0  0  0
 37 66  1  0  0  0
 37101  1  0  0  0
 38 43  2  0  0  0
 38 46  1  0  0  0
 38 47  1  0  0  0
 39 64  1  0  0  0
 39 67  2  0  0  0
 40 52  1  0  0  0
 40 53  2  0  0  0
 40 58  1  0  0  0
 41102  1  0  0  0
 41103  1  0  0  0
 41104  1  0  0  0
 41 48  1  0  0  0
 42 43  1  0  0  0
 42 66  1  0  0  0
 42105  1  0  0  0
 42106  1  0  0  0
 43 44  1  0  0  0
 44107  1  0  0  0
 45 46  2  0  0  0
 45108  1  0  0  0
 46109  1  0  0  0
 47110  1  0  0  0
 47111  1  0  0  0
 48 56  1  0  0  0
 48 65  1  0  0  0
 48112  1  0  0  0
 49 50  1  0  0  0
 49 53  1  0  0  0
 49 64  1  0  0  0
 49113  1  0  0  0
 50 51  1  0  0  0
 50114  1  0  0  0
 50115  1  0  0  0
 51 52  1  0  0  0
 51116  1  0  0  0
 51117  1  0  0  0
 52118  1  0  0  0
 52119  1  0  0  0
 53 54  1  0  0  0
 54 55  2  0  0  0
 54120  1  0  0  0
 55 57  1  0  0  0
 55121  1  0  0  0
 56 69  2  0  0  0
 57 58  2  0  0  0
 57122  1  0  0  0
 58123  1  0  0  0
 59 60  1  0  0  0
 59 61  1  0  0  0
 59 62  1  0  0  0
 60124  1  0  0  0
 60125  1  0  0  0
 60126  1  0  0  0
 61127  1  0  0  0
 61128  1  0  0  0
 61129  1  0  0  0
 62130  1  0  0  0
 62131  1  0  0  0
 62132  1  0  0  0
 63 65  1  0  0  0
 63133  1  0  0  0
 63134  1  0  0  0
 63135  1  0  0  0
 64136  1  0  0  0
 65137  1  0  0  0
 68 75  1  0  0  0
 71 73  1  0  0  0
 71 74  1  0  0  0
 71138  1  0  0  0
 71139  1  0  0  0
 72 73  1  0  0  0
 72 78  1  0  0  0
 72140  1  0  0  0
 72141  1  0  0  0
 73 75  1  0  0  0
 73142  1  0  0  0
 74 76  1  0  0  0
 74 78  1  0  0  0
 74143  1  0  0  0
 75144  1  0  0  0
 75145  1  0  0  0
 76 77  1  0  0  0
 76146  1  0  0  0
 76147  1  0  0  0
 77148  1  0  0  0
 78149  1  0  0  0
 78150  1  0  0  0
M  CHG  1  78   1
M  ISO  4   1 100  68 101  75 101  77 100
M  END
> <chiral flag>
0

> <version>
0

> <s_m_source_file>
/data/baiqing/PycharmProjects/Reinvent-master-3.2/result/LINK_invent/BTK/process_docking_weight1_custom_sum_contain_oxygen_bond_distance_aromatic_linkinvent_7_9_3/rearranged_h_0134.sdf

> <i_m_source_file_index>
80

> <r_mmod_Potential_Energy-OPLS-2005>
1163.70324707031

> <r_mmod_Stretch_Energy-OPLS-2005>
585.978759765625

> <r_mmod_Bend_Energy-OPLS-2005>
526.911926269531

> <r_mmod_Torsional_Energy-OPLS-2005>
285.66552734375

> <r_mmod_Improper_Torsional_Energy-OPLS-2005>
4.43249320983887

> <r_mmod_Van_der_Waal_Energy-OPLS-2005>
108.934410095215

> <r_mmod_Electrostatic_Energy-OPLS-2005>
-309.254913330078

> <r_mmod_Solvation_Energy-OPLS-2005>
-497.831176757812

> <b_mmod_Minimization_Converged-OPLS-2005>
0

> <r_mmod_RMS_Derivative-OPLS-2005>
0.552694082260132

$$$$
80
                    3D
 Structure written by MMmdl.
155163  0  0  1  0            999 V2000
  -30.6043  -14.7408   20.4714 C   0  0  0  0  0  0
  -30.4376  -12.4540   19.4695 C   0  0  0  0  0  0
  -29.5144  -12.5057   18.2312 C   0  0  0  0  0  0
  -28.0391  -12.3266   18.6464 C   0  0  0  0  0  0
  -27.6436  -13.2282   19.8474 C   0  0  2  0  0  0
  -28.6879  -13.1571   20.9827 C   0  0  0  0  0  0
  -25.2531  -13.8178   20.5723 C   0  0  0  0  0  0
  -24.1797  -13.0425   20.9216 C   0  0  0  0  0  0
  -24.6388  -11.6904   20.8743 C   0  0  0  0  0  0
  -23.9059  -10.4280   21.0393 C   0  0  0  0  0  0
  -24.3615   -9.4208   21.9183 C   0  0  0  0  0  0
  -23.6293   -8.2253   22.0759 C   0  0  0  0  0  0
  -22.4278   -8.0284   21.3559 C   0  0  0  0  0  0
  -21.9911   -9.0246   20.4660 C   0  0  0  0  0  0
  -22.7224  -10.2132   20.3049 C   0  0  0  0  0  0
  -21.6846   -6.0729   22.5282 C   0  0  0  0  0  0
  -21.4003   -6.5631   23.8218 C   0  0  0  0  0  0
  -21.3662   -5.6787   24.9181 C   0  0  0  0  0  0
  -21.6053   -4.3052   24.7231 C   0  0  0  0  0  0
  -21.8813   -3.8139   23.4347 C   0  0  0  0  0  0
  -21.9191   -4.6958   22.3407 C   0  0  0  0  0  0
  -22.7826  -13.5231   21.1878 C   0  0  0  0  0  0
  -22.1666   -4.2145   21.0984 F   0  0  0  0  0  0
  -21.5638   -3.4532   25.7744 F   0  0  0  0  0  0
  -29.9870  -13.5136   20.3994 N   0  0  0  0  0  0
  -26.2953  -12.9392   20.3273 N   0  0  0  0  0  0
  -25.9327  -11.6539   20.5752 N   0  0  0  0  0  0
  -22.0459  -12.8222   22.0423 N   0  0  0  0  0  0
  -25.4211  -15.1897   20.4147 N   0  0  0  0  0  0
  -31.7966  -14.8530   20.1750 O   0  0  0  0  0  0
  -21.6644   -6.8879   21.4255 O   0  0  0  0  0  0
  -22.3527  -14.5535   20.6718 O   0  0  0  0  0  0
  -24.6316  -31.8553   23.1973 C   0  0  0  0  0  0
  -25.9144  -32.4747   23.8323 C   0  0  1  0  0  0
  -27.2179  -27.2703   20.1375 C   0  0  0  0  0  0
  -25.5945  -33.8548   24.2268 N   0  0  0  0  0  0
  -23.4281  -30.4772   21.5402 C   0  0  2  0  0  0
  -24.8733  -28.9165   20.1186 C   0  0  0  0  0  0
  -22.7495  -29.4617   22.4911 C   0  0  0  0  0  0
  -18.0302  -28.1403   22.8490 C   0  0  0  0  0  0
  -24.1483  -36.7287   23.2643 C   0  0  0  0  0  0
  -25.9717  -30.7715   21.3745 C   0  0  0  0  0  0
  -26.0454  -29.3920   20.7229 C   0  0  0  0  0  0
  -27.2257  -28.5832   20.7160 C   0  0  0  0  0  0
  -26.0255  -26.8498   19.5190 C   0  0  0  0  0  0
  -24.8664  -27.6519   19.5070 C   0  0  0  0  0  0
  -23.6459  -29.8063   20.1585 C   0  0  0  0  0  0
  -25.4107  -36.3072   24.0338 C   0  0  1  0  0  0
  -20.5904  -28.3719   23.1270 C   0  0  2  0  0  0
  -20.6789  -26.9431   22.5415 C   0  0  0  0  0  0
  -19.5759  -26.6399   21.5224 C   0  0  0  0  0  0
  -18.1943  -26.7942   22.1634 C   0  0  0  0  0  0
  -19.1552  -28.8877   23.2875 C   0  0  0  0  0  0
  -18.9470  -30.1488   23.8871 C   0  0  0  0  0  0
  -17.6465  -30.6591   24.0568 C   0  0  0  0  0  0
  -25.9049  -34.9438   23.5105 C   0  0  0  0  0  0
  -16.5358  -29.9091   23.6336 C   0  0  0  0  0  0
  -16.7292  -28.6522   23.0339 C   0  0  0  0  0  0
  -26.4509  -31.6563   25.0702 C   0  0  0  0  0  0
  -25.3737  -31.3727   26.1432 C   0  0  0  0  0  0
  -27.0376  -30.2979   24.6198 C   0  0  0  0  0  0
  -27.6058  -32.4310   25.7487 C   0  0  0  0  0  0
  -27.5580  -37.1800   24.8464 C   0  0  0  0  0  0
  -21.4208  -29.3053   22.3648 N   0  0  0  0  0  0
  -26.4284  -37.3770   23.9419 N   0  0  0  0  0  0
  -24.6967  -31.0531   22.0938 N   0  0  0  0  0  0
  -23.4184  -28.8180   23.3035 O   0  0  0  0  0  0
  -28.3167  -26.3898   20.1189 O   0  0  0  0  0  0
  -26.5610  -34.8927   22.4660 O   0  0  0  0  0  0
  -23.5467  -32.1355   23.7283 O   0  0  0  0  0  0
  -28.0701  -22.3128   18.0743 C   0  0  0  0  0  0
  -28.0175  -23.5551   18.7428 C   0  0  0  0  0  0
  -28.5083  -21.1378   18.7245 C   0  0  0  0  0  0
  -28.3995  -23.6704   20.0947 C   0  0  0  0  0  0
  -28.8500  -22.4419   20.7504 C   0  0  0  0  0  0
  -28.9253  -21.1472   20.0744 C   0  0  0  0  0  0
  -29.2659  -22.5281   22.2117 C   0  0  0  0  0  0
  -28.2010  -25.0763   20.8266 C   0  0  0  0  0  0
  -29.2338  -18.4944   20.1947 C   0  0  0  0  0  0
  -30.1792  -17.3337   20.8226 C   0  0  0  0  0  0
  -29.4118  -19.9214   20.6881 N   0  0  0  0  0  0
  -29.8086  -15.8563   20.6857 N   0  0  0  0  0  0
  -31.4819  -12.5728   19.1731 H   0  0  0  0  0  0
  -30.3829  -11.4781   19.9540 H   0  0  0  0  0  0
  -29.8011  -11.7272   17.5233 H   0  0  0  0  0  0
  -29.6363  -13.4557   17.7055 H   0  0  0  0  0  0
  -27.9034  -11.2782   18.9152 H   0  0  0  0  0  0
  -27.3784  -12.5040   17.7968 H   0  0  0  0  0  0
  -27.6386  -14.2507   19.4665 H   0  0  0  0  0  0
  -28.7312  -12.1575   21.4175 H   0  0  0  0  0  0
  -28.4192  -13.8303   21.7999 H   0  0  0  0  0  0
  -25.2760   -9.5694   22.4765 H   0  0  0  0  0  0
  -24.0009   -7.4645   22.7461 H   0  0  0  0  0  0
  -21.0852   -8.8723   19.8970 H   0  0  0  0  0  0
  -22.3650  -10.9664   19.6154 H   0  0  0  0  0  0
  -21.1981   -7.6135   23.9708 H   0  0  0  0  0  0
  -21.1508   -6.0525   25.9087 H   0  0  0  0  0  0
  -22.0596   -2.7602   23.2839 H   0  0  0  0  0  0
  -22.4069  -11.9895   22.4839 H   0  0  0  0  0  0
  -21.1077  -13.1269   22.2618 H   0  0  0  0  0  0
  -24.6448  -15.8339   20.5151 H   0  0  0  0  0  0
  -26.2556  -15.6315   20.0510 H   0  0  0  0  0  0
  -26.7220  -32.5392   23.1080 H   0  0  0  0  0  0
  -25.0116  -33.9686   25.0435 H   0  0  0  0  0  0
  -22.7245  -31.2982   21.3899 H   0  0  0  0  0  0
  -23.3747  -35.9614   23.3287 H   0  0  0  0  0  0
  -24.3585  -36.8909   22.2060 H   0  0  0  0  0  0
  -23.7228  -37.6487   23.6660 H   0  0  0  0  0  0
  -26.1064  -31.5289   20.6016 H   0  0  0  0  0  0
  -26.8512  -30.8222   22.0051 H   0  0  0  0  0  0
  -28.1283  -28.9437   21.1897 H   0  0  0  0  0  0
  -25.9827  -25.8749   19.0551 H   0  0  0  0  0  0
  -23.9678  -27.2790   19.0368 H   0  0  0  0  0  0
  -23.7816  -30.5785   19.4002 H   0  0  0  0  0  0
  -22.7611  -29.2440   19.8507 H   0  0  0  0  0  0
  -25.1284  -36.1926   25.0832 H   0  0  0  0  0  0
  -21.0018  -28.3306   24.1382 H   0  0  0  0  0  0
  -20.5710  -26.2323   23.3624 H   0  0  0  0  0  0
  -21.6654  -26.7454   22.1193 H   0  0  0  0  0  0
  -19.6916  -25.6312   21.1249 H   0  0  0  0  0  0
  -19.6690  -27.3214   20.6758 H   0  0  0  0  0  0
  -17.4212  -26.6706   21.4034 H   0  0  0  0  0  0
  -18.0329  -26.0086   22.9030 H   0  0  0  0  0  0
  -19.7946  -30.7341   24.2181 H   0  0  0  0  0  0
  -17.5012  -31.6261   24.5185 H   0  0  0  0  0  0
  -15.5355  -30.2980   23.7668 H   0  0  0  0  0  0
  -15.8703  -28.0853   22.7020 H   0  0  0  0  0  0
  -24.5925  -30.7045   25.7787 H   0  0  0  0  0  0
  -24.8910  -32.2897   26.4817 H   0  0  0  0  0  0
  -25.8061  -30.8950   27.0232 H   0  0  0  0  0  0
  -26.2970  -29.6698   24.1226 H   0  0  0  0  0  0
  -27.4064  -29.7266   25.4732 H   0  0  0  0  0  0
  -27.8837  -30.4252   23.9442 H   0  0  0  0  0  0
  -27.2656  -33.3622   26.2041 H   0  0  0  0  0  0
  -28.3890  -32.6850   25.0326 H   0  0  0  0  0  0
  -28.0704  -31.8438   26.5426 H   0  0  0  0  0  0
  -28.2590  -38.0111   24.7528 H   0  0  0  0  0  0
  -28.1092  -36.2639   24.6262 H   0  0  0  0  0  0
  -27.2308  -37.1415   25.8874 H   0  0  0  0  0  0
  -20.9396  -29.8759   21.6838 H   0  0  0  0  0  0
  -26.0164  -38.2844   24.1423 H   0  0  0  0  0  0
  -27.7618  -22.2477   17.0391 H   0  0  0  0  0  0
  -27.6627  -24.4290   18.2137 H   0  0  0  0  0  0
  -28.5260  -20.2258   18.1480 H   0  0  0  0  0  0
  -28.5488  -23.1155   22.7849 H   0  0  0  0  0  0
  -29.3280  -21.5540   22.6956 H   0  0  0  0  0  0
  -30.2435  -23.0059   22.2889 H   0  0  0  0  0  0
  -27.2398  -25.0339   21.3417 H   0  0  0  0  0  0
  -28.9442  -25.1287   21.6223 H   0  0  0  0  0  0
  -28.1895  -18.2346   20.3784 H   0  0  0  0  0  0
  -29.3529  -18.4697   19.1124 H   0  0  0  0  0  0
  -31.1922  -17.4712   20.4434 H   0  0  0  0  0  0
  -30.2560  -17.5066   21.8971 H   0  0  0  0  0  0
  -29.7160  -20.0077   21.6531 H   0  0  0  0  0  0
  -28.8374  -15.6402   20.8511 H   0  0  0  0  0  0
  1 25  1  0  0  0
  1 30  2  0  0  0
  1 82  1  0  0  0
  2  3  1  0  0  0
  2 25  1  0  0  0
  2 83  1  0  0  0
  2 84  1  0  0  0
  3  4  1  0  0  0
  3 85  1  0  0  0
  3 86  1  0  0  0
  4  5  1  0  0  0
  4 87  1  0  0  0
  4 88  1  0  0  0
  5  6  1  0  0  0
  5 26  1  0  0  0
  5 89  1  0  0  0
  6 25  1  0  0  0
  6 90  1  0  0  0
  6 91  1  0  0  0
  7  8  2  0  0  0
  7 26  1  0  0  0
  7 29  1  0  0  0
  8  9  1  0  0  0
  8 22  1  0  0  0
  9 10  1  0  0  0
  9 27  2  0  0  0
 10 11  2  0  0  0
 10 15  1  0  0  0
 11 12  1  0  0  0
 11 92  1  0  0  0
 12 13  2  0  0  0
 12 93  1  0  0  0
 13 14  1  0  0  0
 13 31  1  0  0  0
 14 15  2  0  0  0
 14 94  1  0  0  0
 15 95  1  0  0  0
 16 17  2  0  0  0
 16 21  1  0  0  0
 16 31  1  0  0  0
 17 18  1  0  0  0
 17 96  1  0  0  0
 18 19  2  0  0  0
 18 97  1  0  0  0
 19 20  1  0  0  0
 19 24  1  0  0  0
 20 21  2  0  0  0
 20 98  1  0  0  0
 21 23  1  0  0  0
 22 28  1  0  0  0
 22 32  2  0  0  0
 26 27  1  0  0  0
 28 99  1  0  0  0
 28100  1  0  0  0
 29101  1  0  0  0
 29102  1  0  0  0
 33 34  1  0  0  0
 33 66  1  0  0  0
 33 70  2  0  0  0
 34 36  1  0  0  0
 34 59  1  0  0  0
 34103  1  0  0  0
 35 44  2  0  0  0
 35 45  1  0  0  0
 35 68  1  0  0  0
 36 56  1  0  0  0
 36104  1  0  0  0
 37 39  1  0  0  0
 37 47  1  0  0  0
 37 66  1  0  0  0
 37105  1  0  0  0
 38 43  2  0  0  0
 38 46  1  0  0  0
 38 47  1  0  0  0
 39 64  1  0  0  0
 39 67  2  0  0  0
 40 52  1  0  0  0
 40 53  2  0  0  0
 40 58  1  0  0  0
 41106  1  0  0  0
 41107  1  0  0  0
 41108  1  0  0  0
 41 48  1  0  0  0
 42 43  1  0  0  0
 42 66  1  0  0  0
 42109  1  0  0  0
 42110  1  0  0  0
 43 44  1  0  0  0
 44111  1  0  0  0
 45 46  2  0  0  0
 45112  1  0  0  0
 46113  1  0  0  0
 47114  1  0  0  0
 47115  1  0  0  0
 48 56  1  0  0  0
 48 65  1  0  0  0
 48116  1  0  0  0
 49 50  1  0  0  0
 49 53  1  0  0  0
 49 64  1  0  0  0
 49117  1  0  0  0
 50 51  1  0  0  0
 50118  1  0  0  0
 50119  1  0  0  0
 51 52  1  0  0  0
 51120  1  0  0  0
 51121  1  0  0  0
 52122  1  0  0  0
 52123  1  0  0  0
 53 54  1  0  0  0
 54 55  2  0  0  0
 54124  1  0  0  0
 55 57  1  0  0  0
 55125  1  0  0  0
 56 69  2  0  0  0
 57 58  2  0  0  0
 57126  1  0  0  0
 58127  1  0  0  0
 59 60  1  0  0  0
 59 61  1  0  0  0
 59 62  1  0  0  0
 60128  1  0  0  0
 60129  1  0  0  0
 60130  1  0  0  0
 61131  1  0  0  0
 61132  1  0  0  0
 61133  1  0  0  0
 62134  1  0  0  0
 62135  1  0  0  0
 62136  1  0  0  0
 63 65  1  0  0  0
 63137  1  0  0  0
 63138  1  0  0  0
 63139  1  0  0  0
 64140  1  0  0  0
 65141  1  0  0  0
 68 78  1  0  0  0
 71 72  2  0  0  0
 71 73  1  0  0  0
 71142  1  0  0  0
 72 74  1  0  0  0
 72143  1  0  0  0
 73 76  2  0  0  0
 73144  1  0  0  0
 74 75  2  0  0  0
 74 78  1  0  0  0
 75 76  1  0  0  0
 75 77  1  0  0  0
 76 81  1  0  0  0
 77145  1  0  0  0
 77146  1  0  0  0
 77147  1  0  0  0
 78148  1  0  0  0
 78149  1  0  0  0
 79 80  1  0  0  0
 79 81  1  0  0  0
 79150  1  0  0  0
 79151  1  0  0  0
 80 82  1  0  0  0
 80152  1  0  0  0
 80153  1  0  0  0
 81154  1  0  0  0
 82155  1  0  0  0
M  ISO  4   1 100  68 101  78 101  82 100
M  END
> <chiral flag>
0

> <version>
0

> <s_m_source_file>
/data/baiqing/PycharmProjects/Reinvent-master-3.2/result/LINK_invent/BTK/process_docking_weight1_custom_sum_contain_oxygen_bond_distance_aromatic_linkinvent_7_9_3/rearranged_h_0134.sdf

> <i_m_source_file_index>
81

> <r_mmod_Potential_Energy-OPLS-2005>
71.7061233520508

> <r_mmod_Stretch_Energy-OPLS-2005>
118.114250183105

> <r_mmod_Bend_Energy-OPLS-2005>
162.693801879883

> <r_mmod_Torsional_Energy-OPLS-2005>
224.673034667969

> <r_mmod_Improper_Torsional_Energy-OPLS-2005>
5.21346616744995

> <r_mmod_Van_der_Waal_Energy-OPLS-2005>
135.643203735352

> <r_mmod_Electrostatic_Energy-OPLS-2005>
-434.827392578125

> <r_mmod_Solvation_Energy-OPLS-2005>
-220.95654296875

> <b_mmod_Minimization_Converged-OPLS-2005>
0

> <r_mmod_RMS_Derivative-OPLS-2005>
2.77224016189575

$$$$
81
                    3D
 Structure written by MMmdl.
154163  0  0  1  0            999 V2000
  -30.5678  -14.8990   20.4309 C   0  0  0  0  0  0
  -30.4435  -12.5583   19.4839 C   0  0  0  0  0  0
  -29.5216  -12.5200   18.2450 C   0  0  0  0  0  0
  -28.0535  -12.3136   18.6659 C   0  0  0  0  0  0
  -27.6346  -13.2421   19.8365 C   0  0  2  0  0  0
  -28.6805  -13.2519   20.9708 C   0  0  0  0  0  0
  -25.2495  -13.8203   20.5691 C   0  0  0  0  0  0
  -24.1804  -13.0436   20.9217 C   0  0  0  0  0  0
  -24.6412  -11.6919   20.8749 C   0  0  0  0  0  0
  -23.9090  -10.4289   21.0402 C   0  0  0  0  0  0
  -24.3636   -9.4203   21.9183 C   0  0  0  0  0  0
  -23.6303   -8.2245   22.0756 C   0  0  0  0  0  0
  -22.4285   -8.0280   21.3543 C   0  0  0  0  0  0
  -21.9925   -9.0256   20.4648 C   0  0  0  0  0  0
  -22.7261  -10.2131   20.3052 C   0  0  0  0  0  0
  -21.6855   -6.0739   22.5279 C   0  0  0  0  0  0
  -21.4015   -6.5643   23.8214 C   0  0  0  0  0  0
  -21.3658   -5.6792   24.9173 C   0  0  0  0  0  0
  -21.6040   -4.3060   24.7225 C   0  0  0  0  0  0
  -21.8819   -3.8150   23.4348 C   0  0  0  0  0  0
  -21.9197   -4.6968   22.3404 C   0  0  0  0  0  0
  -22.7823  -13.5212   21.1871 C   0  0  0  0  0  0
  -22.1664   -4.2150   21.0981 F   0  0  0  0  0  0
  -21.5628   -3.4542   25.7738 F   0  0  0  0  0  0
  -29.9592  -13.6514   20.3695 N   0  0  0  0  0  0
  -26.2916  -12.9424   20.3230 N   0  0  0  0  0  0
  -25.9338  -11.6562   20.5727 N   0  0  0  0  0  0
  -22.0472  -12.8192   22.0421 N   0  0  0  0  0  0
  -25.4159  -15.1928   20.4103 N   0  0  0  0  0  0
  -31.7761  -14.9638   20.1874 O   0  0  0  0  0  0
  -21.6647   -6.8881   21.4238 O   0  0  0  0  0  0
  -22.3502  -14.5516   20.6715 O   0  0  0  0  0  0
  -24.6451  -31.8473   23.1923 C   0  0  0  0  0  0
  -25.9229  -32.4715   23.8291 C   0  0  1  0  0  0
  -27.2063  -27.1434   20.1313 C   0  0  0  0  0  0
  -25.5986  -33.8520   24.2211 N   0  0  0  0  0  0
  -23.4457  -30.4725   21.5393 C   0  0  2  0  0  0
  -24.8918  -28.9120   20.1090 C   0  0  0  0  0  0
  -22.7571  -29.4576   22.4867 C   0  0  0  0  0  0
  -18.0301  -28.1406   22.8481 C   0  0  0  0  0  0
  -24.1485  -36.7243   23.2638 C   0  0  0  0  0  0
  -26.0054  -30.7226   21.3911 C   0  0  0  0  0  0
  -26.0736  -29.3371   20.7287 C   0  0  0  0  0  0
  -27.2318  -28.4688   20.7282 C   0  0  0  0  0  0
  -25.9931  -26.8354   19.4658 C   0  0  0  0  0  0
  -24.8646  -27.6730   19.4636 C   0  0  0  0  0  0
  -23.6701  -29.8131   20.1552 C   0  0  0  0  0  0
  -25.4112  -36.3036   24.0324 C   0  0  1  0  0  0
  -20.5924  -28.3729   23.1237 C   0  0  2  0  0  0
  -20.6794  -26.9434   22.5400 C   0  0  0  0  0  0
  -19.5763  -26.6388   21.5218 C   0  0  0  0  0  0
  -18.1941  -26.7946   22.1621 C   0  0  0  0  0  0
  -19.1563  -28.8885   23.2853 C   0  0  0  0  0  0
  -18.9485  -30.1481   23.8879 C   0  0  0  0  0  0
  -17.6479  -30.6606   24.0567 C   0  0  0  0  0  0
  -25.9072  -34.9419   23.5062 C   0  0  0  0  0  0
  -16.5368  -29.9103   23.6349 C   0  0  0  0  0  0
  -16.7285  -28.6519   23.0364 C   0  0  0  0  0  0
  -26.4536  -31.6579   25.0728 C   0  0  0  0  0  0
  -25.3720  -31.3779   26.1424 C   0  0  0  0  0  0
  -27.0398  -30.2977   24.6293 C   0  0  0  0  0  0
  -27.6065  -32.4345   25.7510 C   0  0  0  0  0  0
  -27.5572  -37.1773   24.8464 C   0  0  0  0  0  0
  -21.4264  -29.3064   22.3620 N   0  0  0  0  0  0
  -26.4267  -37.3761   23.9431 N   0  0  0  0  0  0
  -24.7188  -31.0344   22.0955 N   0  0  0  0  0  0
  -23.4222  -28.8101   23.2993 O   0  0  0  0  0  0
  -28.2310  -26.1225   20.2008 O   0  0  0  0  0  0
  -26.5643  -34.8924   22.4635 O   0  0  0  0  0  0
  -23.5572  -32.1337   23.7151 O   0  0  0  0  0  0
  -29.1659  -22.5757   21.1933 C   0  0  0  0  0  0
  -29.5312  -21.1612   21.2655 C   0  0  0  0  0  0
  -28.3681  -22.2298   18.9981 C   0  0  0  0  0  0
  -28.5198  -19.7620   18.0866 C   0  0  0  0  0  0
  -28.6911  -20.8149   19.0388 C   0  0  0  0  0  0
  -28.5586  -23.1951   20.0461 C   0  0  0  0  0  0
  -29.2886  -20.2198   20.2045 C   0  0  0  0  0  0
  -28.9974  -18.5877   18.6199 C   0  0  0  0  0  0
  -29.0343  -17.2788   17.8962 C   0  0  0  0  0  0
  -27.8008  -24.6583   19.9269 C   0  0  0  0  0  0
  -30.1643  -17.5972   20.7205 C   0  0  0  0  0  0
  -29.4758  -18.7698   19.9286 N   0  0  0  0  0  0
  -29.7920  -16.0746   20.5633 N   0  0  0  0  0  0
  -31.4775  -12.7118   19.1719 H   0  0  0  0  0  0
  -30.4289  -11.6027   20.0096 H   0  0  0  0  0  0
  -29.8332  -11.7241   17.5672 H   0  0  0  0  0  0
  -29.6160  -13.4529   17.6867 H   0  0  0  0  0  0
  -27.9440  -11.2720   18.9697 H   0  0  0  0  0  0
  -27.3901  -12.4525   17.8116 H   0  0  0  0  0  0
  -27.6043  -14.2474   19.4157 H   0  0  0  0  0  0
  -28.7582  -12.2711   21.4417 H   0  0  0  0  0  0
  -28.3904  -13.9512   21.7565 H   0  0  0  0  0  0
  -25.2782   -9.5680   22.4757 H   0  0  0  0  0  0
  -24.0013   -7.4632   22.7472 H   0  0  0  0  0  0
  -21.0861   -8.8777   19.8941 H   0  0  0  0  0  0
  -22.3727  -10.9672   19.6158 H   0  0  0  0  0  0
  -21.2001   -7.6150   23.9718 H   0  0  0  0  0  0
  -21.1476   -6.0524   25.9078 H   0  0  0  0  0  0
  -22.0597   -2.7611   23.2851 H   0  0  0  0  0  0
  -22.4109  -11.9866   22.4814 H   0  0  0  0  0  0
  -21.1072  -13.1176   22.2597 H   0  0  0  0  0  0
  -24.6420  -15.8399   20.5148 H   0  0  0  0  0  0
  -26.2532  -15.6350   20.0559 H   0  0  0  0  0  0
  -26.7297  -32.5317   23.1019 H   0  0  0  0  0  0
  -25.0162  -33.9639   25.0378 H   0  0  0  0  0  0
  -22.7480  -31.2997   21.3907 H   0  0  0  0  0  0
  -23.3772  -35.9550   23.3271 H   0  0  0  0  0  0
  -24.3567  -36.8895   22.2057 H   0  0  0  0  0  0
  -23.7210  -37.6421   23.6682 H   0  0  0  0  0  0
  -26.1619  -31.4783   20.6198 H   0  0  0  0  0  0
  -26.8772  -30.7687   22.0319 H   0  0  0  0  0  0
  -28.1272  -28.7877   21.2435 H   0  0  0  0  0  0
  -25.8464  -25.9019   18.9486 H   0  0  0  0  0  0
  -23.9639  -27.3423   18.9643 H   0  0  0  0  0  0
  -23.8075  -30.5932   19.4058 H   0  0  0  0  0  0
  -22.7840  -29.2591   19.8395 H   0  0  0  0  0  0
  -25.1294  -36.1849   25.0816 H   0  0  0  0  0  0
  -21.0005  -28.3310   24.1362 H   0  0  0  0  0  0
  -20.5701  -26.2338   23.3613 H   0  0  0  0  0  0
  -21.6654  -26.7454   22.1187 H   0  0  0  0  0  0
  -19.6923  -25.6296   21.1253 H   0  0  0  0  0  0
  -19.6701  -27.3198   20.6750 H   0  0  0  0  0  0
  -17.4209  -26.6709   21.4022 H   0  0  0  0  0  0
  -18.0329  -26.0089   22.9020 H   0  0  0  0  0  0
  -19.7962  -30.7308   24.2227 H   0  0  0  0  0  0
  -17.5041  -31.6284   24.5175 H   0  0  0  0  0  0
  -15.5375  -30.3006   23.7693 H   0  0  0  0  0  0
  -15.8680  -28.0842   22.7096 H   0  0  0  0  0  0
  -24.5925  -30.7086   25.7766 H   0  0  0  0  0  0
  -24.8881  -32.2969   26.4752 H   0  0  0  0  0  0
  -25.8013  -30.9038   27.0261 H   0  0  0  0  0  0
  -26.3018  -29.6706   24.1278 H   0  0  0  0  0  0
  -27.4004  -29.7263   25.4855 H   0  0  0  0  0  0
  -27.8932  -30.4224   23.9623 H   0  0  0  0  0  0
  -27.2671  -33.3708   26.1958 H   0  0  0  0  0  0
  -28.3950  -32.6799   25.0383 H   0  0  0  0  0  0
  -28.0640  -31.8542   26.5530 H   0  0  0  0  0  0
  -28.2559  -38.0100   24.7557 H   0  0  0  0  0  0
  -28.1096  -36.2634   24.6222 H   0  0  0  0  0  0
  -27.2299  -37.1339   25.8868 H   0  0  0  0  0  0
  -20.9466  -29.8792   21.6821 H   0  0  0  0  0  0
  -26.0122  -38.2817   24.1482 H   0  0  0  0  0  0
  -29.3169  -23.1866   22.0744 H   0  0  0  0  0  0
  -29.9723  -20.7872   22.1791 H   0  0  0  0  0  0
  -27.8778  -22.5686   18.0957 H   0  0  0  0  0  0
  -28.0974  -19.8880   17.0995 H   0  0  0  0  0  0
  -28.7204  -17.3981   16.8585 H   0  0  0  0  0  0
  -28.3585  -16.5560   18.3515 H   0  0  0  0  0  0
  -30.0406  -16.8594   17.8854 H   0  0  0  0  0  0
  -26.8782  -24.5048   20.4874 H   0  0  0  0  0  0
  -27.5163  -24.6710   18.8754 H   0  0  0  0  0  0
  -30.0526  -17.8316   21.7793 H   0  0  0  0  0  0
  -31.2342  -17.6832   20.5263 H   0  0  0  0  0  0
  -28.8078  -15.8870   20.6769 H   0  0  0  0  0  0
  1 25  1  0  0  0
  1 30  2  0  0  0
  1 83  1  0  0  0
  2  3  1  0  0  0
  2 25  1  0  0  0
  2 84  1  0  0  0
  2 85  1  0  0  0
  3  4  1  0  0  0
  3 86  1  0  0  0
  3 87  1  0  0  0
  4  5  1  0  0  0
  4 88  1  0  0  0
  4 89  1  0  0  0
  5  6  1  0  0  0
  5 26  1  0  0  0
  5 90  1  0  0  0
  6 25  1  0  0  0
  6 91  1  0  0  0
  6 92  1  0  0  0
  7  8  2  0  0  0
  7 26  1  0  0  0
  7 29  1  0  0  0
  8  9  1  0  0  0
  8 22  1  0  0  0
  9 10  1  0  0  0
  9 27  2  0  0  0
 10 11  2  0  0  0
 10 15  1  0  0  0
 11 12  1  0  0  0
 11 93  1  0  0  0
 12 13  2  0  0  0
 12 94  1  0  0  0
 13 14  1  0  0  0
 13 31  1  0  0  0
 14 15  2  0  0  0
 14 95  1  0  0  0
 15 96  1  0  0  0
 16 17  2  0  0  0
 16 21  1  0  0  0
 16 31  1  0  0  0
 17 18  1  0  0  0
 17 97  1  0  0  0
 18 19  2  0  0  0
 18 98  1  0  0  0
 19 20  1  0  0  0
 19 24  1  0  0  0
 20 21  2  0  0  0
 20 99  1  0  0  0
 21 23  1  0  0  0
 22 28  1  0  0  0
 22 32  2  0  0  0
 26 27  1  0  0  0
 28100  1  0  0  0
 28101  1  0  0  0
 29102  1  0  0  0
 29103  1  0  0  0
 33 34  1  0  0  0
 33 66  1  0  0  0
 33 70  2  0  0  0
 34 36  1  0  0  0
 34 59  1  0  0  0
 34104  1  0  0  0
 35 44  2  0  0  0
 35 45  1  0  0  0
 35 68  1  0  0  0
 36 56  1  0  0  0
 36105  1  0  0  0
 37 39  1  0  0  0
 37 47  1  0  0  0
 37 66  1  0  0  0
 37106  1  0  0  0
 38 43  2  0  0  0
 38 46  1  0  0  0
 38 47  1  0  0  0
 39 64  1  0  0  0
 39 67  2  0  0  0
 40 52  1  0  0  0
 40 53  2  0  0  0
 40 58  1  0  0  0
 41107  1  0  0  0
 41108  1  0  0  0
 41109  1  0  0  0
 41 48  1  0  0  0
 42 43  1  0  0  0
 42 66  1  0  0  0
 42110  1  0  0  0
 42111  1  0  0  0
 43 44  1  0  0  0
 44112  1  0  0  0
 45 46  2  0  0  0
 45113  1  0  0  0
 46114  1  0  0  0
 47115  1  0  0  0
 47116  1  0  0  0
 48 56  1  0  0  0
 48 65  1  0  0  0
 48117  1  0  0  0
 49 50  1  0  0  0
 49 53  1  0  0  0
 49 64  1  0  0  0
 49118  1  0  0  0
 50 51  1  0  0  0
 50119  1  0  0  0
 50120  1  0  0  0
 51 52  1  0  0  0
 51121  1  0  0  0
 51122  1  0  0  0
 52123  1  0  0  0
 52124  1  0  0  0
 53 54  1  0  0  0
 54 55  2  0  0  0
 54125  1  0  0  0
 55 57  1  0  0  0
 55126  1  0  0  0
 56 69  2  0  0  0
 57 58  2  0  0  0
 57127  1  0  0  0
 58128  1  0  0  0
 59 60  1  0  0  0
 59 61  1  0  0  0
 59 62  1  0  0  0
 60129  1  0  0  0
 60130  1  0  0  0
 60131  1  0  0  0
 61132  1  0  0  0
 61133  1  0  0  0
 61134  1  0  0  0
 62135  1  0  0  0
 62136  1  0  0  0
 62137  1  0  0  0
 63 65  1  0  0  0
 63138  1  0  0  0
 63139  1  0  0  0
 63140  1  0  0  0
 64141  1  0  0  0
 65142  1  0  0  0
 68 80  1  0  0  0
 71 72  2  0  0  0
 71 76  1  0  0  0
 71143  1  0  0  0
 72 77  1  0  0  0
 72144  1  0  0  0
 73 75  1  0  0  0
 73 76  2  0  0  0
 73145  1  0  0  0
 74 75  1  0  0  0
 74 78  2  0  0  0
 74146  1  0  0  0
 75 77  2  0  0  0
 76 80  1  0  0  0
 77 82  1  0  0  0
 78 79  1  0  0  0
 78 82  1  0  0  0
 79147  1  0  0  0
 79148  1  0  0  0
 79149  1  0  0  0
 80150  1  0  0  0
 80151  1  0  0  0
 81 82  1  0  0  0
 81 83  1  0  0  0
 81152  1  0  0  0
 81153  1  0  0  0
 83154  1  0  0  0
M  ISO  4   1 100  68 101  80 101  83 100
M  END
> <chiral flag>
0

> <version>
0

> <s_m_source_file>
/data/baiqing/PycharmProjects/Reinvent-master-3.2/result/LINK_invent/BTK/process_docking_weight1_custom_sum_contain_oxygen_bond_distance_aromatic_linkinvent_7_9_3/rearranged_h_0134.sdf

> <i_m_source_file_index>
82

> <r_mmod_Potential_Energy-OPLS-2005>
455.093536376953

> <r_mmod_Stretch_Energy-OPLS-2005>
217.094787597656

> <r_mmod_Bend_Energy-OPLS-2005>
261.665496826172

> <r_mmod_Torsional_Energy-OPLS-2005>
222.605880737305

> <r_mmod_Improper_Torsional_Energy-OPLS-2005>
7.5346999168396

> <r_mmod_Van_der_Waal_Energy-OPLS-2005>
135.096786499023

> <r_mmod_Electrostatic_Energy-OPLS-2005>
-350.040863037109

> <r_mmod_Solvation_Energy-OPLS-2005>
-216.175750732422

> <b_mmod_Minimization_Converged-OPLS-2005>
0

> <r_mmod_RMS_Derivative-OPLS-2005>
1.23277485370636

$$$$
82
                    3D
 Structure written by MMmdl.
160168  0  0  1  0            999 V2000
  -30.7240  -14.4421   20.6153 C   0  0  0  0  0  0
  -30.4187  -12.3082   19.4099 C   0  0  0  0  0  0
  -29.4875  -12.5116   18.1987 C   0  0  0  0  0  0
  -28.0108  -12.3683   18.6152 C   0  0  0  0  0  0
  -27.6607  -13.2056   19.8743 C   0  0  2  0  0  0
  -28.7014  -12.9779   20.9925 C   0  0  0  0  0  0
  -25.2584  -13.8159   20.5676 C   0  0  0  0  0  0
  -24.1834  -13.0439   20.9172 C   0  0  0  0  0  0
  -24.6385  -11.6905   20.8731 C   0  0  0  0  0  0
  -23.9052  -10.4292   21.0403 C   0  0  0  0  0  0
  -24.3608   -9.4209   21.9181 C   0  0  0  0  0  0
  -23.6288   -8.2243   22.0752 C   0  0  0  0  0  0
  -22.4270   -8.0279   21.3543 C   0  0  0  0  0  0
  -21.9901   -9.0251   20.4645 C   0  0  0  0  0  0
  -22.7225  -10.2132   20.3053 C   0  0  0  0  0  0
  -21.6852   -6.0734   22.5278 C   0  0  0  0  0  0
  -21.4014   -6.5638   23.8211 C   0  0  0  0  0  0
  -21.3659   -5.6791   24.9174 C   0  0  0  0  0  0
  -21.6045   -4.3054   24.7224 C   0  0  0  0  0  0
  -21.8820   -3.8146   23.4346 C   0  0  0  0  0  0
  -21.9192   -4.6962   22.3402 C   0  0  0  0  0  0
  -22.7859  -13.5240   21.1842 C   0  0  0  0  0  0
  -22.1662   -4.2147   21.0980 F   0  0  0  0  0  0
  -21.5628   -3.4539   25.7738 F   0  0  0  0  0  0
  -30.0331  -13.2835   20.4416 N   0  0  0  0  0  0
  -26.3016  -12.9326   20.3362 N   0  0  0  0  0  0
  -25.9310  -11.6487   20.5760 N   0  0  0  0  0  0
  -22.0501  -12.8232   22.0400 N   0  0  0  0  0  0
  -25.4322  -15.1876   20.4086 N   0  0  0  0  0  0
  -31.8209  -14.6545   20.0915 O   0  0  0  0  0  0
  -21.6637   -6.8875   21.4240 O   0  0  0  0  0  0
  -22.3548  -14.5551   20.6698 O   0  0  0  0  0  0
  -24.6143  -31.8679   23.2095 C   0  0  0  0  0  0
  -25.9037  -32.4823   23.8394 C   0  0  1  0  0  0
  -27.2328  -27.4373   20.0988 C   0  0  0  0  0  0
  -25.5895  -33.8621   24.2327 N   0  0  0  0  0  0
  -23.4021  -30.4908   21.5500 C   0  0  2  0  0  0
  -24.8485  -28.9548   20.1156 C   0  0  0  0  0  0
  -22.7405  -29.4660   22.4992 C   0  0  0  0  0  0
  -18.0270  -28.1374   22.8496 C   0  0  0  0  0  0
  -24.1487  -36.7315   23.2639 C   0  0  0  0  0  0
  -25.9300  -30.8355   21.3606 C   0  0  0  0  0  0
  -26.0087  -29.4699   20.7077 C   0  0  0  0  0  0
  -27.2069  -28.7203   20.6908 C   0  0  0  0  0  0
  -26.0577  -26.9339   19.5013 C   0  0  0  0  0  0
  -24.8674  -27.6862   19.5086 C   0  0  0  0  0  0
  -23.6099  -29.8210   20.1652 C   0  0  0  0  0  0
  -25.4108  -36.3113   24.0340 C   0  0  1  0  0  0
  -20.5859  -28.3662   23.1320 C   0  0  2  0  0  0
  -20.6761  -26.9400   22.5417 C   0  0  0  0  0  0
  -19.5740  -26.6384   21.5213 C   0  0  0  0  0  0
  -18.1918  -26.7921   22.1624 C   0  0  0  0  0  0
  -19.1520  -28.8835   23.2906 C   0  0  0  0  0  0
  -18.9449  -30.1441   23.8917 C   0  0  0  0  0  0
  -17.6452  -30.6585   24.0566 C   0  0  0  0  0  0
  -25.9034  -34.9477   23.5131 C   0  0  0  0  0  0
  -16.5342  -29.9087   23.6327 C   0  0  0  0  0  0
  -16.7259  -28.6501   23.0352 C   0  0  0  0  0  0
  -26.4468  -31.6598   25.0719 C   0  0  0  0  0  0
  -25.3738  -31.3698   26.1472 C   0  0  0  0  0  0
  -27.0297  -30.3044   24.6085 C   0  0  0  0  0  0
  -27.6052  -32.4313   25.7475 C   0  0  0  0  0  0
  -27.5581  -37.1811   24.8466 C   0  0  0  0  0  0
  -21.4133  -29.3033   22.3730 N   0  0  0  0  0  0
  -26.4295  -37.3795   23.9409 N   0  0  0  0  0  0
  -24.6671  -31.0784   22.0989 N   0  0  0  0  0  0
  -23.4180  -28.8204   23.3035 O   0  0  0  0  0  0
  -28.3951  -26.6982   20.0928 O   0  0  0  0  0  0
  -26.5597  -34.8925   22.4692 O   0  0  0  0  0  0
  -23.5337  -32.1426   23.7495 O   0  0  0  0  0  0
  -28.6895  -24.2660   19.6713 C   0  0  0  0  0  0
  -29.5209  -21.9873   19.2028 C   0  0  0  0  0  0
  -28.9001  -22.6329   21.5487 C   0  0  0  0  0  0
  -29.2198  -20.5119   19.5673 C   0  0  0  0  0  0
  -28.5947  -21.1424   21.8209 C   0  0  0  0  0  0
  -28.3043  -25.3809   20.6756 C   0  0  0  0  0  0
  -30.4659  -17.8926   20.9424 C   0  0  0  0  0  0
  -30.7267  -16.6378   21.8253 C   0  0  0  0  0  0
  -29.2832  -18.7946   21.3941 C   0  0  0  0  0  0
  -28.9479  -23.0012   20.1190 N   0  0  0  0  0  0
  -30.1144  -15.3848   21.3571 N   0  0  0  0  0  0
  -29.4341  -20.2330   21.0057 N   0  3  0  0  0  0
  -28.7747  -24.5622   18.4738 O   0  0  0  0  0  0
  -31.4621  -12.4091   19.1057 H   0  0  0  0  0  0
  -30.3221  -11.2943   19.8013 H   0  0  0  0  0  0
  -29.7258  -11.7913   17.4147 H   0  0  0  0  0  0
  -29.6536  -13.5001   17.7674 H   0  0  0  0  0  0
  -27.8229  -11.3117   18.8099 H   0  0  0  0  0  0
  -27.3573  -12.6441   17.7867 H   0  0  0  0  0  0
  -27.7087  -14.2551   19.5828 H   0  0  0  0  0  0
  -28.6769  -11.9392   21.3255 H   0  0  0  0  0  0
  -28.4559  -13.5679   21.8760 H   0  0  0  0  0  0
  -25.2755   -9.5687   22.4752 H   0  0  0  0  0  0
  -24.0000   -7.4634   22.7470 H   0  0  0  0  0  0
  -21.0833   -8.8767   19.8952 H   0  0  0  0  0  0
  -22.3685  -10.9668   19.6160 H   0  0  0  0  0  0
  -21.2007   -7.6146   23.9714 H   0  0  0  0  0  0
  -21.1480   -6.0522   25.9076 H   0  0  0  0  0  0
  -22.0600   -2.7608   23.2847 H   0  0  0  0  0  0
  -22.4112  -11.9884   22.4777 H   0  0  0  0  0  0
  -21.1121  -13.1259   22.2615 H   0  0  0  0  0  0
  -24.6669  -15.8453   20.5117 H   0  0  0  0  0  0
  -26.2875  -15.6221   20.0854 H   0  0  0  0  0  0
  -26.7110  -32.5534   23.1161 H   0  0  0  0  0  0
  -25.0058  -33.9787   25.0480 H   0  0  0  0  0  0
  -22.6905  -31.3072   21.4101 H   0  0  0  0  0  0
  -23.3746  -35.9652   23.3314 H   0  0  0  0  0  0
  -24.3582  -36.8916   22.2052 H   0  0  0  0  0  0
  -23.7245  -37.6526   23.6644 H   0  0  0  0  0  0
  -26.0404  -31.6020   20.5922 H   0  0  0  0  0  0
  -26.8184  -30.8896   21.9781 H   0  0  0  0  0  0
  -28.1054  -29.1152   21.1444 H   0  0  0  0  0  0
  -26.0623  -25.9634   19.0254 H   0  0  0  0  0  0
  -23.9756  -27.2848   19.0472 H   0  0  0  0  0  0
  -23.7162  -30.5947   19.4038 H   0  0  0  0  0  0
  -22.7341  -29.2394   19.8719 H   0  0  0  0  0  0
  -25.1284  -36.1982   25.0833 H   0  0  0  0  0  0
  -20.9953  -28.3226   24.1439 H   0  0  0  0  0  0
  -20.5664  -26.2270   23.3602 H   0  0  0  0  0  0
  -21.6633  -26.7444   22.1208 H   0  0  0  0  0  0
  -19.6904  -25.6300   21.1231 H   0  0  0  0  0  0
  -19.6681  -27.3206   20.6751 H   0  0  0  0  0  0
  -17.4190  -26.6675   21.4024 H   0  0  0  0  0  0
  -18.0319  -26.0054   22.9012 H   0  0  0  0  0  0
  -19.7926  -30.7250   24.2294 H   0  0  0  0  0  0
  -17.5009  -31.6268   24.5160 H   0  0  0  0  0  0
  -15.5345  -30.2998   23.7639 H   0  0  0  0  0  0
  -15.8657  -28.0827   22.7061 H   0  0  0  0  0  0
  -24.5910  -30.7046   25.7808 H   0  0  0  0  0  0
  -24.8929  -32.2850   26.4937 H   0  0  0  0  0  0
  -25.8097  -30.8855   27.0219 H   0  0  0  0  0  0
  -26.2835  -29.6805   24.1152 H   0  0  0  0  0  0
  -27.4088  -29.7282   25.4534 H   0  0  0  0  0  0
  -27.8658  -30.4370   23.9214 H   0  0  0  0  0  0
  -27.2684  -33.3608   26.2077 H   0  0  0  0  0  0
  -28.3845  -32.6880   25.0287 H   0  0  0  0  0  0
  -28.0735  -31.8419   26.5367 H   0  0  0  0  0  0
  -28.2607  -38.0099   24.7511 H   0  0  0  0  0  0
  -28.1068  -36.2634   24.6297 H   0  0  0  0  0  0
  -27.2299  -37.1468   25.8869 H   0  0  0  0  0  0
  -20.9289  -29.8758   21.6958 H   0  0  0  0  0  0
  -26.0187  -38.2876   24.1402 H   0  0  0  0  0  0
  -29.1856  -22.1445   18.1761 H   0  0  0  0  0  0
  -30.6013  -22.1378   19.1866 H   0  0  0  0  0  0
  -29.8616  -22.8940   21.9940 H   0  0  0  0  0  0
  -28.1493  -23.2111   22.0879 H   0  0  0  0  0  0
  -29.8470  -19.8574   18.9608 H   0  0  0  0  0  0
  -28.1873  -20.2740   19.3061 H   0  0  0  0  0  0
  -27.5421  -20.9383   21.6168 H   0  0  0  0  0  0
  -28.7447  -20.9426   22.8828 H   0  0  0  0  0  0
  -29.0025  -25.3607   21.5126 H   0  0  0  0  0  0
  -27.3158  -25.1708   21.0880 H   0  0  0  0  0  0
  -30.3640  -17.6143   19.8927 H   0  0  0  0  0  0
  -31.3753  -18.4933   20.9913 H   0  0  0  0  0  0
  -30.4053  -16.8166   22.8519 H   0  0  0  0  0  0
  -31.8060  -16.4881   21.9013 H   0  0  0  0  0  0
  -29.2272  -18.7515   22.4825 H   0  0  0  0  0  0
  -28.3344  -18.3952   21.0327 H   0  0  0  0  0  0
  -29.2073  -15.1421   21.7285 H   0  0  0  0  0  0
  -30.3899  -20.4782   21.2167 H   0  0  0  0  0  0
  1 25  1  0  0  0
  1 30  2  0  0  0
  1 81  1  0  0  0
  2  3  1  0  0  0
  2 25  1  0  0  0
  2 84  1  0  0  0
  2 85  1  0  0  0
  3  4  1  0  0  0
  3 86  1  0  0  0
  3 87  1  0  0  0
  4  5  1  0  0  0
  4 88  1  0  0  0
  4 89  1  0  0  0
  5  6  1  0  0  0
  5 26  1  0  0  0
  5 90  1  0  0  0
  6 25  1  0  0  0
  6 91  1  0  0  0
  6 92  1  0  0  0
  7  8  2  0  0  0
  7 26  1  0  0  0
  7 29  1  0  0  0
  8  9  1  0  0  0
  8 22  1  0  0  0
  9 10  1  0  0  0
  9 27  2  0  0  0
 10 11  2  0  0  0
 10 15  1  0  0  0
 11 12  1  0  0  0
 11 93  1  0  0  0
 12 13  2  0  0  0
 12 94  1  0  0  0
 13 14  1  0  0  0
 13 31  1  0  0  0
 14 15  2  0  0  0
 14 95  1  0  0  0
 15 96  1  0  0  0
 16 17  2  0  0  0
 16 21  1  0  0  0
 16 31  1  0  0  0
 17 18  1  0  0  0
 17 97  1  0  0  0
 18 19  2  0  0  0
 18 98  1  0  0  0
 19 20  1  0  0  0
 19 24  1  0  0  0
 20 21  2  0  0  0
 20 99  1  0  0  0
 21 23  1  0  0  0
 22 28  1  0  0  0
 22 32  2  0  0  0
 26 27  1  0  0  0
 28100  1  0  0  0
 28101  1  0  0  0
 29102  1  0  0  0
 29103  1  0  0  0
 33 34  1  0  0  0
 33 66  1  0  0  0
 33 70  2  0  0  0
 34 36  1  0  0  0
 34 59  1  0  0  0
 34104  1  0  0  0
 35 44  2  0  0  0
 35 45  1  0  0  0
 35 68  1  0  0  0
 36 56  1  0  0  0
 36105  1  0  0  0
 37 39  1  0  0  0
 37 47  1  0  0  0
 37 66  1  0  0  0
 37106  1  0  0  0
 38 43  2  0  0  0
 38 46  1  0  0  0
 38 47  1  0  0  0
 39 64  1  0  0  0
 39 67  2  0  0  0
 40 52  1  0  0  0
 40 53  2  0  0  0
 40 58  1  0  0  0
 41107  1  0  0  0
 41108  1  0  0  0
 41109  1  0  0  0
 41 48  1  0  0  0
 42 43  1  0  0  0
 42 66  1  0  0  0
 42110  1  0  0  0
 42111  1  0  0  0
 43 44  1  0  0  0
 44112  1  0  0  0
 45 46  2  0  0  0
 45113  1  0  0  0
 46114  1  0  0  0
 47115  1  0  0  0
 47116  1  0  0  0
 48 56  1  0  0  0
 48 65  1  0  0  0
 48117  1  0  0  0
 49 50  1  0  0  0
 49 53  1  0  0  0
 49 64  1  0  0  0
 49118  1  0  0  0
 50 51  1  0  0  0
 50119  1  0  0  0
 50120  1  0  0  0
 51 52  1  0  0  0
 51121  1  0  0  0
 51122  1  0  0  0
 52123  1  0  0  0
 52124  1  0  0  0
 53 54  1  0  0  0
 54 55  2  0  0  0
 54125  1  0  0  0
 55 57  1  0  0  0
 55126  1  0  0  0
 56 69  2  0  0  0
 57 58  2  0  0  0
 57127  1  0  0  0
 58128  1  0  0  0
 59 60  1  0  0  0
 59 61  1  0  0  0
 59 62  1  0  0  0
 60129  1  0  0  0
 60130  1  0  0  0
 60131  1  0  0  0
 61132  1  0  0  0
 61133  1  0  0  0
 61134  1  0  0  0
 62135  1  0  0  0
 62136  1  0  0  0
 62137  1  0  0  0
 63 65  1  0  0  0
 63138  1  0  0  0
 63139  1  0  0  0
 63140  1  0  0  0
 64141  1  0  0  0
 65142  1  0  0  0
 68 76  1  0  0  0
 71 76  1  0  0  0
 71 80  1  0  0  0
 71 83  2  0  0  0
 72 74  1  0  0  0
 72 80  1  0  0  0
 72143  1  0  0  0
 72144  1  0  0  0
 73 75  1  0  0  0
 73 80  1  0  0  0
 73145  1  0  0  0
 73146  1  0  0  0
 74 82  1  0  0  0
 74147  1  0  0  0
 74148  1  0  0  0
 75 82  1  0  0  0
 75149  1  0  0  0
 75150  1  0  0  0
 76151  1  0  0  0
 76152  1  0  0  0
 77 78  1  0  0  0
 77 79  1  0  0  0
 77153  1  0  0  0
 77154  1  0  0  0
 78 81  1  0  0  0
 78155  1  0  0  0
 78156  1  0  0  0
 79157  1  0  0  0
 79158  1  0  0  0
 79 82  1  0  0  0
 81159  1  0  0  0
 82160  1  0  0  0
M  CHG  1  82   1
M  ISO  4   1 100  68 101  76 101  81 100
M  END
> <chiral flag>
0

> <version>
0

> <s_m_source_file>
/data/baiqing/PycharmProjects/Reinvent-master-3.2/result/LINK_invent/BTK/process_docking_weight1_custom_sum_contain_oxygen_bond_distance_aromatic_linkinvent_7_9_3/rearranged_h_0134.sdf

> <i_m_source_file_index>
83

> <r_mmod_Potential_Energy-OPLS-2005>
-67.0851516723633

> <r_mmod_Stretch_Energy-OPLS-2005>
41.200008392334

> <r_mmod_Bend_Energy-OPLS-2005>
101.465843200684

> <r_mmod_Torsional_Energy-OPLS-2005>
349.192718505859

> <r_mmod_Improper_Torsional_Energy-OPLS-2005>
2.45225977897644

> <r_mmod_Van_der_Waal_Energy-OPLS-2005>
147.256454467773

> <r_mmod_Electrostatic_Energy-OPLS-2005>
-208.865600585938

> <r_mmod_Solvation_Energy-OPLS-2005>
-510.013549804688

> <b_mmod_Minimization_Converged-OPLS-2005>
0

> <r_mmod_RMS_Derivative-OPLS-2005>
0.3039610683918

$$$$
83
                    3D
 Structure written by MMmdl.
163171  0  0  1  0            999 V2000
  -30.6050  -14.5304   20.5100 C   0  0  0  0  0  0
  -30.4181  -12.3175   19.4367 C   0  0  0  0  0  0
  -29.5006  -12.4983   18.2106 C   0  0  0  0  0  0
  -28.0146  -12.3494   18.6101 C   0  0  0  0  0  0
  -27.6456  -13.1954   19.8584 C   0  0  2  0  0  0
  -28.6803  -12.9900   20.9915 C   0  0  0  0  0  0
  -25.2485  -13.8145   20.5592 C   0  0  0  0  0  0
  -24.1774  -13.0429   20.9211 C   0  0  0  0  0  0
  -24.6319  -11.6905   20.8706 C   0  0  0  0  0  0
  -23.8993  -10.4276   21.0413 C   0  0  0  0  0  0
  -24.3560   -9.4188   21.9188 C   0  0  0  0  0  0
  -23.6253   -8.2205   22.0745 C   0  0  0  0  0  0
  -22.4219   -8.0228   21.3562 C   0  0  0  0  0  0
  -21.9870   -9.0185   20.4646 C   0  0  0  0  0  0
  -22.7173  -10.2085   20.3071 C   0  0  0  0  0  0
  -21.6814   -6.0691   22.5279 C   0  0  0  0  0  0
  -21.3994   -6.5617   23.8201 C   0  0  0  0  0  0
  -21.3668   -5.6789   24.9183 C   0  0  0  0  0  0
  -21.6056   -4.3048   24.7245 C   0  0  0  0  0  0
  -21.8805   -3.8120   23.4366 C   0  0  0  0  0  0
  -21.9174   -4.6931   22.3408 C   0  0  0  0  0  0
  -22.7802  -13.5261   21.1815 C   0  0  0  0  0  0
  -22.1638   -4.2112   21.0984 F   0  0  0  0  0  0
  -21.5643   -3.4524   25.7754 F   0  0  0  0  0  0
  -30.0065  -13.3082   20.4440 N   0  0  0  0  0  0
  -26.2881  -12.9282   20.3239 N   0  0  0  0  0  0
  -25.9225  -11.6455   20.5693 N   0  0  0  0  0  0
  -22.0407  -12.8292   22.0394 N   0  0  0  0  0  0
  -25.4286  -15.1842   20.4059 N   0  0  0  0  0  0
  -31.7456  -14.7363   20.1010 O   0  0  0  0  0  0
  -21.6600   -6.8817   21.4232 O   0  0  0  0  0  0
  -22.3568  -14.5574   20.6626 O   0  0  0  0  0  0
  -24.6159  -31.8709   23.2158 C   0  0  0  0  0  0
  -25.9044  -32.4843   23.8458 C   0  0  1  0  0  0
  -27.2054  -27.4121   20.0766 C   0  0  0  0  0  0
  -25.5919  -33.8633   24.2379 N   0  0  0  0  0  0
  -23.4026  -30.4993   21.5580 C   0  0  2  0  0  0
  -24.8406  -28.9710   20.1201 C   0  0  0  0  0  0
  -22.7369  -29.4756   22.5042 C   0  0  0  0  0  0
  -18.0234  -28.1424   22.8445 C   0  0  0  0  0  0
  -24.1491  -36.7295   23.2644 C   0  0  0  0  0  0
  -25.9412  -30.8299   21.3789 C   0  0  0  0  0  0
  -26.0106  -29.4704   20.7046 C   0  0  0  0  0  0
  -27.2023  -28.7013   20.6694 C   0  0  0  0  0  0
  -26.0114  -26.9411   19.4899 C   0  0  0  0  0  0
  -24.8374  -27.7106   19.5093 C   0  0  0  0  0  0
  -23.6078  -29.8385   20.1732 C   0  0  0  0  0  0
  -25.4121  -36.3118   24.0343 C   0  0  1  0  0  0
  -20.5836  -28.3729   23.1261 C   0  0  2  0  0  0
  -20.6768  -26.9483   22.5324 C   0  0  0  0  0  0
  -19.5710  -26.6499   21.5128 C   0  0  0  0  0  0
  -18.1902  -26.8006   22.1512 C   0  0  0  0  0  0
  -19.1505  -28.8893   23.2866 C   0  0  0  0  0  0
  -18.9400  -30.1477   23.8934 C   0  0  0  0  0  0
  -17.6343  -30.6550   24.0625 C   0  0  0  0  0  0
  -25.9031  -34.9478   23.5158 C   0  0  0  0  0  0
  -16.5284  -29.9060   23.6303 C   0  0  0  0  0  0
  -16.7223  -28.6499   23.0280 C   0  0  0  0  0  0
  -26.4451  -31.6615   25.0794 C   0  0  0  0  0  0
  -25.3717  -31.3703   26.1551 C   0  0  0  0  0  0
  -27.0303  -30.3055   24.6225 C   0  0  0  0  0  0
  -27.6040  -32.4365   25.7514 C   0  0  0  0  0  0
  -27.5593  -37.1817   24.8475 C   0  0  0  0  0  0
  -21.4125  -29.3084   22.3688 N   0  0  0  0  0  0
  -26.4307  -37.3808   23.9411 N   0  0  0  0  0  0
  -24.6704  -31.0817   22.1054 N   0  0  0  0  0  0
  -23.4108  -28.8237   23.3060 O   0  0  0  0  0  0
  -28.3588  -26.6461   20.0565 O   0  0  0  0  0  0
  -26.5580  -34.8930   22.4711 O   0  0  0  0  0  0
  -23.5321  -32.1442   23.7536 O   0  0  0  0  0  0
  -29.5403  -19.6847   18.8742 C   0  0  0  0  0  0
  -29.6324  -21.0653   18.5632 C   0  0  0  0  0  0
  -27.6241  -21.4888   19.8256 C   0  0  0  0  0  0
  -28.5157  -19.1863   19.7158 C   0  0  0  0  0  0
  -27.5102  -20.1103   20.1516 C   0  0  0  0  0  0
  -28.6922  -21.9978   19.0545 C   0  0  0  0  0  0
  -24.9542  -21.5455   22.0212 C   0  0  0  0  0  0
  -28.4954  -17.6746   20.0982 C   0  0  0  0  0  0
  -26.3113  -19.6271   20.9803 C   0  0  0  0  0  0
  -25.0288  -20.4841   20.9094 C   0  0  0  0  0  0
  -29.8682  -16.9681   20.3909 C   0  0  0  0  0  0
  -28.2336  -25.2168   20.2742 C   0  0  0  0  0  0
  -27.8860  -24.3387   19.0340 C   0  0  0  0  0  0
  -29.7494  -15.5410   20.8029 N   0  0  0  0  0  0
  -28.8686  -23.3338   18.7149 O   0  0  0  0  0  0
  -31.4636  -12.4222   19.1568 H   0  0  0  0  0  0
  -30.3302  -11.3068   19.8299 H   0  0  0  0  0  0
  -29.7501  -11.7727   17.4332 H   0  0  0  0  0  0
  -29.6686  -13.4840   17.7710 H   0  0  0  0  0  0
  -27.8237  -11.2920   18.8086 H   0  0  0  0  0  0
  -27.3761  -12.6242   17.7677 H   0  0  0  0  0  0
  -27.6800  -14.2374   19.5389 H   0  0  0  0  0  0
  -28.6522  -11.9580   21.3477 H   0  0  0  0  0  0
  -28.4347  -13.6041   21.8602 H   0  0  0  0  0  0
  -25.2691   -9.5630   22.4802 H   0  0  0  0  0  0
  -23.9913   -7.4583   22.7501 H   0  0  0  0  0  0
  -21.0775   -8.8724   19.8960 H   0  0  0  0  0  0
  -22.3627  -10.9625   19.6187 H   0  0  0  0  0  0
  -21.1972   -7.6114   23.9702 H   0  0  0  0  0  0
  -21.1525   -6.0516   25.9092 H   0  0  0  0  0  0
  -22.0579   -2.7568   23.2878 H   0  0  0  0  0  0
  -22.3949  -11.9990   22.4915 H   0  0  0  0  0  0
  -21.1025  -13.1371   22.2526 H   0  0  0  0  0  0
  -24.6487  -15.8290   20.4640 H   0  0  0  0  0  0
  -26.2687  -15.6073   20.0343 H   0  0  0  0  0  0
  -26.7111  -32.5530   23.1207 H   0  0  0  0  0  0
  -25.0124  -33.9770   25.0556 H   0  0  0  0  0  0
  -22.6942  -31.3179   21.4191 H   0  0  0  0  0  0
  -23.3786  -35.9598   23.3308 H   0  0  0  0  0  0
  -24.3577  -36.8884   22.2059 H   0  0  0  0  0  0
  -23.7199  -37.6487   23.6629 H   0  0  0  0  0  0
  -26.0908  -31.6127   20.6332 H   0  0  0  0  0  0
  -26.8174  -30.8523   22.0171 H   0  0  0  0  0  0
  -28.1094  -29.0834   21.1161 H   0  0  0  0  0  0
  -25.9602  -25.9898   18.9917 H   0  0  0  0  0  0
  -23.9363  -27.3282   19.0517 H   0  0  0  0  0  0
  -23.7204  -30.6146   19.4176 H   0  0  0  0  0  0
  -22.7302  -29.2616   19.8741 H   0  0  0  0  0  0
  -25.1299  -36.2005   25.0831 H   0  0  0  0  0  0
  -20.9725  -28.3340   24.1440 H   0  0  0  0  0  0
  -20.5925  -26.2297   23.3479 H   0  0  0  0  0  0
  -21.6627  -26.7672   22.0987 H   0  0  0  0  0  0
  -19.6621  -27.3359   20.6663 H   0  0  0  0  0  0
  -19.6902  -25.6480   21.1085 H   0  0  0  0  0  0
  -17.4217  -26.6931   21.3811 H   0  0  0  0  0  0
  -18.0231  -26.0035   22.8819 H   0  0  0  0  0  0
  -19.7886  -30.7265   24.2414 H   0  0  0  0  0  0
  -17.4848  -31.6192   24.5328 H   0  0  0  0  0  0
  -15.5238  -30.2938   23.7606 H   0  0  0  0  0  0
  -15.8631  -28.0899   22.6822 H   0  0  0  0  0  0
  -24.5911  -30.7026   25.7888 H   0  0  0  0  0  0
  -24.8872  -32.2829   26.5034 H   0  0  0  0  0  0
  -25.8071  -30.8865   27.0306 H   0  0  0  0  0  0
  -26.2874  -29.6832   24.1237 H   0  0  0  0  0  0
  -27.3995  -29.7301   25.4724 H   0  0  0  0  0  0
  -27.8744  -30.4371   23.9465 H   0  0  0  0  0  0
  -27.2683  -33.3682   26.2101 H   0  0  0  0  0  0
  -28.3808  -32.6920   25.0289 H   0  0  0  0  0  0
  -28.0785  -31.8516   26.5404 H   0  0  0  0  0  0
  -28.2642  -38.0094   24.7547 H   0  0  0  0  0  0
  -28.1068  -36.2634   24.6295 H   0  0  0  0  0  0
  -27.2305  -37.1467   25.8877 H   0  0  0  0  0  0
  -20.9274  -29.8747   21.6887 H   0  0  0  0  0  0
  -26.0214  -38.2894   24.1409 H   0  0  0  0  0  0
  -30.2849  -19.0085   18.4729 H   0  0  0  0  0  0
  -30.4330  -21.4208   17.9262 H   0  0  0  0  0  0
  -26.8792  -22.1652   20.1993 H   0  0  0  0  0  0
  -23.9920  -22.0518   22.0070 H   0  0  0  0  0  0
  -25.7241  -22.3140   21.9632 H   0  0  0  0  0  0
  -25.0552  -21.0850   23.0026 H   0  0  0  0  0  0
  -27.9606  -17.1507   19.3095 H   0  0  0  0  0  0
  -27.8976  -17.5440   20.9960 H   0  0  0  0  0  0
  -26.6201  -19.5263   22.0181 H   0  0  0  0  0  0
  -26.0301  -18.6286   20.6501 H   0  0  0  0  0  0
  -24.8873  -20.9150   19.9180 H   0  0  0  0  0  0
  -24.1784  -19.8163   21.0541 H   0  0  0  0  0  0
  -30.3864  -17.5106   21.1878 H   0  0  0  0  0  0
  -30.4917  -17.0208   19.4978 H   0  0  0  0  0  0
  -29.1957  -24.8918   20.6690 H   0  0  0  0  0  0
  -27.5225  -25.0271   21.0802 H   0  0  0  0  0  0
  -27.8362  -24.9958   18.1673 H   0  0  0  0  0  0
  -26.8791  -23.9370   19.1151 H   0  0  0  0  0  0
  -28.8567  -15.2396   21.1640 H   0  0  0  0  0  0
  1 25  1  0  0  0
  1 30  2  0  0  0
  1 84  1  0  0  0
  2  3  1  0  0  0
  2 25  1  0  0  0
  2 86  1  0  0  0
  2 87  1  0  0  0
  3  4  1  0  0  0
  3 88  1  0  0  0
  3 89  1  0  0  0
  4  5  1  0  0  0
  4 90  1  0  0  0
  4 91  1  0  0  0
  5  6  1  0  0  0
  5 26  1  0  0  0
  5 92  1  0  0  0
  6 25  1  0  0  0
  6 93  1  0  0  0
  6 94  1  0  0  0
  7  8  2  0  0  0
  7 26  1  0  0  0
  7 29  1  0  0  0
  8  9  1  0  0  0
  8 22  1  0  0  0
  9 10  1  0  0  0
  9 27  2  0  0  0
 10 11  2  0  0  0
 10 15  1  0  0  0
 11 12  1  0  0  0
 11 95  1  0  0  0
 12 13  2  0  0  0
 12 96  1  0  0  0
 13 14  1  0  0  0
 13 31  1  0  0  0
 14 15  2  0  0  0
 14 97  1  0  0  0
 15 98  1  0  0  0
 16 17  2  0  0  0
 16 21  1  0  0  0
 16 31  1  0  0  0
 17 18  1  0  0  0
 17 99  1  0  0  0
 18 19  2  0  0  0
 18100  1  0  0  0
 19 20  1  0  0  0
 19 24  1  0  0  0
 20 21  2  0  0  0
 20101  1  0  0  0
 21 23  1  0  0  0
 22 28  1  0  0  0
 22 32  2  0  0  0
 26 27  1  0  0  0
 28102  1  0  0  0
 28103  1  0  0  0
 29104  1  0  0  0
 29105  1  0  0  0
 33 34  1  0  0  0
 33 66  1  0  0  0
 33 70  2  0  0  0
 34 36  1  0  0  0
 34 59  1  0  0  0
 34106  1  0  0  0
 35 44  2  0  0  0
 35 45  1  0  0  0
 35 68  1  0  0  0
 36 56  1  0  0  0
 36107  1  0  0  0
 37 39  1  0  0  0
 37 47  1  0  0  0
 37 66  1  0  0  0
 37108  1  0  0  0
 38 43  2  0  0  0
 38 46  1  0  0  0
 38 47  1  0  0  0
 39 64  1  0  0  0
 39 67  2  0  0  0
 40 52  1  0  0  0
 40 53  2  0  0  0
 40 58  1  0  0  0
 41109  1  0  0  0
 41110  1  0  0  0
 41111  1  0  0  0
 41 48  1  0  0  0
 42 43  1  0  0  0
 42 66  1  0  0  0
 42112  1  0  0  0
 42113  1  0  0  0
 43 44  1  0  0  0
 44114  1  0  0  0
 45 46  2  0  0  0
 45115  1  0  0  0
 46116  1  0  0  0
 47117  1  0  0  0
 47118  1  0  0  0
 48 56  1  0  0  0
 48 65  1  0  0  0
 48119  1  0  0  0
 49 50  1  0  0  0
 49 53  1  0  0  0
 49 64  1  0  0  0
 49120  1  0  0  0
 50 51  1  0  0  0
 50121  1  0  0  0
 50122  1  0  0  0
 51 52  1  0  0  0
 51123  1  0  0  0
 51124  1  0  0  0
 52125  1  0  0  0
 52126  1  0  0  0
 53 54  1  0  0  0
 54 55  2  0  0  0
 54127  1  0  0  0
 55 57  1  0  0  0
 55128  1  0  0  0
 56 69  2  0  0  0
 57 58  2  0  0  0
 57129  1  0  0  0
 58130  1  0  0  0
 59 60  1  0  0  0
 59 61  1  0  0  0
 59 62  1  0  0  0
 60131  1  0  0  0
 60132  1  0  0  0
 60133  1  0  0  0
 61134  1  0  0  0
 61135  1  0  0  0
 61136  1  0  0  0
 62137  1  0  0  0
 62138  1  0  0  0
 62139  1  0  0  0
 63 65  1  0  0  0
 63140  1  0  0  0
 63141  1  0  0  0
 63142  1  0  0  0
 64143  1  0  0  0
 65144  1  0  0  0
 68 82  1  0  0  0
 71 72  2  0  0  0
 71 74  1  0  0  0
 71145  1  0  0  0
 72 76  1  0  0  0
 72146  1  0  0  0
 73 75  1  0  0  0
 73 76  2  0  0  0
 73147  1  0  0  0
 74 75  2  0  0  0
 74 78  1  0  0  0
 75 79  1  0  0  0
 76 85  1  0  0  0
 77 80  1  0  0  0
 77148  1  0  0  0
 77149  1  0  0  0
 77150  1  0  0  0
 78 81  1  0  0  0
 78151  1  0  0  0
 78152  1  0  0  0
 79 80  1  0  0  0
 79153  1  0  0  0
 79154  1  0  0  0
 80155  1  0  0  0
 80156  1  0  0  0
 81 84  1  0  0  0
 81157  1  0  0  0
 81158  1  0  0  0
 82 83  1  0  0  0
 82159  1  0  0  0
 82160  1  0  0  0
 83 85  1  0  0  0
 83161  1  0  0  0
 83162  1  0  0  0
 84163  1  0  0  0
M  ISO  4   1 100  68 101  82 101  84 100
M  END
> <chiral flag>
0

> <version>
0

> <s_m_source_file>
/data/baiqing/PycharmProjects/Reinvent-master-3.2/result/LINK_invent/BTK/process_docking_weight1_custom_sum_contain_oxygen_bond_distance_aromatic_linkinvent_7_9_3/rearranged_h_0134.sdf

> <i_m_source_file_index>
84

> <r_mmod_Potential_Energy-OPLS-2005>
-8.72321033477783

> <r_mmod_Stretch_Energy-OPLS-2005>
51.3400382995605

> <r_mmod_Bend_Energy-OPLS-2005>
120.342239379883

> <r_mmod_Torsional_Energy-OPLS-2005>
219.057342529297

> <r_mmod_Improper_Torsional_Energy-OPLS-2005>
7.81031084060669

> <r_mmod_Van_der_Waal_Energy-OPLS-2005>
158.622314453125

> <r_mmod_Electrostatic_Energy-OPLS-2005>
-374.715484619141

> <r_mmod_Solvation_Energy-OPLS-2005>
-213.302856445312

> <b_mmod_Minimization_Converged-OPLS-2005>
0

> <r_mmod_RMS_Derivative-OPLS-2005>
9.31107521057129

$$$$
84
                    3D
 Structure written by MMmdl.
153161  0  0  1  0            999 V2000
  -30.4917  -15.2255   20.4025 C   0  0  0  0  0  0
  -30.4493  -12.7916   19.5123 C   0  0  0  0  0  0
  -29.5372  -12.5606   18.2827 C   0  0  0  0  0  0
  -28.0882  -12.2787   18.7153 C   0  0  0  0  0  0
  -27.6171  -13.2521   19.8217 C   0  0  2  0  0  0
  -28.6626  -13.3978   20.9548 C   0  0  0  0  0  0
  -25.2326  -13.8155   20.5655 C   0  0  0  0  0  0
  -24.1702  -13.0374   20.9289 C   0  0  0  0  0  0
  -24.6360  -11.6890   20.8787 C   0  0  0  0  0  0
  -23.9046  -10.4262   21.0413 C   0  0  0  0  0  0
  -24.3592   -9.4188   21.9194 C   0  0  0  0  0  0
  -23.6273   -8.2214   22.0734 C   0  0  0  0  0  0
  -22.4264   -8.0250   21.3512 C   0  0  0  0  0  0
  -21.9899   -9.0237   20.4628 C   0  0  0  0  0  0
  -22.7217  -10.2123   20.3057 C   0  0  0  0  0  0
  -21.6855   -6.0701   22.5255 C   0  0  0  0  0  0
  -21.4007   -6.5610   23.8187 C   0  0  0  0  0  0
  -21.3666   -5.6776   24.9159 C   0  0  0  0  0  0
  -21.6053   -4.3039   24.7224 C   0  0  0  0  0  0
  -21.8822   -3.8118   23.4351 C   0  0  0  0  0  0
  -21.9193   -4.6926   22.3397 C   0  0  0  0  0  0
  -22.7719  -13.5162   21.1963 C   0  0  0  0  0  0
  -22.1660   -4.2104   21.0978 F   0  0  0  0  0  0
  -21.5647   -3.4530   25.7746 F   0  0  0  0  0  0
  -29.8942  -13.9301   20.3334 N   0  0  0  0  0  0
  -26.2808  -12.9427   20.3198 N   0  0  0  0  0  0
  -25.9300  -11.6561   20.5744 N   0  0  0  0  0  0
  -22.0344  -12.8147   22.0512 N   0  0  0  0  0  0
  -25.3747  -15.1863   20.3908 N   0  0  0  0  0  0
  -31.7057  -15.1974   20.1509 O   0  0  0  0  0  0
  -21.6636   -6.8842   21.4212 O   0  0  0  0  0  0
  -22.3413  -14.5484   20.6834 O   0  0  0  0  0  0
  -24.6600  -31.8276   23.1749 C   0  0  0  0  0  0
  -25.9312  -32.4598   23.8177 C   0  0  1  0  0  0
  -27.2189  -26.9826   20.1632 C   0  0  0  0  0  0
  -25.5993  -33.8406   24.2081 N   0  0  0  0  0  0
  -23.4700  -30.4448   21.5225 C   0  0  2  0  0  0
  -24.9215  -28.8439   20.1090 C   0  0  0  0  0  0
  -22.7637  -29.4471   22.4767 C   0  0  0  0  0  0
  -18.0316  -28.1393   22.8468 C   0  0  0  0  0  0
  -24.1485  -36.7239   23.2641 C   0  0  0  0  0  0
  -26.0370  -30.6495   21.3992 C   0  0  0  0  0  0
  -26.1051  -29.2466   20.7405 C   0  0  0  0  0  0
  -27.2492  -28.3357   20.7480 C   0  0  0  0  0  0
  -26.0044  -26.7228   19.4851 C   0  0  0  0  0  0
  -24.8924  -27.5991   19.4647 C   0  0  0  0  0  0
  -23.7068  -29.7676   20.1457 C   0  0  0  0  0  0
  -25.4118  -36.2960   24.0281 C   0  0  1  0  0  0
  -20.5940  -28.3744   23.1184 C   0  0  2  0  0  0
  -20.6801  -26.9432   22.5392 C   0  0  0  0  0  0
  -19.5776  -26.6366   21.5202 C   0  0  0  0  0  0
  -18.1950  -26.7932   22.1603 C   0  0  0  0  0  0
  -19.1580  -28.8883   23.2814 C   0  0  0  0  0  0
  -18.9494  -30.1468   23.8850 C   0  0  0  0  0  0
  -17.6498  -30.6593   24.0539 C   0  0  0  0  0  0
  -25.9086  -34.9350   23.4994 C   0  0  0  0  0  0
  -16.5383  -29.9082   23.6344 C   0  0  0  0  0  0
  -16.7301  -28.6497   23.0375 C   0  0  0  0  0  0
  -26.4562  -31.6545   25.0715 C   0  0  0  0  0  0
  -25.3683  -31.3831   26.1372 C   0  0  0  0  0  0
  -27.0482  -30.2907   24.6461 C   0  0  0  0  0  0
  -27.6018  -32.4389   25.7524 C   0  0  0  0  0  0
  -27.5567  -37.1762   24.8450 C   0  0  0  0  0  0
  -21.4307  -29.3059   22.3538 N   0  0  0  0  0  0
  -26.4262  -37.3700   23.9411 N   0  0  0  0  0  0
  -24.7431  -30.9987   22.0864 N   0  0  0  0  0  0
  -23.4209  -28.8022   23.2973 O   0  0  0  0  0  0
  -28.2209  -25.8925   20.2366 O   0  0  0  0  0  0
  -26.5688  -34.8884   22.4584 O   0  0  0  0  0  0
  -23.5688  -32.1227   23.6883 O   0  0  0  0  0  0
  -28.6336  -21.9024   21.3221 C   0  0  0  0  0  0
  -29.0646  -20.4806   21.3650 C   0  0  0  0  0  0
  -29.1198  -21.9790   19.0749 C   0  0  0  0  0  0
  -28.6387  -22.7998   20.1754 C   0  0  0  0  0  0
  -29.5486  -19.6636   20.2604 C   0  0  0  0  0  0
  -29.5354  -20.5522   19.1017 C   0  0  0  0  0  0
  -29.9931  -19.9531   17.7832 C   0  0  0  0  0  0
  -28.4453  -16.5903   21.0580 C   0  0  0  0  0  0
  -30.2862  -18.0888   20.3214 C   0  0  0  0  0  0
  -27.8435  -24.3314   20.0256 C   0  0  0  0  0  0
  -29.7895  -16.5358   20.5074 N   0  0  0  0  0  0
  -31.4610  -12.9992   19.1618 H   0  0  0  0  0  0
  -30.5372  -11.8845   20.1107 H   0  0  0  0  0  0
  -29.9181  -11.7327   17.6844 H   0  0  0  0  0  0
  -29.5598  -13.4424   17.6410 H   0  0  0  0  0  0
  -28.0504  -11.2558   19.0916 H   0  0  0  0  0  0
  -27.4207  -12.3141   17.8535 H   0  0  0  0  0  0
  -27.5343  -14.2051   19.3040 H   0  0  0  0  0  0
  -28.8392  -12.4411   21.4482 H   0  0  0  0  0  0
  -28.3035  -14.0590   21.7400 H   0  0  0  0  0  0
  -25.2713   -9.5691   22.4800 H   0  0  0  0  0  0
  -23.9980   -7.4604   22.7448 H   0  0  0  0  0  0
  -21.0832   -8.8768   19.8932 H   0  0  0  0  0  0
  -22.3654  -10.9675   19.6194 H   0  0  0  0  0  0
  -21.1983   -7.6119   23.9673 H   0  0  0  0  0  0
  -21.1496   -6.0510   25.9061 H   0  0  0  0  0  0
  -22.0597   -2.7574   23.2868 H   0  0  0  0  0  0
  -22.3951  -11.9870   22.5016 H   0  0  0  0  0  0
  -21.0926  -13.1128   22.2633 H   0  0  0  0  0  0
  -24.5910  -15.8206   20.5016 H   0  0  0  0  0  0
  -26.1982  -15.6349   20.0127 H   0  0  0  0  0  0
  -26.7383  -32.5141   23.0893 H   0  0  0  0  0  0
  -25.0081  -33.9459   25.0206 H   0  0  0  0  0  0
  -22.7814  -31.2751   21.3575 H   0  0  0  0  0  0
  -23.3722  -35.9591   23.3241 H   0  0  0  0  0  0
  -24.3573  -36.8976   22.2074 H   0  0  0  0  0  0
  -23.7278  -37.6419   23.6758 H   0  0  0  0  0  0
  -26.2128  -31.3912   20.6182 H   0  0  0  0  0  0
  -26.8998  -30.7021   22.0513 H   0  0  0  0  0  0
  -28.1432  -28.6360   21.2764 H   0  0  0  0  0  0
  -25.8680  -25.7777   18.9830 H   0  0  0  0  0  0
  -23.9914  -27.2822   18.9554 H   0  0  0  0  0  0
  -23.8638  -30.5400   19.3918 H   0  0  0  0  0  0
  -22.8151  -29.2253   19.8250 H   0  0  0  0  0  0
  -25.1315  -36.1721   25.0764 H   0  0  0  0  0  0
  -21.0021  -28.3354   24.1307 H   0  0  0  0  0  0
  -20.5691  -26.2355   23.3628 H   0  0  0  0  0  0
  -21.6664  -26.7424   22.1196 H   0  0  0  0  0  0
  -19.6935  -25.6255   21.1282 H   0  0  0  0  0  0
  -19.6721  -27.3117   20.6686 H   0  0  0  0  0  0
  -17.4233  -26.6668   21.3996 H   0  0  0  0  0  0
  -18.0340  -26.0072   22.8995 H   0  0  0  0  0  0
  -19.7970  -30.7281   24.2207 H   0  0  0  0  0  0
  -17.5060  -31.6278   24.5132 H   0  0  0  0  0  0
  -15.5380  -30.2983   23.7698 H   0  0  0  0  0  0
  -15.8690  -28.0800   22.7144 H   0  0  0  0  0  0
  -24.5806  -30.7244   25.7701 H   0  0  0  0  0  0
  -24.8935  -32.3066   26.4702 H   0  0  0  0  0  0
  -25.7890  -30.9050   27.0226 H   0  0  0  0  0  0
  -26.3173  -29.6552   24.1448 H   0  0  0  0  0  0
  -27.3988  -29.7307   25.5143 H   0  0  0  0  0  0
  -27.9113  -30.4086   23.9906 H   0  0  0  0  0  0
  -27.2527  -33.3722   26.1962 H   0  0  0  0  0  0
  -28.3899  -32.6923   25.0425 H   0  0  0  0  0  0
  -28.0602  -31.8634   26.5578 H   0  0  0  0  0  0
  -28.2518  -38.0120   24.7525 H   0  0  0  0  0  0
  -28.1126  -36.2640   24.6216 H   0  0  0  0  0  0
  -27.2298  -37.1347   25.8857 H   0  0  0  0  0  0
  -20.9526  -29.8799   21.6732 H   0  0  0  0  0  0
  -26.0088  -38.2739   24.1454 H   0  0  0  0  0  0
  -28.2400  -22.3132   22.2416 H   0  0  0  0  0  0
  -29.0241  -20.0015   22.3333 H   0  0  0  0  0  0
  -29.1383  -22.4721   18.1121 H   0  0  0  0  0  0
  -29.7416  -20.5885   16.9336 H   0  0  0  0  0  0
  -29.5157  -18.9863   17.6189 H   0  0  0  0  0  0
  -31.0730  -19.8057   17.7830 H   0  0  0  0  0  0
  -27.8046  -15.9384   20.4883 H   0  0  0  0  0  0
  -27.9939  -17.5804   20.9981 H   0  0  0  0  0  0
  -28.4421  -16.2886   22.1057 H   0  0  0  0  0  0
  -31.0091  -18.2054   21.1291 H   0  0  0  0  0  0
  -30.9208  -18.0379   19.4369 H   0  0  0  0  0  0
  -26.9436  -24.1977   20.6273 H   0  0  0  0  0  0
  -27.4823  -24.2983   18.9988 H   0  0  0  0  0  0
  1 25  1  0  0  0
  1 30  2  0  0  0
  1 81  1  0  0  0
  2  3  1  0  0  0
  2 25  1  0  0  0
  2 82  1  0  0  0
  2 83  1  0  0  0
  3  4  1  0  0  0
  3 84  1  0  0  0
  3 85  1  0  0  0
  4  5  1  0  0  0
  4 86  1  0  0  0
  4 87  1  0  0  0
  5  6  1  0  0  0
  5 26  1  0  0  0
  5 88  1  0  0  0
  6 25  1  0  0  0
  6 89  1  0  0  0
  6 90  1  0  0  0
  7  8  2  0  0  0
  7 26  1  0  0  0
  7 29  1  0  0  0
  8  9  1  0  0  0
  8 22  1  0  0  0
  9 10  1  0  0  0
  9 27  2  0  0  0
 10 11  2  0  0  0
 10 15  1  0  0  0
 11 12  1  0  0  0
 11 91  1  0  0  0
 12 13  2  0  0  0
 12 92  1  0  0  0
 13 14  1  0  0  0
 13 31  1  0  0  0
 14 15  2  0  0  0
 14 93  1  0  0  0
 15 94  1  0  0  0
 16 17  2  0  0  0
 16 21  1  0  0  0
 16 31  1  0  0  0
 17 18  1  0  0  0
 17 95  1  0  0  0
 18 19  2  0  0  0
 18 96  1  0  0  0
 19 20  1  0  0  0
 19 24  1  0  0  0
 20 21  2  0  0  0
 20 97  1  0  0  0
 21 23  1  0  0  0
 22 28  1  0  0  0
 22 32  2  0  0  0
 26 27  1  0  0  0
 28 98  1  0  0  0
 28 99  1  0  0  0
 29100  1  0  0  0
 29101  1  0  0  0
 33 34  1  0  0  0
 33 66  1  0  0  0
 33 70  2  0  0  0
 34 36  1  0  0  0
 34 59  1  0  0  0
 34102  1  0  0  0
 35 44  2  0  0  0
 35 45  1  0  0  0
 35 68  1  0  0  0
 36 56  1  0  0  0
 36103  1  0  0  0
 37 39  1  0  0  0
 37 47  1  0  0  0
 37 66  1  0  0  0
 37104  1  0  0  0
 38 43  2  0  0  0
 38 46  1  0  0  0
 38 47  1  0  0  0
 39 64  1  0  0  0
 39 67  2  0  0  0
 40 52  1  0  0  0
 40 53  2  0  0  0
 40 58  1  0  0  0
 41105  1  0  0  0
 41106  1  0  0  0
 41107  1  0  0  0
 41 48  1  0  0  0
 42 43  1  0  0  0
 42 66  1  0  0  0
 42108  1  0  0  0
 42109  1  0  0  0
 43 44  1  0  0  0
 44110  1  0  0  0
 45 46  2  0  0  0
 45111  1  0  0  0
 46112  1  0  0  0
 47113  1  0  0  0
 47114  1  0  0  0
 48 56  1  0  0  0
 48 65  1  0  0  0
 48115  1  0  0  0
 49 50  1  0  0  0
 49 53  1  0  0  0
 49 64  1  0  0  0
 49116  1  0  0  0
 50 51  1  0  0  0
 50117  1  0  0  0
 50118  1  0  0  0
 51 52  1  0  0  0
 51119  1  0  0  0
 51120  1  0  0  0
 52121  1  0  0  0
 52122  1  0  0  0
 53 54  1  0  0  0
 54 55  2  0  0  0
 54123  1  0  0  0
 55 57  1  0  0  0
 55124  1  0  0  0
 56 69  2  0  0  0
 57 58  2  0  0  0
 57125  1  0  0  0
 58126  1  0  0  0
 59 60  1  0  0  0
 59 61  1  0  0  0
 59 62  1  0  0  0
 60127  1  0  0  0
 60128  1  0  0  0
 60129  1  0  0  0
 61130  1  0  0  0
 61131  1  0  0  0
 61132  1  0  0  0
 62133  1  0  0  0
 62134  1  0  0  0
 62135  1  0  0  0
 63 65  1  0  0  0
 63136  1  0  0  0
 63137  1  0  0  0
 63138  1  0  0  0
 64139  1  0  0  0
 65140  1  0  0  0
 68 80  1  0  0  0
 71 72  2  0  0  0
 71 74  1  0  0  0
 71141  1  0  0  0
 72 75  1  0  0  0
 72142  1  0  0  0
 73 74  2  0  0  0
 73 76  1  0  0  0
 73143  1  0  0  0
 74 80  1  0  0  0
 75 76  2  0  0  0
 75 79  1  0  0  0
 76 77  1  0  0  0
 77144  1  0  0  0
 77145  1  0  0  0
 77146  1  0  0  0
 78 81  1  0  0  0
 78147  1  0  0  0
 78148  1  0  0  0
 78149  1  0  0  0
 79 81  1  0  0  0
 79150  1  0  0  0
 79151  1  0  0  0
 80152  1  0  0  0
 80153  1  0  0  0
M  ISO  4   1 100  68 101  80 101  81 100
M  END
> <chiral flag>
0

> <version>
0

> <s_m_source_file>
/data/baiqing/PycharmProjects/Reinvent-master-3.2/result/LINK_invent/BTK/process_docking_weight1_custom_sum_contain_oxygen_bond_distance_aromatic_linkinvent_7_9_3/rearranged_h_0134.sdf

> <i_m_source_file_index>
85

> <r_mmod_Potential_Energy-OPLS-2005>
1170.705078125

> <r_mmod_Stretch_Energy-OPLS-2005>
454.181945800781

> <r_mmod_Bend_Energy-OPLS-2005>
409.717102050781

> <r_mmod_Torsional_Energy-OPLS-2005>
264.274475097656

> <r_mmod_Improper_Torsional_Energy-OPLS-2005>
10.7665205001831

> <r_mmod_Van_der_Waal_Energy-OPLS-2005>
141.265838623047

> <r_mmod_Electrostatic_Energy-OPLS-2005>
-301.929626464844

> <r_mmod_Solvation_Energy-OPLS-2005>
-202.753265380859

> <b_mmod_Minimization_Converged-OPLS-2005>
0

> <r_mmod_RMS_Derivative-OPLS-2005>
2.35904145240784

$$$$
85
                    3D
 Structure written by MMmdl.
163172  0  0  1  0            999 V2000
  -30.7182  -14.5614   20.5342 C   0  0  0  0  0  0
  -30.4180  -12.3586   19.4418 C   0  0  0  0  0  0
  -29.4957  -12.5077   18.2149 C   0  0  0  0  0  0
  -28.0194  -12.3614   18.6292 C   0  0  0  0  0  0
  -27.6543  -13.2263   19.8659 C   0  0  2  0  0  0
  -28.7029  -13.0861   20.9934 C   0  0  0  0  0  0
  -25.2553  -13.8199   20.5701 C   0  0  0  0  0  0
  -24.1830  -13.0449   20.9200 C   0  0  0  0  0  0
  -24.6411  -11.6922   20.8749 C   0  0  0  0  0  0
  -23.9082  -10.4297   21.0403 C   0  0  0  0  0  0
  -24.3628   -9.4208   21.9181 C   0  0  0  0  0  0
  -23.6300   -8.2244   22.0751 C   0  0  0  0  0  0
  -22.4279   -8.0285   21.3543 C   0  0  0  0  0  0
  -21.9918   -9.0260   20.4645 C   0  0  0  0  0  0
  -22.7253  -10.2138   20.3051 C   0  0  0  0  0  0
  -21.6855   -6.0738   22.5278 C   0  0  0  0  0  0
  -21.4014   -6.5640   23.8212 C   0  0  0  0  0  0
  -21.3659   -5.6789   24.9174 C   0  0  0  0  0  0
  -21.6043   -4.3052   24.7221 C   0  0  0  0  0  0
  -21.8821   -3.8146   23.4341 C   0  0  0  0  0  0
  -21.9194   -4.6964   22.3399 C   0  0  0  0  0  0
  -22.7847  -13.5228   21.1854 C   0  0  0  0  0  0
  -22.1663   -4.2150   21.0975 F   0  0  0  0  0  0
  -21.5628   -3.4535   25.7735 F   0  0  0  0  0  0
  -30.0227  -13.3896   20.4215 N   0  0  0  0  0  0
  -26.3005  -12.9406   20.3361 N   0  0  0  0  0  0
  -25.9348  -11.6548   20.5784 N   0  0  0  0  0  0
  -22.0490  -12.8214   22.0409 N   0  0  0  0  0  0
  -25.4255  -15.1919   20.4096 N   0  0  0  0  0  0
  -31.8704  -14.6674   20.1115 O   0  0  0  0  0  0
  -21.6642   -6.8880   21.4239 O   0  0  0  0  0  0
  -22.3532  -14.5535   20.6705 O   0  0  0  0  0  0
  -24.6273  -31.8639   23.2112 C   0  0  0  0  0  0
  -25.9133  -32.4799   23.8408 C   0  0  1  0  0  0
  -27.2006  -27.3231   20.0954 C   0  0  0  0  0  0
  -25.5970  -33.8600   24.2329 N   0  0  0  0  0  0
  -23.4178  -30.4981   21.5544 C   0  0  2  0  0  0
  -24.8592  -28.9778   20.1058 C   0  0  0  0  0  0
  -22.7480  -29.4664   22.4939 C   0  0  0  0  0  0
  -18.0289  -28.1386   22.8485 C   0  0  0  0  0  0
  -24.1494  -36.7288   23.2638 C   0  0  0  0  0  0
  -25.9658  -30.7934   21.3895 C   0  0  0  0  0  0
  -26.0339  -29.4275   20.7223 C   0  0  0  0  0  0
  -27.2072  -28.6100   20.7196 C   0  0  0  0  0  0
  -26.0031  -26.9684   19.4136 C   0  0  0  0  0  0
  -24.8459  -27.7508   19.4437 C   0  0  0  0  0  0
  -23.6301  -29.8552   20.1634 C   0  0  0  0  0  0
  -25.4116  -36.3086   24.0333 C   0  0  1  0  0  0
  -20.5894  -28.3699   23.1272 C   0  0  2  0  0  0
  -20.6787  -26.9423   22.5400 C   0  0  0  0  0  0
  -19.5756  -26.6386   21.5213 C   0  0  0  0  0  0
  -18.1935  -26.7930   22.1620 C   0  0  0  0  0  0
  -19.1542  -28.8861   23.2876 C   0  0  0  0  0  0
  -18.9464  -30.1464   23.8891 C   0  0  0  0  0  0
  -17.6463  -30.6591   24.0567 C   0  0  0  0  0  0
  -25.9055  -34.9457   23.5115 C   0  0  0  0  0  0
  -16.5354  -29.9086   23.6340 C   0  0  0  0  0  0
  -16.7277  -28.6505   23.0355 C   0  0  0  0  0  0
  -26.4517  -31.6594   25.0763 C   0  0  0  0  0  0
  -25.3758  -31.3712   26.1492 C   0  0  0  0  0  0
  -27.0364  -30.3017   24.6217 C   0  0  0  0  0  0
  -27.6079  -32.4331   25.7521 C   0  0  0  0  0  0
  -27.5576  -37.1804   24.8471 C   0  0  0  0  0  0
  -21.4196  -29.3061   22.3674 N   0  0  0  0  0  0
  -26.4291  -37.3784   23.9410 N   0  0  0  0  0  0
  -24.6891  -31.0671   22.1068 N   0  0  0  0  0  0
  -23.4215  -28.8166   23.2982 O   0  0  0  0  0  0
  -28.2649  -26.3955   20.1829 O   0  0  0  0  0  0
  -26.5599  -34.8915   22.4665 O   0  0  0  0  0  0
  -23.5438  -32.1434   23.7441 O   0  0  0  0  0  0
  -29.9038  -23.4440   20.5527 C   0  0  0  0  0  0
  -30.4093  -22.1100   20.6669 C   0  0  0  0  0  0
  -27.7736  -22.5111   19.9324 C   0  0  0  0  0  0
  -28.5644  -23.6671   20.1586 C   0  0  0  0  0  0
  -29.6206  -20.9517   20.3857 C   0  0  0  0  0  0
  -28.2689  -21.1865   20.0265 C   0  0  0  0  0  0
  -31.4542  -17.1192   22.4659 C   0  0  0  0  0  0
  -30.9400  -18.3778   23.1714 C   0  0  0  0  0  0
  -30.6843  -17.0282   21.1296 C   0  0  2  0  0  0
  -29.7287  -18.2944   21.1337 C   0  0  2  0  0  0
  -27.3249  -20.0486   19.6746 C   0  0  0  0  0  0
  -30.2845  -19.5311   20.3080 C   0  0  0  0  0  0
  -27.8568  -25.0177   19.8289 C   0  0  0  0  0  0
  -30.0630  -15.6663   20.9882 N   0  0  0  0  0  0
  -29.6409  -18.6770   22.5522 N   0  3  0  0  0  0
  -31.4626  -12.4433   19.1369 H   0  0  0  0  0  0
  -30.3181  -11.3640   19.8788 H   0  0  0  0  0  0
  -29.7469  -11.7625   17.4590 H   0  0  0  0  0  0
  -29.6533  -13.4815   17.7484 H   0  0  0  0  0  0
  -27.8413  -11.3080   18.8477 H   0  0  0  0  0  0
  -27.3666  -12.6109   17.7919 H   0  0  0  0  0  0
  -27.6736  -14.2636   19.5312 H   0  0  0  0  0  0
  -28.6975  -12.0730   21.3983 H   0  0  0  0  0  0
  -28.4645  -13.7445   21.8295 H   0  0  0  0  0  0
  -25.2774   -9.5682   22.4755 H   0  0  0  0  0  0
  -24.0010   -7.4633   22.7466 H   0  0  0  0  0  0
  -21.0850   -8.8780   19.8949 H   0  0  0  0  0  0
  -22.3714  -10.9675   19.6157 H   0  0  0  0  0  0
  -21.2004   -7.6147   23.9716 H   0  0  0  0  0  0
  -21.1477   -6.0518   25.9078 H   0  0  0  0  0  0
  -22.0600   -2.7607   23.2841 H   0  0  0  0  0  0
  -22.4111  -11.9872   22.4788 H   0  0  0  0  0  0
  -21.1105  -13.1230   22.2608 H   0  0  0  0  0  0
  -24.6530  -15.8429   20.5003 H   0  0  0  0  0  0
  -26.2673  -15.6244   20.0521 H   0  0  0  0  0  0
  -26.7193  -32.5464   23.1148 H   0  0  0  0  0  0
  -25.0191  -33.9762   25.0521 H   0  0  0  0  0  0
  -22.7111  -31.3198   21.4231 H   0  0  0  0  0  0
  -23.3758  -35.9621   23.3316 H   0  0  0  0  0  0
  -24.3590  -36.8882   22.2050 H   0  0  0  0  0  0
  -23.7245  -37.6495   23.6646 H   0  0  0  0  0  0
  -26.1080  -31.5618   20.6282 H   0  0  0  0  0  0
  -26.8437  -30.8294   22.0226 H   0  0  0  0  0  0
  -28.0977  -28.9433   21.2332 H   0  0  0  0  0  0
  -25.8864  -26.0560   18.8508 H   0  0  0  0  0  0
  -23.9531  -27.4087   18.9385 H   0  0  0  0  0  0
  -23.7497  -30.6420   19.4178 H   0  0  0  0  0  0
  -22.7492  -29.2899   19.8534 H   0  0  0  0  0  0
  -25.1292  -36.1945   25.0827 H   0  0  0  0  0  0
  -20.9986  -28.3267   24.1392 H   0  0  0  0  0  0
  -20.5709  -26.2305   23.3596 H   0  0  0  0  0  0
  -21.6650  -26.7465   22.1176 H   0  0  0  0  0  0
  -19.6920  -25.6298   21.1240 H   0  0  0  0  0  0
  -19.6688  -27.3201   20.6745 H   0  0  0  0  0  0
  -17.4206  -26.6689   21.4023 H   0  0  0  0  0  0
  -18.0332  -26.0070   22.9013 H   0  0  0  0  0  0
  -19.7942  -30.7287   24.2246 H   0  0  0  0  0  0
  -17.5019  -31.6271   24.5170 H   0  0  0  0  0  0
  -15.5357  -30.2985   23.7676 H   0  0  0  0  0  0
  -15.8672  -28.0826   22.7070 H   0  0  0  0  0  0
  -24.5966  -30.7016   25.7832 H   0  0  0  0  0  0
  -24.8915  -32.2864   26.4905 H   0  0  0  0  0  0
  -25.8104  -30.8917   27.0272 H   0  0  0  0  0  0
  -26.2936  -29.6762   24.1250 H   0  0  0  0  0  0
  -27.4069  -29.7274   25.4721 H   0  0  0  0  0  0
  -27.8813  -30.4299   23.9445 H   0  0  0  0  0  0
  -27.2702  -33.3657   26.2050 H   0  0  0  0  0  0
  -28.3909  -32.6842   25.0353 H   0  0  0  0  0  0
  -28.0724  -31.8484   26.5471 H   0  0  0  0  0  0
  -28.2601  -38.0096   24.7513 H   0  0  0  0  0  0
  -28.1059  -36.2624   24.6302 H   0  0  0  0  0  0
  -27.2289  -37.1454   25.8874 H   0  0  0  0  0  0
  -20.9368  -29.8807   21.6906 H   0  0  0  0  0  0
  -26.0167  -38.2856   24.1417 H   0  0  0  0  0  0
  -30.5581  -24.2866   20.7292 H   0  0  0  0  0  0
  -31.4521  -21.9859   20.9257 H   0  0  0  0  0  0
  -26.7467  -22.6511   19.6216 H   0  0  0  0  0  0
  -31.2594  -16.2498   23.0953 H   0  0  0  0  0  0
  -32.5335  -17.1645   22.3145 H   0  0  0  0  0  0
  -31.6194  -19.2120   22.9880 H   0  0  0  0  0  0
  -30.8587  -18.2523   24.2518 H   0  0  0  0  0  0
  -31.3876  -17.1567   20.3038 H   0  0  0  0  0  0
  -28.7416  -18.0167   20.7690 H   0  0  0  0  0  0
  -26.4295  -20.4158   19.1719 H   0  0  0  0  0  0
  -26.9982  -19.5299   20.5758 H   0  0  0  0  0  0
  -27.7966  -19.3335   19.0009 H   0  0  0  0  0  0
  -31.3400  -19.6570   20.5513 H   0  0  0  0  0  0
  -30.2870  -19.2473   19.2551 H   0  0  0  0  0  0
  -26.8906  -24.8436   20.3065 H   0  0  0  0  0  0
  -27.7175  -24.9885   18.7469 H   0  0  0  0  0  0
  -29.1009  -15.5432   21.2666 H   0  0  0  0  0  0
  -29.3833  -19.6451   22.6614 H   0  0  0  0  0  0
  -28.9383  -18.1090   22.9977 H   0  0  0  0  0  0
  1 25  1  0  0  0
  1 30  2  0  0  0
  1 84  1  0  0  0
  2  3  1  0  0  0
  2 25  1  0  0  0
  2 86  1  0  0  0
  2 87  1  0  0  0
  3  4  1  0  0  0
  3 88  1  0  0  0
  3 89  1  0  0  0
  4  5  1  0  0  0
  4 90  1  0  0  0
  4 91  1  0  0  0
  5  6  1  0  0  0
  5 26  1  0  0  0
  5 92  1  0  0  0
  6 25  1  0  0  0
  6 93  1  0  0  0
  6 94  1  0  0  0
  7  8  2  0  0  0
  7 26  1  0  0  0
  7 29  1  0  0  0
  8  9  1  0  0  0
  8 22  1  0  0  0
  9 10  1  0  0  0
  9 27  2  0  0  0
 10 11  2  0  0  0
 10 15  1  0  0  0
 11 12  1  0  0  0
 11 95  1  0  0  0
 12 13  2  0  0  0
 12 96  1  0  0  0
 13 14  1  0  0  0
 13 31  1  0  0  0
 14 15  2  0  0  0
 14 97  1  0  0  0
 15 98  1  0  0  0
 16 17  2  0  0  0
 16 21  1  0  0  0
 16 31  1  0  0  0
 17 18  1  0  0  0
 17 99  1  0  0  0
 18 19  2  0  0  0
 18100  1  0  0  0
 19 20  1  0  0  0
 19 24  1  0  0  0
 20 21  2  0  0  0
 20101  1  0  0  0
 21 23  1  0  0  0
 22 28  1  0  0  0
 22 32  2  0  0  0
 26 27  1  0  0  0
 28102  1  0  0  0
 28103  1  0  0  0
 29104  1  0  0  0
 29105  1  0  0  0
 33 34  1  0  0  0
 33 66  1  0  0  0
 33 70  2  0  0  0
 34 36  1  0  0  0
 34 59  1  0  0  0
 34106  1  0  0  0
 35 44  2  0  0  0
 35 45  1  0  0  0
 35 68  1  0  0  0
 36 56  1  0  0  0
 36107  1  0  0  0
 37 39  1  0  0  0
 37 47  1  0  0  0
 37 66  1  0  0  0
 37108  1  0  0  0
 38 43  2  0  0  0
 38 46  1  0  0  0
 38 47  1  0  0  0
 39 64  1  0  0  0
 39 67  2  0  0  0
 40 52  1  0  0  0
 40 53  2  0  0  0
 40 58  1  0  0  0
 41109  1  0  0  0
 41110  1  0  0  0
 41111  1  0  0  0
 41 48  1  0  0  0
 42 43  1  0  0  0
 42 66  1  0  0  0
 42112  1  0  0  0
 42113  1  0  0  0
 43 44  1  0  0  0
 44114  1  0  0  0
 45 46  2  0  0  0
 45115  1  0  0  0
 46116  1  0  0  0
 47117  1  0  0  0
 47118  1  0  0  0
 48 56  1  0  0  0
 48 65  1  0  0  0
 48119  1  0  0  0
 49 50  1  0  0  0
 49 53  1  0  0  0
 49 64  1  0  0  0
 49120  1  0  0  0
 50 51  1  0  0  0
 50121  1  0  0  0
 50122  1  0  0  0
 51 52  1  0  0  0
 51123  1  0  0  0
 51124  1  0  0  0
 52125  1  0  0  0
 52126  1  0  0  0
 53 54  1  0  0  0
 54 55  2  0  0  0
 54127  1  0  0  0
 55 57  1  0  0  0
 55128  1  0  0  0
 56 69  2  0  0  0
 57 58  2  0  0  0
 57129  1  0  0  0
 58130  1  0  0  0
 59 60  1  0  0  0
 59 61  1  0  0  0
 59 62  1  0  0  0
 60131  1  0  0  0
 60132  1  0  0  0
 60133  1  0  0  0
 61134  1  0  0  0
 61135  1  0  0  0
 61136  1  0  0  0
 62137  1  0  0  0
 62138  1  0  0  0
 62139  1  0  0  0
 63 65  1  0  0  0
 63140  1  0  0  0
 63141  1  0  0  0
 63142  1  0  0  0
 64143  1  0  0  0
 65144  1  0  0  0
 68 83  1  0  0  0
 71 72  2  0  0  0
 71 74  1  0  0  0
 71145  1  0  0  0
 72 75  1  0  0  0
 72146  1  0  0  0
 73 74  2  0  0  0
 73 76  1  0  0  0
 73147  1  0  0  0
 74 83  1  0  0  0
 75 76  2  0  0  0
 75 82  1  0  0  0
 76 81  1  0  0  0
 77 78  1  0  0  0
 77 79  1  0  0  0
 77148  1  0  0  0
 77149  1  0  0  0
 78 85  1  0  0  0
 78150  1  0  0  0
 78151  1  0  0  0
 79 80  1  0  0  0
 79 84  1  0  0  0
 79152  1  0  0  0
 80 82  1  0  0  0
 80 85  1  0  0  0
 80153  1  0  0  0
 81154  1  0  0  0
 81155  1  0  0  0
 81156  1  0  0  0
 82157  1  0  0  0
 82158  1  0  0  0
 83159  1  0  0  0
 83160  1  0  0  0
 84161  1  0  0  0
 85162  1  0  0  0
 85163  1  0  0  0
M  CHG  1  85   1
M  ISO  4   1 100  68 101  83 101  84 100
M  END
> <chiral flag>
0

> <version>
0

> <s_m_source_file>
/data/baiqing/PycharmProjects/Reinvent-master-3.2/result/LINK_invent/BTK/process_docking_weight1_custom_sum_contain_oxygen_bond_distance_aromatic_linkinvent_7_9_3/rearranged_h_0134.sdf

> <i_m_source_file_index>
86

> <r_mmod_Potential_Energy-OPLS-2005>
-7.94153356552124

> <r_mmod_Stretch_Energy-OPLS-2005>
73.3003845214844

> <r_mmod_Bend_Energy-OPLS-2005>
180.730728149414

> <r_mmod_Torsional_Energy-OPLS-2005>
316.866851806641

> <r_mmod_Improper_Torsional_Energy-OPLS-2005>
4.3983998298645

> <r_mmod_Van_der_Waal_Energy-OPLS-2005>
162.779495239258

> <r_mmod_Electrostatic_Energy-OPLS-2005>
-312.317108154297

> <r_mmod_Solvation_Energy-OPLS-2005>
-481.433319091797

> <b_mmod_Minimization_Converged-OPLS-2005>
0

> <r_mmod_RMS_Derivative-OPLS-2005>
0.967474758625031

$$$$
86
                    3D
 Structure written by MMmdl.
164173  0  0  1  0            999 V2000
  -30.5407  -14.9328   20.3901 C   0  0  0  0  0  0
  -30.4292  -12.5729   19.4536 C   0  0  0  0  0  0
  -29.4937  -12.5152   18.2255 C   0  0  0  0  0  0
  -28.0280  -12.3266   18.6529 C   0  0  0  0  0  0
  -27.6256  -13.2494   19.8336 C   0  0  2  0  0  0
  -28.6817  -13.2619   20.9546 C   0  0  0  0  0  0
  -25.2456  -13.8254   20.5711 C   0  0  0  0  0  0
  -24.1784  -13.0425   20.9237 C   0  0  0  0  0  0
  -24.6430  -11.6949   20.8811 C   0  0  0  0  0  0
  -23.9149  -10.4288   21.0470 C   0  0  0  0  0  0
  -24.3692   -9.4183   21.9225 C   0  0  0  0  0  0
  -23.6337   -8.2233   22.0777 C   0  0  0  0  0  0
  -22.4301   -8.0306   21.3555 C   0  0  0  0  0  0
  -21.9968   -9.0304   20.4655 C   0  0  0  0  0  0
  -22.7346  -10.2156   20.3089 C   0  0  0  0  0  0
  -21.6832   -6.0760   22.5282 C   0  0  0  0  0  0
  -21.4020   -6.5653   23.8228 C   0  0  0  0  0  0
  -21.3660   -5.6795   24.9187 C   0  0  0  0  0  0
  -21.6036   -4.3064   24.7219 C   0  0  0  0  0  0
  -21.8834   -3.8168   23.4332 C   0  0  0  0  0  0
  -21.9213   -4.6993   22.3397 C   0  0  0  0  0  0
  -22.7809  -13.5196   21.1924 C   0  0  0  0  0  0
  -22.1664   -4.2173   21.0974 F   0  0  0  0  0  0
  -21.5633   -3.4553   25.7734 F   0  0  0  0  0  0
  -29.9432  -13.6782   20.3266 N   0  0  0  0  0  0
  -26.2876  -12.9485   20.3277 N   0  0  0  0  0  0
  -25.9350  -11.6616   20.5812 N   0  0  0  0  0  0
  -22.0510  -12.8087   22.0451 N   0  0  0  0  0  0
  -25.4129  -15.1963   20.4120 N   0  0  0  0  0  0
  -31.7619  -14.9826   20.2173 O   0  0  0  0  0  0
  -21.6642   -6.8907   21.4246 O   0  0  0  0  0  0
  -22.3471  -14.5517   20.6851 O   0  0  0  0  0  0
  -24.6443  -31.8381   23.1831 C   0  0  0  0  0  0
  -25.9222  -32.4645   23.8235 C   0  0  1  0  0  0
  -27.2262  -27.1041   20.1342 C   0  0  0  0  0  0
  -25.5929  -33.8444   24.2116 N   0  0  0  0  0  0
  -23.4522  -30.4494   21.5365 C   0  0  2  0  0  0
  -24.9021  -28.8732   20.1117 C   0  0  0  0  0  0
  -22.7655  -29.4417   22.4932 C   0  0  0  0  0  0
  -18.0327  -28.1300   22.8444 C   0  0  0  0  0  0
  -24.1515  -36.7208   23.2643 C   0  0  0  0  0  0
  -26.0119  -30.6925   21.3991 C   0  0  0  0  0  0
  -26.0830  -29.3052   20.7292 C   0  0  0  0  0  0
  -27.2450  -28.4395   20.7225 C   0  0  0  0  0  0
  -26.0128  -26.7750   19.4886 C   0  0  0  0  0  0
  -24.8825  -27.6207   19.4781 C   0  0  0  0  0  0
  -23.6774  -29.7752   20.1592 C   0  0  0  0  0  0
  -25.4134  -36.2986   24.0320 C   0  0  1  0  0  0
  -20.5933  -28.3568   23.1276 C   0  0  2  0  0  0
  -20.6821  -26.9281   22.5413 C   0  0  0  0  0  0
  -19.5801  -26.6284   21.5218 C   0  0  0  0  0  0
  -18.1964  -26.7831   22.1592 C   0  0  0  0  0  0
  -19.1588  -28.8777   23.2798 C   0  0  0  0  0  0
  -18.9497  -30.1409   23.8768 C   0  0  0  0  0  0
  -17.6492  -30.6507   24.0503 C   0  0  0  0  0  0
  -25.9086  -34.9376   23.5033 C   0  0  0  0  0  0
  -16.5372  -29.8969   23.6342 C   0  0  0  0  0  0
  -16.7326  -28.6399   23.0326 C   0  0  0  0  0  0
  -26.4516  -31.6557   25.0713 C   0  0  0  0  0  0
  -25.3600  -31.3839   26.1334 C   0  0  0  0  0  0
  -27.0450  -30.2952   24.6403 C   0  0  0  0  0  0
  -27.6014  -32.4393   25.7482 C   0  0  0  0  0  0
  -27.5603  -37.1742   24.8458 C   0  0  0  0  0  0
  -21.4340  -29.2871   22.3677 N   0  0  0  0  0  0
  -26.4309  -37.3697   23.9418 N   0  0  0  0  0  0
  -24.7222  -31.0187   22.0910 N   0  0  0  0  0  0
  -23.4305  -28.7988   23.3104 O   0  0  0  0  0  0
  -28.2876  -26.1186   20.1802 O   0  0  0  0  0  0
  -26.5723  -34.8899   22.4650 O   0  0  0  0  0  0
  -23.5563  -32.1291   23.7024 O   0  0  0  0  0  0
  -28.7393  -21.8111   21.9986 C   0  0  0  0  0  0
  -29.2936  -23.0997   22.5831 C   0  0  0  0  0  0
  -30.0506  -23.6848   21.3898 C   0  0  0  0  0  0
  -31.4031  -19.8785   20.4792 C   0  0  0  0  0  0
  -32.3771  -19.2208   21.4653 C   0  0  0  0  0  0
  -30.9645  -17.4134   22.2125 C   0  0  0  0  0  0
  -30.0639  -19.1142   20.2043 C   0  0  1  0  0  0
  -29.9498  -17.5998   21.0310 C   0  0  1  0  0  0
  -29.1592  -23.2933   20.2073 C   0  0  2  0  0  0
  -28.8972  -20.3518   19.9825 C   0  0  0  0  0  0
  -28.0357  -24.5720   20.0585 C   0  0  0  0  0  0
  -28.8337  -21.7946   20.6597 N   0  0  0  0  0  0
  -29.7539  -16.1259   20.4578 N   0  0  0  0  0  0
  -31.6584  -18.6373   22.6172 N   0  3  0  0  0  0
  -28.3649  -20.8756   22.7113 O   0  0  0  0  0  0
  -31.4589  -12.7312   19.1278 H   0  0  0  0  0  0
  -30.4196  -11.6215   19.9881 H   0  0  0  0  0  0
  -29.7793  -11.7056   17.5507 H   0  0  0  0  0  0
  -29.5873  -13.4403   17.6577 H   0  0  0  0  0  0
  -27.8967  -11.2818   18.9340 H   0  0  0  0  0  0
  -27.3611  -12.5002   17.8063 H   0  0  0  0  0  0
  -27.5892  -14.2557   19.4169 H   0  0  0  0  0  0
  -28.7705  -12.2799   21.4228 H   0  0  0  0  0  0
  -28.4041  -13.9567   21.7501 H   0  0  0  0  0  0
  -25.2845   -9.5609   22.4809 H   0  0  0  0  0  0
  -24.0026   -7.4603   22.7484 H   0  0  0  0  0  0
  -21.0907   -8.8880   19.8942 H   0  0  0  0  0  0
  -22.3864  -10.9735   19.6212 H   0  0  0  0  0  0
  -21.2005   -7.6158   23.9722 H   0  0  0  0  0  0
  -21.1449   -6.0527   25.9073 H   0  0  0  0  0  0
  -22.0605   -2.7638   23.2834 H   0  0  0  0  0  0
  -22.4170  -11.9665   22.4649 H   0  0  0  0  0  0
  -21.1180  -13.1104   22.2870 H   0  0  0  0  0  0
  -24.6466  -15.8503   20.5299 H   0  0  0  0  0  0
  -26.2502  -15.6385   20.0538 H   0  0  0  0  0  0
  -26.7242  -32.5242   23.0902 H   0  0  0  0  0  0
  -25.0017  -33.9541   25.0231 H   0  0  0  0  0  0
  -22.7493  -31.2686   21.3846 H   0  0  0  0  0  0
  -23.3826  -35.9500   23.3270 H   0  0  0  0  0  0
  -24.3563  -36.8896   22.2063 H   0  0  0  0  0  0
  -23.7260  -37.6367   23.6721 H   0  0  0  0  0  0
  -26.2091  -31.4622   20.6508 H   0  0  0  0  0  0
  -26.8600  -30.7083   22.0721 H   0  0  0  0  0  0
  -28.1446  -28.7632   21.2291 H   0  0  0  0  0  0
  -25.8996  -25.8196   18.9956 H   0  0  0  0  0  0
  -23.9774  -27.2830   18.9903 H   0  0  0  0  0  0
  -23.8000  -30.5481   19.4007 H   0  0  0  0  0  0
  -22.7932  -29.2075   19.8617 H   0  0  0  0  0  0
  -25.1335  -36.1801   25.0821 H   0  0  0  0  0  0
  -20.9974  -28.3106   24.1419 H   0  0  0  0  0  0
  -20.5815  -26.2121   23.3590 H   0  0  0  0  0  0
  -21.6676  -26.7329   22.1149 H   0  0  0  0  0  0
  -19.6997  -25.6209   21.1224 H   0  0  0  0  0  0
  -19.6791  -27.3121   20.6785 H   0  0  0  0  0  0
  -17.4261  -26.6599   21.3952 H   0  0  0  0  0  0
  -18.0304  -25.9964   22.8982 H   0  0  0  0  0  0
  -19.7987  -30.7247   24.2065 H   0  0  0  0  0  0
  -17.5036  -31.6220   24.5072 H   0  0  0  0  0  0
  -15.5352  -30.2794   23.7774 H   0  0  0  0  0  0
  -15.8722  -28.0727   22.7029 H   0  0  0  0  0  0
  -24.5823  -30.7136   25.7629 H   0  0  0  0  0  0
  -24.8693  -32.3056   26.4477 H   0  0  0  0  0  0
  -25.7728  -30.9196   27.0300 H   0  0  0  0  0  0
  -26.3135  -29.6580   24.1398 H   0  0  0  0  0  0
  -27.4036  -29.7319   25.5025 H   0  0  0  0  0  0
  -27.9034  -30.4178   23.9797 H   0  0  0  0  0  0
  -27.2594  -33.3773   26.1852 H   0  0  0  0  0  0
  -28.3861  -32.6829   25.0322 H   0  0  0  0  0  0
  -28.0607  -31.8667   26.5536 H   0  0  0  0  0  0
  -28.2541  -38.0114   24.7555 H   0  0  0  0  0  0
  -28.1191  -36.2634   24.6230 H   0  0  0  0  0  0
  -27.2305  -37.1273   25.8854 H   0  0  0  0  0  0
  -20.9600  -29.8469   21.6721 H   0  0  0  0  0  0
  -26.0196  -38.2786   24.1424 H   0  0  0  0  0  0
  -29.9301  -22.9205   23.4494 H   0  0  0  0  0  0
  -28.4592  -23.7364   22.8789 H   0  0  0  0  0  0
  -31.0249  -23.1993   21.2986 H   0  0  0  0  0  0
  -30.2405  -24.7541   21.4717 H   0  0  0  0  0  0
  -31.9290  -20.0846   19.5413 H   0  0  0  0  0  0
  -31.2050  -20.8734   20.8807 H   0  0  0  0  0  0
  -33.0974  -19.9669   21.8092 H   0  0  0  0  0  0
  -32.9695  -18.4536   20.9601 H   0  0  0  0  0  0
  -31.7774  -16.7244   21.9776 H   0  0  0  0  0  0
  -30.4651  -16.9727   23.0777 H   0  0  0  0  0  0
  -30.1789  -18.7364   19.1871 H   0  0  0  0  0  0
  -28.9870  -17.7411   21.5204 H   0  0  0  0  0  0
  -29.7736  -23.2655   19.3071 H   0  0  0  0  0  0
  -27.9169  -19.8998   20.1469 H   0  0  0  0  0  0
  -28.8884  -20.5635   18.9099 H   0  0  0  0  0  0
  -27.2157  -24.3592   20.7432 H   0  0  0  0  0  0
  -27.6040  -24.4373   19.0678 H   0  0  0  0  0  0
  -28.7744  -15.9156   20.3387 H   0  0  0  0  0  0
  -31.0158  -19.2845   23.0466 H   0  0  0  0  0  0
  -32.3320  -18.3706   23.3199 H   0  0  0  0  0  0
  1 25  1  0  0  0
  1 30  2  0  0  0
  1 83  1  0  0  0
  2  3  1  0  0  0
  2 25  1  0  0  0
  2 86  1  0  0  0
  2 87  1  0  0  0
  3  4  1  0  0  0
  3 88  1  0  0  0
  3 89  1  0  0  0
  4  5  1  0  0  0
  4 90  1  0  0  0
  4 91  1  0  0  0
  5  6  1  0  0  0
  5 26  1  0  0  0
  5 92  1  0  0  0
  6 25  1  0  0  0
  6 93  1  0  0  0
  6 94  1  0  0  0
  7  8  2  0  0  0
  7 26  1  0  0  0
  7 29  1  0  0  0
  8  9  1  0  0  0
  8 22  1  0  0  0
  9 10  1  0  0  0
  9 27  2  0  0  0
 10 11  2  0  0  0
 10 15  1  0  0  0
 11 12  1  0  0  0
 11 95  1  0  0  0
 12 13  2  0  0  0
 12 96  1  0  0  0
 13 14  1  0  0  0
 13 31  1  0  0  0
 14 15  2  0  0  0
 14 97  1  0  0  0
 15 98  1  0  0  0
 16 17  2  0  0  0
 16 21  1  0  0  0
 16 31  1  0  0  0
 17 18  1  0  0  0
 17 99  1  0  0  0
 18 19  2  0  0  0
 18100  1  0  0  0
 19 20  1  0  0  0
 19 24  1  0  0  0
 20 21  2  0  0  0
 20101  1  0  0  0
 21 23  1  0  0  0
 22 28  1  0  0  0
 22 32  2  0  0  0
 26 27  1  0  0  0
 28102  1  0  0  0
 28103  1  0  0  0
 29104  1  0  0  0
 29105  1  0  0  0
 33 34  1  0  0  0
 33 66  1  0  0  0
 33 70  2  0  0  0
 34 36  1  0  0  0
 34 59  1  0  0  0
 34106  1  0  0  0
 35 44  2  0  0  0
 35 45  1  0  0  0
 35 68  1  0  0  0
 36 56  1  0  0  0
 36107  1  0  0  0
 37 39  1  0  0  0
 37 47  1  0  0  0
 37 66  1  0  0  0
 37108  1  0  0  0
 38 43  2  0  0  0
 38 46  1  0  0  0
 38 47  1  0  0  0
 39 64  1  0  0  0
 39 67  2  0  0  0
 40 52  1  0  0  0
 40 53  2  0  0  0
 40 58  1  0  0  0
 41109  1  0  0  0
 41110  1  0  0  0
 41111  1  0  0  0
 41 48  1  0  0  0
 42 43  1  0  0  0
 42 66  1  0  0  0
 42112  1  0  0  0
 42113  1  0  0  0
 43 44  1  0  0  0
 44114  1  0  0  0
 45 46  2  0  0  0
 45115  1  0  0  0
 46116  1  0  0  0
 47117  1  0  0  0
 47118  1  0  0  0
 48 56  1  0  0  0
 48 65  1  0  0  0
 48119  1  0  0  0
 49 50  1  0  0  0
 49 53  1  0  0  0
 49 64  1  0  0  0
 49120  1  0  0  0
 50 51  1  0  0  0
 50121  1  0  0  0
 50122  1  0  0  0
 51 52  1  0  0  0
 51123  1  0  0  0
 51124  1  0  0  0
 52125  1  0  0  0
 52126  1  0  0  0
 53 54  1  0  0  0
 54 55  2  0  0  0
 54127  1  0  0  0
 55 57  1  0  0  0
 55128  1  0  0  0
 56 69  2  0  0  0
 57 58  2  0  0  0
 57129  1  0  0  0
 58130  1  0  0  0
 59 60  1  0  0  0
 59 61  1  0  0  0
 59 62  1  0  0  0
 60131  1  0  0  0
 60132  1  0  0  0
 60133  1  0  0  0
 61134  1  0  0  0
 61135  1  0  0  0
 61136  1  0  0  0
 62137  1  0  0  0
 62138  1  0  0  0
 62139  1  0  0  0
 63 65  1  0  0  0
 63140  1  0  0  0
 63141  1  0  0  0
 63142  1  0  0  0
 64143  1  0  0  0
 65144  1  0  0  0
 68 81  1  0  0  0
 71 72  1  0  0  0
 71 82  1  0  0  0
 71 85  2  0  0  0
 72 73  1  0  0  0
 72145  1  0  0  0
 72146  1  0  0  0
 73 79  1  0  0  0
 73147  1  0  0  0
 73148  1  0  0  0
 74 75  1  0  0  0
 74 77  1  0  0  0
 74149  1  0  0  0
 74150  1  0  0  0
 75 84  1  0  0  0
 75151  1  0  0  0
 75152  1  0  0  0
 76 78  1  0  0  0
 76 84  1  0  0  0
 76153  1  0  0  0
 76154  1  0  0  0
 77 78  1  0  0  0
 77 80  1  0  0  0
 77155  1  0  0  0
 78 83  1  0  0  0
 78156  1  0  0  0
 79 81  1  0  0  0
 79 82  1  0  0  0
 79157  1  0  0  0
 80 82  1  0  0  0
 80158  1  0  0  0
 80159  1  0  0  0
 81160  1  0  0  0
 81161  1  0  0  0
 83162  1  0  0  0
 84163  1  0  0  0
 84164  1  0  0  0
M  CHG  1  84   1
M  ISO  4   1 100  68 101  81 101  83 100
M  END
> <chiral flag>
0

> <version>
0

> <s_m_source_file>
/data/baiqing/PycharmProjects/Reinvent-master-3.2/result/LINK_invent/BTK/process_docking_weight1_custom_sum_contain_oxygen_bond_distance_aromatic_linkinvent_7_9_3/rearranged_h_0134.sdf

> <i_m_source_file_index>
87

> <r_mmod_Potential_Energy-OPLS-2005>
569.298522949219

> <r_mmod_Stretch_Energy-OPLS-2005>
333.723236083984

> <r_mmod_Bend_Energy-OPLS-2005>
400.783264160156

> <r_mmod_Torsional_Energy-OPLS-2005>
350.552551269531

> <r_mmod_Improper_Torsional_Energy-OPLS-2005>
5.92955017089844

> <r_mmod_Van_der_Waal_Energy-OPLS-2005>
117.016990661621

> <r_mmod_Electrostatic_Energy-OPLS-2005>
-369.334625244141

> <r_mmod_Solvation_Energy-OPLS-2005>
-469.511077880859

> <b_mmod_Minimization_Converged-OPLS-2005>
0

> <r_mmod_RMS_Derivative-OPLS-2005>
6.50100660324097

$$$$
87
                    3D
 Structure written by MMmdl.
160168  0  0  1  0            999 V2000
  -27.4152  -13.1230   21.1713 C   0  0  0  0  0  0
  -30.2272  -13.0165   20.0686 C   0  0  0  0  0  0
  -30.2555  -12.8041   18.3756 C   0  0  0  0  0  0
  -28.8535  -12.4626   17.7016 C   0  0  0  0  0  0
  -28.1729  -12.8606   18.8345 C   0  0  2  0  0  0
  -28.7203  -11.7410   19.9471 C   0  0  0  0  0  0
  -25.8526  -14.5603   20.3470 C   0  0  0  0  0  0
  -24.9781  -13.5391   21.5360 C   0  0  0  0  0  0
  -25.3067  -11.7443   21.2868 C   0  0  0  0  0  0
  -24.2531  -10.5530   21.3065 C   0  0  0  0  0  0
  -24.5348   -9.4253   22.1116 C   0  0  0  0  0  0
  -23.7043   -8.2695   22.1742 C   0  0  0  0  0  0
  -22.5271   -8.1428   21.4069 C   0  0  0  0  0  0
  -22.2191   -9.2250   20.5490 C   0  0  0  0  0  0
  -23.0575  -10.3948   20.5023 C   0  0  0  0  0  0
  -21.7082   -6.1310   22.5099 C   0  0  0  0  0  0
  -21.4156   -6.5925   23.8116 C   0  0  0  0  0  0
  -21.3649   -5.6976   24.9002 C   0  0  0  0  0  0
  -21.6006   -4.3223   24.7001 C   0  0  0  0  0  0
  -21.8767   -3.8515   23.4072 C   0  0  0  0  0  0
  -21.9275   -4.7418   22.3178 C   0  0  0  0  0  0
  -23.3950  -13.7809   21.6389 C   0  0  0  0  0  0
  -22.1732   -4.2581   21.0777 F   0  0  0  0  0  0
  -21.5572   -3.4619   25.7476 F   0  0  0  0  0  0
  -28.8224  -12.6430   20.8210 N   0  0  0  0  0  0
  -26.8963  -13.1665   19.0077 N   0  0  0  0  0  0
  -26.3635  -11.4286   19.9252 N   0  0  0  0  0  0
  -22.6019  -12.9580   22.3285 N   0  0  0  0  0  0
  -26.0955  -15.8755   20.4250 N   0  0  0  0  0  0
  -28.2782  -14.1662   21.2285 O   0  0  0  0  0  0
  -21.7240   -6.9991   21.4276 O   0  0  0  0  0  0
  -22.7892  -14.6492   20.9941 O   0  0  0  0  0  0
  -24.6206  -31.8711   23.2163 C   0  0  0  0  0  0
  -25.9120  -32.4819   23.8441 C   0  0  1  0  0  0
  -27.1249  -27.3406   20.0655 C   0  0  0  0  0  0
  -25.5981  -33.8622   24.2352 N   0  0  0  0  0  0
  -23.4034  -30.5119   21.5551 C   0  0  2  0  0  0
  -24.8371  -28.9954   20.0817 C   0  0  0  0  0  0
  -22.7391  -29.4747   22.4918 C   0  0  0  0  0  0
  -18.0259  -28.1377   22.8461 C   0  0  0  0  0  0
  -24.1474  -36.7311   23.2633 C   0  0  0  0  0  0
  -25.9489  -30.7839   21.4064 C   0  0  0  0  0  0
  -26.0008  -29.4211   20.7395 C   0  0  0  0  0  0
  -27.1540  -28.5839   20.7653 C   0  0  0  0  0  0
  -26.0227  -27.0567   19.2636 C   0  0  0  0  0  0
  -24.8493  -27.8166   19.3271 C   0  0  0  0  0  0
  -23.6118  -29.8798   20.1540 C   0  0  0  0  0  0
  -25.4097  -36.3091   24.0323 C   0  0  1  0  0  0
  -20.5859  -28.3702   23.1243 C   0  0  2  0  0  0
  -20.6789  -26.9449   22.5354 C   0  0  0  0  0  0
  -19.5766  -26.6379   21.5162 C   0  0  0  0  0  0
  -18.1939  -26.7915   22.1588 C   0  0  0  0  0  0
  -19.1514  -28.8842   23.2854 C   0  0  0  0  0  0
  -18.9473  -30.1454   23.8862 C   0  0  0  0  0  0
  -17.6492  -30.6604   24.0551 C   0  0  0  0  0  0
  -25.9060  -34.9466   23.5118 C   0  0  0  0  0  0
  -16.5372  -29.9103   23.6354 C   0  0  0  0  0  0
  -16.7254  -28.6510   23.0374 C   0  0  0  0  0  0
  -26.4499  -31.6632   25.0821 C   0  0  0  0  0  0
  -25.3752  -31.3847   26.1584 C   0  0  0  0  0  0
  -27.0370  -30.3039   24.6333 C   0  0  0  0  0  0
  -27.6022  -32.4391   25.7626 C   0  0  0  0  0  0
  -27.5562  -37.1805   24.8452 C   0  0  0  0  0  0
  -21.4117  -29.3090   22.3640 N   0  0  0  0  0  0
  -26.4260  -37.3796   23.9419 N   0  0  0  0  0  0
  -24.6748  -31.0728   22.1134 N   0  0  0  0  0  0
  -23.4193  -28.8272   23.2938 O   0  0  0  0  0  0
  -28.0708  -26.3333   20.1171 O   0  0  0  0  0  0
  -26.5578  -34.8909   22.4661 O   0  0  0  0  0  0
  -23.5395  -32.1571   23.7499 O   0  0  0  0  0  0
  -25.6550  -23.8268   19.5026 C   0  0  0  0  0  0
  -27.2741  -22.5375   20.6819 C   0  0  0  0  0  0
  -24.9877  -22.6247   19.1257 C   0  0  0  0  0  0
  -26.5845  -21.3277   20.3483 C   0  0  0  0  0  0
  -26.8646  -23.8386   20.2584 C   0  0  0  0  0  0
  -25.4204  -21.3386   19.5410 C   0  0  0  0  0  0
  -27.6370  -25.1104   20.8527 C   0  0  0  0  0  0
  -24.3101  -13.6942   18.2043 C   0  0  0  0  0  0
  -23.7088  -15.2069   18.1882 C   0  0  0  0  0  0
  -23.9785  -17.7329   18.9304 C   0  0  0  0  0  0
  -25.0322  -18.8256   19.4421 C   0  0  0  0  0  0
  -24.8595  -12.8904   19.4272 N   0  0  0  0  0  0
  -24.5814  -16.4308   18.4081 N   0  3  0  0  0  0
  -24.6606  -20.2132   19.1564 O   0  0  0  0  0  0
  -30.4649  -14.0657   20.2571 H   0  0  0  0  0  0
  -31.0599  -12.4939   20.5396 H   0  0  0  0  0  0
  -30.9735  -12.0175   18.1296 H   0  0  0  0  0  0
  -30.6569  -13.7051   17.9151 H   0  0  0  0  0  0
  -28.7233  -11.4098   17.4549 H   0  0  0  0  0  0
  -28.6711  -13.0861   16.8298 H   0  0  0  0  0  0
  -28.4513  -13.9343   18.8682 H   0  0  0  0  0  0
  -29.5445  -11.0486   19.6760 H   0  0  0  0  0  0
  -28.3342  -10.8420   20.4417 H   0  0  0  0  0  0
  -25.4286   -9.4402   22.7165 H   0  0  0  0  0  0
  -24.0107   -7.4637   22.8273 H   0  0  0  0  0  0
  -21.3458   -9.1653   19.9190 H   0  0  0  0  0  0
  -22.7692  -11.2007   19.8437 H   0  0  0  0  0  0
  -21.2216   -7.6432   23.9777 H   0  0  0  0  0  0
  -21.1411   -6.0616   25.8896 H   0  0  0  0  0  0
  -22.0473   -2.7972   23.2450 H   0  0  0  0  0  0
  -22.9935  -12.2433   22.9241 H   0  0  0  0  0  0
  -21.6061  -13.1301   22.3592 H   0  0  0  0  0  0
  -25.9858  -16.2274   21.3684 H   0  0  0  0  0  0
  -27.0885  -15.9468   20.2120 H   0  0  0  0  0  0
  -26.7188  -32.5456   23.1184 H   0  0  0  0  0  0
  -25.0201  -33.9815   25.0536 H   0  0  0  0  0  0
  -22.6952  -31.3361   21.4297 H   0  0  0  0  0  0
  -23.3714  -35.9672   23.3286 H   0  0  0  0  0  0
  -24.3574  -36.8940   22.2053 H   0  0  0  0  0  0
  -23.7234  -37.6512   23.6659 H   0  0  0  0  0  0
  -26.0956  -31.5435   20.6359 H   0  0  0  0  0  0
  -26.8273  -30.8219   22.0379 H   0  0  0  0  0  0
  -28.0132  -28.8578   21.3625 H   0  0  0  0  0  0
  -26.1073  -26.2541   18.5519 H   0  0  0  0  0  0
  -24.0028  -27.5496   18.7121 H   0  0  0  0  0  0
  -23.7275  -30.6746   19.4138 H   0  0  0  0  0  0
  -22.7240  -29.3229   19.8478 H   0  0  0  0  0  0
  -25.1265  -36.1941   25.0808 H   0  0  0  0  0  0
  -20.9955  -28.3274   24.1363 H   0  0  0  0  0  0
  -20.5642  -26.2370   23.3571 H   0  0  0  0  0  0
  -21.6691  -26.7483   22.1199 H   0  0  0  0  0  0
  -19.6977  -25.6258   21.1272 H   0  0  0  0  0  0
  -19.6704  -27.3128   20.6634 H   0  0  0  0  0  0
  -17.4219  -26.6599   21.4002 H   0  0  0  0  0  0
  -18.0392  -26.0036   22.8964 H   0  0  0  0  0  0
  -19.7968  -30.7239   24.2243 H   0  0  0  0  0  0
  -17.5081  -31.6289   24.5151 H   0  0  0  0  0  0
  -15.5394  -30.3043   23.7700 H   0  0  0  0  0  0
  -15.8623  -28.0835   22.7168 H   0  0  0  0  0  0
  -24.5841  -30.7279   25.7954 H   0  0  0  0  0  0
  -24.9100  -32.3099   26.5010 H   0  0  0  0  0  0
  -25.8107  -30.9015   27.0351 H   0  0  0  0  0  0
  -26.2995  -29.6742   24.1353 H   0  0  0  0  0  0
  -27.4019  -29.7350   25.4889 H   0  0  0  0  0  0
  -27.8882  -30.4273   23.9639 H   0  0  0  0  0  0
  -27.2541  -33.3624   26.2274 H   0  0  0  0  0  0
  -28.3835  -32.7073   25.0506 H   0  0  0  0  0  0
  -28.0709  -31.8520   26.5535 H   0  0  0  0  0  0
  -28.2550  -38.0124   24.7516 H   0  0  0  0  0  0
  -28.1069  -36.2650   24.6229 H   0  0  0  0  0  0
  -27.2302  -37.1422   25.8859 H   0  0  0  0  0  0
  -20.9261  -29.8843   21.6889 H   0  0  0  0  0  0
  -26.0120  -38.2858   24.1447 H   0  0  0  0  0  0
  -25.1337  -24.7210   19.2309 H   0  0  0  0  0  0
  -28.1213  -22.4524   21.3477 H   0  0  0  0  0  0
  -24.0949  -22.7097   18.5204 H   0  0  0  0  0  0
  -26.9596  -20.3948   20.7450 H   0  0  0  0  0  0
  -28.5773  -24.7102   21.2381 H   0  0  0  0  0  0
  -27.0988  -25.4459   21.7386 H   0  0  0  0  0  0
  -25.0209  -13.5970   17.3752 H   0  0  0  0  0  0
  -23.4827  -13.0629   17.8845 H   0  0  0  0  0  0
  -22.8208  -15.2591   18.7981 H   0  0  0  0  0  0
  -23.2953  -15.3633   17.1875 H   0  0  0  0  0  0
  -23.3232  -18.1635   18.1727 H   0  0  0  0  0  0
  -23.3288  -17.4854   19.7802 H   0  0  0  0  0  0
  -25.9976  -18.6296   18.9849 H   0  0  0  0  0  0
  -25.1953  -18.7103   20.5175 H   0  0  0  0  0  0
  -24.6556  -11.9066   19.3550 H   0  0  0  0  0  0
  -25.1794  -16.5940   17.6111 H   0  0  0  0  0  0
  -25.2112  -16.1680   19.1843 H   0  0  0  0  0  0
  1 25  1  0  0  0
  1 30  2  0  0  0
  1 82  1  0  0  0
  2  3  1  0  0  0
  2 25  1  0  0  0
  2 85  1  0  0  0
  2 86  1  0  0  0
  3  4  1  0  0  0
  3 87  1  0  0  0
  3 88  1  0  0  0
  4  5  1  0  0  0
  4 89  1  0  0  0
  4 90  1  0  0  0
  5  6  1  0  0  0
  5 26  1  0  0  0
  5 91  1  0  0  0
  6 25  1  0  0  0
  6 92  1  0  0  0
  6 93  1  0  0  0
  7  8  2  0  0  0
  7 26  1  0  0  0
  7 29  1  0  0  0
  8  9  1  0  0  0
  8 22  1  0  0  0
  9 10  1  0  0  0
  9 27  2  0  0  0
 10 11  2  0  0  0
 10 15  1  0  0  0
 11 12  1  0  0  0
 11 94  1  0  0  0
 12 13  2  0  0  0
 12 95  1  0  0  0
 13 14  1  0  0  0
 13 31  1  0  0  0
 14 15  2  0  0  0
 14 96  1  0  0  0
 15 97  1  0  0  0
 16 17  2  0  0  0
 16 21  1  0  0  0
 16 31  1  0  0  0
 17 18  1  0  0  0
 17 98  1  0  0  0
 18 19  2  0  0  0
 18 99  1  0  0  0
 19 20  1  0  0  0
 19 24  1  0  0  0
 20 21  2  0  0  0
 20100  1  0  0  0
 21 23  1  0  0  0
 22 28  1  0  0  0
 22 32  2  0  0  0
 26 27  1  0  0  0
 28101  1  0  0  0
 28102  1  0  0  0
 29103  1  0  0  0
 29104  1  0  0  0
 33 34  1  0  0  0
 33 66  1  0  0  0
 33 70  2  0  0  0
 34 36  1  0  0  0
 34 59  1  0  0  0
 34105  1  0  0  0
 35 44  2  0  0  0
 35 45  1  0  0  0
 35 68  1  0  0  0
 36 56  1  0  0  0
 36106  1  0  0  0
 37 39  1  0  0  0
 37 47  1  0  0  0
 37 66  1  0  0  0
 37107  1  0  0  0
 38 43  2  0  0  0
 38 46  1  0  0  0
 38 47  1  0  0  0
 39 64  1  0  0  0
 39 67  2  0  0  0
 40 52  1  0  0  0
 40 53  2  0  0  0
 40 58  1  0  0  0
 41108  1  0  0  0
 41109  1  0  0  0
 41110  1  0  0  0
 41 48  1  0  0  0
 42 43  1  0  0  0
 42 66  1  0  0  0
 42111  1  0  0  0
 42112  1  0  0  0
 43 44  1  0  0  0
 44113  1  0  0  0
 45 46  2  0  0  0
 45114  1  0  0  0
 46115  1  0  0  0
 47116  1  0  0  0
 47117  1  0  0  0
 48 56  1  0  0  0
 48 65  1  0  0  0
 48118  1  0  0  0
 49 50  1  0  0  0
 49 53  1  0  0  0
 49 64  1  0  0  0
 49119  1  0  0  0
 50 51  1  0  0  0
 50120  1  0  0  0
 50121  1  0  0  0
 51 52  1  0  0  0
 51122  1  0  0  0
 51123  1  0  0  0
 52124  1  0  0  0
 52125  1  0  0  0
 53 54  1  0  0  0
 54 55  2  0  0  0
 54126  1  0  0  0
 55 57  1  0  0  0
 55127  1  0  0  0
 56 69  2  0  0  0
 57 58  2  0  0  0
 57128  1  0  0  0
 58129  1  0  0  0
 59 60  1  0  0  0
 59 61  1  0  0  0
 59 62  1  0  0  0
 60130  1  0  0  0
 60131  1  0  0  0
 60132  1  0  0  0
 61133  1  0  0  0
 61134  1  0  0  0
 61135  1  0  0  0
 62136  1  0  0  0
 62137  1  0  0  0
 62138  1  0  0  0
 63 65  1  0  0  0
 63139  1  0  0  0
 63140  1  0  0  0
 63141  1  0  0  0
 64142  1  0  0  0
 65143  1  0  0  0
 68 77  1  0  0  0
 71 73  2  0  0  0
 71 75  1  0  0  0
 71144  1  0  0  0
 72 74  1  0  0  0
 72 75  2  0  0  0
 72145  1  0  0  0
 73 76  1  0  0  0
 73146  1  0  0  0
 74 76  2  0  0  0
 74147  1  0  0  0
 75 77  1  0  0  0
 76 84  1  0  0  0
 77148  1  0  0  0
 77149  1  0  0  0
 78 79  1  0  0  0
 78 82  1  0  0  0
 78150  1  0  0  0
 78151  1  0  0  0
 79 83  1  0  0  0
 79152  1  0  0  0
 79153  1  0  0  0
 80 81  1  0  0  0
 80 83  1  0  0  0
 80154  1  0  0  0
 80155  1  0  0  0
 81 84  1  0  0  0
 81156  1  0  0  0
 81157  1  0  0  0
 82158  1  0  0  0
 83159  1  0  0  0
 83160  1  0  0  0
M  CHG  1  83   1
M  ISO  4   1 100  68 101  77 101  82 100
M  END
> <chiral flag>
0

> <version>
0

> <s_m_source_file>
/data/baiqing/PycharmProjects/Reinvent-master-3.2/result/LINK_invent/BTK/process_docking_weight1_custom_sum_contain_oxygen_bond_distance_aromatic_linkinvent_7_9_3/rearranged_h_0134.sdf

> <i_m_source_file_index>
88

> <r_mmod_Potential_Energy-OPLS-2005>
19142.513671875

> <r_mmod_Stretch_Energy-OPLS-2005>
9965.1787109375

> <r_mmod_Bend_Energy-OPLS-2005>
1005.67291259766

> <r_mmod_Torsional_Energy-OPLS-2005>
568.288879394531

> <r_mmod_Improper_Torsional_Energy-OPLS-2005>
160.412948608398

> <r_mmod_Van_der_Waal_Energy-OPLS-2005>
3723.2958984375

> <r_mmod_Electrostatic_Energy-OPLS-2005>
-436.761779785156

> <r_mmod_Solvation_Energy-OPLS-2005>
-395.074981689453

> <b_mmod_Minimization_Converged-OPLS-2005>
0

> <r_mmod_RMS_Derivative-OPLS-2005>
23.1117572784424

$$$$
88
                    3D
 Structure written by MMmdl.
160168  0  0  1  0            999 V2000
  -30.6690  -14.5848   20.5453 C   0  0  0  0  0  0
  -30.4420  -12.3616   19.4706 C   0  0  0  0  0  0
  -29.5225  -12.5062   18.2384 C   0  0  0  0  0  0
  -28.0423  -12.3533   18.6434 C   0  0  0  0  0  0
  -27.6673  -13.2180   19.8784 C   0  0  2  0  0  0
  -28.7064  -13.0561   21.0142 C   0  0  0  0  0  0
  -25.2599  -13.8204   20.5656 C   0  0  0  0  0  0
  -24.1868  -13.0476   20.9156 C   0  0  0  0  0  0
  -24.6412  -11.6947   20.8705 C   0  0  0  0  0  0
  -23.9078  -10.4328   21.0382 C   0  0  0  0  0  0
  -24.3631   -9.4243   21.9177 C   0  0  0  0  0  0
  -23.6299   -8.2274   22.0743 C   0  0  0  0  0  0
  -22.4278   -8.0295   21.3535 C   0  0  0  0  0  0
  -21.9924   -9.0285   20.4645 C   0  0  0  0  0  0
  -22.7243  -10.2171   20.3052 C   0  0  0  0  0  0
  -21.6880   -6.0728   22.5269 C   0  0  0  0  0  0
  -21.4037   -6.5631   23.8199 C   0  0  0  0  0  0
  -21.3650   -5.6787   24.9165 C   0  0  0  0  0  0
  -21.6025   -4.3036   24.7215 C   0  0  0  0  0  0
  -21.8816   -3.8136   23.4322 C   0  0  0  0  0  0
  -21.9206   -4.6963   22.3395 C   0  0  0  0  0  0
  -22.7876  -13.5261   21.1755 C   0  0  0  0  0  0
  -22.1657   -4.2166   21.0965 F   0  0  0  0  0  0
  -21.5630   -3.4514   25.7704 F   0  0  0  0  0  0
  -30.0356  -13.3755   20.4677 N   0  0  0  0  0  0
  -26.3051  -12.9401   20.3353 N   0  0  0  0  0  0
  -25.9351  -11.6545   20.5763 N   0  0  0  0  0  0
  -22.0461  -12.8368   22.0335 N   0  0  0  0  0  0
  -25.4400  -15.1932   20.4101 N   0  0  0  0  0  0
  -31.7779  -14.7681   20.0400 O   0  0  0  0  0  0
  -21.6640   -6.8886   21.4223 O   0  0  0  0  0  0
  -22.3592  -14.5534   20.6524 O   0  0  0  0  0  0
  -24.6204  -31.8654   23.2046 C   0  0  0  0  0  0
  -25.9090  -32.4793   23.8366 C   0  0  1  0  0  0
  -27.2341  -27.3820   20.1239 C   0  0  0  0  0  0
  -25.5930  -33.8584   24.2308 N   0  0  0  0  0  0
  -23.4095  -30.4898   21.5447 C   0  0  2  0  0  0
  -24.8608  -28.9471   20.1141 C   0  0  0  0  0  0
  -22.7425  -29.4667   22.4936 C   0  0  0  0  0  0
  -18.0283  -28.1366   22.8481 C   0  0  0  0  0  0
  -24.1490  -36.7313   23.2636 C   0  0  0  0  0  0
  -25.9437  -30.8215   21.3591 C   0  0  0  0  0  0
  -26.0251  -29.4497   20.7103 C   0  0  0  0  0  0
  -27.2182  -28.6806   20.7018 C   0  0  0  0  0  0
  -26.0558  -26.9092   19.5113 C   0  0  0  0  0  0
  -24.8735  -27.6775   19.5083 C   0  0  0  0  0  0
  -23.6231  -29.8221   20.1596 C   0  0  0  0  0  0
  -25.4096  -36.3084   24.0343 C   0  0  1  0  0  0
  -20.5875  -28.3681   23.1271 C   0  0  2  0  0  0
  -20.6776  -26.9410   22.5393 C   0  0  0  0  0  0
  -19.5756  -26.6374   21.5196 C   0  0  0  0  0  0
  -18.1940  -26.7916   22.1602 C   0  0  0  0  0  0
  -19.1535  -28.8831   23.2878 C   0  0  0  0  0  0
  -18.9463  -30.1435   23.8888 C   0  0  0  0  0  0
  -17.6472  -30.6574   24.0546 C   0  0  0  0  0  0
  -25.9048  -34.9452   23.5119 C   0  0  0  0  0  0
  -16.5359  -29.9077   23.6302 C   0  0  0  0  0  0
  -16.7281  -28.6487   23.0333 C   0  0  0  0  0  0
  -26.4491  -31.6564   25.0696 C   0  0  0  0  0  0
  -25.3767  -31.3674   26.1458 C   0  0  0  0  0  0
  -27.0339  -30.3013   24.6064 C   0  0  0  0  0  0
  -27.6073  -32.4262   25.7458 C   0  0  0  0  0  0
  -27.5571  -37.1801   24.8454 C   0  0  0  0  0  0
  -21.4146  -29.3055   22.3669 N   0  0  0  0  0  0
  -26.4277  -37.3776   23.9420 N   0  0  0  0  0  0
  -24.6770  -31.0731   22.0948 N   0  0  0  0  0  0
  -23.4193  -28.8214   23.2995 O   0  0  0  0  0  0
  -28.3668  -26.5764   20.1347 O   0  0  0  0  0  0
  -26.5598  -34.8922   22.4675 O   0  0  0  0  0  0
  -23.5384  -32.1414   23.7432 O   0  0  0  0  0  0
  -28.9634  -17.8763   21.6500 C   0  0  0  0  0  0
  -28.5569  -19.2950   21.1325 C   0  0  0  0  0  0
  -30.7396  -19.3589   19.8721 C   0  0  0  0  0  0
  -29.8216  -17.0672   20.6393 C   0  0  1  0  0  0
  -29.7549  -20.2047   20.7434 C   0  0  1  0  0  0
  -31.1002  -17.9306   20.4127 C   0  0  1  0  0  0
  -28.7224  -24.0091   20.0198 C   0  0  0  0  0  0
  -28.7294  -22.6238   20.8005 C   0  0  0  0  0  0
  -28.2486  -25.2837   20.8130 C   0  0  0  0  0  0
  -29.9469  -15.6221   21.0519 N   0  0  0  0  0  0
  -29.3525  -21.4853   20.0363 N   0  3  0  0  0  0
  -31.9149  -17.3321   19.4321 O   0  0  0  0  0  0
  -31.4899  -12.4631   19.1763 H   0  0  0  0  0  0
  -30.3523  -11.3612   19.8986 H   0  0  0  0  0  0
  -29.7836  -11.7564   17.4909 H   0  0  0  0  0  0
  -29.6808  -13.4800   17.7746 H   0  0  0  0  0  0
  -27.8656  -11.2996   18.8623 H   0  0  0  0  0  0
  -27.3954  -12.5978   17.8003 H   0  0  0  0  0  0
  -27.6963  -14.2578   19.5501 H   0  0  0  0  0  0
  -28.6967  -12.0314   21.3904 H   0  0  0  0  0  0
  -28.4547  -13.6861   21.8691 H   0  0  0  0  0  0
  -25.2762   -9.5741   22.4762 H   0  0  0  0  0  0
  -24.0011   -7.4677   22.7486 H   0  0  0  0  0  0
  -21.0831   -8.8780   19.8995 H   0  0  0  0  0  0
  -22.3642  -10.9706   19.6163 H   0  0  0  0  0  0
  -21.2020   -7.6148   23.9715 H   0  0  0  0  0  0
  -21.1475   -6.0504   25.9071 H   0  0  0  0  0  0
  -22.0607   -2.7600   23.2807 H   0  0  0  0  0  0
  -22.4025  -12.0108   22.4898 H   0  0  0  0  0  0
  -21.1053  -13.1447   22.2362 H   0  0  0  0  0  0
  -24.6750  -15.8514   20.5033 H   0  0  0  0  0  0
  -26.2940  -15.6228   20.0750 H   0  0  0  0  0  0
  -26.7164  -32.5489   23.1134 H   0  0  0  0  0  0
  -25.0106  -33.9731   25.0459 H   0  0  0  0  0  0
  -22.7002  -31.3079   21.4026 H   0  0  0  0  0  0
  -23.3755  -35.9644   23.3262 H   0  0  0  0  0  0
  -24.3611  -36.8965   22.2063 H   0  0  0  0  0  0
  -23.7250  -37.6509   23.6678 H   0  0  0  0  0  0
  -26.0531  -31.5867   20.5892 H   0  0  0  0  0  0
  -26.8309  -30.8801   21.9775 H   0  0  0  0  0  0
  -28.1132  -29.0704   21.1663 H   0  0  0  0  0  0
  -26.0480  -25.9330   19.0478 H   0  0  0  0  0  0
  -23.9816  -27.2790   19.0448 H   0  0  0  0  0  0
  -23.7425  -30.6014   19.4047 H   0  0  0  0  0  0
  -22.7427  -29.2537   19.8527 H   0  0  0  0  0  0
  -25.1272  -36.1937   25.0840 H   0  0  0  0  0  0
  -20.9974  -28.3276   24.1390 H   0  0  0  0  0  0
  -20.5665  -26.2308   23.3598 H   0  0  0  0  0  0
  -21.6649  -26.7438   22.1196 H   0  0  0  0  0  0
  -19.6914  -25.6287   21.1228 H   0  0  0  0  0  0
  -19.6684  -27.3169   20.6718 H   0  0  0  0  0  0
  -17.4206  -26.6652   21.4012 H   0  0  0  0  0  0
  -18.0341  -26.0044   22.8979 H   0  0  0  0  0  0
  -19.7954  -30.7238   24.2251 H   0  0  0  0  0  0
  -17.5040  -31.6254   24.5146 H   0  0  0  0  0  0
  -15.5367  -30.2985   23.7618 H   0  0  0  0  0  0
  -15.8680  -28.0815   22.7039 H   0  0  0  0  0  0
  -24.5916  -30.7042   25.7806 H   0  0  0  0  0  0
  -24.8990  -32.2836   26.4944 H   0  0  0  0  0  0
  -25.8134  -30.8813   27.0196 H   0  0  0  0  0  0
  -26.2885  -29.6736   24.1170 H   0  0  0  0  0  0
  -27.4199  -29.7272   25.4500 H   0  0  0  0  0  0
  -27.8669  -30.4353   23.9157 H   0  0  0  0  0  0
  -27.2716  -33.3558   26.2069 H   0  0  0  0  0  0
  -28.3879  -32.6822   25.0279 H   0  0  0  0  0  0
  -28.0754  -31.8359   26.5350 H   0  0  0  0  0  0
  -28.2568  -38.0115   24.7521 H   0  0  0  0  0  0
  -28.1088  -36.2655   24.6238 H   0  0  0  0  0  0
  -27.2310  -37.1394   25.8860 H   0  0  0  0  0  0
  -20.9296  -29.8833   21.6932 H   0  0  0  0  0  0
  -26.0160  -38.2852   24.1427 H   0  0  0  0  0  0
  -28.0609  -17.3188   21.9016 H   0  0  0  0  0  0
  -29.5154  -17.9852   22.5843 H   0  0  0  0  0  0
  -27.9784  -19.8000   21.9052 H   0  0  0  0  0  0
  -27.8904  -19.1683   20.2785 H   0  0  0  0  0  0
  -31.6595  -19.9277   19.7252 H   0  0  0  0  0  0
  -30.2981  -19.2402   18.8793 H   0  0  0  0  0  0
  -29.2700  -17.0384   19.6974 H   0  0  0  0  0  0
  -30.2803  -20.4813   21.6583 H   0  0  0  0  0  0
  -31.6731  -18.0090   21.3404 H   0  0  0  0  0  0
  -28.1046  -23.9232   19.1240 H   0  0  0  0  0  0
  -29.7358  -24.2054   19.6696 H   0  0  0  0  0  0
  -27.7078  -22.3440   21.0719 H   0  0  0  0  0  0
  -29.2685  -22.7498   21.7414 H   0  0  0  0  0  0
  -28.8695  -25.3632   21.7064 H   0  0  0  0  0  0
  -27.2340  -25.1333   21.1874 H   0  0  0  0  0  0
  -29.1549  -15.2940   21.5848 H   0  0  0  0  0  0
  -28.7597  -21.2601   19.2531 H   0  0  0  0  0  0
  -30.2027  -21.8612   19.6494 H   0  0  0  0  0  0
  -31.9457  -16.3898   19.6437 H   0  0  0  0  0  0
  1 25  1  0  0  0
  1 30  2  0  0  0
  1 80  1  0  0  0
  2  3  1  0  0  0
  2 25  1  0  0  0
  2 83  1  0  0  0
  2 84  1  0  0  0
  3  4  1  0  0  0
  3 85  1  0  0  0
  3 86  1  0  0  0
  4  5  1  0  0  0
  4 87  1  0  0  0
  4 88  1  0  0  0
  5  6  1  0  0  0
  5 26  1  0  0  0
  5 89  1  0  0  0
  6 25  1  0  0  0
  6 90  1  0  0  0
  6 91  1  0  0  0
  7  8  2  0  0  0
  7 26  1  0  0  0
  7 29  1  0  0  0
  8  9  1  0  0  0
  8 22  1  0  0  0
  9 10  1  0  0  0
  9 27  2  0  0  0
 10 11  2  0  0  0
 10 15  1  0  0  0
 11 12  1  0  0  0
 11 92  1  0  0  0
 12 13  2  0  0  0
 12 93  1  0  0  0
 13 14  1  0  0  0
 13 31  1  0  0  0
 14 15  2  0  0  0
 14 94  1  0  0  0
 15 95  1  0  0  0
 16 17  2  0  0  0
 16 21  1  0  0  0
 16 31  1  0  0  0
 17 18  1  0  0  0
 17 96  1  0  0  0
 18 19  2  0  0  0
 18 97  1  0  0  0
 19 20  1  0  0  0
 19 24  1  0  0  0
 20 21  2  0  0  0
 20 98  1  0  0  0
 21 23  1  0  0  0
 22 28  1  0  0  0
 22 32  2  0  0  0
 26 27  1  0  0  0
 28 99  1  0  0  0
 28100  1  0  0  0
 29101  1  0  0  0
 29102  1  0  0  0
 33 34  1  0  0  0
 33 66  1  0  0  0
 33 70  2  0  0  0
 34 36  1  0  0  0
 34 59  1  0  0  0
 34103  1  0  0  0
 35 44  2  0  0  0
 35 45  1  0  0  0
 35 68  1  0  0  0
 36 56  1  0  0  0
 36104  1  0  0  0
 37 39  1  0  0  0
 37 47  1  0  0  0
 37 66  1  0  0  0
 37105  1  0  0  0
 38 43  2  0  0  0
 38 46  1  0  0  0
 38 47  1  0  0  0
 39 64  1  0  0  0
 39 67  2  0  0  0
 40 52  1  0  0  0
 40 53  2  0  0  0
 40 58  1  0  0  0
 41106  1  0  0  0
 41107  1  0  0  0
 41108  1  0  0  0
 41 48  1  0  0  0
 42 43  1  0  0  0
 42 66  1  0  0  0
 42109  1  0  0  0
 42110  1  0  0  0
 43 44  1  0  0  0
 44111  1  0  0  0
 45 46  2  0  0  0
 45112  1  0  0  0
 46113  1  0  0  0
 47114  1  0  0  0
 47115  1  0  0  0
 48 56  1  0  0  0
 48 65  1  0  0  0
 48116  1  0  0  0
 49 50  1  0  0  0
 49 53  1  0  0  0
 49 64  1  0  0  0
 49117  1  0  0  0
 50 51  1  0  0  0
 50118  1  0  0  0
 50119  1  0  0  0
 51 52  1  0  0  0
 51120  1  0  0  0
 51121  1  0  0  0
 52122  1  0  0  0
 52123  1  0  0  0
 53 54  1  0  0  0
 54 55  2  0  0  0
 54124  1  0  0  0
 55 57  1  0  0  0
 55125  1  0  0  0
 56 69  2  0  0  0
 57 58  2  0  0  0
 57126  1  0  0  0
 58127  1  0  0  0
 59 60  1  0  0  0
 59 61  1  0  0  0
 59 62  1  0  0  0
 60128  1  0  0  0
 60129  1  0  0  0
 60130  1  0  0  0
 61131  1  0  0  0
 61132  1  0  0  0
 61133  1  0  0  0
 62134  1  0  0  0
 62135  1  0  0  0
 62136  1  0  0  0
 63 65  1  0  0  0
 63137  1  0  0  0
 63138  1  0  0  0
 63139  1  0  0  0
 64140  1  0  0  0
 65141  1  0  0  0
 68 79  1  0  0  0
 71 72  1  0  0  0
 71 74  1  0  0  0
 71142  1  0  0  0
 71143  1  0  0  0
 72 75  1  0  0  0
 72144  1  0  0  0
 72145  1  0  0  0
 73 75  1  0  0  0
 73 76  1  0  0  0
 73146  1  0  0  0
 73147  1  0  0  0
 74 76  1  0  0  0
 74 80  1  0  0  0
 74148  1  0  0  0
 75 81  1  0  0  0
 75149  1  0  0  0
 76 82  1  0  0  0
 76150  1  0  0  0
 77 78  1  0  0  0
 77 79  1  0  0  0
 77151  1  0  0  0
 77152  1  0  0  0
 78 81  1  0  0  0
 78153  1  0  0  0
 78154  1  0  0  0
 79155  1  0  0  0
 79156  1  0  0  0
 80157  1  0  0  0
 81158  1  0  0  0
 81159  1  0  0  0
 82160  1  0  0  0
M  CHG  1  81   1
M  ISO  4   1 100  68 101  79 101  80 100
M  END
> <chiral flag>
0

> <version>
0

> <s_m_source_file>
/data/baiqing/PycharmProjects/Reinvent-master-3.2/result/LINK_invent/BTK/process_docking_weight1_custom_sum_contain_oxygen_bond_distance_aromatic_linkinvent_7_9_3/rearranged_h_0134.sdf

> <i_m_source_file_index>
89

> <r_mmod_Potential_Energy-OPLS-2005>
-231.449951171875

> <r_mmod_Stretch_Energy-OPLS-2005>
64.1561508178711

> <r_mmod_Bend_Energy-OPLS-2005>
133.645004272461

> <r_mmod_Torsional_Energy-OPLS-2005>
267.913299560547

> <r_mmod_Improper_Torsional_Energy-OPLS-2005>
5.27350044250488

> <r_mmod_Van_der_Waal_Energy-OPLS-2005>
130.929733276367

> <r_mmod_Electrostatic_Energy-OPLS-2005>
-380.305633544922

> <r_mmod_Solvation_Energy-OPLS-2005>
-481.953857421875

> <b_mmod_Minimization_Converged-OPLS-2005>
0

> <r_mmod_RMS_Derivative-OPLS-2005>
4.86416244506836

$$$$
89
                    3D
 Structure written by MMmdl.
163172  0  0  1  0            999 V2000
  -30.5047  -15.0009   20.4331 C   0  0  0  0  0  0
  -30.4455  -12.6343   19.4790 C   0  0  0  0  0  0
  -29.5182  -12.5307   18.2453 C   0  0  0  0  0  0
  -28.0532  -12.3075   18.6707 C   0  0  0  0  0  0
  -27.6225  -13.2462   19.8271 C   0  0  2  0  0  0
  -28.6691  -13.2903   20.9563 C   0  0  0  0  0  0
  -25.2445  -13.8205   20.5726 C   0  0  0  0  0  0
  -24.1770  -13.0423   20.9239 C   0  0  0  0  0  0
  -24.6392  -11.6913   20.8760 C   0  0  0  0  0  0
  -23.9081  -10.4283   21.0413 C   0  0  0  0  0  0
  -24.3629   -9.4199   21.9194 C   0  0  0  0  0  0
  -23.6298   -8.2239   22.0759 C   0  0  0  0  0  0
  -22.4281   -8.0281   21.3542 C   0  0  0  0  0  0
  -21.9919   -9.0256   20.4646 C   0  0  0  0  0  0
  -22.7256  -10.2131   20.3058 C   0  0  0  0  0  0
  -21.6853   -6.0739   22.5281 C   0  0  0  0  0  0
  -21.4011   -6.5645   23.8214 C   0  0  0  0  0  0
  -21.3656   -5.6798   24.9175 C   0  0  0  0  0  0
  -21.6042   -4.3059   24.7227 C   0  0  0  0  0  0
  -21.8819   -3.8152   23.4350 C   0  0  0  0  0  0
  -21.9190   -4.6968   22.3404 C   0  0  0  0  0  0
  -22.7790  -13.5191   21.1903 C   0  0  0  0  0  0
  -22.1661   -4.2155   21.0982 F   0  0  0  0  0  0
  -21.5628   -3.4543   25.7739 F   0  0  0  0  0  0
  -29.9251  -13.7342   20.3391 N   0  0  0  0  0  0
  -26.2856  -12.9430   20.3214 N   0  0  0  0  0  0
  -25.9319  -11.6563   20.5726 N   0  0  0  0  0  0
  -22.0450  -12.8164   22.0450 N   0  0  0  0  0  0
  -25.4084  -15.1941   20.4197 N   0  0  0  0  0  0
  -31.7290  -15.0617   20.2725 O   0  0  0  0  0  0
  -21.6638   -6.8883   21.4244 O   0  0  0  0  0  0
  -22.3469  -14.5500   20.6753 O   0  0  0  0  0  0
  -24.6459  -31.8410   23.1840 C   0  0  0  0  0  0
  -25.9217  -32.4682   23.8246 C   0  0  1  0  0  0
  -27.2187  -27.1085   20.1713 C   0  0  0  0  0  0
  -25.5954  -33.8491   24.2161 N   0  0  0  0  0  0
  -23.4507  -30.4571   21.5310 C   0  0  2  0  0  0
  -24.9010  -28.8716   20.1170 C   0  0  0  0  0  0
  -22.7573  -29.4525   22.4862 C   0  0  0  0  0  0
  -18.0299  -28.1390   22.8468 C   0  0  0  0  0  0
  -24.1482  -36.7257   23.2645 C   0  0  0  0  0  0
  -26.0070  -30.7087   21.3835 C   0  0  0  0  0  0
  -26.0801  -29.3135   20.7326 C   0  0  0  0  0  0
  -27.2429  -28.4514   20.7335 C   0  0  0  0  0  0
  -26.0130  -26.7642   19.5285 C   0  0  0  0  0  0
  -24.8814  -27.6111   19.4980 C   0  0  0  0  0  0
  -23.6794  -29.7790   20.1537 C   0  0  0  0  0  0
  -25.4118  -36.3028   24.0311 C   0  0  1  0  0  0
  -20.5913  -28.3718   23.1238 C   0  0  2  0  0  0
  -20.6783  -26.9421   22.5411 C   0  0  0  0  0  0
  -19.5762  -26.6372   21.5217 C   0  0  0  0  0  0
  -18.1934  -26.7928   22.1614 C   0  0  0  0  0  0
  -19.1560  -28.8870   23.2839 C   0  0  0  0  0  0
  -18.9481  -30.1459   23.8872 C   0  0  0  0  0  0
  -17.6483  -30.6589   24.0552 C   0  0  0  0  0  0
  -25.9075  -34.9405   23.5046 C   0  0  0  0  0  0
  -16.5368  -29.9084   23.6339 C   0  0  0  0  0  0
  -16.7286  -28.6499   23.0360 C   0  0  0  0  0  0
  -26.4526  -31.6570   25.0707 C   0  0  0  0  0  0
  -25.3688  -31.3785   26.1388 C   0  0  0  0  0  0
  -27.0404  -30.2964   24.6308 C   0  0  0  0  0  0
  -27.6033  -32.4357   25.7511 C   0  0  0  0  0  0
  -27.5564  -37.1783   24.8464 C   0  0  0  0  0  0
  -21.4264  -29.3046   22.3616 N   0  0  0  0  0  0
  -26.4276  -37.3745   23.9408 N   0  0  0  0  0  0
  -24.7211  -31.0242   22.0884 N   0  0  0  0  0  0
  -23.4202  -28.8076   23.3027 O   0  0  0  0  0  0
  -28.2835  -26.1320   20.1379 O   0  0  0  0  0  0
  -26.5667  -34.8910   22.4628 O   0  0  0  0  0  0
  -23.5572  -32.1301   23.7048 O   0  0  0  0  0  0
  -29.4904  -18.9444   20.2544 C   0  0  0  0  0  0
  -29.5730  -18.9627   23.0052 C   0  0  0  0  0  0
  -29.3517  -20.2849   20.9219 C   0  0  0  0  0  0
  -29.6978  -17.7152   22.3523 C   0  0  0  0  0  0
  -29.4367  -20.1947   22.3320 C   0  0  0  0  0  0
  -29.6943  -17.6152   20.9349 C   0  0  0  0  0  0
  -30.6064  -22.4478   21.1406 C   0  0  0  0  0  0
  -29.4311  -21.8586   20.3463 C   0  0  2  0  0  0
  -30.3237  -22.4544   22.6645 C   0  0  2  0  0  0
  -29.7919  -16.4811   23.2393 C   0  0  0  0  0  0
  -28.2295  -23.0743   20.2788 C   0  0  0  0  0  0
  -31.6185  -22.4619   23.4956 C   0  0  0  0  0  0
  -28.2108  -24.7154   20.8014 C   0  0  0  0  0  0
  -29.4700  -21.3547   23.1141 N   0  0  0  0  0  0
  -29.6873  -16.1789   20.3559 N   0  0  0  0  0  0
  -31.2768  -22.4910   24.8733 O   0  0  0  0  0  0
  -31.4704  -12.8265   19.1565 H   0  0  0  0  0  0
  -30.4739  -11.6920   20.0283 H   0  0  0  0  0  0
  -29.8453  -11.7209   17.5919 H   0  0  0  0  0  0
  -29.5894  -13.4470   17.6572 H   0  0  0  0  0  0
  -27.9576  -11.2684   18.9881 H   0  0  0  0  0  0
  -27.3866  -12.4277   17.8157 H   0  0  0  0  0  0
  -27.5752  -14.2431   19.3893 H   0  0  0  0  0  0
  -28.7815  -12.3154   21.4332 H   0  0  0  0  0  0
  -28.3578  -13.9844   21.7367 H   0  0  0  0  0  0
  -25.2773   -9.5673   22.4772 H   0  0  0  0  0  0
  -24.0006   -7.4625   22.7475 H   0  0  0  0  0  0
  -21.0855   -8.8780   19.8947 H   0  0  0  0  0  0
  -22.3724  -10.9674   19.6167 H   0  0  0  0  0  0
  -21.2005   -7.6153   23.9716 H   0  0  0  0  0  0
  -21.1477   -6.0530   25.9077 H   0  0  0  0  0  0
  -22.0599   -2.7614   23.2848 H   0  0  0  0  0  0
  -22.4087  -11.9822   22.4812 H   0  0  0  0  0  0
  -21.1065  -13.1169   22.2679 H   0  0  0  0  0  0
  -24.6392  -15.8415   20.5548 H   0  0  0  0  0  0
  -26.2514  -15.6487   20.0969 H   0  0  0  0  0  0
  -26.7290  -32.5281   23.0977 H   0  0  0  0  0  0
  -25.0088  -33.9601   25.0301 H   0  0  0  0  0  0
  -22.7555  -31.2836   21.3710 H   0  0  0  0  0  0
  -23.3749  -35.9582   23.3297 H   0  0  0  0  0  0
  -24.3567  -36.8908   22.2064 H   0  0  0  0  0  0
  -23.7233  -37.6443   23.6700 H   0  0  0  0  0  0
  -26.1601  -31.4588   20.6064 H   0  0  0  0  0  0
  -26.8782  -30.7650   22.0244 H   0  0  0  0  0  0
  -28.1491  -28.7947   21.2125 H   0  0  0  0  0  0
  -25.9382  -25.7966   19.0525 H   0  0  0  0  0  0
  -23.9821  -27.2675   19.0055 H   0  0  0  0  0  0
  -23.8184  -30.5489   19.3946 H   0  0  0  0  0  0
  -22.7937  -29.2210   19.8445 H   0  0  0  0  0  0
  -25.1303  -36.1849   25.0804 H   0  0  0  0  0  0
  -20.9991  -28.3301   24.1366 H   0  0  0  0  0  0
  -20.5680  -26.2326   23.3629 H   0  0  0  0  0  0
  -21.6647  -26.7422   22.1209 H   0  0  0  0  0  0
  -19.6933  -25.6276   21.1261 H   0  0  0  0  0  0
  -19.6711  -27.3165   20.6734 H   0  0  0  0  0  0
  -17.4216  -26.6688   21.4001 H   0  0  0  0  0  0
  -18.0308  -26.0069   22.9007 H   0  0  0  0  0  0
  -19.7962  -30.7265   24.2239 H   0  0  0  0  0  0
  -17.5045  -31.6273   24.5146 H   0  0  0  0  0  0
  -15.5368  -30.2982   23.7679 H   0  0  0  0  0  0
  -15.8678  -28.0806   22.7110 H   0  0  0  0  0  0
  -24.5902  -30.7091   25.7715 H   0  0  0  0  0  0
  -24.8835  -32.2977   26.4685 H   0  0  0  0  0  0
  -25.7953  -30.9058   27.0246 H   0  0  0  0  0  0
  -26.3036  -29.6680   24.1294 H   0  0  0  0  0  0
  -27.3992  -29.7276   25.4895 H   0  0  0  0  0  0
  -27.8941  -30.4202   23.9643 H   0  0  0  0  0  0
  -27.2616  -33.3700   26.1981 H   0  0  0  0  0  0
  -28.3909  -32.6855   25.0390 H   0  0  0  0  0  0
  -28.0624  -31.8555   26.5526 H   0  0  0  0  0  0
  -28.2568  -38.0090   24.7507 H   0  0  0  0  0  0
  -28.1072  -36.2617   24.6288 H   0  0  0  0  0  0
  -27.2286  -37.1429   25.8868 H   0  0  0  0  0  0
  -20.9485  -29.8772   21.6800 H   0  0  0  0  0  0
  -26.0138  -38.2806   24.1428 H   0  0  0  0  0  0
  -29.4697  -18.9401   19.1738 H   0  0  0  0  0  0
  -29.6078  -18.9769   24.0859 H   0  0  0  0  0  0
  -30.8602  -23.4505   20.7954 H   0  0  0  0  0  0
  -31.4917  -21.8421   20.9380 H   0  0  0  0  0  0
  -29.7780  -21.7526   19.3183 H   0  0  0  0  0  0
  -29.7765  -23.3628   22.9095 H   0  0  0  0  0  0
  -29.7081  -16.7339   24.2966 H   0  0  0  0  0  0
  -30.7462  -15.9727   23.1036 H   0  0  0  0  0  0
  -28.9835  -15.7864   23.0176 H   0  0  0  0  0  0
  -27.4454  -22.6298   20.8931 H   0  0  0  0  0  0
  -27.7869  -23.0465   19.2827 H   0  0  0  0  0  0
  -32.2284  -23.3337   23.2514 H   0  0  0  0  0  0
  -32.2259  -21.5788   23.2886 H   0  0  0  0  0  0
  -28.9705  -24.7878   21.5747 H   0  0  0  0  0  0
  -27.2857  -24.7823   21.3755 H   0  0  0  0  0  0
  -29.6272  -21.2023   24.1093 H   0  0  0  0  0  0
  -28.7648  -15.9215   20.0423 H   0  0  0  0  0  0
  -32.0884  -22.5267   25.3709 H   0  0  0  0  0  0
  1 25  1  0  0  0
  1 30  2  0  0  0
  1 85  1  0  0  0
  2  3  1  0  0  0
  2 25  1  0  0  0
  2 87  1  0  0  0
  2 88  1  0  0  0
  3  4  1  0  0  0
  3 89  1  0  0  0
  3 90  1  0  0  0
  4  5  1  0  0  0
  4 91  1  0  0  0
  4 92  1  0  0  0
  5  6  1  0  0  0
  5 26  1  0  0  0
  5 93  1  0  0  0
  6 25  1  0  0  0
  6 94  1  0  0  0
  6 95  1  0  0  0
  7  8  2  0  0  0
  7 26  1  0  0  0
  7 29  1  0  0  0
  8  9  1  0  0  0
  8 22  1  0  0  0
  9 10  1  0  0  0
  9 27  2  0  0  0
 10 11  2  0  0  0
 10 15  1  0  0  0
 11 12  1  0  0  0
 11 96  1  0  0  0
 12 13  2  0  0  0
 12 97  1  0  0  0
 13 14  1  0  0  0
 13 31  1  0  0  0
 14 15  2  0  0  0
 14 98  1  0  0  0
 15 99  1  0  0  0
 16 17  2  0  0  0
 16 21  1  0  0  0
 16 31  1  0  0  0
 17 18  1  0  0  0
 17100  1  0  0  0
 18 19  2  0  0  0
 18101  1  0  0  0
 19 20  1  0  0  0
 19 24  1  0  0  0
 20 21  2  0  0  0
 20102  1  0  0  0
 21 23  1  0  0  0
 22 28  1  0  0  0
 22 32  2  0  0  0
 26 27  1  0  0  0
 28103  1  0  0  0
 28104  1  0  0  0
 29105  1  0  0  0
 29106  1  0  0  0
 33 34  1  0  0  0
 33 66  1  0  0  0
 33 70  2  0  0  0
 34 36  1  0  0  0
 34 59  1  0  0  0
 34107  1  0  0  0
 35 44  2  0  0  0
 35 45  1  0  0  0
 35 68  1  0  0  0
 36 56  1  0  0  0
 36108  1  0  0  0
 37 39  1  0  0  0
 37 47  1  0  0  0
 37 66  1  0  0  0
 37109  1  0  0  0
 38 43  2  0  0  0
 38 46  1  0  0  0
 38 47  1  0  0  0
 39 64  1  0  0  0
 39 67  2  0  0  0
 40 52  1  0  0  0
 40 53  2  0  0  0
 40 58  1  0  0  0
 41110  1  0  0  0
 41111  1  0  0  0
 41112  1  0  0  0
 41 48  1  0  0  0
 42 43  1  0  0  0
 42 66  1  0  0  0
 42113  1  0  0  0
 42114  1  0  0  0
 43 44  1  0  0  0
 44115  1  0  0  0
 45 46  2  0  0  0
 45116  1  0  0  0
 46117  1  0  0  0
 47118  1  0  0  0
 47119  1  0  0  0
 48 56  1  0  0  0
 48 65  1  0  0  0
 48120  1  0  0  0
 49 50  1  0  0  0
 49 53  1  0  0  0
 49 64  1  0  0  0
 49121  1  0  0  0
 50 51  1  0  0  0
 50122  1  0  0  0
 50123  1  0  0  0
 51 52  1  0  0  0
 51124  1  0  0  0
 51125  1  0  0  0
 52126  1  0  0  0
 52127  1  0  0  0
 53 54  1  0  0  0
 54 55  2  0  0  0
 54128  1  0  0  0
 55 57  1  0  0  0
 55129  1  0  0  0
 56 69  2  0  0  0
 57 58  2  0  0  0
 57130  1  0  0  0
 58131  1  0  0  0
 59 60  1  0  0  0
 59 61  1  0  0  0
 59 62  1  0  0  0
 60132  1  0  0  0
 60133  1  0  0  0
 60134  1  0  0  0
 61135  1  0  0  0
 61136  1  0  0  0
 61137  1  0  0  0
 62138  1  0  0  0
 62139  1  0  0  0
 62140  1  0  0  0
 63 65  1  0  0  0
 63141  1  0  0  0
 63142  1  0  0  0
 63143  1  0  0  0
 64144  1  0  0  0
 65145  1  0  0  0
 68 83  1  0  0  0
 71 73  2  0  0  0
 71 76  1  0  0  0
 71146  1  0  0  0
 72 74  1  0  0  0
 72 75  2  0  0  0
 72147  1  0  0  0
 73 75  1  0  0  0
 73 78  1  0  0  0
 74 76  2  0  0  0
 74 80  1  0  0  0
 75 84  1  0  0  0
 76 85  1  0  0  0
 77 78  1  0  0  0
 77 79  1  0  0  0
 77148  1  0  0  0
 77149  1  0  0  0
 78 81  1  0  0  0
 78150  1  0  0  0
 79 82  1  0  0  0
 79 84  1  0  0  0
 79151  1  0  0  0
 80152  1  0  0  0
 80153  1  0  0  0
 80154  1  0  0  0
 81 83  1  0  0  0
 81155  1  0  0  0
 81156  1  0  0  0
 82 86  1  0  0  0
 82157  1  0  0  0
 82158  1  0  0  0
 83159  1  0  0  0
 83160  1  0  0  0
 84161  1  0  0  0
 85162  1  0  0  0
 86163  1  0  0  0
M  ISO  4   1 100  68 101  83 101  85 100
M  END
> <chiral flag>
0

> <version>
0

> <s_m_source_file>
/data/baiqing/PycharmProjects/Reinvent-master-3.2/result/LINK_invent/BTK/process_docking_weight1_custom_sum_contain_oxygen_bond_distance_aromatic_linkinvent_7_9_3/rearranged_h_0134.sdf

> <i_m_source_file_index>
90

> <r_mmod_Potential_Energy-OPLS-2005>
683.39306640625

> <r_mmod_Stretch_Energy-OPLS-2005>
312.518829345703

> <r_mmod_Bend_Energy-OPLS-2005>
350.072052001953

> <r_mmod_Torsional_Energy-OPLS-2005>
346.741943359375

> <r_mmod_Improper_Torsional_Energy-OPLS-2005>
18.0545177459717

> <r_mmod_Van_der_Waal_Energy-OPLS-2005>
140.547866821289

> <r_mmod_Electrostatic_Energy-OPLS-2005>
-475.146514892578

> <r_mmod_Solvation_Energy-OPLS-2005>
-233.351745605469

> <b_mmod_Minimization_Converged-OPLS-2005>
0

> <r_mmod_RMS_Derivative-OPLS-2005>
1.09591150283813

$$$$
90
                    3D
 Structure written by MMmdl.
171180  0  0  1  0            999 V2000
  -30.8460  -14.2475   20.7803 C   0  0  0  0  0  0
  -30.4084  -12.2899   19.3538 C   0  0  0  0  0  0
  -29.4657  -12.5547   18.1717 C   0  0  0  0  0  0
  -28.0001  -12.3868   18.6042 C   0  0  0  0  0  0
  -27.6671  -13.2045   19.8776 C   0  0  2  0  0  0
  -28.7071  -12.9490   20.9907 C   0  0  0  0  0  0
  -25.2612  -13.8164   20.5680 C   0  0  0  0  0  0
  -24.1852  -13.0441   20.9158 C   0  0  0  0  0  0
  -24.6405  -11.6907   20.8726 C   0  0  0  0  0  0
  -23.9061  -10.4295   21.0401 C   0  0  0  0  0  0
  -24.3614   -9.4214   21.9184 C   0  0  0  0  0  0
  -23.6287   -8.2251   22.0756 C   0  0  0  0  0  0
  -22.4268   -8.0282   21.3541 C   0  0  0  0  0  0
  -21.9907   -9.0258   20.4646 C   0  0  0  0  0  0
  -22.7236  -10.2139   20.3050 C   0  0  0  0  0  0
  -21.6846   -6.0735   22.5279 C   0  0  0  0  0  0
  -21.4018   -6.5644   23.8214 C   0  0  0  0  0  0
  -21.3657   -5.6793   24.9177 C   0  0  0  0  0  0
  -21.6042   -4.3054   24.7230 C   0  0  0  0  0  0
  -21.8815   -3.8147   23.4351 C   0  0  0  0  0  0
  -21.9199   -4.6964   22.3403 C   0  0  0  0  0  0
  -22.7879  -13.5240   21.1843 C   0  0  0  0  0  0
  -22.1660   -4.2153   21.0976 F   0  0  0  0  0  0
  -21.5631   -3.4536   25.7743 F   0  0  0  0  0  0
  -30.0603  -13.1949   20.4551 N   0  0  0  0  0  0
  -26.3052  -12.9340   20.3383 N   0  0  0  0  0  0
  -25.9331  -11.6489   20.5754 N   0  0  0  0  0  0
  -22.0511  -12.8227   22.0397 N   0  0  0  0  0  0
  -25.4357  -15.1889   20.4092 N   0  0  0  0  0  0
  -31.7295  -14.7029   20.0456 O   0  0  0  0  0  0
  -21.6633   -6.8877   21.4235 O   0  0  0  0  0  0
  -22.3565  -14.5553   20.6713 O   0  0  0  0  0  0
  -24.6103  -31.8703   23.2122 C   0  0  0  0  0  0
  -25.9039  -32.4817   23.8381 C   0  0  1  0  0  0
  -27.2362  -27.4675   20.0915 C   0  0  0  0  0  0
  -25.5942  -33.8609   24.2343 N   0  0  0  0  0  0
  -23.3968  -30.4927   21.5531 C   0  0  2  0  0  0
  -24.8462  -28.9623   20.1157 C   0  0  0  0  0  0
  -22.7387  -29.4658   22.5004 C   0  0  0  0  0  0
  -18.0268  -28.1348   22.8456 C   0  0  0  0  0  0
  -24.1514  -36.7299   23.2638 C   0  0  0  0  0  0
  -25.9211  -30.8423   21.3641 C   0  0  0  0  0  0
  -26.0019  -29.4772   20.7181 C   0  0  0  0  0  0
  -27.2015  -28.7340   20.7115 C   0  0  0  0  0  0
  -26.0737  -26.9655   19.4724 C   0  0  0  0  0  0
  -24.8744  -27.7014   19.4931 C   0  0  0  0  0  0
  -23.6079  -29.8280   20.1652 C   0  0  0  0  0  0
  -25.4127  -36.3085   24.0338 C   0  0  1  0  0  0
  -20.5862  -28.3620   23.1316 C   0  0  2  0  0  0
  -20.6767  -26.9365   22.5393 C   0  0  0  0  0  0
  -19.5759  -26.6357   21.5176 C   0  0  0  0  0  0
  -18.1927  -26.7887   22.1590 C   0  0  0  0  0  0
  -19.1521  -28.8805   23.2870 C   0  0  0  0  0  0
  -18.9457  -30.1409   23.8877 C   0  0  0  0  0  0
  -17.6472  -30.6558   24.0543 C   0  0  0  0  0  0
  -25.9054  -34.9465   23.5126 C   0  0  0  0  0  0
  -16.5362  -29.9059   23.6322 C   0  0  0  0  0  0
  -16.7262  -28.6483   23.0326 C   0  0  0  0  0  0
  -26.4481  -31.6566   25.0675 C   0  0  0  0  0  0
  -25.3759  -31.3684   26.1431 C   0  0  0  0  0  0
  -27.0308  -30.3025   24.5982 C   0  0  0  0  0  0
  -27.6050  -32.4270   25.7470 C   0  0  0  0  0  0
  -27.5582  -37.1806   24.8460 C   0  0  0  0  0  0
  -21.4123  -29.3009   22.3749 N   0  0  0  0  0  0
  -26.4303  -37.3770   23.9400 N   0  0  0  0  0  0
  -24.6605  -31.0821   22.1021 N   0  0  0  0  0  0
  -23.4180  -28.8203   23.3027 O   0  0  0  0  0  0
  -28.3894  -26.7271   20.0399 O   0  0  0  0  0  0
  -26.5569  -34.8915   22.4657 O   0  0  0  0  0  0
  -23.5317  -32.1449   23.7559 O   0  0  0  0  0  0
  -29.9168  -17.1729   23.3942 C   0  0  0  0  0  0
  -29.5125  -18.5165   23.5019 C   0  0  0  0  0  0
  -30.3797  -19.5287   23.0114 C   0  0  0  0  0  0
  -31.1661  -16.8761   22.8279 C   0  0  0  0  0  0
  -31.6012  -19.1163   22.4158 C   0  0  0  0  0  0
  -30.1820  -23.8763   20.8893 C   0  0  0  0  0  0
  -28.0539  -23.6783   22.3118 C   0  0  0  0  0  0
  -30.1103  -25.4054   21.0535 C   0  0  0  0  0  0
  -27.6271  -24.7937   21.3357 C   0  0  0  0  0  0
  -29.5049  -23.1776   22.0853 C   0  0  1  0  0  0
  -28.6649  -25.9379   21.1981 C   0  0  1  0  0  0
  -28.1883  -18.8235   24.1802 C   0  0  0  0  0  0
  -32.6083  -20.0990   21.8418 C   0  0  0  0  0  0
  -30.0652  -21.0207   23.2008 C   0  0  0  0  0  0
  -31.6737  -15.4511   22.7818 C   0  0  0  0  0  0
  -31.9771  -17.8244   22.3257 N   0  0  0  0  0  0
  -30.7600  -14.5725   22.0698 N   0  0  0  0  0  0
  -29.5830  -21.6989   21.9741 N   0  3  0  0  0  0
  -31.4481  -12.4017   19.0378 H   0  0  0  0  0  0
  -30.3109  -11.2573   19.6890 H   0  0  0  0  0  0
  -29.6920  -11.8787   17.3469 H   0  0  0  0  0  0
  -29.6259  -13.5649   17.7913 H   0  0  0  0  0  0
  -27.8207  -11.3264   18.7839 H   0  0  0  0  0  0
  -27.3339  -12.6731   17.7902 H   0  0  0  0  0  0
  -27.7263  -14.2593   19.6070 H   0  0  0  0  0  0
  -28.6459  -11.9181   21.3426 H   0  0  0  0  0  0
  -28.4652  -13.5762   21.8493 H   0  0  0  0  0  0
  -25.2762   -9.5692   22.4760 H   0  0  0  0  0  0
  -23.9997   -7.4645   22.7477 H   0  0  0  0  0  0
  -21.0844   -8.8774   19.8952 H   0  0  0  0  0  0
  -22.3696  -10.9674   19.6159 H   0  0  0  0  0  0
  -21.2000   -7.6151   23.9720 H   0  0  0  0  0  0
  -21.1483   -6.0522   25.9078 H   0  0  0  0  0  0
  -22.0596   -2.7611   23.2850 H   0  0  0  0  0  0
  -22.4112  -11.9869   22.4762 H   0  0  0  0  0  0
  -21.1142  -13.1277   22.2614 H   0  0  0  0  0  0
  -24.6760  -15.8510   20.5184 H   0  0  0  0  0  0
  -26.3030  -15.6232   20.1181 H   0  0  0  0  0  0
  -26.7109  -32.5560   23.1150 H   0  0  0  0  0  0
  -25.0155  -33.9755   25.0537 H   0  0  0  0  0  0
  -22.6843  -31.3093   21.4156 H   0  0  0  0  0  0
  -23.3754  -35.9654   23.3285 H   0  0  0  0  0  0
  -24.3616  -36.8920   22.2050 H   0  0  0  0  0  0
  -23.7284  -37.6516   23.6653 H   0  0  0  0  0  0
  -26.0281  -31.6084   20.5953 H   0  0  0  0  0  0
  -26.8114  -30.8997   21.9775 H   0  0  0  0  0  0
  -28.0974  -29.1273   21.1732 H   0  0  0  0  0  0
  -26.1002  -26.0078   18.9738 H   0  0  0  0  0  0
  -23.9889  -27.3043   19.0157 H   0  0  0  0  0  0
  -23.7195  -30.6079   19.4097 H   0  0  0  0  0  0
  -22.7314  -29.2520   19.8641 H   0  0  0  0  0  0
  -25.1294  -36.1939   25.0823 H   0  0  0  0  0  0
  -20.9912  -28.3174   24.1456 H   0  0  0  0  0  0
  -20.5680  -26.2216   23.3563 H   0  0  0  0  0  0
  -21.6644  -26.7417   22.1207 H   0  0  0  0  0  0
  -19.6945  -25.6266   21.1208 H   0  0  0  0  0  0
  -19.6741  -27.3168   20.6699 H   0  0  0  0  0  0
  -17.4204  -26.6602   21.3982 H   0  0  0  0  0  0
  -18.0346  -26.0022   22.8973 H   0  0  0  0  0  0
  -19.7949  -30.7184   24.2264 H   0  0  0  0  0  0
  -17.5047  -31.6246   24.5124 H   0  0  0  0  0  0
  -15.5374  -30.2959   23.7653 H   0  0  0  0  0  0
  -15.8646  -28.0805   22.7042 H   0  0  0  0  0  0
  -24.5920  -30.7042   25.7776 H   0  0  0  0  0  0
  -24.8958  -32.2848   26.4854 H   0  0  0  0  0  0
  -25.8088  -30.8862   27.0199 H   0  0  0  0  0  0
  -26.2811  -29.6800   24.1070 H   0  0  0  0  0  0
  -27.4174  -29.7224   25.4367 H   0  0  0  0  0  0
  -27.8607  -30.4369   23.9046 H   0  0  0  0  0  0
  -27.2654  -33.3561   26.2056 H   0  0  0  0  0  0
  -28.3878  -32.6835   25.0325 H   0  0  0  0  0  0
  -28.0689  -31.8377   26.5392 H   0  0  0  0  0  0
  -28.2576  -38.0118   24.7498 H   0  0  0  0  0  0
  -28.1106  -36.2645   24.6302 H   0  0  0  0  0  0
  -27.2293  -37.1456   25.8861 H   0  0  0  0  0  0
  -20.9277  -29.8755   21.6999 H   0  0  0  0  0  0
  -26.0187  -38.2848   24.1395 H   0  0  0  0  0  0
  -29.2974  -16.3734   23.7814 H   0  0  0  0  0  0
  -31.2274  -23.5735   20.8215 H   0  0  0  0  0  0
  -29.7118  -23.5842   19.9482 H   0  0  0  0  0  0
  -27.3367  -22.8598   22.2385 H   0  0  0  0  0  0
  -27.9651  -24.0501   23.3335 H   0  0  0  0  0  0
  -30.6202  -25.8925   20.2216 H   0  0  0  0  0  0
  -30.6774  -25.6875   21.9410 H   0  0  0  0  0  0
  -26.6622  -25.1977   21.6467 H   0  0  0  0  0  0
  -27.4588  -24.3475   20.3536 H   0  0  0  0  0  0
  -30.0838  -23.4838   22.9590 H   0  0  0  0  0  0
  -28.6205  -26.5762   22.0839 H   0  0  0  0  0  0
  -27.5776  -17.9240   24.2749 H   0  0  0  0  0  0
  -27.6081  -19.5514   23.6135 H   0  0  0  0  0  0
  -28.3549  -19.2108   25.1861 H   0  0  0  0  0  0
  -33.0449  -20.7102   22.6314 H   0  0  0  0  0  0
  -32.1471  -20.7542   21.1035 H   0  0  0  0  0  0
  -33.4254  -19.5764   21.3401 H   0  0  0  0  0  0
  -30.9760  -21.5034   23.5582 H   0  0  0  0  0  0
  -29.3367  -21.1735   23.9960 H   0  0  0  0  0  0
  -31.7713  -15.0882   23.8055 H   0  0  0  0  0  0
  -32.6770  -15.4090   22.3529 H   0  0  0  0  0  0
  -30.0682  -14.0901   22.6218 H   0  0  0  0  0  0
  -30.2138  -21.4827   21.2213 H   0  0  0  0  0  0
  -28.6806  -21.3330   21.7134 H   0  0  0  0  0  0
  1 25  1  0  0  0
  1 30  2  0  0  0
  1 87  1  0  0  0
  2  3  1  0  0  0
  2 25  1  0  0  0
  2 89  1  0  0  0
  2 90  1  0  0  0
  3  4  1  0  0  0
  3 91  1  0  0  0
  3 92  1  0  0  0
  4  5  1  0  0  0
  4 93  1  0  0  0
  4 94  1  0  0  0
  5  6  1  0  0  0
  5 26  1  0  0  0
  5 95  1  0  0  0
  6 25  1  0  0  0
  6 96  1  0  0  0
  6 97  1  0  0  0
  7  8  2  0  0  0
  7 26  1  0  0  0
  7 29  1  0  0  0
  8  9  1  0  0  0
  8 22  1  0  0  0
  9 10  1  0  0  0
  9 27  2  0  0  0
 10 11  2  0  0  0
 10 15  1  0  0  0
 11 12  1  0  0  0
 11 98  1  0  0  0
 12 13  2  0  0  0
 12 99  1  0  0  0
 13 14  1  0  0  0
 13 31  1  0  0  0
 14 15  2  0  0  0
 14100  1  0  0  0
 15101  1  0  0  0
 16 17  2  0  0  0
 16 21  1  0  0  0
 16 31  1  0  0  0
 17 18  1  0  0  0
 17102  1  0  0  0
 18 19  2  0  0  0
 18103  1  0  0  0
 19 20  1  0  0  0
 19 24  1  0  0  0
 20 21  2  0  0  0
 20104  1  0  0  0
 21 23  1  0  0  0
 22 28  1  0  0  0
 22 32  2  0  0  0
 26 27  1  0  0  0
 28105  1  0  0  0
 28106  1  0  0  0
 29107  1  0  0  0
 29108  1  0  0  0
 33 34  1  0  0  0
 33 66  1  0  0  0
 33 70  2  0  0  0
 34 36  1  0  0  0
 34 59  1  0  0  0
 34109  1  0  0  0
 35 44  2  0  0  0
 35 45  1  0  0  0
 35 68  1  0  0  0
 36 56  1  0  0  0
 36110  1  0  0  0
 37 39  1  0  0  0
 37 47  1  0  0  0
 37 66  1  0  0  0
 37111  1  0  0  0
 38 43  2  0  0  0
 38 46  1  0  0  0
 38 47  1  0  0  0
 39 64  1  0  0  0
 39 67  2  0  0  0
 40 52  1  0  0  0
 40 53  2  0  0  0
 40 58  1  0  0  0
 41112  1  0  0  0
 41113  1  0  0  0
 41114  1  0  0  0
 41 48  1  0  0  0
 42 43  1  0  0  0
 42 66  1  0  0  0
 42115  1  0  0  0
 42116  1  0  0  0
 43 44  1  0  0  0
 44117  1  0  0  0
 45 46  2  0  0  0
 45118  1  0  0  0
 46119  1  0  0  0
 47120  1  0  0  0
 47121  1  0  0  0
 48 56  1  0  0  0
 48 65  1  0  0  0
 48122  1  0  0  0
 49 50  1  0  0  0
 49 53  1  0  0  0
 49 64  1  0  0  0
 49123  1  0  0  0
 50 51  1  0  0  0
 50124  1  0  0  0
 50125  1  0  0  0
 51 52  1  0  0  0
 51126  1  0  0  0
 51127  1  0  0  0
 52128  1  0  0  0
 52129  1  0  0  0
 53 54  1  0  0  0
 54 55  2  0  0  0
 54130  1  0  0  0
 55 57  1  0  0  0
 55131  1  0  0  0
 56 69  2  0  0  0
 57 58  2  0  0  0
 57132  1  0  0  0
 58133  1  0  0  0
 59 60  1  0  0  0
 59 61  1  0  0  0
 59 62  1  0  0  0
 60134  1  0  0  0
 60135  1  0  0  0
 60136  1  0  0  0
 61137  1  0  0  0
 61138  1  0  0  0
 61139  1  0  0  0
 62140  1  0  0  0
 62141  1  0  0  0
 62142  1  0  0  0
 63 65  1  0  0  0
 63143  1  0  0  0
 63144  1  0  0  0
 63145  1  0  0  0
 64146  1  0  0  0
 65147  1  0  0  0
 68 81  1  0  0  0
 71 72  2  0  0  0
 71 74  1  0  0  0
 71148  1  0  0  0
 72 73  1  0  0  0
 72 82  1  0  0  0
 73 75  2  0  0  0
 73 84  1  0  0  0
 74 85  1  0  0  0
 74 86  2  0  0  0
 75 83  1  0  0  0
 75 86  1  0  0  0
 76 78  1  0  0  0
 76 80  1  0  0  0
 76149  1  0  0  0
 76150  1  0  0  0
 77 79  1  0  0  0
 77 80  1  0  0  0
 77151  1  0  0  0
 77152  1  0  0  0
 78 81  1  0  0  0
 78153  1  0  0  0
 78154  1  0  0  0
 79 81  1  0  0  0
 79155  1  0  0  0
 79156  1  0  0  0
 80 88  1  0  0  0
 80157  1  0  0  0
 81158  1  0  0  0
 82159  1  0  0  0
 82160  1  0  0  0
 82161  1  0  0  0
 83162  1  0  0  0
 83163  1  0  0  0
 83164  1  0  0  0
 84 88  1  0  0  0
 84165  1  0  0  0
 84166  1  0  0  0
 85 87  1  0  0  0
 85167  1  0  0  0
 85168  1  0  0  0
 87169  1  0  0  0
 88170  1  0  0  0
 88171  1  0  0  0
M  CHG  1  88   1
M  ISO  4   1 100  68 101  81 101  87 100
M  END
> <chiral flag>
0

> <version>
0

> <s_m_source_file>
/data/baiqing/PycharmProjects/Reinvent-master-3.2/result/LINK_invent/BTK/process_docking_weight1_custom_sum_contain_oxygen_bond_distance_aromatic_linkinvent_7_9_3/rearranged_h_0134.sdf

> <i_m_source_file_index>
91

> <r_mmod_Potential_Energy-OPLS-2005>
-415.592254638672

> <r_mmod_Stretch_Energy-OPLS-2005>
33.5817909240723

> <r_mmod_Bend_Energy-OPLS-2005>
88.6748809814453

> <r_mmod_Torsional_Energy-OPLS-2005>
272.592590332031

> <r_mmod_Improper_Torsional_Energy-OPLS-2005>
5.91239452362061

> <r_mmod_Van_der_Waal_Energy-OPLS-2005>
161.357849121094

> <r_mmod_Electrostatic_Energy-OPLS-2005>
-518.550354003906

> <r_mmod_Solvation_Energy-OPLS-2005>
-469.287078857422

> <b_mmod_Minimization_Converged-OPLS-2005>
0

> <r_mmod_RMS_Derivative-OPLS-2005>
2.73510122299194

$$$$
91
                    3D
 Structure written by MMmdl.
156165  0  0  1  0            999 V2000
  -30.5376  -15.0206   20.3976 C   0  0  0  0  0  0
  -30.4444  -12.6404   19.4850 C   0  0  0  0  0  0
  -29.5164  -12.5196   18.2533 C   0  0  0  0  0  0
  -28.0582  -12.2945   18.6922 C   0  0  0  0  0  0
  -27.6273  -13.2502   19.8348 C   0  0  2  0  0  0
  -28.6777  -13.3173   20.9621 C   0  0  0  0  0  0
  -25.2465  -13.8215   20.5724 C   0  0  0  0  0  0
  -24.1776  -13.0437   20.9248 C   0  0  0  0  0  0
  -24.6408  -11.6932   20.8795 C   0  0  0  0  0  0
  -23.9094  -10.4295   21.0445 C   0  0  0  0  0  0
  -24.3630   -9.4195   21.9225 C   0  0  0  0  0  0
  -23.6284   -8.2242   22.0783 C   0  0  0  0  0  0
  -22.4274   -8.0295   21.3555 C   0  0  0  0  0  0
  -21.9921   -9.0282   20.4668 C   0  0  0  0  0  0
  -22.7263  -10.2157   20.3086 C   0  0  0  0  0  0
  -21.6854   -6.0743   22.5267 C   0  0  0  0  0  0
  -21.4014   -6.5644   23.8203 C   0  0  0  0  0  0
  -21.3658   -5.6791   24.9166 C   0  0  0  0  0  0
  -21.6038   -4.3054   24.7209 C   0  0  0  0  0  0
  -21.8821   -3.8150   23.4332 C   0  0  0  0  0  0
  -21.9186   -4.6970   22.3389 C   0  0  0  0  0  0
  -22.7796  -13.5224   21.1890 C   0  0  0  0  0  0
  -22.1655   -4.2163   21.0965 F   0  0  0  0  0  0
  -21.5634   -3.4532   25.7724 F   0  0  0  0  0  0
  -29.9362  -13.7547   20.3422 N   0  0  0  0  0  0
  -26.2895  -12.9456   20.3278 N   0  0  0  0  0  0
  -25.9342  -11.6587   20.5786 N   0  0  0  0  0  0
  -22.0418  -12.8231   22.0436 N   0  0  0  0  0  0
  -25.4109  -15.1943   20.4132 N   0  0  0  0  0  0
  -31.7528  -15.0560   20.1810 O   0  0  0  0  0  0
  -21.6630   -6.8891   21.4239 O   0  0  0  0  0  0
  -22.3500  -14.5526   20.6729 O   0  0  0  0  0  0
  -24.6483  -31.8371   23.1849 C   0  0  0  0  0  0
  -25.9241  -32.4652   23.8251 C   0  0  1  0  0  0
  -27.2205  -27.0716   20.1502 C   0  0  0  0  0  0
  -25.5965  -33.8463   24.2154 N   0  0  0  0  0  0
  -23.4566  -30.4539   21.5312 C   0  0  2  0  0  0
  -24.9116  -28.8810   20.1017 C   0  0  0  0  0  0
  -22.7608  -29.4479   22.4822 C   0  0  0  0  0  0
  -18.0307  -28.1384   22.8437 C   0  0  0  0  0  0
  -24.1503  -36.7241   23.2634 C   0  0  0  0  0  0
  -26.0161  -30.6858   21.4019 C   0  0  0  0  0  0
  -26.0872  -29.2926   20.7428 C   0  0  0  0  0  0
  -27.2369  -28.4030   20.7590 C   0  0  0  0  0  0
  -26.0274  -26.8035   19.4358 C   0  0  0  0  0  0
  -24.9001  -27.6538   19.4295 C   0  0  0  0  0  0
  -23.6866  -29.7843   20.1511 C   0  0  0  0  0  0
  -25.4123  -36.2998   24.0298 C   0  0  1  0  0  0
  -20.5922  -28.3733   23.1182 C   0  0  2  0  0  0
  -20.6805  -26.9424   22.5385 C   0  0  0  0  0  0
  -19.5796  -26.6374   21.5183 C   0  0  0  0  0  0
  -18.1963  -26.7921   22.1578 C   0  0  0  0  0  0
  -19.1564  -28.8869   23.2805 C   0  0  0  0  0  0
  -18.9491  -30.1461   23.8842 C   0  0  0  0  0  0
  -17.6502  -30.6593   24.0532 C   0  0  0  0  0  0
  -25.9088  -34.9376   23.5038 C   0  0  0  0  0  0
  -16.5390  -29.9077   23.6346 C   0  0  0  0  0  0
  -16.7294  -28.6497   23.0352 C   0  0  0  0  0  0
  -26.4558  -31.6539   25.0727 C   0  0  0  0  0  0
  -25.3708  -31.3748   26.1399 C   0  0  0  0  0  0
  -27.0442  -30.2902   24.6392 C   0  0  0  0  0  0
  -27.6090  -32.4338   25.7497 C   0  0  0  0  0  0
  -27.5583  -37.1747   24.8454 C   0  0  0  0  0  0
  -21.4292  -29.3039   22.3561 N   0  0  0  0  0  0
  -26.4290  -37.3712   23.9398 N   0  0  0  0  0  0
  -24.7262  -31.0156   22.0934 N   0  0  0  0  0  0
  -23.4207  -28.8021   23.3001 O   0  0  0  0  0  0
  -28.2360  -26.0207   20.2595 O   0  0  0  0  0  0
  -26.5706  -34.8892   22.4640 O   0  0  0  0  0  0
  -23.5593  -32.1285   23.7030 O   0  0  0  0  0  0
  -29.6998  -21.5278   21.4152 C   0  0  0  0  0  0
  -29.4071  -22.8910   21.3453 C   0  0  0  0  0  0
  -29.1283  -20.7712   20.3310 C   0  0  0  0  0  0
  -28.5458  -21.8640   19.6033 C   0  0  0  0  0  0
  -26.8819  -22.4224   17.7748 C   0  0  0  0  0  0
  -27.8858  -21.7376   18.3362 C   0  0  0  0  0  0
  -27.2356  -21.9454   16.3754 C   0  0  0  0  0  0
  -28.3461  -21.1005   17.0433 C   0  0  0  0  0  0
  -29.0661  -19.0866   20.1007 C   0  0  0  0  0  0
  -30.1123  -17.8075   20.5565 C   0  0  0  0  0  0
  -27.9312  -24.5794   19.7757 C   0  0  0  0  0  0
  -28.6341  -23.1944   20.2284 N   0  0  0  0  0  0
  -29.7722  -16.2343   20.4858 N   0  0  0  0  0  0
  -31.4690  -12.8180   19.1544 H   0  0  0  0  0  0
  -30.4688  -11.7046   20.0452 H   0  0  0  0  0  0
  -29.8428  -11.6938   17.6182 H   0  0  0  0  0  0
  -29.5853  -13.4241   17.6465 H   0  0  0  0  0  0
  -27.9828  -11.2642   19.0410 H   0  0  0  0  0  0
  -27.3800  -12.3788   17.8411 H   0  0  0  0  0  0
  -27.5784  -14.2417   19.3857 H   0  0  0  0  0  0
  -28.7934  -12.3469   21.4472 H   0  0  0  0  0  0
  -28.3717  -14.0183   21.7407 H   0  0  0  0  0  0
  -25.2771   -9.5674   22.4817 H   0  0  0  0  0  0
  -23.9980   -7.4637   22.7528 H   0  0  0  0  0  0
  -21.0835   -8.8825   19.8979 H   0  0  0  0  0  0
  -22.3721  -10.9721   19.6210 H   0  0  0  0  0  0
  -21.2009   -7.6155   23.9710 H   0  0  0  0  0  0
  -21.1480   -6.0522   25.9069 H   0  0  0  0  0  0
  -22.0600   -2.7619   23.2818 H   0  0  0  0  0  0
  -22.3977  -11.9849   22.4793 H   0  0  0  0  0  0
  -21.1077  -13.1353   22.2693 H   0  0  0  0  0  0
  -24.6408  -15.8445   20.5259 H   0  0  0  0  0  0
  -26.2481  -15.6334   20.0522 H   0  0  0  0  0  0
  -26.7297  -32.5242   23.0966 H   0  0  0  0  0  0
  -25.0016  -33.9550   25.0240 H   0  0  0  0  0  0
  -22.7598  -31.2813   21.3760 H   0  0  0  0  0  0
  -23.3796  -35.9549   23.3264 H   0  0  0  0  0  0
  -24.3568  -36.8936   22.2057 H   0  0  0  0  0  0
  -23.7252  -37.6402   23.6736 H   0  0  0  0  0  0
  -26.1829  -31.4380   20.6307 H   0  0  0  0  0  0
  -26.8787  -30.7327   22.0519 H   0  0  0  0  0  0
  -28.1213  -28.7065   21.3023 H   0  0  0  0  0  0
  -25.9119  -25.8893   18.8771 H   0  0  0  0  0  0
  -24.0126  -27.3442   18.8925 H   0  0  0  0  0  0
  -23.8176  -30.5587   19.3959 H   0  0  0  0  0  0
  -22.8032  -29.2217   19.8461 H   0  0  0  0  0  0
  -25.1313  -36.1818   25.0795 H   0  0  0  0  0  0
  -20.9979  -28.3381   24.1307 H   0  0  0  0  0  0
  -20.5695  -26.2347   23.3608 H   0  0  0  0  0  0
  -21.6669  -26.7434   22.1179 H   0  0  0  0  0  0
  -19.6986  -25.6273   21.1235 H   0  0  0  0  0  0
  -19.6763  -27.3159   20.6694 H   0  0  0  0  0  0
  -17.4230  -26.6629   21.4002 H   0  0  0  0  0  0
  -18.0396  -26.0063   22.8973 H   0  0  0  0  0  0
  -19.7988  -30.7253   24.2195 H   0  0  0  0  0  0
  -17.5079  -31.6258   24.5161 H   0  0  0  0  0  0
  -15.5388  -30.2965   23.7717 H   0  0  0  0  0  0
  -15.8685  -28.0810   22.7095 H   0  0  0  0  0  0
  -24.5927  -30.7066   25.7705 H   0  0  0  0  0  0
  -24.8847  -32.2933   26.4716 H   0  0  0  0  0  0
  -25.7950  -30.8997   27.0250 H   0  0  0  0  0  0
  -26.3077  -29.6579   24.1425 H   0  0  0  0  0  0
  -27.4018  -29.7278   25.5018 H   0  0  0  0  0  0
  -27.9015  -30.4088   23.9759 H   0  0  0  0  0  0
  -27.2723  -33.3760   26.1845 H   0  0  0  0  0  0
  -28.4005  -32.6674   25.0371 H   0  0  0  0  0  0
  -28.0617  -31.8586   26.5580 H   0  0  0  0  0  0
  -28.2536  -38.0098   24.7528 H   0  0  0  0  0  0
  -28.1141  -36.2617   24.6265 H   0  0  0  0  0  0
  -27.2280  -37.1346   25.8847 H   0  0  0  0  0  0
  -20.9527  -29.8722   21.6684 H   0  0  0  0  0  0
  -26.0175  -38.2772   24.1474 H   0  0  0  0  0  0
  -30.2617  -21.0943   22.2323 H   0  0  0  0  0  0
  -29.6658  -23.6848   22.0342 H   0  0  0  0  0  0
  -26.1702  -23.1643   18.1270 H   0  0  0  0  0  0
  -27.6444  -22.7047   15.7047 H   0  0  0  0  0  0
  -26.4966  -21.3466   15.8430 H   0  0  0  0  0  0
  -28.1938  -20.0258   16.9354 H   0  0  0  0  0  0
  -29.3364  -21.3746   16.6783 H   0  0  0  0  0  0
  -28.9038  -18.9537   19.0321 H   0  0  0  0  0  0
  -28.1086  -18.8216   20.5489 H   0  0  0  0  0  0
  -30.3640  -17.9818   21.6037 H   0  0  0  0  0  0
  -31.0557  -17.9497   20.0277 H   0  0  0  0  0  0
  -26.8821  -24.3917   19.9980 H   0  0  0  0  0  0
  -28.0376  -24.6294   18.6929 H   0  0  0  0  0  0
  -28.7847  -16.0431   20.5637 H   0  0  0  0  0  0
  1 25  1  0  0  0
  1 30  2  0  0  0
  1 83  1  0  0  0
  2  3  1  0  0  0
  2 25  1  0  0  0
  2 84  1  0  0  0
  2 85  1  0  0  0
  3  4  1  0  0  0
  3 86  1  0  0  0
  3 87  1  0  0  0
  4  5  1  0  0  0
  4 88  1  0  0  0
  4 89  1  0  0  0
  5  6  1  0  0  0
  5 26  1  0  0  0
  5 90  1  0  0  0
  6 25  1  0  0  0
  6 91  1  0  0  0
  6 92  1  0  0  0
  7  8  2  0  0  0
  7 26  1  0  0  0
  7 29  1  0  0  0
  8  9  1  0  0  0
  8 22  1  0  0  0
  9 10  1  0  0  0
  9 27  2  0  0  0
 10 11  2  0  0  0
 10 15  1  0  0  0
 11 12  1  0  0  0
 11 93  1  0  0  0
 12 13  2  0  0  0
 12 94  1  0  0  0
 13 14  1  0  0  0
 13 31  1  0  0  0
 14 15  2  0  0  0
 14 95  1  0  0  0
 15 96  1  0  0  0
 16 17  2  0  0  0
 16 21  1  0  0  0
 16 31  1  0  0  0
 17 18  1  0  0  0
 17 97  1  0  0  0
 18 19  2  0  0  0
 18 98  1  0  0  0
 19 20  1  0  0  0
 19 24  1  0  0  0
 20 21  2  0  0  0
 20 99  1  0  0  0
 21 23  1  0  0  0
 22 28  1  0  0  0
 22 32  2  0  0  0
 26 27  1  0  0  0
 28100  1  0  0  0
 28101  1  0  0  0
 29102  1  0  0  0
 29103  1  0  0  0
 33 34  1  0  0  0
 33 66  1  0  0  0
 33 70  2  0  0  0
 34 36  1  0  0  0
 34 59  1  0  0  0
 34104  1  0  0  0
 35 44  2  0  0  0
 35 45  1  0  0  0
 35 68  1  0  0  0
 36 56  1  0  0  0
 36105  1  0  0  0
 37 39  1  0  0  0
 37 47  1  0  0  0
 37 66  1  0  0  0
 37106  1  0  0  0
 38 43  2  0  0  0
 38 46  1  0  0  0
 38 47  1  0  0  0
 39 64  1  0  0  0
 39 67  2  0  0  0
 40 52  1  0  0  0
 40 53  2  0  0  0
 40 58  1  0  0  0
 41107  1  0  0  0
 41108  1  0  0  0
 41109  1  0  0  0
 41 48  1  0  0  0
 42 43  1  0  0  0
 42 66  1  0  0  0
 42110  1  0  0  0
 42111  1  0  0  0
 43 44  1  0  0  0
 44112  1  0  0  0
 45 46  2  0  0  0
 45113  1  0  0  0
 46114  1  0  0  0
 47115  1  0  0  0
 47116  1  0  0  0
 48 56  1  0  0  0
 48 65  1  0  0  0
 48117  1  0  0  0
 49 50  1  0  0  0
 49 53  1  0  0  0
 49 64  1  0  0  0
 49118  1  0  0  0
 50 51  1  0  0  0
 50119  1  0  0  0
 50120  1  0  0  0
 51 52  1  0  0  0
 51121  1  0  0  0
 51122  1  0  0  0
 52123  1  0  0  0
 52124  1  0  0  0
 53 54  1  0  0  0
 54 55  2  0  0  0
 54125  1  0  0  0
 55 57  1  0  0  0
 55126  1  0  0  0
 56 69  2  0  0  0
 57 58  2  0  0  0
 57127  1  0  0  0
 58128  1  0  0  0
 59 60  1  0  0  0
 59 61  1  0  0  0
 59 62  1  0  0  0
 60129  1  0  0  0
 60130  1  0  0  0
 60131  1  0  0  0
 61132  1  0  0  0
 61133  1  0  0  0
 61134  1  0  0  0
 62135  1  0  0  0
 62136  1  0  0  0
 62137  1  0  0  0
 63 65  1  0  0  0
 63138  1  0  0  0
 63139  1  0  0  0
 63140  1  0  0  0
 64141  1  0  0  0
 65142  1  0  0  0
 68 81  1  0  0  0
 71 72  2  0  0  0
 71 73  1  0  0  0
 71143  1  0  0  0
 72 82  1  0  0  0
 72144  1  0  0  0
 73 74  2  0  0  0
 73 79  1  0  0  0
 74 76  1  0  0  0
 74 82  1  0  0  0
 75 76  2  0  0  0
 75 77  1  0  0  0
 75145  1  0  0  0
 76 78  1  0  0  0
 77 78  1  0  0  0
 77146  1  0  0  0
 77147  1  0  0  0
 78148  1  0  0  0
 78149  1  0  0  0
 79 80  1  0  0  0
 79150  1  0  0  0
 79151  1  0  0  0
 80 83  1  0  0  0
 80152  1  0  0  0
 80153  1  0  0  0
 81 82  1  0  0  0
 81154  1  0  0  0
 81155  1  0  0  0
 83156  1  0  0  0
M  ISO  4   1 100  68 101  81 101  83 100
M  END
> <chiral flag>
0

> <version>
0

> <s_m_source_file>
/data/baiqing/PycharmProjects/Reinvent-master-3.2/result/LINK_invent/BTK/process_docking_weight1_custom_sum_contain_oxygen_bond_distance_aromatic_linkinvent_7_9_3/rearranged_h_0134.sdf

> <i_m_source_file_index>
92

> <r_mmod_Potential_Energy-OPLS-2005>
658.877624511719

> <r_mmod_Stretch_Energy-OPLS-2005>
330.757202148438

> <r_mmod_Bend_Energy-OPLS-2005>
317.253540039062

> <r_mmod_Torsional_Energy-OPLS-2005>
222.476684570312

> <r_mmod_Improper_Torsional_Energy-OPLS-2005>
6.11973285675049

> <r_mmod_Van_der_Waal_Energy-OPLS-2005>
113.665588378906

> <r_mmod_Electrostatic_Energy-OPLS-2005>
-368.972808837891

> <r_mmod_Solvation_Energy-OPLS-2005>
-218.934204101562

> <b_mmod_Minimization_Converged-OPLS-2005>
0

> <r_mmod_RMS_Derivative-OPLS-2005>
3.12071657180786

$$$$
92
                    3D
 Structure written by MMmdl.
160168  0  0  1  0            999 V2000
  -30.6979  -14.4950   20.5679 C   0  0  0  0  0  0
  -30.4243  -12.3217   19.4262 C   0  0  0  0  0  0
  -29.4928  -12.4955   18.2079 C   0  0  0  0  0  0
  -28.0153  -12.3569   18.6249 C   0  0  0  0  0  0
  -27.6594  -13.2060   19.8733 C   0  0  2  0  0  0
  -28.7024  -13.0105   20.9963 C   0  0  0  0  0  0
  -25.2595  -13.8126   20.5666 C   0  0  0  0  0  0
  -24.1840  -13.0414   20.9195 C   0  0  0  0  0  0
  -24.6404  -11.6886   20.8747 C   0  0  0  0  0  0
  -23.9053  -10.4283   21.0409 C   0  0  0  0  0  0
  -24.3597   -9.4201   21.9184 C   0  0  0  0  0  0
  -23.6270   -8.2245   22.0769 C   0  0  0  0  0  0
  -22.4265   -8.0286   21.3557 C   0  0  0  0  0  0
  -21.9903   -9.0251   20.4661 C   0  0  0  0  0  0
  -22.7224  -10.2139   20.3054 C   0  0  0  0  0  0
  -21.6852   -6.0720   22.5273 C   0  0  0  0  0  0
  -21.4011   -6.5624   23.8196 C   0  0  0  0  0  0
  -21.3658   -5.6781   24.9162 C   0  0  0  0  0  0
  -21.6047   -4.3041   24.7220 C   0  0  0  0  0  0
  -21.8820   -3.8133   23.4343 C   0  0  0  0  0  0
  -21.9193   -4.6949   22.3404 C   0  0  0  0  0  0
  -22.7872  -13.5232   21.1840 C   0  0  0  0  0  0
  -22.1649   -4.2122   21.0984 F   0  0  0  0  0  0
  -21.5643   -3.4527   25.7740 F   0  0  0  0  0  0
  -30.0300  -13.3151   20.4384 N   0  0  0  0  0  0
  -26.3021  -12.9309   20.3348 N   0  0  0  0  0  0
  -25.9334  -11.6470   20.5779 N   0  0  0  0  0  0
  -22.0487  -12.8219   22.0380 N   0  0  0  0  0  0
  -25.4334  -15.1822   20.4023 N   0  0  0  0  0  0
  -31.8141  -14.6907   20.0829 O   0  0  0  0  0  0
  -21.6661   -6.8866   21.4237 O   0  0  0  0  0  0
  -22.3565  -14.5534   20.6686 O   0  0  0  0  0  0
  -24.6181  -31.8656   23.2057 C   0  0  0  0  0  0
  -25.9058  -32.4812   23.8364 C   0  0  1  0  0  0
  -27.2352  -27.4090   20.1070 C   0  0  0  0  0  0
  -25.5903  -33.8604   24.2307 N   0  0  0  0  0  0
  -23.4082  -30.4875   21.5459 C   0  0  2  0  0  0
  -24.8571  -28.9465   20.1158 C   0  0  0  0  0  0
  -22.7434  -29.4650   22.4958 C   0  0  0  0  0  0
  -18.0284  -28.1392   22.8491 C   0  0  0  0  0  0
  -24.1494  -36.7303   23.2634 C   0  0  0  0  0  0
  -25.9399  -30.8247   21.3611 C   0  0  0  0  0  0
  -26.0183  -29.4555   20.7107 C   0  0  0  0  0  0
  -27.2138  -28.6962   20.6985 C   0  0  0  0  0  0
  -26.0582  -26.9168   19.5066 C   0  0  0  0  0  0
  -24.8725  -27.6771   19.5096 C   0  0  0  0  0  0
  -23.6197  -29.8149   20.1622 C   0  0  0  0  0  0
  -25.4112  -36.3094   24.0327 C   0  0  1  0  0  0
  -20.5874  -28.3680   23.1314 C   0  0  2  0  0  0
  -20.6773  -26.9410   22.5417 C   0  0  0  0  0  0
  -19.5754  -26.6391   21.5221 C   0  0  0  0  0  0
  -18.1932  -26.7928   22.1629 C   0  0  0  0  0  0
  -19.1537  -28.8857   23.2896 C   0  0  0  0  0  0
  -18.9451  -30.1459   23.8914 C   0  0  0  0  0  0
  -17.6450  -30.6588   24.0572 C   0  0  0  0  0  0
  -25.9042  -34.9465   23.5122 C   0  0  0  0  0  0
  -16.5343  -29.9088   23.6326 C   0  0  0  0  0  0
  -16.7271  -28.6510   23.0337 C   0  0  0  0  0  0
  -26.4480  -31.6599   25.0698 C   0  0  0  0  0  0
  -25.3738  -31.3684   26.1435 C   0  0  0  0  0  0
  -27.0321  -30.3040   24.6086 C   0  0  0  0  0  0
  -27.6066  -32.4310   25.7455 C   0  0  0  0  0  0
  -27.5587  -37.1804   24.8464 C   0  0  0  0  0  0
  -21.4158  -29.3038   22.3710 N   0  0  0  0  0  0
  -26.4301  -37.3780   23.9404 N   0  0  0  0  0  0
  -24.6735  -31.0738   22.0961 N   0  0  0  0  0  0
  -23.4197  -28.8195   23.3006 O   0  0  0  0  0  0
  -28.3841  -26.6432   20.0987 O   0  0  0  0  0  0
  -26.5595  -34.8930   22.4683 O   0  0  0  0  0  0
  -23.5367  -32.1414   23.7440 O   0  0  0  0  0  0
  -26.7226  -19.3585   21.8148 C   0  0  0  0  0  0
  -27.6555  -20.5281   22.1568 C   0  0  0  0  0  0
  -27.2297  -18.8573   20.4623 C   0  0  0  0  0  0
  -28.8107  -20.4753   21.1252 C   0  0  2  0  0  0
  -28.7304  -21.6764   20.1148 C   0  0  0  0  0  0
  -29.4971  -16.6623   20.3417 C   0  0  0  0  0  0
  -29.4783  -18.0254   21.1173 C   0  0  0  0  0  0
  -28.3064  -25.3827   20.8054 C   0  0  0  0  0  0
  -28.5463  -24.1036   19.9503 C   0  0  0  0  0  0
  -30.0130  -15.5138   21.1236 N   0  0  0  0  0  0
  -28.6883  -19.1306   20.4622 N   0  3  1  0  0  0
  -28.6881  -22.9451   20.7958 O   0  0  0  0  0  0
  -31.4663  -12.4321   19.1223 H   0  0  0  0  0  0
  -30.3347  -11.3150   19.8369 H   0  0  0  0  0  0
  -29.7344  -11.7594   17.4407 H   0  0  0  0  0  0
  -29.6583  -13.4743   17.7540 H   0  0  0  0  0  0
  -27.8277  -11.3033   18.8303 H   0  0  0  0  0  0
  -27.3646  -12.6235   17.7912 H   0  0  0  0  0  0
  -27.6970  -14.2499   19.5634 H   0  0  0  0  0  0
  -28.6853  -11.9846   21.3655 H   0  0  0  0  0  0
  -28.4626  -13.6346   21.8588 H   0  0  0  0  0  0
  -25.2740   -9.5652   22.4756 H   0  0  0  0  0  0
  -23.9974   -7.4621   22.7479 H   0  0  0  0  0  0
  -21.0843   -8.8741   19.8964 H   0  0  0  0  0  0
  -22.3662  -10.9663   19.6157 H   0  0  0  0  0  0
  -21.1986   -7.6130   23.9681 H   0  0  0  0  0  0
  -21.1496   -6.0522   25.9060 H   0  0  0  0  0  0
  -22.0615   -2.7599   23.2853 H   0  0  0  0  0  0
  -22.4112  -11.9904   22.4812 H   0  0  0  0  0  0
  -21.1111  -13.1292   22.2569 H   0  0  0  0  0  0
  -24.6640  -15.8332   20.5042 H   0  0  0  0  0  0
  -26.2728  -15.6015   20.0281 H   0  0  0  0  0  0
  -26.7131  -32.5525   23.1131 H   0  0  0  0  0  0
  -25.0096  -33.9760   25.0478 H   0  0  0  0  0  0
  -22.6993  -31.3056   21.4001 H   0  0  0  0  0  0
  -23.3767  -35.9631   23.3307 H   0  0  0  0  0  0
  -24.3591  -36.8916   22.2052 H   0  0  0  0  0  0
  -23.7256  -37.6510   23.6654 H   0  0  0  0  0  0
  -26.0550  -31.5881   20.5894 H   0  0  0  0  0  0
  -26.8279  -30.8817   21.9785 H   0  0  0  0  0  0
  -28.1147  -29.0849   21.1541 H   0  0  0  0  0  0
  -26.0597  -25.9448   19.0347 H   0  0  0  0  0  0
  -23.9809  -27.2795   19.0452 H   0  0  0  0  0  0
  -23.7312  -30.5867   19.3992 H   0  0  0  0  0  0
  -22.7446  -29.2320   19.8669 H   0  0  0  0  0  0
  -25.1303  -36.1950   25.0820 H   0  0  0  0  0  0
  -20.9986  -28.3256   24.1426 H   0  0  0  0  0  0
  -20.5692  -26.2291   23.3607 H   0  0  0  0  0  0
  -21.6639  -26.7445   22.1204 H   0  0  0  0  0  0
  -19.6905  -25.6308   21.1244 H   0  0  0  0  0  0
  -19.6695  -27.3214   20.6763 H   0  0  0  0  0  0
  -17.4197  -26.6698   21.4024 H   0  0  0  0  0  0
  -18.0311  -26.0072   22.9029 H   0  0  0  0  0  0
  -19.7923  -30.7273   24.2297 H   0  0  0  0  0  0
  -17.4997  -31.6268   24.5173 H   0  0  0  0  0  0
  -15.5346  -30.2990   23.7637 H   0  0  0  0  0  0
  -15.8671  -28.0837   22.7032 H   0  0  0  0  0  0
  -24.5919  -30.7038   25.7747 H   0  0  0  0  0  0
  -24.8921  -32.2827   26.4894 H   0  0  0  0  0  0
  -25.8073  -30.8830   27.0185 H   0  0  0  0  0  0
  -26.2872  -29.6787   24.1151 H   0  0  0  0  0  0
  -27.4115  -29.7276   25.4541 H   0  0  0  0  0  0
  -27.8689  -30.4371   23.9228 H   0  0  0  0  0  0
  -27.2709  -33.3610   26.2045 H   0  0  0  0  0  0
  -28.3854  -32.6865   25.0261 H   0  0  0  0  0  0
  -28.0757  -31.8423   26.5354 H   0  0  0  0  0  0
  -28.2596  -38.0112   24.7520 H   0  0  0  0  0  0
  -28.1100  -36.2642   24.6284 H   0  0  0  0  0  0
  -27.2300  -37.1428   25.8866 H   0  0  0  0  0  0
  -20.9328  -29.8755   21.6917 H   0  0  0  0  0  0
  -26.0195  -38.2863   24.1400 H   0  0  0  0  0  0
  -25.6708  -19.6474   21.7856 H   0  0  0  0  0  0
  -26.8202  -18.5652   22.5589 H   0  0  0  0  0  0
  -28.0369  -20.4241   23.1754 H   0  0  0  0  0  0
  -27.1182  -21.4765   22.1186 H   0  0  0  0  0  0
  -26.7622  -19.4393   19.6673 H   0  0  0  0  0  0
  -26.9564  -17.8195   20.2809 H   0  0  0  0  0  0
  -29.7676  -20.5540   21.6416 H   0  0  0  0  0  0
  -27.8314  -21.5879   19.5030 H   0  0  0  0  0  0
  -29.5816  -21.6576   19.4323 H   0  0  0  0  0  0
  -28.4961  -16.3751   20.0317 H   0  0  0  0  0  0
  -30.0754  -16.7871   19.4239 H   0  0  0  0  0  0
  -30.5110  -18.3608   21.2200 H   0  0  0  0  0  0
  -29.1070  -17.8705   22.1307 H   0  0  0  0  0  0
  -29.0754  -25.4227   21.5777 H   0  0  0  0  0  0
  -27.3663  -25.2840   21.3494 H   0  0  0  0  0  0
  -29.4544  -24.2193   19.3566 H   0  0  0  0  0  0
  -27.7177  -23.9662   19.2520 H   0  0  0  0  0  0
  -30.4057  -15.7908   22.0122 H   0  0  0  0  0  0
  -29.0214  -19.2004   19.5106 H   0  0  0  0  0  0
  1 25  1  0  0  0
  1 30  2  0  0  0
  1 80  1  0  0  0
  2  3  1  0  0  0
  2 25  1  0  0  0
  2 83  1  0  0  0
  2 84  1  0  0  0
  3  4  1  0  0  0
  3 85  1  0  0  0
  3 86  1  0  0  0
  4  5  1  0  0  0
  4 87  1  0  0  0
  4 88  1  0  0  0
  5  6  1  0  0  0
  5 26  1  0  0  0
  5 89  1  0  0  0
  6 25  1  0  0  0
  6 90  1  0  0  0
  6 91  1  0  0  0
  7  8  2  0  0  0
  7 26  1  0  0  0
  7 29  1  0  0  0
  8  9  1  0  0  0
  8 22  1  0  0  0
  9 10  1  0  0  0
  9 27  2  0  0  0
 10 11  2  0  0  0
 10 15  1  0  0  0
 11 12  1  0  0  0
 11 92  1  0  0  0
 12 13  2  0  0  0
 12 93  1  0  0  0
 13 14  1  0  0  0
 13 31  1  0  0  0
 14 15  2  0  0  0
 14 94  1  0  0  0
 15 95  1  0  0  0
 16 17  2  0  0  0
 16 21  1  0  0  0
 16 31  1  0  0  0
 17 18  1  0  0  0
 17 96  1  0  0  0
 18 19  2  0  0  0
 18 97  1  0  0  0
 19 20  1  0  0  0
 19 24  1  0  0  0
 20 21  2  0  0  0
 20 98  1  0  0  0
 21 23  1  0  0  0
 22 28  1  0  0  0
 22 32  2  0  0  0
 26 27  1  0  0  0
 28 99  1  0  0  0
 28100  1  0  0  0
 29101  1  0  0  0
 29102  1  0  0  0
 33 34  1  0  0  0
 33 66  1  0  0  0
 33 70  2  0  0  0
 34 36  1  0  0  0
 34 59  1  0  0  0
 34103  1  0  0  0
 35 44  2  0  0  0
 35 45  1  0  0  0
 35 68  1  0  0  0
 36 56  1  0  0  0
 36104  1  0  0  0
 37 39  1  0  0  0
 37 47  1  0  0  0
 37 66  1  0  0  0
 37105  1  0  0  0
 38 43  2  0  0  0
 38 46  1  0  0  0
 38 47  1  0  0  0
 39 64  1  0  0  0
 39 67  2  0  0  0
 40 52  1  0  0  0
 40 53  2  0  0  0
 40 58  1  0  0  0
 41106  1  0  0  0
 41107  1  0  0  0
 41108  1  0  0  0
 41 48  1  0  0  0
 42 43  1  0  0  0
 42 66  1  0  0  0
 42109  1  0  0  0
 42110  1  0  0  0
 43 44  1  0  0  0
 44111  1  0  0  0
 45 46  2  0  0  0
 45112  1  0  0  0
 46113  1  0  0  0
 47114  1  0  0  0
 47115  1  0  0  0
 48 56  1  0  0  0
 48 65  1  0  0  0
 48116  1  0  0  0
 49 50  1  0  0  0
 49 53  1  0  0  0
 49 64  1  0  0  0
 49117  1  0  0  0
 50 51  1  0  0  0
 50118  1  0  0  0
 50119  1  0  0  0
 51 52  1  0  0  0
 51120  1  0  0  0
 51121  1  0  0  0
 52122  1  0  0  0
 52123  1  0  0  0
 53 54  1  0  0  0
 54 55  2  0  0  0
 54124  1  0  0  0
 55 57  1  0  0  0
 55125  1  0  0  0
 56 69  2  0  0  0
 57 58  2  0  0  0
 57126  1  0  0  0
 58127  1  0  0  0
 59 60  1  0  0  0
 59 61  1  0  0  0
 59 62  1  0  0  0
 60128  1  0  0  0
 60129  1  0  0  0
 60130  1  0  0  0
 61131  1  0  0  0
 61132  1  0  0  0
 61133  1  0  0  0
 62134  1  0  0  0
 62135  1  0  0  0
 62136  1  0  0  0
 63 65  1  0  0  0
 63137  1  0  0  0
 63138  1  0  0  0
 63139  1  0  0  0
 64140  1  0  0  0
 65141  1  0  0  0
 68 78  1  0  0  0
 71 72  1  0  0  0
 71 73  1  0  0  0
 71142  1  0  0  0
 71143  1  0  0  0
 72 74  1  0  0  0
 72144  1  0  0  0
 72145  1  0  0  0
 73 81  1  0  0  0
 73146  1  0  0  0
 73147  1  0  0  0
 74 75  1  0  0  0
 74 81  1  0  0  0
 74148  1  0  0  0
 75 82  1  0  0  0
 75149  1  0  0  0
 75150  1  0  0  0
 76 77  1  0  0  0
 76 80  1  0  0  0
 76151  1  0  0  0
 76152  1  0  0  0
 77153  1  0  0  0
 77154  1  0  0  0
 77 81  1  0  0  0
 78 79  1  0  0  0
 78155  1  0  0  0
 78156  1  0  0  0
 79 82  1  0  0  0
 79157  1  0  0  0
 79158  1  0  0  0
 80159  1  0  0  0
 81160  1  0  0  0
M  CHG  1  81   1
M  ISO  4   1 100  68 101  78 101  80 100
M  END
> <chiral flag>
0

> <version>
0

> <s_m_source_file>
/data/baiqing/PycharmProjects/Reinvent-master-3.2/result/LINK_invent/BTK/process_docking_weight1_custom_sum_contain_oxygen_bond_distance_aromatic_linkinvent_7_9_3/rearranged_h_0134.sdf

> <i_m_source_file_index>
93

> <r_mmod_Potential_Energy-OPLS-2005>
10.0725889205933

> <r_mmod_Stretch_Energy-OPLS-2005>
45.6555442810059

> <r_mmod_Bend_Energy-OPLS-2005>
123.384948730469

> <r_mmod_Torsional_Energy-OPLS-2005>
367.722503662109

> <r_mmod_Improper_Torsional_Energy-OPLS-2005>
7.02948045730591

> <r_mmod_Van_der_Waal_Energy-OPLS-2005>
124.025787353516

> <r_mmod_Electrostatic_Energy-OPLS-2005>
-221.38688659668

> <r_mmod_Solvation_Energy-OPLS-2005>
-452.114532470703

> <b_mmod_Minimization_Converged-OPLS-2005>
0

> <r_mmod_RMS_Derivative-OPLS-2005>
3.07868027687073

$$$$
93
                    3D
 Structure written by MMmdl.
153161  0  0  1  0            999 V2000
  -30.6440  -14.6245   20.5024 C   0  0  0  0  0  0
  -30.4313  -12.3853   19.4498 C   0  0  0  0  0  0
  -29.5053  -12.5037   18.2199 C   0  0  0  0  0  0
  -28.0268  -12.3482   18.6314 C   0  0  0  0  0  0
  -27.6540  -13.2169   19.8626 C   0  0  2  0  0  0
  -28.6990  -13.0818   20.9914 C   0  0  0  0  0  0
  -25.2600  -13.8156   20.5684 C   0  0  0  0  0  0
  -24.1870  -13.0419   20.9170 C   0  0  0  0  0  0
  -24.6437  -11.6890   20.8729 C   0  0  0  0  0  0
  -23.9091  -10.4278   21.0401 C   0  0  0  0  0  0
  -24.3646   -9.4209   21.9194 C   0  0  0  0  0  0
  -23.6312   -8.2250   22.0776 C   0  0  0  0  0  0
  -22.4300   -8.0291   21.3563 C   0  0  0  0  0  0
  -21.9926   -9.0260   20.4663 C   0  0  0  0  0  0
  -22.7249  -10.2135   20.3065 C   0  0  0  0  0  0
  -21.6861   -6.0746   22.5280 C   0  0  0  0  0  0
  -21.4015   -6.5649   23.8201 C   0  0  0  0  0  0
  -21.3656   -5.6805   24.9167 C   0  0  0  0  0  0
  -21.6043   -4.3063   24.7224 C   0  0  0  0  0  0
  -21.8811   -3.8158   23.4338 C   0  0  0  0  0  0
  -21.9196   -4.6972   22.3396 C   0  0  0  0  0  0
  -22.7897  -13.5225   21.1802 C   0  0  0  0  0  0
  -22.1674   -4.2165   21.0973 F   0  0  0  0  0  0
  -21.5622   -3.4544   25.7732 F   0  0  0  0  0  0
  -30.0104  -13.4151   20.4193 N   0  0  0  0  0  0
  -26.3017  -12.9338   20.3323 N   0  0  0  0  0  0
  -25.9373  -11.6484   20.5772 N   0  0  0  0  0  0
  -22.0547  -12.8248   22.0364 N   0  0  0  0  0  0
  -25.4270  -15.1885   20.4118 N   0  0  0  0  0  0
  -31.8178  -14.7612   20.1495 O   0  0  0  0  0  0
  -21.6657   -6.8900   21.4250 O   0  0  0  0  0  0
  -22.3596  -14.5528   20.6621 O   0  0  0  0  0  0
  -24.6240  -31.8619   23.2018 C   0  0  0  0  0  0
  -25.9096  -32.4781   23.8339 C   0  0  1  0  0  0
  -27.2283  -27.3531   20.1093 C   0  0  0  0  0  0
  -25.5914  -33.8582   24.2272 N   0  0  0  0  0  0
  -23.4148  -30.4870   21.5440 C   0  0  2  0  0  0
  -24.8610  -28.9468   20.1080 C   0  0  0  0  0  0
  -22.7453  -29.4643   22.4925 C   0  0  0  0  0  0
  -18.0272  -28.1394   22.8482 C   0  0  0  0  0  0
  -24.1480  -36.7317   23.2639 C   0  0  0  0  0  0
  -25.9521  -30.8078   21.3624 C   0  0  0  0  0  0
  -26.0276  -29.4365   20.7076 C   0  0  0  0  0  0
  -27.2151  -28.6520   20.6956 C   0  0  0  0  0  0
  -26.0377  -26.9071   19.4905 C   0  0  0  0  0  0
  -24.8665  -27.6860   19.4913 C   0  0  0  0  0  0
  -23.6272  -29.8226   20.1582 C   0  0  0  0  0  0
  -25.4100  -36.3091   24.0328 C   0  0  1  0  0  0
  -20.5871  -28.3688   23.1290 C   0  0  2  0  0  0
  -20.6757  -26.9410   22.5420 C   0  0  0  0  0  0
  -19.5737  -26.6385   21.5218 C   0  0  0  0  0  0
  -18.1918  -26.7931   22.1629 C   0  0  0  0  0  0
  -19.1526  -28.8852   23.2884 C   0  0  0  0  0  0
  -18.9456  -30.1456   23.8898 C   0  0  0  0  0  0
  -17.6459  -30.6590   24.0571 C   0  0  0  0  0  0
  -25.9045  -34.9458   23.5105 C   0  0  0  0  0  0
  -16.5349  -29.9098   23.6331 C   0  0  0  0  0  0
  -16.7263  -28.6525   23.0331 C   0  0  0  0  0  0
  -26.4487  -31.6575   25.0699 C   0  0  0  0  0  0
  -25.3737  -31.3718   26.1441 C   0  0  0  0  0  0
  -27.0326  -30.2997   24.6136 C   0  0  0  0  0  0
  -27.6039  -32.4301   25.7492 C   0  0  0  0  0  0
  -27.5572  -37.1811   24.8460 C   0  0  0  0  0  0
  -21.4168  -29.3052   22.3694 N   0  0  0  0  0  0
  -26.4278  -37.3784   23.9414 N   0  0  0  0  0  0
  -24.6826  -31.0672   22.0940 N   0  0  0  0  0  0
  -23.4197  -28.8182   23.2986 O   0  0  0  0  0  0
  -28.3635  -26.5381   20.1609 O   0  0  0  0  0  0
  -26.5628  -34.8925   22.4681 O   0  0  0  0  0  0
  -23.5415  -32.1388   23.7384 O   0  0  0  0  0  0
  -29.8418  -20.4957   19.3002 C   0  0  0  0  0  0
  -28.7937  -20.4396   21.4697 C   0  0  0  0  0  0
  -29.8349  -21.9217   19.3354 C   0  0  0  0  0  0
  -28.7891  -21.8643   21.5052 C   0  0  0  0  0  0
  -29.3127  -19.7166   20.3639 C   0  0  0  0  0  0
  -29.3005  -22.6424   20.4345 C   0  0  0  0  0  0
  -29.1406  -18.1612   20.2548 C   0  0  0  0  0  0
  -29.3966  -24.2034   20.5206 C   0  0  0  0  0  0
  -30.2310  -17.1709   20.8357 C   0  0  0  0  0  0
  -28.1792  -25.0814   20.0506 C   0  0  0  0  0  0
  -29.8652  -15.7081   20.8022 N   0  0  0  0  0  0
  -31.4748  -12.4988   19.1512 H   0  0  0  0  0  0
  -30.3531  -11.3919   19.8945 H   0  0  0  0  0  0
  -29.7693  -11.7530   17.4734 H   0  0  0  0  0  0
  -29.6512  -13.4749   17.7453 H   0  0  0  0  0  0
  -27.8543  -11.2949   18.8518 H   0  0  0  0  0  0
  -27.3751  -12.5924   17.7917 H   0  0  0  0  0  0
  -27.6681  -14.2515   19.5209 H   0  0  0  0  0  0
  -28.7161  -12.0661   21.3873 H   0  0  0  0  0  0
  -28.4521  -13.7267   21.8371 H   0  0  0  0  0  0
  -25.2794   -9.5670   22.4770 H   0  0  0  0  0  0
  -24.0002   -7.4649   22.7518 H   0  0  0  0  0  0
  -21.0841   -8.8762   19.9007 H   0  0  0  0  0  0
  -22.3687  -10.9674   19.6177 H   0  0  0  0  0  0
  -21.2013   -7.6160   23.9698 H   0  0  0  0  0  0
  -21.1493   -6.0549   25.9065 H   0  0  0  0  0  0
  -22.0600   -2.7625   23.2822 H   0  0  0  0  0  0
  -22.4174  -11.9902   22.4726 H   0  0  0  0  0  0
  -21.1177  -13.1307   22.2602 H   0  0  0  0  0  0
  -24.6492  -15.8299   20.5213 H   0  0  0  0  0  0
  -26.2639  -15.6358   20.0599 H   0  0  0  0  0  0
  -26.7181  -32.5470   23.1110 H   0  0  0  0  0  0
  -25.0013  -33.9716   25.0383 H   0  0  0  0  0  0
  -22.7069  -31.3061   21.4031 H   0  0  0  0  0  0
  -23.3725  -35.9668   23.3294 H   0  0  0  0  0  0
  -24.3578  -36.8948   22.2057 H   0  0  0  0  0  0
  -23.7250  -37.6524   23.6667 H   0  0  0  0  0  0
  -26.0700  -31.5716   20.5919 H   0  0  0  0  0  0
  -26.8376  -30.8632   21.9840 H   0  0  0  0  0  0
  -28.1121  -29.0286   21.1652 H   0  0  0  0  0  0
  -25.9855  -25.9454   19.0025 H   0  0  0  0  0  0
  -23.9724  -27.3052   19.0154 H   0  0  0  0  0  0
  -23.7421  -30.5992   19.4015 H   0  0  0  0  0  0
  -22.7472  -29.2515   19.8567 H   0  0  0  0  0  0
  -25.1277  -36.1943   25.0820 H   0  0  0  0  0  0
  -20.9960  -28.3265   24.1410 H   0  0  0  0  0  0
  -20.5643  -26.2303   23.3623 H   0  0  0  0  0  0
  -21.6629  -26.7433   22.1230 H   0  0  0  0  0  0
  -19.6896  -25.6297   21.1247 H   0  0  0  0  0  0
  -19.6669  -27.3193   20.6749 H   0  0  0  0  0  0
  -17.4185  -26.6658   21.4040 H   0  0  0  0  0  0
  -18.0324  -26.0078   22.9033 H   0  0  0  0  0  0
  -19.7934  -30.7269   24.2257 H   0  0  0  0  0  0
  -17.5019  -31.6262   24.5187 H   0  0  0  0  0  0
  -15.5354  -30.3012   23.7640 H   0  0  0  0  0  0
  -15.8662  -28.0866   22.7014 H   0  0  0  0  0  0
  -24.5898  -30.7075   25.7787 H   0  0  0  0  0  0
  -24.8949  -32.2894   26.4875 H   0  0  0  0  0  0
  -25.8078  -30.8896   27.0211 H   0  0  0  0  0  0
  -26.2896  -29.6751   24.1163 H   0  0  0  0  0  0
  -27.4031  -29.7247   25.4637 H   0  0  0  0  0  0
  -27.8758  -30.4273   23.9339 H   0  0  0  0  0  0
  -27.2629  -33.3587   26.2083 H   0  0  0  0  0  0
  -28.3861  -32.6882   25.0341 H   0  0  0  0  0  0
  -28.0693  -31.8415   26.5412 H   0  0  0  0  0  0
  -28.2587  -38.0109   24.7504 H   0  0  0  0  0  0
  -28.1066  -36.2643   24.6273 H   0  0  0  0  0  0
  -27.2304  -37.1454   25.8867 H   0  0  0  0  0  0
  -20.9326  -29.8814   21.6953 H   0  0  0  0  0  0
  -26.0159  -38.2860   24.1407 H   0  0  0  0  0  0
  -30.2449  -20.0026   18.4255 H   0  0  0  0  0  0
  -28.3681  -19.8969   22.3030 H   0  0  0  0  0  0
  -30.2628  -22.4672   18.5049 H   0  0  0  0  0  0
  -28.3950  -22.3635   22.3805 H   0  0  0  0  0  0
  -28.9939  -17.9277   19.1987 H   0  0  0  0  0  0
  -28.1856  -17.9294   20.7266 H   0  0  0  0  0  0
  -30.2756  -24.5174   19.9579 H   0  0  0  0  0  0
  -29.6187  -24.4636   21.5563 H   0  0  0  0  0  0
  -30.4130  -17.4317   21.8793 H   0  0  0  0  0  0
  -31.1765  -17.3328   20.3159 H   0  0  0  0  0  0
  -27.3117  -24.7838   20.6425 H   0  0  0  0  0  0
  -27.9601  -24.8343   19.0106 H   0  0  0  0  0  0
  -28.9086  -15.4877   21.0334 H   0  0  0  0  0  0
  1 25  1  0  0  0
  1 30  2  0  0  0
  1 81  1  0  0  0
  2  3  1  0  0  0
  2 25  1  0  0  0
  2 82  1  0  0  0
  2 83  1  0  0  0
  3  4  1  0  0  0
  3 84  1  0  0  0
  3 85  1  0  0  0
  4  5  1  0  0  0
  4 86  1  0  0  0
  4 87  1  0  0  0
  5  6  1  0  0  0
  5 26  1  0  0  0
  5 88  1  0  0  0
  6 25  1  0  0  0
  6 89  1  0  0  0
  6 90  1  0  0  0
  7  8  2  0  0  0
  7 26  1  0  0  0
  7 29  1  0  0  0
  8  9  1  0  0  0
  8 22  1  0  0  0
  9 10  1  0  0  0
  9 27  2  0  0  0
 10 11  2  0  0  0
 10 15  1  0  0  0
 11 12  1  0  0  0
 11 91  1  0  0  0
 12 13  2  0  0  0
 12 92  1  0  0  0
 13 14  1  0  0  0
 13 31  1  0  0  0
 14 15  2  0  0  0
 14 93  1  0  0  0
 15 94  1  0  0  0
 16 17  2  0  0  0
 16 21  1  0  0  0
 16 31  1  0  0  0
 17 18  1  0  0  0
 17 95  1  0  0  0
 18 19  2  0  0  0
 18 96  1  0  0  0
 19 20  1  0  0  0
 19 24  1  0  0  0
 20 21  2  0  0  0
 20 97  1  0  0  0
 21 23  1  0  0  0
 22 28  1  0  0  0
 22 32  2  0  0  0
 26 27  1  0  0  0
 28 98  1  0  0  0
 28 99  1  0  0  0
 29100  1  0  0  0
 29101  1  0  0  0
 33 34  1  0  0  0
 33 66  1  0  0  0
 33 70  2  0  0  0
 34 36  1  0  0  0
 34 59  1  0  0  0
 34102  1  0  0  0
 35 44  2  0  0  0
 35 45  1  0  0  0
 35 68  1  0  0  0
 36 56  1  0  0  0
 36103  1  0  0  0
 37 39  1  0  0  0
 37 47  1  0  0  0
 37 66  1  0  0  0
 37104  1  0  0  0
 38 43  2  0  0  0
 38 46  1  0  0  0
 38 47  1  0  0  0
 39 64  1  0  0  0
 39 67  2  0  0  0
 40 52  1  0  0  0
 40 53  2  0  0  0
 40 58  1  0  0  0
 41105  1  0  0  0
 41106  1  0  0  0
 41107  1  0  0  0
 41 48  1  0  0  0
 42 43  1  0  0  0
 42 66  1  0  0  0
 42108  1  0  0  0
 42109  1  0  0  0
 43 44  1  0  0  0
 44110  1  0  0  0
 45 46  2  0  0  0
 45111  1  0  0  0
 46112  1  0  0  0
 47113  1  0  0  0
 47114  1  0  0  0
 48 56  1  0  0  0
 48 65  1  0  0  0
 48115  1  0  0  0
 49 50  1  0  0  0
 49 53  1  0  0  0
 49 64  1  0  0  0
 49116  1  0  0  0
 50 51  1  0  0  0
 50117  1  0  0  0
 50118  1  0  0  0
 51 52  1  0  0  0
 51119  1  0  0  0
 51120  1  0  0  0
 52121  1  0  0  0
 52122  1  0  0  0
 53 54  1  0  0  0
 54 55  2  0  0  0
 54123  1  0  0  0
 55 57  1  0  0  0
 55124  1  0  0  0
 56 69  2  0  0  0
 57 58  2  0  0  0
 57125  1  0  0  0
 58126  1  0  0  0
 59 60  1  0  0  0
 59 61  1  0  0  0
 59 62  1  0  0  0
 60127  1  0  0  0
 60128  1  0  0  0
 60129  1  0  0  0
 61130  1  0  0  0
 61131  1  0  0  0
 61132  1  0  0  0
 62133  1  0  0  0
 62134  1  0  0  0
 62135  1  0  0  0
 63 65  1  0  0  0
 63136  1  0  0  0
 63137  1  0  0  0
 63138  1  0  0  0
 64139  1  0  0  0
 65140  1  0  0  0
 68 80  1  0  0  0
 71 73  2  0  0  0
 71 75  1  0  0  0
 71141  1  0  0  0
 72 74  1  0  0  0
 72 75  2  0  0  0
 72142  1  0  0  0
 73 76  1  0  0  0
 73143  1  0  0  0
 74 76  2  0  0  0
 74144  1  0  0  0
 75 77  1  0  0  0
 76 78  1  0  0  0
 77 79  1  0  0  0
 77145  1  0  0  0
 77146  1  0  0  0
 78 80  1  0  0  0
 78147  1  0  0  0
 78148  1  0  0  0
 79 81  1  0  0  0
 79149  1  0  0  0
 79150  1  0  0  0
 80151  1  0  0  0
 80152  1  0  0  0
 81153  1  0  0  0
M  ISO  4   1 100  68 101  80 101  81 100
M  END
> <chiral flag>
0

> <version>
0

> <s_m_source_file>
/data/baiqing/PycharmProjects/Reinvent-master-3.2/result/LINK_invent/BTK/process_docking_weight1_custom_sum_contain_oxygen_bond_distance_aromatic_linkinvent_7_9_3/rearranged_h_0134.sdf

> <i_m_source_file_index>
94

> <r_mmod_Potential_Energy-OPLS-2005>
-3.62922668457031

> <r_mmod_Stretch_Energy-OPLS-2005>
66.902717590332

> <r_mmod_Bend_Energy-OPLS-2005>
116.251800537109

> <r_mmod_Torsional_Energy-OPLS-2005>
200.027252197266

> <r_mmod_Improper_Torsional_Energy-OPLS-2005>
5.29791450500488

> <r_mmod_Van_der_Waal_Energy-OPLS-2005>
140.726409912109

> <r_mmod_Electrostatic_Energy-OPLS-2005>
-363.482574462891

> <r_mmod_Solvation_Energy-OPLS-2005>
-209.442398071289

> <b_mmod_Minimization_Converged-OPLS-2005>
0

> <r_mmod_RMS_Derivative-OPLS-2005>
2.374844789505

$$$$
94
                    3D
 Structure written by MMmdl.
175184  0  0  1  0            999 V2000
  -30.8699  -14.3463   20.7096 C   0  0  0  0  0  0
  -30.3823  -12.2723   19.4725 C   0  0  0  0  0  0
  -29.5012  -12.5143   18.2324 C   0  0  0  0  0  0
  -28.0210  -12.3625   18.6097 C   0  0  0  0  0  0
  -27.6550  -13.2149   19.8459 C   0  0  2  0  0  0
  -28.6667  -13.0527   20.9958 C   0  0  0  0  0  0
  -25.2563  -13.8192   20.5599 C   0  0  0  0  0  0
  -24.1836  -13.0455   20.9154 C   0  0  0  0  0  0
  -24.6403  -11.6928   20.8702 C   0  0  0  0  0  0
  -23.9079  -10.4306   21.0398 C   0  0  0  0  0  0
  -24.3630   -9.4218   21.9179 C   0  0  0  0  0  0
  -23.6299   -8.2255   22.0754 C   0  0  0  0  0  0
  -22.4278   -8.0293   21.3549 C   0  0  0  0  0  0
  -21.9917   -9.0265   20.4650 C   0  0  0  0  0  0
  -22.7248  -10.2143   20.3051 C   0  0  0  0  0  0
  -21.6856   -6.0741   22.5281 C   0  0  0  0  0  0
  -21.4021   -6.5644   23.8214 C   0  0  0  0  0  0
  -21.3657   -5.6797   24.9175 C   0  0  0  0  0  0
  -21.6039   -4.3059   24.7224 C   0  0  0  0  0  0
  -21.8821   -3.8151   23.4345 C   0  0  0  0  0  0
  -21.9193   -4.6970   22.3402 C   0  0  0  0  0  0
  -22.7865  -13.5243   21.1859 C   0  0  0  0  0  0
  -22.1663   -4.2155   21.0981 F   0  0  0  0  0  0
  -21.5621   -3.4543   25.7737 F   0  0  0  0  0  0
  -30.0503  -13.2630   20.5235 N   0  0  0  0  0  0
  -26.2964  -12.9372   20.3121 N   0  0  0  0  0  0
  -25.9306  -11.6529   20.5621 N   0  0  0  0  0  0
  -22.0517  -12.8223   22.0422 N   0  0  0  0  0  0
  -25.4306  -15.1909   20.4063 N   0  0  0  0  0  0
  -31.7737  -14.5652   19.8957 O   0  0  0  0  0  0
  -21.6644   -6.8887   21.4243 O   0  0  0  0  0  0
  -22.3536  -14.5545   20.6717 O   0  0  0  0  0  0
  -24.6116  -31.8693   23.2117 C   0  0  0  0  0  0
  -25.9015  -32.4832   23.8407 C   0  0  1  0  0  0
  -27.2288  -27.4511   20.0969 C   0  0  0  0  0  0
  -25.5878  -33.8631   24.2338 N   0  0  0  0  0  0
  -23.3974  -30.4935   21.5534 C   0  0  2  0  0  0
  -24.8412  -28.9625   20.1147 C   0  0  0  0  0  0
  -22.7393  -29.4660   22.5015 C   0  0  0  0  0  0
  -18.0262  -28.1375   22.8495 C   0  0  0  0  0  0
  -24.1487  -36.7321   23.2641 C   0  0  0  0  0  0
  -25.9236  -30.8421   21.3599 C   0  0  0  0  0  0
  -26.0004  -29.4788   20.7062 C   0  0  0  0  0  0
  -27.1971  -28.7318   20.6906 C   0  0  0  0  0  0
  -26.0526  -26.9467   19.4936 C   0  0  0  0  0  0
  -24.8615  -27.6959   19.5062 C   0  0  0  0  0  0
  -23.6022  -29.8262   20.1672 C   0  0  0  0  0  0
  -25.4106  -36.3122   24.0342 C   0  0  1  0  0  0
  -20.5848  -28.3643   23.1340 C   0  0  2  0  0  0
  -20.6753  -26.9386   22.5426 C   0  0  0  0  0  0
  -19.5737  -26.6380   21.5215 C   0  0  0  0  0  0
  -18.1910  -26.7920   22.1623 C   0  0  0  0  0  0
  -19.1513  -28.8827   23.2908 C   0  0  0  0  0  0
  -18.9444  -30.1436   23.8909 C   0  0  0  0  0  0
  -17.6449  -30.6581   24.0568 C   0  0  0  0  0  0
  -25.9029  -34.9484   23.5138 C   0  0  0  0  0  0
  -16.5338  -29.9085   23.6335 C   0  0  0  0  0  0
  -16.7252  -28.6505   23.0350 C   0  0  0  0  0  0
  -26.4459  -31.6604   25.0724 C   0  0  0  0  0  0
  -25.3738  -31.3692   26.1481 C   0  0  0  0  0  0
  -27.0284  -30.3058   24.6063 C   0  0  0  0  0  0
  -27.6043  -32.4320   25.7475 C   0  0  0  0  0  0
  -27.5581  -37.1812   24.8466 C   0  0  0  0  0  0
  -21.4124  -29.3011   22.3752 N   0  0  0  0  0  0
  -26.4295  -37.3803   23.9412 N   0  0  0  0  0  0
  -24.6628  -31.0816   22.1007 N   0  0  0  0  0  0
  -23.4187  -28.8200   23.3035 O   0  0  0  0  0  0
  -28.4135  -26.7491   20.1276 O   0  0  0  0  0  0
  -26.5601  -34.8929   22.4704 O   0  0  0  0  0  0
  -23.5317  -32.1436   23.7528 O   0  0  0  0  0  0
  -27.8291  -18.8990   22.4408 C   0  0  0  0  0  0
  -28.6425  -21.1228   23.9349 C   0  0  0  0  0  0
  -28.9063  -18.7621   23.3453 C   0  0  0  0  0  0
  -27.1880  -20.1412   22.2433 C   0  0  0  0  0  0
  -29.2848  -19.8825   24.1308 C   0  0  0  0  0  0
  -27.6304  -21.2776   22.9654 C   0  0  0  0  0  0
  -29.0310  -16.1356   23.2671 C   0  0  0  0  0  0
  -30.7117  -17.6326   22.0936 C   0  0  0  0  0  0
  -30.0562  -14.9865   23.0831 C   0  0  0  0  0  0
  -29.7730  -17.4971   23.3028 C   0  0  1  0  0  0
  -31.6011  -16.4076   21.8512 C   0  0  1  0  0  0
  -26.0656  -20.2304   21.2212 C   0  0  0  0  0  0
  -30.4234  -19.8113   25.1380 C   0  0  0  0  0  0
  -32.8205  -16.3052   22.7909 C   0  0  0  0  0  0
  -27.1014  -22.6824   22.6838 C   0  0  0  0  0  0
  -27.6600  -24.7626   21.4100 C   0  0  0  0  0  0
  -28.3688  -25.3172   20.1492 C   0  0  0  0  0  0
  -30.7794  -15.1661   21.8070 N   0  0  0  0  0  0
  -27.8838  -23.3064   21.5944 N   0  3  0  0  0  0
  -31.4375  -12.2817   19.1928 H   0  0  0  0  0  0
  -30.2070  -11.2682   19.8623 H   0  0  0  0  0  0
  -29.7578  -11.8058   17.4433 H   0  0  0  0  0  0
  -29.6876  -13.5103   17.8281 H   0  0  0  0  0  0
  -27.8314  -11.3075   18.8110 H   0  0  0  0  0  0
  -27.3854  -12.6317   17.7652 H   0  0  0  0  0  0
  -27.6923  -14.2572   19.5268 H   0  0  0  0  0  0
  -28.5849  -12.0691   21.4598 H   0  0  0  0  0  0
  -28.3280  -13.7760   21.7254 H   0  0  0  0  0  0
  -25.2781   -9.5691   22.4748 H   0  0  0  0  0  0
  -24.0008   -7.4649   22.7473 H   0  0  0  0  0  0
  -21.0846   -8.8787   19.8960 H   0  0  0  0  0  0
  -22.3709  -10.9680   19.6157 H   0  0  0  0  0  0
  -21.2023   -7.6156   23.9721 H   0  0  0  0  0  0
  -21.1473   -6.0526   25.9078 H   0  0  0  0  0  0
  -22.0602   -2.7615   23.2844 H   0  0  0  0  0  0
  -22.4137  -11.9875   22.4789 H   0  0  0  0  0  0
  -21.1141  -13.1255   22.2654 H   0  0  0  0  0  0
  -24.6712  -15.8514   20.5271 H   0  0  0  0  0  0
  -26.2877  -15.6258   20.0896 H   0  0  0  0  0  0
  -26.7083  -32.5563   23.1169 H   0  0  0  0  0  0
  -25.0020  -33.9796   25.0474 H   0  0  0  0  0  0
  -22.6850  -31.3100   21.4173 H   0  0  0  0  0  0
  -23.3746  -35.9657   23.3318 H   0  0  0  0  0  0
  -24.3576  -36.8921   22.2052 H   0  0  0  0  0  0
  -23.7231  -37.6526   23.6646 H   0  0  0  0  0  0
  -26.0297  -31.6101   20.5927 H   0  0  0  0  0  0
  -26.8143  -30.8969   21.9743 H   0  0  0  0  0  0
  -28.0937  -29.1259   21.1488 H   0  0  0  0  0  0
  -26.0331  -25.9823   19.0077 H   0  0  0  0  0  0
  -23.9701  -27.2939   19.0446 H   0  0  0  0  0  0
  -23.7069  -30.6019   19.4081 H   0  0  0  0  0  0
  -22.7266  -29.2430   19.8746 H   0  0  0  0  0  0
  -25.1278  -36.2003   25.0835 H   0  0  0  0  0  0
  -20.9929  -28.3205   24.1465 H   0  0  0  0  0  0
  -20.5666  -26.2244   23.3604 H   0  0  0  0  0  0
  -21.6625  -26.7447   22.1211 H   0  0  0  0  0  0
  -19.6908  -25.6298   21.1229 H   0  0  0  0  0  0
  -19.6690  -27.3210   20.6762 H   0  0  0  0  0  0
  -17.4185  -26.6674   21.4019 H   0  0  0  0  0  0
  -18.0303  -26.0061   22.9018 H   0  0  0  0  0  0
  -19.7927  -30.7241   24.2288 H   0  0  0  0  0  0
  -17.5011  -31.6270   24.5155 H   0  0  0  0  0  0
  -15.5341  -30.2990   23.7652 H   0  0  0  0  0  0
  -15.8652  -28.0828   22.7055 H   0  0  0  0  0  0
  -24.5900  -30.7050   25.7816 H   0  0  0  0  0  0
  -24.8934  -32.2840   26.4970 H   0  0  0  0  0  0
  -25.8101  -30.8833   27.0217 H   0  0  0  0  0  0
  -26.2809  -29.6818   24.1145 H   0  0  0  0  0  0
  -27.4102  -29.7294   25.4497 H   0  0  0  0  0  0
  -27.8628  -30.4393   23.9170 H   0  0  0  0  0  0
  -27.2667  -33.3604   26.2093 H   0  0  0  0  0  0
  -28.3824  -32.6902   25.0279 H   0  0  0  0  0  0
  -28.0743  -31.8420   26.5353 H   0  0  0  0  0  0
  -28.2607  -38.0104   24.7511 H   0  0  0  0  0  0
  -28.1066  -36.2631   24.6293 H   0  0  0  0  0  0
  -27.2296  -37.1462   25.8870 H   0  0  0  0  0  0
  -20.9278  -29.8738   21.6983 H   0  0  0  0  0  0
  -26.0197  -38.2887   24.1413 H   0  0  0  0  0  0
  -27.5350  -18.0574   21.8302 H   0  0  0  0  0  0
  -28.9700  -21.9840   24.5027 H   0  0  0  0  0  0
  -28.4699  -15.9965   24.1917 H   0  0  0  0  0  0
  -28.3044  -16.0981   22.4568 H   0  0  0  0  0  0
  -31.3293  -18.5264   22.1949 H   0  0  0  0  0  0
  -30.1109  -17.7928   21.1963 H   0  0  0  0  0  0
  -29.6318  -13.9975   23.2262 H   0  0  0  0  0  0
  -30.7681  -15.0238   23.9061 H   0  0  0  0  0  0
  -30.3936  -17.4601   24.1961 H   0  0  0  0  0  0
  -32.0389  -16.6298   20.8770 H   0  0  0  0  0  0
  -25.8443  -19.2558   20.7839 H   0  0  0  0  0  0
  -26.3305  -20.9024   20.4053 H   0  0  0  0  0  0
  -25.1481  -20.5921   21.6858 H   0  0  0  0  0  0
  -30.5450  -20.7516   25.6766 H   0  0  0  0  0  0
  -31.3678  -19.5945   24.6379 H   0  0  0  0  0  0
  -30.2348  -19.0339   25.8792 H   0  0  0  0  0  0
  -32.5488  -16.2796   23.8452 H   0  0  0  0  0  0
  -33.4780  -17.1651   22.6587 H   0  0  0  0  0  0
  -33.4099  -15.4143   22.5724 H   0  0  0  0  0  0
  -27.1874  -23.2856   23.5887 H   0  0  0  0  0  0
  -26.0411  -22.6643   22.4306 H   0  0  0  0  0  0
  -26.5883  -24.9564   21.3530 H   0  0  0  0  0  0
  -28.0283  -25.2858   22.2933 H   0  0  0  0  0  0
  -27.9358  -24.9176   19.2324 H   0  0  0  0  0  0
  -29.4071  -24.9847   20.1484 H   0  0  0  0  0  0
  -27.6711  -22.8141   20.7417 H   0  0  0  0  0  0
  -28.8585  -23.1469   21.7964 H   0  0  0  0  0  0
  1 25  1  0  0  0
  1 30  2  0  0  0
  1 88  1  0  0  0
  2  3  1  0  0  0
  2 25  1  0  0  0
  2 90  1  0  0  0
  2 91  1  0  0  0
  3  4  1  0  0  0
  3 92  1  0  0  0
  3 93  1  0  0  0
  4  5  1  0  0  0
  4 94  1  0  0  0
  4 95  1  0  0  0
  5  6  1  0  0  0
  5 26  1  0  0  0
  5 96  1  0  0  0
  6 25  1  0  0  0
  6 97  1  0  0  0
  6 98  1  0  0  0
  7  8  2  0  0  0
  7 26  1  0  0  0
  7 29  1  0  0  0
  8  9  1  0  0  0
  8 22  1  0  0  0
  9 10  1  0  0  0
  9 27  2  0  0  0
 10 11  2  0  0  0
 10 15  1  0  0  0
 11 12  1  0  0  0
 11 99  1  0  0  0
 12 13  2  0  0  0
 12100  1  0  0  0
 13 14  1  0  0  0
 13 31  1  0  0  0
 14 15  2  0  0  0
 14101  1  0  0  0
 15102  1  0  0  0
 16 17  2  0  0  0
 16 21  1  0  0  0
 16 31  1  0  0  0
 17 18  1  0  0  0
 17103  1  0  0  0
 18 19  2  0  0  0
 18104  1  0  0  0
 19 20  1  0  0  0
 19 24  1  0  0  0
 20 21  2  0  0  0
 20105  1  0  0  0
 21 23  1  0  0  0
 22 28  1  0  0  0
 22 32  2  0  0  0
 26 27  1  0  0  0
 28106  1  0  0  0
 28107  1  0  0  0
 29108  1  0  0  0
 29109  1  0  0  0
 33 34  1  0  0  0
 33 66  1  0  0  0
 33 70  2  0  0  0
 34 36  1  0  0  0
 34 59  1  0  0  0
 34110  1  0  0  0
 35 44  2  0  0  0
 35 45  1  0  0  0
 35 68  1  0  0  0
 36 56  1  0  0  0
 36111  1  0  0  0
 37 39  1  0  0  0
 37 47  1  0  0  0
 37 66  1  0  0  0
 37112  1  0  0  0
 38 43  2  0  0  0
 38 46  1  0  0  0
 38 47  1  0  0  0
 39 64  1  0  0  0
 39 67  2  0  0  0
 40 52  1  0  0  0
 40 53  2  0  0  0
 40 58  1  0  0  0
 41113  1  0  0  0
 41114  1  0  0  0
 41115  1  0  0  0
 41 48  1  0  0  0
 42 43  1  0  0  0
 42 66  1  0  0  0
 42116  1  0  0  0
 42117  1  0  0  0
 43 44  1  0  0  0
 44118  1  0  0  0
 45 46  2  0  0  0
 45119  1  0  0  0
 46120  1  0  0  0
 47121  1  0  0  0
 47122  1  0  0  0
 48 56  1  0  0  0
 48 65  1  0  0  0
 48123  1  0  0  0
 49 50  1  0  0  0
 49 53  1  0  0  0
 49 64  1  0  0  0
 49124  1  0  0  0
 50 51  1  0  0  0
 50125  1  0  0  0
 50126  1  0  0  0
 51 52  1  0  0  0
 51127  1  0  0  0
 51128  1  0  0  0
 52129  1  0  0  0
 52130  1  0  0  0
 53 54  1  0  0  0
 54 55  2  0  0  0
 54131  1  0  0  0
 55 57  1  0  0  0
 55132  1  0  0  0
 56 69  2  0  0  0
 57 58  2  0  0  0
 57133  1  0  0  0
 58134  1  0  0  0
 59 60  1  0  0  0
 59 61  1  0  0  0
 59 62  1  0  0  0
 60135  1  0  0  0
 60136  1  0  0  0
 60137  1  0  0  0
 61138  1  0  0  0
 61139  1  0  0  0
 61140  1  0  0  0
 62141  1  0  0  0
 62142  1  0  0  0
 62143  1  0  0  0
 63 65  1  0  0  0
 63144  1  0  0  0
 63145  1  0  0  0
 63146  1  0  0  0
 64147  1  0  0  0
 65148  1  0  0  0
 68 87  1  0  0  0
 71 73  2  0  0  0
 71 74  1  0  0  0
 71149  1  0  0  0
 72 75  2  0  0  0
 72 76  1  0  0  0
 72150  1  0  0  0
 73 75  1  0  0  0
 73 80  1  0  0  0
 74 76  2  0  0  0
 74 82  1  0  0  0
 75 83  1  0  0  0
 76 85  1  0  0  0
 77 79  1  0  0  0
 77 80  1  0  0  0
 77151  1  0  0  0
 77152  1  0  0  0
 78 80  1  0  0  0
 78 81  1  0  0  0
 78153  1  0  0  0
 78154  1  0  0  0
 79 88  1  0  0  0
 79155  1  0  0  0
 79156  1  0  0  0
 80157  1  0  0  0
 81 84  1  0  0  0
 81 88  1  0  0  0
 81158  1  0  0  0
 82159  1  0  0  0
 82160  1  0  0  0
 82161  1  0  0  0
 83162  1  0  0  0
 83163  1  0  0  0
 83164  1  0  0  0
 84165  1  0  0  0
 84166  1  0  0  0
 84167  1  0  0  0
 85 89  1  0  0  0
 85168  1  0  0  0
 85169  1  0  0  0
 86 87  1  0  0  0
 86 89  1  0  0  0
 86170  1  0  0  0
 86171  1  0  0  0
 87172  1  0  0  0
 87173  1  0  0  0
 89174  1  0  0  0
 89175  1  0  0  0
M  CHG  1  89   1
M  ISO  4   1 100  68 101  87 101  88 100
M  END
> <chiral flag>
0

> <version>
0

> <s_m_source_file>
/data/baiqing/PycharmProjects/Reinvent-master-3.2/result/LINK_invent/BTK/process_docking_weight1_custom_sum_contain_oxygen_bond_distance_aromatic_linkinvent_7_9_3/rearranged_h_0134.sdf

> <i_m_source_file_index>
95

> <r_mmod_Potential_Energy-OPLS-2005>
44.1440620422363

> <r_mmod_Stretch_Energy-OPLS-2005>
44.3466110229492

> <r_mmod_Bend_Energy-OPLS-2005>
140.559158325195

> <r_mmod_Torsional_Energy-OPLS-2005>
296.786773681641

> <r_mmod_Improper_Torsional_Energy-OPLS-2005>
3.5778284072876

> <r_mmod_Van_der_Waal_Energy-OPLS-2005>
175.2109375

> <r_mmod_Electrostatic_Energy-OPLS-2005>
-212.243682861328

> <r_mmod_Solvation_Energy-OPLS-2005>
-420.495330810547

> <b_mmod_Minimization_Converged-OPLS-2005>
0

> <r_mmod_RMS_Derivative-OPLS-2005>
1.07500779628754

$$$$
95
                    3D
 Structure written by MMmdl.
172181  0  0  1  0            999 V2000
  -30.8559  -13.6191   20.9477 C   0  0  0  0  0  0
  -30.8713  -12.7152   18.4444 C   0  0  0  0  0  0
  -29.6218  -13.7208   17.5206 C   0  0  0  0  0  0
  -27.8583  -14.1976   18.2110 C   0  0  0  0  0  0
  -27.4375  -13.4536   20.0470 C   0  0  2  0  0  0
  -29.6019  -11.9569   20.4252 C   0  0  0  0  0  0
  -24.9975  -14.1270   21.0370 C   0  0  0  0  0  0
  -23.8324  -13.3632   21.0682 C   0  0  0  0  0  0
  -24.1687  -11.9916   21.0188 C   0  0  0  0  0  0
  -23.6580  -10.5725   21.0795 C   0  0  0  0  0  0
  -24.2202   -9.5639   21.9522 C   0  0  0  0  0  0
  -23.6057   -8.2907   22.0601 C   0  0  0  0  0  0
  -22.4201   -8.0192   21.3262 C   0  0  0  0  0  0
  -21.9158   -9.0053   20.4668 C   0  0  0  0  0  0
  -22.5502  -10.2247   20.2995 C   0  0  0  0  0  0
  -21.7076   -6.0584   22.5111 C   0  0  0  0  0  0
  -21.4139   -6.5683   23.7934 C   0  0  0  0  0  0
  -21.3676   -5.6961   24.8895 C   0  0  0  0  0  0
  -21.5975   -4.3134   24.7114 C   0  0  0  0  0  0
  -21.8828   -3.8166   23.4272 C   0  0  0  0  0  0
  -21.9281   -4.6793   22.3311 C   0  0  0  0  0  0
  -22.4484  -13.7987   21.1889 C   0  0  0  0  0  0
  -22.1777   -4.1932   21.0886 F   0  0  0  0  0  0
  -21.5576   -3.4732   25.7696 F   0  0  0  0  0  0
  -30.8371  -12.5073   20.0658 N   0  0  0  0  0  0
  -25.9930  -13.2714   20.6971 N   0  0  0  0  0  0
  -25.3665  -12.0830   20.9218 N   0  0  0  0  0  0
  -21.7657  -12.9488   21.9258 N   0  0  0  0  0  0
  -25.3172  -15.4578   21.1769 N   0  0  0  0  0  0
  -31.7756  -14.4600   20.8362 O   0  0  0  0  0  0
  -21.7092   -6.8504   21.3934 O   0  0  0  0  0  0
  -21.9710  -14.8011   20.6928 O   0  0  0  0  0  0
  -24.6739  -31.8212   23.1990 C   0  0  0  0  0  0
  -25.9511  -32.4491   23.8288 C   0  0  1  0  0  0
  -26.7132  -26.7858   20.0704 C   0  0  0  0  0  0
  -25.6142  -33.8365   24.2056 N   0  0  0  0  0  0
  -23.4584  -30.4836   21.5573 C   0  0  2  0  0  0
  -24.8204  -28.9447   20.0461 C   0  0  0  0  0  0
  -22.7609  -29.4505   22.4802 C   0  0  0  0  0  0
  -18.0272  -28.1404   22.8407 C   0  0  0  0  0  0
  -24.1500  -36.7171   23.2635 C   0  0  0  0  0  0
  -26.0431  -30.5223   21.4858 C   0  0  0  0  0  0
  -25.9972  -29.1569   20.7628 C   0  0  0  0  0  0
  -26.9688  -28.0468   20.8137 C   0  0  0  0  0  0
  -25.7016  -26.8909   19.1202 C   0  0  0  0  0  0
  -24.7224  -27.8598   19.1912 C   0  0  0  0  0  0
  -23.6673  -29.9171   20.1404 C   0  0  0  0  0  0
  -25.4164  -36.2911   24.0253 C   0  0  1  0  0  0
  -20.5899  -28.3730   23.1192 C   0  0  2  0  0  0
  -20.6771  -26.9414   22.5398 C   0  0  0  0  0  0
  -19.5743  -26.6348   21.5207 C   0  0  0  0  0  0
  -18.1931  -26.7929   22.1578 C   0  0  0  0  0  0
  -19.1529  -28.8884   23.2786 C   0  0  0  0  0  0
  -18.9459  -30.1499   23.8814 C   0  0  0  0  0  0
  -17.6448  -30.6596   24.0557 C   0  0  0  0  0  0
  -25.9158  -34.9318   23.4965 C   0  0  0  0  0  0
  -16.5344  -29.9095   23.6362 C   0  0  0  0  0  0
  -16.7270  -28.6530   23.0357 C   0  0  0  0  0  0
  -26.4646  -31.6612   25.0978 C   0  0  0  0  0  0
  -25.3680  -31.4047   26.1581 C   0  0  0  0  0  0
  -27.0610  -30.2922   24.7084 C   0  0  0  0  0  0
  -27.6061  -32.4589   25.7695 C   0  0  0  0  0  0
  -27.5583  -37.1746   24.8438 C   0  0  0  0  0  0
  -21.4274  -29.3050   22.3570 N   0  0  0  0  0  0
  -26.4257  -37.3697   23.9427 N   0  0  0  0  0  0
  -24.7507  -30.9791   22.1209 N   0  0  0  0  0  0
  -23.4279  -28.7962   23.2870 O   0  0  0  0  0  0
  -27.1157  -25.3751   20.1396 O   0  0  0  0  0  0
  -26.5747  -34.8878   22.4557 O   0  0  0  0  0  0
  -23.5853  -32.1341   23.7051 O   0  0  0  0  0  0
  -25.6331  -21.6678   18.5104 C   0  0  0  0  0  0
  -25.3411  -20.2316   18.2668 C   0  0  0  0  0  0
  -24.9325  -21.3930   20.6414 C   0  0  0  0  0  0
  -25.6622  -22.3752   19.7819 C   0  0  0  0  0  0
  -24.8597  -19.1487   19.1156 C   0  0  0  0  0  0
  -24.4951  -19.9582   20.3126 C   0  0  0  0  0  0
  -28.3879  -12.0007   18.5228 C   0  0  0  0  0  0
  -27.5156  -11.2193   21.1964 C   0  0  0  0  0  0
  -29.4943  -14.2333   19.8562 C   0  0  0  0  0  0
  -28.3136  -12.7795   22.2260 C   0  0  0  0  0  0
  -27.0201  -11.3194   19.2015 C   0  0  0  0  0  0
  -23.2817  -19.5118   21.1689 C   0  0  0  0  0  0
  -24.3853  -17.5351   18.4661 C   0  0  0  0  0  0
  -25.8966  -24.1414   20.0284 C   0  0  0  0  0  0
  -24.4979  -15.6596   18.6509 C   0  0  0  0  0  0
  -25.1851  -13.9779   17.9757 C   0  0  0  0  0  0
  -29.5514  -13.9386   21.4487 N   0  0  0  0  0  0
  -25.6982  -12.2867   18.3990 N   0  3  0  0  0  0
  -31.8662  -13.0720   18.1381 H   0  0  0  0  0  0
  -31.0035  -11.7259   17.9741 H   0  0  0  0  0  0
  -29.5394  -13.2680   16.5234 H   0  0  0  0  0  0
  -30.0713  -14.7048   17.3330 H   0  0  0  0  0  0
  -27.3837  -13.8456   17.3059 H   0  0  0  0  0  0
  -27.7197  -15.2745   18.2220 H   0  0  0  0  0  0
  -27.3934  -14.3517   20.6270 H   0  0  0  0  0  0
  -29.7025  -10.9682   19.9840 H   0  0  0  0  0  0
  -29.9063  -11.4828   21.3836 H   0  0  0  0  0  0
  -25.0486   -9.8014   22.5992 H   0  0  0  0  0  0
  -23.9996   -7.5560   22.7433 H   0  0  0  0  0  0
  -20.9767   -8.8151   19.9759 H   0  0  0  0  0  0
  -22.1273  -10.9622   19.6159 H   0  0  0  0  0  0
  -21.2234   -7.6255   23.9090 H   0  0  0  0  0  0
  -21.1535   -6.0882   25.8644 H   0  0  0  0  0  0
  -22.0606   -2.7645   23.2835 H   0  0  0  0  0  0
  -20.7925  -13.1190   22.1343 H   0  0  0  0  0  0
  -22.2685  -12.1497   22.2542 H   0  0  0  0  0  0
  -24.6251  -16.1761   21.3641 H   0  0  0  0  0  0
  -26.1846  -15.9018   20.9349 H   0  0  0  0  0  0
  -26.7526  -32.4758   23.0869 H   0  0  0  0  0  0
  -25.0250  -33.9427   25.0174 H   0  0  0  0  0  0
  -22.7710  -31.3365   21.4541 H   0  0  0  0  0  0
  -23.3818  -35.9424   23.3087 H   0  0  0  0  0  0
  -24.3590  -36.9056   22.2093 H   0  0  0  0  0  0
  -23.7138  -37.6250   23.6830 H   0  0  0  0  0  0
  -26.3527  -31.2548   20.7499 H   0  0  0  0  0  0
  -26.8696  -30.4565   22.1806 H   0  0  0  0  0  0
  -27.7906  -28.0919   21.5173 H   0  0  0  0  0  0
  -25.5496  -26.1464   18.3575 H   0  0  0  0  0  0
  -23.8674  -27.7699   18.5343 H   0  0  0  0  0  0
  -23.8955  -30.7443   19.4637 H   0  0  0  0  0  0
  -22.7423  -29.4726   19.7647 H   0  0  0  0  0  0
  -25.1320  -36.1683   25.0719 H   0  0  0  0  0  0
  -20.9940  -28.3335   24.1329 H   0  0  0  0  0  0
  -20.5689  -26.2333   23.3631 H   0  0  0  0  0  0
  -21.6655  -26.7442   22.1191 H   0  0  0  0  0  0
  -19.6929  -25.6241   21.1316 H   0  0  0  0  0  0
  -19.6740  -27.3094   20.6701 H   0  0  0  0  0  0
  -17.4224  -26.6673   21.4000 H   0  0  0  0  0  0
  -18.0326  -26.0120   22.9002 H   0  0  0  0  0  0
  -19.7972  -30.7329   24.2175 H   0  0  0  0  0  0
  -17.5039  -31.6258   24.5166 H   0  0  0  0  0  0
  -15.5377  -30.2973   23.7754 H   0  0  0  0  0  0
  -15.8667  -28.0858   22.7093 H   0  0  0  0  0  0
  -24.5890  -30.7294   25.7965 H   0  0  0  0  0  0
  -24.8832  -32.3332   26.4669 H   0  0  0  0  0  0
  -25.7866  -30.9509   27.0577 H   0  0  0  0  0  0
  -26.3295  -29.6335   24.2368 H   0  0  0  0  0  0
  -27.4156  -29.7650   25.5951 H   0  0  0  0  0  0
  -27.9286  -30.3946   24.0570 H   0  0  0  0  0  0
  -27.2571  -33.4051   26.1873 H   0  0  0  0  0  0
  -28.4031  -32.6928   25.0610 H   0  0  0  0  0  0
  -28.0543  -31.9050   26.5940 H   0  0  0  0  0  0
  -28.2453  -38.0176   24.7627 H   0  0  0  0  0  0
  -28.1218  -36.2716   24.6057 H   0  0  0  0  0  0
  -27.2329  -37.1128   25.8834 H   0  0  0  0  0  0
  -20.9508  -29.8868   21.6793 H   0  0  0  0  0  0
  -26.0068  -38.2720   24.1515 H   0  0  0  0  0  0
  -25.7343  -22.2705   17.6299 H   0  0  0  0  0  0
  -25.3098  -19.9588   17.2161 H   0  0  0  0  0  0
  -24.5190  -21.8482   21.5746 H   0  0  0  0  0  0
  -29.0603  -11.2234   18.1418 H   0  0  0  0  0  0
  -27.9821  -12.0009   17.5314 H   0  0  0  0  0  0
  -26.8247  -10.6995   21.8312 H   0  0  0  0  0  0
  -28.1793  -10.3619   21.3088 H   0  0  0  0  0  0
  -28.9812  -15.2016   19.9531 H   0  0  0  0  0  0
  -30.1747  -14.9335   19.3352 H   0  0  0  0  0  0
  -28.7497  -12.3306   23.1096 H   0  0  0  0  0  0
  -27.4627  -13.3250   22.6316 H   0  0  0  0  0  0
  -26.7342  -10.2823   18.8793 H   0  0  0  0  0  0
  -22.5824  -20.3758   21.3019 H   0  0  0  0  0  0
  -23.5199  -19.1753   22.1831 H   0  0  0  0  0  0
  -22.6497  -18.7301   20.7168 H   0  0  0  0  0  0
  -23.8948  -17.7261   17.5090 H   0  0  0  0  0  0
  -23.4537  -17.6505   18.9928 H   0  0  0  0  0  0
  -25.3233  -24.3220   20.9271 H   0  0  0  0  0  0
  -25.1732  -24.4261   19.2707 H   0  0  0  0  0  0
  -23.7788  -15.6853   17.8349 H   0  0  0  0  0  0
  -23.6889  -15.4758   19.3260 H   0  0  0  0  0  0
  -25.5585  -14.2675   17.0272 H   0  0  0  0  0  0
  -24.2662  -13.6080   17.5522 H   0  0  0  0  0  0
  -25.0508  -12.1438   19.1606 H   0  0  0  0  0  0
  -25.3434  -11.6570   17.6812 H   0  0  0  0  0  0
  1 25  1  0  0  0
  1 30  2  0  0  0
  1 87  1  0  0  0
  2  3  1  0  0  0
  2 25  1  0  0  0
  2 89  1  0  0  0
  2 90  1  0  0  0
  3  4  1  0  0  0
  3 91  1  0  0  0
  3 92  1  0  0  0
  4  5  1  0  0  0
  4 93  1  0  0  0
  4 94  1  0  0  0
  5  6  1  0  0  0
  5 26  1  0  0  0
  5 95  1  0  0  0
  6 25  1  0  0  0
  6 96  1  0  0  0
  6 97  1  0  0  0
  7  8  2  0  0  0
  7 26  1  0  0  0
  7 29  1  0  0  0
  8  9  1  0  0  0
  8 22  1  0  0  0
  9 10  1  0  0  0
  9 27  2  0  0  0
 10 11  2  0  0  0
 10 15  1  0  0  0
 11 12  1  0  0  0
 11 98  1  0  0  0
 12 13  2  0  0  0
 12 99  1  0  0  0
 13 14  1  0  0  0
 13 31  1  0  0  0
 14 15  2  0  0  0
 14100  1  0  0  0
 15101  1  0  0  0
 16 17  2  0  0  0
 16 21  1  0  0  0
 16 31  1  0  0  0
 17 18  1  0  0  0
 17102  1  0  0  0
 18 19  2  0  0  0
 18103  1  0  0  0
 19 20  1  0  0  0
 19 24  1  0  0  0
 20 21  2  0  0  0
 20104  1  0  0  0
 21 23  1  0  0  0
 22 28  1  0  0  0
 22 32  2  0  0  0
 26 27  1  0  0  0
 28105  1  0  0  0
 28106  1  0  0  0
 29107  1  0  0  0
 29108  1  0  0  0
 33 34  1  0  0  0
 33 66  1  0  0  0
 33 70  2  0  0  0
 34 36  1  0  0  0
 34 59  1  0  0  0
 34109  1  0  0  0
 35 44  2  0  0  0
 35 45  1  0  0  0
 35 68  1  0  0  0
 36 56  1  0  0  0
 36110  1  0  0  0
 37 39  1  0  0  0
 37 47  1  0  0  0
 37 66  1  0  0  0
 37111  1  0  0  0
 38 43  2  0  0  0
 38 46  1  0  0  0
 38 47  1  0  0  0
 39 64  1  0  0  0
 39 67  2  0  0  0
 40 52  1  0  0  0
 40 53  2  0  0  0
 40 58  1  0  0  0
 41112  1  0  0  0
 41113  1  0  0  0
 41114  1  0  0  0
 41 48  1  0  0  0
 42 43  1  0  0  0
 42 66  1  0  0  0
 42115  1  0  0  0
 42116  1  0  0  0
 43 44  1  0  0  0
 44117  1  0  0  0
 45 46  2  0  0  0
 45118  1  0  0  0
 46119  1  0  0  0
 47120  1  0  0  0
 47121  1  0  0  0
 48 56  1  0  0  0
 48 65  1  0  0  0
 48122  1  0  0  0
 49 50  1  0  0  0
 49 53  1  0  0  0
 49 64  1  0  0  0
 49123  1  0  0  0
 50 51  1  0  0  0
 50124  1  0  0  0
 50125  1  0  0  0
 51 52  1  0  0  0
 51126  1  0  0  0
 51127  1  0  0  0
 52128  1  0  0  0
 52129  1  0  0  0
 53 54  1  0  0  0
 54 55  2  0  0  0
 54130  1  0  0  0
 55 57  1  0  0  0
 55131  1  0  0  0
 56 69  2  0  0  0
 57 58  2  0  0  0
 57132  1  0  0  0
 58133  1  0  0  0
 59 60  1  0  0  0
 59 61  1  0  0  0
 59 62  1  0  0  0
 60134  1  0  0  0
 60135  1  0  0  0
 60136  1  0  0  0
 61137  1  0  0  0
 61138  1  0  0  0
 61139  1  0  0  0
 62140  1  0  0  0
 62141  1  0  0  0
 62142  1  0  0  0
 63 65  1  0  0  0
 63143  1  0  0  0
 63144  1  0  0  0
 63145  1  0  0  0
 64146  1  0  0  0
 65147  1  0  0  0
 68 84  1  0  0  0
 71 72  2  0  0  0
 71 74  1  0  0  0
 71148  1  0  0  0
 72 75  1  0  0  0
 72149  1  0  0  0
 73 74  2  0  0  0
 73 76  1  0  0  0
 73150  1  0  0  0
 74 84  1  0  0  0
 75 76  2  0  0  0
 75 83  1  0  0  0
 76 82  1  0  0  0
 77 79  1  0  0  0
 77 81  1  0  0  0
 77151  1  0  0  0
 77152  1  0  0  0
 78 80  1  0  0  0
 78 81  1  0  0  0
 78153  1  0  0  0
 78154  1  0  0  0
 79 87  1  0  0  0
 79155  1  0  0  0
 79156  1  0  0  0
 80 87  1  0  0  0
 80157  1  0  0  0
 80158  1  0  0  0
 81 88  1  0  0  0
 81159  1  0  0  0
 82160  1  0  0  0
 82161  1  0  0  0
 82162  1  0  0  0
 83 85  1  0  0  0
 83163  1  0  0  0
 83164  1  0  0  0
 84165  1  0  0  0
 84166  1  0  0  0
 85 86  1  0  0  0
 85167  1  0  0  0
 85168  1  0  0  0
 86 88  1  0  0  0
 86169  1  0  0  0
 86170  1  0  0  0
 88171  1  0  0  0
 88172  1  0  0  0
M  CHG  1  88   1
M  ISO  4   1 100  68 101  84 101  87 100
M  END
> <chiral flag>
0

> <version>
0

> <s_m_source_file>
/data/baiqing/PycharmProjects/Reinvent-master-3.2/result/LINK_invent/BTK/process_docking_weight1_custom_sum_contain_oxygen_bond_distance_aromatic_linkinvent_7_9_3/rearranged_h_0134.sdf

> <i_m_source_file_index>
96

> <r_mmod_Potential_Energy-OPLS-2005>
13015.744140625

> <r_mmod_Stretch_Energy-OPLS-2005>
6238.82958984375

> <r_mmod_Bend_Energy-OPLS-2005>
1742.4951171875

> <r_mmod_Torsional_Energy-OPLS-2005>
564.988952636719

> <r_mmod_Improper_Torsional_Energy-OPLS-2005>
50.8417472839355

> <r_mmod_Van_der_Waal_Energy-OPLS-2005>
3028.703125

> <r_mmod_Electrostatic_Energy-OPLS-2005>
-225.641036987305

> <r_mmod_Solvation_Energy-OPLS-2005>
-443.829742431641

> <b_mmod_Minimization_Converged-OPLS-2005>
0

> <r_mmod_RMS_Derivative-OPLS-2005>
72.0425186157227

$$$$
