0
                    3D
 Structure written by MMmdl.
163171  0  0  1  0            999 V2000
  -30.7159  -14.3501   20.6050 C   0  0  0  0  0  0
  -30.4334  -12.2302   19.4139 C   0  0  0  0  0  0
  -29.5034  -12.4825   18.2083 C   0  0  0  0  0  0
  -28.0223  -12.3552   18.6201 C   0  0  0  0  0  0
  -27.6774  -13.1775   19.8903 C   0  0  2  0  0  0
  -28.7109  -12.8878   21.0042 C   0  0  0  0  0  0
  -25.2693  -13.8103   20.5690 C   0  0  0  0  0  0
  -24.1883  -13.0434   20.9140 C   0  0  0  0  0  0
  -24.6394  -11.6887   20.8750 C   0  0  0  0  0  0
  -23.9052  -10.4287   21.0416 C   0  0  0  0  0  0
  -24.3611   -9.4199   21.9185 C   0  0  0  0  0  0
  -23.6287   -8.2230   22.0747 C   0  0  0  0  0  0
  -22.4251   -8.0280   21.3558 C   0  0  0  0  0  0
  -21.9903   -9.0253   20.4637 C   0  0  0  0  0  0
  -22.7237  -10.2136   20.3053 C   0  0  0  0  0  0
  -21.6838   -6.0733   22.5279 C   0  0  0  0  0  0
  -21.4020   -6.5639   23.8221 C   0  0  0  0  0  0
  -21.3645   -5.6780   24.9182 C   0  0  0  0  0  0
  -21.6055   -4.3045   24.7233 C   0  0  0  0  0  0
  -21.8815   -3.8149   23.4347 C   0  0  0  0  0  0
  -21.9202   -4.6968   22.3413 C   0  0  0  0  0  0
  -22.7921  -13.5264   21.1830 C   0  0  0  0  0  0
  -22.1666   -4.2144   21.0991 F   0  0  0  0  0  0
  -21.5616   -3.4536   25.7747 F   0  0  0  0  0  0
  -30.0635  -13.1724   20.4751 N   0  0  0  0  0  0
  -26.3117  -12.9221   20.3448 N   0  0  0  0  0  0
  -25.9315  -11.6407   20.5798 N   0  0  0  0  0  0
  -22.0566  -12.8241   22.0366 N   0  0  0  0  0  0
  -25.4487  -15.1829   20.4111 N   0  0  0  0  0  0
  -31.7959  -14.6185   20.0698 O   0  0  0  0  0  0
  -21.6624   -6.8878   21.4235 O   0  0  0  0  0  0
  -22.3601  -14.5565   20.6662 O   0  0  0  0  0  0
  -24.6096  -31.8702   23.2121 C   0  0  0  0  0  0
  -25.9011  -32.4838   23.8419 C   0  0  1  0  0  0
  -27.2523  -27.4822   20.1029 C   0  0  0  0  0  0
  -25.5867  -33.8645   24.2345 N   0  0  0  0  0  0
  -23.3975  -30.4904   21.5508 C   0  0  2  0  0  0
  -24.8470  -28.9511   20.1252 C   0  0  0  0  0  0
  -22.7380  -29.4696   22.5028 C   0  0  0  0  0  0
  -18.0249  -28.1345   22.8550 C   0  0  0  0  0  0
  -24.1476  -36.7322   23.2646 C   0  0  0  0  0  0
  -25.9213  -30.8504   21.3600 C   0  0  0  0  0  0
  -25.9994  -29.4865   20.7075 C   0  0  0  0  0  0
  -27.2082  -28.7610   20.6848 C   0  0  0  0  0  0
  -26.0803  -26.9329   19.5367 C   0  0  0  0  0  0
  -24.8783  -27.6691   19.5390 C   0  0  0  0  0  0
  -23.6050  -29.8121   20.1690 C   0  0  0  0  0  0
  -25.4105  -36.3131   24.0342 C   0  0  1  0  0  0
  -20.5847  -28.3659   23.1289 C   0  0  2  0  0  0
  -20.6781  -26.9418   22.5357 C   0  0  0  0  0  0
  -19.5646  -26.6246   21.5316 C   0  0  0  0  0  0
  -18.1906  -26.7781   22.1886 C   0  0  0  0  0  0
  -19.1505  -28.8815   23.2890 C   0  0  0  0  0  0
  -18.9444  -30.1422   23.8916 C   0  0  0  0  0  0
  -17.6463  -30.6550   24.0613 C   0  0  0  0  0  0
  -25.9026  -34.9488   23.5146 C   0  0  0  0  0  0
  -16.5348  -29.9089   23.6337 C   0  0  0  0  0  0
  -16.7234  -28.6487   23.0412 C   0  0  0  0  0  0
  -26.4465  -31.6626   25.0747 C   0  0  0  0  0  0
  -25.3751  -31.3721   26.1515 C   0  0  0  0  0  0
  -27.0332  -30.3081   24.6118 C   0  0  0  0  0  0
  -27.6028  -32.4391   25.7491 C   0  0  0  0  0  0
  -27.5578  -37.1816   24.8475 C   0  0  0  0  0  0
  -21.4115  -29.3068   22.3742 N   0  0  0  0  0  0
  -26.4305  -37.3794   23.9391 N   0  0  0  0  0  0
  -24.6596  -31.0844   22.0989 N   0  0  0  0  0  0
  -23.4158  -28.8271   23.3106 O   0  0  0  0  0  0
  -28.4607  -26.8359   20.0550 O   0  0  0  0  0  0
  -26.5591  -34.8926   22.4710 O   0  0  0  0  0  0
  -23.5298  -32.1474   23.7514 O   0  0  0  0  0  0
  -27.7919  -19.3223   21.4523 C   0  0  0  0  0  0
  -29.4850  -19.8463   20.0891 C   0  0  0  0  0  0
  -29.0901  -18.9265   21.0221 C   0  0  0  0  0  0
  -27.4670  -20.5025   20.8521 C   0  0  0  0  0  0
  -26.2679  -21.3824   21.0341 C   0  0  0  0  0  0
  -31.3210  -18.0472   21.8216 C   0  0  0  0  0  0
  -29.2477  -23.1567   20.0579 C   0  0  0  0  0  0
  -28.9823  -24.5645   19.5081 C   0  0  0  0  0  0
  -28.6224  -22.0390   19.2098 C   0  0  0  0  0  0
  -29.7108  -16.5671   20.5428 C   0  0  0  0  0  0
  -28.5151  -25.5297   20.6009 C   0  0  0  0  0  0
  -29.8481  -17.7261   21.5281 C   0  0  1  0  0  0
  -28.5177  -20.8300   20.0049 N   0  0  0  0  0  0
  -29.9683  -15.2833   21.1789 N   0  0  0  0  0  0
  -31.4820  -12.3207   19.1234 H   0  0  0  0  0  0
  -30.3209  -11.2094   19.7854 H   0  0  0  0  0  0
  -29.7297  -11.7762   17.4100 H   0  0  0  0  0  0
  -29.6873  -13.4775   17.7997 H   0  0  0  0  0  0
  -27.8248  -11.2999   18.8057 H   0  0  0  0  0  0
  -27.3700  -12.6442   17.7944 H   0  0  0  0  0  0
  -27.7483  -14.2334   19.6259 H   0  0  0  0  0  0
  -28.6605  -11.8377   21.3004 H   0  0  0  0  0  0
  -28.4808  -13.4417   21.9138 H   0  0  0  0  0  0
  -25.2764   -9.5646   22.4759 H   0  0  0  0  0  0
  -23.9986   -7.4610   22.7465 H   0  0  0  0  0  0
  -21.0836   -8.8789   19.8938 H   0  0  0  0  0  0
  -22.3721  -10.9680   19.6155 H   0  0  0  0  0  0
  -21.2002   -7.6144   23.9726 H   0  0  0  0  0  0
  -21.1470   -6.0515   25.9085 H   0  0  0  0  0  0
  -22.0612   -2.7605   23.2862 H   0  0  0  0  0  0
  -22.4179  -11.9869   22.4696 H   0  0  0  0  0  0
  -21.1209  -13.1277   22.2654 H   0  0  0  0  0  0
  -24.6864  -15.8465   20.4966 H   0  0  0  0  0  0
  -26.3148  -15.6117   20.1079 H   0  0  0  0  0  0
  -26.7101  -32.5569   23.1207 H   0  0  0  0  0  0
  -25.0052  -33.9811   25.0515 H   0  0  0  0  0  0
  -22.6851  -31.3059   21.4067 H   0  0  0  0  0  0
  -23.3731  -35.9659   23.3339 H   0  0  0  0  0  0
  -24.3557  -36.8912   22.2050 H   0  0  0  0  0  0
  -23.7236  -37.6538   23.6653 H   0  0  0  0  0  0
  -26.0353  -31.6182   20.5944 H   0  0  0  0  0  0
  -26.8081  -30.8968   21.9810 H   0  0  0  0  0  0
  -28.1086  -29.1799   21.1151 H   0  0  0  0  0  0
  -26.1010  -25.9521   19.0857 H   0  0  0  0  0  0
  -23.9874  -27.2465   19.0972 H   0  0  0  0  0  0
  -23.7135  -30.5829   19.4058 H   0  0  0  0  0  0
  -22.7318  -29.2272   19.8786 H   0  0  0  0  0  0
  -25.1282  -36.2005   25.0837 H   0  0  0  0  0  0
  -20.9915  -28.3192   24.1423 H   0  0  0  0  0  0
  -20.5901  -26.2274   23.3557 H   0  0  0  0  0  0
  -21.6615  -26.7563   22.1002 H   0  0  0  0  0  0
  -19.6387  -27.2955   20.6745 H   0  0  0  0  0  0
  -19.6817  -25.6110   21.1464 H   0  0  0  0  0  0
  -17.4029  -26.6265   21.4494 H   0  0  0  0  0  0
  -18.0547  -26.0069   22.9486 H   0  0  0  0  0  0
  -19.7939  -30.7202   24.2307 H   0  0  0  0  0  0
  -17.5027  -31.6217   24.5246 H   0  0  0  0  0  0
  -15.5358  -30.2977   23.7725 H   0  0  0  0  0  0
  -15.8618  -28.0768   22.7214 H   0  0  0  0  0  0
  -24.5816  -30.7204   25.7829 H   0  0  0  0  0  0
  -24.9081  -32.2897   26.5111 H   0  0  0  0  0  0
  -25.8096  -30.8740   27.0189 H   0  0  0  0  0  0
  -26.2873  -29.6787   24.1242 H   0  0  0  0  0  0
  -27.4204  -29.7364   25.4562 H   0  0  0  0  0  0
  -27.8656  -30.4430   23.9204 H   0  0  0  0  0  0
  -27.2590  -33.3632   26.2152 H   0  0  0  0  0  0
  -28.3759  -32.7077   25.0281 H   0  0  0  0  0  0
  -28.0804  -31.8517   26.5340 H   0  0  0  0  0  0
  -28.2649  -38.0066   24.7470 H   0  0  0  0  0  0
  -28.1030  -36.2596   24.6379 H   0  0  0  0  0  0
  -27.2289  -37.1556   25.8883 H   0  0  0  0  0  0
  -20.9291  -29.8801   21.6968 H   0  0  0  0  0  0
  -26.0210  -38.2884   24.1359 H   0  0  0  0  0  0
  -27.1777  -18.8019   22.1737 H   0  0  0  0  0  0
  -30.3946  -19.9065   19.5086 H   0  0  0  0  0  0
  -25.5676  -20.9465   21.7470 H   0  0  0  0  0  0
  -25.7308  -21.5396   20.0977 H   0  0  0  0  0  0
  -26.5576  -22.3595   21.4226 H   0  0  0  0  0  0
  -31.8306  -17.2107   22.3008 H   0  0  0  0  0  0
  -31.8561  -18.2765   20.9002 H   0  0  0  0  0  0
  -31.4137  -18.9062   22.4819 H   0  0  0  0  0  0
  -30.3226  -22.9844   20.1403 H   0  0  0  0  0  0
  -28.8682  -23.0895   21.0810 H   0  0  0  0  0  0
  -28.2265  -24.5440   18.7239 H   0  0  0  0  0  0
  -29.8930  -24.9416   19.0431 H   0  0  0  0  0  0
  -29.2182  -21.8475   18.3155 H   0  0  0  0  0  0
  -27.6242  -22.3149   18.8696 H   0  0  0  0  0  0
  -28.6829  -16.5105   20.1856 H   0  0  0  0  0  0
  -30.3123  -16.7323   19.6516 H   0  0  0  0  0  0
  -29.2322  -25.5448   21.4237 H   0  0  0  0  0  0
  -27.5656  -25.2027   21.0300 H   0  0  0  0  0  0
  -29.3681  -17.4423   22.4622 H   0  0  0  0  0  0
  -29.1753  -14.8977   21.6630 H   0  0  0  0  0  0
  1 25  1  0  0  0
  1 30  2  0  0  0
  1 84  1  0  0  0
  2  3  1  0  0  0
  2 25  1  0  0  0
  2 85  1  0  0  0
  2 86  1  0  0  0
  3  4  1  0  0  0
  3 87  1  0  0  0
  3 88  1  0  0  0
  4  5  1  0  0  0
  4 89  1  0  0  0
  4 90  1  0  0  0
  5  6  1  0  0  0
  5 26  1  0  0  0
  5 91  1  0  0  0
  6 25  1  0  0  0
  6 92  1  0  0  0
  6 93  1  0  0  0
  7  8  2  0  0  0
  7 26  1  0  0  0
  7 29  1  0  0  0
  8  9  1  0  0  0
  8 22  1  0  0  0
  9 10  1  0  0  0
  9 27  2  0  0  0
 10 11  2  0  0  0
 10 15  1  0  0  0
 11 12  1  0  0  0
 11 94  1  0  0  0
 12 13  2  0  0  0
 12 95  1  0  0  0
 13 14  1  0  0  0
 13 31  1  0  0  0
 14 15  2  0  0  0
 14 96  1  0  0  0
 15 97  1  0  0  0
 16 17  2  0  0  0
 16 21  1  0  0  0
 16 31  1  0  0  0
 17 18  1  0  0  0
 17 98  1  0  0  0
 18 19  2  0  0  0
 18 99  1  0  0  0
 19 20  1  0  0  0
 19 24  1  0  0  0
 20 21  2  0  0  0
 20100  1  0  0  0
 21 23  1  0  0  0
 22 28  1  0  0  0
 22 32  2  0  0  0
 26 27  1  0  0  0
 28101  1  0  0  0
 28102  1  0  0  0
 29103  1  0  0  0
 29104  1  0  0  0
 33 34  1  0  0  0
 33 66  1  0  0  0
 33 70  2  0  0  0
 34 36  1  0  0  0
 34 59  1  0  0  0
 34105  1  0  0  0
 35 44  2  0  0  0
 35 45  1  0  0  0
 35 68  1  0  0  0
 36 56  1  0  0  0
 36106  1  0  0  0
 37 39  1  0  0  0
 37 47  1  0  0  0
 37 66  1  0  0  0
 37107  1  0  0  0
 38 43  2  0  0  0
 38 46  1  0  0  0
 38 47  1  0  0  0
 39 64  1  0  0  0
 39 67  2  0  0  0
 40 52  1  0  0  0
 40 53  2  0  0  0
 40 58  1  0  0  0
 41108  1  0  0  0
 41109  1  0  0  0
 41110  1  0  0  0
 41 48  1  0  0  0
 42 43  1  0  0  0
 42 66  1  0  0  0
 42111  1  0  0  0
 42112  1  0  0  0
 43 44  1  0  0  0
 44113  1  0  0  0
 45 46  2  0  0  0
 45114  1  0  0  0
 46115  1  0  0  0
 47116  1  0  0  0
 47117  1  0  0  0
 48 56  1  0  0  0
 48 65  1  0  0  0
 48118  1  0  0  0
 49 50  1  0  0  0
 49 53  1  0  0  0
 49 64  1  0  0  0
 49119  1  0  0  0
 50 51  1  0  0  0
 50120  1  0  0  0
 50121  1  0  0  0
 51 52  1  0  0  0
 51122  1  0  0  0
 51123  1  0  0  0
 52124  1  0  0  0
 52125  1  0  0  0
 53 54  1  0  0  0
 54 55  2  0  0  0
 54126  1  0  0  0
 55 57  1  0  0  0
 55127  1  0  0  0
 56 69  2  0  0  0
 57 58  2  0  0  0
 57128  1  0  0  0
 58129  1  0  0  0
 59 60  1  0  0  0
 59 61  1  0  0  0
 59 62  1  0  0  0
 60130  1  0  0  0
 60131  1  0  0  0
 60132  1  0  0  0
 61133  1  0  0  0
 61134  1  0  0  0
 61135  1  0  0  0
 62136  1  0  0  0
 62137  1  0  0  0
 62138  1  0  0  0
 63 65  1  0  0  0
 63139  1  0  0  0
 63140  1  0  0  0
 63141  1  0  0  0
 64142  1  0  0  0
 65143  1  0  0  0
 68 81  1  0  0  0
 71 73  1  0  0  0
 71 74  2  0  0  0
 71144  1  0  0  0
 72 73  2  0  0  0
 72 83  1  0  0  0
 72145  1  0  0  0
 73 82  1  0  0  0
 74 75  1  0  0  0
 74 83  1  0  0  0
 75146  1  0  0  0
 75147  1  0  0  0
 75148  1  0  0  0
 76149  1  0  0  0
 76150  1  0  0  0
 76151  1  0  0  0
 76 82  1  0  0  0
 77 78  1  0  0  0
 77 79  1  0  0  0
 77152  1  0  0  0
 77153  1  0  0  0
 78 81  1  0  0  0
 78154  1  0  0  0
 78155  1  0  0  0
 79 83  1  0  0  0
 79156  1  0  0  0
 79157  1  0  0  0
 80 82  1  0  0  0
 80 84  1  0  0  0
 80158  1  0  0  0
 80159  1  0  0  0
 81160  1  0  0  0
 81161  1  0  0  0
 82162  1  0  0  0
 84163  1  0  0  0
M  ISO  4   1 100  68 101  81 101  84 100
M  END
> <chiral flag>
0

> <version>
0

> <s_m_source_file>
/data/baiqing/PycharmProjects/Reinvent-master-3.2/result/LINK_invent/BTK/process_docking_weight1_custom_sum_contain_oxygen_bond_distance_aromatic_linkinvent_7_9_3/rearranged_h_0083.sdf

> <i_m_source_file_index>
1

> <r_mmod_Potential_Energy-OPLS-2005>
-90.1901397705078

> <r_mmod_Stretch_Energy-OPLS-2005>
29.5023288726807

> <r_mmod_Bend_Energy-OPLS-2005>
92.5673980712891

> <r_mmod_Torsional_Energy-OPLS-2005>
271.051391601562

> <r_mmod_Improper_Torsional_Energy-OPLS-2005>
8.82747840881348

> <r_mmod_Van_der_Waal_Energy-OPLS-2005>
128.475875854492

> <r_mmod_Electrostatic_Energy-OPLS-2005>
-425.691467285156

> <r_mmod_Solvation_Energy-OPLS-2005>
-204.715713500977

> <b_mmod_Minimization_Converged-OPLS-2005>
0

> <r_mmod_RMS_Derivative-OPLS-2005>
5.79198932647705

$$$$
1
                    3D
 Structure written by MMmdl.
167175  0  0  1  0            999 V2000
  -30.6329  -14.6938   20.4424 C   0  0  0  0  0  0
  -30.4273  -12.4156   19.4768 C   0  0  0  0  0  0
  -29.5104  -12.5037   18.2373 C   0  0  0  0  0  0
  -28.0355  -12.3362   18.6488 C   0  0  0  0  0  0
  -27.6466  -13.2307   19.8566 C   0  0  2  0  0  0
  -28.6909  -13.1512   20.9936 C   0  0  0  0  0  0
  -25.2535  -13.8204   20.5707 C   0  0  0  0  0  0
  -24.1816  -13.0447   20.9199 C   0  0  0  0  0  0
  -24.6405  -11.6921   20.8746 C   0  0  0  0  0  0
  -23.9074  -10.4296   21.0407 C   0  0  0  0  0  0
  -24.3623   -9.4212   21.9185 C   0  0  0  0  0  0
  -23.6295   -8.2249   22.0758 C   0  0  0  0  0  0
  -22.4279   -8.0287   21.3546 C   0  0  0  0  0  0
  -21.9916   -9.0259   20.4649 C   0  0  0  0  0  0
  -22.7245  -10.2136   20.3058 C   0  0  0  0  0  0
  -21.6855   -6.0741   22.5278 C   0  0  0  0  0  0
  -21.4018   -6.5644   23.8211 C   0  0  0  0  0  0
  -21.3658   -5.6795   24.9172 C   0  0  0  0  0  0
  -21.6045   -4.3058   24.7222 C   0  0  0  0  0  0
  -21.8816   -3.8149   23.4343 C   0  0  0  0  0  0
  -21.9193   -4.6967   22.3401 C   0  0  0  0  0  0
  -22.7838  -13.5233   21.1853 C   0  0  0  0  0  0
  -22.1660   -4.2156   21.0978 F   0  0  0  0  0  0
  -21.5626   -3.4541   25.7734 F   0  0  0  0  0  0
  -30.0006  -13.4756   20.4161 N   0  0  0  0  0  0
  -26.2970  -12.9409   20.3320 N   0  0  0  0  0  0
  -25.9341  -11.6551   20.5768 N   0  0  0  0  0  0
  -22.0482  -12.8226   22.0410 N   0  0  0  0  0  0
  -25.4223  -15.1925   20.4132 N   0  0  0  0  0  0
  -31.8178  -14.7852   20.1118 O   0  0  0  0  0  0
  -21.6643   -6.8883   21.4240 O   0  0  0  0  0  0
  -22.3521  -14.5535   20.6695 O   0  0  0  0  0  0
  -24.6282  -31.8565   23.1982 C   0  0  0  0  0  0
  -25.9119  -32.4757   23.8315 C   0  0  1  0  0  0
  -27.2259  -27.2916   20.1210 C   0  0  0  0  0  0
  -25.5928  -33.8559   24.2248 N   0  0  0  0  0  0
  -23.4224  -30.4787   21.5415 C   0  0  2  0  0  0
  -24.8676  -28.9260   20.1098 C   0  0  0  0  0  0
  -22.7481  -29.4601   22.4914 C   0  0  0  0  0  0
  -18.0288  -28.1383   22.8474 C   0  0  0  0  0  0
  -24.1492  -36.7284   23.2643 C   0  0  0  0  0  0
  -25.9638  -30.7795   21.3711 C   0  0  0  0  0  0
  -26.0359  -29.4040   20.7143 C   0  0  0  0  0  0
  -27.2135  -28.5979   20.7101 C   0  0  0  0  0  0
  -26.0279  -26.8614   19.5079 C   0  0  0  0  0  0
  -24.8663  -27.6610   19.5003 C   0  0  0  0  0  0
  -23.6377  -29.8114   20.1573 C   0  0  0  0  0  0
  -25.4118  -36.3073   24.0325 C   0  0  1  0  0  0
  -20.5890  -28.3683   23.1274 C   0  0  2  0  0  0
  -20.6776  -26.9397   22.5418 C   0  0  0  0  0  0
  -19.5758  -26.6369   21.5217 C   0  0  0  0  0  0
  -18.1930  -26.7927   22.1611 C   0  0  0  0  0  0
  -19.1542  -28.8848   23.2871 C   0  0  0  0  0  0
  -18.9474  -30.1454   23.8883 C   0  0  0  0  0  0
  -17.6475  -30.6584   24.0562 C   0  0  0  0  0  0
  -25.9055  -34.9442   23.5090 C   0  0  0  0  0  0
  -16.5362  -29.9084   23.6337 C   0  0  0  0  0  0
  -16.7276  -28.6506   23.0347 C   0  0  0  0  0  0
  -26.4497  -31.6585   25.0704 C   0  0  0  0  0  0
  -25.3729  -31.3744   26.1435 C   0  0  0  0  0  0
  -27.0356  -30.3010   24.6173 C   0  0  0  0  0  0
  -27.6044  -32.4335   25.7481 C   0  0  0  0  0  0
  -27.5577  -37.1792   24.8463 C   0  0  0  0  0  0
  -21.4191  -29.3032   22.3662 N   0  0  0  0  0  0
  -26.4289  -37.3771   23.9409 N   0  0  0  0  0  0
  -24.6905  -31.0557   22.0937 N   0  0  0  0  0  0
  -23.4197  -28.8145   23.3008 O   0  0  0  0  0  0
  -28.3679  -26.4706   20.1920 O   0  0  0  0  0  0
  -26.5628  -34.8917   22.4659 O   0  0  0  0  0  0
  -23.5439  -32.1374   23.7294 O   0  0  0  0  0  0
  -29.4999  -19.8065   20.0593 C   0  0  0  0  0  0
  -28.8489  -20.9379   20.6722 C   0  0  0  0  0  0
  -28.1830  -20.6335   21.8998 C   0  0  0  0  0  0
  -29.4593  -18.4768   20.6125 C   0  0  0  0  0  0
  -28.1224  -19.2741   22.3477 C   0  0  0  0  0  0
  -27.5596  -21.7430   22.7412 C   0  0  0  0  0  0
  -25.6824  -17.1535   24.6047 C   0  0  0  0  0  0
  -29.8908  -17.1456   18.4721 C   0  0  0  0  0  0
  -28.8515  -22.3605   19.9338 C   0  0  0  0  0  0
  -27.3552  -18.8201   23.5953 C   0  0  0  0  0  0
  -26.5494  -17.5187   23.3922 C   0  0  0  0  0  0
  -28.4458  -23.7911   20.5741 C   0  0  0  0  0  0
  -28.4638  -25.0919   19.6321 C   0  0  0  0  0  0
  -30.1620  -17.2030   19.9887 C   0  0  2  0  0  0
  -28.7661  -18.2533   21.7375 N   0  0  0  0  0  0
  -29.8610  -15.8276   20.5613 N   0  0  0  0  0  0
  -31.4732  -12.5165   19.1818 H   0  0  0  0  0  0
  -30.3443  -11.4354   19.9494 H   0  0  0  0  0  0
  -29.7852  -11.7408   17.5080 H   0  0  0  0  0  0
  -29.6479  -13.4663   17.7410 H   0  0  0  0  0  0
  -27.8853  -11.2866   18.9045 H   0  0  0  0  0  0
  -27.3796  -12.5389   17.8017 H   0  0  0  0  0  0
  -27.6456  -14.2547   19.4821 H   0  0  0  0  0  0
  -28.7101  -12.1552   21.4382 H   0  0  0  0  0  0
  -28.4389  -13.8425   21.7997 H   0  0  0  0  0  0
  -25.2767   -9.5688   22.4763 H   0  0  0  0  0  0
  -24.0001   -7.4645   22.7485 H   0  0  0  0  0  0
  -21.0846   -8.8775   19.8959 H   0  0  0  0  0  0
  -22.3701  -10.9675   19.6171 H   0  0  0  0  0  0
  -21.2014   -7.6154   23.9715 H   0  0  0  0  0  0
  -21.1483   -6.0528   25.9074 H   0  0  0  0  0  0
  -22.0598   -2.7613   23.2839 H   0  0  0  0  0  0
  -22.4096  -11.9885   22.4793 H   0  0  0  0  0  0
  -21.1105  -13.1258   22.2618 H   0  0  0  0  0  0
  -24.6547  -15.8440   20.5303 H   0  0  0  0  0  0
  -26.2778  -15.6393   20.1107 H   0  0  0  0  0  0
  -26.7175  -32.5409   23.1045 H   0  0  0  0  0  0
  -25.0104  -33.9696   25.0412 H   0  0  0  0  0  0
  -22.7181  -31.3007   21.3954 H   0  0  0  0  0  0
  -23.3758  -35.9613   23.3305 H   0  0  0  0  0  0
  -24.3589  -36.8917   22.2062 H   0  0  0  0  0  0
  -23.7244  -37.6482   23.6671 H   0  0  0  0  0  0
  -26.1002  -31.5416   20.6022 H   0  0  0  0  0  0
  -26.8413  -30.8264   22.0037 H   0  0  0  0  0  0
  -28.1103  -28.9632   21.1900 H   0  0  0  0  0  0
  -25.9462  -25.8881   19.0509 H   0  0  0  0  0  0
  -23.9660  -27.2831   19.0369 H   0  0  0  0  0  0
  -23.7588  -30.5875   19.4004 H   0  0  0  0  0  0
  -22.7564  -29.2444   19.8532 H   0  0  0  0  0  0
  -25.1300  -36.1920   25.0817 H   0  0  0  0  0  0
  -20.9977  -28.3259   24.1400 H   0  0  0  0  0  0
  -20.5688  -26.2282   23.3619 H   0  0  0  0  0  0
  -21.6639  -26.7426   22.1205 H   0  0  0  0  0  0
  -19.6928  -25.6282   21.1245 H   0  0  0  0  0  0
  -19.6717  -27.3182   20.6754 H   0  0  0  0  0  0
  -17.4211  -26.6689   21.4002 H   0  0  0  0  0  0
  -18.0310  -26.0068   22.9003 H   0  0  0  0  0  0
  -19.7961  -30.7268   24.2230 H   0  0  0  0  0  0
  -17.5043  -31.6264   24.5169 H   0  0  0  0  0  0
  -15.5368  -30.2990   23.7676 H   0  0  0  0  0  0
  -15.8671  -28.0835   22.7059 H   0  0  0  0  0  0
  -24.5893  -30.7099   25.7769 H   0  0  0  0  0  0
  -24.8929  -32.2929   26.4826 H   0  0  0  0  0  0
  -25.8044  -30.8944   27.0231 H   0  0  0  0  0  0
  -26.2936  -29.6742   24.1209 H   0  0  0  0  0  0
  -27.4093  -29.7276   25.4669 H   0  0  0  0  0  0
  -27.8782  -30.4309   23.9377 H   0  0  0  0  0  0
  -27.2636  -33.3640   26.2030 H   0  0  0  0  0  0
  -28.3861  -32.6894   25.0316 H   0  0  0  0  0  0
  -28.0701  -31.8492   26.5428 H   0  0  0  0  0  0
  -28.2581  -38.0098   24.7505 H   0  0  0  0  0  0
  -28.1087  -36.2627   24.6291 H   0  0  0  0  0  0
  -27.2299  -37.1442   25.8868 H   0  0  0  0  0  0
  -20.9369  -29.8764   21.6877 H   0  0  0  0  0  0
  -26.0174  -38.2846   24.1425 H   0  0  0  0  0  0
  -30.0357  -19.9658   19.1337 H   0  0  0  0  0  0
  -28.2480  -22.5782   22.8383 H   0  0  0  0  0  0
  -27.3709  -21.4659   23.7743 H   0  0  0  0  0  0
  -26.6211  -22.0869   22.3056 H   0  0  0  0  0  0
  -25.1391  -16.2251   24.4253 H   0  0  0  0  0  0
  -24.9474  -17.9312   24.8153 H   0  0  0  0  0  0
  -26.2901  -17.0134   25.4994 H   0  0  0  0  0  0
  -30.2318  -18.0495   17.9685 H   0  0  0  0  0  0
  -28.8259  -17.0332   18.2669 H   0  0  0  0  0  0
  -30.4106  -16.3117   18.0007 H   0  0  0  0  0  0
  -28.2103  -22.2222   19.0629 H   0  0  0  0  0  0
  -29.8530  -22.4773   19.5201 H   0  0  0  0  0  0
  -26.6240  -19.5649   23.8965 H   0  0  0  0  0  0
  -28.0572  -18.7162   24.4235 H   0  0  0  0  0  0
  -25.9099  -17.6262   22.5156 H   0  0  0  0  0  0
  -27.2233  -16.6877   23.1801 H   0  0  0  0  0  0
  -29.1156  -23.9914   21.4099 H   0  0  0  0  0  0
  -27.4381  -23.7311   20.9796 H   0  0  0  0  0  0
  -27.7776  -24.9453   18.8010 H   0  0  0  0  0  0
  -29.4401  -25.0881   19.1475 H   0  0  0  0  0  0
  -31.2309  -17.3732   20.1285 H   0  0  0  0  0  0
  -28.9180  -15.7134   20.8992 H   0  0  0  0  0  0
  1 25  1  0  0  0
  1 30  2  0  0  0
  1 86  1  0  0  0
  2  3  1  0  0  0
  2 25  1  0  0  0
  2 87  1  0  0  0
  2 88  1  0  0  0
  3  4  1  0  0  0
  3 89  1  0  0  0
  3 90  1  0  0  0
  4  5  1  0  0  0
  4 91  1  0  0  0
  4 92  1  0  0  0
  5  6  1  0  0  0
  5 26  1  0  0  0
  5 93  1  0  0  0
  6 25  1  0  0  0
  6 94  1  0  0  0
  6 95  1  0  0  0
  7  8  2  0  0  0
  7 26  1  0  0  0
  7 29  1  0  0  0
  8  9  1  0  0  0
  8 22  1  0  0  0
  9 10  1  0  0  0
  9 27  2  0  0  0
 10 11  2  0  0  0
 10 15  1  0  0  0
 11 12  1  0  0  0
 11 96  1  0  0  0
 12 13  2  0  0  0
 12 97  1  0  0  0
 13 14  1  0  0  0
 13 31  1  0  0  0
 14 15  2  0  0  0
 14 98  1  0  0  0
 15 99  1  0  0  0
 16 17  2  0  0  0
 16 21  1  0  0  0
 16 31  1  0  0  0
 17 18  1  0  0  0
 17100  1  0  0  0
 18 19  2  0  0  0
 18101  1  0  0  0
 19 20  1  0  0  0
 19 24  1  0  0  0
 20 21  2  0  0  0
 20102  1  0  0  0
 21 23  1  0  0  0
 22 28  1  0  0  0
 22 32  2  0  0  0
 26 27  1  0  0  0
 28103  1  0  0  0
 28104  1  0  0  0
 29105  1  0  0  0
 29106  1  0  0  0
 33 34  1  0  0  0
 33 66  1  0  0  0
 33 70  2  0  0  0
 34 36  1  0  0  0
 34 59  1  0  0  0
 34107  1  0  0  0
 35 44  2  0  0  0
 35 45  1  0  0  0
 35 68  1  0  0  0
 36 56  1  0  0  0
 36108  1  0  0  0
 37 39  1  0  0  0
 37 47  1  0  0  0
 37 66  1  0  0  0
 37109  1  0  0  0
 38 43  2  0  0  0
 38 46  1  0  0  0
 38 47  1  0  0  0
 39 64  1  0  0  0
 39 67  2  0  0  0
 40 52  1  0  0  0
 40 53  2  0  0  0
 40 58  1  0  0  0
 41110  1  0  0  0
 41111  1  0  0  0
 41112  1  0  0  0
 41 48  1  0  0  0
 42 43  1  0  0  0
 42 66  1  0  0  0
 42113  1  0  0  0
 42114  1  0  0  0
 43 44  1  0  0  0
 44115  1  0  0  0
 45 46  2  0  0  0
 45116  1  0  0  0
 46117  1  0  0  0
 47118  1  0  0  0
 47119  1  0  0  0
 48 56  1  0  0  0
 48 65  1  0  0  0
 48120  1  0  0  0
 49 50  1  0  0  0
 49 53  1  0  0  0
 49 64  1  0  0  0
 49121  1  0  0  0
 50 51  1  0  0  0
 50122  1  0  0  0
 50123  1  0  0  0
 51 52  1  0  0  0
 51124  1  0  0  0
 51125  1  0  0  0
 52126  1  0  0  0
 52127  1  0  0  0
 53 54  1  0  0  0
 54 55  2  0  0  0
 54128  1  0  0  0
 55 57  1  0  0  0
 55129  1  0  0  0
 56 69  2  0  0  0
 57 58  2  0  0  0
 57130  1  0  0  0
 58131  1  0  0  0
 59 60  1  0  0  0
 59 61  1  0  0  0
 59 62  1  0  0  0
 60132  1  0  0  0
 60133  1  0  0  0
 60134  1  0  0  0
 61135  1  0  0  0
 61136  1  0  0  0
 61137  1  0  0  0
 62138  1  0  0  0
 62139  1  0  0  0
 62140  1  0  0  0
 63 65  1  0  0  0
 63141  1  0  0  0
 63142  1  0  0  0
 63143  1  0  0  0
 64144  1  0  0  0
 65145  1  0  0  0
 68 83  1  0  0  0
 71 72  2  0  0  0
 71 74  1  0  0  0
 71146  1  0  0  0
 72 73  1  0  0  0
 72 79  1  0  0  0
 73 75  2  0  0  0
 73 76  1  0  0  0
 74 84  1  0  0  0
 74 85  2  0  0  0
 75 80  1  0  0  0
 75 85  1  0  0  0
 76147  1  0  0  0
 76148  1  0  0  0
 76149  1  0  0  0
 77 81  1  0  0  0
 77150  1  0  0  0
 77151  1  0  0  0
 77152  1  0  0  0
 78153  1  0  0  0
 78154  1  0  0  0
 78155  1  0  0  0
 78 84  1  0  0  0
 79 82  1  0  0  0
 79156  1  0  0  0
 79157  1  0  0  0
 80 81  1  0  0  0
 80158  1  0  0  0
 80159  1  0  0  0
 81160  1  0  0  0
 81161  1  0  0  0
 82 83  1  0  0  0
 82162  1  0  0  0
 82163  1  0  0  0
 83164  1  0  0  0
 83165  1  0  0  0
 84 86  1  0  0  0
 84166  1  0  0  0
 86167  1  0  0  0
M  ISO  4   1 100  68 101  83 101  86 100
M  END
> <chiral flag>
0

> <version>
0

> <s_m_source_file>
/data/baiqing/PycharmProjects/Reinvent-master-3.2/result/LINK_invent/BTK/process_docking_weight1_custom_sum_contain_oxygen_bond_distance_aromatic_linkinvent_7_9_3/rearranged_h_0083.sdf

> <i_m_source_file_index>
2

> <r_mmod_Potential_Energy-OPLS-2005>
-157.385055541992

> <r_mmod_Stretch_Energy-OPLS-2005>
105.393119812012

> <r_mmod_Bend_Energy-OPLS-2005>
176.16471862793

> <r_mmod_Torsional_Energy-OPLS-2005>
198.696868896484

> <r_mmod_Improper_Torsional_Energy-OPLS-2005>
7.37793445587158

> <r_mmod_Van_der_Waal_Energy-OPLS-2005>
148.110748291016

> <r_mmod_Electrostatic_Energy-OPLS-2005>
-650.532653808594

> <r_mmod_Solvation_Energy-OPLS-2005>
-207.172607421875

> <b_mmod_Minimization_Converged-OPLS-2005>
0

> <r_mmod_RMS_Derivative-OPLS-2005>
1.16500222682953

$$$$
2
                    3D
 Structure written by MMmdl.
171179  0  0  1  0            999 V2000
  -30.7541  -14.4254   20.6623 C   0  0  0  0  0  0
  -30.4089  -12.3244   19.4009 C   0  0  0  0  0  0
  -29.4817  -12.5445   18.1932 C   0  0  0  0  0  0
  -28.0046  -12.3962   18.6067 C   0  0  0  0  0  0
  -27.6567  -13.2179   19.8773 C   0  0  2  0  0  0
  -28.7001  -12.9874   20.9905 C   0  0  0  0  0  0
  -25.2543  -13.8179   20.5675 C   0  0  0  0  0  0
  -24.1799  -13.0441   20.9148 C   0  0  0  0  0  0
  -24.6374  -11.6913   20.8708 C   0  0  0  0  0  0
  -23.9047  -10.4290   21.0368 C   0  0  0  0  0  0
  -24.3598   -9.4213   21.9145 C   0  0  0  0  0  0
  -23.6269   -8.2245   22.0742 C   0  0  0  0  0  0
  -22.4257   -8.0260   21.3543 C   0  0  0  0  0  0
  -21.9877   -9.0236   20.4644 C   0  0  0  0  0  0
  -22.7203  -10.2118   20.3033 C   0  0  0  0  0  0
  -21.6858   -6.0712   22.5272 C   0  0  0  0  0  0
  -21.4014   -6.5630   23.8208 C   0  0  0  0  0  0
  -21.3662   -5.6793   24.9165 C   0  0  0  0  0  0
  -21.6058   -4.3049   24.7229 C   0  0  0  0  0  0
  -21.8815   -3.8130   23.4362 C   0  0  0  0  0  0
  -21.9186   -4.6942   22.3405 C   0  0  0  0  0  0
  -22.7824  -13.5227   21.1833 C   0  0  0  0  0  0
  -22.1656   -4.2118   21.0984 F   0  0  0  0  0  0
  -21.5634   -3.4533   25.7748 F   0  0  0  0  0  0
  -30.0282  -13.2967   20.4369 N   0  0  0  0  0  0
  -26.2998  -12.9376   20.3382 N   0  0  0  0  0  0
  -25.9315  -11.6520   20.5754 N   0  0  0  0  0  0
  -22.0501  -12.8202   22.0421 N   0  0  0  0  0  0
  -25.4223  -15.1886   20.4087 N   0  0  0  0  0  0
  -31.8475  -14.6288   20.1301 O   0  0  0  0  0  0
  -21.6642   -6.8851   21.4232 O   0  0  0  0  0  0
  -22.3494  -14.5528   20.6688 O   0  0  0  0  0  0
  -24.6152  -31.8681   23.2048 C   0  0  0  0  0  0
  -25.9057  -32.4791   23.8380 C   0  0  1  0  0  0
  -27.2175  -27.4081   20.1313 C   0  0  0  0  0  0
  -25.5923  -33.8588   24.2319 N   0  0  0  0  0  0
  -23.4032  -30.4934   21.5441 C   0  0  2  0  0  0
  -24.8486  -28.9556   20.1147 C   0  0  0  0  0  0
  -22.7428  -29.4662   22.4927 C   0  0  0  0  0  0
  -18.0271  -28.1378   22.8518 C   0  0  0  0  0  0
  -24.1440  -36.7269   23.2656 C   0  0  0  0  0  0
  -25.9340  -30.8321   21.3556 C   0  0  0  0  0  0
  -26.0085  -29.4610   20.7115 C   0  0  0  0  0  0
  -27.1974  -28.6985   20.7139 C   0  0  0  0  0  0
  -26.0491  -26.9219   19.5178 C   0  0  0  0  0  0
  -24.8663  -27.6862   19.5072 C   0  0  0  0  0  0
  -23.6134  -29.8246   20.1611 C   0  0  0  0  0  0
  -25.4066  -36.3077   24.0347 C   0  0  1  0  0  0
  -20.5900  -28.3648   23.1289 C   0  0  2  0  0  0
  -20.6760  -26.9368   22.5405 C   0  0  0  0  0  0
  -19.5711  -26.6368   21.5241 C   0  0  0  0  0  0
  -18.1900  -26.7945   22.1657 C   0  0  0  0  0  0
  -19.1552  -28.8849   23.2897 C   0  0  0  0  0  0
  -18.9503  -30.1482   23.8843 C   0  0  0  0  0  0
  -17.6490  -30.6581   24.0594 C   0  0  0  0  0  0
  -25.9020  -34.9452   23.5106 C   0  0  0  0  0  0
  -16.5374  -29.9089   23.6331 C   0  0  0  0  0  0
  -16.7287  -28.6515   23.0326 C   0  0  0  0  0  0
  -26.4455  -31.6594   25.0743 C   0  0  0  0  0  0
  -25.3716  -31.3730   26.1493 C   0  0  0  0  0  0
  -27.0335  -30.3036   24.6185 C   0  0  0  0  0  0
  -27.6025  -32.4334   25.7525 C   0  0  0  0  0  0
  -27.5522  -37.1784   24.8490 C   0  0  0  0  0  0
  -21.4153  -29.3033   22.3708 N   0  0  0  0  0  0
  -26.4237  -37.3777   23.9429 N   0  0  0  0  0  0
  -24.6687  -31.0836   22.0916 N   0  0  0  0  0  0
  -23.4228  -28.8173   23.2914 O   0  0  0  0  0  0
  -28.3571  -26.6408   20.1301 O   0  0  0  0  0  0
  -26.5599  -34.8943   22.4688 O   0  0  0  0  0  0
  -23.5343  -32.1402   23.7432 O   0  0  0  0  0  0
  -29.8535  -19.6492   20.6911 C   0  0  0  0  0  0
  -29.9440  -18.5412   21.5898 C   0  0  0  0  0  0
  -28.6527  -20.2505   20.9581 C   0  0  0  0  0  0
  -25.8481  -18.3141   22.3870 C   0  0  0  0  0  0
  -32.1975  -17.7553   20.7464 C   0  0  0  0  0  0
  -28.7039  -22.8382   22.5288 C   0  0  0  0  0  0
  -30.4362  -16.1128   23.8349 C   0  0  0  0  0  0
  -28.0953  -21.5379   20.3925 C   0  0  0  0  0  0
  -28.0320  -24.1256   20.3507 C   0  0  0  0  0  0
  -26.7118  -19.5787   22.5366 C   0  0  0  0  0  0
  -28.3566  -25.4947   21.0120 C   0  0  0  0  0  0
  -31.1827  -17.6959   21.9050 C   0  0  2  0  0  0
  -28.6922  -22.8533   20.9846 C   0  0  1  0  0  0
  -30.9831  -16.2167   22.3968 C   0  0  2  0  0  0
  -28.8394  -18.4512   22.3175 N   0  0  0  0  0  0
  -28.0228  -19.4495   21.9036 N   0  0  0  0  0  0
  -30.2198  -15.3048   21.5290 N   0  0  0  0  0  0
  -31.4526  -12.4161   19.1011 H   0  0  0  0  0  0
  -30.2983  -11.3092   19.7845 H   0  0  0  0  0  0
  -29.7199  -11.8391   17.3962 H   0  0  0  0  0  0
  -29.6493  -13.5402   17.7789 H   0  0  0  0  0  0
  -27.8075  -11.3386   18.7792 H   0  0  0  0  0  0
  -27.3570  -12.6969   17.7819 H   0  0  0  0  0  0
  -27.7022  -14.2718   19.5982 H   0  0  0  0  0  0
  -28.6840  -11.9491   21.3253 H   0  0  0  0  0  0
  -28.4514  -13.5761   21.8747 H   0  0  0  0  0  0
  -25.2747   -9.5700   22.4701 H   0  0  0  0  0  0
  -23.9994   -7.4651   22.7464 H   0  0  0  0  0  0
  -21.0812   -8.8728   19.8956 H   0  0  0  0  0  0
  -22.3636  -10.9633   19.6136 H   0  0  0  0  0  0
  -21.2010   -7.6139   23.9696 H   0  0  0  0  0  0
  -21.1490   -6.0523   25.9071 H   0  0  0  0  0  0
  -22.0592   -2.7583   23.2870 H   0  0  0  0  0  0
  -22.4123  -11.9861   22.4801 H   0  0  0  0  0  0
  -21.1116  -13.1192   22.2655 H   0  0  0  0  0  0
  -24.6591  -15.8435   20.5266 H   0  0  0  0  0  0
  -26.2935  -15.6340   20.1493 H   0  0  0  0  0  0
  -26.7132  -32.5460   23.1146 H   0  0  0  0  0  0
  -25.0186  -33.9769   25.0543 H   0  0  0  0  0  0
  -22.6924  -31.3085   21.4000 H   0  0  0  0  0  0
  -23.3735  -35.9580   23.3342 H   0  0  0  0  0  0
  -24.3549  -36.8858   22.2073 H   0  0  0  0  0  0
  -23.7178  -37.6474   23.6672 H   0  0  0  0  0  0
  -26.0602  -31.5916   20.5813 H   0  0  0  0  0  0
  -26.8203  -30.8768   21.9765 H   0  0  0  0  0  0
  -28.0928  -29.0843   21.1812 H   0  0  0  0  0  0
  -26.0584  -25.9453   19.0529 H   0  0  0  0  0  0
  -23.9761  -27.2836   19.0411 H   0  0  0  0  0  0
  -23.7243  -30.5961   19.3997 H   0  0  0  0  0  0
  -22.7383  -29.2444   19.8626 H   0  0  0  0  0  0
  -25.1237  -36.1911   25.0835 H   0  0  0  0  0  0
  -21.0050  -28.3231   24.1379 H   0  0  0  0  0  0
  -20.5691  -26.2247   23.3609 H   0  0  0  0  0  0
  -21.6607  -26.7356   22.1160 H   0  0  0  0  0  0
  -19.6844  -25.6295   21.1227 H   0  0  0  0  0  0
  -19.6668  -27.3252   20.6843 H   0  0  0  0  0  0
  -17.4173  -26.6773   21.4053 H   0  0  0  0  0  0
  -18.0177  -26.0094   22.9028 H   0  0  0  0  0  0
  -19.7981  -30.7347   24.2126 H   0  0  0  0  0  0
  -17.5042  -31.6251   24.5207 H   0  0  0  0  0  0
  -15.5388  -30.2967   23.7678 H   0  0  0  0  0  0
  -15.8697  -28.0866   22.6979 H   0  0  0  0  0  0
  -24.5821  -30.7153   25.7809 H   0  0  0  0  0  0
  -24.9016  -32.2925   26.4995 H   0  0  0  0  0  0
  -25.8053  -30.8819   27.0218 H   0  0  0  0  0  0
  -26.2858  -29.6697   24.1410 H   0  0  0  0  0  0
  -27.4281  -29.7347   25.4629 H   0  0  0  0  0  0
  -27.8589  -30.4356   23.9199 H   0  0  0  0  0  0
  -27.2630  -33.3623   26.2121 H   0  0  0  0  0  0
  -28.3839  -32.6935   25.0366 H   0  0  0  0  0  0
  -28.0697  -31.8461   26.5454 H   0  0  0  0  0  0
  -28.2569  -38.0057   24.7514 H   0  0  0  0  0  0
  -28.0967  -36.2599   24.6275 H   0  0  0  0  0  0
  -27.2277  -37.1372   25.8914 H   0  0  0  0  0  0
  -20.9269  -29.8732   21.6937 H   0  0  0  0  0  0
  -26.0104  -38.2830   24.1523 H   0  0  0  0  0  0
  -30.5977  -20.0103   19.9986 H   0  0  0  0  0  0
  -24.8481  -18.4703   22.7956 H   0  0  0  0  0  0
  -26.2848  -17.4623   22.9152 H   0  0  0  0  0  0
  -25.7340  -18.0420   21.3388 H   0  0  0  0  0  0
  -32.4619  -18.7829   20.4979 H   0  0  0  0  0  0
  -31.8038  -17.2878   19.8432 H   0  0  0  0  0  0
  -33.1294  -17.2507   21.0061 H   0  0  0  0  0  0
  -29.2241  -21.9570   22.9118 H   0  0  0  0  0  0
  -27.6977  -22.8161   22.9432 H   0  0  0  0  0  0
  -29.2295  -23.6977   22.9469 H   0  0  0  0  0  0
  -31.1079  -16.5867   24.5506 H   0  0  0  0  0  0
  -30.3374  -15.0722   24.1379 H   0  0  0  0  0  0
  -29.4584  -16.5772   23.9550 H   0  0  0  0  0  0
  -27.0134  -21.5533   20.5030 H   0  0  0  0  0  0
  -28.2613  -21.5298   19.3155 H   0  0  0  0  0  0
  -28.3543  -24.1686   19.3120 H   0  0  0  0  0  0
  -26.9501  -24.0022   20.3235 H   0  0  0  0  0  0
  -26.8560  -19.8146   23.5925 H   0  0  0  0  0  0
  -26.1802  -20.4212   22.1048 H   0  0  0  0  0  0
  -29.3597  -25.4461   21.4317 H   0  0  0  0  0  0
  -27.6863  -25.6432   21.8613 H   0  0  0  0  0  0
  -31.6847  -18.2066   22.7298 H   0  0  0  0  0  0
  -29.7422  -22.8850   20.6916 H   0  0  0  0  0  0
  -31.9884  -15.7971   22.4758 H   0  0  0  0  0  0
  -29.2683  -15.1258   21.8102 H   0  0  0  0  0  0
  1 25  1  0  0  0
  1 30  2  0  0  0
  1 87  1  0  0  0
  2  3  1  0  0  0
  2 25  1  0  0  0
  2 88  1  0  0  0
  2 89  1  0  0  0
  3  4  1  0  0  0
  3 90  1  0  0  0
  3 91  1  0  0  0
  4  5  1  0  0  0
  4 92  1  0  0  0
  4 93  1  0  0  0
  5  6  1  0  0  0
  5 26  1  0  0  0
  5 94  1  0  0  0
  6 25  1  0  0  0
  6 95  1  0  0  0
  6 96  1  0  0  0
  7  8  2  0  0  0
  7 26  1  0  0  0
  7 29  1  0  0  0
  8  9  1  0  0  0
  8 22  1  0  0  0
  9 10  1  0  0  0
  9 27  2  0  0  0
 10 11  2  0  0  0
 10 15  1  0  0  0
 11 12  1  0  0  0
 11 97  1  0  0  0
 12 13  2  0  0  0
 12 98  1  0  0  0
 13 14  1  0  0  0
 13 31  1  0  0  0
 14 15  2  0  0  0
 14 99  1  0  0  0
 15100  1  0  0  0
 16 17  2  0  0  0
 16 21  1  0  0  0
 16 31  1  0  0  0
 17 18  1  0  0  0
 17101  1  0  0  0
 18 19  2  0  0  0
 18102  1  0  0  0
 19 20  1  0  0  0
 19 24  1  0  0  0
 20 21  2  0  0  0
 20103  1  0  0  0
 21 23  1  0  0  0
 22 28  1  0  0  0
 22 32  2  0  0  0
 26 27  1  0  0  0
 28104  1  0  0  0
 28105  1  0  0  0
 29106  1  0  0  0
 29107  1  0  0  0
 33 34  1  0  0  0
 33 66  1  0  0  0
 33 70  2  0  0  0
 34 36  1  0  0  0
 34 59  1  0  0  0
 34108  1  0  0  0
 35 44  2  0  0  0
 35 45  1  0  0  0
 35 68  1  0  0  0
 36 56  1  0  0  0
 36109  1  0  0  0
 37 39  1  0  0  0
 37 47  1  0  0  0
 37 66  1  0  0  0
 37110  1  0  0  0
 38 43  2  0  0  0
 38 46  1  0  0  0
 38 47  1  0  0  0
 39 64  1  0  0  0
 39 67  2  0  0  0
 40 52  1  0  0  0
 40 53  2  0  0  0
 40 58  1  0  0  0
 41111  1  0  0  0
 41112  1  0  0  0
 41113  1  0  0  0
 41 48  1  0  0  0
 42 43  1  0  0  0
 42 66  1  0  0  0
 42114  1  0  0  0
 42115  1  0  0  0
 43 44  1  0  0  0
 44116  1  0  0  0
 45 46  2  0  0  0
 45117  1  0  0  0
 46118  1  0  0  0
 47119  1  0  0  0
 47120  1  0  0  0
 48 56  1  0  0  0
 48 65  1  0  0  0
 48121  1  0  0  0
 49 50  1  0  0  0
 49 53  1  0  0  0
 49 64  1  0  0  0
 49122  1  0  0  0
 50 51  1  0  0  0
 50123  1  0  0  0
 50124  1  0  0  0
 51 52  1  0  0  0
 51125  1  0  0  0
 51126  1  0  0  0
 52127  1  0  0  0
 52128  1  0  0  0
 53 54  1  0  0  0
 54 55  2  0  0  0
 54129  1  0  0  0
 55 57  1  0  0  0
 55130  1  0  0  0
 56 69  2  0  0  0
 57 58  2  0  0  0
 57131  1  0  0  0
 58132  1  0  0  0
 59 60  1  0  0  0
 59 61  1  0  0  0
 59 62  1  0  0  0
 60133  1  0  0  0
 60134  1  0  0  0
 60135  1  0  0  0
 61136  1  0  0  0
 61137  1  0  0  0
 61138  1  0  0  0
 62139  1  0  0  0
 62140  1  0  0  0
 62141  1  0  0  0
 63 65  1  0  0  0
 63142  1  0  0  0
 63143  1  0  0  0
 63144  1  0  0  0
 64145  1  0  0  0
 65146  1  0  0  0
 68 81  1  0  0  0
 71 72  1  0  0  0
 71 73  2  0  0  0
 71147  1  0  0  0
 72 82  1  0  0  0
 72 85  2  0  0  0
 73 78  1  0  0  0
 73 86  1  0  0  0
 74 80  1  0  0  0
 74148  1  0  0  0
 74149  1  0  0  0
 74150  1  0  0  0
 75151  1  0  0  0
 75152  1  0  0  0
 75153  1  0  0  0
 75 82  1  0  0  0
 76154  1  0  0  0
 76155  1  0  0  0
 76156  1  0  0  0
 76 83  1  0  0  0
 77157  1  0  0  0
 77158  1  0  0  0
 77159  1  0  0  0
 77 84  1  0  0  0
 78 83  1  0  0  0
 78160  1  0  0  0
 78161  1  0  0  0
 79 81  1  0  0  0
 79 83  1  0  0  0
 79162  1  0  0  0
 79163  1  0  0  0
 80 86  1  0  0  0
 80164  1  0  0  0
 80165  1  0  0  0
 81166  1  0  0  0
 81167  1  0  0  0
 82 84  1  0  0  0
 82168  1  0  0  0
 83169  1  0  0  0
 84 87  1  0  0  0
 84170  1  0  0  0
 85 86  1  0  0  0
 87171  1  0  0  0
M  ISO  4   1 100  68 101  81 101  87 100
M  END
> <chiral flag>
0

> <version>
0

> <s_m_source_file>
/data/baiqing/PycharmProjects/Reinvent-master-3.2/result/LINK_invent/BTK/process_docking_weight1_custom_sum_contain_oxygen_bond_distance_aromatic_linkinvent_7_9_3/rearranged_h_0083.sdf

> <i_m_source_file_index>
3

> <r_mmod_Potential_Energy-OPLS-2005>
-12.8909187316895

> <r_mmod_Stretch_Energy-OPLS-2005>
41.6244621276855

> <r_mmod_Bend_Energy-OPLS-2005>
118.350883483887

> <r_mmod_Torsional_Energy-OPLS-2005>
265.864959716797

> <r_mmod_Improper_Torsional_Energy-OPLS-2005>
3.59899759292603

> <r_mmod_Van_der_Waal_Energy-OPLS-2005>
118.567443847656

> <r_mmod_Electrostatic_Energy-OPLS-2005>
-384.687774658203

> <r_mmod_Solvation_Energy-OPLS-2005>
-190.081115722656

> <b_mmod_Minimization_Converged-OPLS-2005>
0

> <r_mmod_RMS_Derivative-OPLS-2005>
5.89592361450195

$$$$
3
                    3D
 Structure written by MMmdl.
167175  0  0  1  0            999 V2000
  -30.5436  -14.9642   20.4076 C   0  0  0  0  0  0
  -30.4401  -12.5994   19.4810 C   0  0  0  0  0  0
  -29.5142  -12.5134   18.2461 C   0  0  0  0  0  0
  -28.0517  -12.2956   18.6772 C   0  0  0  0  0  0
  -27.6251  -13.2462   19.8262 C   0  0  2  0  0  0
  -28.6728  -13.2957   20.9564 C   0  0  0  0  0  0
  -25.2452  -13.8197   20.5687 C   0  0  0  0  0  0
  -24.1779  -13.0440   20.9242 C   0  0  0  0  0  0
  -24.6398  -11.6920   20.8787 C   0  0  0  0  0  0
  -23.9092  -10.4290   21.0432 C   0  0  0  0  0  0
  -24.3637   -9.4194   21.9198 C   0  0  0  0  0  0
  -23.6302   -8.2238   22.0763 C   0  0  0  0  0  0
  -22.4282   -8.0289   21.3556 C   0  0  0  0  0  0
  -21.9933   -9.0263   20.4655 C   0  0  0  0  0  0
  -22.7271  -10.2135   20.3071 C   0  0  0  0  0  0
  -21.6840   -6.0748   22.5288 C   0  0  0  0  0  0
  -21.4010   -6.5648   23.8223 C   0  0  0  0  0  0
  -21.3660   -5.6797   24.9182 C   0  0  0  0  0  0
  -21.6040   -4.3064   24.7228 C   0  0  0  0  0  0
  -21.8811   -3.8158   23.4350 C   0  0  0  0  0  0
  -21.9188   -4.6980   22.3406 C   0  0  0  0  0  0
  -22.7803  -13.5211   21.1891 C   0  0  0  0  0  0
  -22.1656   -4.2166   21.0985 F   0  0  0  0  0  0
  -21.5631   -3.4544   25.7742 F   0  0  0  0  0  0
  -29.9396  -13.7097   20.3402 N   0  0  0  0  0  0
  -26.2879  -12.9431   20.3221 N   0  0  0  0  0  0
  -25.9324  -11.6567   20.5757 N   0  0  0  0  0  0
  -22.0442  -12.8212   22.0438 N   0  0  0  0  0  0
  -25.4085  -15.1913   20.4029 N   0  0  0  0  0  0
  -31.7632  -15.0095   20.2171 O   0  0  0  0  0  0
  -21.6634   -6.8898   21.4253 O   0  0  0  0  0  0
  -22.3506  -14.5523   20.6726 O   0  0  0  0  0  0
  -24.6462  -31.8446   23.1856 C   0  0  0  0  0  0
  -25.9235  -32.4685   23.8263 C   0  0  1  0  0  0
  -27.2111  -27.1092   20.1531 C   0  0  0  0  0  0
  -25.5958  -33.8485   24.2135 N   0  0  0  0  0  0
  -23.4497  -30.4616   21.5348 C   0  0  2  0  0  0
  -24.8963  -28.8844   20.1153 C   0  0  0  0  0  0
  -22.7590  -29.4540   22.4886 C   0  0  0  0  0  0
  -18.0317  -28.1400   22.8459 C   0  0  0  0  0  0
  -24.1484  -36.7270   23.2640 C   0  0  0  0  0  0
  -26.0092  -30.7046   21.3931 C   0  0  0  0  0  0
  -26.0778  -29.3132   20.7354 C   0  0  0  0  0  0
  -27.2348  -28.4417   20.7402 C   0  0  0  0  0  0
  -26.0080  -26.8000   19.4782 C   0  0  0  0  0  0
  -24.8762  -27.6400   19.4728 C   0  0  0  0  0  0
  -23.6761  -29.7908   20.1550 C   0  0  0  0  0  0
  -25.4121  -36.3007   24.0285 C   0  0  1  0  0  0
  -20.5928  -28.3728   23.1218 C   0  0  2  0  0  0
  -20.6798  -26.9428   22.5396 C   0  0  0  0  0  0
  -19.5760  -26.6374   21.5203 C   0  0  0  0  0  0
  -18.1940  -26.7930   22.1611 C   0  0  0  0  0  0
  -19.1575  -28.8883   23.2816 C   0  0  0  0  0  0
  -18.9498  -30.1488   23.8823 C   0  0  0  0  0  0
  -17.6492  -30.6589   24.0559 C   0  0  0  0  0  0
  -25.9083  -34.9392   23.5010 C   0  0  0  0  0  0
  -16.5385  -29.9083   23.6343 C   0  0  0  0  0  0
  -16.7298  -28.6515   23.0334 C   0  0  0  0  0  0
  -26.4517  -31.6589   25.0745 C   0  0  0  0  0  0
  -25.3663  -31.3817   26.1422 C   0  0  0  0  0  0
  -27.0411  -30.2966   24.6412 C   0  0  0  0  0  0
  -27.5998  -32.4423   25.7536 C   0  0  0  0  0  0
  -27.5564  -37.1782   24.8449 C   0  0  0  0  0  0
  -21.4279  -29.3061   22.3619 N   0  0  0  0  0  0
  -26.4266  -37.3735   23.9410 N   0  0  0  0  0  0
  -24.7210  -31.0257   22.0919 N   0  0  0  0  0  0
  -23.4209  -28.8086   23.3045 O   0  0  0  0  0  0
  -28.2527  -26.1012   20.2003 O   0  0  0  0  0  0
  -26.5702  -34.8893   22.4613 O   0  0  0  0  0  0
  -23.5571  -32.1378   23.7033 O   0  0  0  0  0  0
  -26.7604  -21.8734   20.9986 C   0  0  0  0  0  0
  -25.8823  -20.8775   21.4427 C   0  0  0  0  0  0
  -28.0990  -21.6388   20.5767 C   0  0  0  0  0  0
  -26.3492  -19.5636   21.4698 C   0  0  0  0  0  0
  -28.4778  -20.1520   20.6175 C   0  0  0  0  0  0
  -25.5005  -18.4042   21.9481 C   0  0  0  0  0  0
  -24.4423  -21.9023   23.2718 C   0  0  0  0  0  0
  -30.3109  -22.0087   18.3810 C   0  0  0  0  0  0
  -24.4694  -21.2638   21.8764 C   0  0  0  0  0  0
  -29.6729  -19.1563   20.1081 C   0  0  0  0  0  0
  -29.3848  -23.1602   18.7810 C   0  0  0  0  0  0
  -30.1274  -17.6737   20.8336 C   0  0  0  0  0  0
  -27.9065  -24.5792   20.3697 C   0  0  0  0  0  0
  -28.7969  -23.1140   20.2079 C   0  0  1  0  0  0
  -27.5798  -19.2445   21.0593 N   0  0  0  0  0  0
  -29.7708  -16.1619   20.4858 N   0  0  0  0  0  0
  -31.4683  -12.7642   19.1578 H   0  0  0  0  0  0
  -30.4459  -11.6572   20.0312 H   0  0  0  0  0  0
  -29.8318  -11.7039   17.5877 H   0  0  0  0  0  0
  -29.5911  -13.4326   17.6631 H   0  0  0  0  0  0
  -27.9629  -11.2607   19.0106 H   0  0  0  0  0  0
  -27.3799  -12.3985   17.8241 H   0  0  0  0  0  0
  -27.5796  -14.2397   19.3792 H   0  0  0  0  0  0
  -28.7666  -12.3255   21.4470 H   0  0  0  0  0  0
  -28.3719  -14.0083   21.7253 H   0  0  0  0  0  0
  -25.2771   -9.5659   22.4787 H   0  0  0  0  0  0
  -23.9996   -7.4627   22.7483 H   0  0  0  0  0  0
  -21.0863   -8.8793   19.8963 H   0  0  0  0  0  0
  -22.3734  -10.9684   19.6194 H   0  0  0  0  0  0
  -21.1998   -7.6150   23.9737 H   0  0  0  0  0  0
  -21.1488   -6.0524   25.9086 H   0  0  0  0  0  0
  -22.0587   -2.7624   23.2842 H   0  0  0  0  0  0
  -22.4045  -11.9859   22.4820 H   0  0  0  0  0  0
  -21.1078  -13.1262   22.2659 H   0  0  0  0  0  0
  -24.6238  -15.8269   20.4821 H   0  0  0  0  0  0
  -26.2332  -15.6274   20.0154 H   0  0  0  0  0  0
  -26.7311  -32.5273   23.1005 H   0  0  0  0  0  0
  -25.0051  -33.9591   25.0238 H   0  0  0  0  0  0
  -22.7554  -31.2896   21.3796 H   0  0  0  0  0  0
  -23.3721  -35.9620   23.3267 H   0  0  0  0  0  0
  -24.3566  -36.8976   22.2062 H   0  0  0  0  0  0
  -23.7280  -37.6459   23.6744 H   0  0  0  0  0  0
  -26.1762  -31.4568   20.6200 H   0  0  0  0  0  0
  -26.8742  -30.7510   22.0424 H   0  0  0  0  0  0
  -28.1310  -28.7648   21.2512 H   0  0  0  0  0  0
  -25.9029  -25.8714   18.9398 H   0  0  0  0  0  0
  -23.9807  -27.3094   18.9639 H   0  0  0  0  0  0
  -23.8221  -30.5653   19.4014 H   0  0  0  0  0  0
  -22.7896  -29.2382   19.8367 H   0  0  0  0  0  0
  -25.1307  -36.1794   25.0767 H   0  0  0  0  0  0
  -21.0001  -28.3322   24.1345 H   0  0  0  0  0  0
  -20.5692  -26.2346   23.3631 H   0  0  0  0  0  0
  -21.6664  -26.7437   22.1193 H   0  0  0  0  0  0
  -19.6914  -25.6269   21.1274 H   0  0  0  0  0  0
  -19.6675  -27.3147   20.6693 H   0  0  0  0  0  0
  -17.4214  -26.6670   21.4018 H   0  0  0  0  0  0
  -18.0341  -26.0078   22.9012 H   0  0  0  0  0  0
  -19.7982  -30.7342   24.2117 H   0  0  0  0  0  0
  -17.5051  -31.6250   24.5208 H   0  0  0  0  0  0
  -15.5380  -30.2971   23.7717 H   0  0  0  0  0  0
  -15.8695  -28.0845   22.7034 H   0  0  0  0  0  0
  -24.5800  -30.7225   25.7739 H   0  0  0  0  0  0
  -24.8903  -32.3019   26.4822 H   0  0  0  0  0  0
  -25.7897  -30.8999   27.0239 H   0  0  0  0  0  0
  -26.3066  -29.6670   24.1379 H   0  0  0  0  0  0
  -27.3941  -29.7296   25.5053 H   0  0  0  0  0  0
  -27.9001  -30.4188   23.9806 H   0  0  0  0  0  0
  -27.2514  -33.3741   26.2014 H   0  0  0  0  0  0
  -28.3820  -32.7000   25.0379 H   0  0  0  0  0  0
  -28.0647  -31.8664   26.5547 H   0  0  0  0  0  0
  -28.2536  -38.0117   24.7537 H   0  0  0  0  0  0
  -28.1102  -36.2655   24.6213 H   0  0  0  0  0  0
  -27.2298  -37.1365   25.8852 H   0  0  0  0  0  0
  -20.9515  -29.8818   21.6819 H   0  0  0  0  0  0
  -26.0103  -38.2778   24.1454 H   0  0  0  0  0  0
  -26.3241  -22.8547   21.0009 H   0  0  0  0  0  0
  -25.0522  -18.6346   22.9141 H   0  0  0  0  0  0
  -26.0901  -17.4939   22.0634 H   0  0  0  0  0  0
  -24.7056  -18.2039   21.2287 H   0  0  0  0  0  0
  -23.4211  -22.1445   23.5732 H   0  0  0  0  0  0
  -25.0184  -22.8279   23.2945 H   0  0  0  0  0  0
  -24.8551  -21.2302   24.0247 H   0  0  0  0  0  0
  -30.8410  -22.2464   17.4579 H   0  0  0  0  0  0
  -29.7391  -21.1029   18.1898 H   0  0  0  0  0  0
  -31.0617  -21.8107   19.1452 H   0  0  0  0  0  0
  -23.8001  -20.4041   21.8475 H   0  0  0  0  0  0
  -24.0583  -21.9684   21.1517 H   0  0  0  0  0  0
  -30.5654  -19.7809   20.1528 H   0  0  0  0  0  0
  -29.5162  -18.9741   19.0444 H   0  0  0  0  0  0
  -28.5667  -23.2126   18.0630 H   0  0  0  0  0  0
  -29.9350  -24.0969   18.6687 H   0  0  0  0  0  0
  -29.9579  -17.7861   21.9045 H   0  0  0  0  0  0
  -31.2142  -17.6739   20.7493 H   0  0  0  0  0  0
  -27.4928  -24.5672   21.3785 H   0  0  0  0  0  0
  -27.0696  -24.3985   19.7049 H   0  0  0  0  0  0
  -29.6316  -23.1869   20.9045 H   0  0  0  0  0  0
  -28.7769  -15.9829   20.4664 H   0  0  0  0  0  0
  1 25  1  0  0  0
  1 30  2  0  0  0
  1 86  1  0  0  0
  2  3  1  0  0  0
  2 25  1  0  0  0
  2 87  1  0  0  0
  2 88  1  0  0  0
  3  4  1  0  0  0
  3 89  1  0  0  0
  3 90  1  0  0  0
  4  5  1  0  0  0
  4 91  1  0  0  0
  4 92  1  0  0  0
  5  6  1  0  0  0
  5 26  1  0  0  0
  5 93  1  0  0  0
  6 25  1  0  0  0
  6 94  1  0  0  0
  6 95  1  0  0  0
  7  8  2  0  0  0
  7 26  1  0  0  0
  7 29  1  0  0  0
  8  9  1  0  0  0
  8 22  1  0  0  0
  9 10  1  0  0  0
  9 27  2  0  0  0
 10 11  2  0  0  0
 10 15  1  0  0  0
 11 12  1  0  0  0
 11 96  1  0  0  0
 12 13  2  0  0  0
 12 97  1  0  0  0
 13 14  1  0  0  0
 13 31  1  0  0  0
 14 15  2  0  0  0
 14 98  1  0  0  0
 15 99  1  0  0  0
 16 17  2  0  0  0
 16 21  1  0  0  0
 16 31  1  0  0  0
 17 18  1  0  0  0
 17100  1  0  0  0
 18 19  2  0  0  0
 18101  1  0  0  0
 19 20  1  0  0  0
 19 24  1  0  0  0
 20 21  2  0  0  0
 20102  1  0  0  0
 21 23  1  0  0  0
 22 28  1  0  0  0
 22 32  2  0  0  0
 26 27  1  0  0  0
 28103  1  0  0  0
 28104  1  0  0  0
 29105  1  0  0  0
 29106  1  0  0  0
 33 34  1  0  0  0
 33 66  1  0  0  0
 33 70  2  0  0  0
 34 36  1  0  0  0
 34 59  1  0  0  0
 34107  1  0  0  0
 35 44  2  0  0  0
 35 45  1  0  0  0
 35 68  1  0  0  0
 36 56  1  0  0  0
 36108  1  0  0  0
 37 39  1  0  0  0
 37 47  1  0  0  0
 37 66  1  0  0  0
 37109  1  0  0  0
 38 43  2  0  0  0
 38 46  1  0  0  0
 38 47  1  0  0  0
 39 64  1  0  0  0
 39 67  2  0  0  0
 40 52  1  0  0  0
 40 53  2  0  0  0
 40 58  1  0  0  0
 41110  1  0  0  0
 41111  1  0  0  0
 41112  1  0  0  0
 41 48  1  0  0  0
 42 43  1  0  0  0
 42 66  1  0  0  0
 42113  1  0  0  0
 42114  1  0  0  0
 43 44  1  0  0  0
 44115  1  0  0  0
 45 46  2  0  0  0
 45116  1  0  0  0
 46117  1  0  0  0
 47118  1  0  0  0
 47119  1  0  0  0
 48 56  1  0  0  0
 48 65  1  0  0  0
 48120  1  0  0  0
 49 50  1  0  0  0
 49 53  1  0  0  0
 49 64  1  0  0  0
 49121  1  0  0  0
 50 51  1  0  0  0
 50122  1  0  0  0
 50123  1  0  0  0
 51 52  1  0  0  0
 51124  1  0  0  0
 51125  1  0  0  0
 52126  1  0  0  0
 52127  1  0  0  0
 53 54  1  0  0  0
 54 55  2  0  0  0
 54128  1  0  0  0
 55 57  1  0  0  0
 55129  1  0  0  0
 56 69  2  0  0  0
 57 58  2  0  0  0
 57130  1  0  0  0
 58131  1  0  0  0
 59 60  1  0  0  0
 59 61  1  0  0  0
 59 62  1  0  0  0
 60132  1  0  0  0
 60133  1  0  0  0
 60134  1  0  0  0
 61135  1  0  0  0
 61136  1  0  0  0
 61137  1  0  0  0
 62138  1  0  0  0
 62139  1  0  0  0
 62140  1  0  0  0
 63 65  1  0  0  0
 63141  1  0  0  0
 63142  1  0  0  0
 63143  1  0  0  0
 64144  1  0  0  0
 65145  1  0  0  0
 68 83  1  0  0  0
 71 72  2  0  0  0
 71 73  1  0  0  0
 71146  1  0  0  0
 72 74  1  0  0  0
 72 79  1  0  0  0
 73 75  2  0  0  0
 73 84  1  0  0  0
 74 76  1  0  0  0
 74 85  2  0  0  0
 75 80  1  0  0  0
 75 85  1  0  0  0
 76147  1  0  0  0
 76148  1  0  0  0
 76149  1  0  0  0
 77 79  1  0  0  0
 77150  1  0  0  0
 77151  1  0  0  0
 77152  1  0  0  0
 78 81  1  0  0  0
 78153  1  0  0  0
 78154  1  0  0  0
 78155  1  0  0  0
 79156  1  0  0  0
 79157  1  0  0  0
 80 82  1  0  0  0
 80158  1  0  0  0
 80159  1  0  0  0
 81160  1  0  0  0
 81161  1  0  0  0
 81 84  1  0  0  0
 82 86  1  0  0  0
 82162  1  0  0  0
 82163  1  0  0  0
 83 84  1  0  0  0
 83164  1  0  0  0
 83165  1  0  0  0
 84166  1  0  0  0
 86167  1  0  0  0
M  ISO  4   1 100  68 101  83 101  86 100
M  END
> <chiral flag>
0

> <version>
0

> <s_m_source_file>
/data/baiqing/PycharmProjects/Reinvent-master-3.2/result/LINK_invent/BTK/process_docking_weight1_custom_sum_contain_oxygen_bond_distance_aromatic_linkinvent_7_9_3/rearranged_h_0083.sdf

> <i_m_source_file_index>
4

> <r_mmod_Potential_Energy-OPLS-2005>
572.207641601562

> <r_mmod_Stretch_Energy-OPLS-2005>
319.349395751953

> <r_mmod_Bend_Energy-OPLS-2005>
383.507263183594

> <r_mmod_Torsional_Energy-OPLS-2005>
241.132934570312

> <r_mmod_Improper_Torsional_Energy-OPLS-2005>
5.0702018737793

> <r_mmod_Van_der_Waal_Energy-OPLS-2005>
137.753356933594

> <r_mmod_Electrostatic_Energy-OPLS-2005>
-515.171081542969

> <r_mmod_Solvation_Energy-OPLS-2005>
-212.934295654297

> <b_mmod_Minimization_Converged-OPLS-2005>
0

> <r_mmod_RMS_Derivative-OPLS-2005>
2.70596504211426

$$$$
4
                    3D
 Structure written by MMmdl.
161169  0  0  1  0            999 V2000
  -30.6470  -14.7259   20.4544 C   0  0  0  0  0  0
  -30.4220  -12.4444   19.4758 C   0  0  0  0  0  0
  -29.5068  -12.4996   18.2348 C   0  0  0  0  0  0
  -28.0330  -12.3296   18.6475 C   0  0  0  0  0  0
  -27.6385  -13.2356   19.8456 C   0  0  2  0  0  0
  -28.6833  -13.1882   20.9819 C   0  0  0  0  0  0
  -25.2501  -13.8208   20.5698 C   0  0  0  0  0  0
  -24.1799  -13.0448   20.9216 C   0  0  0  0  0  0
  -24.6393  -11.6926   20.8750 C   0  0  0  0  0  0
  -23.9073  -10.4299   21.0402 C   0  0  0  0  0  0
  -24.3625   -9.4214   21.9175 C   0  0  0  0  0  0
  -23.6300   -8.2249   22.0746 C   0  0  0  0  0  0
  -22.4283   -8.0283   21.3540 C   0  0  0  0  0  0
  -21.9917   -9.0256   20.4644 C   0  0  0  0  0  0
  -22.7243  -10.2137   20.3051 C   0  0  0  0  0  0
  -21.6859   -6.0737   22.5276 C   0  0  0  0  0  0
  -21.4017   -6.5641   23.8209 C   0  0  0  0  0  0
  -21.3662   -5.6793   24.9173 C   0  0  0  0  0  0
  -21.6045   -4.3054   24.7223 C   0  0  0  0  0  0
  -21.8822   -3.8147   23.4344 C   0  0  0  0  0  0
  -21.9198   -4.6965   22.3398 C   0  0  0  0  0  0
  -22.7821  -13.5226   21.1871 C   0  0  0  0  0  0
  -22.1666   -4.2151   21.0975 F   0  0  0  0  0  0
  -21.5628   -3.4535   25.7735 F   0  0  0  0  0  0
  -29.9843  -13.5216   20.3937 N   0  0  0  0  0  0
  -26.2925  -12.9422   20.3270 N   0  0  0  0  0  0
  -25.9324  -11.6564   20.5754 N   0  0  0  0  0  0
  -22.0472  -12.8213   22.0427 N   0  0  0  0  0  0
  -25.4184  -15.1928   20.4093 N   0  0  0  0  0  0
  -31.8428  -14.7748   20.1594 O   0  0  0  0  0  0
  -21.6650   -6.8878   21.4235 O   0  0  0  0  0  0
  -22.3505  -14.5531   20.6716 O   0  0  0  0  0  0
  -24.6316  -31.8560   23.1997 C   0  0  0  0  0  0
  -25.9144  -32.4756   23.8337 C   0  0  1  0  0  0
  -27.2119  -27.2614   20.1237 C   0  0  0  0  0  0
  -25.5940  -33.8560   24.2259 N   0  0  0  0  0  0
  -23.4271  -30.4806   21.5436 C   0  0  2  0  0  0
  -24.8723  -28.9313   20.1083 C   0  0  0  0  0  0
  -22.7502  -29.4610   22.4915 C   0  0  0  0  0  0
  -18.0292  -28.1389   22.8486 C   0  0  0  0  0  0
  -24.1490  -36.7285   23.2640 C   0  0  0  0  0  0
  -25.9739  -30.7682   21.3802 C   0  0  0  0  0  0
  -26.0448  -29.3924   20.7196 C   0  0  0  0  0  0
  -27.2176  -28.5696   20.7175 C   0  0  0  0  0  0
  -26.0166  -26.8759   19.4738 C   0  0  0  0  0  0
  -24.8636  -27.6814   19.4741 C   0  0  0  0  0  0
  -23.6440  -29.8185   20.1583 C   0  0  0  0  0  0
  -25.4117  -36.3070   24.0325 C   0  0  1  0  0  0
  -20.5896  -28.3703   23.1269 C   0  0  2  0  0  0
  -20.6780  -26.9420   22.5408 C   0  0  0  0  0  0
  -19.5755  -26.6385   21.5215 C   0  0  0  0  0  0
  -18.1936  -26.7932   22.1626 C   0  0  0  0  0  0
  -19.1546  -28.8864   23.2873 C   0  0  0  0  0  0
  -18.9465  -30.1463   23.8894 C   0  0  0  0  0  0
  -17.6463  -30.6591   24.0564 C   0  0  0  0  0  0
  -25.9059  -34.9440   23.5095 C   0  0  0  0  0  0
  -16.5355  -29.9087   23.6332 C   0  0  0  0  0  0
  -16.7277  -28.6504   23.0354 C   0  0  0  0  0  0
  -26.4506  -31.6583   25.0729 C   0  0  0  0  0  0
  -25.3723  -31.3740   26.1445 C   0  0  0  0  0  0
  -27.0355  -30.2996   24.6226 C   0  0  0  0  0  0
  -27.6056  -32.4327   25.7504 C   0  0  0  0  0  0
  -27.5579  -37.1799   24.8464 C   0  0  0  0  0  0
  -21.4210  -29.3051   22.3660 N   0  0  0  0  0  0
  -26.4292  -37.3768   23.9407 N   0  0  0  0  0  0
  -24.6967  -31.0528   22.0973 N   0  0  0  0  0  0
  -23.4205  -28.8146   23.3009 O   0  0  0  0  0  0
  -28.2971  -26.3543   20.1956 O   0  0  0  0  0  0
  -26.5630  -34.8914   22.4663 O   0  0  0  0  0  0
  -23.5468  -32.1386   23.7292 O   0  0  0  0  0  0
  -28.1838  -21.5120   22.3949 C   0  0  0  0  0  0
  -28.9126  -18.8871   22.3869 C   0  0  0  0  0  0
  -28.7665  -21.0381   21.1968 C   0  0  0  0  0  0
  -29.1445  -19.6021   21.1860 C   0  0  0  0  0  0
  -28.0199  -20.6851   23.5118 C   0  0  0  0  0  0
  -27.3986  -21.2214   24.7843 C   0  0  0  0  0  0
  -28.8166  -22.1603   20.0705 C   0  0  0  0  0  0
  -29.0633  -23.7326   20.4535 C   0  0  0  0  0  0
  -30.5422  -17.3019   20.3953 C   0  0  0  0  0  0
  -28.0344  -24.8860   19.9853 C   0  0  0  0  0  0
  -29.7286  -18.6807   20.0281 C   0  0  2  0  0  0
  -28.3840  -19.3961   23.5147 N   0  0  0  0  0  0
  -29.9389  -15.9113   20.6057 N   0  0  0  0  0  0
  -30.6485  -19.5056   19.2250 N   0  3  0  0  0  0
  -31.4654  -12.5485   19.1739 H   0  0  0  0  0  0
  -30.3508  -11.4727   19.9666 H   0  0  0  0  0  0
  -29.7875  -11.7226   17.5225 H   0  0  0  0  0  0
  -29.6403  -13.4521   17.7199 H   0  0  0  0  0  0
  -27.8881  -11.2819   18.9133 H   0  0  0  0  0  0
  -27.3776  -12.5192   17.7961 H   0  0  0  0  0  0
  -27.6282  -14.2544   19.4573 H   0  0  0  0  0  0
  -28.7139  -12.2009   21.4449 H   0  0  0  0  0  0
  -28.4235  -13.8926   21.7736 H   0  0  0  0  0  0
  -25.2763   -9.5702   22.4757 H   0  0  0  0  0  0
  -24.0016   -7.4644   22.7463 H   0  0  0  0  0  0
  -21.0850   -8.8768   19.8948 H   0  0  0  0  0  0
  -22.3687  -10.9677   19.6168 H   0  0  0  0  0  0
  -21.2004   -7.6149   23.9713 H   0  0  0  0  0  0
  -21.1483   -6.0522   25.9077 H   0  0  0  0  0  0
  -22.0598   -2.7610   23.2842 H   0  0  0  0  0  0
  -22.4099  -11.9882   22.4821 H   0  0  0  0  0  0
  -21.1079  -13.1217   22.2614 H   0  0  0  0  0  0
  -24.6464  -15.8428   20.5107 H   0  0  0  0  0  0
  -26.2572  -15.6293   20.0503 H   0  0  0  0  0  0
  -26.7208  -32.5402   23.1074 H   0  0  0  0  0  0
  -25.0077  -33.9697   25.0398 H   0  0  0  0  0  0
  -22.7233  -31.3033   21.4000 H   0  0  0  0  0  0
  -23.3752  -35.9617   23.3298 H   0  0  0  0  0  0
  -24.3580  -36.8915   22.2055 H   0  0  0  0  0  0
  -23.7244  -37.6486   23.6668 H   0  0  0  0  0  0
  -26.1147  -31.5299   20.6122 H   0  0  0  0  0  0
  -26.8512  -30.8147   22.0138 H   0  0  0  0  0  0
  -28.1125  -28.9144   21.2163 H   0  0  0  0  0  0
  -25.9362  -25.9246   18.9697 H   0  0  0  0  0  0
  -23.9667  -27.3258   18.9856 H   0  0  0  0  0  0
  -23.7695  -30.5969   19.4048 H   0  0  0  0  0  0
  -22.7612  -29.2541   19.8521 H   0  0  0  0  0  0
  -25.1300  -36.1915   25.0819 H   0  0  0  0  0  0
  -20.9989  -28.3280   24.1390 H   0  0  0  0  0  0
  -20.5686  -26.2312   23.3614 H   0  0  0  0  0  0
  -21.6647  -26.7448   22.1198 H   0  0  0  0  0  0
  -19.6916  -25.6294   21.1251 H   0  0  0  0  0  0
  -19.6691  -27.3191   20.6741 H   0  0  0  0  0  0
  -17.4204  -26.6679   21.4030 H   0  0  0  0  0  0
  -18.0335  -26.0076   22.9025 H   0  0  0  0  0  0
  -19.7940  -30.7281   24.2261 H   0  0  0  0  0  0
  -17.5017  -31.6271   24.5164 H   0  0  0  0  0  0
  -15.5356  -30.2988   23.7660 H   0  0  0  0  0  0
  -15.8676  -28.0822   22.7075 H   0  0  0  0  0  0
  -24.5891  -30.7099   25.7768 H   0  0  0  0  0  0
  -24.8922  -32.2915   26.4861 H   0  0  0  0  0  0
  -25.8029  -30.8917   27.0229 H   0  0  0  0  0  0
  -26.2946  -29.6739   24.1237 H   0  0  0  0  0  0
  -27.4016  -29.7265   25.4755 H   0  0  0  0  0  0
  -27.8832  -30.4265   23.9488 H   0  0  0  0  0  0
  -27.2658  -33.3626   26.2075 H   0  0  0  0  0  0
  -28.3869  -32.6892   25.0337 H   0  0  0  0  0  0
  -28.0721  -31.8459   26.5428 H   0  0  0  0  0  0
  -28.2594  -38.0098   24.7509 H   0  0  0  0  0  0
  -28.1079  -36.2630   24.6292 H   0  0  0  0  0  0
  -27.2298  -37.1448   25.8867 H   0  0  0  0  0  0
  -20.9391  -29.8777   21.6868 H   0  0  0  0  0  0
  -26.0170  -38.2843   24.1404 H   0  0  0  0  0  0
  -27.8257  -22.5286   22.4735 H   0  0  0  0  0  0
  -29.1403  -17.8355   22.4635 H   0  0  0  0  0  0
  -26.4331  -21.6788   24.5686 H   0  0  0  0  0  0
  -28.0440  -21.9798   25.2278 H   0  0  0  0  0  0
  -27.2420  -20.4341   25.5227 H   0  0  0  0  0  0
  -27.8669  -22.0940   19.5389 H   0  0  0  0  0  0
  -29.5638  -21.8848   19.3305 H   0  0  0  0  0  0
  -30.0321  -23.9983   20.0302 H   0  0  0  0  0  0
  -29.2279  -23.8394   21.5239 H   0  0  0  0  0  0
  -31.2090  -17.5024   21.2357 H   0  0  0  0  0  0
  -31.2243  -17.1430   19.5580 H   0  0  0  0  0  0
  -27.0874  -24.6435   20.4702 H   0  0  0  0  0  0
  -27.8695  -24.7475   18.9161 H   0  0  0  0  0  0
  -28.8931  -18.4140   19.3787 H   0  0  0  0  0  0
  -28.9492  -15.8439   20.7887 H   0  0  0  0  0  0
  -31.4169  -19.8409   19.7781 H   0  0  0  0  0  0
  -30.1680  -20.2858   18.8171 H   0  0  0  0  0  0
  -31.0214  -18.9582   18.4688 H   0  0  0  0  0  0
  1 25  1  0  0  0
  1 30  2  0  0  0
  1 83  1  0  0  0
  2  3  1  0  0  0
  2 25  1  0  0  0
  2 85  1  0  0  0
  2 86  1  0  0  0
  3  4  1  0  0  0
  3 87  1  0  0  0
  3 88  1  0  0  0
  4  5  1  0  0  0
  4 89  1  0  0  0
  4 90  1  0  0  0
  5  6  1  0  0  0
  5 26  1  0  0  0
  5 91  1  0  0  0
  6 25  1  0  0  0
  6 92  1  0  0  0
  6 93  1  0  0  0
  7  8  2  0  0  0
  7 26  1  0  0  0
  7 29  1  0  0  0
  8  9  1  0  0  0
  8 22  1  0  0  0
  9 10  1  0  0  0
  9 27  2  0  0  0
 10 11  2  0  0  0
 10 15  1  0  0  0
 11 12  1  0  0  0
 11 94  1  0  0  0
 12 13  2  0  0  0
 12 95  1  0  0  0
 13 14  1  0  0  0
 13 31  1  0  0  0
 14 15  2  0  0  0
 14 96  1  0  0  0
 15 97  1  0  0  0
 16 17  2  0  0  0
 16 21  1  0  0  0
 16 31  1  0  0  0
 17 18  1  0  0  0
 17 98  1  0  0  0
 18 19  2  0  0  0
 18 99  1  0  0  0
 19 20  1  0  0  0
 19 24  1  0  0  0
 20 21  2  0  0  0
 20100  1  0  0  0
 21 23  1  0  0  0
 22 28  1  0  0  0
 22 32  2  0  0  0
 26 27  1  0  0  0
 28101  1  0  0  0
 28102  1  0  0  0
 29103  1  0  0  0
 29104  1  0  0  0
 33 34  1  0  0  0
 33 66  1  0  0  0
 33 70  2  0  0  0
 34 36  1  0  0  0
 34 59  1  0  0  0
 34105  1  0  0  0
 35 44  2  0  0  0
 35 45  1  0  0  0
 35 68  1  0  0  0
 36 56  1  0  0  0
 36106  1  0  0  0
 37 39  1  0  0  0
 37 47  1  0  0  0
 37 66  1  0  0  0
 37107  1  0  0  0
 38 43  2  0  0  0
 38 46  1  0  0  0
 38 47  1  0  0  0
 39 64  1  0  0  0
 39 67  2  0  0  0
 40 52  1  0  0  0
 40 53  2  0  0  0
 40 58  1  0  0  0
 41108  1  0  0  0
 41109  1  0  0  0
 41110  1  0  0  0
 41 48  1  0  0  0
 42 43  1  0  0  0
 42 66  1  0  0  0
 42111  1  0  0  0
 42112  1  0  0  0
 43 44  1  0  0  0
 44113  1  0  0  0
 45 46  2  0  0  0
 45114  1  0  0  0
 46115  1  0  0  0
 47116  1  0  0  0
 47117  1  0  0  0
 48 56  1  0  0  0
 48 65  1  0  0  0
 48118  1  0  0  0
 49 50  1  0  0  0
 49 53  1  0  0  0
 49 64  1  0  0  0
 49119  1  0  0  0
 50 51  1  0  0  0
 50120  1  0  0  0
 50121  1  0  0  0
 51 52  1  0  0  0
 51122  1  0  0  0
 51123  1  0  0  0
 52124  1  0  0  0
 52125  1  0  0  0
 53 54  1  0  0  0
 54 55  2  0  0  0
 54126  1  0  0  0
 55 57  1  0  0  0
 55127  1  0  0  0
 56 69  2  0  0  0
 57 58  2  0  0  0
 57128  1  0  0  0
 58129  1  0  0  0
 59 60  1  0  0  0
 59 61  1  0  0  0
 59 62  1  0  0  0
 60130  1  0  0  0
 60131  1  0  0  0
 60132  1  0  0  0
 61133  1  0  0  0
 61134  1  0  0  0
 61135  1  0  0  0
 62136  1  0  0  0
 62137  1  0  0  0
 62138  1  0  0  0
 63 65  1  0  0  0
 63139  1  0  0  0
 63140  1  0  0  0
 63141  1  0  0  0
 64142  1  0  0  0
 65143  1  0  0  0
 68 80  1  0  0  0
 71 73  2  0  0  0
 71 75  1  0  0  0
 71144  1  0  0  0
 72 74  2  0  0  0
 72 82  1  0  0  0
 72145  1  0  0  0
 73 74  1  0  0  0
 73 77  1  0  0  0
 74 81  1  0  0  0
 75 76  1  0  0  0
 75 82  2  0  0  0
 76146  1  0  0  0
 76147  1  0  0  0
 76148  1  0  0  0
 77 78  1  0  0  0
 77149  1  0  0  0
 77150  1  0  0  0
 78 80  1  0  0  0
 78151  1  0  0  0
 78152  1  0  0  0
 79 81  1  0  0  0
 79 83  1  0  0  0
 79153  1  0  0  0
 79154  1  0  0  0
 80155  1  0  0  0
 80156  1  0  0  0
 81 84  1  0  0  0
 81157  1  0  0  0
 83158  1  0  0  0
 84159  1  0  0  0
 84160  1  0  0  0
 84161  1  0  0  0
M  CHG  1  84   1
M  ISO  4   1 100  68 101  80 101  83 100
M  END
> <chiral flag>
0

> <version>
0

> <s_m_source_file>
/data/baiqing/PycharmProjects/Reinvent-master-3.2/result/LINK_invent/BTK/process_docking_weight1_custom_sum_contain_oxygen_bond_distance_aromatic_linkinvent_7_9_3/rearranged_h_0083.sdf

> <i_m_source_file_index>
5

> <r_mmod_Potential_Energy-OPLS-2005>
-228.800384521484

> <r_mmod_Stretch_Energy-OPLS-2005>
138.852020263672

> <r_mmod_Bend_Energy-OPLS-2005>
208.096694946289

> <r_mmod_Torsional_Energy-OPLS-2005>
232.005020141602

> <r_mmod_Improper_Torsional_Energy-OPLS-2005>
5.65363216400146

> <r_mmod_Van_der_Waal_Energy-OPLS-2005>
153.555633544922

> <r_mmod_Electrostatic_Energy-OPLS-2005>
-520.79296875

> <r_mmod_Solvation_Energy-OPLS-2005>
-531.045532226562

> <b_mmod_Minimization_Converged-OPLS-2005>
0

> <r_mmod_RMS_Derivative-OPLS-2005>
0.735535860061646

$$$$
5
                    3D
 Structure written by MMmdl.
163171  0  0  1  0            999 V2000
  -30.6500  -14.5519   20.5466 C   0  0  0  0  0  0
  -30.4367  -12.3533   19.4237 C   0  0  0  0  0  0
  -29.4991  -12.5072   18.2068 C   0  0  0  0  0  0
  -28.0215  -12.3545   18.6228 C   0  0  0  0  0  0
  -27.6576  -13.2065   19.8674 C   0  0  2  0  0  0
  -28.7028  -13.0114   20.9882 C   0  0  0  0  0  0
  -25.2578  -13.8148   20.5677 C   0  0  0  0  0  0
  -24.1830  -13.0428   20.9175 C   0  0  0  0  0  0
  -24.6384  -11.6895   20.8730 C   0  0  0  0  0  0
  -23.9047  -10.4286   21.0400 C   0  0  0  0  0  0
  -24.3605   -9.4205   21.9179 C   0  0  0  0  0  0
  -23.6286   -8.2240   22.0752 C   0  0  0  0  0  0
  -22.4268   -8.0276   21.3540 C   0  0  0  0  0  0
  -21.9896   -9.0244   20.4640 C   0  0  0  0  0  0
  -22.7218  -10.2128   20.3048 C   0  0  0  0  0  0
  -21.6850   -6.0729   22.5276 C   0  0  0  0  0  0
  -21.4011   -6.5634   23.8208 C   0  0  0  0  0  0
  -21.3659   -5.6791   24.9174 C   0  0  0  0  0  0
  -21.6048   -4.3053   24.7226 C   0  0  0  0  0  0
  -21.8821   -3.8139   23.4347 C   0  0  0  0  0  0
  -21.9191   -4.6956   22.3401 C   0  0  0  0  0  0
  -22.7858  -13.5233   21.1847 C   0  0  0  0  0  0
  -22.1664   -4.2141   21.0979 F   0  0  0  0  0  0
  -21.5630   -3.4537   25.7740 F   0  0  0  0  0  0
  -30.0235  -13.3463   20.4287 N   0  0  0  0  0  0
  -26.3005  -12.9315   20.3331 N   0  0  0  0  0  0
  -25.9310  -11.6478   20.5750 N   0  0  0  0  0  0
  -22.0497  -12.8222   22.0404 N   0  0  0  0  0  0
  -25.4292  -15.1869   20.4100 N   0  0  0  0  0  0
  -31.8001  -14.7504   20.1464 O   0  0  0  0  0  0
  -21.6637   -6.8873   21.4239 O   0  0  0  0  0  0
  -22.3547  -14.5543   20.6702 O   0  0  0  0  0  0
  -24.6183  -31.8647   23.2062 C   0  0  0  0  0  0
  -25.9053  -32.4809   23.8377 C   0  0  1  0  0  0
  -27.2370  -27.3935   20.1108 C   0  0  0  0  0  0
  -25.5892  -33.8607   24.2312 N   0  0  0  0  0  0
  -23.4102  -30.4857   21.5480 C   0  0  2  0  0  0
  -24.8599  -28.9419   20.1181 C   0  0  0  0  0  0
  -22.7443  -29.4640   22.4982 C   0  0  0  0  0  0
  -18.0280  -28.1380   22.8501 C   0  0  0  0  0  0
  -24.1483  -36.7309   23.2640 C   0  0  0  0  0  0
  -25.9429  -30.8172   21.3669 C   0  0  0  0  0  0
  -26.0223  -29.4476   20.7146 C   0  0  0  0  0  0
  -27.2173  -28.6830   20.7021 C   0  0  0  0  0  0
  -26.0579  -26.9095   19.5084 C   0  0  0  0  0  0
  -24.8739  -27.6741   19.5098 C   0  0  0  0  0  0
  -23.6228  -29.8134   20.1652 C   0  0  0  0  0  0
  -25.4107  -36.3106   24.0333 C   0  0  1  0  0  0
  -20.5873  -28.3674   23.1312 C   0  0  2  0  0  0
  -20.6771  -26.9408   22.5418 C   0  0  0  0  0  0
  -19.5746  -26.6390   21.5220 C   0  0  0  0  0  0
  -18.1923  -26.7931   22.1631 C   0  0  0  0  0  0
  -19.1529  -28.8846   23.2900 C   0  0  0  0  0  0
  -18.9452  -30.1451   23.8915 C   0  0  0  0  0  0
  -17.6451  -30.6586   24.0568 C   0  0  0  0  0  0
  -25.9036  -34.9469   23.5124 C   0  0  0  0  0  0
  -16.5345  -29.9086   23.6324 C   0  0  0  0  0  0
  -16.7266  -28.6498   23.0354 C   0  0  0  0  0  0
  -26.4464  -31.6606   25.0723 C   0  0  0  0  0  0
  -25.3715  -31.3713   26.1465 C   0  0  0  0  0  0
  -27.0306  -30.3047   24.6124 C   0  0  0  0  0  0
  -27.6038  -32.4335   25.7480 C   0  0  0  0  0  0
  -27.5579  -37.1807   24.8460 C   0  0  0  0  0  0
  -21.4166  -29.3033   22.3718 N   0  0  0  0  0  0
  -26.4294  -37.3795   23.9400 N   0  0  0  0  0  0
  -24.6753  -31.0714   22.0983 N   0  0  0  0  0  0
  -23.4194  -28.8187   23.3045 O   0  0  0  0  0  0
  -28.3803  -26.6119   20.0938 O   0  0  0  0  0  0
  -26.5610  -34.8919   22.4696 O   0  0  0  0  0  0
  -23.5363  -32.1421   23.7428 O   0  0  0  0  0  0
  -27.9359  -20.7525   19.6508 C   0  0  0  0  0  0
  -28.9336  -21.3814   20.4596 C   0  0  0  0  0  0
  -28.3271  -19.4574   19.4093 C   0  0  0  0  0  0
  -29.9036  -20.4193   20.6814 C   0  0  0  0  0  0
  -26.6607  -21.3973   19.1620 C   0  0  0  0  0  0
  -27.6526  -18.3818   18.6090 C   0  0  0  0  0  0
  -31.1766  -20.5182   21.4667 C   0  0  0  0  0  0
  -28.8590  -22.8129   21.0497 C   0  0  0  0  0  0
  -28.7107  -24.0500   20.0921 C   0  0  0  0  0  0
  -30.2996  -17.9376   19.9944 C   0  0  0  0  0  0
  -30.1671  -16.9965   21.2383 C   0  0  0  0  0  0
  -28.3187  -25.3700   20.8449 C   0  0  0  0  0  0
  -29.5382  -19.2219   20.0487 N   0  0  0  0  0  0
  -29.8622  -15.5629   20.9827 N   0  0  0  0  0  0
  -31.4762  -12.4827   19.1183 H   0  0  0  0  0  0
  -30.3689  -11.3467   19.8390 H   0  0  0  0  0  0
  -29.7497  -11.7706   17.4422 H   0  0  0  0  0  0
  -29.6500  -13.4864   17.7489 H   0  0  0  0  0  0
  -27.8461  -11.2995   18.8358 H   0  0  0  0  0  0
  -27.3669  -12.6085   17.7886 H   0  0  0  0  0  0
  -27.6913  -14.2495   19.5522 H   0  0  0  0  0  0
  -28.7001  -11.9773   21.3362 H   0  0  0  0  0  0
  -28.4575  -13.6144   21.8635 H   0  0  0  0  0  0
  -25.2752   -9.5689   22.4752 H   0  0  0  0  0  0
  -23.9994   -7.4634   22.7474 H   0  0  0  0  0  0
  -21.0825   -8.8760   19.8944 H   0  0  0  0  0  0
  -22.3672  -10.9669   19.6159 H   0  0  0  0  0  0
  -21.2005   -7.6145   23.9708 H   0  0  0  0  0  0
  -21.1482   -6.0523   25.9077 H   0  0  0  0  0  0
  -22.0599   -2.7601   23.2849 H   0  0  0  0  0  0
  -22.4114  -11.9883   22.4791 H   0  0  0  0  0  0
  -21.1115  -13.1246   22.2616 H   0  0  0  0  0  0
  -24.6609  -15.8395   20.5191 H   0  0  0  0  0  0
  -26.2807  -15.6266   20.0871 H   0  0  0  0  0  0
  -26.7122  -32.5511   23.1136 H   0  0  0  0  0  0
  -25.0011  -33.9762   25.0436 H   0  0  0  0  0  0
  -22.7001  -31.3027   21.4050 H   0  0  0  0  0  0
  -23.3743  -35.9644   23.3312 H   0  0  0  0  0  0
  -24.3575  -36.8931   22.2055 H   0  0  0  0  0  0
  -23.7237  -37.6511   23.6658 H   0  0  0  0  0  0
  -26.0608  -31.5810   20.5971 H   0  0  0  0  0  0
  -26.8286  -30.8721   21.9887 H   0  0  0  0  0  0
  -28.1151  -29.0702   21.1644 H   0  0  0  0  0  0
  -26.0565  -25.9355   19.0390 H   0  0  0  0  0  0
  -23.9808  -27.2810   19.0432 H   0  0  0  0  0  0
  -23.7347  -30.5857   19.4035 H   0  0  0  0  0  0
  -22.7467  -29.2341   19.8695 H   0  0  0  0  0  0
  -25.1296  -36.1965   25.0830 H   0  0  0  0  0  0
  -20.9968  -28.3247   24.1433 H   0  0  0  0  0  0
  -20.5684  -26.2287   23.3610 H   0  0  0  0  0  0
  -21.6638  -26.7453   22.1206 H   0  0  0  0  0  0
  -19.6897  -25.6306   21.1239 H   0  0  0  0  0  0
  -19.6677  -27.3206   20.6757 H   0  0  0  0  0  0
  -17.4204  -26.6690   21.4023 H   0  0  0  0  0  0
  -18.0302  -26.0066   22.9015 H   0  0  0  0  0  0
  -19.7926  -30.7258   24.2297 H   0  0  0  0  0  0
  -17.5009  -31.6272   24.5166 H   0  0  0  0  0  0
  -15.5343  -30.2991   23.7645 H   0  0  0  0  0  0
  -15.8669  -28.0821   22.7062 H   0  0  0  0  0  0
  -24.5879  -30.7082   25.7782 H   0  0  0  0  0  0
  -24.8908  -32.2867   26.4925 H   0  0  0  0  0  0
  -25.8057  -30.8857   27.0215 H   0  0  0  0  0  0
  -26.2866  -29.6793   24.1178 H   0  0  0  0  0  0
  -27.4074  -29.7298   25.4592 H   0  0  0  0  0  0
  -27.8696  -30.4370   23.9290 H   0  0  0  0  0  0
  -27.2669  -33.3639   26.2060 H   0  0  0  0  0  0
  -28.3830  -32.6897   25.0290 H   0  0  0  0  0  0
  -28.0718  -31.8458   26.5386 H   0  0  0  0  0  0
  -28.2606  -38.0097   24.7528 H   0  0  0  0  0  0
  -28.1077  -36.2640   24.6281 H   0  0  0  0  0  0
  -27.2301  -37.1455   25.8864 H   0  0  0  0  0  0
  -20.9338  -29.8754   21.6930 H   0  0  0  0  0  0
  -26.0183  -38.2871   24.1407 H   0  0  0  0  0  0
  -26.2934  -22.1234   19.8869 H   0  0  0  0  0  0
  -25.8707  -20.6621   19.0136 H   0  0  0  0  0  0
  -26.8320  -21.9134   18.2167 H   0  0  0  0  0  0
  -26.6663  -18.6854   18.2616 H   0  0  0  0  0  0
  -27.5244  -17.4746   19.2000 H   0  0  0  0  0  0
  -28.2381  -18.1298   17.7241 H   0  0  0  0  0  0
  -31.0876  -21.2417   22.2765 H   0  0  0  0  0  0
  -32.0020  -20.8310   20.8279 H   0  0  0  0  0  0
  -31.4480  -19.5675   21.9246 H   0  0  0  0  0  0
  -29.7274  -22.9792   21.6864 H   0  0  0  0  0  0
  -28.0070  -22.8083   21.7302 H   0  0  0  0  0  0
  -27.9505  -23.8521   19.3389 H   0  0  0  0  0  0
  -29.6449  -24.1961   19.5502 H   0  0  0  0  0  0
  -30.0196  -17.3959   19.0926 H   0  0  0  0  0  0
  -31.3525  -18.1789   19.8439 H   0  0  0  0  0  0
  -29.3682  -17.3747   21.8782 H   0  0  0  0  0  0
  -31.0744  -17.0629   21.8396 H   0  0  0  0  0  0
  -28.9976  -25.4975   21.6889 H   0  0  0  0  0  0
  -27.3332  -25.2339   21.2946 H   0  0  0  0  0  0
  -28.9275  -15.2759   21.2318 H   0  0  0  0  0  0
  1 25  1  0  0  0
  1 30  2  0  0  0
  1 84  1  0  0  0
  2  3  1  0  0  0
  2 25  1  0  0  0
  2 85  1  0  0  0
  2 86  1  0  0  0
  3  4  1  0  0  0
  3 87  1  0  0  0
  3 88  1  0  0  0
  4  5  1  0  0  0
  4 89  1  0  0  0
  4 90  1  0  0  0
  5  6  1  0  0  0
  5 26  1  0  0  0
  5 91  1  0  0  0
  6 25  1  0  0  0
  6 92  1  0  0  0
  6 93  1  0  0  0
  7  8  2  0  0  0
  7 26  1  0  0  0
  7 29  1  0  0  0
  8  9  1  0  0  0
  8 22  1  0  0  0
  9 10  1  0  0  0
  9 27  2  0  0  0
 10 11  2  0  0  0
 10 15  1  0  0  0
 11 12  1  0  0  0
 11 94  1  0  0  0
 12 13  2  0  0  0
 12 95  1  0  0  0
 13 14  1  0  0  0
 13 31  1  0  0  0
 14 15  2  0  0  0
 14 96  1  0  0  0
 15 97  1  0  0  0
 16 17  2  0  0  0
 16 21  1  0  0  0
 16 31  1  0  0  0
 17 18  1  0  0  0
 17 98  1  0  0  0
 18 19  2  0  0  0
 18 99  1  0  0  0
 19 20  1  0  0  0
 19 24  1  0  0  0
 20 21  2  0  0  0
 20100  1  0  0  0
 21 23  1  0  0  0
 22 28  1  0  0  0
 22 32  2  0  0  0
 26 27  1  0  0  0
 28101  1  0  0  0
 28102  1  0  0  0
 29103  1  0  0  0
 29104  1  0  0  0
 33 34  1  0  0  0
 33 66  1  0  0  0
 33 70  2  0  0  0
 34 36  1  0  0  0
 34 59  1  0  0  0
 34105  1  0  0  0
 35 44  2  0  0  0
 35 45  1  0  0  0
 35 68  1  0  0  0
 36 56  1  0  0  0
 36106  1  0  0  0
 37 39  1  0  0  0
 37 47  1  0  0  0
 37 66  1  0  0  0
 37107  1  0  0  0
 38 43  2  0  0  0
 38 46  1  0  0  0
 38 47  1  0  0  0
 39 64  1  0  0  0
 39 67  2  0  0  0
 40 52  1  0  0  0
 40 53  2  0  0  0
 40 58  1  0  0  0
 41108  1  0  0  0
 41109  1  0  0  0
 41110  1  0  0  0
 41 48  1  0  0  0
 42 43  1  0  0  0
 42 66  1  0  0  0
 42111  1  0  0  0
 42112  1  0  0  0
 43 44  1  0  0  0
 44113  1  0  0  0
 45 46  2  0  0  0
 45114  1  0  0  0
 46115  1  0  0  0
 47116  1  0  0  0
 47117  1  0  0  0
 48 56  1  0  0  0
 48 65  1  0  0  0
 48118  1  0  0  0
 49 50  1  0  0  0
 49 53  1  0  0  0
 49 64  1  0  0  0
 49119  1  0  0  0
 50 51  1  0  0  0
 50120  1  0  0  0
 50121  1  0  0  0
 51 52  1  0  0  0
 51122  1  0  0  0
 51123  1  0  0  0
 52124  1  0  0  0
 52125  1  0  0  0
 53 54  1  0  0  0
 54 55  2  0  0  0
 54126  1  0  0  0
 55 57  1  0  0  0
 55127  1  0  0  0
 56 69  2  0  0  0
 57 58  2  0  0  0
 57128  1  0  0  0
 58129  1  0  0  0
 59 60  1  0  0  0
 59 61  1  0  0  0
 59 62  1  0  0  0
 60130  1  0  0  0
 60131  1  0  0  0
 60132  1  0  0  0
 61133  1  0  0  0
 61134  1  0  0  0
 61135  1  0  0  0
 62136  1  0  0  0
 62137  1  0  0  0
 62138  1  0  0  0
 63 65  1  0  0  0
 63139  1  0  0  0
 63140  1  0  0  0
 63141  1  0  0  0
 64142  1  0  0  0
 65143  1  0  0  0
 68 82  1  0  0  0
 71 72  1  0  0  0
 71 73  2  0  0  0
 71 75  1  0  0  0
 72 74  2  0  0  0
 72 78  1  0  0  0
 73 76  1  0  0  0
 73 83  1  0  0  0
 74 77  1  0  0  0
 74 83  1  0  0  0
 75144  1  0  0  0
 75145  1  0  0  0
 75146  1  0  0  0
 76147  1  0  0  0
 76148  1  0  0  0
 76149  1  0  0  0
 77150  1  0  0  0
 77151  1  0  0  0
 77152  1  0  0  0
 78 79  1  0  0  0
 78153  1  0  0  0
 78154  1  0  0  0
 79 82  1  0  0  0
 79155  1  0  0  0
 79156  1  0  0  0
 80 81  1  0  0  0
 80 83  1  0  0  0
 80157  1  0  0  0
 80158  1  0  0  0
 81 84  1  0  0  0
 81159  1  0  0  0
 81160  1  0  0  0
 82161  1  0  0  0
 82162  1  0  0  0
 84163  1  0  0  0
M  ISO  4   1 100  68 101  82 101  84 100
M  END
> <chiral flag>
0

> <version>
0

> <s_m_source_file>
/data/baiqing/PycharmProjects/Reinvent-master-3.2/result/LINK_invent/BTK/process_docking_weight1_custom_sum_contain_oxygen_bond_distance_aromatic_linkinvent_7_9_3/rearranged_h_0083.sdf

> <i_m_source_file_index>
6

> <r_mmod_Potential_Energy-OPLS-2005>
-107.108848571777

> <r_mmod_Stretch_Energy-OPLS-2005>
50.422534942627

> <r_mmod_Bend_Energy-OPLS-2005>
116.83521270752

> <r_mmod_Torsional_Energy-OPLS-2005>
239.471527099609

> <r_mmod_Improper_Torsional_Energy-OPLS-2005>
3.97689962387085

> <r_mmod_Van_der_Waal_Energy-OPLS-2005>
115.718116760254

> <r_mmod_Electrostatic_Energy-OPLS-2005>
-444.462585449219

> <r_mmod_Solvation_Energy-OPLS-2005>
-212.330749511719

> <b_mmod_Minimization_Converged-OPLS-2005>
0

> <r_mmod_RMS_Derivative-OPLS-2005>
1.19098389148712

$$$$
6
                    3D
 Structure written by MMmdl.
164172  0  0  1  0            999 V2000
  -30.7692  -14.3791   20.6739 C   0  0  0  0  0  0
  -30.4136  -12.2968   19.3959 C   0  0  0  0  0  0
  -29.4809  -12.5236   18.1922 C   0  0  0  0  0  0
  -28.0066  -12.3758   18.6105 C   0  0  0  0  0  0
  -27.6633  -13.2036   19.8762 C   0  0  2  0  0  0
  -28.7030  -12.9595   20.9928 C   0  0  0  0  0  0
  -25.2601  -13.8165   20.5681 C   0  0  0  0  0  0
  -24.1845  -13.0440   20.9164 C   0  0  0  0  0  0
  -24.6392  -11.6906   20.8724 C   0  0  0  0  0  0
  -23.9056  -10.4293   21.0398 C   0  0  0  0  0  0
  -24.3610   -9.4212   21.9178 C   0  0  0  0  0  0
  -23.6290   -8.2246   22.0752 C   0  0  0  0  0  0
  -22.4273   -8.0280   21.3542 C   0  0  0  0  0  0
  -21.9905   -9.0251   20.4643 C   0  0  0  0  0  0
  -22.7228  -10.2133   20.3052 C   0  0  0  0  0  0
  -21.6853   -6.0735   22.5276 C   0  0  0  0  0  0
  -21.4014   -6.5639   23.8209 C   0  0  0  0  0  0
  -21.3658   -5.6793   24.9171 C   0  0  0  0  0  0
  -21.6045   -4.3056   24.7223 C   0  0  0  0  0  0
  -21.8820   -3.8147   23.4344 C   0  0  0  0  0  0
  -21.9193   -4.6963   22.3401 C   0  0  0  0  0  0
  -22.7869  -13.5243   21.1830 C   0  0  0  0  0  0
  -22.1661   -4.2149   21.0977 F   0  0  0  0  0  0
  -21.5630   -3.4540   25.7738 F   0  0  0  0  0  0
  -30.0430  -13.2506   20.4525 N   0  0  0  0  0  0
  -26.3034  -12.9329   20.3371 N   0  0  0  0  0  0
  -25.9318  -11.6488   20.5756 N   0  0  0  0  0  0
  -22.0512  -12.8235   22.0388 N   0  0  0  0  0  0
  -25.4307  -15.1886   20.4115 N   0  0  0  0  0  0
  -31.8142  -14.6363   20.0660 O   0  0  0  0  0  0
  -21.6637   -6.8879   21.4239 O   0  0  0  0  0  0
  -22.3553  -14.5551   20.6684 O   0  0  0  0  0  0
  -24.6141  -31.8701   23.2132 C   0  0  0  0  0  0
  -25.9043  -32.4829   23.8414 C   0  0  1  0  0  0
  -27.2291  -27.4449   20.0822 C   0  0  0  0  0  0
  -25.5909  -33.8629   24.2343 N   0  0  0  0  0  0
  -23.3995  -30.4964   21.5545 C   0  0  2  0  0  0
  -24.8416  -28.9672   20.1158 C   0  0  0  0  0  0
  -22.7399  -29.4678   22.5012 C   0  0  0  0  0  0
  -18.0269  -28.1371   22.8496 C   0  0  0  0  0  0
  -24.1487  -36.7314   23.2639 C   0  0  0  0  0  0
  -25.9292  -30.8371   21.3661 C   0  0  0  0  0  0
  -26.0039  -29.4747   20.7086 C   0  0  0  0  0  0
  -27.1995  -28.7208   20.6896 C   0  0  0  0  0  0
  -26.0418  -26.9537   19.4847 C   0  0  0  0  0  0
  -24.8545  -27.7045   19.5036 C   0  0  0  0  0  0
  -23.6045  -29.8326   20.1678 C   0  0  0  0  0  0
  -25.4110  -36.3119   24.0341 C   0  0  1  0  0  0
  -20.5858  -28.3658   23.1323 C   0  0  2  0  0  0
  -20.6763  -26.9400   22.5414 C   0  0  0  0  0  0
  -19.5743  -26.6384   21.5209 C   0  0  0  0  0  0
  -18.1916  -26.7923   22.1615 C   0  0  0  0  0  0
  -19.1519  -28.8831   23.2907 C   0  0  0  0  0  0
  -18.9449  -30.1440   23.8914 C   0  0  0  0  0  0
  -17.6453  -30.6584   24.0565 C   0  0  0  0  0  0
  -25.9037  -34.9481   23.5135 C   0  0  0  0  0  0
  -16.5345  -29.9085   23.6327 C   0  0  0  0  0  0
  -16.7261  -28.6498   23.0356 C   0  0  0  0  0  0
  -26.4477  -31.6608   25.0737 C   0  0  0  0  0  0
  -25.3749  -31.3694   26.1487 C   0  0  0  0  0  0
  -27.0317  -30.3058   24.6103 C   0  0  0  0  0  0
  -27.6056  -32.4330   25.7491 C   0  0  0  0  0  0
  -27.5584  -37.1812   24.8468 C   0  0  0  0  0  0
  -21.4132  -29.3033   22.3738 N   0  0  0  0  0  0
  -26.4296  -37.3802   23.9412 N   0  0  0  0  0  0
  -24.6658  -31.0814   22.1028 N   0  0  0  0  0  0
  -23.4178  -28.8217   23.3045 O   0  0  0  0  0  0
  -28.4078  -26.7234   20.0936 O   0  0  0  0  0  0
  -26.5587  -34.8928   22.4690 O   0  0  0  0  0  0
  -23.5339  -32.1449   23.7542 O   0  0  0  0  0  0
  -27.2175  -20.5468   19.7828 C   0  0  0  0  0  0
  -29.3152  -19.7906   20.7103 C   0  0  0  0  0  0
  -28.4124  -20.8436   20.4646 C   0  0  0  0  0  0
  -26.9732  -19.2228   19.3762 C   0  0  0  0  0  0
  -28.9905  -18.4942   20.2619 C   0  0  0  0  0  0
  -25.7014  -18.8582   18.6402 C   0  0  0  0  0  0
  -31.2889  -15.4091   22.8023 C   0  0  0  0  0  0
  -28.7097  -22.2658   20.9130 C   0  0  0  0  0  0
  -29.9458  -17.3277   20.4615 C   0  0  0  0  0  0
  -29.5211  -23.0612   19.8696 C   0  0  0  0  0  0
  -29.6099  -24.5788   20.1516 C   0  0  0  0  0  0
  -29.4201  -16.2718   21.4641 C   0  0  0  0  0  0
  -28.3138  -25.3266   19.8013 C   0  0  0  0  0  0
  -27.8436  -18.2163   19.6036 N   0  0  0  0  0  0
  -30.3615  -15.1607   21.6968 N   0  0  0  0  0  0
  -31.4565  -12.3947   19.0881 H   0  0  0  0  0  0
  -30.3127  -11.2766   19.7696 H   0  0  0  0  0  0
  -29.7147  -11.8169   17.3948 H   0  0  0  0  0  0
  -29.6475  -13.5194   17.7783 H   0  0  0  0  0  0
  -27.8159  -11.3178   18.7946 H   0  0  0  0  0  0
  -27.3518  -12.6626   17.7866 H   0  0  0  0  0  0
  -27.7142  -14.2535   19.5888 H   0  0  0  0  0  0
  -28.6684  -11.9197   21.3214 H   0  0  0  0  0  0
  -28.4554  -13.5479   21.8766 H   0  0  0  0  0  0
  -25.2757   -9.5690   22.4748 H   0  0  0  0  0  0
  -24.0000   -7.4642   22.7473 H   0  0  0  0  0  0
  -21.0838   -8.8765   19.8950 H   0  0  0  0  0  0
  -22.3685  -10.9669   19.6159 H   0  0  0  0  0  0
  -21.2004   -7.6148   23.9712 H   0  0  0  0  0  0
  -21.1480   -6.0524   25.9074 H   0  0  0  0  0  0
  -22.0600   -2.7610   23.2845 H   0  0  0  0  0  0
  -22.4129  -11.9892   22.4769 H   0  0  0  0  0  0
  -21.1135  -13.1267   22.2602 H   0  0  0  0  0  0
  -24.6641  -15.8396   20.5372 H   0  0  0  0  0  0
  -26.2884  -15.6414   20.1185 H   0  0  0  0  0  0
  -26.7116  -32.5533   23.1179 H   0  0  0  0  0  0
  -25.0092  -33.9800   25.0510 H   0  0  0  0  0  0
  -22.6881  -31.3136   21.4193 H   0  0  0  0  0  0
  -23.3749  -35.9645   23.3314 H   0  0  0  0  0  0
  -24.3581  -36.8917   22.2051 H   0  0  0  0  0  0
  -23.7236  -37.6520   23.6647 H   0  0  0  0  0  0
  -26.0448  -31.6068   20.6022 H   0  0  0  0  0  0
  -26.8162  -30.8844   21.9858 H   0  0  0  0  0  0
  -28.0975  -29.1103   21.1488 H   0  0  0  0  0  0
  -26.0039  -25.9938   18.9922 H   0  0  0  0  0  0
  -23.9600  -27.3072   19.0438 H   0  0  0  0  0  0
  -23.7114  -30.6088   19.4096 H   0  0  0  0  0  0
  -22.7275  -29.2536   19.8730 H   0  0  0  0  0  0
  -25.1284  -36.1987   25.0834 H   0  0  0  0  0  0
  -20.9946  -28.3220   24.1445 H   0  0  0  0  0  0
  -20.5671  -26.2266   23.3595 H   0  0  0  0  0  0
  -21.6635  -26.7449   22.1207 H   0  0  0  0  0  0
  -19.6909  -25.6298   21.1230 H   0  0  0  0  0  0
  -19.6688  -27.3204   20.6746 H   0  0  0  0  0  0
  -17.4191  -26.6683   21.4009 H   0  0  0  0  0  0
  -18.0313  -26.0053   22.8999 H   0  0  0  0  0  0
  -19.7927  -30.7252   24.2290 H   0  0  0  0  0  0
  -17.5010  -31.6269   24.5160 H   0  0  0  0  0  0
  -15.5348  -30.2992   23.7654 H   0  0  0  0  0  0
  -15.8657  -28.0826   22.7071 H   0  0  0  0  0  0
  -24.5934  -30.7028   25.7825 H   0  0  0  0  0  0
  -24.8921  -32.2836   26.4949 H   0  0  0  0  0  0
  -25.8115  -30.8860   27.0237 H   0  0  0  0  0  0
  -26.2861  -29.6803   24.1181 H   0  0  0  0  0  0
  -27.4128  -29.7309   25.4555 H   0  0  0  0  0  0
  -27.8678  -30.4393   23.9233 H   0  0  0  0  0  0
  -27.2683  -33.3624   26.2094 H   0  0  0  0  0  0
  -28.3846  -32.6904   25.0303 H   0  0  0  0  0  0
  -28.0747  -31.8438   26.5382 H   0  0  0  0  0  0
  -28.2607  -38.0106   24.7524 H   0  0  0  0  0  0
  -28.1079  -36.2639   24.6291 H   0  0  0  0  0  0
  -27.2301  -37.1459   25.8871 H   0  0  0  0  0  0
  -20.9290  -29.8758   21.6964 H   0  0  0  0  0  0
  -26.0188  -38.2880   24.1417 H   0  0  0  0  0  0
  -26.4959  -21.3256   19.5738 H   0  0  0  0  0  0
  -30.2478  -19.9772   21.2262 H   0  0  0  0  0  0
  -24.9065  -19.5720   18.8574 H   0  0  0  0  0  0
  -25.3498  -17.8684   18.9320 H   0  0  0  0  0  0
  -25.8724  -18.8571   17.5638 H   0  0  0  0  0  0
  -30.7516  -15.6733   23.7136 H   0  0  0  0  0  0
  -31.9740  -16.2225   22.5594 H   0  0  0  0  0  0
  -31.8876  -14.5240   23.0268 H   0  0  0  0  0  0
  -29.2456  -22.2403   21.8627 H   0  0  0  0  0  0
  -27.7600  -22.7586   21.1196 H   0  0  0  0  0  0
  -30.9085  -17.7127   20.8000 H   0  0  0  0  0  0
  -30.1285  -16.8781   19.4848 H   0  0  0  0  0  0
  -29.0879  -22.9101   18.8801 H   0  0  0  0  0  0
  -30.5259  -22.6408   19.8199 H   0  0  0  0  0  0
  -30.4218  -25.0023   19.5593 H   0  0  0  0  0  0
  -29.8743  -24.7489   21.1960 H   0  0  0  0  0  0
  -28.4729  -15.8723   21.1039 H   0  0  0  0  0  0
  -29.1846  -16.7629   22.4091 H   0  0  0  0  0  0
  -27.4919  -24.8876   20.3683 H   0  0  0  0  0  0
  -28.0984  -25.1912   18.7401 H   0  0  0  0  0  0
  1 25  1  0  0  0
  1 30  2  0  0  0
  1 85  1  0  0  0
  2  3  1  0  0  0
  2 25  1  0  0  0
  2 86  1  0  0  0
  2 87  1  0  0  0
  3  4  1  0  0  0
  3 88  1  0  0  0
  3 89  1  0  0  0
  4  5  1  0  0  0
  4 90  1  0  0  0
  4 91  1  0  0  0
  5  6  1  0  0  0
  5 26  1  0  0  0
  5 92  1  0  0  0
  6 25  1  0  0  0
  6 93  1  0  0  0
  6 94  1  0  0  0
  7  8  2  0  0  0
  7 26  1  0  0  0
  7 29  1  0  0  0
  8  9  1  0  0  0
  8 22  1  0  0  0
  9 10  1  0  0  0
  9 27  2  0  0  0
 10 11  2  0  0  0
 10 15  1  0  0  0
 11 12  1  0  0  0
 11 95  1  0  0  0
 12 13  2  0  0  0
 12 96  1  0  0  0
 13 14  1  0  0  0
 13 31  1  0  0  0
 14 15  2  0  0  0
 14 97  1  0  0  0
 15 98  1  0  0  0
 16 17  2  0  0  0
 16 21  1  0  0  0
 16 31  1  0  0  0
 17 18  1  0  0  0
 17 99  1  0  0  0
 18 19  2  0  0  0
 18100  1  0  0  0
 19 20  1  0  0  0
 19 24  1  0  0  0
 20 21  2  0  0  0
 20101  1  0  0  0
 21 23  1  0  0  0
 22 28  1  0  0  0
 22 32  2  0  0  0
 26 27  1  0  0  0
 28102  1  0  0  0
 28103  1  0  0  0
 29104  1  0  0  0
 29105  1  0  0  0
 33 34  1  0  0  0
 33 66  1  0  0  0
 33 70  2  0  0  0
 34 36  1  0  0  0
 34 59  1  0  0  0
 34106  1  0  0  0
 35 44  2  0  0  0
 35 45  1  0  0  0
 35 68  1  0  0  0
 36 56  1  0  0  0
 36107  1  0  0  0
 37 39  1  0  0  0
 37 47  1  0  0  0
 37 66  1  0  0  0
 37108  1  0  0  0
 38 43  2  0  0  0
 38 46  1  0  0  0
 38 47  1  0  0  0
 39 64  1  0  0  0
 39 67  2  0  0  0
 40 52  1  0  0  0
 40 53  2  0  0  0
 40 58  1  0  0  0
 41109  1  0  0  0
 41110  1  0  0  0
 41111  1  0  0  0
 41 48  1  0  0  0
 42 43  1  0  0  0
 42 66  1  0  0  0
 42112  1  0  0  0
 42113  1  0  0  0
 43 44  1  0  0  0
 44114  1  0  0  0
 45 46  2  0  0  0
 45115  1  0  0  0
 46116  1  0  0  0
 47117  1  0  0  0
 47118  1  0  0  0
 48 56  1  0  0  0
 48 65  1  0  0  0
 48119  1  0  0  0
 49 50  1  0  0  0
 49 53  1  0  0  0
 49 64  1  0  0  0
 49120  1  0  0  0
 50 51  1  0  0  0
 50121  1  0  0  0
 50122  1  0  0  0
 51 52  1  0  0  0
 51123  1  0  0  0
 51124  1  0  0  0
 52125  1  0  0  0
 52126  1  0  0  0
 53 54  1  0  0  0
 54 55  2  0  0  0
 54127  1  0  0  0
 55 57  1  0  0  0
 55128  1  0  0  0
 56 69  2  0  0  0
 57 58  2  0  0  0
 57129  1  0  0  0
 58130  1  0  0  0
 59 60  1  0  0  0
 59 61  1  0  0  0
 59 62  1  0  0  0
 60131  1  0  0  0
 60132  1  0  0  0
 60133  1  0  0  0
 61134  1  0  0  0
 61135  1  0  0  0
 61136  1  0  0  0
 62137  1  0  0  0
 62138  1  0  0  0
 62139  1  0  0  0
 63 65  1  0  0  0
 63140  1  0  0  0
 63141  1  0  0  0
 63142  1  0  0  0
 64143  1  0  0  0
 65144  1  0  0  0
 68 83  1  0  0  0
 71 73  2  0  0  0
 71 74  1  0  0  0
 71145  1  0  0  0
 72 73  1  0  0  0
 72 75  2  0  0  0
 72146  1  0  0  0
 73 78  1  0  0  0
 74 76  1  0  0  0
 74 84  2  0  0  0
 75 79  1  0  0  0
 75 84  1  0  0  0
 76147  1  0  0  0
 76148  1  0  0  0
 76149  1  0  0  0
 77 85  1  0  0  0
 77150  1  0  0  0
 77151  1  0  0  0
 77152  1  0  0  0
 78 80  1  0  0  0
 78153  1  0  0  0
 78154  1  0  0  0
 79 82  1  0  0  0
 79155  1  0  0  0
 79156  1  0  0  0
 80 81  1  0  0  0
 80157  1  0  0  0
 80158  1  0  0  0
 81 83  1  0  0  0
 81159  1  0  0  0
 81160  1  0  0  0
 82 85  1  0  0  0
 82161  1  0  0  0
 82162  1  0  0  0
 83163  1  0  0  0
 83164  1  0  0  0
M  ISO  4   1 100  68 101  83 101  85 100
M  END
> <chiral flag>
0

> <version>
0

> <s_m_source_file>
/data/baiqing/PycharmProjects/Reinvent-master-3.2/result/LINK_invent/BTK/process_docking_weight1_custom_sum_contain_oxygen_bond_distance_aromatic_linkinvent_7_9_3/rearranged_h_0083.sdf

> <i_m_source_file_index>
7

> <r_mmod_Potential_Energy-OPLS-2005>
-94.5825119018555

> <r_mmod_Stretch_Energy-OPLS-2005>
34.0985412597656

> <r_mmod_Bend_Energy-OPLS-2005>
89.6352767944336

> <r_mmod_Torsional_Energy-OPLS-2005>
263.954223632812

> <r_mmod_Improper_Torsional_Energy-OPLS-2005>
4.92589330673218

> <r_mmod_Van_der_Waal_Energy-OPLS-2005>
152.706954956055

> <r_mmod_Electrostatic_Energy-OPLS-2005>
-455.819488525391

> <r_mmod_Solvation_Energy-OPLS-2005>
-192.537414550781

> <b_mmod_Minimization_Converged-OPLS-2005>
0

> <r_mmod_RMS_Derivative-OPLS-2005>
0.672001123428345

$$$$
7
                    3D
 Structure written by MMmdl.
158166  0  0  1  0            999 V2000
  -30.6185  -14.6997   20.4311 C   0  0  0  0  0  0
  -30.4171  -12.4132   19.4692 C   0  0  0  0  0  0
  -29.5054  -12.5020   18.2264 C   0  0  0  0  0  0
  -28.0264  -12.3467   18.6303 C   0  0  0  0  0  0
  -27.6385  -13.2332   19.8460 C   0  0  2  0  0  0
  -28.6804  -13.1472   20.9814 C   0  0  0  0  0  0
  -25.2499  -13.8199   20.5699 C   0  0  0  0  0  0
  -24.1790  -13.0442   20.9195 C   0  0  0  0  0  0
  -24.6373  -11.6919   20.8713 C   0  0  0  0  0  0
  -23.9051  -10.4293   21.0391 C   0  0  0  0  0  0
  -24.3603   -9.4216   21.9168 C   0  0  0  0  0  0
  -23.6280   -8.2257   22.0758 C   0  0  0  0  0  0
  -22.4268   -8.0285   21.3548 C   0  0  0  0  0  0
  -21.9888   -9.0256   20.4653 C   0  0  0  0  0  0
  -22.7221  -10.2130   20.3050 C   0  0  0  0  0  0
  -21.6854   -6.0724   22.5271 C   0  0  0  0  0  0
  -21.4025   -6.5625   23.8205 C   0  0  0  0  0  0
  -21.3660   -5.6778   24.9165 C   0  0  0  0  0  0
  -21.6043   -4.3041   24.7213 C   0  0  0  0  0  0
  -21.8826   -3.8132   23.4336 C   0  0  0  0  0  0
  -21.9195   -4.6950   22.3392 C   0  0  0  0  0  0
  -22.7814  -13.5231   21.1842 C   0  0  0  0  0  0
  -22.1663   -4.2136   21.0965 F   0  0  0  0  0  0
  -21.5621   -3.4524   25.7724 F   0  0  0  0  0  0
  -29.9855  -13.4794   20.4022 N   0  0  0  0  0  0
  -26.2910  -12.9404   20.3235 N   0  0  0  0  0  0
  -25.9299  -11.6545   20.5691 N   0  0  0  0  0  0
  -22.0458  -12.8247   22.0410 N   0  0  0  0  0  0
  -25.4196  -15.1928   20.4173 N   0  0  0  0  0  0
  -31.8245  -14.7427   20.1683 O   0  0  0  0  0  0
  -21.6649   -6.8872   21.4241 O   0  0  0  0  0  0
  -22.3507  -14.5535   20.6678 O   0  0  0  0  0  0
  -24.6280  -31.8576   23.1976 C   0  0  0  0  0  0
  -25.9124  -32.4764   23.8299 C   0  0  1  0  0  0
  -27.2192  -27.2893   20.1297 C   0  0  0  0  0  0
  -25.5949  -33.8553   24.2251 N   0  0  0  0  0  0
  -23.4218  -30.4778   21.5420 C   0  0  2  0  0  0
  -24.8669  -28.9174   20.1182 C   0  0  0  0  0  0
  -22.7474  -29.4604   22.4932 C   0  0  0  0  0  0
  -18.0285  -28.1384   22.8485 C   0  0  0  0  0  0
  -24.1481  -36.7281   23.2626 C   0  0  0  0  0  0
  -25.9619  -30.7811   21.3664 C   0  0  0  0  0  0
  -26.0375  -29.4008   20.7175 C   0  0  0  0  0  0
  -27.2198  -28.6005   20.7041 C   0  0  0  0  0  0
  -26.0292  -26.8528   19.5188 C   0  0  0  0  0  0
  -24.8670  -27.6514   19.5092 C   0  0  0  0  0  0
  -23.6378  -29.8042   20.1607 C   0  0  0  0  0  0
  -25.4109  -36.3072   24.0318 C   0  0  1  0  0  0
  -20.5889  -28.3684   23.1288 C   0  0  2  0  0  0
  -20.6775  -26.9401   22.5412 C   0  0  0  0  0  0
  -19.5753  -26.6380   21.5206 C   0  0  0  0  0  0
  -18.1935  -26.7930   22.1618 C   0  0  0  0  0  0
  -19.1544  -28.8850   23.2886 C   0  0  0  0  0  0
  -18.9466  -30.1459   23.8882 C   0  0  0  0  0  0
  -17.6470  -30.6589   24.0558 C   0  0  0  0  0  0
  -25.9064  -34.9448   23.5092 C   0  0  0  0  0  0
  -16.5358  -29.9084   23.6330 C   0  0  0  0  0  0
  -16.7275  -28.6507   23.0338 C   0  0  0  0  0  0
  -26.4513  -31.6572   25.0674 C   0  0  0  0  0  0
  -25.3744  -31.3740   26.1414 C   0  0  0  0  0  0
  -27.0330  -30.2983   24.6114 C   0  0  0  0  0  0
  -27.6057  -32.4299   25.7477 C   0  0  0  0  0  0
  -27.5582  -37.1798   24.8458 C   0  0  0  0  0  0
  -21.4186  -29.3041   22.3686 N   0  0  0  0  0  0
  -26.4275  -37.3778   23.9420 N   0  0  0  0  0  0
  -24.6898  -31.0559   22.0928 N   0  0  0  0  0  0
  -23.4194  -28.8143   23.3023 O   0  0  0  0  0  0
  -28.3413  -26.4473   20.0964 O   0  0  0  0  0  0
  -26.5613  -34.8930   22.4649 O   0  0  0  0  0  0
  -23.5438  -32.1378   23.7309 O   0  0  0  0  0  0
  -29.2323  -18.3533   20.3756 C   0  0  0  0  0  0
  -29.4954  -19.6945   19.8794 C   0  0  0  0  0  0
  -30.6885  -19.8354   19.1233 C   0  0  0  0  0  0
  -31.5309  -18.7136   18.9526 C   0  0  0  0  0  0
  -30.1281  -17.2354   20.1411 C   0  0  0  0  0  0
  -31.0652  -21.1540   18.4479 C   0  0  0  0  0  0
  -32.8194  -18.7850   18.1513 C   0  0  0  0  0  0
  -28.4718  -20.9116   19.9678 C   0  0  0  0  0  0
  -28.8676  -22.3661   20.5546 C   0  0  0  0  0  0
  -28.2431  -23.7129   19.9027 C   0  0  0  0  0  0
  -28.2951  -25.0972   20.7283 C   0  0  0  0  0  0
  -31.2521  -17.4919   19.4404 N   0  0  0  0  0  0
  -29.8448  -15.8476   20.5722 N   0  0  0  0  0  0
  -31.4636  -12.5101   19.1740 H   0  0  0  0  0  0
  -30.3304  -11.4334   19.9419 H   0  0  0  0  0  0
  -29.7748  -11.7348   17.4990 H   0  0  0  0  0  0
  -29.6538  -13.4610   17.7266 H   0  0  0  0  0  0
  -27.8615  -11.2952   18.8680 H   0  0  0  0  0  0
  -27.3821  -12.5721   17.7793 H   0  0  0  0  0  0
  -27.6356  -14.2593   19.4788 H   0  0  0  0  0  0
  -28.6982  -12.1455   21.4119 H   0  0  0  0  0  0
  -28.4279  -13.8280   21.7955 H   0  0  0  0  0  0
  -25.2753   -9.5686   22.4739 H   0  0  0  0  0  0
  -23.9983   -7.4647   22.7478 H   0  0  0  0  0  0
  -21.0814   -8.8766   19.8965 H   0  0  0  0  0  0
  -22.3668  -10.9661   19.6155 H   0  0  0  0  0  0
  -21.2034   -7.6136   23.9708 H   0  0  0  0  0  0
  -21.1475   -6.0503   25.9061 H   0  0  0  0  0  0
  -22.0605   -2.7597   23.2842 H   0  0  0  0  0  0
  -22.4056  -11.9895   22.4787 H   0  0  0  0  0  0
  -21.1091  -13.1318   22.2627 H   0  0  0  0  0  0
  -24.6531  -15.8463   20.5394 H   0  0  0  0  0  0
  -26.2612  -15.6342   20.0706 H   0  0  0  0  0  0
  -26.7179  -32.5436   23.1023 H   0  0  0  0  0  0
  -25.0141  -33.9668   25.0438 H   0  0  0  0  0  0
  -22.7147  -31.2975   21.3942 H   0  0  0  0  0  0
  -23.3752  -35.9604   23.3264 H   0  0  0  0  0  0
  -24.3564  -36.8930   22.2047 H   0  0  0  0  0  0
  -23.7230  -37.6469   23.6667 H   0  0  0  0  0  0
  -26.0834  -31.5383   20.5898 H   0  0  0  0  0  0
  -26.8441  -30.8403   21.9912 H   0  0  0  0  0  0
  -28.1254  -28.9718   21.1615 H   0  0  0  0  0  0
  -25.9982  -25.8802   19.0479 H   0  0  0  0  0  0
  -23.9696  -27.2773   19.0367 H   0  0  0  0  0  0
  -23.7622  -30.5775   19.4019 H   0  0  0  0  0  0
  -22.7546  -29.2392   19.8578 H   0  0  0  0  0  0
  -25.1284  -36.1894   25.0801 H   0  0  0  0  0  0
  -20.9982  -28.3265   24.1411 H   0  0  0  0  0  0
  -20.5680  -26.2277   23.3606 H   0  0  0  0  0  0
  -21.6645  -26.7434   22.1201 H   0  0  0  0  0  0
  -19.6925  -25.6293   21.1231 H   0  0  0  0  0  0
  -19.6704  -27.3188   20.6736 H   0  0  0  0  0  0
  -17.4202  -26.6668   21.4023 H   0  0  0  0  0  0
  -18.0339  -26.0062   22.9003 H   0  0  0  0  0  0
  -19.7941  -30.7290   24.2225 H   0  0  0  0  0  0
  -17.5015  -31.6263   24.5172 H   0  0  0  0  0  0
  -15.5360  -30.2978   23.7669 H   0  0  0  0  0  0
  -15.8666  -28.0833   22.7039 H   0  0  0  0  0  0
  -24.5920  -30.7068   25.7785 H   0  0  0  0  0  0
  -24.8936  -32.2915   26.4810 H   0  0  0  0  0  0
  -25.8082  -30.8969   27.0209 H   0  0  0  0  0  0
  -26.2892  -29.6748   24.1132 H   0  0  0  0  0  0
  -27.4023  -29.7221   25.4609 H   0  0  0  0  0  0
  -27.8763  -30.4251   23.9314 H   0  0  0  0  0  0
  -27.2652  -33.3599   26.2035 H   0  0  0  0  0  0
  -28.3905  -32.6852   25.0345 H   0  0  0  0  0  0
  -28.0659  -31.8417   26.5424 H   0  0  0  0  0  0
  -28.2583  -38.0119   24.7541 H   0  0  0  0  0  0
  -28.1101  -36.2653   24.6227 H   0  0  0  0  0  0
  -27.2299  -37.1376   25.8859 H   0  0  0  0  0  0
  -20.9349  -29.8763   21.6903 H   0  0  0  0  0  0
  -26.0151  -38.2839   24.1454 H   0  0  0  0  0  0
  -28.3093  -18.1751   20.9115 H   0  0  0  0  0  0
  -30.2034  -21.7769   18.2185 H   0  0  0  0  0  0
  -31.5647  -20.9900   17.4934 H   0  0  0  0  0  0
  -31.7435  -21.7221   19.0844 H   0  0  0  0  0  0
  -33.4532  -19.5975   18.5063 H   0  0  0  0  0  0
  -32.6002  -18.9441   17.0947 H   0  0  0  0  0  0
  -33.3929  -17.8607   18.2282 H   0  0  0  0  0  0
  -27.5866  -20.5591   20.4957 H   0  0  0  0  0  0
  -28.1207  -21.0633   18.9467 H   0  0  0  0  0  0
  -29.9504  -22.4753   20.5288 H   0  0  0  0  0  0
  -28.6314  -22.3540   21.6195 H   0  0  0  0  0  0
  -27.1982  -23.5206   19.6587 H   0  0  0  0  0  0
  -28.7295  -23.8659   18.9393 H   0  0  0  0  0  0
  -29.2077  -25.0590   21.3230 H   0  0  0  0  0  0
  -27.4941  -25.0879   21.4683 H   0  0  0  0  0  0
  -28.9020  -15.6842   20.8846 H   0  0  0  0  0  0
  1 25  1  0  0  0
  1 30  2  0  0  0
  1 83  1  0  0  0
  2  3  1  0  0  0
  2 25  1  0  0  0
  2 84  1  0  0  0
  2 85  1  0  0  0
  3  4  1  0  0  0
  3 86  1  0  0  0
  3 87  1  0  0  0
  4  5  1  0  0  0
  4 88  1  0  0  0
  4 89  1  0  0  0
  5  6  1  0  0  0
  5 26  1  0  0  0
  5 90  1  0  0  0
  6 25  1  0  0  0
  6 91  1  0  0  0
  6 92  1  0  0  0
  7  8  2  0  0  0
  7 26  1  0  0  0
  7 29  1  0  0  0
  8  9  1  0  0  0
  8 22  1  0  0  0
  9 10  1  0  0  0
  9 27  2  0  0  0
 10 11  2  0  0  0
 10 15  1  0  0  0
 11 12  1  0  0  0
 11 93  1  0  0  0
 12 13  2  0  0  0
 12 94  1  0  0  0
 13 14  1  0  0  0
 13 31  1  0  0  0
 14 15  2  0  0  0
 14 95  1  0  0  0
 15 96  1  0  0  0
 16 17  2  0  0  0
 16 21  1  0  0  0
 16 31  1  0  0  0
 17 18  1  0  0  0
 17 97  1  0  0  0
 18 19  2  0  0  0
 18 98  1  0  0  0
 19 20  1  0  0  0
 19 24  1  0  0  0
 20 21  2  0  0  0
 20 99  1  0  0  0
 21 23  1  0  0  0
 22 28  1  0  0  0
 22 32  2  0  0  0
 26 27  1  0  0  0
 28100  1  0  0  0
 28101  1  0  0  0
 29102  1  0  0  0
 29103  1  0  0  0
 33 34  1  0  0  0
 33 66  1  0  0  0
 33 70  2  0  0  0
 34 36  1  0  0  0
 34 59  1  0  0  0
 34104  1  0  0  0
 35 44  2  0  0  0
 35 45  1  0  0  0
 35 68  1  0  0  0
 36 56  1  0  0  0
 36105  1  0  0  0
 37 39  1  0  0  0
 37 47  1  0  0  0
 37 66  1  0  0  0
 37106  1  0  0  0
 38 43  2  0  0  0
 38 46  1  0  0  0
 38 47  1  0  0  0
 39 64  1  0  0  0
 39 67  2  0  0  0
 40 52  1  0  0  0
 40 53  2  0  0  0
 40 58  1  0  0  0
 41107  1  0  0  0
 41108  1  0  0  0
 41109  1  0  0  0
 41 48  1  0  0  0
 42 43  1  0  0  0
 42 66  1  0  0  0
 42110  1  0  0  0
 42111  1  0  0  0
 43 44  1  0  0  0
 44112  1  0  0  0
 45 46  2  0  0  0
 45113  1  0  0  0
 46114  1  0  0  0
 47115  1  0  0  0
 47116  1  0  0  0
 48 56  1  0  0  0
 48 65  1  0  0  0
 48117  1  0  0  0
 49 50  1  0  0  0
 49 53  1  0  0  0
 49 64  1  0  0  0
 49118  1  0  0  0
 50 51  1  0  0  0
 50119  1  0  0  0
 50120  1  0  0  0
 51 52  1  0  0  0
 51121  1  0  0  0
 51122  1  0  0  0
 52123  1  0  0  0
 52124  1  0  0  0
 53 54  1  0  0  0
 54 55  2  0  0  0
 54125  1  0  0  0
 55 57  1  0  0  0
 55126  1  0  0  0
 56 69  2  0  0  0
 57 58  2  0  0  0
 57127  1  0  0  0
 58128  1  0  0  0
 59 60  1  0  0  0
 59 61  1  0  0  0
 59 62  1  0  0  0
 60129  1  0  0  0
 60130  1  0  0  0
 60131  1  0  0  0
 61132  1  0  0  0
 61133  1  0  0  0
 61134  1  0  0  0
 62135  1  0  0  0
 62136  1  0  0  0
 62137  1  0  0  0
 63 65  1  0  0  0
 63138  1  0  0  0
 63139  1  0  0  0
 63140  1  0  0  0
 64141  1  0  0  0
 65142  1  0  0  0
 68 81  1  0  0  0
 71 72  2  0  0  0
 71 75  1  0  0  0
 71143  1  0  0  0
 72 73  1  0  0  0
 72 78  1  0  0  0
 73 74  2  0  0  0
 73 76  1  0  0  0
 74 77  1  0  0  0
 74 82  1  0  0  0
 75 82  2  0  0  0
 75 83  1  0  0  0
 76144  1  0  0  0
 76145  1  0  0  0
 76146  1  0  0  0
 77147  1  0  0  0
 77148  1  0  0  0
 77149  1  0  0  0
 78 79  1  0  0  0
 78150  1  0  0  0
 78151  1  0  0  0
 79 80  1  0  0  0
 79152  1  0  0  0
 79153  1  0  0  0
 80 81  1  0  0  0
 80154  1  0  0  0
 80155  1  0  0  0
 81156  1  0  0  0
 81157  1  0  0  0
 83158  1  0  0  0
M  ISO  4   1 100  68 101  81 101  83 100
M  END
> <chiral flag>
0

> <version>
0

> <s_m_source_file>
/data/baiqing/PycharmProjects/Reinvent-master-3.2/result/LINK_invent/BTK/process_docking_weight1_custom_sum_contain_oxygen_bond_distance_aromatic_linkinvent_7_9_3/rearranged_h_0083.sdf

> <i_m_source_file_index>
8

> <r_mmod_Potential_Energy-OPLS-2005>
-2.82138919830322

> <r_mmod_Stretch_Energy-OPLS-2005>
111.124038696289

> <r_mmod_Bend_Energy-OPLS-2005>
162.860458374023

> <r_mmod_Torsional_Energy-OPLS-2005>
240.723190307617

> <r_mmod_Improper_Torsional_Energy-OPLS-2005>
5.31022548675537

> <r_mmod_Van_der_Waal_Energy-OPLS-2005>
144.609420776367

> <r_mmod_Electrostatic_Energy-OPLS-2005>
-498.723205566406

> <r_mmod_Solvation_Energy-OPLS-2005>
-234.119079589844

> <b_mmod_Minimization_Converged-OPLS-2005>
0

> <r_mmod_RMS_Derivative-OPLS-2005>
2.53462505340576

$$$$
8
                    3D
 Structure written by MMmdl.
167175  0  0  1  0            999 V2000
  -30.7153  -14.4171   20.6219 C   0  0  0  0  0  0
  -30.4161  -12.2924   19.4021 C   0  0  0  0  0  0
  -29.4792  -12.5256   18.1985 C   0  0  0  0  0  0
  -28.0030  -12.3796   18.6126 C   0  0  0  0  0  0
  -27.6621  -13.2002   19.8832 C   0  0  2  0  0  0
  -28.7040  -12.9400   20.9953 C   0  0  0  0  0  0
  -25.2603  -13.8169   20.5728 C   0  0  0  0  0  0
  -24.1834  -13.0449   20.9193 C   0  0  0  0  0  0
  -24.6364  -11.6916   20.8739 C   0  0  0  0  0  0
  -23.9025  -10.4313   21.0404 C   0  0  0  0  0  0
  -24.3596   -9.4226   21.9163 C   0  0  0  0  0  0
  -23.6298   -8.2248   22.0726 C   0  0  0  0  0  0
  -22.4279   -8.0277   21.3527 C   0  0  0  0  0  0
  -21.9893   -9.0238   20.4618 C   0  0  0  0  0  0
  -22.7205  -10.2135   20.3033 C   0  0  0  0  0  0
  -21.6847   -6.0738   22.5277 C   0  0  0  0  0  0
  -21.4005   -6.5646   23.8212 C   0  0  0  0  0  0
  -21.3655   -5.6797   24.9175 C   0  0  0  0  0  0
  -21.6054   -4.3062   24.7224 C   0  0  0  0  0  0
  -21.8817   -3.8146   23.4347 C   0  0  0  0  0  0
  -21.9187   -4.6960   22.3406 C   0  0  0  0  0  0
  -22.7861  -13.5238   21.1873 C   0  0  0  0  0  0
  -22.1659   -4.2152   21.0981 F   0  0  0  0  0  0
  -21.5625   -3.4546   25.7741 F   0  0  0  0  0  0
  -30.0419  -13.2474   20.4560 N   0  0  0  0  0  0
  -26.3021  -12.9312   20.3417 N   0  0  0  0  0  0
  -25.9286  -11.6477   20.5758 N   0  0  0  0  0  0
  -22.0533  -12.8178   22.0416 N   0  0  0  0  0  0
  -25.4382  -15.1882   20.4196 N   0  0  0  0  0  0
  -31.7881  -14.6690   20.0667 O   0  0  0  0  0  0
  -21.6639   -6.8873   21.4238 O   0  0  0  0  0  0
  -22.3518  -14.5546   20.6741 O   0  0  0  0  0  0
  -24.6153  -31.8681   23.2095 C   0  0  0  0  0  0
  -25.9031  -32.4830   23.8406 C   0  0  1  0  0  0
  -27.2334  -27.4477   20.0839 C   0  0  0  0  0  0
  -25.5900  -33.8631   24.2349 N   0  0  0  0  0  0
  -23.4038  -30.4878   21.5509 C   0  0  2  0  0  0
  -24.8480  -28.9521   20.1182 C   0  0  0  0  0  0
  -22.7429  -29.4630   22.5011 C   0  0  0  0  0  0
  -18.0273  -28.1361   22.8497 C   0  0  0  0  0  0
  -24.1490  -36.7340   23.2635 C   0  0  0  0  0  0
  -25.9297  -30.8340   21.3592 C   0  0  0  0  0  0
  -26.0070  -29.4666   20.7138 C   0  0  0  0  0  0
  -27.2039  -28.7187   20.7008 C   0  0  0  0  0  0
  -26.0641  -26.9394   19.4877 C   0  0  0  0  0  0
  -24.8690  -27.6850   19.5062 C   0  0  0  0  0  0
  -23.6107  -29.8189   20.1669 C   0  0  0  0  0  0
  -25.4108  -36.3142   24.0334 C   0  0  1  0  0  0
  -20.5862  -28.3622   23.1361 C   0  0  2  0  0  0
  -20.6769  -26.9363   22.5441 C   0  0  0  0  0  0
  -19.5753  -26.6364   21.5234 C   0  0  0  0  0  0
  -18.1918  -26.7914   22.1622 C   0  0  0  0  0  0
  -19.1521  -28.8814   23.2927 C   0  0  0  0  0  0
  -18.9453  -30.1437   23.8906 C   0  0  0  0  0  0
  -17.6451  -30.6575   24.0557 C   0  0  0  0  0  0
  -25.9023  -34.9500   23.5150 C   0  0  0  0  0  0
  -16.5338  -29.9070   23.6324 C   0  0  0  0  0  0
  -16.7264  -28.6488   23.0341 C   0  0  0  0  0  0
  -26.4424  -31.6601   25.0746 C   0  0  0  0  0  0
  -25.3685  -31.3676   26.1497 C   0  0  0  0  0  0
  -27.0211  -30.3056   24.6069 C   0  0  0  0  0  0
  -27.6056  -32.4265   25.7488 C   0  0  0  0  0  0
  -27.5577  -37.1832   24.8465 C   0  0  0  0  0  0
  -21.4151  -29.2995   22.3778 N   0  0  0  0  0  0
  -26.4285  -37.3837   23.9405 N   0  0  0  0  0  0
  -24.6682  -31.0790   22.0973 N   0  0  0  0  0  0
  -23.4212  -28.8147   23.3031 O   0  0  0  0  0  0
  -28.3888  -26.7080   20.0313 O   0  0  0  0  0  0
  -26.5611  -34.8959   22.4724 O   0  0  0  0  0  0
  -23.5354  -32.1385   23.7520 O   0  0  0  0  0  0
  -29.5172  -21.4239   20.2005 C   0  0  0  0  0  0
  -29.6446  -20.0503   19.9298 C   0  0  0  0  0  0
  -29.2424  -21.8653   21.5159 C   0  0  0  0  0  0
  -29.4576  -19.1369   20.9776 C   0  0  0  0  0  0
  -29.1677  -20.8701   22.5429 C   0  0  0  0  0  0
  -27.3728  -21.2423   24.2797 C   0  0  0  0  0  0
  -29.6102  -22.3659   24.6385 C   0  0  0  0  0  0
  -29.4213  -19.9525   24.9284 C   0  0  0  0  0  0
  -29.0212  -23.3636   21.7890 C   0  0  0  0  0  0
  -29.3596  -17.6296   20.7341 C   0  0  0  0  0  0
  -28.7700  -24.3270   20.6027 C   0  0  0  0  0  0
  -30.3931  -16.7618   21.4899 C   0  0  0  0  0  0
  -28.5443  -25.7741   21.1023 C   0  0  0  0  0  0
  -28.8917  -21.1258   24.0558 C   0  0  0  0  0  0
  -29.2180  -19.5510   22.2333 N   0  0  0  0  0  0
  -30.0742  -15.3318   21.3634 N   0  0  0  0  0  0
  -31.4547  -12.3975   19.0913 H   0  0  0  0  0  0
  -30.3180  -11.2684   19.7720 H   0  0  0  0  0  0
  -29.7104  -11.8241   17.3960 H   0  0  0  0  0  0
  -29.6429  -13.5230   17.7871 H   0  0  0  0  0  0
  -27.8061  -11.3222   18.7922 H   0  0  0  0  0  0
  -27.3501  -12.6732   17.7907 H   0  0  0  0  0  0
  -27.7183  -14.2543   19.6114 H   0  0  0  0  0  0
  -28.6718  -11.8931   21.3021 H   0  0  0  0  0  0
  -28.4537  -13.5043   21.8937 H   0  0  0  0  0  0
  -25.2751   -9.5691   22.4725 H   0  0  0  0  0  0
  -24.0024   -7.4608   22.7415 H   0  0  0  0  0  0
  -21.0835   -8.8707   19.8910 H   0  0  0  0  0  0
  -22.3642  -10.9645   19.6121 H   0  0  0  0  0  0
  -21.1991   -7.6155   23.9716 H   0  0  0  0  0  0
  -21.1480   -6.0535   25.9078 H   0  0  0  0  0  0
  -22.0601   -2.7608   23.2853 H   0  0  0  0  0  0
  -22.4212  -11.9821   22.4745 H   0  0  0  0  0  0
  -21.1138  -13.1115   22.2667 H   0  0  0  0  0  0
  -24.6877  -15.8577   20.5453 H   0  0  0  0  0  0
  -26.3081  -15.6194   20.1347 H   0  0  0  0  0  0
  -26.7099  -32.5527   23.1174 H   0  0  0  0  0  0
  -25.0057  -33.9791   25.0492 H   0  0  0  0  0  0
  -22.6942  -31.3057   21.4122 H   0  0  0  0  0  0
  -23.3763  -35.9664   23.3301 H   0  0  0  0  0  0
  -24.3588  -36.8944   22.2053 H   0  0  0  0  0  0
  -23.7216  -37.6534   23.6642 H   0  0  0  0  0  0
  -26.0436  -31.5919   20.5841 H   0  0  0  0  0  0
  -26.8189  -30.8900   21.9738 H   0  0  0  0  0  0
  -28.1021  -29.1088   21.1572 H   0  0  0  0  0  0
  -26.0825  -25.9691   19.0093 H   0  0  0  0  0  0
  -23.9749  -27.2817   19.0505 H   0  0  0  0  0  0
  -23.7224  -30.5925   19.4062 H   0  0  0  0  0  0
  -22.7352  -29.2377   19.8711 H   0  0  0  0  0  0
  -25.1274  -36.2031   25.0819 H   0  0  0  0  0  0
  -20.9939  -28.3153   24.1489 H   0  0  0  0  0  0
  -20.5694  -26.2204   23.3602 H   0  0  0  0  0  0
  -21.6637  -26.7421   22.1210 H   0  0  0  0  0  0
  -19.6913  -25.6288   21.1230 H   0  0  0  0  0  0
  -19.6716  -27.3214   20.6802 H   0  0  0  0  0  0
  -17.4206  -26.6674   21.4010 H   0  0  0  0  0  0
  -18.0297  -26.0047   22.9001 H   0  0  0  0  0  0
  -19.7928  -30.7262   24.2254 H   0  0  0  0  0  0
  -17.4999  -31.6260   24.5160 H   0  0  0  0  0  0
  -15.5344  -30.2970   23.7649 H   0  0  0  0  0  0
  -15.8658  -28.0821   22.7043 H   0  0  0  0  0  0
  -24.6003  -30.6830   25.7866 H   0  0  0  0  0  0
  -24.8687  -32.2781   26.4823 H   0  0  0  0  0  0
  -25.8064  -30.9005   27.0328 H   0  0  0  0  0  0
  -26.2722  -29.6921   24.1045 H   0  0  0  0  0  0
  -27.3903  -29.7206   25.4496 H   0  0  0  0  0  0
  -27.8604  -30.4407   23.9244 H   0  0  0  0  0  0
  -27.2773  -33.3630   26.2010 H   0  0  0  0  0  0
  -28.3892  -32.6672   25.0289 H   0  0  0  0  0  0
  -28.0664  -31.8365   26.5424 H   0  0  0  0  0  0
  -28.2614  -38.0126   24.7535 H   0  0  0  0  0  0
  -28.1048  -36.2659   24.6235 H   0  0  0  0  0  0
  -27.2303  -37.1428   25.8875 H   0  0  0  0  0  0
  -20.9315  -29.8729   21.6995 H   0  0  0  0  0  0
  -26.0192  -38.2909   24.1434 H   0  0  0  0  0  0
  -29.6017  -22.1167   19.3784 H   0  0  0  0  0  0
  -29.8229  -19.7091   18.9195 H   0  0  0  0  0  0
  -26.9319  -22.0364   23.6787 H   0  0  0  0  0  0
  -27.1367  -21.4516   25.3232 H   0  0  0  0  0  0
  -26.8648  -20.3185   24.0030 H   0  0  0  0  0  0
  -29.1582  -23.3129   24.3586 H   0  0  0  0  0  0
  -30.6636  -22.3805   24.3554 H   0  0  0  0  0  0
  -29.5740  -22.3658   25.7273 H   0  0  0  0  0  0
  -28.9388  -19.0049   24.6902 H   0  0  0  0  0  0
  -29.2417  -20.1231   25.9899 H   0  0  0  0  0  0
  -30.4962  -19.8144   24.7988 H   0  0  0  0  0  0
  -29.8887  -23.7341   22.3337 H   0  0  0  0  0  0
  -28.1499  -23.4530   22.4360 H   0  0  0  0  0  0
  -29.4373  -17.4306   19.6636 H   0  0  0  0  0  0
  -28.3522  -17.3287   21.0251 H   0  0  0  0  0  0
  -27.8939  -24.0088   20.0355 H   0  0  0  0  0  0
  -29.6197  -24.3209   19.9196 H   0  0  0  0  0  0
  -30.3742  -17.0114   22.5521 H   0  0  0  0  0  0
  -31.3998  -16.9852   21.1348 H   0  0  0  0  0  0
  -29.4016  -26.0936   21.6931 H   0  0  0  0  0  0
  -27.6887  -25.7941   21.7807 H   0  0  0  0  0  0
  -29.2194  -15.0176   21.7982 H   0  0  0  0  0  0
  1 25  1  0  0  0
  1 30  2  0  0  0
  1 86  1  0  0  0
  2  3  1  0  0  0
  2 25  1  0  0  0
  2 87  1  0  0  0
  2 88  1  0  0  0
  3  4  1  0  0  0
  3 89  1  0  0  0
  3 90  1  0  0  0
  4  5  1  0  0  0
  4 91  1  0  0  0
  4 92  1  0  0  0
  5  6  1  0  0  0
  5 26  1  0  0  0
  5 93  1  0  0  0
  6 25  1  0  0  0
  6 94  1  0  0  0
  6 95  1  0  0  0
  7  8  2  0  0  0
  7 26  1  0  0  0
  7 29  1  0  0  0
  8  9  1  0  0  0
  8 22  1  0  0  0
  9 10  1  0  0  0
  9 27  2  0  0  0
 10 11  2  0  0  0
 10 15  1  0  0  0
 11 12  1  0  0  0
 11 96  1  0  0  0
 12 13  2  0  0  0
 12 97  1  0  0  0
 13 14  1  0  0  0
 13 31  1  0  0  0
 14 15  2  0  0  0
 14 98  1  0  0  0
 15 99  1  0  0  0
 16 17  2  0  0  0
 16 21  1  0  0  0
 16 31  1  0  0  0
 17 18  1  0  0  0
 17100  1  0  0  0
 18 19  2  0  0  0
 18101  1  0  0  0
 19 20  1  0  0  0
 19 24  1  0  0  0
 20 21  2  0  0  0
 20102  1  0  0  0
 21 23  1  0  0  0
 22 28  1  0  0  0
 22 32  2  0  0  0
 26 27  1  0  0  0
 28103  1  0  0  0
 28104  1  0  0  0
 29105  1  0  0  0
 29106  1  0  0  0
 33 34  1  0  0  0
 33 66  1  0  0  0
 33 70  2  0  0  0
 34 36  1  0  0  0
 34 59  1  0  0  0
 34107  1  0  0  0
 35 44  2  0  0  0
 35 45  1  0  0  0
 35 68  1  0  0  0
 36 56  1  0  0  0
 36108  1  0  0  0
 37 39  1  0  0  0
 37 47  1  0  0  0
 37 66  1  0  0  0
 37109  1  0  0  0
 38 43  2  0  0  0
 38 46  1  0  0  0
 38 47  1  0  0  0
 39 64  1  0  0  0
 39 67  2  0  0  0
 40 52  1  0  0  0
 40 53  2  0  0  0
 40 58  1  0  0  0
 41110  1  0  0  0
 41111  1  0  0  0
 41112  1  0  0  0
 41 48  1  0  0  0
 42 43  1  0  0  0
 42 66  1  0  0  0
 42113  1  0  0  0
 42114  1  0  0  0
 43 44  1  0  0  0
 44115  1  0  0  0
 45 46  2  0  0  0
 45116  1  0  0  0
 46117  1  0  0  0
 47118  1  0  0  0
 47119  1  0  0  0
 48 56  1  0  0  0
 48 65  1  0  0  0
 48120  1  0  0  0
 49 50  1  0  0  0
 49 53  1  0  0  0
 49 64  1  0  0  0
 49121  1  0  0  0
 50 51  1  0  0  0
 50122  1  0  0  0
 50123  1  0  0  0
 51 52  1  0  0  0
 51124  1  0  0  0
 51125  1  0  0  0
 52126  1  0  0  0
 52127  1  0  0  0
 53 54  1  0  0  0
 54 55  2  0  0  0
 54128  1  0  0  0
 55 57  1  0  0  0
 55129  1  0  0  0
 56 69  2  0  0  0
 57 58  2  0  0  0
 57130  1  0  0  0
 58131  1  0  0  0
 59 60  1  0  0  0
 59 61  1  0  0  0
 59 62  1  0  0  0
 60132  1  0  0  0
 60133  1  0  0  0
 60134  1  0  0  0
 61135  1  0  0  0
 61136  1  0  0  0
 61137  1  0  0  0
 62138  1  0  0  0
 62139  1  0  0  0
 62140  1  0  0  0
 63 65  1  0  0  0
 63141  1  0  0  0
 63142  1  0  0  0
 63143  1  0  0  0
 64144  1  0  0  0
 65145  1  0  0  0
 68 83  1  0  0  0
 71 72  2  0  0  0
 71 73  1  0  0  0
 71146  1  0  0  0
 72 74  1  0  0  0
 72147  1  0  0  0
 73 75  2  0  0  0
 73 79  1  0  0  0
 74 80  1  0  0  0
 74 85  2  0  0  0
 75 84  1  0  0  0
 75 85  1  0  0  0
 76148  1  0  0  0
 76149  1  0  0  0
 76150  1  0  0  0
 76 84  1  0  0  0
 77 84  1  0  0  0
 77151  1  0  0  0
 77152  1  0  0  0
 77153  1  0  0  0
 78 84  1  0  0  0
 78154  1  0  0  0
 78155  1  0  0  0
 78156  1  0  0  0
 79 81  1  0  0  0
 79157  1  0  0  0
 79158  1  0  0  0
 80 82  1  0  0  0
 80159  1  0  0  0
 80160  1  0  0  0
 81 83  1  0  0  0
 81161  1  0  0  0
 81162  1  0  0  0
 82 86  1  0  0  0
 82163  1  0  0  0
 82164  1  0  0  0
 83165  1  0  0  0
 83166  1  0  0  0
 86167  1  0  0  0
M  ISO  4   1 100  68 101  83 101  86 100
M  END
> <chiral flag>
0

> <version>
0

> <s_m_source_file>
/data/baiqing/PycharmProjects/Reinvent-master-3.2/result/LINK_invent/BTK/process_docking_weight1_custom_sum_contain_oxygen_bond_distance_aromatic_linkinvent_7_9_3/rearranged_h_0083.sdf

> <i_m_source_file_index>
9

> <r_mmod_Potential_Energy-OPLS-2005>
-214.531967163086

> <r_mmod_Stretch_Energy-OPLS-2005>
40.6110610961914

> <r_mmod_Bend_Energy-OPLS-2005>
111.668914794922

> <r_mmod_Torsional_Energy-OPLS-2005>
213.838989257812

> <r_mmod_Improper_Torsional_Energy-OPLS-2005>
3.3528745174408

> <r_mmod_Van_der_Waal_Energy-OPLS-2005>
164.932052612305

> <r_mmod_Electrostatic_Energy-OPLS-2005>
-547.525512695312

> <r_mmod_Solvation_Energy-OPLS-2005>
-209.521133422852

> <b_mmod_Minimization_Converged-OPLS-2005>
0

> <r_mmod_RMS_Derivative-OPLS-2005>
3.33596134185791

$$$$
9
                    3D
 Structure written by MMmdl.
158166  0  0  1  0            999 V2000
  -31.4098  -14.6930   19.2614 C   0  0  0  0  0  0
  -31.2274  -12.5324   19.8838 C   0  0  0  0  0  0
  -29.9098  -12.2593   19.4289 C   0  0  0  0  0  0
  -28.9391  -13.6029   20.1579 C   0  0  0  0  0  0
  -26.9883  -14.3171   19.6815 C   0  0  2  0  0  0
  -29.4569  -14.4322   20.6887 C   0  0  0  0  0  0
  -24.6310  -14.1815   20.5759 C   0  0  0  0  0  0
  -23.7725  -13.2362   21.0341 C   0  0  0  0  0  0
  -24.2662  -11.9212   20.8339 C   0  0  0  0  0  0
  -23.7376  -10.5512   21.0251 C   0  0  0  0  0  0
  -24.2720   -9.5654   21.9020 C   0  0  0  0  0  0
  -23.6215   -8.3151   22.0569 C   0  0  0  0  0  0
  -22.4292   -8.0469   21.3420 C   0  0  0  0  0  0
  -21.9442   -9.0057   20.4411 C   0  0  0  0  0  0
  -22.5970  -10.2319   20.2733 C   0  0  0  0  0  0
  -21.7077   -6.0837   22.5294 C   0  0  0  0  0  0
  -21.4174   -6.5774   23.8203 C   0  0  0  0  0  0
  -21.3640   -5.6909   24.9158 C   0  0  0  0  0  0
  -21.5977   -4.3152   24.7214 C   0  0  0  0  0  0
  -21.8784   -3.8224   23.4351 C   0  0  0  0  0  0
  -21.9281   -4.7043   22.3429 C   0  0  0  0  0  0
  -22.4054  -13.5927   21.3485 C   0  0  0  0  0  0
  -22.1738   -4.2200   21.1015 F   0  0  0  0  0  0
  -21.5492   -3.4651   25.7740 F   0  0  0  0  0  0
  -31.0484  -13.9332   20.2330 N   0  0  0  0  0  0
  -25.5219  -13.5377   19.8975 N   0  0  0  0  0  0
  -25.1864  -12.1315   19.9806 N   0  0  0  0  0  0
  -21.7472  -12.8328   22.2051 N   0  0  0  0  0  0
  -24.7455  -15.5594   20.5729 N   0  0  0  0  0  0
  -32.3132  -15.4182   19.5855 O   0  0  0  0  0  0
  -21.6982   -6.8841   21.4170 O   0  0  0  0  0  0
  -21.9328  -14.5835   20.8001 O   0  0  0  0  0  0
  -24.7182  -31.7534   23.1303 C   0  0  0  0  0  0
  -25.9574  -32.4260   23.7986 C   0  0  1  0  0  0
  -27.0073  -26.1938   20.3030 C   0  0  0  0  0  0
  -25.5995  -33.8136   24.1794 N   0  0  0  0  0  0
  -23.5528  -30.3550   21.4943 C   0  0  2  0  0  0
  -24.9708  -28.6071   20.1268 C   0  0  0  0  0  0
  -22.7865  -29.4107   22.4615 C   0  0  0  0  0  0
  -18.0353  -28.1430   22.8447 C   0  0  0  0  0  0
  -24.1462  -36.7038   23.2670 C   0  0  0  0  0  0
  -26.1424  -30.3179   21.4661 C   0  0  0  0  0  0
  -26.1608  -28.8315   20.8238 C   0  0  0  0  0  0
  -27.1633  -27.6623   20.8645 C   0  0  0  0  0  0
  -25.8384  -26.3198   19.4988 C   0  0  0  0  0  0
  -24.8829  -27.3922   19.4314 C   0  0  0  0  0  0
  -23.8227  -29.6439   20.1332 C   0  0  0  0  0  0
  -25.4133  -36.2797   24.0270 C   0  0  1  0  0  0
  -20.5986  -28.3803   23.1065 C   0  0  2  0  0  0
  -20.6787  -26.9427   22.5412 C   0  0  0  0  0  0
  -19.5777  -26.6334   21.5226 C   0  0  0  0  0  0
  -18.1952  -26.7951   22.1614 C   0  0  0  0  0  0
  -19.1622  -28.8952   23.2729 C   0  0  0  0  0  0
  -18.9532  -30.1521   23.8792 C   0  0  0  0  0  0
  -17.6526  -30.6610   24.0533 C   0  0  0  0  0  0
  -25.9142  -34.9200   23.4897 C   0  0  0  0  0  0
  -16.5410  -29.9080   23.6364 C   0  0  0  0  0  0
  -16.7332  -28.6500   23.0383 C   0  0  0  0  0  0
  -26.4631  -31.6524   25.0807 C   0  0  0  0  0  0
  -25.3588  -31.3980   26.1353 C   0  0  0  0  0  0
  -27.0655  -30.2828   24.7050 C   0  0  0  0  0  0
  -27.5966  -32.4541   25.7622 C   0  0  0  0  0  0
  -27.5535  -37.1676   24.8454 C   0  0  0  0  0  0
  -21.4484  -29.2996   22.3341 N   0  0  0  0  0  0
  -26.4206  -37.3610   23.9448 N   0  0  0  0  0  0
  -24.8354  -30.8540   22.0814 N   0  0  0  0  0  0
  -23.4146  -28.7733   23.3089 O   0  0  0  0  0  0
  -27.7494  -24.6975   20.3553 O   0  0  0  0  0  0
  -26.5832  -34.8828   22.4556 O   0  0  0  0  0  0
  -23.6119  -32.0845   23.5985 O   0  0  0  0  0  0
  -27.5082  -12.2181   19.2553 C   0  0  0  0  0  0
  -28.4832  -15.6745   18.6764 C   0  0  0  0  0  0
  -28.3255  -13.7909   17.9724 C   0  0  0  0  0  0
  -27.2063  -12.9519   21.4226 C   0  0  0  0  0  0
  -27.8592  -16.3477   20.4084 C   0  0  0  0  0  0
  -27.1635  -12.0349   22.6251 C   0  0  0  0  0  0
  -29.4242  -14.4998   15.8425 C   0  0  0  0  0  0
  -27.5804  -18.4181   20.6915 C   0  0  0  0  0  0
  -27.8846  -20.5738   20.2311 C   0  0  0  0  0  0
  -27.3936  -22.7340   20.4893 C   0  0  0  0  0  0
  -29.7025  -13.8481   17.2009 C   0  0  2  0  0  0
  -27.3746  -14.9498   21.7569 N   0  0  0  0  0  0
  -30.8755  -14.5744   17.9553 N   0  0  0  0  0  0
  -32.0010  -12.3030   19.1438 H   0  0  0  0  0  0
  -31.4541  -11.9826   20.7948 H   0  0  0  0  0  0
  -29.7283  -11.2298   19.8021 H   0  0  0  0  0  0
  -29.8259  -11.8620   18.4361 H   0  0  0  0  0  0
  -29.1062  -12.5573   20.8032 H   0  0  0  0  0  0
  -27.8186  -14.1714   19.8981 H   0  0  0  0  0  0
  -26.5214  -14.9200   18.8406 H   0  0  0  0  0  0
  -29.6037  -14.4538   21.8484 H   0  0  0  0  0  0
  -29.8435  -15.4741   20.8124 H   0  0  0  0  0  0
  -25.1465   -9.7771   22.4988 H   0  0  0  0  0  0
  -24.0243   -7.5825   22.7398 H   0  0  0  0  0  0
  -21.0402   -8.8042   19.8803 H   0  0  0  0  0  0
  -22.1845  -10.9600   19.5902 H   0  0  0  0  0  0
  -21.2271   -7.6300   23.9702 H   0  0  0  0  0  0
  -21.1389   -6.0670   25.9024 H   0  0  0  0  0  0
  -22.0499   -2.7684   23.2834 H   0  0  0  0  0  0
  -22.1758  -12.0495   22.6726 H   0  0  0  0  0  0
  -20.7782  -13.0429   22.4087 H   0  0  0  0  0  0
  -25.6094  -16.0437   20.3770 H   0  0  0  0  0  0
  -24.0543  -16.1435   21.0230 H   0  0  0  0  0  0
  -26.7672  -32.4623   23.0694 H   0  0  0  0  0  0
  -25.0027  -33.9164   24.9872 H   0  0  0  0  0  0
  -22.9035  -31.2067   21.2886 H   0  0  0  0  0  0
  -23.3805  -35.9272   23.3210 H   0  0  0  0  0  0
  -24.3511  -36.8845   22.2101 H   0  0  0  0  0  0
  -23.7106  -37.6119   23.6857 H   0  0  0  0  0  0
  -26.3946  -31.0127   20.6636 H   0  0  0  0  0  0
  -26.9786  -30.3939   22.1472 H   0  0  0  0  0  0
  -28.0544  -27.8397   21.4520 H   0  0  0  0  0  0
  -25.5704  -25.4402   18.9299 H   0  0  0  0  0  0
  -23.9960  -27.2198   18.8406 H   0  0  0  0  0  0
  -24.0752  -30.4019   19.3876 H   0  0  0  0  0  0
  -22.9057  -29.1703   19.7730 H   0  0  0  0  0  0
  -25.1350  -36.1512   25.0745 H   0  0  0  0  0  0
  -21.0077  -28.3466   24.1190 H   0  0  0  0  0  0
  -20.5603  -26.2446   23.3705 H   0  0  0  0  0  0
  -21.6634  -26.7286   22.1261 H   0  0  0  0  0  0
  -19.6909  -25.6210   21.1329 H   0  0  0  0  0  0
  -19.6729  -27.3070   20.6694 H   0  0  0  0  0  0
  -17.4222  -26.6703   21.4008 H   0  0  0  0  0  0
  -18.0320  -26.0112   22.9026 H   0  0  0  0  0  0
  -19.8010  -30.7351   24.2103 H   0  0  0  0  0  0
  -17.5080  -31.6284   24.5146 H   0  0  0  0  0  0
  -15.5403  -30.2953   23.7749 H   0  0  0  0  0  0
  -15.8723  -28.0773   22.7179 H   0  0  0  0  0  0
  -24.5796  -30.7290   25.7687 H   0  0  0  0  0  0
  -24.8752  -32.3248   26.4454 H   0  0  0  0  0  0
  -25.7680  -30.9382   27.0359 H   0  0  0  0  0  0
  -26.3456  -29.6236   24.2193 H   0  0  0  0  0  0
  -27.4020  -29.7555   25.5987 H   0  0  0  0  0  0
  -27.9453  -30.3862   24.0701 H   0  0  0  0  0  0
  -27.2412  -33.3959   26.1810 H   0  0  0  0  0  0
  -28.3950  -32.6921   25.0594 H   0  0  0  0  0  0
  -28.0434  -31.8976   26.5860 H   0  0  0  0  0  0
  -28.2460  -38.0062   24.7606 H   0  0  0  0  0  0
  -28.1128  -36.2598   24.6156 H   0  0  0  0  0  0
  -27.2282  -37.1144   25.8856 H   0  0  0  0  0  0
  -20.9849  -29.8639   21.6353 H   0  0  0  0  0  0
  -26.0004  -38.2618   24.1570 H   0  0  0  0  0  0
  -27.5614  -11.1617   19.0250 H   0  0  0  0  0  0
  -28.9471  -16.4050   18.0242 H   0  0  0  0  0  0
  -28.1779  -11.8860   22.9875 H   0  0  0  0  0  0
  -26.8006  -11.0609   22.3190 H   0  0  0  0  0  0
  -26.5736  -12.4290   23.4550 H   0  0  0  0  0  0
  -29.0489  -15.5178   15.9265 H   0  0  0  0  0  0
  -28.6534  -13.9237   15.3201 H   0  0  0  0  0  0
  -30.3105  -14.5061   15.2062 H   0  0  0  0  0  0
  -27.8185  -18.4313   21.7536 H   0  0  0  0  0  0
  -26.4859  -18.3985   20.6915 H   0  0  0  0  0  0
  -27.7295  -20.5282   19.1573 H   0  0  0  0  0  0
  -28.9721  -20.6133   20.3095 H   0  0  0  0  0  0
  -27.1889  -22.7236   21.5608 H   0  0  0  0  0  0
  -26.3998  -22.7394   20.0452 H   0  0  0  0  0  0
  -30.0659  -12.8850   16.8652 H   0  0  0  0  0  0
  -31.3649  -15.2012   17.3358 H   0  0  0  0  0  0
  1 25  1  0  0  0
  1 30  2  0  0  0
  1 83  1  0  0  0
  2  3  1  0  0  0
  2 25  1  0  0  0
  2 84  1  0  0  0
  2 85  1  0  0  0
  3  4  1  0  0  0
  3 86  1  0  0  0
  3 87  1  0  0  0
  4  5  1  0  0  0
  4 88  1  0  0  0
  4 89  1  0  0  0
  5  6  1  0  0  0
  5 26  1  0  0  0
  5 90  1  0  0  0
  6 25  1  0  0  0
  6 91  1  0  0  0
  6 92  1  0  0  0
  7  8  2  0  0  0
  7 26  1  0  0  0
  7 29  1  0  0  0
  8  9  1  0  0  0
  8 22  1  0  0  0
  9 10  1  0  0  0
  9 27  2  0  0  0
 10 11  2  0  0  0
 10 15  1  0  0  0
 11 12  1  0  0  0
 11 93  1  0  0  0
 12 13  2  0  0  0
 12 94  1  0  0  0
 13 14  1  0  0  0
 13 31  1  0  0  0
 14 15  2  0  0  0
 14 95  1  0  0  0
 15 96  1  0  0  0
 16 17  2  0  0  0
 16 21  1  0  0  0
 16 31  1  0  0  0
 17 18  1  0  0  0
 17 97  1  0  0  0
 18 19  2  0  0  0
 18 98  1  0  0  0
 19 20  1  0  0  0
 19 24  1  0  0  0
 20 21  2  0  0  0
 20 99  1  0  0  0
 21 23  1  0  0  0
 22 28  1  0  0  0
 22 32  2  0  0  0
 26 27  1  0  0  0
 28100  1  0  0  0
 28101  1  0  0  0
 29102  1  0  0  0
 29103  1  0  0  0
 33 34  1  0  0  0
 33 66  1  0  0  0
 33 70  2  0  0  0
 34 36  1  0  0  0
 34 59  1  0  0  0
 34104  1  0  0  0
 35 44  2  0  0  0
 35 45  1  0  0  0
 35 68  1  0  0  0
 36 56  1  0  0  0
 36105  1  0  0  0
 37 39  1  0  0  0
 37 47  1  0  0  0
 37 66  1  0  0  0
 37106  1  0  0  0
 38 43  2  0  0  0
 38 46  1  0  0  0
 38 47  1  0  0  0
 39 64  1  0  0  0
 39 67  2  0  0  0
 40 52  1  0  0  0
 40 53  2  0  0  0
 40 58  1  0  0  0
 41107  1  0  0  0
 41108  1  0  0  0
 41109  1  0  0  0
 41 48  1  0  0  0
 42 43  1  0  0  0
 42 66  1  0  0  0
 42110  1  0  0  0
 42111  1  0  0  0
 43 44  1  0  0  0
 44112  1  0  0  0
 45 46  2  0  0  0
 45113  1  0  0  0
 46114  1  0  0  0
 47115  1  0  0  0
 47116  1  0  0  0
 48 56  1  0  0  0
 48 65  1  0  0  0
 48117  1  0  0  0
 49 50  1  0  0  0
 49 53  1  0  0  0
 49 64  1  0  0  0
 49118  1  0  0  0
 50 51  1  0  0  0
 50119  1  0  0  0
 50120  1  0  0  0
 51 52  1  0  0  0
 51121  1  0  0  0
 51122  1  0  0  0
 52123  1  0  0  0
 52124  1  0  0  0
 53 54  1  0  0  0
 54 55  2  0  0  0
 54125  1  0  0  0
 55 57  1  0  0  0
 55126  1  0  0  0
 56 69  2  0  0  0
 57 58  2  0  0  0
 57127  1  0  0  0
 58128  1  0  0  0
 59 60  1  0  0  0
 59 61  1  0  0  0
 59 62  1  0  0  0
 60129  1  0  0  0
 60130  1  0  0  0
 60131  1  0  0  0
 61132  1  0  0  0
 61133  1  0  0  0
 61134  1  0  0  0
 62135  1  0  0  0
 62136  1  0  0  0
 62137  1  0  0  0
 63 65  1  0  0  0
 63138  1  0  0  0
 63139  1  0  0  0
 63140  1  0  0  0
 64141  1  0  0  0
 65142  1  0  0  0
 68 80  1  0  0  0
 71 73  2  0  0  0
 71 74  1  0  0  0
 71143  1  0  0  0
 72 73  1  0  0  0
 72 75  2  0  0  0
 72144  1  0  0  0
 73 81  1  0  0  0
 74 76  1  0  0  0
 74 82  2  0  0  0
 75 78  1  0  0  0
 75 82  1  0  0  0
 76145  1  0  0  0
 76146  1  0  0  0
 76147  1  0  0  0
 77148  1  0  0  0
 77149  1  0  0  0
 77150  1  0  0  0
 77 81  1  0  0  0
 78 79  1  0  0  0
 78151  1  0  0  0
 78152  1  0  0  0
 79 80  1  0  0  0
 79153  1  0  0  0
 79154  1  0  0  0
 80155  1  0  0  0
 80156  1  0  0  0
 81 83  1  0  0  0
 81157  1  0  0  0
 83158  1  0  0  0
M  ISO  4   1 100  68 101  80 101  83 100
M  END
> <chiral flag>
0

> <version>
0

> <s_m_source_file>
/data/baiqing/PycharmProjects/Reinvent-master-3.2/result/LINK_invent/BTK/process_docking_weight1_custom_sum_contain_oxygen_bond_distance_aromatic_linkinvent_7_9_3/rearranged_h_0083.sdf

> <i_m_source_file_index>
10

> <r_mmod_Potential_Energy-OPLS-2005>
20502.052734375

> <r_mmod_Stretch_Energy-OPLS-2005>
10772.1083984375

> <r_mmod_Bend_Energy-OPLS-2005>
2716.66381835938

> <r_mmod_Torsional_Energy-OPLS-2005>
468.450897216797

> <r_mmod_Improper_Torsional_Energy-OPLS-2005>
41.0817184448242

> <r_mmod_Van_der_Waal_Energy-OPLS-2005>
4181.34765625

> <r_mmod_Electrostatic_Energy-OPLS-2005>
-586.549865722656

> <r_mmod_Solvation_Energy-OPLS-2005>
-241.606155395508

> <b_mmod_Minimization_Converged-OPLS-2005>
0

> <r_mmod_RMS_Derivative-OPLS-2005>
14.319842338562

$$$$
10
                    3D
 Structure written by MMmdl.
170178  0  0  1  0            999 V2000
  -31.6425  -12.7506   20.4176 C   0  0  0  0  0  0
  -30.9149  -13.7131   18.4375 C   0  0  0  0  0  0
  -30.3134  -15.3655   18.7800 C   0  0  0  0  0  0
  -28.7500  -16.1231   19.9080 C   0  0  0  0  0  0
  -27.4173  -14.7068   20.9327 C   0  0  2  0  0  0
  -29.2699  -12.2078   19.4306 C   0  0  0  0  0  0
  -24.6825  -14.3080   20.6455 C   0  0  0  0  0  0
  -23.7949  -13.2745   20.7850 C   0  0  0  0  0  0
  -24.4186  -12.0552   21.0644 C   0  0  0  0  0  0
  -23.8778  -10.6073   21.1857 C   0  0  0  0  0  0
  -24.1925   -9.5381   22.0939 C   0  0  0  0  0  0
  -23.5699   -8.2629   22.0417 C   0  0  0  0  0  0
  -22.4052   -8.0489   21.2882 C   0  0  0  0  0  0
  -22.0032   -9.1142   20.4566 C   0  0  0  0  0  0
  -22.7724  -10.3085   20.3408 C   0  0  0  0  0  0
  -21.6714   -6.0720   22.5036 C   0  0  0  0  0  0
  -21.3766   -6.5594   23.7945 C   0  0  0  0  0  0
  -21.3713   -5.6847   24.8949 C   0  0  0  0  0  0
  -21.5998   -4.3093   24.7198 C   0  0  0  0  0  0
  -21.8800   -3.8248   23.4338 C   0  0  0  0  0  0
  -21.9102   -4.6907   22.3321 C   0  0  0  0  0  0
  -22.3976  -13.5515   21.0466 C   0  0  0  0  0  0
  -22.1444   -4.1926   21.0921 F   0  0  0  0  0  0
  -21.6007   -3.4720   25.7793 F   0  0  0  0  0  0
  -30.7838  -12.5385   19.3401 N   0  0  0  0  0  0
  -25.8037  -14.0344   21.2457 N   0  0  0  0  0  0
  -25.4201  -12.6530   21.7013 N   0  0  0  0  0  0
  -21.7857  -12.8213   21.9735 N   0  0  0  0  0  0
  -24.5868  -15.6052   20.3199 N   0  0  0  0  0  0
  -32.3715  -13.7713   20.4418 O   0  0  0  0  0  0
  -21.6329   -6.8982   21.3831 O   0  0  0  0  0  0
  -21.9093  -14.5654   20.5776 O   0  0  0  0  0  0
  -24.7551  -31.6939   23.0880 C   0  0  0  0  0  0
  -25.9875  -32.3955   23.7648 C   0  0  1  0  0  0
  -26.7918  -25.8172   20.0802 C   0  0  0  0  0  0
  -25.6104  -33.7877   24.1393 N   0  0  0  0  0  0
  -23.5809  -30.3004   21.4735 C   0  0  2  0  0  0
  -24.9428  -28.5050   20.0625 C   0  0  0  0  0  0
  -22.7947  -29.3831   22.4454 C   0  0  0  0  0  0
  -18.0300  -28.1493   22.8329 C   0  0  0  0  0  0
  -24.1461  -36.6916   23.2661 C   0  0  0  0  0  0
  -26.1738  -30.0747   21.5049 C   0  0  0  0  0  0
  -26.1296  -28.5915   20.7864 C   0  0  0  0  0  0
  -27.0211  -27.2932   20.7582 C   0  0  0  0  0  0
  -25.6466  -26.1737   19.3005 C   0  0  0  0  0  0
  -24.7955  -27.3498   19.3019 C   0  0  0  0  0  0
  -23.8345  -29.6052   20.0997 C   0  0  0  0  0  0
  -25.4224  -36.2658   24.0149 C   0  0  1  0  0  0
  -20.5918  -28.3866   23.0988 C   0  0  2  0  0  0
  -20.6762  -26.9455   22.5452 C   0  0  0  0  0  0
  -19.5834  -26.6349   21.5209 C   0  0  0  0  0  0
  -18.1966  -26.7994   22.1524 C   0  0  0  0  0  0
  -19.1559  -28.9050   23.2575 C   0  0  0  0  0  0
  -18.9483  -30.1581   23.8726 C   0  0  0  0  0  0
  -17.6513  -30.6669   24.0547 C   0  0  0  0  0  0
  -25.9289  -34.9074   23.4712 C   0  0  0  0  0  0
  -16.5382  -29.9177   23.6400 C   0  0  0  0  0  0
  -16.7281  -28.6608   23.0331 C   0  0  0  0  0  0
  -26.4862  -31.6515   25.0693 C   0  0  0  0  0  0
  -25.3685  -31.4127   26.1084 C   0  0  0  0  0  0
  -27.1114  -30.2840   24.7447 C   0  0  0  0  0  0
  -27.6106  -32.4759   25.7476 C   0  0  0  0  0  0
  -27.5563  -37.1636   24.8462 C   0  0  0  0  0  0
  -21.4553  -29.2943   22.3219 N   0  0  0  0  0  0
  -26.4285  -37.3542   23.9384 N   0  0  0  0  0  0
  -24.8836  -30.7553   22.0632 N   0  0  0  0  0  0
  -23.4122  -28.7482   23.3010 O   0  0  0  0  0  0
  -27.3270  -24.1281   19.9782 O   0  0  0  0  0  0
  -26.6025  -34.8854   22.4418 O   0  0  0  0  0  0
  -23.6512  -32.0476   23.5378 O   0  0  0  0  0  0
  -26.9712  -13.1373   19.3430 C   0  0  0  0  0  0
  -26.9581  -14.8639   18.6825 C   0  0  0  0  0  0
  -28.2680  -14.1679   18.8817 C   0  0  0  0  0  0
  -27.6706  -12.4208   20.9513 C   0  0  0  0  0  0
  -29.4422  -14.0344   20.6310 C   0  0  0  0  0  0
  -28.3940  -13.6381   17.2873 C   0  0  0  0  0  0
  -30.2276  -14.9560   21.7245 C   0  0  0  0  0  0
  -27.2154   -9.8485   21.7050 C   0  0  0  0  0  0
  -29.4830  -11.7491   24.0515 C   0  0  0  0  0  0
  -26.5969  -17.2108   18.9427 C   0  0  0  0  0  0
  -27.1429  -19.5622   19.4706 C   0  0  0  0  0  0
  -30.6055  -10.6961   21.8592 C   0  0  0  0  0  0
  -26.8456  -22.0231   19.5905 C   0  0  0  0  0  0
  -27.8417  -11.1978   21.9810 C   0  0  1  0  0  0
  -29.2732  -10.8996   22.7389 C   0  0  2  0  0  0
  -28.8749  -13.0646   21.5695 N   0  0  0  0  0  0
  -31.5000  -11.8629   21.4867 N   0  0  0  0  0  0
  -31.9559  -13.8124   18.1376 H   0  0  0  0  0  0
  -30.7264  -13.3931   17.4201 H   0  0  0  0  0  0
  -30.1998  -15.7744   17.7644 H   0  0  0  0  0  0
  -31.1961  -15.9207   19.0820 H   0  0  0  0  0  0
  -28.6491  -16.5715   18.9209 H   0  0  0  0  0  0
  -28.9890  -17.0057   20.5147 H   0  0  0  0  0  0
  -27.5886  -14.9782   21.9880 H   0  0  0  0  0  0
  -28.8852  -11.6066   18.6001 H   0  0  0  0  0  0
  -29.3447  -11.2877   19.9644 H   0  0  0  0  0  0
  -24.7695   -9.6445   23.0144 H   0  0  0  0  0  0
  -23.9289   -7.4499   22.6763 H   0  0  0  0  0  0
  -21.0965   -9.0107   19.8836 H   0  0  0  0  0  0
  -22.4144  -11.0874   19.6905 H   0  0  0  0  0  0
  -21.1304   -7.6048   23.9230 H   0  0  0  0  0  0
  -21.1675   -6.0651   25.8664 H   0  0  0  0  0  0
  -22.0661   -2.7801   23.2823 H   0  0  0  0  0  0
  -22.2441  -12.0519   22.4272 H   0  0  0  0  0  0
  -20.8556  -13.0467   22.2414 H   0  0  0  0  0  0
  -24.5197  -16.0739   21.2059 H   0  0  0  0  0  0
  -23.6901  -15.6313   19.8603 H   0  0  0  0  0  0
  -26.8069  -32.4253   23.0359 H   0  0  0  0  0  0
  -24.9977  -33.8815   24.9373 H   0  0  0  0  0  0
  -22.9556  -31.1677   21.2675 H   0  0  0  0  0  0
  -23.3869  -35.9096   23.3191 H   0  0  0  0  0  0
  -24.3417  -36.8803   22.2102 H   0  0  0  0  0  0
  -23.7059  -37.5953   23.6942 H   0  0  0  0  0  0
  -26.5802  -30.7538   20.7550 H   0  0  0  0  0  0
  -26.9334  -30.0085   22.2545 H   0  0  0  0  0  0
  -27.8813  -27.3391   21.4160 H   0  0  0  0  0  0
  -25.2728  -25.3884   18.6743 H   0  0  0  0  0  0
  -23.9160  -27.2728   18.6782 H   0  0  0  0  0  0
  -24.1517  -30.3519   19.3700 H   0  0  0  0  0  0
  -22.8948  -29.2020   19.7261 H   0  0  0  0  0  0
  -25.1462  -36.1288   25.0640 H   0  0  0  0  0  0
  -20.9889  -28.3582   24.1116 H   0  0  0  0  0  0
  -20.5601  -26.2497   23.3706 H   0  0  0  0  0  0
  -21.6616  -26.7379   22.1259 H   0  0  0  0  0  0
  -19.7004  -25.6197   21.1372 H   0  0  0  0  0  0
  -19.6872  -27.3017   20.6603 H   0  0  0  0  0  0
  -17.4216  -26.6567   21.3913 H   0  0  0  0  0  0
  -18.0380  -26.0221   22.9021 H   0  0  0  0  0  0
  -19.7977  -30.7373   24.2044 H   0  0  0  0  0  0
  -17.5093  -31.6320   24.5166 H   0  0  0  0  0  0
  -15.5370  -30.3079   23.7907 H   0  0  0  0  0  0
  -15.8579  -28.0988   22.7147 H   0  0  0  0  0  0
  -24.5715  -30.7732   25.7217 H   0  0  0  0  0  0
  -24.9069  -32.3489   26.4263 H   0  0  0  0  0  0
  -25.7483  -30.9254   27.0035 H   0  0  0  0  0  0
  -26.3951  -29.5795   24.3151 H   0  0  0  0  0  0
  -27.4806  -29.8102   25.6544 H   0  0  0  0  0  0
  -27.9815  -30.3864   24.0929 H   0  0  0  0  0  0
  -27.2487  -33.4222   26.1461 H   0  0  0  0  0  0
  -28.4122  -32.7094   25.0479 H   0  0  0  0  0  0
  -28.0559  -31.9370   26.5804 H   0  0  0  0  0  0
  -28.2477  -38.0036   24.7657 H   0  0  0  0  0  0
  -28.1150  -36.2568   24.6132 H   0  0  0  0  0  0
  -27.2254  -37.1041   25.8848 H   0  0  0  0  0  0
  -21.0001  -29.8584   21.6142 H   0  0  0  0  0  0
  -26.0000  -38.2537   24.1513 H   0  0  0  0  0  0
  -26.3303  -12.4855   18.7558 H   0  0  0  0  0  0
  -27.3905  -13.6902   16.8223 H   0  0  0  0  0  0
  -28.5939  -12.5939   17.0371 H   0  0  0  0  0  0
  -29.0093  -14.2266   16.5988 H   0  0  0  0  0  0
  -30.8822  -15.7247   21.3274 H   0  0  0  0  0  0
  -30.8665  -14.4507   22.4663 H   0  0  0  0  0  0
  -29.5151  -15.4483   22.3626 H   0  0  0  0  0  0
  -26.7901   -9.6517   22.7065 H   0  0  0  0  0  0
  -27.8969   -8.9777   21.5163 H   0  0  0  0  0  0
  -26.4698  -10.0173   20.9139 H   0  0  0  0  0  0
  -28.9309  -12.7091   24.0598 H   0  0  0  0  0  0
  -30.5422  -11.9616   24.2246 H   0  0  0  0  0  0
  -29.1208  -11.2298   24.9262 H   0  0  0  0  0  0
  -25.5224  -17.3238   19.0186 H   0  0  0  0  0  0
  -26.6933  -17.3512   17.8631 H   0  0  0  0  0  0
  -28.1435  -19.5710   19.0325 H   0  0  0  0  0  0
  -27.3047  -19.4268   20.5497 H   0  0  0  0  0  0
  -31.2109  -10.0706   22.5171 H   0  0  0  0  0  0
  -30.4470  -10.0561   20.9943 H   0  0  0  0  0  0
  -25.9885  -22.0629   20.2753 H   0  0  0  0  0  0
  -26.4093  -22.1772   18.6085 H   0  0  0  0  0  0
  -27.2758  -11.6867   22.7856 H   0  0  0  0  0  0
  -29.1126   -9.8973   23.1639 H   0  0  0  0  0  0
  -32.1972  -11.9819   22.2058 H   0  0  0  0  0  0
  1 25  1  0  0  0
  1 30  2  0  0  0
  1 87  1  0  0  0
  2  3  1  0  0  0
  2 25  1  0  0  0
  2 88  1  0  0  0
  2 89  1  0  0  0
  3  4  1  0  0  0
  3 90  1  0  0  0
  3 91  1  0  0  0
  4  5  1  0  0  0
  4 92  1  0  0  0
  4 93  1  0  0  0
  5  6  1  0  0  0
  5 26  1  0  0  0
  5 94  1  0  0  0
  6 25  1  0  0  0
  6 95  1  0  0  0
  6 96  1  0  0  0
  7  8  2  0  0  0
  7 26  1  0  0  0
  7 29  1  0  0  0
  8  9  1  0  0  0
  8 22  1  0  0  0
  9 10  1  0  0  0
  9 27  2  0  0  0
 10 11  2  0  0  0
 10 15  1  0  0  0
 11 12  1  0  0  0
 11 97  1  0  0  0
 12 13  2  0  0  0
 12 98  1  0  0  0
 13 14  1  0  0  0
 13 31  1  0  0  0
 14 15  2  0  0  0
 14 99  1  0  0  0
 15100  1  0  0  0
 16 17  2  0  0  0
 16 21  1  0  0  0
 16 31  1  0  0  0
 17 18  1  0  0  0
 17101  1  0  0  0
 18 19  2  0  0  0
 18102  1  0  0  0
 19 20  1  0  0  0
 19 24  1  0  0  0
 20 21  2  0  0  0
 20103  1  0  0  0
 21 23  1  0  0  0
 22 28  1  0  0  0
 22 32  2  0  0  0
 26 27  1  0  0  0
 28104  1  0  0  0
 28105  1  0  0  0
 29106  1  0  0  0
 29107  1  0  0  0
 33 34  1  0  0  0
 33 66  1  0  0  0
 33 70  2  0  0  0
 34 36  1  0  0  0
 34 59  1  0  0  0
 34108  1  0  0  0
 35 44  2  0  0  0
 35 45  1  0  0  0
 35 68  1  0  0  0
 36 56  1  0  0  0
 36109  1  0  0  0
 37 39  1  0  0  0
 37 47  1  0  0  0
 37 66  1  0  0  0
 37110  1  0  0  0
 38 43  2  0  0  0
 38 46  1  0  0  0
 38 47  1  0  0  0
 39 64  1  0  0  0
 39 67  2  0  0  0
 40 52  1  0  0  0
 40 53  2  0  0  0
 40 58  1  0  0  0
 41111  1  0  0  0
 41112  1  0  0  0
 41113  1  0  0  0
 41 48  1  0  0  0
 42 43  1  0  0  0
 42 66  1  0  0  0
 42114  1  0  0  0
 42115  1  0  0  0
 43 44  1  0  0  0
 44116  1  0  0  0
 45 46  2  0  0  0
 45117  1  0  0  0
 46118  1  0  0  0
 47119  1  0  0  0
 47120  1  0  0  0
 48 56  1  0  0  0
 48 65  1  0  0  0
 48121  1  0  0  0
 49 50  1  0  0  0
 49 53  1  0  0  0
 49 64  1  0  0  0
 49122  1  0  0  0
 50 51  1  0  0  0
 50123  1  0  0  0
 50124  1  0  0  0
 51 52  1  0  0  0
 51125  1  0  0  0
 51126  1  0  0  0
 52127  1  0  0  0
 52128  1  0  0  0
 53 54  1  0  0  0
 54 55  2  0  0  0
 54129  1  0  0  0
 55 57  1  0  0  0
 55130  1  0  0  0
 56 69  2  0  0  0
 57 58  2  0  0  0
 57131  1  0  0  0
 58132  1  0  0  0
 59 60  1  0  0  0
 59 61  1  0  0  0
 59 62  1  0  0  0
 60133  1  0  0  0
 60134  1  0  0  0
 60135  1  0  0  0
 61136  1  0  0  0
 61137  1  0  0  0
 61138  1  0  0  0
 62139  1  0  0  0
 62140  1  0  0  0
 62141  1  0  0  0
 63 65  1  0  0  0
 63142  1  0  0  0
 63143  1  0  0  0
 63144  1  0  0  0
 64145  1  0  0  0
 65146  1  0  0  0
 68 83  1  0  0  0
 71 72  2  0  0  0
 71 74  1  0  0  0
 71147  1  0  0  0
 72 73  1  0  0  0
 72 80  1  0  0  0
 73 75  2  0  0  0
 73 76  1  0  0  0
 74 84  1  0  0  0
 74 86  2  0  0  0
 75 77  1  0  0  0
 75 86  1  0  0  0
 76148  1  0  0  0
 76149  1  0  0  0
 76150  1  0  0  0
 77151  1  0  0  0
 77152  1  0  0  0
 77153  1  0  0  0
 78154  1  0  0  0
 78155  1  0  0  0
 78156  1  0  0  0
 78 84  1  0  0  0
 79157  1  0  0  0
 79158  1  0  0  0
 79159  1  0  0  0
 79 85  1  0  0  0
 80 81  1  0  0  0
 80160  1  0  0  0
 80161  1  0  0  0
 81 83  1  0  0  0
 81162  1  0  0  0
 81163  1  0  0  0
 82 85  1  0  0  0
 82 87  1  0  0  0
 82164  1  0  0  0
 82165  1  0  0  0
 83166  1  0  0  0
 83167  1  0  0  0
 84 85  1  0  0  0
 84168  1  0  0  0
 85169  1  0  0  0
 87170  1  0  0  0
M  ISO  4   1 100  68 101  83 101  87 100
M  END
> <chiral flag>
0

> <version>
0

> <s_m_source_file>
/data/baiqing/PycharmProjects/Reinvent-master-3.2/result/LINK_invent/BTK/process_docking_weight1_custom_sum_contain_oxygen_bond_distance_aromatic_linkinvent_7_9_3/rearranged_h_0083.sdf

> <i_m_source_file_index>
11

> <r_mmod_Potential_Energy-OPLS-2005>
25088.453125

> <r_mmod_Stretch_Energy-OPLS-2005>
11848.2412109375

> <r_mmod_Bend_Energy-OPLS-2005>
2456.880859375

> <r_mmod_Torsional_Energy-OPLS-2005>
785.029235839844

> <r_mmod_Improper_Torsional_Energy-OPLS-2005>
80.5282821655273

> <r_mmod_Van_der_Waal_Energy-OPLS-2005>
4052.57568359375

> <r_mmod_Electrostatic_Energy-OPLS-2005>
-568.754577636719

> <r_mmod_Solvation_Energy-OPLS-2005>
-193.657913208008

> <b_mmod_Minimization_Converged-OPLS-2005>
0

> <r_mmod_RMS_Derivative-OPLS-2005>
60.1358184814453

$$$$
11
                    3D
 Structure written by MMmdl.
166174  0  0  1  0            999 V2000
  -30.7122  -14.4537   20.6193 C   0  0  0  0  0  0
  -30.4205  -12.3194   19.4060 C   0  0  0  0  0  0
  -29.4850  -12.5307   18.1985 C   0  0  0  0  0  0
  -28.0080  -12.3721   18.6090 C   0  0  0  0  0  0
  -27.6598  -13.1959   19.8744 C   0  0  2  0  0  0
  -28.7025  -12.9578   20.9905 C   0  0  0  0  0  0
  -25.2598  -13.8142   20.5664 C   0  0  0  0  0  0
  -24.1824  -13.0420   20.9156 C   0  0  0  0  0  0
  -24.6358  -11.6900   20.8731 C   0  0  0  0  0  0
  -23.8999  -10.4291   21.0388 C   0  0  0  0  0  0
  -24.3557   -9.4225   21.9170 C   0  0  0  0  0  0
  -23.6270   -8.2243   22.0746 C   0  0  0  0  0  0
  -22.4280   -8.0249   21.3508 C   0  0  0  0  0  0
  -21.9882   -9.0198   20.4608 C   0  0  0  0  0  0
  -22.7176  -10.2108   20.3034 C   0  0  0  0  0  0
  -21.6850   -6.0703   22.5272 C   0  0  0  0  0  0
  -21.4000   -6.5613   23.8197 C   0  0  0  0  0  0
  -21.3685   -5.6791   24.9170 C   0  0  0  0  0  0
  -21.6074   -4.3056   24.7240 C   0  0  0  0  0  0
  -21.8830   -3.8128   23.4371 C   0  0  0  0  0  0
  -21.9201   -4.6928   22.3423 C   0  0  0  0  0  0
  -22.7858  -13.5227   21.1833 C   0  0  0  0  0  0
  -22.1666   -4.2107   21.1005 F   0  0  0  0  0  0
  -21.5648   -3.4565   25.7757 F   0  0  0  0  0  0
  -30.0357  -13.2835   20.4512 N   0  0  0  0  0  0
  -26.3000  -12.9268   20.3371 N   0  0  0  0  0  0
  -25.9279  -11.6441   20.5757 N   0  0  0  0  0  0
  -22.0535  -12.8144   22.0381 N   0  0  0  0  0  0
  -25.4469  -15.1841   20.4003 N   0  0  0  0  0  0
  -31.7953  -14.6828   20.0700 O   0  0  0  0  0  0
  -21.6654   -6.8840   21.4228 O   0  0  0  0  0  0
  -22.3522  -14.5553   20.6735 O   0  0  0  0  0  0
  -24.6134  -31.8652   23.2153 C   0  0  0  0  0  0
  -25.9037  -32.4803   23.8436 C   0  0  1  0  0  0
  -27.2368  -27.4177   20.1146 C   0  0  0  0  0  0
  -25.5916  -33.8596   24.2379 N   0  0  0  0  0  0
  -23.4038  -30.4814   21.5552 C   0  0  2  0  0  0
  -24.8509  -28.9430   20.1316 C   0  0  0  0  0  0
  -22.7430  -29.4574   22.5065 C   0  0  0  0  0  0
  -18.0219  -28.1348   22.8484 C   0  0  0  0  0  0
  -24.1488  -36.7262   23.2648 C   0  0  0  0  0  0
  -25.9335  -30.8249   21.3704 C   0  0  0  0  0  0
  -26.0148  -29.4581   20.7169 C   0  0  0  0  0  0
  -27.2101  -28.7044   20.7073 C   0  0  0  0  0  0
  -26.0532  -26.9164   19.5289 C   0  0  0  0  0  0
  -24.8622  -27.6669   19.5460 C   0  0  0  0  0  0
  -23.6139  -29.8098   20.1731 C   0  0  0  0  0  0
  -25.4108  -36.3089   24.0375 C   0  0  1  0  0  0
  -20.5822  -28.3590   23.1358 C   0  0  2  0  0  0
  -20.6726  -26.9343   22.5450 C   0  0  0  0  0  0
  -19.5702  -26.6338   21.5247 C   0  0  0  0  0  0
  -18.1843  -26.7905   22.1618 C   0  0  0  0  0  0
  -19.1473  -28.8793   23.2868 C   0  0  0  0  0  0
  -18.9462  -30.1438   23.8829 C   0  0  0  0  0  0
  -17.6468  -30.6588   24.0546 C   0  0  0  0  0  0
  -25.9047  -34.9459   23.5169 C   0  0  0  0  0  0
  -16.5336  -29.9089   23.6386 C   0  0  0  0  0  0
  -16.7210  -28.6504   23.0380 C   0  0  0  0  0  0
  -26.4497  -31.6630   25.0800 C   0  0  0  0  0  0
  -25.3780  -31.3693   26.1580 C   0  0  0  0  0  0
  -27.0482  -30.3135   24.6227 C   0  0  0  0  0  0
  -27.6066  -32.4385   25.7531 C   0  0  0  0  0  0
  -27.5579  -37.1767   24.8490 C   0  0  0  0  0  0
  -21.4143  -29.2959   22.3804 N   0  0  0  0  0  0
  -26.4296  -37.3790   23.9455 N   0  0  0  0  0  0
  -24.6682  -31.0702   22.1068 N   0  0  0  0  0  0
  -23.4185  -28.8065   23.3061 O   0  0  0  0  0  0
  -28.3576  -26.6129   20.0555 O   0  0  0  0  0  0
  -26.5581  -34.8908   22.4724 O   0  0  0  0  0  0
  -23.5345  -32.1433   23.7549 O   0  0  0  0  0  0
  -29.5538  -20.2751   21.5219 C   0  0  0  0  0  0
  -30.1769  -19.2536   20.8404 C   0  0  0  0  0  0
  -31.3652  -21.1365   20.5742 C   0  0  0  0  0  0
  -32.4576  -22.0456   20.1033 C   0  0  0  0  0  0
  -27.5408  -24.9004   22.3837 C   0  0  0  0  0  0
  -29.8042  -25.3330   23.3496 C   0  0  0  0  0  0
  -29.7973  -17.8049   20.6309 C   0  0  0  0  0  0
  -29.5990  -23.9367   21.1924 C   0  0  0  0  0  0
  -30.0460  -22.7084   22.0458 C   0  0  0  0  0  0
  -30.5384  -16.7931   21.5466 C   0  0  0  0  0  0
  -29.1790  -26.4927   21.2256 C   0  0  0  0  0  0
  -29.0255  -25.1499   22.0175 C   0  0  0  0  0  0
  -30.3022  -21.4180   21.3542 N   0  0  0  0  0  0
  -31.2901  -19.8312   20.2773 N   0  3  0  0  0  0
  -30.0912  -15.3999   21.3466 N   0  0  0  0  0  0
  -31.4584  -12.4374   19.0933 H   0  0  0  0  0  0
  -30.3433  -11.3022   19.7921 H   0  0  0  0  0  0
  -29.7301  -11.8389   17.3906 H   0  0  0  0  0  0
  -29.6347  -13.5342   17.7994 H   0  0  0  0  0  0
  -27.8047  -11.3128   18.7794 H   0  0  0  0  0  0
  -27.3611  -12.6675   17.7817 H   0  0  0  0  0  0
  -27.7141  -14.2470   19.5894 H   0  0  0  0  0  0
  -28.6828  -11.9103   21.2967 H   0  0  0  0  0  0
  -28.4562  -13.5276   21.8862 H   0  0  0  0  0  0
  -25.2694   -9.5747   22.4717 H   0  0  0  0  0  0
  -24.0030   -7.4638   22.7435 H   0  0  0  0  0  0
  -21.0847   -8.8655   19.8859 H   0  0  0  0  0  0
  -22.3611  -10.9610   19.6119 H   0  0  0  0  0  0
  -21.1958   -7.6118   23.9671 H   0  0  0  0  0  0
  -21.1509   -6.0537   25.9076 H   0  0  0  0  0  0
  -22.0593   -2.7587   23.2897 H   0  0  0  0  0  0
  -22.4198  -11.9794   22.4692 H   0  0  0  0  0  0
  -21.1109  -13.1063   22.2563 H   0  0  0  0  0  0
  -24.7005  -15.8648   20.4909 H   0  0  0  0  0  0
  -26.3074  -15.5878   20.0477 H   0  0  0  0  0  0
  -26.7083  -32.5564   23.1157 H   0  0  0  0  0  0
  -25.0223  -33.9776   25.0625 H   0  0  0  0  0  0
  -22.6907  -31.2950   21.4125 H   0  0  0  0  0  0
  -23.3786  -35.9558   23.3333 H   0  0  0  0  0  0
  -24.3508  -36.8861   22.2045 H   0  0  0  0  0  0
  -23.7219  -37.6458   23.6659 H   0  0  0  0  0  0
  -26.0607  -31.5907   20.6046 H   0  0  0  0  0  0
  -26.8149  -30.8685   22.0020 H   0  0  0  0  0  0
  -28.1075  -29.1213   21.1410 H   0  0  0  0  0  0
  -26.0507  -25.9304   19.0841 H   0  0  0  0  0  0
  -23.9566  -27.2513   19.1259 H   0  0  0  0  0  0
  -23.7228  -30.5819   19.4104 H   0  0  0  0  0  0
  -22.7409  -29.2276   19.8801 H   0  0  0  0  0  0
  -25.1261  -36.1967   25.0865 H   0  0  0  0  0  0
  -20.9828  -28.3114   24.1514 H   0  0  0  0  0  0
  -20.5711  -26.2155   23.3589 H   0  0  0  0  0  0
  -21.6575  -26.7445   22.1198 H   0  0  0  0  0  0
  -19.6915  -25.6253   21.1276 H   0  0  0  0  0  0
  -19.6714  -27.3134   20.6757 H   0  0  0  0  0  0
  -17.4178  -26.6662   21.3956 H   0  0  0  0  0  0
  -18.0177  -26.0040   22.8983 H   0  0  0  0  0  0
  -19.7950  -30.7229   24.2165 H   0  0  0  0  0  0
  -17.5066  -31.6293   24.5106 H   0  0  0  0  0  0
  -15.5341  -30.2979   23.7843 H   0  0  0  0  0  0
  -15.8565  -28.0849   22.7160 H   0  0  0  0  0  0
  -24.5990  -30.6978   25.7946 H   0  0  0  0  0  0
  -24.8915  -32.2812   26.5057 H   0  0  0  0  0  0
  -25.8160  -30.8913   27.0345 H   0  0  0  0  0  0
  -26.3127  -29.6664   24.1481 H   0  0  0  0  0  0
  -27.4507  -29.7594   25.4697 H   0  0  0  0  0  0
  -27.8747  -30.4512   23.9269 H   0  0  0  0  0  0
  -27.2755  -33.3744   26.2027 H   0  0  0  0  0  0
  -28.3903  -32.6848   25.0355 H   0  0  0  0  0  0
  -28.0709  -31.8588   26.5519 H   0  0  0  0  0  0
  -28.2635  -38.0034   24.7546 H   0  0  0  0  0  0
  -28.1051  -36.2570   24.6340 H   0  0  0  0  0  0
  -27.2268  -37.1428   25.8884 H   0  0  0  0  0  0
  -20.9357  -29.8640   21.6963 H   0  0  0  0  0  0
  -26.0201  -38.2866   24.1479 H   0  0  0  0  0  0
  -28.6479  -20.2703   22.1155 H   0  0  0  0  0  0
  -32.0702  -22.6575   19.2857 H   0  0  0  0  0  0
  -33.2922  -21.4365   19.7447 H   0  0  0  0  0  0
  -32.7936  -22.6746   20.9287 H   0  0  0  0  0  0
  -27.4185  -24.0145   23.0093 H   0  0  0  0  0  0
  -26.9184  -24.7490   21.5026 H   0  0  0  0  0  0
  -27.1113  -25.7426   22.9314 H   0  0  0  0  0  0
  -29.5228  -24.5903   24.1017 H   0  0  0  0  0  0
  -29.6078  -26.3002   23.8222 H   0  0  0  0  0  0
  -30.8847  -25.2708   23.2001 H   0  0  0  0  0  0
  -29.9761  -17.5491   19.5845 H   0  0  0  0  0  0
  -28.7178  -17.7224   20.7803 H   0  0  0  0  0  0
  -28.8717  -23.6315   20.4370 H   0  0  0  0  0  0
  -30.4657  -24.2796   20.6283 H   0  0  0  0  0  0
  -29.2840  -22.5061   22.7989 H   0  0  0  0  0  0
  -30.9559  -22.9528   22.5953 H   0  0  0  0  0  0
  -30.3566  -17.0529   22.5877 H   0  0  0  0  0  0
  -31.6180  -16.8722   21.3994 H   0  0  0  0  0  0
  -30.2137  -26.5950   20.8976 H   0  0  0  0  0  0
  -29.0168  -27.3296   21.9018 H   0  0  0  0  0  0
  -31.9754  -19.3430   19.7104 H   0  0  0  0  0  0
  -29.2143  -15.1422   21.7725 H   0  0  0  0  0  0
  1 25  1  0  0  0
  1 30  2  0  0  0
  1 85  1  0  0  0
  2  3  1  0  0  0
  2 25  1  0  0  0
  2 86  1  0  0  0
  2 87  1  0  0  0
  3  4  1  0  0  0
  3 88  1  0  0  0
  3 89  1  0  0  0
  4  5  1  0  0  0
  4 90  1  0  0  0
  4 91  1  0  0  0
  5  6  1  0  0  0
  5 26  1  0  0  0
  5 92  1  0  0  0
  6 25  1  0  0  0
  6 93  1  0  0  0
  6 94  1  0  0  0
  7  8  2  0  0  0
  7 26  1  0  0  0
  7 29  1  0  0  0
  8  9  1  0  0  0
  8 22  1  0  0  0
  9 10  1  0  0  0
  9 27  2  0  0  0
 10 11  2  0  0  0
 10 15  1  0  0  0
 11 12  1  0  0  0
 11 95  1  0  0  0
 12 13  2  0  0  0
 12 96  1  0  0  0
 13 14  1  0  0  0
 13 31  1  0  0  0
 14 15  2  0  0  0
 14 97  1  0  0  0
 15 98  1  0  0  0
 16 17  2  0  0  0
 16 21  1  0  0  0
 16 31  1  0  0  0
 17 18  1  0  0  0
 17 99  1  0  0  0
 18 19  2  0  0  0
 18100  1  0  0  0
 19 20  1  0  0  0
 19 24  1  0  0  0
 20 21  2  0  0  0
 20101  1  0  0  0
 21 23  1  0  0  0
 22 28  1  0  0  0
 22 32  2  0  0  0
 26 27  1  0  0  0
 28102  1  0  0  0
 28103  1  0  0  0
 29104  1  0  0  0
 29105  1  0  0  0
 33 34  1  0  0  0
 33 66  1  0  0  0
 33 70  2  0  0  0
 34 36  1  0  0  0
 34 59  1  0  0  0
 34106  1  0  0  0
 35 44  2  0  0  0
 35 45  1  0  0  0
 35 68  1  0  0  0
 36 56  1  0  0  0
 36107  1  0  0  0
 37 39  1  0  0  0
 37 47  1  0  0  0
 37 66  1  0  0  0
 37108  1  0  0  0
 38 43  2  0  0  0
 38 46  1  0  0  0
 38 47  1  0  0  0
 39 64  1  0  0  0
 39 67  2  0  0  0
 40 52  1  0  0  0
 40 53  2  0  0  0
 40 58  1  0  0  0
 41109  1  0  0  0
 41110  1  0  0  0
 41111  1  0  0  0
 41 48  1  0  0  0
 42 43  1  0  0  0
 42 66  1  0  0  0
 42112  1  0  0  0
 42113  1  0  0  0
 43 44  1  0  0  0
 44114  1  0  0  0
 45 46  2  0  0  0
 45115  1  0  0  0
 46116  1  0  0  0
 47117  1  0  0  0
 47118  1  0  0  0
 48 56  1  0  0  0
 48 65  1  0  0  0
 48119  1  0  0  0
 49 50  1  0  0  0
 49 53  1  0  0  0
 49 64  1  0  0  0
 49120  1  0  0  0
 50 51  1  0  0  0
 50121  1  0  0  0
 50122  1  0  0  0
 51 52  1  0  0  0
 51123  1  0  0  0
 51124  1  0  0  0
 52125  1  0  0  0
 52126  1  0  0  0
 53 54  1  0  0  0
 54 55  2  0  0  0
 54127  1  0  0  0
 55 57  1  0  0  0
 55128  1  0  0  0
 56 69  2  0  0  0
 57 58  2  0  0  0
 57129  1  0  0  0
 58130  1  0  0  0
 59 60  1  0  0  0
 59 61  1  0  0  0
 59 62  1  0  0  0
 60131  1  0  0  0
 60132  1  0  0  0
 60133  1  0  0  0
 61134  1  0  0  0
 61135  1  0  0  0
 61136  1  0  0  0
 62137  1  0  0  0
 62138  1  0  0  0
 62139  1  0  0  0
 63 65  1  0  0  0
 63140  1  0  0  0
 63141  1  0  0  0
 63142  1  0  0  0
 64143  1  0  0  0
 65144  1  0  0  0
 68 81  1  0  0  0
 71 72  2  0  0  0
 71 83  1  0  0  0
 71145  1  0  0  0
 72 77  1  0  0  0
 72 84  1  0  0  0
 73 74  1  0  0  0
 73 83  1  0  0  0
 73 84  2  0  0  0
 74146  1  0  0  0
 74147  1  0  0  0
 74148  1  0  0  0
 75149  1  0  0  0
 75150  1  0  0  0
 75151  1  0  0  0
 75 82  1  0  0  0
 76 82  1  0  0  0
 76152  1  0  0  0
 76153  1  0  0  0
 76154  1  0  0  0
 77 80  1  0  0  0
 77155  1  0  0  0
 77156  1  0  0  0
 78 79  1  0  0  0
 78 82  1  0  0  0
 78157  1  0  0  0
 78158  1  0  0  0
 79 83  1  0  0  0
 79159  1  0  0  0
 79160  1  0  0  0
 80 85  1  0  0  0
 80161  1  0  0  0
 80162  1  0  0  0
 81 82  1  0  0  0
 81163  1  0  0  0
 81164  1  0  0  0
 84165  1  0  0  0
 85166  1  0  0  0
M  CHG  1  84   1
M  ISO  4   1 100  68 101  81 101  85 100
M  END
> <chiral flag>
0

> <version>
0

> <s_m_source_file>
/data/baiqing/PycharmProjects/Reinvent-master-3.2/result/LINK_invent/BTK/process_docking_weight1_custom_sum_contain_oxygen_bond_distance_aromatic_linkinvent_7_9_3/rearranged_h_0083.sdf

> <i_m_source_file_index>
12

> <r_mmod_Potential_Energy-OPLS-2005>
-112.655662536621

> <r_mmod_Stretch_Energy-OPLS-2005>
42.3090400695801

> <r_mmod_Bend_Energy-OPLS-2005>
113.46656036377

> <r_mmod_Torsional_Energy-OPLS-2005>
231.783020019531

> <r_mmod_Improper_Torsional_Energy-OPLS-2005>
3.04711103439331

> <r_mmod_Van_der_Waal_Energy-OPLS-2005>
123.677459716797

> <r_mmod_Electrostatic_Energy-OPLS-2005>
-230.841552734375

> <r_mmod_Solvation_Energy-OPLS-2005>
-408.727996826172

> <b_mmod_Minimization_Converged-OPLS-2005>
0

> <r_mmod_RMS_Derivative-OPLS-2005>
7.20820331573486

$$$$
12
                    3D
 Structure written by MMmdl.
164171  0  0  1  0            999 V2000
  -30.6532  -14.5147   20.5611 C   0  0  0  0  0  0
  -30.4385  -12.3326   19.4180 C   0  0  0  0  0  0
  -29.5019  -12.5164   18.2043 C   0  0  0  0  0  0
  -28.0211  -12.3728   18.6116 C   0  0  0  0  0  0
  -27.6638  -13.2053   19.8715 C   0  0  2  0  0  0
  -28.7083  -12.9756   20.9885 C   0  0  0  0  0  0
  -25.2624  -13.8151   20.5660 C   0  0  0  0  0  0
  -24.1872  -13.0434   20.9160 C   0  0  0  0  0  0
  -24.6422  -11.6896   20.8720 C   0  0  0  0  0  0
  -23.9081  -10.4287   21.0400 C   0  0  0  0  0  0
  -24.3635   -9.4202   21.9178 C   0  0  0  0  0  0
  -23.6300   -8.2243   22.0752 C   0  0  0  0  0  0
  -22.4282   -8.0278   21.3544 C   0  0  0  0  0  0
  -21.9917   -9.0256   20.4651 C   0  0  0  0  0  0
  -22.7254  -10.2130   20.3052 C   0  0  0  0  0  0
  -21.6852   -6.0731   22.5266 C   0  0  0  0  0  0
  -21.4020   -6.5638   23.8204 C   0  0  0  0  0  0
  -21.3665   -5.6791   24.9163 C   0  0  0  0  0  0
  -21.6040   -4.3053   24.7214 C   0  0  0  0  0  0
  -21.8832   -3.8143   23.4338 C   0  0  0  0  0  0
  -21.9204   -4.6956   22.3392 C   0  0  0  0  0  0
  -22.7892  -13.5241   21.1806 C   0  0  0  0  0  0
  -22.1669   -4.2146   21.0964 F   0  0  0  0  0  0
  -21.5624   -3.4534   25.7727 F   0  0  0  0  0  0
  -30.0340  -13.3080   20.4408 N   0  0  0  0  0  0
  -26.3049  -12.9317   20.3337 N   0  0  0  0  0  0
  -25.9351  -11.6480   20.5756 N   0  0  0  0  0  0
  -22.0530  -12.8249   22.0372 N   0  0  0  0  0  0
  -25.4352  -15.1874   20.4067 N   0  0  0  0  0  0
  -31.7868  -14.7375   20.1240 O   0  0  0  0  0  0
  -21.6646   -6.8873   21.4231 O   0  0  0  0  0  0
  -22.3577  -14.5533   20.6628 O   0  0  0  0  0  0
  -24.6176  -31.8677   23.2090 C   0  0  0  0  0  0
  -25.9066  -32.4830   23.8383 C   0  0  1  0  0  0
  -27.2297  -27.4020   20.1057 C   0  0  0  0  0  0
  -25.5929  -33.8623   24.2324 N   0  0  0  0  0  0
  -23.4062  -30.4913   21.5511 C   0  0  2  0  0  0
  -24.8514  -28.9534   20.1169 C   0  0  0  0  0  0
  -22.7420  -29.4657   22.4990 C   0  0  0  0  0  0
  -18.0269  -28.1385   22.8495 C   0  0  0  0  0  0
  -24.1479  -36.7296   23.2639 C   0  0  0  0  0  0
  -25.9386  -30.8230   21.3643 C   0  0  0  0  0  0
  -26.0147  -29.4538   20.7144 C   0  0  0  0  0  0
  -27.2098  -28.6906   20.6994 C   0  0  0  0  0  0
  -26.0438  -26.9239   19.5092 C   0  0  0  0  0  0
  -24.8632  -27.6877   19.5080 C   0  0  0  0  0  0
  -23.6156  -29.8255   20.1655 C   0  0  0  0  0  0
  -25.4105  -36.3116   24.0346 C   0  0  1  0  0  0
  -20.5861  -28.3668   23.1324 C   0  0  2  0  0  0
  -20.6757  -26.9408   22.5419 C   0  0  0  0  0  0
  -19.5728  -26.6392   21.5220 C   0  0  0  0  0  0
  -18.1906  -26.7925   22.1636 C   0  0  0  0  0  0
  -19.1518  -28.8843   23.2904 C   0  0  0  0  0  0
  -18.9455  -30.1456   23.8902 C   0  0  0  0  0  0
  -17.6455  -30.6595   24.0581 C   0  0  0  0  0  0
  -25.9045  -34.9489   23.5130 C   0  0  0  0  0  0
  -16.5351  -29.9106   23.6343 C   0  0  0  0  0  0
  -16.7255  -28.6527   23.0339 C   0  0  0  0  0  0
  -26.4486  -31.6604   25.0713 C   0  0  0  0  0  0
  -25.3745  -31.3708   26.1456 C   0  0  0  0  0  0
  -27.0316  -30.3050   24.6087 C   0  0  0  0  0  0
  -27.6069  -32.4316   25.7475 C   0  0  0  0  0  0
  -27.5575  -37.1803   24.8480 C   0  0  0  0  0  0
  -21.4147  -29.3041   22.3737 N   0  0  0  0  0  0
  -26.4285  -37.3813   23.9430 N   0  0  0  0  0  0
  -24.6732  -31.0751   22.1001 N   0  0  0  0  0  0
  -23.4188  -28.8202   23.3039 O   0  0  0  0  0  0
  -28.3866  -26.6407   20.0719 O   0  0  0  0  0  0
  -26.5606  -34.8948   22.4691 O   0  0  0  0  0  0
  -23.5359  -32.1437   23.7465 O   0  0  0  0  0  0
  -31.1232  -20.3528   19.8808 C   0  0  0  0  0  0
  -27.6603  -23.9540   18.5636 C   0  0  0  0  0  0
  -30.0787  -24.4708   18.9855 C   0  0  0  0  0  0
  -29.6879  -17.6443   19.6973 C   0  0  0  0  0  0
  -28.9293  -19.0128   19.7167 C   0  0  0  0  0  0
  -30.0516  -16.9647   21.0463 C   0  0  0  0  0  0
  -28.9075  -22.7771   20.4804 C   0  0  0  0  0  0
  -28.3195  -25.2951   20.6157 C   0  0  0  0  0  0
  -29.6245  -20.3192   20.2236 C   0  0  2  0  0  0
  -28.7363  -24.1167   19.6584 C   0  0  0  0  0  0
  -29.8581  -15.4992   21.0309 N   0  0  0  0  0  0
  -28.9466  -21.5284   19.6557 N   0  3  0  0  0  0
  -31.4794  -12.4581   19.1163 H   0  0  0  0  0  0
  -30.3637  -11.3198   19.8147 H   0  0  0  0  0  0
  -29.7455  -11.7891   17.4288 H   0  0  0  0  0  0
  -29.6654  -13.4999   17.7611 H   0  0  0  0  0  0
  -27.8298  -11.3163   18.7989 H   0  0  0  0  0  0
  -27.3738  -12.6534   17.7800 H   0  0  0  0  0  0
  -27.7071  -14.2541   19.5781 H   0  0  0  0  0  0
  -28.6991  -11.9328   21.3106 H   0  0  0  0  0  0
  -28.4670  -13.5545   21.8808 H   0  0  0  0  0  0
  -25.2787   -9.5666   22.4749 H   0  0  0  0  0  0
  -23.9993   -7.4645   22.7487 H   0  0  0  0  0  0
  -21.0832   -8.8794   19.8980 H   0  0  0  0  0  0
  -22.3721  -10.9666   19.6154 H   0  0  0  0  0  0
  -21.2015   -7.6148   23.9703 H   0  0  0  0  0  0
  -21.1468   -6.0515   25.9066 H   0  0  0  0  0  0
  -22.0610   -2.7601   23.2836 H   0  0  0  0  0  0
  -22.4145  -11.9923   22.4775 H   0  0  0  0  0  0
  -21.1147  -13.1286   22.2560 H   0  0  0  0  0  0
  -24.6659  -15.8406   20.5093 H   0  0  0  0  0  0
  -26.2864  -15.6264   20.0773 H   0  0  0  0  0  0
  -26.7130  -32.5533   23.1132 H   0  0  0  0  0  0
  -25.0124  -33.9806   25.0495 H   0  0  0  0  0  0
  -22.6934  -31.3068   21.4121 H   0  0  0  0  0  0
  -23.3764  -35.9610   23.3326 H   0  0  0  0  0  0
  -24.3563  -36.8878   22.2048 H   0  0  0  0  0  0
  -23.7202  -37.6496   23.6631 H   0  0  0  0  0  0
  -26.0484  -31.5814   20.5881 H   0  0  0  0  0  0
  -26.8287  -30.8814   21.9795 H   0  0  0  0  0  0
  -28.1078  -29.0800   21.1585 H   0  0  0  0  0  0
  -26.0161  -25.9589   19.0339 H   0  0  0  0  0  0
  -23.9733  -27.2948   19.0363 H   0  0  0  0  0  0
  -23.7294  -30.6022   19.4076 H   0  0  0  0  0  0
  -22.7388  -29.2481   19.8663 H   0  0  0  0  0  0
  -25.1271  -36.1977   25.0837 H   0  0  0  0  0  0
  -20.9940  -28.3218   24.1449 H   0  0  0  0  0  0
  -20.5664  -26.2280   23.3604 H   0  0  0  0  0  0
  -21.6632  -26.7460   22.1212 H   0  0  0  0  0  0
  -19.6911  -25.6307   21.1234 H   0  0  0  0  0  0
  -19.6671  -27.3222   20.6758 H   0  0  0  0  0  0
  -17.4188  -26.6671   21.4036 H   0  0  0  0  0  0
  -18.0323  -26.0060   22.9020 H   0  0  0  0  0  0
  -19.7935  -30.7269   24.2260 H   0  0  0  0  0  0
  -17.5028  -31.6275   24.5183 H   0  0  0  0  0  0
  -15.5355  -30.3023   23.7668 H   0  0  0  0  0  0
  -15.8645  -28.0879   22.7022 H   0  0  0  0  0  0
  -24.5938  -30.7046   25.7772 H   0  0  0  0  0  0
  -24.8928  -32.2859   26.4905 H   0  0  0  0  0  0
  -25.8096  -30.8867   27.0206 H   0  0  0  0  0  0
  -26.2850  -29.6810   24.1162 H   0  0  0  0  0  0
  -27.4103  -29.7301   25.4547 H   0  0  0  0  0  0
  -27.8684  -30.4388   23.9229 H   0  0  0  0  0  0
  -27.2716  -33.3617   26.2076 H   0  0  0  0  0  0
  -28.3867  -32.6858   25.0287 H   0  0  0  0  0  0
  -28.0751  -31.8416   26.5362 H   0  0  0  0  0  0
  -28.2614  -38.0081   24.7528 H   0  0  0  0  0  0
  -28.1040  -36.2614   24.6292 H   0  0  0  0  0  0
  -27.2301  -37.1443   25.8886 H   0  0  0  0  0  0
  -20.9296  -29.8788   21.6987 H   0  0  0  0  0  0
  -26.0170  -38.2890   24.1440 H   0  0  0  0  0  0
  -31.5953  -21.2717   20.2291 H   0  0  0  0  0  0
  -31.2908  -20.2764   18.8065 H   0  0  0  0  0  0
  -31.6529  -19.5267   20.3547 H   0  0  0  0  0  0
  -27.9003  -23.1667   17.8493 H   0  0  0  0  0  0
  -27.5651  -24.8669   17.9753 H   0  0  0  0  0  0
  -26.6833  -23.7234   18.9908 H   0  0  0  0  0  0
  -30.4022  -23.6970   18.2888 H   0  0  0  0  0  0
  -30.8727  -24.6069   19.7206 H   0  0  0  0  0  0
  -30.0047  -25.3995   18.4177 H   0  0  0  0  0  0
  -30.5842  -17.7287   19.0813 H   0  0  0  0  0  0
  -29.0409  -16.9596   19.1458 H   0  0  0  0  0  0
  -27.9938  -18.8834   20.2629 H   0  0  0  0  0  0
  -28.6265  -19.1842   18.6826 H   0  0  0  0  0  0
  -29.4125  -17.3622   21.8349 H   0  0  0  0  0  0
  -31.0754  -17.2078   21.3330 H   0  0  0  0  0  0
  -28.0869  -22.6654   21.1902 H   0  0  0  0  0  0
  -29.8135  -22.8382   21.0863 H   0  0  0  0  0  0
  -28.9937  -25.2912   21.4731 H   0  0  0  0  0  0
  -27.3340  -25.0889   21.0379 H   0  0  0  0  0  0
  -29.5224  -20.3431   21.3096 H   0  0  0  0  0  0
  -28.9578  -15.1814   21.3584 H   0  0  0  0  0  0
  -29.3805  -21.7344   18.7716 H   0  0  0  0  0  0
  -27.9875  -21.2845   19.4660 H   0  0  0  0  0  0
  1 25  1  0  0  0
  1 30  2  0  0  0
  1 81  1  0  0  0
  2  3  1  0  0  0
  2 25  1  0  0  0
  2 83  1  0  0  0
  2 84  1  0  0  0
  3  4  1  0  0  0
  3 85  1  0  0  0
  3 86  1  0  0  0
  4  5  1  0  0  0
  4 87  1  0  0  0
  4 88  1  0  0  0
  5  6  1  0  0  0
  5 26  1  0  0  0
  5 89  1  0  0  0
  6 25  1  0  0  0
  6 90  1  0  0  0
  6 91  1  0  0  0
  7  8  2  0  0  0
  7 26  1  0  0  0
  7 29  1  0  0  0
  8  9  1  0  0  0
  8 22  1  0  0  0
  9 10  1  0  0  0
  9 27  2  0  0  0
 10 11  2  0  0  0
 10 15  1  0  0  0
 11 12  1  0  0  0
 11 92  1  0  0  0
 12 13  2  0  0  0
 12 93  1  0  0  0
 13 14  1  0  0  0
 13 31  1  0  0  0
 14 15  2  0  0  0
 14 94  1  0  0  0
 15 95  1  0  0  0
 16 17  2  0  0  0
 16 21  1  0  0  0
 16 31  1  0  0  0
 17 18  1  0  0  0
 17 96  1  0  0  0
 18 19  2  0  0  0
 18 97  1  0  0  0
 19 20  1  0  0  0
 19 24  1  0  0  0
 20 21  2  0  0  0
 20 98  1  0  0  0
 21 23  1  0  0  0
 22 28  1  0  0  0
 22 32  2  0  0  0
 26 27  1  0  0  0
 28 99  1  0  0  0
 28100  1  0  0  0
 29101  1  0  0  0
 29102  1  0  0  0
 33 34  1  0  0  0
 33 66  1  0  0  0
 33 70  2  0  0  0
 34 36  1  0  0  0
 34 59  1  0  0  0
 34103  1  0  0  0
 35 44  2  0  0  0
 35 45  1  0  0  0
 35 68  1  0  0  0
 36 56  1  0  0  0
 36104  1  0  0  0
 37 39  1  0  0  0
 37 47  1  0  0  0
 37 66  1  0  0  0
 37105  1  0  0  0
 38 43  2  0  0  0
 38 46  1  0  0  0
 38 47  1  0  0  0
 39 64  1  0  0  0
 39 67  2  0  0  0
 40 52  1  0  0  0
 40 53  2  0  0  0
 40 58  1  0  0  0
 41106  1  0  0  0
 41107  1  0  0  0
 41108  1  0  0  0
 41 48  1  0  0  0
 42 43  1  0  0  0
 42 66  1  0  0  0
 42109  1  0  0  0
 42110  1  0  0  0
 43 44  1  0  0  0
 44111  1  0  0  0
 45 46  2  0  0  0
 45112  1  0  0  0
 46113  1  0  0  0
 47114  1  0  0  0
 47115  1  0  0  0
 48 56  1  0  0  0
 48 65  1  0  0  0
 48116  1  0  0  0
 49 50  1  0  0  0
 49 53  1  0  0  0
 49 64  1  0  0  0
 49117  1  0  0  0
 50 51  1  0  0  0
 50118  1  0  0  0
 50119  1  0  0  0
 51 52  1  0  0  0
 51120  1  0  0  0
 51121  1  0  0  0
 52122  1  0  0  0
 52123  1  0  0  0
 53 54  1  0  0  0
 54 55  2  0  0  0
 54124  1  0  0  0
 55 57  1  0  0  0
 55125  1  0  0  0
 56 69  2  0  0  0
 57 58  2  0  0  0
 57126  1  0  0  0
 58127  1  0  0  0
 59 60  1  0  0  0
 59 61  1  0  0  0
 59 62  1  0  0  0
 60128  1  0  0  0
 60129  1  0  0  0
 60130  1  0  0  0
 61131  1  0  0  0
 61132  1  0  0  0
 61133  1  0  0  0
 62134  1  0  0  0
 62135  1  0  0  0
 62136  1  0  0  0
 63 65  1  0  0  0
 63137  1  0  0  0
 63138  1  0  0  0
 63139  1  0  0  0
 64140  1  0  0  0
 65141  1  0  0  0
 68 78  1  0  0  0
 71142  1  0  0  0
 71143  1  0  0  0
 71144  1  0  0  0
 71 79  1  0  0  0
 72145  1  0  0  0
 72146  1  0  0  0
 72147  1  0  0  0
 72 80  1  0  0  0
 73 80  1  0  0  0
 73148  1  0  0  0
 73149  1  0  0  0
 73150  1  0  0  0
 74 75  1  0  0  0
 74 76  1  0  0  0
 74151  1  0  0  0
 74152  1  0  0  0
 75 79  1  0  0  0
 75153  1  0  0  0
 75154  1  0  0  0
 76 81  1  0  0  0
 76155  1  0  0  0
 76156  1  0  0  0
 77 80  1  0  0  0
 77 82  1  0  0  0
 77157  1  0  0  0
 77158  1  0  0  0
 78 80  1  0  0  0
 78159  1  0  0  0
 78160  1  0  0  0
 79 82  1  0  0  0
 79161  1  0  0  0
 81162  1  0  0  0
 82163  1  0  0  0
 82164  1  0  0  0
M  CHG  1  82   1
M  ISO  4   1 100  68 101  78 101  81 100
M  END
> <chiral flag>
0

> <version>
0

> <s_m_source_file>
/data/baiqing/PycharmProjects/Reinvent-master-3.2/result/LINK_invent/BTK/process_docking_weight1_custom_sum_contain_oxygen_bond_distance_aromatic_linkinvent_7_9_3/rearranged_h_0083.sdf

> <i_m_source_file_index>
13

> <r_mmod_Potential_Energy-OPLS-2005>
-157.252532958984

> <r_mmod_Stretch_Energy-OPLS-2005>
46.8420791625977

> <r_mmod_Bend_Energy-OPLS-2005>
118.363433837891

> <r_mmod_Torsional_Energy-OPLS-2005>
263.131225585938

> <r_mmod_Improper_Torsional_Energy-OPLS-2005>
4.13963842391968

> <r_mmod_Van_der_Waal_Energy-OPLS-2005>
126.586166381836

> <r_mmod_Electrostatic_Energy-OPLS-2005>
-275.920349121094

> <r_mmod_Solvation_Energy-OPLS-2005>
-457.91455078125

> <b_mmod_Minimization_Converged-OPLS-2005>
0

> <r_mmod_RMS_Derivative-OPLS-2005>
2.21837592124939

$$$$
13
                    3D
 Structure written by MMmdl.
161169  0  0  1  0            999 V2000
  -30.6823  -14.4740   20.5562 C   0  0  0  0  0  0
  -30.4219  -12.3068   19.4207 C   0  0  0  0  0  0
  -29.4953  -12.5189   18.2049 C   0  0  0  0  0  0
  -28.0142  -12.3763   18.6119 C   0  0  0  0  0  0
  -27.6605  -13.2033   19.8763 C   0  0  2  0  0  0
  -28.7020  -12.9800   20.9966 C   0  0  0  0  0  0
  -25.2589  -13.8153   20.5678 C   0  0  0  0  0  0
  -24.1842  -13.0438   20.9186 C   0  0  0  0  0  0
  -24.6392  -11.6908   20.8755 C   0  0  0  0  0  0
  -23.9063  -10.4299   21.0411 C   0  0  0  0  0  0
  -24.3628   -9.4217   21.9179 C   0  0  0  0  0  0
  -23.6308   -8.2255   22.0744 C   0  0  0  0  0  0
  -22.4280   -8.0292   21.3546 C   0  0  0  0  0  0
  -21.9925   -9.0252   20.4641 C   0  0  0  0  0  0
  -22.7238  -10.2139   20.3049 C   0  0  0  0  0  0
  -21.6844   -6.0753   22.5287 C   0  0  0  0  0  0
  -21.4008   -6.5652   23.8220 C   0  0  0  0  0  0
  -21.3662   -5.6798   24.9179 C   0  0  0  0  0  0
  -21.6050   -4.3061   24.7214 C   0  0  0  0  0  0
  -21.8821   -3.8164   23.4330 C   0  0  0  0  0  0
  -21.9196   -4.6992   22.3397 C   0  0  0  0  0  0
  -22.7872  -13.5236   21.1848 C   0  0  0  0  0  0
  -22.1657   -4.2191   21.0971 F   0  0  0  0  0  0
  -21.5637   -3.4538   25.7718 F   0  0  0  0  0  0
  -30.0310  -13.2862   20.4443 N   0  0  0  0  0  0
  -26.3026  -12.9319   20.3368 N   0  0  0  0  0  0
  -25.9311  -11.6490   20.5772 N   0  0  0  0  0  0
  -22.0518  -12.8216   22.0407 N   0  0  0  0  0  0
  -25.4326  -15.1863   20.4063 N   0  0  0  0  0  0
  -31.8195  -14.6579   20.1147 O   0  0  0  0  0  0
  -21.6631   -6.8895   21.4247 O   0  0  0  0  0  0
  -22.3570  -14.5544   20.6684 O   0  0  0  0  0  0
  -24.6139  -31.8681   23.2119 C   0  0  0  0  0  0
  -25.9049  -32.4826   23.8379 C   0  0  1  0  0  0
  -27.1983  -27.4176   20.1162 C   0  0  0  0  0  0
  -25.5921  -33.8623   24.2313 N   0  0  0  0  0  0
  -23.3987  -30.4963   21.5532 C   0  0  2  0  0  0
  -24.8409  -28.9718   20.1015 C   0  0  0  0  0  0
  -22.7398  -29.4656   22.4980 C   0  0  0  0  0  0
  -18.0278  -28.1365   22.8491 C   0  0  0  0  0  0
  -24.1502  -36.7308   23.2633 C   0  0  0  0  0  0
  -25.9294  -30.8297   21.3677 C   0  0  0  0  0  0
  -26.0014  -29.4689   20.7081 C   0  0  0  0  0  0
  -27.1900  -28.7004   20.7102 C   0  0  0  0  0  0
  -26.0296  -26.9440   19.4861 C   0  0  0  0  0  0
  -24.8517  -27.7128   19.4787 C   0  0  0  0  0  0
  -23.6035  -29.8420   20.1607 C   0  0  0  0  0  0
  -25.4118  -36.3104   24.0330 C   0  0  1  0  0  0
  -20.5859  -28.3640   23.1311 C   0  0  2  0  0  0
  -20.6778  -26.9380   22.5407 C   0  0  0  0  0  0
  -19.5768  -26.6369   21.5201 C   0  0  0  0  0  0
  -18.1936  -26.7914   22.1604 C   0  0  0  0  0  0
  -19.1521  -28.8818   23.2910 C   0  0  0  0  0  0
  -18.9453  -30.1423   23.8928 C   0  0  0  0  0  0
  -17.6456  -30.6584   24.0555 C   0  0  0  0  0  0
  -25.9034  -34.9475   23.5117 C   0  0  0  0  0  0
  -16.5351  -29.9086   23.6323 C   0  0  0  0  0  0
  -16.7257  -28.6495   23.0355 C   0  0  0  0  0  0
  -26.4467  -31.6609   25.0712 C   0  0  0  0  0  0
  -25.3722  -31.3749   26.1453 C   0  0  0  0  0  0
  -27.0294  -30.3055   24.6088 C   0  0  0  0  0  0
  -27.6050  -32.4313   25.7483 C   0  0  0  0  0  0
  -27.5590  -37.1808   24.8460 C   0  0  0  0  0  0
  -21.4118  -29.3020   22.3729 N   0  0  0  0  0  0
  -26.4308  -37.3783   23.9396 N   0  0  0  0  0  0
  -24.6660  -31.0768   22.1039 N   0  0  0  0  0  0
  -23.4189  -28.8179   23.2997 O   0  0  0  0  0  0
  -28.3115  -26.6099   20.1711 O   0  0  0  0  0  0
  -26.5588  -34.8925   22.4669 O   0  0  0  0  0  0
  -23.5337  -32.1444   23.7518 O   0  0  0  0  0  0
  -30.6589  -21.8461   19.6326 C   0  0  0  0  0  0
  -29.0078  -20.3114   20.4915 C   0  0  0  0  0  0
  -29.4641  -21.6470   20.3519 C   0  0  0  0  0  0
  -31.3212  -20.7413   19.0731 C   0  0  0  0  0  0
  -29.7571  -19.2484   19.9244 C   0  0  0  0  0  0
  -32.5726  -20.9366   18.2467 C   0  0  0  0  0  0
  -29.1290  -17.1475   18.6462 C   0  0  0  0  0  0
  -28.7267  -22.8356   20.9914 C   0  0  0  0  0  0
  -28.7276  -24.1555   20.1633 C   0  0  0  0  0  0
  -30.2734  -16.9314   20.9560 C   0  0  0  0  0  0
  -28.0959  -25.3692   20.8852 C   0  0  0  0  0  0
  -29.3272  -17.7733   20.0428 C   0  0  1  0  0  0
  -30.8910  -19.4735   19.2231 N   0  0  0  0  0  0
  -29.9340  -15.4933   21.0171 N   0  0  0  0  0  0
  -31.4668  -12.4054   19.1236 H   0  0  0  0  0  0
  -30.3178  -11.2929   19.8128 H   0  0  0  0  0  0
  -29.7406  -11.8098   17.4135 H   0  0  0  0  0  0
  -29.6614  -13.5126   17.7842 H   0  0  0  0  0  0
  -27.8137  -11.3175   18.7870 H   0  0  0  0  0  0
  -27.3694  -12.6741   17.7838 H   0  0  0  0  0  0
  -27.7002  -14.2519   19.5881 H   0  0  0  0  0  0
  -28.6781  -11.9421   21.3293 H   0  0  0  0  0  0
  -28.4692  -13.5781   21.8797 H   0  0  0  0  0  0
  -25.2782   -9.5689   22.4746 H   0  0  0  0  0  0
  -24.0046   -7.4636   22.7428 H   0  0  0  0  0  0
  -21.0874   -8.8737   19.8929 H   0  0  0  0  0  0
  -22.3685  -10.9674   19.6167 H   0  0  0  0  0  0
  -21.1980   -7.6151   23.9732 H   0  0  0  0  0  0
  -21.1494   -6.0520   25.9081 H   0  0  0  0  0  0
  -22.0604   -2.7632   23.2794 H   0  0  0  0  0  0
  -22.4113  -11.9874   22.4804 H   0  0  0  0  0  0
  -21.1129  -13.1236   22.2601 H   0  0  0  0  0  0
  -24.6625  -15.8392   20.4993 H   0  0  0  0  0  0
  -26.2784  -15.6214   20.0630 H   0  0  0  0  0  0
  -26.7111  -32.5510   23.1122 H   0  0  0  0  0  0
  -25.0130  -33.9784   25.0499 H   0  0  0  0  0  0
  -22.6876  -31.3159   21.4246 H   0  0  0  0  0  0
  -23.3765  -35.9645   23.3310 H   0  0  0  0  0  0
  -24.3598  -36.8900   22.2046 H   0  0  0  0  0  0
  -23.7259  -37.6521   23.6630 H   0  0  0  0  0  0
  -26.0443  -31.5996   20.6038 H   0  0  0  0  0  0
  -26.8156  -30.8728   21.9893 H   0  0  0  0  0  0
  -28.0799  -29.0710   21.1995 H   0  0  0  0  0  0
  -26.0198  -25.9700   19.0196 H   0  0  0  0  0  0
  -23.9632  -27.3292   18.9973 H   0  0  0  0  0  0
  -23.7097  -30.6275   19.4115 H   0  0  0  0  0  0
  -22.7237  -29.2692   19.8611 H   0  0  0  0  0  0
  -25.1306  -36.1970   25.0828 H   0  0  0  0  0  0
  -20.9932  -28.3187   24.1438 H   0  0  0  0  0  0
  -20.5677  -26.2239   23.3579 H   0  0  0  0  0  0
  -21.6649  -26.7444   22.1200 H   0  0  0  0  0  0
  -19.6934  -25.6275   21.1244 H   0  0  0  0  0  0
  -19.6736  -27.3173   20.6731 H   0  0  0  0  0  0
  -17.4209  -26.6655   21.4005 H   0  0  0  0  0  0
  -18.0356  -26.0045   22.8994 H   0  0  0  0  0  0
  -19.7932  -30.7221   24.2323 H   0  0  0  0  0  0
  -17.5023  -31.6280   24.5128 H   0  0  0  0  0  0
  -15.5350  -30.3007   23.7630 H   0  0  0  0  0  0
  -15.8654  -28.0818   22.7071 H   0  0  0  0  0  0
  -24.5863  -30.7145   25.7769 H   0  0  0  0  0  0
  -24.8969  -32.2942   26.4893 H   0  0  0  0  0  0
  -25.8040  -30.8895   27.0213 H   0  0  0  0  0  0
  -26.2844  -29.6838   24.1115 H   0  0  0  0  0  0
  -27.4046  -29.7265   25.4534 H   0  0  0  0  0  0
  -27.8685  -30.4391   23.9257 H   0  0  0  0  0  0
  -27.2670  -33.3580   26.2131 H   0  0  0  0  0  0
  -28.3833  -32.6919   25.0301 H   0  0  0  0  0  0
  -28.0750  -31.8401   26.5352 H   0  0  0  0  0  0
  -28.2602  -38.0109   24.7496 H   0  0  0  0  0  0
  -28.1094  -36.2637   24.6307 H   0  0  0  0  0  0
  -27.2303  -37.1474   25.8862 H   0  0  0  0  0  0
  -20.9244  -29.8775   21.6997 H   0  0  0  0  0  0
  -26.0204  -38.2865   24.1398 H   0  0  0  0  0  0
  -31.0765  -22.8324   19.5011 H   0  0  0  0  0  0
  -28.0989  -20.0967   21.0379 H   0  0  0  0  0  0
  -33.0686  -21.8731   18.5058 H   0  0  0  0  0  0
  -32.3285  -20.9698   17.1847 H   0  0  0  0  0  0
  -33.2761  -20.1217   18.4171 H   0  0  0  0  0  0
  -28.4729  -17.7677   18.0353 H   0  0  0  0  0  0
  -28.6792  -16.1585   18.7062 H   0  0  0  0  0  0
  -30.0758  -17.0475   18.1132 H   0  0  0  0  0  0
  -29.1821  -23.0200   21.9655 H   0  0  0  0  0  0
  -27.6980  -22.5383   21.1970 H   0  0  0  0  0  0
  -28.2104  -23.9891   19.2179 H   0  0  0  0  0  0
  -29.7483  -24.4350   19.9179 H   0  0  0  0  0  0
  -30.2390  -17.3291   21.9712 H   0  0  0  0  0  0
  -31.3027  -17.0670   20.6218 H   0  0  0  0  0  0
  -28.5416  -25.4831   21.8741 H   0  0  0  0  0  0
  -27.0425  -25.1555   21.0775 H   0  0  0  0  0  0
  -28.3471  -17.7766   20.5177 H   0  0  0  0  0  0
  -29.0148  -15.2558   21.3577 H   0  0  0  0  0  0
  1 25  1  0  0  0
  1 30  2  0  0  0
  1 84  1  0  0  0
  2  3  1  0  0  0
  2 25  1  0  0  0
  2 85  1  0  0  0
  2 86  1  0  0  0
  3  4  1  0  0  0
  3 87  1  0  0  0
  3 88  1  0  0  0
  4  5  1  0  0  0
  4 89  1  0  0  0
  4 90  1  0  0  0
  5  6  1  0  0  0
  5 26  1  0  0  0
  5 91  1  0  0  0
  6 25  1  0  0  0
  6 92  1  0  0  0
  6 93  1  0  0  0
  7  8  2  0  0  0
  7 26  1  0  0  0
  7 29  1  0  0  0
  8  9  1  0  0  0
  8 22  1  0  0  0
  9 10  1  0  0  0
  9 27  2  0  0  0
 10 11  2  0  0  0
 10 15  1  0  0  0
 11 12  1  0  0  0
 11 94  1  0  0  0
 12 13  2  0  0  0
 12 95  1  0  0  0
 13 14  1  0  0  0
 13 31  1  0  0  0
 14 15  2  0  0  0
 14 96  1  0  0  0
 15 97  1  0  0  0
 16 17  2  0  0  0
 16 21  1  0  0  0
 16 31  1  0  0  0
 17 18  1  0  0  0
 17 98  1  0  0  0
 18 19  2  0  0  0
 18 99  1  0  0  0
 19 20  1  0  0  0
 19 24  1  0  0  0
 20 21  2  0  0  0
 20100  1  0  0  0
 21 23  1  0  0  0
 22 28  1  0  0  0
 22 32  2  0  0  0
 26 27  1  0  0  0
 28101  1  0  0  0
 28102  1  0  0  0
 29103  1  0  0  0
 29104  1  0  0  0
 33 34  1  0  0  0
 33 66  1  0  0  0
 33 70  2  0  0  0
 34 36  1  0  0  0
 34 59  1  0  0  0
 34105  1  0  0  0
 35 44  2  0  0  0
 35 45  1  0  0  0
 35 68  1  0  0  0
 36 56  1  0  0  0
 36106  1  0  0  0
 37 39  1  0  0  0
 37 47  1  0  0  0
 37 66  1  0  0  0
 37107  1  0  0  0
 38 43  2  0  0  0
 38 46  1  0  0  0
 38 47  1  0  0  0
 39 64  1  0  0  0
 39 67  2  0  0  0
 40 52  1  0  0  0
 40 53  2  0  0  0
 40 58  1  0  0  0
 41108  1  0  0  0
 41109  1  0  0  0
 41110  1  0  0  0
 41 48  1  0  0  0
 42 43  1  0  0  0
 42 66  1  0  0  0
 42111  1  0  0  0
 42112  1  0  0  0
 43 44  1  0  0  0
 44113  1  0  0  0
 45 46  2  0  0  0
 45114  1  0  0  0
 46115  1  0  0  0
 47116  1  0  0  0
 47117  1  0  0  0
 48 56  1  0  0  0
 48 65  1  0  0  0
 48118  1  0  0  0
 49 50  1  0  0  0
 49 53  1  0  0  0
 49 64  1  0  0  0
 49119  1  0  0  0
 50 51  1  0  0  0
 50120  1  0  0  0
 50121  1  0  0  0
 51 52  1  0  0  0
 51122  1  0  0  0
 51123  1  0  0  0
 52124  1  0  0  0
 52125  1  0  0  0
 53 54  1  0  0  0
 54 55  2  0  0  0
 54126  1  0  0  0
 55 57  1  0  0  0
 55127  1  0  0  0
 56 69  2  0  0  0
 57 58  2  0  0  0
 57128  1  0  0  0
 58129  1  0  0  0
 59 60  1  0  0  0
 59 61  1  0  0  0
 59 62  1  0  0  0
 60130  1  0  0  0
 60131  1  0  0  0
 60132  1  0  0  0
 61133  1  0  0  0
 61134  1  0  0  0
 61135  1  0  0  0
 62136  1  0  0  0
 62137  1  0  0  0
 62138  1  0  0  0
 63 65  1  0  0  0
 63139  1  0  0  0
 63140  1  0  0  0
 63141  1  0  0  0
 64142  1  0  0  0
 65143  1  0  0  0
 68 81  1  0  0  0
 71 73  2  0  0  0
 71 74  1  0  0  0
 71144  1  0  0  0
 72 73  1  0  0  0
 72 75  2  0  0  0
 72145  1  0  0  0
 73 78  1  0  0  0
 74 76  1  0  0  0
 74 83  2  0  0  0
 75 82  1  0  0  0
 75 83  1  0  0  0
 76146  1  0  0  0
 76147  1  0  0  0
 76148  1  0  0  0
 77149  1  0  0  0
 77150  1  0  0  0
 77151  1  0  0  0
 77 82  1  0  0  0
 78 79  1  0  0  0
 78152  1  0  0  0
 78153  1  0  0  0
 79 81  1  0  0  0
 79154  1  0  0  0
 79155  1  0  0  0
 80 82  1  0  0  0
 80 84  1  0  0  0
 80156  1  0  0  0
 80157  1  0  0  0
 81158  1  0  0  0
 81159  1  0  0  0
 82160  1  0  0  0
 84161  1  0  0  0
M  ISO  4   1 100  68 101  81 101  84 100
M  END
> <chiral flag>
0

> <version>
0

> <s_m_source_file>
/data/baiqing/PycharmProjects/Reinvent-master-3.2/result/LINK_invent/BTK/process_docking_weight1_custom_sum_contain_oxygen_bond_distance_aromatic_linkinvent_7_9_3/rearranged_h_0083.sdf

> <i_m_source_file_index>
14

> <r_mmod_Potential_Energy-OPLS-2005>
-259.954864501953

> <r_mmod_Stretch_Energy-OPLS-2005>
39.0413551330566

> <r_mmod_Bend_Energy-OPLS-2005>
89.8553085327148

> <r_mmod_Torsional_Energy-OPLS-2005>
210.275512695312

> <r_mmod_Improper_Torsional_Energy-OPLS-2005>
4.32397079467773

> <r_mmod_Van_der_Waal_Energy-OPLS-2005>
152.904174804688

> <r_mmod_Electrostatic_Energy-OPLS-2005>
-553.132751464844

> <r_mmod_Solvation_Energy-OPLS-2005>
-221.301162719727

> <b_mmod_Minimization_Converged-OPLS-2005>
0

> <r_mmod_RMS_Derivative-OPLS-2005>
3.33321523666382

$$$$
14
                    3D
 Structure written by MMmdl.
164172  0  0  1  0            999 V2000
  -30.5435  -14.9713   20.4024 C   0  0  0  0  0  0
  -30.4345  -12.6008   19.5072 C   0  0  0  0  0  0
  -29.5235  -12.5324   18.2596 C   0  0  0  0  0  0
  -28.0557  -12.3169   18.6736 C   0  0  0  0  0  0
  -27.6261  -13.2540   19.8328 C   0  0  2  0  0  0
  -28.6655  -13.3014   20.9728 C   0  0  0  0  0  0
  -25.2445  -13.8234   20.5704 C   0  0  0  0  0  0
  -24.1770  -13.0446   20.9225 C   0  0  0  0  0  0
  -24.6393  -11.6934   20.8748 C   0  0  0  0  0  0
  -23.9081  -10.4298   21.0406 C   0  0  0  0  0  0
  -24.3633   -9.4212   21.9181 C   0  0  0  0  0  0
  -23.6307   -8.2247   22.0752 C   0  0  0  0  0  0
  -22.4286   -8.0285   21.3545 C   0  0  0  0  0  0
  -21.9923   -9.0259   20.4645 C   0  0  0  0  0  0
  -22.7255  -10.2137   20.3053 C   0  0  0  0  0  0
  -21.6855   -6.0742   22.5286 C   0  0  0  0  0  0
  -21.4014   -6.5644   23.8219 C   0  0  0  0  0  0
  -21.3657   -5.6792   24.9178 C   0  0  0  0  0  0
  -21.6041   -4.3056   24.7227 C   0  0  0  0  0  0
  -21.8818   -3.8153   23.4345 C   0  0  0  0  0  0
  -21.9194   -4.6969   22.3403 C   0  0  0  0  0  0
  -22.7789  -13.5210   21.1883 C   0  0  0  0  0  0
  -22.1661   -4.2158   21.0977 F   0  0  0  0  0  0
  -21.5628   -3.4535   25.7735 F   0  0  0  0  0  0
  -29.9400  -13.7125   20.3730 N   0  0  0  0  0  0
  -26.2867  -12.9474   20.3211 N   0  0  0  0  0  0
  -25.9323  -11.6598   20.5716 N   0  0  0  0  0  0
  -22.0436  -12.8196   22.0431 N   0  0  0  0  0  0
  -25.4090  -15.1966   20.4140 N   0  0  0  0  0  0
  -31.7504  -15.0063   20.1405 O   0  0  0  0  0  0
  -21.6642   -6.8891   21.4248 O   0  0  0  0  0  0
  -22.3466  -14.5505   20.6718 O   0  0  0  0  0  0
  -24.6459  -31.8425   23.1863 C   0  0  0  0  0  0
  -25.9222  -32.4686   23.8260 C   0  0  1  0  0  0
  -27.2103  -27.1114   20.1514 C   0  0  0  0  0  0
  -25.5959  -33.8492   24.2177 N   0  0  0  0  0  0
  -23.4499  -30.4614   21.5341 C   0  0  2  0  0  0
  -24.8961  -28.8847   20.1101 C   0  0  0  0  0  0
  -22.7583  -29.4535   22.4866 C   0  0  0  0  0  0
  -18.0310  -28.1405   22.8480 C   0  0  0  0  0  0
  -24.1484  -36.7241   23.2644 C   0  0  0  0  0  0
  -26.0075  -30.7076   21.3879 C   0  0  0  0  0  0
  -26.0762  -29.3168   20.7285 C   0  0  0  0  0  0
  -27.2352  -28.4485   20.7289 C   0  0  0  0  0  0
  -26.0016  -26.7857   19.4966 C   0  0  0  0  0  0
  -24.8734  -27.6335   19.4764 C   0  0  0  0  0  0
  -23.6749  -29.7911   20.1530 C   0  0  0  0  0  0
  -25.4118  -36.3020   24.0316 C   0  0  1  0  0  0
  -20.5926  -28.3717   23.1245 C   0  0  2  0  0  0
  -20.6796  -26.9422   22.5408 C   0  0  0  0  0  0
  -19.5765  -26.6386   21.5218 C   0  0  0  0  0  0
  -18.1946  -26.7943   22.1626 C   0  0  0  0  0  0
  -19.1570  -28.8882   23.2850 C   0  0  0  0  0  0
  -18.9482  -30.1486   23.8862 C   0  0  0  0  0  0
  -17.6478  -30.6596   24.0564 C   0  0  0  0  0  0
  -25.9077  -34.9401   23.5057 C   0  0  0  0  0  0
  -16.5368  -29.9086   23.6350 C   0  0  0  0  0  0
  -16.7298  -28.6511   23.0356 C   0  0  0  0  0  0
  -26.4528  -31.6568   25.0715 C   0  0  0  0  0  0
  -25.3697  -31.3778   26.1405 C   0  0  0  0  0  0
  -27.0411  -30.2965   24.6316 C   0  0  0  0  0  0
  -27.6057  -32.4336   25.7500 C   0  0  0  0  0  0
  -27.5572  -37.1778   24.8464 C   0  0  0  0  0  0
  -21.4274  -29.3040   22.3617 N   0  0  0  0  0  0
  -26.4275  -37.3739   23.9416 N   0  0  0  0  0  0
  -24.7213  -31.0255   22.0906 N   0  0  0  0  0  0
  -23.4218  -28.8093   23.3032 O   0  0  0  0  0  0
  -28.2573  -26.1126   20.2111 O   0  0  0  0  0  0
  -26.5660  -34.8905   22.4634 O   0  0  0  0  0  0
  -23.5576  -32.1320   23.7071 O   0  0  0  0  0  0
  -27.3952  -21.2060   20.5431 C   0  0  0  0  0  0
  -28.7226  -21.6346   20.3460 C   0  0  0  0  0  0
  -29.6611  -20.4777   20.2617 C   0  0  0  0  0  0
  -27.0544  -19.8278   20.6401 C   0  0  0  0  0  0
  -29.2518  -19.0414   20.3548 C   0  0  0  0  0  0
  -31.8289  -21.1034   21.4150 C   0  0  0  0  0  0
  -24.5487  -20.4812   20.8556 C   0  0  0  0  0  0
  -30.3851  -17.6237   18.5565 C   0  0  0  0  0  0
  -29.0536  -23.2706   20.2958 C   0  0  0  0  0  0
  -31.1393  -20.7985   20.0810 C   0  0  0  0  0  0
  -25.6166  -19.3745   20.8812 C   0  0  0  0  0  0
  -27.9665  -24.5685   20.1418 C   0  0  0  0  0  0
  -30.1586  -17.6742   20.0820 C   0  0  2  0  0  0
  -27.9385  -18.7990   20.5377 N   0  0  0  0  0  0
  -29.7904  -16.1826   20.4868 N   0  0  0  0  0  0
  -31.4700  -12.7513   19.1986 H   0  0  0  0  0  0
  -30.4211  -11.6550   20.0505 H   0  0  0  0  0  0
  -29.8501  -11.7318   17.5944 H   0  0  0  0  0  0
  -29.6108  -13.4597   17.6912 H   0  0  0  0  0  0
  -27.9521  -11.2766   18.9845 H   0  0  0  0  0  0
  -27.3959  -12.4454   17.8143 H   0  0  0  0  0  0
  -27.5832  -14.2520   19.3953 H   0  0  0  0  0  0
  -28.7542  -12.3325   21.4662 H   0  0  0  0  0  0
  -28.3593  -14.0152   21.7391 H   0  0  0  0  0  0
  -25.2782   -9.5685   22.4753 H   0  0  0  0  0  0
  -24.0020   -7.4633   22.7466 H   0  0  0  0  0  0
  -21.0861   -8.8781   19.8944 H   0  0  0  0  0  0
  -22.3725  -10.9675   19.6158 H   0  0  0  0  0  0
  -21.2005   -7.6153   23.9726 H   0  0  0  0  0  0
  -21.1479   -6.0520   25.9083 H   0  0  0  0  0  0
  -22.0597   -2.7616   23.2838 H   0  0  0  0  0  0
  -22.4066  -11.9874   22.4839 H   0  0  0  0  0  0
  -21.1039  -13.1204   22.2609 H   0  0  0  0  0  0
  -24.6361  -15.8434   20.5263 H   0  0  0  0  0  0
  -26.2521  -15.6437   20.0781 H   0  0  0  0  0  0
  -26.7296  -32.5272   23.0995 H   0  0  0  0  0  0
  -25.0091  -33.9603   25.0315 H   0  0  0  0  0  0
  -22.7533  -31.2883   21.3817 H   0  0  0  0  0  0
  -23.3754  -35.9562   23.3283 H   0  0  0  0  0  0
  -24.3574  -36.8894   22.2063 H   0  0  0  0  0  0
  -23.7228  -37.6424   23.6696 H   0  0  0  0  0  0
  -26.1694  -31.4622   20.6169 H   0  0  0  0  0  0
  -26.8761  -30.7552   22.0334 H   0  0  0  0  0  0
  -28.1349  -28.7767   21.2317 H   0  0  0  0  0  0
  -25.8912  -25.8313   19.0054 H   0  0  0  0  0  0
  -23.9733  -27.2987   18.9785 H   0  0  0  0  0  0
  -23.8136  -30.5673   19.3993 H   0  0  0  0  0  0
  -22.7873  -29.2371   19.8418 H   0  0  0  0  0  0
  -25.1312  -36.1835   25.0807 H   0  0  0  0  0  0
  -21.0024  -28.3297   24.1364 H   0  0  0  0  0  0
  -20.5701  -26.2323   23.3623 H   0  0  0  0  0  0
  -21.6663  -26.7435   22.1200 H   0  0  0  0  0  0
  -19.6918  -25.6289   21.1266 H   0  0  0  0  0  0
  -19.6708  -27.3189   20.6741 H   0  0  0  0  0  0
  -17.4225  -26.6704   21.4017 H   0  0  0  0  0  0
  -18.0332  -26.0092   22.9028 H   0  0  0  0  0  0
  -19.7953  -30.7327   24.2199 H   0  0  0  0  0  0
  -17.5024  -31.6268   24.5181 H   0  0  0  0  0  0
  -15.5366  -30.2973   23.7692 H   0  0  0  0  0  0
  -15.8701  -28.0827   22.7070 H   0  0  0  0  0  0
  -24.5876  -30.7124   25.7730 H   0  0  0  0  0  0
  -24.8881  -32.2968   26.4753 H   0  0  0  0  0  0
  -25.7966  -30.9002   27.0233 H   0  0  0  0  0  0
  -26.3049  -29.6669   24.1305 H   0  0  0  0  0  0
  -27.4013  -29.7281   25.4901 H   0  0  0  0  0  0
  -27.8954  -30.4215   23.9658 H   0  0  0  0  0  0
  -27.2661  -33.3666   26.2012 H   0  0  0  0  0  0
  -28.3901  -32.6852   25.0348 H   0  0  0  0  0  0
  -28.0687  -31.8496   26.5465 H   0  0  0  0  0  0
  -28.2583  -38.0082   24.7525 H   0  0  0  0  0  0
  -28.1076  -36.2617   24.6272 H   0  0  0  0  0  0
  -27.2298  -37.1402   25.8868 H   0  0  0  0  0  0
  -20.9490  -29.8726   21.6775 H   0  0  0  0  0  0
  -26.0132  -38.2798   24.1429 H   0  0  0  0  0  0
  -26.6298  -21.9620   20.6363 H   0  0  0  0  0  0
  -32.8821  -21.3399   21.2604 H   0  0  0  0  0  0
  -31.7771  -20.2475   22.0883 H   0  0  0  0  0  0
  -31.3724  -21.9549   21.9198 H   0  0  0  0  0  0
  -23.5559  -20.0613   21.0165 H   0  0  0  0  0  0
  -24.5360  -20.9950   19.8942 H   0  0  0  0  0  0
  -24.7196  -21.2199   21.6393 H   0  0  0  0  0  0
  -30.7505  -18.5708   18.1633 H   0  0  0  0  0  0
  -29.4500  -17.4092   18.0386 H   0  0  0  0  0  0
  -31.1090  -16.8625   18.2676 H   0  0  0  0  0  0
  -29.7787  -23.3995   19.4931 H   0  0  0  0  0  0
  -29.6176  -23.4648   21.2066 H   0  0  0  0  0  0
  -31.2520  -21.6444   19.4022 H   0  0  0  0  0  0
  -31.6609  -19.9743   19.5993 H   0  0  0  0  0  0
  -25.5773  -18.8662   21.8455 H   0  0  0  0  0  0
  -25.3626  -18.6238   20.1318 H   0  0  0  0  0  0
  -27.1893  -24.4000   20.8880 H   0  0  0  0  0  0
  -27.4814  -24.3976   19.1817 H   0  0  0  0  0  0
  -31.1201  -17.8653   20.5598 H   0  0  0  0  0  0
  -28.8173  -16.0681   20.7271 H   0  0  0  0  0  0
  1 25  1  0  0  0
  1 30  2  0  0  0
  1 85  1  0  0  0
  2  3  1  0  0  0
  2 25  1  0  0  0
  2 86  1  0  0  0
  2 87  1  0  0  0
  3  4  1  0  0  0
  3 88  1  0  0  0
  3 89  1  0  0  0
  4  5  1  0  0  0
  4 90  1  0  0  0
  4 91  1  0  0  0
  5  6  1  0  0  0
  5 26  1  0  0  0
  5 92  1  0  0  0
  6 25  1  0  0  0
  6 93  1  0  0  0
  6 94  1  0  0  0
  7  8  2  0  0  0
  7 26  1  0  0  0
  7 29  1  0  0  0
  8  9  1  0  0  0
  8 22  1  0  0  0
  9 10  1  0  0  0
  9 27  2  0  0  0
 10 11  2  0  0  0
 10 15  1  0  0  0
 11 12  1  0  0  0
 11 95  1  0  0  0
 12 13  2  0  0  0
 12 96  1  0  0  0
 13 14  1  0  0  0
 13 31  1  0  0  0
 14 15  2  0  0  0
 14 97  1  0  0  0
 15 98  1  0  0  0
 16 17  2  0  0  0
 16 21  1  0  0  0
 16 31  1  0  0  0
 17 18  1  0  0  0
 17 99  1  0  0  0
 18 19  2  0  0  0
 18100  1  0  0  0
 19 20  1  0  0  0
 19 24  1  0  0  0
 20 21  2  0  0  0
 20101  1  0  0  0
 21 23  1  0  0  0
 22 28  1  0  0  0
 22 32  2  0  0  0
 26 27  1  0  0  0
 28102  1  0  0  0
 28103  1  0  0  0
 29104  1  0  0  0
 29105  1  0  0  0
 33 34  1  0  0  0
 33 66  1  0  0  0
 33 70  2  0  0  0
 34 36  1  0  0  0
 34 59  1  0  0  0
 34106  1  0  0  0
 35 44  2  0  0  0
 35 45  1  0  0  0
 35 68  1  0  0  0
 36 56  1  0  0  0
 36107  1  0  0  0
 37 39  1  0  0  0
 37 47  1  0  0  0
 37 66  1  0  0  0
 37108  1  0  0  0
 38 43  2  0  0  0
 38 46  1  0  0  0
 38 47  1  0  0  0
 39 64  1  0  0  0
 39 67  2  0  0  0
 40 52  1  0  0  0
 40 53  2  0  0  0
 40 58  1  0  0  0
 41109  1  0  0  0
 41110  1  0  0  0
 41111  1  0  0  0
 41 48  1  0  0  0
 42 43  1  0  0  0
 42 66  1  0  0  0
 42112  1  0  0  0
 42113  1  0  0  0
 43 44  1  0  0  0
 44114  1  0  0  0
 45 46  2  0  0  0
 45115  1  0  0  0
 46116  1  0  0  0
 47117  1  0  0  0
 47118  1  0  0  0
 48 56  1  0  0  0
 48 65  1  0  0  0
 48119  1  0  0  0
 49 50  1  0  0  0
 49 53  1  0  0  0
 49 64  1  0  0  0
 49120  1  0  0  0
 50 51  1  0  0  0
 50121  1  0  0  0
 50122  1  0  0  0
 51 52  1  0  0  0
 51123  1  0  0  0
 51124  1  0  0  0
 52125  1  0  0  0
 52126  1  0  0  0
 53 54  1  0  0  0
 54 55  2  0  0  0
 54127  1  0  0  0
 55 57  1  0  0  0
 55128  1  0  0  0
 56 69  2  0  0  0
 57 58  2  0  0  0
 57129  1  0  0  0
 58130  1  0  0  0
 59 60  1  0  0  0
 59 61  1  0  0  0
 59 62  1  0  0  0
 60131  1  0  0  0
 60132  1  0  0  0
 60133  1  0  0  0
 61134  1  0  0  0
 61135  1  0  0  0
 61136  1  0  0  0
 62137  1  0  0  0
 62138  1  0  0  0
 62139  1  0  0  0
 63 65  1  0  0  0
 63140  1  0  0  0
 63141  1  0  0  0
 63142  1  0  0  0
 64143  1  0  0  0
 65144  1  0  0  0
 68 82  1  0  0  0
 71 72  2  0  0  0
 71 74  1  0  0  0
 71145  1  0  0  0
 72 73  1  0  0  0
 72 79  1  0  0  0
 73 75  2  0  0  0
 73 80  1  0  0  0
 74 81  1  0  0  0
 74 84  2  0  0  0
 75 83  1  0  0  0
 75 84  1  0  0  0
 76 80  1  0  0  0
 76146  1  0  0  0
 76147  1  0  0  0
 76148  1  0  0  0
 77 81  1  0  0  0
 77149  1  0  0  0
 77150  1  0  0  0
 77151  1  0  0  0
 78152  1  0  0  0
 78153  1  0  0  0
 78154  1  0  0  0
 78 83  1  0  0  0
 79 82  1  0  0  0
 79155  1  0  0  0
 79156  1  0  0  0
 80157  1  0  0  0
 80158  1  0  0  0
 81159  1  0  0  0
 81160  1  0  0  0
 82161  1  0  0  0
 82162  1  0  0  0
 83 85  1  0  0  0
 83163  1  0  0  0
 85164  1  0  0  0
M  ISO  4   1 100  68 101  82 101  85 100
M  END
> <chiral flag>
0

> <version>
0

> <s_m_source_file>
/data/baiqing/PycharmProjects/Reinvent-master-3.2/result/LINK_invent/BTK/process_docking_weight1_custom_sum_contain_oxygen_bond_distance_aromatic_linkinvent_7_9_3/rearranged_h_0083.sdf

> <i_m_source_file_index>
15

> <r_mmod_Potential_Energy-OPLS-2005>
251.716430664062

> <r_mmod_Stretch_Energy-OPLS-2005>
282.380340576172

> <r_mmod_Bend_Energy-OPLS-2005>
253.951690673828

> <r_mmod_Torsional_Energy-OPLS-2005>
200.666809082031

> <r_mmod_Improper_Torsional_Energy-OPLS-2005>
5.82099676132202

> <r_mmod_Van_der_Waal_Energy-OPLS-2005>
128.266540527344

> <r_mmod_Electrostatic_Energy-OPLS-2005>
-621.871520996094

> <r_mmod_Solvation_Energy-OPLS-2005>
-208.694351196289

> <b_mmod_Minimization_Converged-OPLS-2005>
0

> <r_mmod_RMS_Derivative-OPLS-2005>
1.18895423412323

$$$$
15
                    3D
 Structure written by MMmdl.
166174  0  0  1  0            999 V2000
  -30.5956  -14.7524   20.4541 C   0  0  0  0  0  0
  -30.4369  -12.4578   19.4810 C   0  0  0  0  0  0
  -29.5134  -12.5128   18.2415 C   0  0  0  0  0  0
  -28.0374  -12.3368   18.6500 C   0  0  0  0  0  0
  -27.6448  -13.2294   19.8576 C   0  0  2  0  0  0
  -28.6877  -13.1557   20.9961 C   0  0  0  0  0  0
  -25.2512  -13.8182   20.5649 C   0  0  0  0  0  0
  -24.1814  -13.0436   20.9171 C   0  0  0  0  0  0
  -24.6396  -11.6906   20.8740 C   0  0  0  0  0  0
  -23.9074  -10.4283   21.0407 C   0  0  0  0  0  0
  -24.3625   -9.4199   21.9183 C   0  0  0  0  0  0
  -23.6311   -8.2232   22.0755 C   0  0  0  0  0  0
  -22.4292   -8.0274   21.3537 C   0  0  0  0  0  0
  -21.9916   -9.0243   20.4637 C   0  0  0  0  0  0
  -22.7245  -10.2123   20.3059 C   0  0  0  0  0  0
  -21.6863   -6.0739   22.5282 C   0  0  0  0  0  0
  -21.4012   -6.5647   23.8209 C   0  0  0  0  0  0
  -21.3664   -5.6797   24.9174 C   0  0  0  0  0  0
  -21.6055   -4.3059   24.7227 C   0  0  0  0  0  0
  -21.8821   -3.8156   23.4344 C   0  0  0  0  0  0
  -21.9195   -4.6968   22.3402 C   0  0  0  0  0  0
  -22.7836  -13.5207   21.1848 C   0  0  0  0  0  0
  -22.1657   -4.2157   21.0977 F   0  0  0  0  0  0
  -21.5641   -3.4536   25.7735 F   0  0  0  0  0  0
  -29.9913  -13.5139   20.4200 N   0  0  0  0  0  0
  -26.2953  -12.9388   20.3299 N   0  0  0  0  0  0
  -25.9328  -11.6525   20.5754 N   0  0  0  0  0  0
  -22.0507  -12.8182   22.0399 N   0  0  0  0  0  0
  -25.4200  -15.1904   20.4051 N   0  0  0  0  0  0
  -31.7670  -14.8741   20.0866 O   0  0  0  0  0  0
  -21.6645   -6.8880   21.4243 O   0  0  0  0  0  0
  -22.3500  -14.5509   20.6699 O   0  0  0  0  0  0
  -24.6336  -31.8541   23.2003 C   0  0  0  0  0  0
  -25.9155  -32.4756   23.8335 C   0  0  1  0  0  0
  -27.2077  -27.2421   20.1234 C   0  0  0  0  0  0
  -25.5957  -33.8566   24.2257 N   0  0  0  0  0  0
  -23.4300  -30.4789   21.5444 C   0  0  2  0  0  0
  -24.8761  -28.9333   20.1065 C   0  0  0  0  0  0
  -22.7513  -29.4596   22.4908 C   0  0  0  0  0  0
  -18.0288  -28.1378   22.8467 C   0  0  0  0  0  0
  -24.1500  -36.7282   23.2631 C   0  0  0  0  0  0
  -25.9783  -30.7568   21.3897 C   0  0  0  0  0  0
  -26.0486  -29.3805   20.7281 C   0  0  0  0  0  0
  -27.2143  -28.5437   20.7359 C   0  0  0  0  0  0
  -26.0209  -26.8943   19.4329 C   0  0  0  0  0  0
  -24.8688  -27.6988   19.4469 C   0  0  0  0  0  0
  -23.6492  -29.8200   20.1580 C   0  0  0  0  0  0
  -25.4130  -36.3079   24.0318 C   0  0  1  0  0  0
  -20.5895  -28.3692   23.1263 C   0  0  2  0  0  0
  -20.6789  -26.9408   22.5402 C   0  0  0  0  0  0
  -19.5779  -26.6374   21.5198 C   0  0  0  0  0  0
  -18.1948  -26.7916   22.1606 C   0  0  0  0  0  0
  -19.1540  -28.8853   23.2850 C   0  0  0  0  0  0
  -18.9464  -30.1447   23.8874 C   0  0  0  0  0  0
  -17.6467  -30.6578   24.0557 C   0  0  0  0  0  0
  -25.9068  -34.9443   23.5085 C   0  0  0  0  0  0
  -16.5359  -29.9072   23.6331 C   0  0  0  0  0  0
  -16.7275  -28.6493   23.0346 C   0  0  0  0  0  0
  -26.4515  -31.6586   25.0733 C   0  0  0  0  0  0
  -25.3708  -31.3751   26.1437 C   0  0  0  0  0  0
  -27.0379  -30.2998   24.6249 C   0  0  0  0  0  0
  -27.6071  -32.4322   25.7505 C   0  0  0  0  0  0
  -27.5593  -37.1803   24.8461 C   0  0  0  0  0  0
  -21.4216  -29.3043   22.3653 N   0  0  0  0  0  0
  -26.4303  -37.3781   23.9406 N   0  0  0  0  0  0
  -24.6991  -31.0479   22.1007 N   0  0  0  0  0  0
  -23.4202  -28.8114   23.2997 O   0  0  0  0  0  0
  -28.2756  -26.3073   20.2152 O   0  0  0  0  0  0
  -26.5628  -34.8924   22.4652 O   0  0  0  0  0  0
  -23.5486  -32.1393   23.7282 O   0  0  0  0  0  0
  -30.7315  -23.3751   19.3768 C   0  0  0  0  0  0
  -29.7071  -22.6272   19.9967 C   0  0  0  0  0  0
  -31.7758  -22.7220   18.6932 C   0  0  0  0  0  0
  -29.8604  -21.1591   19.9252 C   0  0  0  0  0  0
  -34.2320  -22.7468   18.0218 C   0  0  0  0  0  0
  -33.1258  -24.8949   18.5645 C   0  0  0  0  0  0
  -32.4872  -23.6638   16.4686 C   0  0  0  0  0  0
  -28.6107  -23.5328   20.6796 C   0  0  0  0  0  0
  -28.9309  -19.9941   20.4390 C   0  0  0  0  0  0
  -29.5017  -18.5797   21.0401 C   0  0  0  0  0  0
  -29.9527  -17.3048   20.1453 C   0  0  0  0  0  0
  -28.0014  -24.8461   19.9272 C   0  0  0  0  0  0
  -32.8832  -23.4970   17.9470 C   0  0  0  0  0  0
  -31.7901  -21.3732   18.5814 N   0  0  0  0  0  0
  -30.8704  -20.6245   19.1931 N   0  0  0  0  0  0
  -29.8002  -15.8689   20.6748 N   0  0  0  0  0  0
  -31.4790  -12.5868   19.1807 H   0  0  0  0  0  0
  -30.3864  -11.4782   19.9578 H   0  0  0  0  0  0
  -29.7965  -11.7425   17.5235 H   0  0  0  0  0  0
  -29.6381  -13.4666   17.7260 H   0  0  0  0  0  0
  -27.8854  -11.2861   18.8972 H   0  0  0  0  0  0
  -27.3827  -12.5421   17.8023 H   0  0  0  0  0  0
  -27.6396  -14.2523   19.4810 H   0  0  0  0  0  0
  -28.7200  -12.1546   21.4294 H   0  0  0  0  0  0
  -28.4198  -13.8284   21.8128 H   0  0  0  0  0  0
  -25.2779   -9.5678   22.4741 H   0  0  0  0  0  0
  -24.0041   -7.4620   22.7453 H   0  0  0  0  0  0
  -21.0860   -8.8751   19.8928 H   0  0  0  0  0  0
  -22.3714  -10.9659   19.6158 H   0  0  0  0  0  0
  -21.1996   -7.6152   23.9708 H   0  0  0  0  0  0
  -21.1489   -6.0530   25.9074 H   0  0  0  0  0  0
  -22.0599   -2.7619   23.2835 H   0  0  0  0  0  0
  -22.4182  -11.9881   22.4801 H   0  0  0  0  0  0
  -21.1112  -13.1160   22.2606 H   0  0  0  0  0  0
  -24.6461  -15.8387   20.5092 H   0  0  0  0  0  0
  -26.2638  -15.6321   20.0627 H   0  0  0  0  0  0
  -26.7210  -32.5404   23.1064 H   0  0  0  0  0  0
  -25.0150  -33.9696   25.0437 H   0  0  0  0  0  0
  -22.7296  -31.3035   21.4008 H   0  0  0  0  0  0
  -23.3777  -35.9597   23.3280 H   0  0  0  0  0  0
  -24.3577  -36.8925   22.2046 H   0  0  0  0  0  0
  -23.7244  -37.6477   23.6662 H   0  0  0  0  0  0
  -26.1244  -31.5188   20.6230 H   0  0  0  0  0  0
  -26.8531  -30.8016   22.0260 H   0  0  0  0  0  0
  -28.1034  -28.8675   21.2592 H   0  0  0  0  0  0
  -25.9416  -25.9734   18.8762 H   0  0  0  0  0  0
  -23.9771  -27.3652   18.9341 H   0  0  0  0  0  0
  -23.7749  -30.5989   19.4056 H   0  0  0  0  0  0
  -22.7690  -29.2544   19.8485 H   0  0  0  0  0  0
  -25.1314  -36.1917   25.0808 H   0  0  0  0  0  0
  -20.9965  -28.3263   24.1399 H   0  0  0  0  0  0
  -20.5694  -26.2291   23.3598 H   0  0  0  0  0  0
  -21.6659  -26.7443   22.1205 H   0  0  0  0  0  0
  -19.6945  -25.6274   21.1253 H   0  0  0  0  0  0
  -19.6726  -27.3162   20.6709 H   0  0  0  0  0  0
  -17.4219  -26.6636   21.4005 H   0  0  0  0  0  0
  -18.0357  -26.0042   22.8995 H   0  0  0  0  0  0
  -19.7942  -30.7256   24.2245 H   0  0  0  0  0  0
  -17.5029  -31.6260   24.5157 H   0  0  0  0  0  0
  -15.5365  -30.2981   23.7666 H   0  0  0  0  0  0
  -15.8669  -28.0819   22.7083 H   0  0  0  0  0  0
  -24.5882  -30.7112   25.7746 H   0  0  0  0  0  0
  -24.8902  -32.2930   26.4834 H   0  0  0  0  0  0
  -25.7995  -30.8937   27.0233 H   0  0  0  0  0  0
  -26.2987  -29.6729   24.1259 H   0  0  0  0  0  0
  -27.4037  -29.7288   25.4792 H   0  0  0  0  0  0
  -27.8870  -30.4275   23.9529 H   0  0  0  0  0  0
  -27.2692  -33.3633   26.2068 H   0  0  0  0  0  0
  -28.3892  -32.6860   25.0331 H   0  0  0  0  0  0
  -28.0719  -31.8442   26.5435 H   0  0  0  0  0  0
  -28.2605  -38.0110   24.7537 H   0  0  0  0  0  0
  -28.1097  -36.2647   24.6253 H   0  0  0  0  0  0
  -27.2298  -37.1409   25.8857 H   0  0  0  0  0  0
  -20.9397  -29.8776   21.6873 H   0  0  0  0  0  0
  -26.0183  -38.2855   24.1406 H   0  0  0  0  0  0
  -30.6900  -24.4520   19.4192 H   0  0  0  0  0  0
  -34.5450  -22.5792   19.0526 H   0  0  0  0  0  0
  -35.0246  -23.3017   17.5192 H   0  0  0  0  0  0
  -34.1771  -21.7733   17.5327 H   0  0  0  0  0  0
  -33.3544  -24.8231   19.6290 H   0  0  0  0  0  0
  -32.2665  -25.5559   18.4545 H   0  0  0  0  0  0
  -33.9666  -25.4003   18.0876 H   0  0  0  0  0  0
  -32.3516  -22.6948   15.9872 H   0  0  0  0  0  0
  -33.2538  -24.2033   15.9112 H   0  0  0  0  0  0
  -31.5514  -24.2147   16.3677 H   0  0  0  0  0  0
  -28.9852  -23.8382   21.6558 H   0  0  0  0  0  0
  -27.7757  -22.8665   20.9001 H   0  0  0  0  0  0
  -28.2301  -19.7702   19.6351 H   0  0  0  0  0  0
  -28.3186  -20.4437   21.2219 H   0  0  0  0  0  0
  -28.6775  -18.1991   21.6463 H   0  0  0  0  0  0
  -30.2870  -18.8018   21.7636 H   0  0  0  0  0  0
  -30.9863  -17.4542   19.8302 H   0  0  0  0  0  0
  -29.3719  -17.3370   19.2228 H   0  0  0  0  0  0
  -26.9509  -24.7011   20.1743 H   0  0  0  0  0  0
  -28.0642  -24.6962   18.8481 H   0  0  0  0  0  0
  -28.8783  -15.6445   21.0210 H   0  0  0  0  0  0
  1 25  1  0  0  0
  1 30  2  0  0  0
  1 86  1  0  0  0
  2  3  1  0  0  0
  2 25  1  0  0  0
  2 87  1  0  0  0
  2 88  1  0  0  0
  3  4  1  0  0  0
  3 89  1  0  0  0
  3 90  1  0  0  0
  4  5  1  0  0  0
  4 91  1  0  0  0
  4 92  1  0  0  0
  5  6  1  0  0  0
  5 26  1  0  0  0
  5 93  1  0  0  0
  6 25  1  0  0  0
  6 94  1  0  0  0
  6 95  1  0  0  0
  7  8  2  0  0  0
  7 26  1  0  0  0
  7 29  1  0  0  0
  8  9  1  0  0  0
  8 22  1  0  0  0
  9 10  1  0  0  0
  9 27  2  0  0  0
 10 11  2  0  0  0
 10 15  1  0  0  0
 11 12  1  0  0  0
 11 96  1  0  0  0
 12 13  2  0  0  0
 12 97  1  0  0  0
 13 14  1  0  0  0
 13 31  1  0  0  0
 14 15  2  0  0  0
 14 98  1  0  0  0
 15 99  1  0  0  0
 16 17  2  0  0  0
 16 21  1  0  0  0
 16 31  1  0  0  0
 17 18  1  0  0  0
 17100  1  0  0  0
 18 19  2  0  0  0
 18101  1  0  0  0
 19 20  1  0  0  0
 19 24  1  0  0  0
 20 21  2  0  0  0
 20102  1  0  0  0
 21 23  1  0  0  0
 22 28  1  0  0  0
 22 32  2  0  0  0
 26 27  1  0  0  0
 28103  1  0  0  0
 28104  1  0  0  0
 29105  1  0  0  0
 29106  1  0  0  0
 33 34  1  0  0  0
 33 66  1  0  0  0
 33 70  2  0  0  0
 34 36  1  0  0  0
 34 59  1  0  0  0
 34107  1  0  0  0
 35 44  2  0  0  0
 35 45  1  0  0  0
 35 68  1  0  0  0
 36 56  1  0  0  0
 36108  1  0  0  0
 37 39  1  0  0  0
 37 47  1  0  0  0
 37 66  1  0  0  0
 37109  1  0  0  0
 38 43  2  0  0  0
 38 46  1  0  0  0
 38 47  1  0  0  0
 39 64  1  0  0  0
 39 67  2  0  0  0
 40 52  1  0  0  0
 40 53  2  0  0  0
 40 58  1  0  0  0
 41110  1  0  0  0
 41111  1  0  0  0
 41112  1  0  0  0
 41 48  1  0  0  0
 42 43  1  0  0  0
 42 66  1  0  0  0
 42113  1  0  0  0
 42114  1  0  0  0
 43 44  1  0  0  0
 44115  1  0  0  0
 45 46  2  0  0  0
 45116  1  0  0  0
 46117  1  0  0  0
 47118  1  0  0  0
 47119  1  0  0  0
 48 56  1  0  0  0
 48 65  1  0  0  0
 48120  1  0  0  0
 49 50  1  0  0  0
 49 53  1  0  0  0
 49 64  1  0  0  0
 49121  1  0  0  0
 50 51  1  0  0  0
 50122  1  0  0  0
 50123  1  0  0  0
 51 52  1  0  0  0
 51124  1  0  0  0
 51125  1  0  0  0
 52126  1  0  0  0
 52127  1  0  0  0
 53 54  1  0  0  0
 54 55  2  0  0  0
 54128  1  0  0  0
 55 57  1  0  0  0
 55129  1  0  0  0
 56 69  2  0  0  0
 57 58  2  0  0  0
 57130  1  0  0  0
 58131  1  0  0  0
 59 60  1  0  0  0
 59 61  1  0  0  0
 59 62  1  0  0  0
 60132  1  0  0  0
 60133  1  0  0  0
 60134  1  0  0  0
 61135  1  0  0  0
 61136  1  0  0  0
 61137  1  0  0  0
 62138  1  0  0  0
 62139  1  0  0  0
 62140  1  0  0  0
 63 65  1  0  0  0
 63141  1  0  0  0
 63142  1  0  0  0
 63143  1  0  0  0
 64144  1  0  0  0
 65145  1  0  0  0
 68 82  1  0  0  0
 71 72  2  0  0  0
 71 73  1  0  0  0
 71146  1  0  0  0
 72 74  1  0  0  0
 72 78  1  0  0  0
 73 83  1  0  0  0
 73 84  2  0  0  0
 74 79  1  0  0  0
 74 85  2  0  0  0
 75147  1  0  0  0
 75148  1  0  0  0
 75149  1  0  0  0
 75 83  1  0  0  0
 76 83  1  0  0  0
 76150  1  0  0  0
 76151  1  0  0  0
 76152  1  0  0  0
 77 83  1  0  0  0
 77153  1  0  0  0
 77154  1  0  0  0
 77155  1  0  0  0
 78 82  1  0  0  0
 78156  1  0  0  0
 78157  1  0  0  0
 79 80  1  0  0  0
 79158  1  0  0  0
 79159  1  0  0  0
 80 81  1  0  0  0
 80160  1  0  0  0
 80161  1  0  0  0
 81 86  1  0  0  0
 81162  1  0  0  0
 81163  1  0  0  0
 82164  1  0  0  0
 82165  1  0  0  0
 84 85  1  0  0  0
 86166  1  0  0  0
M  ISO  4   1 100  68 101  82 101  86 100
M  END
> <chiral flag>
0

> <version>
0

> <s_m_source_file>
/data/baiqing/PycharmProjects/Reinvent-master-3.2/result/LINK_invent/BTK/process_docking_weight1_custom_sum_contain_oxygen_bond_distance_aromatic_linkinvent_7_9_3/rearranged_h_0083.sdf

> <i_m_source_file_index>
16

> <r_mmod_Potential_Energy-OPLS-2005>
253.895309448242

> <r_mmod_Stretch_Energy-OPLS-2005>
140.076858520508

> <r_mmod_Bend_Energy-OPLS-2005>
230.282440185547

> <r_mmod_Torsional_Energy-OPLS-2005>
220.514923095703

> <r_mmod_Improper_Torsional_Energy-OPLS-2005>
6.91567087173462

> <r_mmod_Van_der_Waal_Energy-OPLS-2005>
152.653778076172

> <r_mmod_Electrostatic_Energy-OPLS-2005>
-359.634765625

> <r_mmod_Solvation_Energy-OPLS-2005>
-233.634613037109

> <b_mmod_Minimization_Converged-OPLS-2005>
0

> <r_mmod_RMS_Derivative-OPLS-2005>
2.59332895278931

$$$$
16
                    3D
 Structure written by MMmdl.
160168  0  0  1  0            999 V2000
  -30.6465  -14.7041   20.4665 C   0  0  0  0  0  0
  -30.4244  -12.4321   19.4676 C   0  0  0  0  0  0
  -29.5045  -12.4982   18.2303 C   0  0  0  0  0  0
  -28.0308  -12.3307   18.6463 C   0  0  0  0  0  0
  -27.6411  -13.2322   19.8487 C   0  0  2  0  0  0
  -28.6865  -13.1652   20.9831 C   0  0  0  0  0  0
  -25.2506  -13.8202   20.5696 C   0  0  0  0  0  0
  -24.1799  -13.0445   20.9210 C   0  0  0  0  0  0
  -24.6389  -11.6923   20.8747 C   0  0  0  0  0  0
  -23.9067  -10.4297   21.0404 C   0  0  0  0  0  0
  -24.3618   -9.4211   21.9181 C   0  0  0  0  0  0
  -23.6294   -8.2246   22.0751 C   0  0  0  0  0  0
  -22.4277   -8.0281   21.3541 C   0  0  0  0  0  0
  -21.9912   -9.0256   20.4646 C   0  0  0  0  0  0
  -22.7239  -10.2136   20.3054 C   0  0  0  0  0  0
  -21.6857   -6.0734   22.5276 C   0  0  0  0  0  0
  -21.4019   -6.5638   23.8210 C   0  0  0  0  0  0
  -21.3660   -5.6791   24.9171 C   0  0  0  0  0  0
  -21.6044   -4.3053   24.7224 C   0  0  0  0  0  0
  -21.8819   -3.8145   23.4345 C   0  0  0  0  0  0
  -21.9195   -4.6961   22.3401 C   0  0  0  0  0  0
  -22.7819  -13.5225   21.1867 C   0  0  0  0  0  0
  -22.1662   -4.2145   21.0979 F   0  0  0  0  0  0
  -21.5627   -3.4537   25.7736 F   0  0  0  0  0  0
  -29.9891  -13.4991   20.3963 N   0  0  0  0  0  0
  -26.2933  -12.9412   20.3280 N   0  0  0  0  0  0
  -25.9321  -11.6553   20.5752 N   0  0  0  0  0  0
  -22.0466  -12.8214   22.0424 N   0  0  0  0  0  0
  -25.4194  -15.1928   20.4111 N   0  0  0  0  0  0
  -31.8391  -14.7709   20.1610 O   0  0  0  0  0  0
  -21.6643   -6.8876   21.4238 O   0  0  0  0  0  0
  -22.3500  -14.5527   20.6710 O   0  0  0  0  0  0
  -24.6305  -31.8567   23.1999 C   0  0  0  0  0  0
  -25.9135  -32.4762   23.8340 C   0  0  1  0  0  0
  -27.2172  -27.2770   20.1225 C   0  0  0  0  0  0
  -25.5935  -33.8564   24.2265 N   0  0  0  0  0  0
  -23.4258  -30.4809   21.5435 C   0  0  2  0  0  0
  -24.8711  -28.9316   20.1106 C   0  0  0  0  0  0
  -22.7497  -29.4613   22.4919 C   0  0  0  0  0  0
  -18.0292  -28.1387   22.8484 C   0  0  0  0  0  0
  -24.1489  -36.7286   23.2640 C   0  0  0  0  0  0
  -25.9712  -30.7752   21.3767 C   0  0  0  0  0  0
  -26.0436  -29.3999   20.7167 C   0  0  0  0  0  0
  -27.2206  -28.5861   20.7094 C   0  0  0  0  0  0
  -26.0186  -26.8735   19.4904 C   0  0  0  0  0  0
  -24.8631  -27.6760   19.4870 C   0  0  0  0  0  0
  -23.6421  -29.8171   20.1589 C   0  0  0  0  0  0
  -25.4116  -36.3074   24.0327 C   0  0  1  0  0  0
  -20.5895  -28.3697   23.1270 C   0  0  2  0  0  0
  -20.6780  -26.9416   22.5406 C   0  0  0  0  0  0
  -19.5754  -26.6384   21.5210 C   0  0  0  0  0  0
  -18.1935  -26.7929   22.1624 C   0  0  0  0  0  0
  -19.1546  -28.8858   23.2872 C   0  0  0  0  0  0
  -18.9466  -30.1459   23.8892 C   0  0  0  0  0  0
  -17.6465  -30.6587   24.0562 C   0  0  0  0  0  0
  -25.9055  -34.9444   23.5097 C   0  0  0  0  0  0
  -16.5356  -29.9084   23.6331 C   0  0  0  0  0  0
  -16.7279  -28.6502   23.0352 C   0  0  0  0  0  0
  -26.4505  -31.6584   25.0726 C   0  0  0  0  0  0
  -25.3730  -31.3728   26.1446 C   0  0  0  0  0  0
  -27.0356  -30.3004   24.6206 C   0  0  0  0  0  0
  -27.6059  -32.4326   25.7500 C   0  0  0  0  0  0
  -27.5579  -37.1800   24.8467 C   0  0  0  0  0  0
  -21.4205  -29.3047   22.3661 N   0  0  0  0  0  0
  -26.4291  -37.3771   23.9408 N   0  0  0  0  0  0
  -24.6950  -31.0549   22.0965 N   0  0  0  0  0  0
  -23.4203  -28.8151   23.3010 O   0  0  0  0  0  0
  -28.3175  -26.3927   20.1768 O   0  0  0  0  0  0
  -26.5625  -34.8917   22.4665 O   0  0  0  0  0  0
  -23.5458  -32.1380   23.7304 O   0  0  0  0  0  0
  -31.9155  -19.8620   20.8208 C   0  0  0  0  0  0
  -31.5010  -22.0313   20.7434 C   0  0  0  0  0  0
  -32.5115  -21.1384   20.8950 C   0  0  0  0  0  0
  -30.5575  -19.9570   20.6306 C   0  0  0  0  0  0
  -33.9714  -21.4434   21.0991 C   0  0  0  0  0  0
  -28.8449  -18.6219   19.2576 C   0  0  0  0  0  0
  -29.2456  -23.8694   20.3752 C   0  0  0  0  0  0
  -29.0385  -22.2486   20.3401 C   0  0  0  0  0  0
  -30.5241  -17.2694   20.6907 C   0  0  0  0  0  0
  -28.0674  -24.9164   20.0754 C   0  0  0  0  0  0
  -29.6758  -18.6541   20.5451 C   0  0  1  0  0  0
  -30.2764  -21.3884   20.5608 N   0  0  0  0  0  0
  -29.9284  -15.8676   20.6757 N   0  0  0  0  0  0
  -31.4671  -12.5411   19.1645 H   0  0  0  0  0  0
  -30.3555  -11.4562   19.9507 H   0  0  0  0  0  0
  -29.7807  -11.7249   17.5122 H   0  0  0  0  0  0
  -29.6377  -13.4535   17.7201 H   0  0  0  0  0  0
  -27.8836  -11.2825   18.9094 H   0  0  0  0  0  0
  -27.3736  -12.5252   17.7980 H   0  0  0  0  0  0
  -27.6375  -14.2542   19.4691 H   0  0  0  0  0  0
  -28.7130  -12.1710   21.4314 H   0  0  0  0  0  0
  -28.4301  -13.8575   21.7864 H   0  0  0  0  0  0
  -25.2761   -9.5692   22.4757 H   0  0  0  0  0  0
  -24.0004   -7.4640   22.7471 H   0  0  0  0  0  0
  -21.0841   -8.8774   19.8954 H   0  0  0  0  0  0
  -22.3691  -10.9675   19.6165 H   0  0  0  0  0  0
  -21.2014   -7.6147   23.9712 H   0  0  0  0  0  0
  -21.1481   -6.0521   25.9073 H   0  0  0  0  0  0
  -22.0599   -2.7606   23.2846 H   0  0  0  0  0  0
  -22.4091  -11.9884   22.4822 H   0  0  0  0  0  0
  -21.1081  -13.1232   22.2626 H   0  0  0  0  0  0
  -24.6502  -15.8448   20.5201 H   0  0  0  0  0  0
  -26.2635  -15.6323   20.0679 H   0  0  0  0  0  0
  -26.7202  -32.5416   23.1083 H   0  0  0  0  0  0
  -25.0081  -33.9702   25.0410 H   0  0  0  0  0  0
  -22.7218  -31.3032   21.3995 H   0  0  0  0  0  0
  -23.3752  -35.9618   23.3303 H   0  0  0  0  0  0
  -24.3579  -36.8907   22.2054 H   0  0  0  0  0  0
  -23.7243  -37.6487   23.6663 H   0  0  0  0  0  0
  -26.1094  -31.5380   20.6093 H   0  0  0  0  0  0
  -26.8490  -30.8218   22.0097 H   0  0  0  0  0  0
  -28.1190  -28.9402   21.1952 H   0  0  0  0  0  0
  -25.9398  -25.9154   19.0004 H   0  0  0  0  0  0
  -23.9650  -27.3119   19.0070 H   0  0  0  0  0  0
  -23.7662  -30.5941   19.4038 H   0  0  0  0  0  0
  -22.7603  -29.2509   19.8539 H   0  0  0  0  0  0
  -25.1298  -36.1923   25.0820 H   0  0  0  0  0  0
  -20.9990  -28.3274   24.1390 H   0  0  0  0  0  0
  -20.5679  -26.2309   23.3610 H   0  0  0  0  0  0
  -21.6648  -26.7440   22.1201 H   0  0  0  0  0  0
  -19.6916  -25.6293   21.1244 H   0  0  0  0  0  0
  -19.6690  -27.3191   20.6736 H   0  0  0  0  0  0
  -17.4204  -26.6674   21.4028 H   0  0  0  0  0  0
  -18.0339  -26.0072   22.9023 H   0  0  0  0  0  0
  -19.7942  -30.7277   24.2259 H   0  0  0  0  0  0
  -17.5019  -31.6267   24.5165 H   0  0  0  0  0  0
  -15.5356  -30.2984   23.7657 H   0  0  0  0  0  0
  -15.8680  -28.0818   22.7070 H   0  0  0  0  0  0
  -24.5908  -30.7076   25.7772 H   0  0  0  0  0  0
  -24.8918  -32.2895   26.4866 H   0  0  0  0  0  0
  -25.8048  -30.8909   27.0226 H   0  0  0  0  0  0
  -26.2940  -29.6746   24.1226 H   0  0  0  0  0  0
  -27.4039  -29.7271   25.4724 H   0  0  0  0  0  0
  -27.8816  -30.4282   23.9449 H   0  0  0  0  0  0
  -27.2665  -33.3628   26.2068 H   0  0  0  0  0  0
  -28.3873  -32.6883   25.0331 H   0  0  0  0  0  0
  -28.0723  -31.8458   26.5423 H   0  0  0  0  0  0
  -28.2598  -38.0094   24.7509 H   0  0  0  0  0  0
  -28.1072  -36.2625   24.6299 H   0  0  0  0  0  0
  -27.2296  -37.1457   25.8870 H   0  0  0  0  0  0
  -20.9389  -29.8774   21.6870 H   0  0  0  0  0  0
  -26.0171  -38.2846   24.1404 H   0  0  0  0  0  0
  -32.4749  -18.9420   20.9107 H   0  0  0  0  0  0
  -31.5921  -23.1072   20.7507 H   0  0  0  0  0  0
  -34.5215  -21.3064   20.1677 H   0  0  0  0  0  0
  -34.4008  -20.7805   21.8509 H   0  0  0  0  0  0
  -34.1122  -22.4723   21.4316 H   0  0  0  0  0  0
  -28.1955  -19.4940   19.1851 H   0  0  0  0  0  0
  -28.2104  -17.7365   19.2204 H   0  0  0  0  0  0
  -29.4870  -18.6087   18.3766 H   0  0  0  0  0  0
  -30.0269  -24.1169   19.6570 H   0  0  0  0  0  0
  -29.6449  -24.1271   21.3563 H   0  0  0  0  0  0
  -28.6157  -21.9687   19.3750 H   0  0  0  0  0  0
  -28.2994  -21.9635   21.0891 H   0  0  0  0  0  0
  -31.0790  -17.3206   21.6285 H   0  0  0  0  0  0
  -31.2774  -17.2820   19.9009 H   0  0  0  0  0  0
  -27.2366  -24.6713   20.7387 H   0  0  0  0  0  0
  -27.7246  -24.7038   19.0627 H   0  0  0  0  0  0
  -28.9742  -18.6859   21.3795 H   0  0  0  0  0  0
  -28.9402  -15.7775   20.8582 H   0  0  0  0  0  0
  1 25  1  0  0  0
  1 30  2  0  0  0
  1 83  1  0  0  0
  2  3  1  0  0  0
  2 25  1  0  0  0
  2 84  1  0  0  0
  2 85  1  0  0  0
  3  4  1  0  0  0
  3 86  1  0  0  0
  3 87  1  0  0  0
  4  5  1  0  0  0
  4 88  1  0  0  0
  4 89  1  0  0  0
  5  6  1  0  0  0
  5 26  1  0  0  0
  5 90  1  0  0  0
  6 25  1  0  0  0
  6 91  1  0  0  0
  6 92  1  0  0  0
  7  8  2  0  0  0
  7 26  1  0  0  0
  7 29  1  0  0  0
  8  9  1  0  0  0
  8 22  1  0  0  0
  9 10  1  0  0  0
  9 27  2  0  0  0
 10 11  2  0  0  0
 10 15  1  0  0  0
 11 12  1  0  0  0
 11 93  1  0  0  0
 12 13  2  0  0  0
 12 94  1  0  0  0
 13 14  1  0  0  0
 13 31  1  0  0  0
 14 15  2  0  0  0
 14 95  1  0  0  0
 15 96  1  0  0  0
 16 17  2  0  0  0
 16 21  1  0  0  0
 16 31  1  0  0  0
 17 18  1  0  0  0
 17 97  1  0  0  0
 18 19  2  0  0  0
 18 98  1  0  0  0
 19 20  1  0  0  0
 19 24  1  0  0  0
 20 21  2  0  0  0
 20 99  1  0  0  0
 21 23  1  0  0  0
 22 28  1  0  0  0
 22 32  2  0  0  0
 26 27  1  0  0  0
 28100  1  0  0  0
 28101  1  0  0  0
 29102  1  0  0  0
 29103  1  0  0  0
 33 34  1  0  0  0
 33 66  1  0  0  0
 33 70  2  0  0  0
 34 36  1  0  0  0
 34 59  1  0  0  0
 34104  1  0  0  0
 35 44  2  0  0  0
 35 45  1  0  0  0
 35 68  1  0  0  0
 36 56  1  0  0  0
 36105  1  0  0  0
 37 39  1  0  0  0
 37 47  1  0  0  0
 37 66  1  0  0  0
 37106  1  0  0  0
 38 43  2  0  0  0
 38 46  1  0  0  0
 38 47  1  0  0  0
 39 64  1  0  0  0
 39 67  2  0  0  0
 40 52  1  0  0  0
 40 53  2  0  0  0
 40 58  1  0  0  0
 41107  1  0  0  0
 41108  1  0  0  0
 41109  1  0  0  0
 41 48  1  0  0  0
 42 43  1  0  0  0
 42 66  1  0  0  0
 42110  1  0  0  0
 42111  1  0  0  0
 43 44  1  0  0  0
 44112  1  0  0  0
 45 46  2  0  0  0
 45113  1  0  0  0
 46114  1  0  0  0
 47115  1  0  0  0
 47116  1  0  0  0
 48 56  1  0  0  0
 48 65  1  0  0  0
 48117  1  0  0  0
 49 50  1  0  0  0
 49 53  1  0  0  0
 49 64  1  0  0  0
 49118  1  0  0  0
 50 51  1  0  0  0
 50119  1  0  0  0
 50120  1  0  0  0
 51 52  1  0  0  0
 51121  1  0  0  0
 51122  1  0  0  0
 52123  1  0  0  0
 52124  1  0  0  0
 53 54  1  0  0  0
 54 55  2  0  0  0
 54125  1  0  0  0
 55 57  1  0  0  0
 55126  1  0  0  0
 56 69  2  0  0  0
 57 58  2  0  0  0
 57127  1  0  0  0
 58128  1  0  0  0
 59 60  1  0  0  0
 59 61  1  0  0  0
 59 62  1  0  0  0
 60129  1  0  0  0
 60130  1  0  0  0
 60131  1  0  0  0
 61132  1  0  0  0
 61133  1  0  0  0
 61134  1  0  0  0
 62135  1  0  0  0
 62136  1  0  0  0
 62137  1  0  0  0
 63 65  1  0  0  0
 63138  1  0  0  0
 63139  1  0  0  0
 63140  1  0  0  0
 64141  1  0  0  0
 65142  1  0  0  0
 68 80  1  0  0  0
 71 73  1  0  0  0
 71 74  2  0  0  0
 71143  1  0  0  0
 72 73  2  0  0  0
 72 82  1  0  0  0
 72144  1  0  0  0
 73 75  1  0  0  0
 74 81  1  0  0  0
 74 82  1  0  0  0
 75145  1  0  0  0
 75146  1  0  0  0
 75147  1  0  0  0
 76148  1  0  0  0
 76149  1  0  0  0
 76150  1  0  0  0
 76 81  1  0  0  0
 77 78  1  0  0  0
 77 80  1  0  0  0
 77151  1  0  0  0
 77152  1  0  0  0
 78 82  1  0  0  0
 78153  1  0  0  0
 78154  1  0  0  0
 79 81  1  0  0  0
 79 83  1  0  0  0
 79155  1  0  0  0
 79156  1  0  0  0
 80157  1  0  0  0
 80158  1  0  0  0
 81159  1  0  0  0
 83160  1  0  0  0
M  ISO  4   1 100  68 101  80 101  83 100
M  END
> <chiral flag>
0

> <version>
0

> <s_m_source_file>
/data/baiqing/PycharmProjects/Reinvent-master-3.2/result/LINK_invent/BTK/process_docking_weight1_custom_sum_contain_oxygen_bond_distance_aromatic_linkinvent_7_9_3/rearranged_h_0083.sdf

> <i_m_source_file_index>
17

> <r_mmod_Potential_Energy-OPLS-2005>
102.151885986328

> <r_mmod_Stretch_Energy-OPLS-2005>
125.10799407959

> <r_mmod_Bend_Energy-OPLS-2005>
190.39518737793

> <r_mmod_Torsional_Energy-OPLS-2005>
219.521148681641

> <r_mmod_Improper_Torsional_Energy-OPLS-2005>
4.34945297241211

> <r_mmod_Van_der_Waal_Energy-OPLS-2005>
128.497863769531

> <r_mmod_Electrostatic_Energy-OPLS-2005>
-424.550750732422

> <r_mmod_Solvation_Energy-OPLS-2005>
-214.814804077148

> <b_mmod_Minimization_Converged-OPLS-2005>
0

> <r_mmod_RMS_Derivative-OPLS-2005>
0.319512099027634

$$$$
17
                    3D
 Structure written by MMmdl.
164172  0  0  1  0            999 V2000
  -30.3062  -15.8025   19.9652 C   0  0  0  0  0  0
  -30.4621  -13.1010   19.4615 C   0  0  0  0  0  0
  -29.5907  -12.4794   18.3358 C   0  0  0  0  0  0
  -28.1366  -12.2336   18.7940 C   0  0  0  0  0  0
  -27.6126  -13.2860   19.8047 C   0  0  2  0  0  0
  -28.6865  -13.7567   20.8177 C   0  0  0  0  0  0
  -25.2485  -13.8242   20.5972 C   0  0  0  0  0  0
  -24.1803  -13.0412   20.9352 C   0  0  0  0  0  0
  -24.6466  -11.6914   20.8831 C   0  0  0  0  0  0
  -23.9136  -10.4278   21.0421 C   0  0  0  0  0  0
  -24.3658   -9.4181   21.9191 C   0  0  0  0  0  0
  -23.6315   -8.2223   22.0747 C   0  0  0  0  0  0
  -22.4293   -8.0288   21.3531 C   0  0  0  0  0  0
  -21.9951   -9.0278   20.4631 C   0  0  0  0  0  0
  -22.7305  -10.2144   20.3063 C   0  0  0  0  0  0
  -21.6847   -6.0747   22.5286 C   0  0  0  0  0  0
  -21.3994   -6.5639   23.8224 C   0  0  0  0  0  0
  -21.3659   -5.6789   24.9183 C   0  0  0  0  0  0
  -21.6041   -4.3056   24.7225 C   0  0  0  0  0  0
  -21.8822   -3.8153   23.4346 C   0  0  0  0  0  0
  -21.9185   -4.6973   22.3403 C   0  0  0  0  0  0
  -22.7797  -13.5160   21.1917 C   0  0  0  0  0  0
  -22.1656   -4.2157   21.0982 F   0  0  0  0  0  0
  -21.5639   -3.4540   25.7736 F   0  0  0  0  0  0
  -29.7903  -14.3731   19.9951 N   0  0  0  0  0  0
  -26.3001  -12.9537   20.3572 N   0  0  0  0  0  0
  -25.9440  -11.6618   20.5878 N   0  0  0  0  0  0
  -22.0413  -12.8155   22.0455 N   0  0  0  0  0  0
  -25.4054  -15.1979   20.4371 N   0  0  0  0  0  0
  -31.1978  -15.5732   20.8314 O   0  0  0  0  0  0
  -21.6633   -6.8892   21.4245 O   0  0  0  0  0  0
  -22.3474  -14.5443   20.6720 O   0  0  0  0  0  0
  -24.6889  -31.7939   23.1479 C   0  0  0  0  0  0
  -25.9447  -32.4424   23.8038 C   0  0  1  0  0  0
  -27.2269  -26.6613   20.2197 C   0  0  0  0  0  0
  -25.6010  -33.8263   24.1920 N   0  0  0  0  0  0
  -23.5156  -30.3946   21.5032 C   0  0  2  0  0  0
  -24.9706  -28.7266   20.1239 C   0  0  0  0  0  0
  -22.7772  -29.4280   22.4703 C   0  0  0  0  0  0
  -18.0332  -28.1408   22.8451 C   0  0  0  0  0  0
  -24.1495  -36.7138   23.2657 C   0  0  0  0  0  0
  -26.0973  -30.5149   21.4162 C   0  0  0  0  0  0
  -26.1617  -29.0760   20.7682 C   0  0  0  0  0  0
  -27.2751  -28.0751   20.7767 C   0  0  0  0  0  0
  -25.9961  -26.5296   19.5220 C   0  0  0  0  0  0
  -24.9280  -27.4797   19.4758 C   0  0  0  0  0  0
  -23.7722  -29.6900   20.1391 C   0  0  0  0  0  0
  -25.4147  -36.2879   24.0288 C   0  0  1  0  0  0
  -20.5961  -28.3780   23.1128 C   0  0  2  0  0  0
  -20.6801  -26.9437   22.5399 C   0  0  0  0  0  0
  -19.5778  -26.6371   21.5209 C   0  0  0  0  0  0
  -18.1965  -26.7932   22.1617 C   0  0  0  0  0  0
  -19.1591  -28.8922   23.2770 C   0  0  0  0  0  0
  -18.9507  -30.1503   23.8819 C   0  0  0  0  0  0
  -17.6497  -30.6598   24.0544 C   0  0  0  0  0  0
  -25.9132  -34.9264   23.4939 C   0  0  0  0  0  0
  -16.5389  -29.9082   23.6345 C   0  0  0  0  0  0
  -16.7316  -28.6499   23.0381 C   0  0  0  0  0  0
  -26.4617  -31.6481   25.0687 C   0  0  0  0  0  0
  -25.3673  -31.3820   26.1298 C   0  0  0  0  0  0
  -27.0568  -30.2809   24.6633 C   0  0  0  0  0  0
  -27.6057  -32.4364   25.7512 C   0  0  0  0  0  0
  -27.5560  -37.1725   24.8462 C   0  0  0  0  0  0
  -21.4416  -29.3016   22.3450 N   0  0  0  0  0  0
  -26.4267  -37.3646   23.9407 N   0  0  0  0  0  0
  -24.7907  -30.9353   22.0747 N   0  0  0  0  0  0
  -23.4204  -28.7874   23.3045 O   0  0  0  0  0  0
  -28.2072  -25.4383   20.2564 O   0  0  0  0  0  0
  -26.5780  -34.8857   22.4552 O   0  0  0  0  0  0
  -23.5907  -32.1057   23.6388 O   0  0  0  0  0  0
  -28.3719  -17.0517   19.1902 C   0  0  0  0  0  0
  -31.0190  -15.4513   17.7075 C   0  0  0  0  0  0
  -29.0569  -15.7080   17.8964 C   0  0  0  0  0  0
  -29.5709  -18.2683   20.1563 C   0  0  0  0  0  0
  -31.5097  -17.9124   19.8885 C   0  0  0  0  0  0
  -27.5854  -16.3048   15.9342 C   0  0  0  0  0  0
  -30.3594  -19.8354   17.2169 C   0  0  0  0  0  0
  -28.1450  -15.1713   16.7984 C   0  0  0  0  0  0
  -28.8494  -20.0057   20.4535 C   0  0  0  0  0  0
  -31.9523  -19.1045   19.1471 C   0  0  0  0  0  0
  -29.0337  -21.9497   20.1525 C   0  0  0  0  0  0
  -28.0542  -23.6589   20.3299 C   0  0  0  0  0  0
  -31.1636  -18.7118   17.8799 C   0  0  1  0  0  0
  -32.2166  -16.5074   18.7393 N   0  0  0  0  0  0
  -30.3138  -17.4888   18.2098 N   0  0  0  0  0  0
  -31.4573  -13.3342   19.0818 H   0  0  0  0  0  0
  -30.6532  -12.3750   20.2539 H   0  0  0  0  0  0
  -30.0316  -11.5387   18.0013 H   0  0  0  0  0  0
  -29.6156  -13.1065   17.4571 H   0  0  0  0  0  0
  -28.1353  -11.2574   19.2818 H   0  0  0  0  0  0
  -27.4683  -12.1461   17.9361 H   0  0  0  0  0  0
  -27.4090  -14.1687   19.2168 H   0  0  0  0  0  0
  -29.0105  -12.9548   21.4844 H   0  0  0  0  0  0
  -28.2693  -14.5327   21.4601 H   0  0  0  0  0  0
  -25.2801   -9.5634   22.4767 H   0  0  0  0  0  0
  -24.0009   -7.4604   22.7462 H   0  0  0  0  0  0
  -21.0881   -8.8815   19.8938 H   0  0  0  0  0  0
  -22.3782  -10.9689   19.6177 H   0  0  0  0  0  0
  -21.1972   -7.6143   23.9721 H   0  0  0  0  0  0
  -21.1480   -6.0517   25.9079 H   0  0  0  0  0  0
  -22.0599   -2.7613   23.2848 H   0  0  0  0  0  0
  -22.4023  -11.9866   22.4942 H   0  0  0  0  0  0
  -21.0996  -13.1154   22.2537 H   0  0  0  0  0  0
  -24.6430  -15.8532   20.5684 H   0  0  0  0  0  0
  -26.2702  -15.6419   20.1656 H   0  0  0  0  0  0
  -26.7520  -32.4882   23.0749 H   0  0  0  0  0  0
  -25.0075  -33.9271   25.0025 H   0  0  0  0  0  0
  -22.8450  -31.2353   21.3093 H   0  0  0  0  0  0
  -23.3791  -35.9425   23.3252 H   0  0  0  0  0  0
  -24.3572  -36.8872   22.2079 H   0  0  0  0  0  0
  -23.7218  -37.6288   23.6779 H   0  0  0  0  0  0
  -26.3104  -31.2416   20.6294 H   0  0  0  0  0  0
  -26.9427  -30.5727   22.0903 H   0  0  0  0  0  0
  -28.1774  -28.3591   21.3006 H   0  0  0  0  0  0
  -25.8154  -25.5930   19.0156 H   0  0  0  0  0  0
  -24.0288  -27.2128   18.9389 H   0  0  0  0  0  0
  -23.9534  -30.4485   19.3751 H   0  0  0  0  0  0
  -22.8750  -29.1617   19.8124 H   0  0  0  0  0  0
  -25.1353  -36.1641   25.0783 H   0  0  0  0  0  0
  -21.0039  -28.3410   24.1250 H   0  0  0  0  0  0
  -20.5647  -26.2415   23.3671 H   0  0  0  0  0  0
  -21.6674  -26.7376   22.1226 H   0  0  0  0  0  0
  -19.6946  -25.6261   21.1298 H   0  0  0  0  0  0
  -19.6710  -27.3137   20.6698 H   0  0  0  0  0  0
  -17.4234  -26.6669   21.4025 H   0  0  0  0  0  0
  -18.0353  -26.0077   22.9009 H   0  0  0  0  0  0
  -19.7992  -30.7323   24.2171 H   0  0  0  0  0  0
  -17.5063  -31.6268   24.5157 H   0  0  0  0  0  0
  -15.5394  -30.2972   23.7702 H   0  0  0  0  0  0
  -15.8722  -28.0792   22.7161 H   0  0  0  0  0  0
  -24.5854  -30.7177   25.7592 H   0  0  0  0  0  0
  -24.8890  -32.3057   26.4553 H   0  0  0  0  0  0
  -25.7844  -30.9088   27.0191 H   0  0  0  0  0  0
  -26.3295  -29.6398   24.1634 H   0  0  0  0  0  0
  -27.3965  -29.7292   25.5409 H   0  0  0  0  0  0
  -27.9285  -30.3924   24.0187 H   0  0  0  0  0  0
  -27.2567  -33.3724   26.1880 H   0  0  0  0  0  0
  -28.3966  -32.6822   25.0413 H   0  0  0  0  0  0
  -28.0605  -31.8643   26.5605 H   0  0  0  0  0  0
  -28.2545  -38.0054   24.7531 H   0  0  0  0  0  0
  -28.1096  -36.2582   24.6270 H   0  0  0  0  0  0
  -27.2279  -37.1322   25.8866 H   0  0  0  0  0  0
  -20.9747  -29.8679   21.6510 H   0  0  0  0  0  0
  -26.0101  -38.2693   24.1441 H   0  0  0  0  0  0
  -27.3184  -17.2899   19.1582 H   0  0  0  0  0  0
  -31.4432  -14.7737   16.9813 H   0  0  0  0  0  0
  -26.9070  -15.9168   15.1717 H   0  0  0  0  0  0
  -28.3911  -16.8276   15.4167 H   0  0  0  0  0  0
  -27.0377  -17.0304   16.5353 H   0  0  0  0  0  0
  -30.0008  -19.5136   16.2379 H   0  0  0  0  0  0
  -30.9884  -20.7115   17.0593 H   0  0  0  0  0  0
  -29.4955  -20.1389   17.8042 H   0  0  0  0  0  0
  -27.3228  -14.5838   17.1932 H   0  0  0  0  0  0
  -28.7148  -14.5133   16.1394 H   0  0  0  0  0  0
  -28.6640  -19.9612   21.5255 H   0  0  0  0  0  0
  -27.8561  -19.8361   20.0323 H   0  0  0  0  0  0
  -33.0348  -19.1341   19.0122 H   0  0  0  0  0  0
  -31.6038  -20.0210   19.6239 H   0  0  0  0  0  0
  -29.9470  -22.1700   20.7029 H   0  0  0  0  0  0
  -29.3558  -21.9996   19.1136 H   0  0  0  0  0  0
  -27.1772  -23.4924   19.7034 H   0  0  0  0  0  0
  -27.6441  -23.5604   21.3374 H   0  0  0  0  0  0
  -31.8951  -18.4014   17.1289 H   0  0  0  0  0  0
  -29.6167  -17.2340   17.5203 H   0  0  0  0  0  0
  1 25  1  0  0  0
  1 30  2  0  0  0
  1 85  1  0  0  0
  2  3  1  0  0  0
  2 25  1  0  0  0
  2 86  1  0  0  0
  2 87  1  0  0  0
  3  4  1  0  0  0
  3 88  1  0  0  0
  3 89  1  0  0  0
  4  5  1  0  0  0
  4 90  1  0  0  0
  4 91  1  0  0  0
  5  6  1  0  0  0
  5 26  1  0  0  0
  5 92  1  0  0  0
  6 25  1  0  0  0
  6 93  1  0  0  0
  6 94  1  0  0  0
  7  8  2  0  0  0
  7 26  1  0  0  0
  7 29  1  0  0  0
  8  9  1  0  0  0
  8 22  1  0  0  0
  9 10  1  0  0  0
  9 27  2  0  0  0
 10 11  2  0  0  0
 10 15  1  0  0  0
 11 12  1  0  0  0
 11 95  1  0  0  0
 12 13  2  0  0  0
 12 96  1  0  0  0
 13 14  1  0  0  0
 13 31  1  0  0  0
 14 15  2  0  0  0
 14 97  1  0  0  0
 15 98  1  0  0  0
 16 17  2  0  0  0
 16 21  1  0  0  0
 16 31  1  0  0  0
 17 18  1  0  0  0
 17 99  1  0  0  0
 18 19  2  0  0  0
 18100  1  0  0  0
 19 20  1  0  0  0
 19 24  1  0  0  0
 20 21  2  0  0  0
 20101  1  0  0  0
 21 23  1  0  0  0
 22 28  1  0  0  0
 22 32  2  0  0  0
 26 27  1  0  0  0
 28102  1  0  0  0
 28103  1  0  0  0
 29104  1  0  0  0
 29105  1  0  0  0
 33 34  1  0  0  0
 33 66  1  0  0  0
 33 70  2  0  0  0
 34 36  1  0  0  0
 34 59  1  0  0  0
 34106  1  0  0  0
 35 44  2  0  0  0
 35 45  1  0  0  0
 35 68  1  0  0  0
 36 56  1  0  0  0
 36107  1  0  0  0
 37 39  1  0  0  0
 37 47  1  0  0  0
 37 66  1  0  0  0
 37108  1  0  0  0
 38 43  2  0  0  0
 38 46  1  0  0  0
 38 47  1  0  0  0
 39 64  1  0  0  0
 39 67  2  0  0  0
 40 52  1  0  0  0
 40 53  2  0  0  0
 40 58  1  0  0  0
 41109  1  0  0  0
 41110  1  0  0  0
 41111  1  0  0  0
 41 48  1  0  0  0
 42 43  1  0  0  0
 42 66  1  0  0  0
 42112  1  0  0  0
 42113  1  0  0  0
 43 44  1  0  0  0
 44114  1  0  0  0
 45 46  2  0  0  0
 45115  1  0  0  0
 46116  1  0  0  0
 47117  1  0  0  0
 47118  1  0  0  0
 48 56  1  0  0  0
 48 65  1  0  0  0
 48119  1  0  0  0
 49 50  1  0  0  0
 49 53  1  0  0  0
 49 64  1  0  0  0
 49120  1  0  0  0
 50 51  1  0  0  0
 50121  1  0  0  0
 50122  1  0  0  0
 51 52  1  0  0  0
 51123  1  0  0  0
 51124  1  0  0  0
 52125  1  0  0  0
 52126  1  0  0  0
 53 54  1  0  0  0
 54 55  2  0  0  0
 54127  1  0  0  0
 55 57  1  0  0  0
 55128  1  0  0  0
 56 69  2  0  0  0
 57 58  2  0  0  0
 57129  1  0  0  0
 58130  1  0  0  0
 59 60  1  0  0  0
 59 61  1  0  0  0
 59 62  1  0  0  0
 60131  1  0  0  0
 60132  1  0  0  0
 60133  1  0  0  0
 61134  1  0  0  0
 61135  1  0  0  0
 61136  1  0  0  0
 62137  1  0  0  0
 62138  1  0  0  0
 62139  1  0  0  0
 63 65  1  0  0  0
 63140  1  0  0  0
 63141  1  0  0  0
 63142  1  0  0  0
 64143  1  0  0  0
 65144  1  0  0  0
 68 82  1  0  0  0
 71 73  2  0  0  0
 71 74  1  0  0  0
 71145  1  0  0  0
 72 73  1  0  0  0
 72 84  2  0  0  0
 72146  1  0  0  0
 73 78  1  0  0  0
 74 75  2  0  0  0
 74 79  1  0  0  0
 75 80  1  0  0  0
 75 84  1  0  0  0
 76 78  1  0  0  0
 76147  1  0  0  0
 76148  1  0  0  0
 76149  1  0  0  0
 77150  1  0  0  0
 77151  1  0  0  0
 77152  1  0  0  0
 77 83  1  0  0  0
 78153  1  0  0  0
 78154  1  0  0  0
 79 81  1  0  0  0
 79155  1  0  0  0
 79156  1  0  0  0
 80 83  1  0  0  0
 80157  1  0  0  0
 80158  1  0  0  0
 81 82  1  0  0  0
 81159  1  0  0  0
 81160  1  0  0  0
 82161  1  0  0  0
 82162  1  0  0  0
 83 85  1  0  0  0
 83163  1  0  0  0
 85164  1  0  0  0
M  ISO  4   1 100  68 101  82 101  85 100
M  END
> <chiral flag>
0

> <version>
0

> <s_m_source_file>
/data/baiqing/PycharmProjects/Reinvent-master-3.2/result/LINK_invent/BTK/process_docking_weight1_custom_sum_contain_oxygen_bond_distance_aromatic_linkinvent_7_9_3/rearranged_h_0083.sdf

> <i_m_source_file_index>
18

> <r_mmod_Potential_Energy-OPLS-2005>
12378.90234375

> <r_mmod_Stretch_Energy-OPLS-2005>
7639.57958984375

> <r_mmod_Bend_Energy-OPLS-2005>
788.476379394531

> <r_mmod_Torsional_Energy-OPLS-2005>
356.679840087891

> <r_mmod_Improper_Torsional_Energy-OPLS-2005>
75.5789413452148

> <r_mmod_Van_der_Waal_Energy-OPLS-2005>
2931.74047851562

> <r_mmod_Electrostatic_Energy-OPLS-2005>
-351.975280761719

> <r_mmod_Solvation_Energy-OPLS-2005>
-228.595657348633

> <b_mmod_Minimization_Converged-OPLS-2005>
0

> <r_mmod_RMS_Derivative-OPLS-2005>
6.05506038665771

$$$$
18
                    3D
 Structure written by MMmdl.
171179  0  0  1  0            999 V2000
  -30.5410  -14.9044   20.5457 C   0  0  0  0  0  0
  -30.4509  -12.5755   19.5020 C   0  0  0  0  0  0
  -29.5272  -12.5541   18.2594 C   0  0  0  0  0  0
  -28.0568  -12.3341   18.6655 C   0  0  0  0  0  0
  -27.6406  -13.2399   19.8523 C   0  0  2  0  0  0
  -28.6775  -13.2005   20.9921 C   0  0  0  0  0  0
  -25.2502  -13.8189   20.5706 C   0  0  0  0  0  0
  -24.1806  -13.0433   20.9197 C   0  0  0  0  0  0
  -24.6401  -11.6902   20.8735 C   0  0  0  0  0  0
  -23.9080  -10.4283   21.0406 C   0  0  0  0  0  0
  -24.3629   -9.4199   21.9190 C   0  0  0  0  0  0
  -23.6298   -8.2242   22.0755 C   0  0  0  0  0  0
  -22.4285   -8.0282   21.3539 C   0  0  0  0  0  0
  -21.9920   -9.0260   20.4646 C   0  0  0  0  0  0
  -22.7249  -10.2132   20.3054 C   0  0  0  0  0  0
  -21.6858   -6.0736   22.5275 C   0  0  0  0  0  0
  -21.4019   -6.5639   23.8209 C   0  0  0  0  0  0
  -21.3654   -5.6795   24.9170 C   0  0  0  0  0  0
  -21.6048   -4.3057   24.7224 C   0  0  0  0  0  0
  -21.8817   -3.8145   23.4343 C   0  0  0  0  0  0
  -21.9195   -4.6964   22.3400 C   0  0  0  0  0  0
  -22.7822  -13.5198   21.1867 C   0  0  0  0  0  0
  -22.1665   -4.2150   21.0978 F   0  0  0  0  0  0
  -21.5625   -3.4539   25.7734 F   0  0  0  0  0  0
  -29.9673  -13.6355   20.4337 N   0  0  0  0  0  0
  -26.2936  -12.9411   20.3273 N   0  0  0  0  0  0
  -25.9338  -11.6540   20.5732 N   0  0  0  0  0  0
  -22.0486  -12.8196   22.0426 N   0  0  0  0  0  0
  -25.4186  -15.1926   20.4158 N   0  0  0  0  0  0
  -31.6875  -15.0318   20.1001 O   0  0  0  0  0  0
  -21.6639   -6.8885   21.4239 O   0  0  0  0  0  0
  -22.3514  -14.5521   20.6724 O   0  0  0  0  0  0
  -24.6422  -31.8446   23.1899 C   0  0  0  0  0  0
  -25.9206  -32.4685   23.8275 C   0  0  1  0  0  0
  -27.2177  -27.1340   20.1926 C   0  0  0  0  0  0
  -25.5977  -33.8500   24.2197 N   0  0  0  0  0  0
  -23.4464  -30.4637   21.5327 C   0  0  2  0  0  0
  -24.9010  -28.8899   20.1091 C   0  0  0  0  0  0
  -22.7556  -29.4558   22.4849 C   0  0  0  0  0  0
  -18.0316  -28.1401   22.8483 C   0  0  0  0  0  0
  -24.1499  -36.7240   23.2650 C   0  0  0  0  0  0
  -26.0013  -30.7198   21.3935 C   0  0  0  0  0  0
  -26.0738  -29.3308   20.7371 C   0  0  0  0  0  0
  -27.2314  -28.4690   20.7631 C   0  0  0  0  0  0
  -26.0286  -26.7971   19.5096 C   0  0  0  0  0  0
  -24.8937  -27.6367   19.4754 C   0  0  0  0  0  0
  -23.6759  -29.7910   20.1513 C   0  0  0  0  0  0
  -25.4137  -36.3021   24.0312 C   0  0  1  0  0  0
  -20.5937  -28.3729   23.1237 C   0  0  2  0  0  0
  -20.6823  -26.9427   22.5412 C   0  0  0  0  0  0
  -19.5790  -26.6398   21.5233 C   0  0  0  0  0  0
  -18.1961  -26.7947   22.1625 C   0  0  0  0  0  0
  -19.1571  -28.8886   23.2855 C   0  0  0  0  0  0
  -18.9483  -30.1496   23.8860 C   0  0  0  0  0  0
  -17.6478  -30.6596   24.0569 C   0  0  0  0  0  0
  -25.9081  -34.9400   23.5056 C   0  0  0  0  0  0
  -16.5373  -29.9081   23.6346 C   0  0  0  0  0  0
  -16.7301  -28.6514   23.0343 C   0  0  0  0  0  0
  -26.4535  -31.6551   25.0710 C   0  0  0  0  0  0
  -25.3714  -31.3746   26.1398 C   0  0  0  0  0  0
  -27.0427  -30.2943   24.6332 C   0  0  0  0  0  0
  -27.6063  -32.4325   25.7479 C   0  0  0  0  0  0
  -27.5573  -37.1782   24.8472 C   0  0  0  0  0  0
  -21.4259  -29.3038   22.3580 N   0  0  0  0  0  0
  -26.4299  -37.3728   23.9397 N   0  0  0  0  0  0
  -24.7152  -31.0316   22.0925 N   0  0  0  0  0  0
  -23.4191  -28.8140   23.3035 O   0  0  0  0  0  0
  -28.2596  -26.1443   20.3134 O   0  0  0  0  0  0
  -26.5648  -34.8889   22.4621 O   0  0  0  0  0  0
  -23.5547  -32.1338   23.7121 O   0  0  0  0  0  0
  -28.4109  -21.0439   22.8070 C   0  0  0  0  0  0
  -28.6638  -20.5103   24.0749 C   0  0  0  0  0  0
  -28.9918  -20.5411   21.6242 C   0  0  0  0  0  0
  -29.6181  -19.4764   24.1674 C   0  0  0  0  0  0
  -29.5982  -19.1609   21.7813 C   0  0  0  0  0  0
  -27.9476  -21.1485   25.2572 C   0  0  0  0  0  0
  -29.9363  -15.9625   22.7340 C   0  0  0  0  0  0
  -29.5315  -18.9623   26.7353 C   0  0  0  0  0  0
  -31.4413  -20.2507   25.7176 C   0  0  0  0  0  0
  -31.1864  -17.8027   25.3616 C   0  0  0  0  0  0
  -28.7681  -21.6646   20.4557 C   0  0  0  0  0  0
  -30.0070  -17.8819   20.8111 C   0  0  0  0  0  0
  -28.9381  -23.3378   20.7558 C   0  0  0  0  0  0
  -27.9854  -24.6125   20.1912 C   0  0  0  0  0  0
  -29.7901  -16.2231   21.2206 C   0  0  1  0  0  0
  -30.4076  -19.1335   25.4711 C   0  0  0  0  0  0
  -30.0283  -18.8550   23.0346 N   0  0  0  0  0  0
  -31.4844  -12.7409   19.1960 H   0  0  0  0  0  0
  -30.4456  -11.6048   19.9992 H   0  0  0  0  0  0
  -29.8432  -11.7758   17.5640 H   0  0  0  0  0  0
  -29.6173  -13.5003   17.7242 H   0  0  0  0  0  0
  -27.9423  -11.2862   18.9463 H   0  0  0  0  0  0
  -27.3959  -12.4961   17.8127 H   0  0  0  0  0  0
  -27.6255  -14.2579   19.4628 H   0  0  0  0  0  0
  -28.7571  -12.1957   21.4104 H   0  0  0  0  0  0
  -28.3527  -13.8404   21.8105 H   0  0  0  0  0  0
  -25.2770   -9.5680   22.4766 H   0  0  0  0  0  0
  -24.0001   -7.4637   22.7479 H   0  0  0  0  0  0
  -21.0847   -8.8777   19.8959 H   0  0  0  0  0  0
  -22.3706  -10.9674   19.6166 H   0  0  0  0  0  0
  -21.2015   -7.6147   23.9712 H   0  0  0  0  0  0
  -21.1481   -6.0524   25.9076 H   0  0  0  0  0  0
  -22.0603   -2.7609   23.2840 H   0  0  0  0  0  0
  -22.4104  -11.9838   22.4778 H   0  0  0  0  0  0
  -21.1114  -13.1224   22.2663 H   0  0  0  0  0  0
  -24.6511  -15.8444   20.5343 H   0  0  0  0  0  0
  -26.2714  -15.6367   20.1013 H   0  0  0  0  0  0
  -26.7269  -32.5288   23.1007 H   0  0  0  0  0  0
  -25.0124  -33.9635   25.0344 H   0  0  0  0  0  0
  -22.7475  -31.2889   21.3752 H   0  0  0  0  0  0
  -23.3755  -35.9577   23.3329 H   0  0  0  0  0  0
  -24.3591  -36.8860   22.2061 H   0  0  0  0  0  0
  -23.7262  -37.6450   23.6672 H   0  0  0  0  0  0
  -26.1669  -31.4812   20.6306 H   0  0  0  0  0  0
  -26.8680  -30.7640   22.0407 H   0  0  0  0  0  0
  -28.1168  -28.7968   21.2924 H   0  0  0  0  0  0
  -25.9490  -25.8370   19.0234 H   0  0  0  0  0  0
  -24.0060  -27.2888   18.9642 H   0  0  0  0  0  0
  -23.8088  -30.5669   19.3966 H   0  0  0  0  0  0
  -22.7926  -29.2327   19.8354 H   0  0  0  0  0  0
  -25.1324  -36.1856   25.0801 H   0  0  0  0  0  0
  -21.0048  -28.3362   24.1363 H   0  0  0  0  0  0
  -20.5796  -26.2321   23.3640 H   0  0  0  0  0  0
  -21.6669  -26.7483   22.1162 H   0  0  0  0  0  0
  -19.6953  -25.6313   21.1270 H   0  0  0  0  0  0
  -19.6748  -27.3195   20.6759 H   0  0  0  0  0  0
  -17.4245  -26.6720   21.4013 H   0  0  0  0  0  0
  -18.0329  -26.0091   22.9014 H   0  0  0  0  0  0
  -19.7956  -30.7344   24.2192 H   0  0  0  0  0  0
  -17.5017  -31.6276   24.5172 H   0  0  0  0  0  0
  -15.5359  -30.2953   23.7730 H   0  0  0  0  0  0
  -15.8705  -28.0850   22.7027 H   0  0  0  0  0  0
  -24.5884  -30.7105   25.7706 H   0  0  0  0  0  0
  -24.8903  -32.2928   26.4775 H   0  0  0  0  0  0
  -25.7994  -30.8939   27.0199 H   0  0  0  0  0  0
  -26.3063  -29.6616   24.1352 H   0  0  0  0  0  0
  -27.4034  -29.7296   25.4942 H   0  0  0  0  0  0
  -27.8969  -30.4170   23.9670 H   0  0  0  0  0  0
  -27.2666  -33.3663   26.1981 H   0  0  0  0  0  0
  -28.3900  -32.6840   25.0311 H   0  0  0  0  0  0
  -28.0686  -31.8485   26.5454 H   0  0  0  0  0  0
  -28.2594  -38.0065   24.7475 H   0  0  0  0  0  0
  -28.1064  -36.2594   24.6355 H   0  0  0  0  0  0
  -27.2286  -37.1486   25.8874 H   0  0  0  0  0  0
  -20.9474  -29.8676   21.6692 H   0  0  0  0  0  0
  -26.0170  -38.2808   24.1357 H   0  0  0  0  0  0
  -27.7759  -21.9159   22.7533 H   0  0  0  0  0  0
  -27.1831  -21.8498   24.9218 H   0  0  0  0  0  0
  -28.6321  -21.6982   25.9011 H   0  0  0  0  0  0
  -27.4170  -20.3926   25.8368 H   0  0  0  0  0  0
  -29.1554  -16.4593   23.3082 H   0  0  0  0  0  0
  -30.9124  -16.3060   23.0703 H   0  0  0  0  0  0
  -29.8794  -14.9101   23.0108 H   0  0  0  0  0  0
  -29.1586  -19.9017   27.1307 H   0  0  0  0  0  0
  -30.1083  -18.5345   27.5569 H   0  0  0  0  0  0
  -28.6872  -18.2979   26.5539 H   0  0  0  0  0  0
  -30.9544  -21.2110   25.8858 H   0  0  0  0  0  0
  -32.1041  -20.3672   24.8606 H   0  0  0  0  0  0
  -32.0608  -20.0421   26.5894 H   0  0  0  0  0  0
  -30.5062  -16.9622   25.2379 H   0  0  0  0  0  0
  -31.7736  -17.6046   26.2586 H   0  0  0  0  0  0
  -31.8913  -17.8077   24.5306 H   0  0  0  0  0  0
  -27.7520  -21.5040   20.0942 H   0  0  0  0  0  0
  -29.4053  -21.3971   19.6133 H   0  0  0  0  0  0
  -31.0678  -18.0163   20.5954 H   0  0  0  0  0  0
  -29.5114  -18.0509   19.8556 H   0  0  0  0  0  0
  -29.9587  -23.5760   20.4578 H   0  0  0  0  0  0
  -28.9739  -23.4780   21.8368 H   0  0  0  0  0  0
  -27.0059  -24.4512   20.6468 H   0  0  0  0  0  0
  -27.8330  -24.4323   19.1279 H   0  0  0  0  0  0
  -28.7356  -16.0503   21.0121 H   0  0  0  0  0  0
  1 25  1  0  0  0
  1 30  2  0  0  0
  1 85  1  0  0  0
  2  3  1  0  0  0
  2 25  1  0  0  0
  2 88  1  0  0  0
  2 89  1  0  0  0
  3  4  1  0  0  0
  3 90  1  0  0  0
  3 91  1  0  0  0
  4  5  1  0  0  0
  4 92  1  0  0  0
  4 93  1  0  0  0
  5  6  1  0  0  0
  5 26  1  0  0  0
  5 94  1  0  0  0
  6 25  1  0  0  0
  6 95  1  0  0  0
  6 96  1  0  0  0
  7  8  2  0  0  0
  7 26  1  0  0  0
  7 29  1  0  0  0
  8  9  1  0  0  0
  8 22  1  0  0  0
  9 10  1  0  0  0
  9 27  2  0  0  0
 10 11  2  0  0  0
 10 15  1  0  0  0
 11 12  1  0  0  0
 11 97  1  0  0  0
 12 13  2  0  0  0
 12 98  1  0  0  0
 13 14  1  0  0  0
 13 31  1  0  0  0
 14 15  2  0  0  0
 14 99  1  0  0  0
 15100  1  0  0  0
 16 17  2  0  0  0
 16 21  1  0  0  0
 16 31  1  0  0  0
 17 18  1  0  0  0
 17101  1  0  0  0
 18 19  2  0  0  0
 18102  1  0  0  0
 19 20  1  0  0  0
 19 24  1  0  0  0
 20 21  2  0  0  0
 20103  1  0  0  0
 21 23  1  0  0  0
 22 28  1  0  0  0
 22 32  2  0  0  0
 26 27  1  0  0  0
 28104  1  0  0  0
 28105  1  0  0  0
 29106  1  0  0  0
 29107  1  0  0  0
 33 34  1  0  0  0
 33 66  1  0  0  0
 33 70  2  0  0  0
 34 36  1  0  0  0
 34 59  1  0  0  0
 34108  1  0  0  0
 35 44  2  0  0  0
 35 45  1  0  0  0
 35 68  1  0  0  0
 36 56  1  0  0  0
 36109  1  0  0  0
 37 39  1  0  0  0
 37 47  1  0  0  0
 37 66  1  0  0  0
 37110  1  0  0  0
 38 43  2  0  0  0
 38 46  1  0  0  0
 38 47  1  0  0  0
 39 64  1  0  0  0
 39 67  2  0  0  0
 40 52  1  0  0  0
 40 53  2  0  0  0
 40 58  1  0  0  0
 41111  1  0  0  0
 41112  1  0  0  0
 41113  1  0  0  0
 41 48  1  0  0  0
 42 43  1  0  0  0
 42 66  1  0  0  0
 42114  1  0  0  0
 42115  1  0  0  0
 43 44  1  0  0  0
 44116  1  0  0  0
 45 46  2  0  0  0
 45117  1  0  0  0
 46118  1  0  0  0
 47119  1  0  0  0
 47120  1  0  0  0
 48 56  1  0  0  0
 48 65  1  0  0  0
 48121  1  0  0  0
 49 50  1  0  0  0
 49 53  1  0  0  0
 49 64  1  0  0  0
 49122  1  0  0  0
 50 51  1  0  0  0
 50123  1  0  0  0
 50124  1  0  0  0
 51 52  1  0  0  0
 51125  1  0  0  0
 51126  1  0  0  0
 52127  1  0  0  0
 52128  1  0  0  0
 53 54  1  0  0  0
 54 55  2  0  0  0
 54129  1  0  0  0
 55 57  1  0  0  0
 55130  1  0  0  0
 56 69  2  0  0  0
 57 58  2  0  0  0
 57131  1  0  0  0
 58132  1  0  0  0
 59 60  1  0  0  0
 59 61  1  0  0  0
 59 62  1  0  0  0
 60133  1  0  0  0
 60134  1  0  0  0
 60135  1  0  0  0
 61136  1  0  0  0
 61137  1  0  0  0
 61138  1  0  0  0
 62139  1  0  0  0
 62140  1  0  0  0
 62141  1  0  0  0
 63 65  1  0  0  0
 63142  1  0  0  0
 63143  1  0  0  0
 63144  1  0  0  0
 64145  1  0  0  0
 65146  1  0  0  0
 68 84  1  0  0  0
 71 72  2  0  0  0
 71 73  1  0  0  0
 71147  1  0  0  0
 72 74  1  0  0  0
 72 76  1  0  0  0
 73 75  2  0  0  0
 73 81  1  0  0  0
 74 86  1  0  0  0
 74 87  2  0  0  0
 75 82  1  0  0  0
 75 87  1  0  0  0
 76148  1  0  0  0
 76149  1  0  0  0
 76150  1  0  0  0
 77151  1  0  0  0
 77152  1  0  0  0
 77153  1  0  0  0
 77 85  1  0  0  0
 78154  1  0  0  0
 78155  1  0  0  0
 78156  1  0  0  0
 78 86  1  0  0  0
 79 86  1  0  0  0
 79157  1  0  0  0
 79158  1  0  0  0
 79159  1  0  0  0
 80 86  1  0  0  0
 80160  1  0  0  0
 80161  1  0  0  0
 80162  1  0  0  0
 81 83  1  0  0  0
 81163  1  0  0  0
 81164  1  0  0  0
 82 85  1  0  0  0
 82165  1  0  0  0
 82166  1  0  0  0
 83 84  1  0  0  0
 83167  1  0  0  0
 83168  1  0  0  0
 84169  1  0  0  0
 84170  1  0  0  0
 85171  1  0  0  0
M  ISO  4   1 100  68 101  84 101  85 100
M  END
> <chiral flag>
0

> <version>
0

> <s_m_source_file>
/data/baiqing/PycharmProjects/Reinvent-master-3.2/result/LINK_invent/BTK/process_docking_weight1_custom_sum_contain_oxygen_bond_distance_aromatic_linkinvent_7_9_3/rearranged_h_0083.sdf

> <i_m_source_file_index>
19

> <r_mmod_Potential_Energy-OPLS-2005>
487.716186523438

> <r_mmod_Stretch_Energy-OPLS-2005>
306.750946044922

> <r_mmod_Bend_Energy-OPLS-2005>
344.035217285156

> <r_mmod_Torsional_Energy-OPLS-2005>
234.390701293945

> <r_mmod_Improper_Torsional_Energy-OPLS-2005>
2.89186835289001

> <r_mmod_Van_der_Waal_Energy-OPLS-2005>
157.053680419922

> <r_mmod_Electrostatic_Energy-OPLS-2005>
-539.912780761719

> <r_mmod_Solvation_Energy-OPLS-2005>
-197.032196044922

> <b_mmod_Minimization_Converged-OPLS-2005>
0

> <r_mmod_RMS_Derivative-OPLS-2005>
2.5359570980072

$$$$
19
                    3D
 Structure written by MMmdl.
163171  0  0  1  0            999 V2000
  -30.6715  -14.6036   20.4995 C   0  0  0  0  0  0
  -30.4362  -12.3572   19.4850 C   0  0  0  0  0  0
  -29.5294  -12.4948   18.2401 C   0  0  0  0  0  0
  -28.0517  -12.3215   18.6364 C   0  0  0  0  0  0
  -27.6625  -13.2019   19.8616 C   0  0  2  0  0  0
  -28.6979  -13.0891   21.0047 C   0  0  0  0  0  0
  -25.2593  -13.8007   20.5597 C   0  0  0  0  0  0
  -24.1832  -13.0337   20.9193 C   0  0  0  0  0  0
  -24.6420  -11.6810   20.8783 C   0  0  0  0  0  0
  -23.9053  -10.4226   21.0475 C   0  0  0  0  0  0
  -24.3585   -9.4150   21.9284 C   0  0  0  0  0  0
  -23.6239   -8.2197   22.0858 C   0  0  0  0  0  0
  -22.4228   -8.0274   21.3622 C   0  0  0  0  0  0
  -21.9879   -9.0260   20.4732 C   0  0  0  0  0  0
  -22.7219  -10.2125   20.3138 C   0  0  0  0  0  0
  -21.6814   -6.0708   22.5305 C   0  0  0  0  0  0
  -21.3993   -6.5594   23.8249 C   0  0  0  0  0  0
  -21.3676   -5.6769   24.9226 C   0  0  0  0  0  0
  -21.6025   -4.3023   24.7272 C   0  0  0  0  0  0
  -21.8807   -3.8107   23.4391 C   0  0  0  0  0  0
  -21.9169   -4.6930   22.3435 C   0  0  0  0  0  0
  -22.7861  -13.5242   21.1803 C   0  0  0  0  0  0
  -22.1608   -4.2109   21.1020 F   0  0  0  0  0  0
  -21.5681   -3.4513   25.7788 F   0  0  0  0  0  0
  -30.0222  -13.4003   20.4435 N   0  0  0  0  0  0
  -26.3054  -12.9209   20.3332 N   0  0  0  0  0  0
  -25.9357  -11.6372   20.5793 N   0  0  0  0  0  0
  -22.0327  -12.8405   22.0353 N   0  0  0  0  0  0
  -25.4242  -15.1630   20.3763 N   0  0  0  0  0  0
  -31.8422  -14.7233   20.1231 O   0  0  0  0  0  0
  -21.6564   -6.8888   21.4289 O   0  0  0  0  0  0
  -22.3603  -14.5547   20.6635 O   0  0  0  0  0  0
  -24.6236  -31.8632   23.1997 C   0  0  0  0  0  0
  -25.9104  -32.4790   23.8307 C   0  0  1  0  0  0
  -27.2536  -27.3877   20.1421 C   0  0  0  0  0  0
  -25.5960  -33.8581   24.2273 N   0  0  0  0  0  0
  -23.4181  -30.4797   21.5363 C   0  0  2  0  0  0
  -24.8746  -28.9349   20.1107 C   0  0  0  0  0  0
  -22.7453  -29.4685   22.4932 C   0  0  0  0  0  0
  -18.0367  -28.1346   22.8486 C   0  0  0  0  0  0
  -24.1473  -36.7275   23.2620 C   0  0  0  0  0  0
  -25.9471  -30.8204   21.3556 C   0  0  0  0  0  0
  -26.0327  -29.4466   20.7140 C   0  0  0  0  0  0
  -27.2286  -28.6805   20.7245 C   0  0  0  0  0  0
  -26.0848  -26.9094   19.5160 C   0  0  0  0  0  0
  -24.8970  -27.6659   19.5048 C   0  0  0  0  0  0
  -23.6335  -29.8003   20.1563 C   0  0  0  0  0  0
  -25.4101  -36.3068   24.0298 C   0  0  1  0  0  0
  -20.5946  -28.3788   23.1364 C   0  0  2  0  0  0
  -20.6926  -26.9539   22.5470 C   0  0  0  0  0  0
  -19.5951  -26.6536   21.5216 C   0  0  0  0  0  0
  -18.2090  -26.7940   22.1582 C   0  0  0  0  0  0
  -19.1567  -28.8868   23.2944 C   0  0  0  0  0  0
  -18.9459  -30.1440   23.8952 C   0  0  0  0  0  0
  -17.6443  -30.6561   24.0580 C   0  0  0  0  0  0
  -25.9058  -34.9447   23.5077 C   0  0  0  0  0  0
  -16.5389  -29.8992   23.6295 C   0  0  0  0  0  0
  -16.7337  -28.6429   23.0314 C   0  0  0  0  0  0
  -26.4517  -31.6590   25.0638 C   0  0  0  0  0  0
  -25.3724  -31.3770   26.1347 C   0  0  0  0  0  0
  -27.0354  -30.3013   24.6073 C   0  0  0  0  0  0
  -27.6091  -32.4305   25.7409 C   0  0  0  0  0  0
  -27.5578  -37.1779   24.8454 C   0  0  0  0  0  0
  -21.4170  -29.3162   22.3731 N   0  0  0  0  0  0
  -26.4286  -37.3773   23.9396 N   0  0  0  0  0  0
  -24.6804  -31.0685   22.0906 N   0  0  0  0  0  0
  -23.4168  -28.8215   23.2992 O   0  0  0  0  0  0
  -28.3767  -26.5732   20.1808 O   0  0  0  0  0  0
  -26.5592  -34.8922   22.4625 O   0  0  0  0  0  0
  -23.5421  -32.1439   23.7368 O   0  0  0  0  0  0
  -29.4711  -20.8962   20.7284 C   0  0  0  0  0  0
  -29.0965  -19.5538   20.7091 C   0  0  0  0  0  0
  -27.7888  -19.5458   20.1320 C   0  0  0  0  0  0
  -27.4417  -20.8322   19.8129 C   0  0  0  0  0  0
  -26.1914  -21.3413   19.1556 C   0  0  0  0  0  0
  -25.5582  -18.5092   20.6922 C   0  0  0  0  0  0
  -29.8352  -18.3015   21.2710 C   0  0  0  0  0  0
  -26.8976  -18.3400   19.9483 C   0  0  0  0  0  0
  -29.0620  -24.1745   20.9912 C   0  0  0  0  0  0
  -28.2852  -23.1847   20.0846 C   0  0  0  0  0  0
  -30.1937  -17.1175   20.2838 C   0  0  0  0  0  0
  -28.3391  -25.5594   21.2248 C   0  0  0  0  0  0
  -28.4315  -21.7021   20.2392 N   0  0  0  0  0  0
  -29.9119  -15.7112   20.7432 N   0  0  0  0  0  0
  -31.4899  -12.4378   19.2081 H   0  0  0  0  0  0
  -30.3311  -11.3685   19.9363 H   0  0  0  0  0  0
  -29.8164  -11.7677   17.4790 H   0  0  0  0  0  0
  -29.6718  -13.4741   17.7811 H   0  0  0  0  0  0
  -27.8925  -11.2680   18.8662 H   0  0  0  0  0  0
  -27.4169  -12.5411   17.7757 H   0  0  0  0  0  0
  -27.6805  -14.2359   19.5187 H   0  0  0  0  0  0
  -28.6869  -12.0859   21.4320 H   0  0  0  0  0  0
  -28.4384  -13.7664   21.8218 H   0  0  0  0  0  0
  -25.2774   -9.5522   22.4839 H   0  0  0  0  0  0
  -23.9865   -7.4553   22.7601 H   0  0  0  0  0  0
  -21.0816   -8.8830   19.9050 H   0  0  0  0  0  0
  -22.3774  -10.9660   19.6197 H   0  0  0  0  0  0
  -21.1955   -7.6090   23.9749 H   0  0  0  0  0  0
  -21.1517   -6.0506   25.9142 H   0  0  0  0  0  0
  -22.0568   -2.7554   23.2923 H   0  0  0  0  0  0
  -22.3688  -12.0016   22.4816 H   0  0  0  0  0  0
  -21.1078  -13.1820   22.2609 H   0  0  0  0  0  0
  -24.6291  -15.7928   20.3630 H   0  0  0  0  0  0
  -26.2808  -15.5918   20.0512 H   0  0  0  0  0  0
  -26.7175  -32.5475   23.1069 H   0  0  0  0  0  0
  -25.0128  -33.9716   25.0439 H   0  0  0  0  0  0
  -22.7160  -31.3003   21.3741 H   0  0  0  0  0  0
  -23.3727  -35.9622   23.3276 H   0  0  0  0  0  0
  -24.3623  -36.8913   22.2059 H   0  0  0  0  0  0
  -23.7247  -37.6467   23.6661 H   0  0  0  0  0  0
  -26.0721  -31.5881   20.5885 H   0  0  0  0  0  0
  -26.8285  -30.8775   21.9819 H   0  0  0  0  0  0
  -28.1209  -29.0576   21.2061 H   0  0  0  0  0  0
  -26.0981  -25.9298   19.0563 H   0  0  0  0  0  0
  -24.0126  -27.2627   19.0296 H   0  0  0  0  0  0
  -23.7408  -30.5601   19.3811 H   0  0  0  0  0  0
  -22.7634  -29.2087   19.8657 H   0  0  0  0  0  0
  -25.1301  -36.1912   25.0791 H   0  0  0  0  0  0
  -21.0111  -28.3402   24.1441 H   0  0  0  0  0  0
  -20.5954  -26.2421   23.3684 H   0  0  0  0  0  0
  -21.6820  -26.7727   22.1242 H   0  0  0  0  0  0
  -19.7218  -25.6544   21.1060 H   0  0  0  0  0  0
  -19.6869  -27.3474   20.6854 H   0  0  0  0  0  0
  -17.4451  -26.6669   21.3905 H   0  0  0  0  0  0
  -18.0498  -26.0023   22.8926 H   0  0  0  0  0  0
  -19.7893  -30.7269   24.2405 H   0  0  0  0  0  0
  -17.4970  -31.6254   24.5166 H   0  0  0  0  0  0
  -15.5396  -30.2870   23.7570 H   0  0  0  0  0  0
  -15.8759  -28.0707   22.6991 H   0  0  0  0  0  0
  -24.5839  -30.7208   25.7647 H   0  0  0  0  0  0
  -24.8953  -32.2959   26.4750 H   0  0  0  0  0  0
  -25.7998  -30.8925   27.0121 H   0  0  0  0  0  0
  -26.2927  -29.6745   24.1109 H   0  0  0  0  0  0
  -27.4094  -29.7319   25.4590 H   0  0  0  0  0  0
  -27.8780  -30.4291   23.9270 H   0  0  0  0  0  0
  -27.2701  -33.3575   26.2032 H   0  0  0  0  0  0
  -28.3874  -32.6909   25.0220 H   0  0  0  0  0  0
  -28.0748  -31.8359   26.5278 H   0  0  0  0  0  0
  -28.2579  -38.0084   24.7529 H   0  0  0  0  0  0
  -28.1096  -36.2636   24.6241 H   0  0  0  0  0  0
  -27.2314  -37.1370   25.8856 H   0  0  0  0  0  0
  -20.9328  -29.9000   21.7064 H   0  0  0  0  0  0
  -26.0160  -38.2845   24.1406 H   0  0  0  0  0  0
  -30.3813  -21.3622   21.0806 H   0  0  0  0  0  0
  -25.7601  -20.5925   18.4917 H   0  0  0  0  0  0
  -26.3766  -22.2206   18.5392 H   0  0  0  0  0  0
  -25.4491  -21.5997   19.9114 H   0  0  0  0  0  0
  -24.9454  -17.6212   20.6311 H   0  0  0  0  0  0
  -24.9442  -19.3199   20.3000 H   0  0  0  0  0  0
  -25.7275  -18.7043   21.7531 H   0  0  0  0  0  0
  -29.2303  -17.8932   22.0804 H   0  0  0  0  0  0
  -30.7483  -18.6500   21.7568 H   0  0  0  0  0  0
  -27.4063  -17.4593   20.3379 H   0  0  0  0  0  0
  -26.7462  -18.1633   18.8817 H   0  0  0  0  0  0
  -30.0731  -24.3286   20.6099 H   0  0  0  0  0  0
  -29.1629  -23.6969   21.9667 H   0  0  0  0  0  0
  -27.2347  -23.4059   20.2810 H   0  0  0  0  0  0
  -28.4466  -23.4504   19.0399 H   0  0  0  0  0  0
  -31.2465  -17.2168   20.0098 H   0  0  0  0  0  0
  -29.6491  -17.2603   19.3496 H   0  0  0  0  0  0
  -28.7770  -26.0166   22.1138 H   0  0  0  0  0  0
  -27.3075  -25.3585   21.5211 H   0  0  0  0  0  0
  -28.9630  -15.5150   21.0259 H   0  0  0  0  0  0
  1 25  1  0  0  0
  1 30  2  0  0  0
  1 84  1  0  0  0
  2  3  1  0  0  0
  2 25  1  0  0  0
  2 85  1  0  0  0
  2 86  1  0  0  0
  3  4  1  0  0  0
  3 87  1  0  0  0
  3 88  1  0  0  0
  4  5  1  0  0  0
  4 89  1  0  0  0
  4 90  1  0  0  0
  5  6  1  0  0  0
  5 26  1  0  0  0
  5 91  1  0  0  0
  6 25  1  0  0  0
  6 92  1  0  0  0
  6 93  1  0  0  0
  7  8  2  0  0  0
  7 26  1  0  0  0
  7 29  1  0  0  0
  8  9  1  0  0  0
  8 22  1  0  0  0
  9 10  1  0  0  0
  9 27  2  0  0  0
 10 11  2  0  0  0
 10 15  1  0  0  0
 11 12  1  0  0  0
 11 94  1  0  0  0
 12 13  2  0  0  0
 12 95  1  0  0  0
 13 14  1  0  0  0
 13 31  1  0  0  0
 14 15  2  0  0  0
 14 96  1  0  0  0
 15 97  1  0  0  0
 16 17  2  0  0  0
 16 21  1  0  0  0
 16 31  1  0  0  0
 17 18  1  0  0  0
 17 98  1  0  0  0
 18 19  2  0  0  0
 18 99  1  0  0  0
 19 20  1  0  0  0
 19 24  1  0  0  0
 20 21  2  0  0  0
 20100  1  0  0  0
 21 23  1  0  0  0
 22 28  1  0  0  0
 22 32  2  0  0  0
 26 27  1  0  0  0
 28101  1  0  0  0
 28102  1  0  0  0
 29103  1  0  0  0
 29104  1  0  0  0
 33 34  1  0  0  0
 33 66  1  0  0  0
 33 70  2  0  0  0
 34 36  1  0  0  0
 34 59  1  0  0  0
 34105  1  0  0  0
 35 44  2  0  0  0
 35 45  1  0  0  0
 35 68  1  0  0  0
 36 56  1  0  0  0
 36106  1  0  0  0
 37 39  1  0  0  0
 37 47  1  0  0  0
 37 66  1  0  0  0
 37107  1  0  0  0
 38 43  2  0  0  0
 38 46  1  0  0  0
 38 47  1  0  0  0
 39 64  1  0  0  0
 39 67  2  0  0  0
 40 52  1  0  0  0
 40 53  2  0  0  0
 40 58  1  0  0  0
 41108  1  0  0  0
 41109  1  0  0  0
 41110  1  0  0  0
 41 48  1  0  0  0
 42 43  1  0  0  0
 42 66  1  0  0  0
 42111  1  0  0  0
 42112  1  0  0  0
 43 44  1  0  0  0
 44113  1  0  0  0
 45 46  2  0  0  0
 45114  1  0  0  0
 46115  1  0  0  0
 47116  1  0  0  0
 47117  1  0  0  0
 48 56  1  0  0  0
 48 65  1  0  0  0
 48118  1  0  0  0
 49 50  1  0  0  0
 49 53  1  0  0  0
 49 64  1  0  0  0
 49119  1  0  0  0
 50 51  1  0  0  0
 50120  1  0  0  0
 50121  1  0  0  0
 51 52  1  0  0  0
 51122  1  0  0  0
 51123  1  0  0  0
 52124  1  0  0  0
 52125  1  0  0  0
 53 54  1  0  0  0
 54 55  2  0  0  0
 54126  1  0  0  0
 55 57  1  0  0  0
 55127  1  0  0  0
 56 69  2  0  0  0
 57 58  2  0  0  0
 57128  1  0  0  0
 58129  1  0  0  0
 59 60  1  0  0  0
 59 61  1  0  0  0
 59 62  1  0  0  0
 60130  1  0  0  0
 60131  1  0  0  0
 60132  1  0  0  0
 61133  1  0  0  0
 61134  1  0  0  0
 61135  1  0  0  0
 62136  1  0  0  0
 62137  1  0  0  0
 62138  1  0  0  0
 63 65  1  0  0  0
 63139  1  0  0  0
 63140  1  0  0  0
 63141  1  0  0  0
 64142  1  0  0  0
 65143  1  0  0  0
 68 82  1  0  0  0
 71 72  2  0  0  0
 71 83  1  0  0  0
 71144  1  0  0  0
 72 73  1  0  0  0
 72 77  1  0  0  0
 73 74  2  0  0  0
 73 78  1  0  0  0
 74 75  1  0  0  0
 74 83  1  0  0  0
 75145  1  0  0  0
 75146  1  0  0  0
 75147  1  0  0  0
 76 78  1  0  0  0
 76148  1  0  0  0
 76149  1  0  0  0
 76150  1  0  0  0
 77 81  1  0  0  0
 77151  1  0  0  0
 77152  1  0  0  0
 78153  1  0  0  0
 78154  1  0  0  0
 79 80  1  0  0  0
 79 82  1  0  0  0
 79155  1  0  0  0
 79156  1  0  0  0
 80 83  1  0  0  0
 80157  1  0  0  0
 80158  1  0  0  0
 81 84  1  0  0  0
 81159  1  0  0  0
 81160  1  0  0  0
 82161  1  0  0  0
 82162  1  0  0  0
 84163  1  0  0  0
M  ISO  4   1 100  68 101  82 101  84 100
M  END
> <chiral flag>
0

> <version>
0

> <s_m_source_file>
/data/baiqing/PycharmProjects/Reinvent-master-3.2/result/LINK_invent/BTK/process_docking_weight1_custom_sum_contain_oxygen_bond_distance_aromatic_linkinvent_7_9_3/rearranged_h_0083.sdf

> <i_m_source_file_index>
20

> <r_mmod_Potential_Energy-OPLS-2005>
-8.96724796295166

> <r_mmod_Stretch_Energy-OPLS-2005>
60.2779197692871

> <r_mmod_Bend_Energy-OPLS-2005>
134.196197509766

> <r_mmod_Torsional_Energy-OPLS-2005>
266.675842285156

> <r_mmod_Improper_Torsional_Energy-OPLS-2005>
7.49802350997925

> <r_mmod_Van_der_Waal_Energy-OPLS-2005>
121.501922607422

> <r_mmod_Electrostatic_Energy-OPLS-2005>
-428.019866943359

> <r_mmod_Solvation_Energy-OPLS-2005>
-207.164642333984

> <b_mmod_Minimization_Converged-OPLS-2005>
0

> <r_mmod_RMS_Derivative-OPLS-2005>
6.43508577346802

$$$$
20
                    3D
 Structure written by MMmdl.
173181  0  0  1  0            999 V2000
  -30.7049  -14.4515   20.6097 C   0  0  0  0  0  0
  -30.4270  -12.3031   19.4279 C   0  0  0  0  0  0
  -29.5006  -12.5180   18.2118 C   0  0  0  0  0  0
  -28.0200  -12.3763   18.6180 C   0  0  0  0  0  0
  -27.6670  -13.2035   19.8829 C   0  0  2  0  0  0
  -28.7048  -12.9660   21.0052 C   0  0  0  0  0  0
  -25.2619  -13.8150   20.5688 C   0  0  0  0  0  0
  -24.1851  -13.0446   20.9172 C   0  0  0  0  0  0
  -24.6385  -11.6910   20.8725 C   0  0  0  0  0  0
  -23.9046  -10.4304   21.0395 C   0  0  0  0  0  0
  -24.3599   -9.4223   21.9176 C   0  0  0  0  0  0
  -23.6284   -8.2251   22.0749 C   0  0  0  0  0  0
  -22.4272   -8.0277   21.3535 C   0  0  0  0  0  0
  -21.9897   -9.0253   20.4646 C   0  0  0  0  0  0
  -22.7215  -10.2139   20.3055 C   0  0  0  0  0  0
  -21.6862   -6.0732   22.5277 C   0  0  0  0  0  0
  -21.4015   -6.5635   23.8208 C   0  0  0  0  0  0
  -21.3664   -5.6785   24.9169 C   0  0  0  0  0  0
  -21.6054   -4.3050   24.7217 C   0  0  0  0  0  0
  -21.8822   -3.8140   23.4338 C   0  0  0  0  0  0
  -21.9197   -4.6960   22.3397 C   0  0  0  0  0  0
  -22.7883  -13.5268   21.1832 C   0  0  0  0  0  0
  -22.1669   -4.2146   21.0975 F   0  0  0  0  0  0
  -21.5634   -3.4536   25.7731 F   0  0  0  0  0  0
  -30.0434  -13.2710   20.4675 N   0  0  0  0  0  0
  -26.3048  -12.9311   20.3382 N   0  0  0  0  0  0
  -25.9316  -11.6474   20.5759 N   0  0  0  0  0  0
  -22.0509  -12.8270   22.0382 N   0  0  0  0  0  0
  -25.4387  -15.1860   20.4107 N   0  0  0  0  0  0
  -31.7931  -14.6843   20.0759 O   0  0  0  0  0  0
  -21.6640   -6.8871   21.4237 O   0  0  0  0  0  0
  -22.3589  -14.5581   20.6678 O   0  0  0  0  0  0
  -24.6147  -31.8677   23.2085 C   0  0  0  0  0  0
  -25.9045  -32.4816   23.8380 C   0  0  1  0  0  0
  -27.2379  -27.4450   20.1040 C   0  0  0  0  0  0
  -25.5910  -33.8612   24.2323 N   0  0  0  0  0  0
  -23.4028  -30.4901   21.5484 C   0  0  2  0  0  0
  -24.8512  -28.9548   20.1145 C   0  0  0  0  0  0
  -22.7416  -29.4661   22.4988 C   0  0  0  0  0  0
  -18.0296  -28.1352   22.8480 C   0  0  0  0  0  0
  -24.1488  -36.7319   23.2634 C   0  0  0  0  0  0
  -25.9283  -30.8393   21.3579 C   0  0  0  0  0  0
  -26.0095  -29.4736   20.7071 C   0  0  0  0  0  0
  -27.2087  -28.7276   20.6958 C   0  0  0  0  0  0
  -26.0676  -26.9382   19.5003 C   0  0  0  0  0  0
  -24.8753  -27.6866   19.5054 C   0  0  0  0  0  0
  -23.6113  -29.8187   20.1639 C   0  0  0  0  0  0
  -25.4109  -36.3105   24.0338 C   0  0  1  0  0  0
  -20.5874  -28.3666   23.1323 C   0  0  2  0  0  0
  -20.6801  -26.9386   22.5456 C   0  0  0  0  0  0
  -19.5794  -26.6360   21.5244 C   0  0  0  0  0  0
  -18.1960  -26.7884   22.1636 C   0  0  0  0  0  0
  -19.1529  -28.8835   23.2886 C   0  0  0  0  0  0
  -18.9449  -30.1440   23.8880 C   0  0  0  0  0  0
  -17.6449  -30.6574   24.0535 C   0  0  0  0  0  0
  -25.9030  -34.9470   23.5129 C   0  0  0  0  0  0
  -16.5351  -29.9064   23.6296 C   0  0  0  0  0  0
  -16.7288  -28.6477   23.0328 C   0  0  0  0  0  0
  -26.4474  -31.6587   25.0692 C   0  0  0  0  0  0
  -25.3742  -31.3709   26.1441 C   0  0  0  0  0  0
  -27.0296  -30.3029   24.6048 C   0  0  0  0  0  0
  -27.6048  -32.4300   25.7457 C   0  0  0  0  0  0
  -27.5586  -37.1814   24.8463 C   0  0  0  0  0  0
  -21.4145  -29.3044   22.3740 N   0  0  0  0  0  0
  -26.4299  -37.3790   23.9406 N   0  0  0  0  0  0
  -24.6665  -31.0789   22.0974 N   0  0  0  0  0  0
  -23.4197  -28.8217   23.3043 O   0  0  0  0  0  0
  -28.3890  -26.6920   20.1191 O   0  0  0  0  0  0
  -26.5577  -34.8925   22.4676 O   0  0  0  0  0  0
  -23.5342  -32.1430   23.7489 O   0  0  0  0  0  0
  -29.4941  -19.7306   20.3791 C   0  0  0  0  0  0
  -29.0492  -19.1820   21.5997 C   0  0  0  0  0  0
  -28.2897  -20.0243   22.4567 C   0  0  0  0  0  0
  -27.9513  -21.3334   22.0075 C   0  0  0  0  0  0
  -28.3805  -21.7439   20.7193 C   0  0  0  0  0  0
  -27.8416  -19.5195   23.8290 C   0  0  0  0  0  0
  -23.2511  -22.9407   23.0165 C   0  0  0  0  0  0
  -24.8206  -22.8777   24.9978 C   0  0  0  0  0  0
  -29.3108  -17.7066   21.9697 C   0  0  0  0  0  0
  -27.1136  -22.2718   22.8796 C   0  0  0  0  0  0
  -27.9026  -23.0369   20.0412 C   0  0  0  0  0  0
  -25.5982  -22.0521   22.7002 C   0  0  0  0  0  0
  -28.8601  -24.2538   20.1264 C   0  0  0  0  0  0
  -30.2006  -16.8592   21.0229 C   0  0  0  0  0  0
  -28.2912  -25.4784   20.8832 C   0  0  0  0  0  0
  -24.7151  -23.0537   23.4721 C   0  0  0  0  0  0
  -29.1699  -20.9668   19.9507 N   0  0  0  0  0  0
  -30.0196  -15.4177   21.2449 N   0  0  0  0  0  0
  -31.4729  -12.4038   19.1316 H   0  0  0  0  0  0
  -30.3230  -11.2885   19.8149 H   0  0  0  0  0  0
  -29.7400  -11.8042   17.4228 H   0  0  0  0  0  0
  -29.6726  -13.5099   17.7899 H   0  0  0  0  0  0
  -27.8274  -11.3189   18.8015 H   0  0  0  0  0  0
  -27.3723  -12.6646   17.7887 H   0  0  0  0  0  0
  -27.7193  -14.2543   19.5976 H   0  0  0  0  0  0
  -28.6743  -11.9268   21.3363 H   0  0  0  0  0  0
  -28.4572  -13.5539   21.8898 H   0  0  0  0  0  0
  -25.2745   -9.5719   22.4742 H   0  0  0  0  0  0
  -24.0007   -7.4656   22.7476 H   0  0  0  0  0  0
  -21.0825   -8.8769   19.8956 H   0  0  0  0  0  0
  -22.3663  -10.9673   19.6164 H   0  0  0  0  0  0
  -21.2000   -7.6143   23.9710 H   0  0  0  0  0  0
  -21.1490   -6.0512   25.9072 H   0  0  0  0  0  0
  -22.0596   -2.7602   23.2838 H   0  0  0  0  0  0
  -22.4091  -11.9915   22.4760 H   0  0  0  0  0  0
  -21.1142  -13.1329   22.2595 H   0  0  0  0  0  0
  -24.6735  -15.8443   20.5082 H   0  0  0  0  0  0
  -26.2948  -15.6179   20.0860 H   0  0  0  0  0  0
  -26.7131  -32.5538   23.1162 H   0  0  0  0  0  0
  -25.0086  -33.9774   25.0487 H   0  0  0  0  0  0
  -22.6905  -31.3059   21.4068 H   0  0  0  0  0  0
  -23.3735  -35.9668   23.3301 H   0  0  0  0  0  0
  -24.3581  -36.8915   22.2045 H   0  0  0  0  0  0
  -23.7249  -37.6536   23.6632 H   0  0  0  0  0  0
  -26.0329  -31.6062   20.5897 H   0  0  0  0  0  0
  -26.8189  -30.8970   21.9724 H   0  0  0  0  0  0
  -28.1039  -29.1224   21.1561 H   0  0  0  0  0  0
  -26.0803  -25.9631   19.0319 H   0  0  0  0  0  0
  -23.9861  -27.2828   19.0414 H   0  0  0  0  0  0
  -23.7204  -30.5895   19.4006 H   0  0  0  0  0  0
  -22.7363  -29.2355   19.8708 H   0  0  0  0  0  0
  -25.1281  -36.1981   25.0835 H   0  0  0  0  0  0
  -20.9939  -28.3253   24.1449 H   0  0  0  0  0  0
  -20.5715  -26.2270   23.3661 H   0  0  0  0  0  0
  -21.6681  -26.7432   22.1268 H   0  0  0  0  0  0
  -19.7013  -25.6291   21.1244 H   0  0  0  0  0  0
  -19.6731  -27.3190   20.6796 H   0  0  0  0  0  0
  -17.4247  -26.6592   21.4024 H   0  0  0  0  0  0
  -18.0372  -26.0042   22.9054 H   0  0  0  0  0  0
  -19.7922  -30.7264   24.2247 H   0  0  0  0  0  0
  -17.5002  -31.6256   24.5118 H   0  0  0  0  0  0
  -15.5344  -30.2966   23.7590 H   0  0  0  0  0  0
  -15.8697  -28.0792   22.7023 H   0  0  0  0  0  0
  -24.5917  -30.7044   25.7795 H   0  0  0  0  0  0
  -24.8934  -32.2869   26.4884 H   0  0  0  0  0  0
  -25.8103  -30.8893   27.0198 H   0  0  0  0  0  0
  -26.2829  -29.6789   24.1112 H   0  0  0  0  0  0
  -27.4081  -29.7258   25.4498 H   0  0  0  0  0  0
  -27.8651  -30.4343   23.9165 H   0  0  0  0  0  0
  -27.2663  -33.3588   26.2070 H   0  0  0  0  0  0
  -28.3839  -32.6888   25.0269 H   0  0  0  0  0  0
  -28.0728  -31.8392   26.5347 H   0  0  0  0  0  0
  -28.2614  -38.0104   24.7488 H   0  0  0  0  0  0
  -28.1064  -36.2627   24.6304 H   0  0  0  0  0  0
  -27.2288  -37.1478   25.8864 H   0  0  0  0  0  0
  -20.9278  -29.8816   21.7018 H   0  0  0  0  0  0
  -26.0185  -38.2869   24.1407 H   0  0  0  0  0  0
  -30.0954  -19.1611   19.6885 H   0  0  0  0  0  0
  -27.6432  -18.4495   23.8375 H   0  0  0  0  0  0
  -26.9227  -19.9830   24.1800 H   0  0  0  0  0  0
  -28.6148  -19.7234   24.5698 H   0  0  0  0  0  0
  -22.6157  -23.6635   23.5303 H   0  0  0  0  0  0
  -22.8486  -21.9463   23.2136 H   0  0  0  0  0  0
  -23.1539  -23.1275   21.9459 H   0  0  0  0  0  0
  -24.1284  -23.5393   25.5199 H   0  0  0  0  0  0
  -25.8200  -23.1145   25.3627 H   0  0  0  0  0  0
  -24.5886  -21.8559   25.3030 H   0  0  0  0  0  0
  -28.3308  -17.2311   22.0315 H   0  0  0  0  0  0
  -29.7366  -17.6641   22.9736 H   0  0  0  0  0  0
  -27.3672  -23.3069   22.6564 H   0  0  0  0  0  0
  -27.4001  -22.1515   23.9243 H   0  0  0  0  0  0
  -26.8975  -23.2929   20.3706 H   0  0  0  0  0  0
  -27.7604  -22.8024   18.9843 H   0  0  0  0  0  0
  -25.3272  -21.0331   22.9774 H   0  0  0  0  0  0
  -25.3597  -22.1336   21.6406 H   0  0  0  0  0  0
  -29.1020  -24.5625   19.1087 H   0  0  0  0  0  0
  -29.8153  -23.9563   20.5622 H   0  0  0  0  0  0
  -31.2504  -17.1434   21.1233 H   0  0  0  0  0  0
  -29.9171  -17.0262   19.9836 H   0  0  0  0  0  0
  -28.8630  -25.6196   21.8014 H   0  0  0  0  0  0
  -27.2700  -25.2904   21.2198 H   0  0  0  0  0  0
  -25.0502  -24.0628   23.2252 H   0  0  0  0  0  0
  -29.1645  -15.1269   21.6953 H   0  0  0  0  0  0
  1 25  1  0  0  0
  1 30  2  0  0  0
  1 88  1  0  0  0
  2  3  1  0  0  0
  2 25  1  0  0  0
  2 89  1  0  0  0
  2 90  1  0  0  0
  3  4  1  0  0  0
  3 91  1  0  0  0
  3 92  1  0  0  0
  4  5  1  0  0  0
  4 93  1  0  0  0
  4 94  1  0  0  0
  5  6  1  0  0  0
  5 26  1  0  0  0
  5 95  1  0  0  0
  6 25  1  0  0  0
  6 96  1  0  0  0
  6 97  1  0  0  0
  7  8  2  0  0  0
  7 26  1  0  0  0
  7 29  1  0  0  0
  8  9  1  0  0  0
  8 22  1  0  0  0
  9 10  1  0  0  0
  9 27  2  0  0  0
 10 11  2  0  0  0
 10 15  1  0  0  0
 11 12  1  0  0  0
 11 98  1  0  0  0
 12 13  2  0  0  0
 12 99  1  0  0  0
 13 14  1  0  0  0
 13 31  1  0  0  0
 14 15  2  0  0  0
 14100  1  0  0  0
 15101  1  0  0  0
 16 17  2  0  0  0
 16 21  1  0  0  0
 16 31  1  0  0  0
 17 18  1  0  0  0
 17102  1  0  0  0
 18 19  2  0  0  0
 18103  1  0  0  0
 19 20  1  0  0  0
 19 24  1  0  0  0
 20 21  2  0  0  0
 20104  1  0  0  0
 21 23  1  0  0  0
 22 28  1  0  0  0
 22 32  2  0  0  0
 26 27  1  0  0  0
 28105  1  0  0  0
 28106  1  0  0  0
 29107  1  0  0  0
 29108  1  0  0  0
 33 34  1  0  0  0
 33 66  1  0  0  0
 33 70  2  0  0  0
 34 36  1  0  0  0
 34 59  1  0  0  0
 34109  1  0  0  0
 35 44  2  0  0  0
 35 45  1  0  0  0
 35 68  1  0  0  0
 36 56  1  0  0  0
 36110  1  0  0  0
 37 39  1  0  0  0
 37 47  1  0  0  0
 37 66  1  0  0  0
 37111  1  0  0  0
 38 43  2  0  0  0
 38 46  1  0  0  0
 38 47  1  0  0  0
 39 64  1  0  0  0
 39 67  2  0  0  0
 40 52  1  0  0  0
 40 53  2  0  0  0
 40 58  1  0  0  0
 41112  1  0  0  0
 41113  1  0  0  0
 41114  1  0  0  0
 41 48  1  0  0  0
 42 43  1  0  0  0
 42 66  1  0  0  0
 42115  1  0  0  0
 42116  1  0  0  0
 43 44  1  0  0  0
 44117  1  0  0  0
 45 46  2  0  0  0
 45118  1  0  0  0
 46119  1  0  0  0
 47120  1  0  0  0
 47121  1  0  0  0
 48 56  1  0  0  0
 48 65  1  0  0  0
 48122  1  0  0  0
 49 50  1  0  0  0
 49 53  1  0  0  0
 49 64  1  0  0  0
 49123  1  0  0  0
 50 51  1  0  0  0
 50124  1  0  0  0
 50125  1  0  0  0
 51 52  1  0  0  0
 51126  1  0  0  0
 51127  1  0  0  0
 52128  1  0  0  0
 52129  1  0  0  0
 53 54  1  0  0  0
 54 55  2  0  0  0
 54130  1  0  0  0
 55 57  1  0  0  0
 55131  1  0  0  0
 56 69  2  0  0  0
 57 58  2  0  0  0
 57132  1  0  0  0
 58133  1  0  0  0
 59 60  1  0  0  0
 59 61  1  0  0  0
 59 62  1  0  0  0
 60134  1  0  0  0
 60135  1  0  0  0
 60136  1  0  0  0
 61137  1  0  0  0
 61138  1  0  0  0
 61139  1  0  0  0
 62140  1  0  0  0
 62141  1  0  0  0
 62142  1  0  0  0
 63 65  1  0  0  0
 63143  1  0  0  0
 63144  1  0  0  0
 63145  1  0  0  0
 64146  1  0  0  0
 65147  1  0  0  0
 68 85  1  0  0  0
 71 72  2  0  0  0
 71 87  1  0  0  0
 71148  1  0  0  0
 72 73  1  0  0  0
 72 79  1  0  0  0
 73 74  2  0  0  0
 73 76  1  0  0  0
 74 75  1  0  0  0
 74 80  1  0  0  0
 75 81  1  0  0  0
 75 87  2  0  0  0
 76149  1  0  0  0
 76150  1  0  0  0
 76151  1  0  0  0
 77152  1  0  0  0
 77153  1  0  0  0
 77154  1  0  0  0
 77 86  1  0  0  0
 78 86  1  0  0  0
 78155  1  0  0  0
 78156  1  0  0  0
 78157  1  0  0  0
 79 84  1  0  0  0
 79158  1  0  0  0
 79159  1  0  0  0
 80 82  1  0  0  0
 80160  1  0  0  0
 80161  1  0  0  0
 81 83  1  0  0  0
 81162  1  0  0  0
 81163  1  0  0  0
 82 86  1  0  0  0
 82164  1  0  0  0
 82165  1  0  0  0
 83 85  1  0  0  0
 83166  1  0  0  0
 83167  1  0  0  0
 84 88  1  0  0  0
 84168  1  0  0  0
 84169  1  0  0  0
 85170  1  0  0  0
 85171  1  0  0  0
 86172  1  0  0  0
 88173  1  0  0  0
M  ISO  4   1 100  68 101  85 101  88 100
M  END
> <chiral flag>
0

> <version>
0

> <s_m_source_file>
/data/baiqing/PycharmProjects/Reinvent-master-3.2/result/LINK_invent/BTK/process_docking_weight1_custom_sum_contain_oxygen_bond_distance_aromatic_linkinvent_7_9_3/rearranged_h_0083.sdf

> <i_m_source_file_index>
21

> <r_mmod_Potential_Energy-OPLS-2005>
-232.655563354492

> <r_mmod_Stretch_Energy-OPLS-2005>
39.8812713623047

> <r_mmod_Bend_Energy-OPLS-2005>
98.8151931762695

> <r_mmod_Torsional_Energy-OPLS-2005>
249.258697509766

> <r_mmod_Improper_Torsional_Energy-OPLS-2005>
4.66786098480225

> <r_mmod_Van_der_Waal_Energy-OPLS-2005>
155.832153320312

> <r_mmod_Electrostatic_Energy-OPLS-2005>
-570.350769042969

> <r_mmod_Solvation_Energy-OPLS-2005>
-221.20654296875

> <b_mmod_Minimization_Converged-OPLS-2005>
0

> <r_mmod_RMS_Derivative-OPLS-2005>
1.88165307044983

$$$$
21
                    3D
 Structure written by MMmdl.
166174  0  0  1  0            999 V2000
  -30.5854  -14.7258   20.4631 C   0  0  0  0  0  0
  -30.4304  -12.4373   19.4768 C   0  0  0  0  0  0
  -29.5108  -12.5122   18.2378 C   0  0  0  0  0  0
  -28.0331  -12.3377   18.6440 C   0  0  0  0  0  0
  -27.6424  -13.2248   19.8583 C   0  0  2  0  0  0
  -28.6819  -13.1296   20.9957 C   0  0  0  0  0  0
  -25.2493  -13.8153   20.5648 C   0  0  0  0  0  0
  -24.1805  -13.0429   20.9188 C   0  0  0  0  0  0
  -24.6389  -11.6889   20.8736 C   0  0  0  0  0  0
  -23.9056  -10.4286   21.0407 C   0  0  0  0  0  0
  -24.3626   -9.4194   21.9166 C   0  0  0  0  0  0
  -23.6319   -8.2222   22.0734 C   0  0  0  0  0  0
  -22.4284   -8.0271   21.3535 C   0  0  0  0  0  0
  -21.9924   -9.0237   20.4628 C   0  0  0  0  0  0
  -22.7249  -10.2120   20.3053 C   0  0  0  0  0  0
  -21.6842   -6.0735   22.5286 C   0  0  0  0  0  0
  -21.4007   -6.5641   23.8217 C   0  0  0  0  0  0
  -21.3672   -5.6799   24.9179 C   0  0  0  0  0  0
  -21.6052   -4.3058   24.7229 C   0  0  0  0  0  0
  -21.8819   -3.8149   23.4351 C   0  0  0  0  0  0
  -21.9188   -4.6968   22.3406 C   0  0  0  0  0  0
  -22.7835  -13.5208   21.1890 C   0  0  0  0  0  0
  -22.1656   -4.2157   21.0981 F   0  0  0  0  0  0
  -21.5645   -3.4540   25.7735 F   0  0  0  0  0  0
  -29.9868  -13.4875   20.4217 N   0  0  0  0  0  0
  -26.2930  -12.9348   20.3270 N   0  0  0  0  0  0
  -25.9312  -11.6492   20.5747 N   0  0  0  0  0  0
  -22.0512  -12.8175   22.0445 N   0  0  0  0  0  0
  -25.4166  -15.1888   20.4044 N   0  0  0  0  0  0
  -31.7645  -14.8602   20.1213 O   0  0  0  0  0  0
  -21.6645   -6.8877   21.4241 O   0  0  0  0  0  0
  -22.3503  -14.5517   20.6741 O   0  0  0  0  0  0
  -24.6300  -31.8559   23.1947 C   0  0  0  0  0  0
  -25.9128  -32.4756   23.8322 C   0  0  1  0  0  0
  -27.2076  -27.2457   20.1426 C   0  0  0  0  0  0
  -25.5929  -33.8548   24.2258 N   0  0  0  0  0  0
  -23.4272  -30.4711   21.5396 C   0  0  2  0  0  0
  -24.8725  -28.9154   20.1111 C   0  0  0  0  0  0
  -22.7521  -29.4550   22.4922 C   0  0  0  0  0  0
  -18.0386  -28.1332   22.8564 C   0  0  0  0  0  0
  -24.1490  -36.7271   23.2650 C   0  0  0  0  0  0
  -25.9736  -30.7625   21.3807 C   0  0  0  0  0  0
  -26.0448  -29.3841   20.7218 C   0  0  0  0  0  0
  -27.2188  -28.5614   20.7240 C   0  0  0  0  0  0
  -26.0185  -26.8501   19.4984 C   0  0  0  0  0  0
  -24.8663  -27.6596   19.4858 C   0  0  0  0  0  0
  -23.6447  -29.8028   20.1573 C   0  0  0  0  0  0
  -25.4119  -36.3083   24.0336 C   0  0  1  0  0  0
  -20.5992  -28.3694   23.1367 C   0  0  2  0  0  0
  -20.6940  -26.9372   22.5597 C   0  0  0  0  0  0
  -19.5923  -26.6164   21.5438 C   0  0  0  0  0  0
  -18.2102  -26.7850   22.1793 C   0  0  0  0  0  0
  -19.1632  -28.8860   23.2895 C   0  0  0  0  0  0
  -18.9541  -30.1506   23.8786 C   0  0  0  0  0  0
  -17.6522  -30.6620   24.0418 C   0  0  0  0  0  0
  -25.9031  -34.9444   23.5087 C   0  0  0  0  0  0
  -16.5427  -29.9052   23.6299 C   0  0  0  0  0  0
  -16.7352  -28.6431   23.0402 C   0  0  0  0  0  0
  -26.4500  -31.6602   25.0728 C   0  0  0  0  0  0
  -25.3707  -31.3766   26.1432 C   0  0  0  0  0  0
  -27.0384  -30.3020   24.6267 C   0  0  0  0  0  0
  -27.6066  -32.4335   25.7510 C   0  0  0  0  0  0
  -27.5576  -37.1796   24.8461 C   0  0  0  0  0  0
  -21.4233  -29.3049   22.3736 N   0  0  0  0  0  0
  -26.4292  -37.3773   23.9397 N   0  0  0  0  0  0
  -24.6946  -31.0491   22.0950 N   0  0  0  0  0  0
  -23.4247  -28.8054   23.2974 O   0  0  0  0  0  0
  -28.2888  -26.3361   20.1703 O   0  0  0  0  0  0
  -26.5626  -34.8919   22.4667 O   0  0  0  0  0  0
  -23.5461  -32.1380   23.7256 O   0  0  0  0  0  0
  -27.5905  -21.7557   21.4726 C   0  0  0  0  0  0
  -29.0921  -20.8998   20.0961 C   0  0  0  0  0  0
  -28.4988  -22.1322   20.4432 C   0  0  0  0  0  0
  -27.5728  -20.3882   21.6411 C   0  0  0  0  0  0
  -28.0841  -23.5876   18.4139 C   0  0  0  0  0  0
  -24.2590  -19.0683   23.1576 C   0  0  0  0  0  0
  -25.3343  -21.2034   24.0068 C   0  0  0  0  0  0
  -26.6537  -19.5583   22.5123 C   0  0  0  0  0  0
  -28.6925  -18.2504   20.7322 C   0  0  0  0  0  0
  -30.0042  -17.3357   20.5012 C   0  0  0  0  0  0
  -28.0497  -24.9081   20.6126 C   0  0  0  0  0  0
  -28.6595  -23.6135   19.8346 C   0  0  1  0  0  0
  -25.2798  -20.1805   22.8548 C   0  0  0  0  0  0
  -28.5541  -19.7948   20.8260 N   0  0  0  0  0  0
  -29.7734  -15.8253   20.6851 N   0  0  0  0  0  0
  -31.4728  -12.5624   19.1829 H   0  0  0  0  0  0
  -30.3600  -11.4550   19.9456 H   0  0  0  0  0  0
  -29.7926  -11.7530   17.5096 H   0  0  0  0  0  0
  -29.6432  -13.4745   17.7420 H   0  0  0  0  0  0
  -27.8823  -11.2856   18.8894 H   0  0  0  0  0  0
  -27.3807  -12.5480   17.7967 H   0  0  0  0  0  0
  -27.6417  -14.2530   19.4949 H   0  0  0  0  0  0
  -28.7035  -12.1177   21.4045 H   0  0  0  0  0  0
  -28.4162  -13.7814   21.8295 H   0  0  0  0  0  0
  -25.2782   -9.5668   22.4724 H   0  0  0  0  0  0
  -24.0039   -7.4600   22.7446 H   0  0  0  0  0  0
  -21.0859   -8.8767   19.8921 H   0  0  0  0  0  0
  -22.3717  -10.9664   19.6170 H   0  0  0  0  0  0
  -21.1978   -7.6149   23.9719 H   0  0  0  0  0  0
  -21.1506   -6.0525   25.9081 H   0  0  0  0  0  0
  -22.0581   -2.7615   23.2844 H   0  0  0  0  0  0
  -22.4214  -11.9856   22.4826 H   0  0  0  0  0  0
  -21.1109  -13.1122   22.2673 H   0  0  0  0  0  0
  -24.6286  -15.8234   20.4775 H   0  0  0  0  0  0
  -26.2468  -15.6254   20.0282 H   0  0  0  0  0  0
  -26.7202  -32.5439   23.1083 H   0  0  0  0  0  0
  -25.0100  -33.9678   25.0418 H   0  0  0  0  0  0
  -22.7234  -31.2939   21.3947 H   0  0  0  0  0  0
  -23.3763  -35.9585   23.3313 H   0  0  0  0  0  0
  -24.3581  -36.8879   22.2061 H   0  0  0  0  0  0
  -23.7220  -37.6463   23.6662 H   0  0  0  0  0  0
  -26.1229  -31.5242   20.6151 H   0  0  0  0  0  0
  -26.8489  -30.8092   22.0160 H   0  0  0  0  0  0
  -28.1130  -28.9068   21.2234 H   0  0  0  0  0  0
  -25.9674  -25.8826   19.0168 H   0  0  0  0  0  0
  -23.9692  -27.2914   19.0070 H   0  0  0  0  0  0
  -23.7688  -30.5823   19.4038 H   0  0  0  0  0  0
  -22.7676  -29.2306   19.8527 H   0  0  0  0  0  0
  -25.1308  -36.1943   25.0835 H   0  0  0  0  0  0
  -21.0150  -28.3287   24.1450 H   0  0  0  0  0  0
  -20.5842  -26.2391   23.3927 H   0  0  0  0  0  0
  -21.6865  -26.7380   22.1489 H   0  0  0  0  0  0
  -19.7062  -25.5948   21.1725 H   0  0  0  0  0  0
  -19.6863  -27.2694   20.6742 H   0  0  0  0  0  0
  -18.0505  -26.0060   22.9271 H   0  0  0  0  0  0
  -17.4362  -26.6530   21.4178 H   0  0  0  0  0  0
  -19.7975  -30.7477   24.1998 H   0  0  0  0  0  0
  -17.5025  -31.6381   24.4799 H   0  0  0  0  0  0
  -15.5434  -30.2943   23.7653 H   0  0  0  0  0  0
  -15.8733  -28.0693   22.7213 H   0  0  0  0  0  0
  -24.5868  -30.7147   25.7730 H   0  0  0  0  0  0
  -24.8913  -32.2948   26.4854 H   0  0  0  0  0  0
  -25.7992  -30.8924   27.0220 H   0  0  0  0  0  0
  -26.3002  -29.6725   24.1276 H   0  0  0  0  0  0
  -27.4035  -29.7346   25.4843 H   0  0  0  0  0  0
  -27.8894  -30.4291   23.9560 H   0  0  0  0  0  0
  -27.2692  -33.3635   26.2107 H   0  0  0  0  0  0
  -28.3886  -32.6883   25.0340 H   0  0  0  0  0  0
  -28.0730  -31.8439   26.5417 H   0  0  0  0  0  0
  -28.2611  -38.0084   24.7528 H   0  0  0  0  0  0
  -28.1075  -36.2618   24.6294 H   0  0  0  0  0  0
  -27.2290  -37.1446   25.8866 H   0  0  0  0  0  0
  -20.9405  -29.8804   21.6982 H   0  0  0  0  0  0
  -26.0187  -38.2851   24.1403 H   0  0  0  0  0  0
  -26.9344  -22.4312   22.0037 H   0  0  0  0  0  0
  -29.8262  -20.7012   19.3286 H   0  0  0  0  0  0
  -28.5864  -22.8450   17.7944 H   0  0  0  0  0  0
  -28.1995  -24.5520   17.9164 H   0  0  0  0  0  0
  -27.0211  -23.3403   18.4264 H   0  0  0  0  0  0
  -23.2717  -19.4778   23.3670 H   0  0  0  0  0  0
  -24.5633  -18.4713   24.0174 H   0  0  0  0  0  0
  -24.1444  -18.3882   22.3121 H   0  0  0  0  0  0
  -24.5831  -20.9920   24.7695 H   0  0  0  0  0  0
  -25.1424  -22.2110   23.6365 H   0  0  0  0  0  0
  -26.3080  -21.2160   24.4979 H   0  0  0  0  0  0
  -27.1693  -19.2592   23.4263 H   0  0  0  0  0  0
  -26.4329  -18.6345   21.9806 H   0  0  0  0  0  0
  -28.3657  -17.8680   21.6982 H   0  0  0  0  0  0
  -27.9282  -17.9251   20.0277 H   0  0  0  0  0  0
  -30.7967  -17.6446   21.1832 H   0  0  0  0  0  0
  -30.3864  -17.5029   19.4922 H   0  0  0  0  0  0
  -26.9819  -24.7355   20.7513 H   0  0  0  0  0  0
  -28.4522  -24.8692   21.6255 H   0  0  0  0  0  0
  -29.7332  -23.7914   19.7554 H   0  0  0  0  0  0
  -24.9031  -20.6894   21.9669 H   0  0  0  0  0  0
  -28.8342  -15.5788   20.9604 H   0  0  0  0  0  0
  1 25  1  0  0  0
  1 30  2  0  0  0
  1 85  1  0  0  0
  2  3  1  0  0  0
  2 25  1  0  0  0
  2 86  1  0  0  0
  2 87  1  0  0  0
  3  4  1  0  0  0
  3 88  1  0  0  0
  3 89  1  0  0  0
  4  5  1  0  0  0
  4 90  1  0  0  0
  4 91  1  0  0  0
  5  6  1  0  0  0
  5 26  1  0  0  0
  5 92  1  0  0  0
  6 25  1  0  0  0
  6 93  1  0  0  0
  6 94  1  0  0  0
  7  8  2  0  0  0
  7 26  1  0  0  0
  7 29  1  0  0  0
  8  9  1  0  0  0
  8 22  1  0  0  0
  9 10  1  0  0  0
  9 27  2  0  0  0
 10 11  2  0  0  0
 10 15  1  0  0  0
 11 12  1  0  0  0
 11 95  1  0  0  0
 12 13  2  0  0  0
 12 96  1  0  0  0
 13 14  1  0  0  0
 13 31  1  0  0  0
 14 15  2  0  0  0
 14 97  1  0  0  0
 15 98  1  0  0  0
 16 17  2  0  0  0
 16 21  1  0  0  0
 16 31  1  0  0  0
 17 18  1  0  0  0
 17 99  1  0  0  0
 18 19  2  0  0  0
 18100  1  0  0  0
 19 20  1  0  0  0
 19 24  1  0  0  0
 20 21  2  0  0  0
 20101  1  0  0  0
 21 23  1  0  0  0
 22 28  1  0  0  0
 22 32  2  0  0  0
 26 27  1  0  0  0
 28102  1  0  0  0
 28103  1  0  0  0
 29104  1  0  0  0
 29105  1  0  0  0
 33 34  1  0  0  0
 33 66  1  0  0  0
 33 70  2  0  0  0
 34 36  1  0  0  0
 34 59  1  0  0  0
 34106  1  0  0  0
 35 44  2  0  0  0
 35 45  1  0  0  0
 35 68  1  0  0  0
 36 56  1  0  0  0
 36107  1  0  0  0
 37 39  1  0  0  0
 37 47  1  0  0  0
 37 66  1  0  0  0
 37108  1  0  0  0
 38 43  2  0  0  0
 38 46  1  0  0  0
 38 47  1  0  0  0
 39 64  1  0  0  0
 39 67  2  0  0  0
 40 52  1  0  0  0
 40 53  2  0  0  0
 40 58  1  0  0  0
 41109  1  0  0  0
 41110  1  0  0  0
 41111  1  0  0  0
 41 48  1  0  0  0
 42 43  1  0  0  0
 42 66  1  0  0  0
 42112  1  0  0  0
 42113  1  0  0  0
 43 44  1  0  0  0
 44114  1  0  0  0
 45 46  2  0  0  0
 45115  1  0  0  0
 46116  1  0  0  0
 47117  1  0  0  0
 47118  1  0  0  0
 48 56  1  0  0  0
 48 65  1  0  0  0
 48119  1  0  0  0
 49 50  1  0  0  0
 49 53  1  0  0  0
 49 64  1  0  0  0
 49120  1  0  0  0
 50 51  1  0  0  0
 50121  1  0  0  0
 50122  1  0  0  0
 51 52  1  0  0  0
 51123  1  0  0  0
 51124  1  0  0  0
 52125  1  0  0  0
 52126  1  0  0  0
 53 54  1  0  0  0
 54 55  2  0  0  0
 54127  1  0  0  0
 55 57  1  0  0  0
 55128  1  0  0  0
 56 69  2  0  0  0
 57 58  2  0  0  0
 57129  1  0  0  0
 58130  1  0  0  0
 59 60  1  0  0  0
 59 61  1  0  0  0
 59 62  1  0  0  0
 60131  1  0  0  0
 60132  1  0  0  0
 60133  1  0  0  0
 61134  1  0  0  0
 61135  1  0  0  0
 61136  1  0  0  0
 62137  1  0  0  0
 62138  1  0  0  0
 62139  1  0  0  0
 63 65  1  0  0  0
 63140  1  0  0  0
 63141  1  0  0  0
 63142  1  0  0  0
 64143  1  0  0  0
 65144  1  0  0  0
 68 81  1  0  0  0
 71 73  1  0  0  0
 71 74  2  0  0  0
 71145  1  0  0  0
 72 73  2  0  0  0
 72 84  1  0  0  0
 72146  1  0  0  0
 73 82  1  0  0  0
 74 78  1  0  0  0
 74 84  1  0  0  0
 75147  1  0  0  0
 75148  1  0  0  0
 75149  1  0  0  0
 75 82  1  0  0  0
 76150  1  0  0  0
 76151  1  0  0  0
 76152  1  0  0  0
 76 83  1  0  0  0
 77 83  1  0  0  0
 77153  1  0  0  0
 77154  1  0  0  0
 77155  1  0  0  0
 78 83  1  0  0  0
 78156  1  0  0  0
 78157  1  0  0  0
 79 80  1  0  0  0
 79 84  1  0  0  0
 79158  1  0  0  0
 79159  1  0  0  0
 80 85  1  0  0  0
 80160  1  0  0  0
 80161  1  0  0  0
 81 82  1  0  0  0
 81162  1  0  0  0
 81163  1  0  0  0
 82164  1  0  0  0
 83165  1  0  0  0
 85166  1  0  0  0
M  ISO  4   1 100  68 101  81 101  85 100
M  END
> <chiral flag>
0

> <version>
0

> <s_m_source_file>
/data/baiqing/PycharmProjects/Reinvent-master-3.2/result/LINK_invent/BTK/process_docking_weight1_custom_sum_contain_oxygen_bond_distance_aromatic_linkinvent_7_9_3/rearranged_h_0083.sdf

> <i_m_source_file_index>
22

> <r_mmod_Potential_Energy-OPLS-2005>
207.464294433594

> <r_mmod_Stretch_Energy-OPLS-2005>
135.059387207031

> <r_mmod_Bend_Energy-OPLS-2005>
201.228118896484

> <r_mmod_Torsional_Energy-OPLS-2005>
247.78759765625

> <r_mmod_Improper_Torsional_Energy-OPLS-2005>
6.78347396850586

> <r_mmod_Van_der_Waal_Energy-OPLS-2005>
115.394142150879

> <r_mmod_Electrostatic_Energy-OPLS-2005>
-374.196441650391

> <r_mmod_Solvation_Energy-OPLS-2005>
-210.594116210938

> <b_mmod_Minimization_Converged-OPLS-2005>
0

> <r_mmod_RMS_Derivative-OPLS-2005>
5.45897340774536

$$$$
22
                    3D
 Structure written by MMmdl.
168176  0  0  1  0            999 V2000
  -30.7375  -14.3713   20.6404 C   0  0  0  0  0  0
  -30.4120  -12.2680   19.3975 C   0  0  0  0  0  0
  -29.4810  -12.5197   18.1950 C   0  0  0  0  0  0
  -28.0042  -12.3785   18.6114 C   0  0  0  0  0  0
  -27.6649  -13.1980   19.8833 C   0  0  2  0  0  0
  -28.7020  -12.9238   20.9935 C   0  0  0  0  0  0
  -25.2599  -13.8144   20.5700 C   0  0  0  0  0  0
  -24.1823  -13.0431   20.9171 C   0  0  0  0  0  0
  -24.6365  -11.6898   20.8702 C   0  0  0  0  0  0
  -23.9023  -10.4293   21.0375 C   0  0  0  0  0  0
  -24.3580   -9.4210   21.9150 C   0  0  0  0  0  0
  -23.6269   -8.2245   22.0744 C   0  0  0  0  0  0
  -22.4259   -8.0264   21.3542 C   0  0  0  0  0  0
  -21.9873   -9.0228   20.4648 C   0  0  0  0  0  0
  -22.7186  -10.2112   20.3037 C   0  0  0  0  0  0
  -21.6849   -6.0712   22.5273 C   0  0  0  0  0  0
  -21.4020   -6.5620   23.8203 C   0  0  0  0  0  0
  -21.3673   -5.6779   24.9171 C   0  0  0  0  0  0
  -21.6046   -4.3046   24.7224 C   0  0  0  0  0  0
  -21.8822   -3.8125   23.4351 C   0  0  0  0  0  0
  -21.9205   -4.6936   22.3404 C   0  0  0  0  0  0
  -22.7847  -13.5243   21.1840 C   0  0  0  0  0  0
  -22.1662   -4.2121   21.0979 F   0  0  0  0  0  0
  -21.5637   -3.4536   25.7744 F   0  0  0  0  0  0
  -30.0408  -13.2214   20.4510 N   0  0  0  0  0  0
  -26.3030  -12.9304   20.3412 N   0  0  0  0  0  0
  -25.9292  -11.6470   20.5748 N   0  0  0  0  0  0
  -22.0509  -12.8233   22.0412 N   0  0  0  0  0  0
  -25.4353  -15.1856   20.4118 N   0  0  0  0  0  0
  -31.8039  -14.6265   20.0732 O   0  0  0  0  0  0
  -21.6648   -6.8846   21.4233 O   0  0  0  0  0  0
  -22.3522  -14.5550   20.6710 O   0  0  0  0  0  0
  -24.6141  -31.8679   23.2121 C   0  0  0  0  0  0
  -25.9027  -32.4837   23.8406 C   0  0  1  0  0  0
  -27.2258  -27.4271   20.0816 C   0  0  0  0  0  0
  -25.5895  -33.8631   24.2334 N   0  0  0  0  0  0
  -23.4011  -30.4933   21.5535 C   0  0  2  0  0  0
  -24.8431  -28.9626   20.1131 C   0  0  0  0  0  0
  -22.7415  -29.4639   22.4994 C   0  0  0  0  0  0
  -18.0271  -28.1374   22.8484 C   0  0  0  0  0  0
  -24.1487  -36.7310   23.2644 C   0  0  0  0  0  0
  -25.9319  -30.8306   21.3636 C   0  0  0  0  0  0
  -26.0050  -29.4651   20.7091 C   0  0  0  0  0  0
  -27.1980  -28.7040   20.6920 C   0  0  0  0  0  0
  -26.0461  -26.9495   19.4672 C   0  0  0  0  0  0
  -24.8608  -27.7048   19.4880 C   0  0  0  0  0  0
  -23.6057  -29.8298   20.1663 C   0  0  0  0  0  0
  -25.4116  -36.3130   24.0348 C   0  0  1  0  0  0
  -20.5865  -28.3640   23.1342 C   0  0  2  0  0  0
  -20.6766  -26.9382   22.5424 C   0  0  0  0  0  0
  -19.5745  -26.6375   21.5214 C   0  0  0  0  0  0
  -18.1914  -26.7917   22.1611 C   0  0  0  0  0  0
  -19.1525  -28.8825   23.2904 C   0  0  0  0  0  0
  -18.9441  -30.1430   23.8904 C   0  0  0  0  0  0
  -17.6448  -30.6578   24.0558 C   0  0  0  0  0  0
  -25.9042  -34.9486   23.5144 C   0  0  0  0  0  0
  -16.5342  -29.9076   23.6323 C   0  0  0  0  0  0
  -16.7260  -28.6497   23.0334 C   0  0  0  0  0  0
  -26.4440  -31.6628   25.0737 C   0  0  0  0  0  0
  -25.3674  -31.3715   26.1466 C   0  0  0  0  0  0
  -27.0266  -30.3085   24.6085 C   0  0  0  0  0  0
  -27.6052  -32.4337   25.7467 C   0  0  0  0  0  0
  -27.5590  -37.1815   24.8472 C   0  0  0  0  0  0
  -21.4138  -29.3001   22.3738 N   0  0  0  0  0  0
  -26.4311  -37.3812   23.9410 N   0  0  0  0  0  0
  -24.6679  -31.0779   22.1010 N   0  0  0  0  0  0
  -23.4212  -28.8162   23.3008 O   0  0  0  0  0  0
  -28.4132  -26.7194   20.0784 O   0  0  0  0  0  0
  -26.5599  -34.8928   22.4706 O   0  0  0  0  0  0
  -23.5344  -32.1413   23.7521 O   0  0  0  0  0  0
  -30.3484  -22.5728   20.3266 C   0  0  0  0  0  0
  -28.6168  -22.3459   22.0075 C   0  0  0  0  0  0
  -29.3604  -23.1665   21.1358 C   0  0  0  0  0  0
  -30.6699  -21.2043   20.4626 C   0  0  0  0  0  0
  -28.9127  -20.9714   22.1498 C   0  0  0  0  0  0
  -29.9982  -20.3991   21.4261 C   0  0  0  0  0  0
  -31.7929  -20.6497   19.5995 C   0  0  0  0  0  0
  -28.5529  -20.0831   24.5379 C   0  0  0  0  0  0
  -29.7229  -17.6605   19.7639 C   0  0  0  0  0  0
  -29.1758  -24.6849   21.1469 C   0  0  0  0  0  0
  -28.0292  -20.1660   23.1000 C   0  0  0  0  0  0
  -30.5705  -19.0232   21.8085 C   0  0  0  0  0  0
  -30.6949  -16.5340   21.8696 C   0  0  0  0  0  0
  -28.4034  -25.2837   19.9563 C   0  0  0  0  0  0
  -29.8944  -17.7264   21.2943 C   0  0  2  0  0  0
  -30.1584  -15.2364   21.4785 N   0  0  0  0  0  0
  -31.4586  -12.3565   19.1026 H   0  0  0  0  0  0
  -30.2929  -11.2448   19.7596 H   0  0  0  0  0  0
  -29.7068  -11.8215   17.3887 H   0  0  0  0  0  0
  -29.6553  -13.5175   17.7911 H   0  0  0  0  0  0
  -27.8100  -11.3204   18.7907 H   0  0  0  0  0  0
  -27.3505  -12.6726   17.7892 H   0  0  0  0  0  0
  -27.7290  -14.2530   19.6133 H   0  0  0  0  0  0
  -28.6606  -11.8749   21.2947 H   0  0  0  0  0  0
  -28.4587  -13.4816   21.8970 H   0  0  0  0  0  0
  -25.2718   -9.5701   22.4722 H   0  0  0  0  0  0
  -23.9990   -7.4645   22.7458 H   0  0  0  0  0  0
  -21.0808   -8.8718   19.8954 H   0  0  0  0  0  0
  -22.3613  -10.9637   19.6149 H   0  0  0  0  0  0
  -21.1996   -7.6132   23.9698 H   0  0  0  0  0  0
  -21.1498   -6.0515   25.9075 H   0  0  0  0  0  0
  -22.0590   -2.7589   23.2864 H   0  0  0  0  0  0
  -22.4138  -11.9880   22.4765 H   0  0  0  0  0  0
  -21.1139  -13.1249   22.2662 H   0  0  0  0  0  0
  -24.6728  -15.8457   20.5213 H   0  0  0  0  0  0
  -26.3003  -15.6242   20.1192 H   0  0  0  0  0  0
  -26.7085  -32.5534   23.1166 H   0  0  0  0  0  0
  -25.0072  -33.9803   25.0501 H   0  0  0  0  0  0
  -22.6903  -31.3103   21.4171 H   0  0  0  0  0  0
  -23.3767  -35.9628   23.3331 H   0  0  0  0  0  0
  -24.3579  -36.8900   22.2051 H   0  0  0  0  0  0
  -23.7198  -37.6520   23.6624 H   0  0  0  0  0  0
  -26.0415  -31.5948   20.5931 H   0  0  0  0  0  0
  -26.8246  -30.8891   21.9733 H   0  0  0  0  0  0
  -28.0990  -29.0860   21.1493 H   0  0  0  0  0  0
  -26.0149  -26.0065   18.9451 H   0  0  0  0  0  0
  -23.9740  -27.3150   19.0097 H   0  0  0  0  0  0
  -23.7102  -30.6069   19.4093 H   0  0  0  0  0  0
  -22.7293  -29.2504   19.8696 H   0  0  0  0  0  0
  -25.1275  -36.2036   25.0840 H   0  0  0  0  0  0
  -20.9955  -28.3189   24.1467 H   0  0  0  0  0  0
  -20.5689  -26.2211   23.3583 H   0  0  0  0  0  0
  -21.6626  -26.7436   22.1191 H   0  0  0  0  0  0
  -19.6913  -25.6285   21.1229 H   0  0  0  0  0  0
  -19.6722  -27.3189   20.6751 H   0  0  0  0  0  0
  -17.4192  -26.6672   21.4009 H   0  0  0  0  0  0
  -18.0316  -26.0057   22.9002 H   0  0  0  0  0  0
  -19.7915  -30.7240   24.2289 H   0  0  0  0  0  0
  -17.4997  -31.6268   24.5140 H   0  0  0  0  0  0
  -15.5336  -30.2978   23.7659 H   0  0  0  0  0  0
  -15.8646  -28.0837   22.7046 H   0  0  0  0  0  0
  -24.5909  -30.7004   25.7776 H   0  0  0  0  0  0
  -24.8765  -32.2842   26.4862 H   0  0  0  0  0  0
  -25.7999  -30.8928   27.0257 H   0  0  0  0  0  0
  -26.2798  -29.6877   24.1123 H   0  0  0  0  0  0
  -27.4037  -29.7314   25.4542 H   0  0  0  0  0  0
  -27.8635  -30.4443   23.9220 H   0  0  0  0  0  0
  -27.2740  -33.3676   26.2024 H   0  0  0  0  0  0
  -28.3845  -32.6835   25.0244 H   0  0  0  0  0  0
  -28.0720  -31.8447   26.5376 H   0  0  0  0  0  0
  -28.2625  -38.0097   24.7533 H   0  0  0  0  0  0
  -28.1064  -36.2637   24.6294 H   0  0  0  0  0  0
  -27.2300  -37.1464   25.8872 H   0  0  0  0  0  0
  -20.9293  -29.8732   21.6968 H   0  0  0  0  0  0
  -26.0225  -38.2904   24.1416 H   0  0  0  0  0  0
  -30.9086  -23.1879   19.6349 H   0  0  0  0  0  0
  -27.8349  -22.7870   22.6123 H   0  0  0  0  0  0
  -32.7274  -20.6222   20.1592 H   0  0  0  0  0  0
  -31.9490  -21.2604   18.7096 H   0  0  0  0  0  0
  -31.5658  -19.6435   19.2548 H   0  0  0  0  0  0
  -29.4261  -19.4408   24.6265 H   0  0  0  0  0  0
  -27.7875  -19.6668   25.1932 H   0  0  0  0  0  0
  -28.8130  -21.0719   24.9149 H   0  0  0  0  0  0
  -29.2487  -18.5636   19.3798 H   0  0  0  0  0  0
  -29.0864  -16.8246   19.4719 H   0  0  0  0  0  0
  -30.6774  -17.5372   19.2517 H   0  0  0  0  0  0
  -28.6857  -24.9788   22.0759 H   0  0  0  0  0  0
  -30.1671  -25.1370   21.1896 H   0  0  0  0  0  0
  -27.8518  -19.1713   22.7021 H   0  0  0  0  0  0
  -27.0398  -20.6264   23.1156 H   0  0  0  0  0  0
  -30.6071  -18.9828   22.8943 H   0  0  0  0  0  0
  -31.6251  -18.9938   21.5382 H   0  0  0  0  0  0
  -30.6820  -16.5675   22.9598 H   0  0  0  0  0  0
  -31.7472  -16.6184   21.5899 H   0  0  0  0  0  0
  -27.4156  -24.8314   19.9366 H   0  0  0  0  0  0
  -28.8899  -25.0118   19.0179 H   0  0  0  0  0  0
  -28.8916  -17.6520   21.7050 H   0  0  0  0  0  0
  -29.2788  -14.9530   21.8857 H   0  0  0  0  0  0
  1 25  1  0  0  0
  1 30  2  0  0  0
  1 86  1  0  0  0
  2  3  1  0  0  0
  2 25  1  0  0  0
  2 87  1  0  0  0
  2 88  1  0  0  0
  3  4  1  0  0  0
  3 89  1  0  0  0
  3 90  1  0  0  0
  4  5  1  0  0  0
  4 91  1  0  0  0
  4 92  1  0  0  0
  5  6  1  0  0  0
  5 26  1  0  0  0
  5 93  1  0  0  0
  6 25  1  0  0  0
  6 94  1  0  0  0
  6 95  1  0  0  0
  7  8  2  0  0  0
  7 26  1  0  0  0
  7 29  1  0  0  0
  8  9  1  0  0  0
  8 22  1  0  0  0
  9 10  1  0  0  0
  9 27  2  0  0  0
 10 11  2  0  0  0
 10 15  1  0  0  0
 11 12  1  0  0  0
 11 96  1  0  0  0
 12 13  2  0  0  0
 12 97  1  0  0  0
 13 14  1  0  0  0
 13 31  1  0  0  0
 14 15  2  0  0  0
 14 98  1  0  0  0
 15 99  1  0  0  0
 16 17  2  0  0  0
 16 21  1  0  0  0
 16 31  1  0  0  0
 17 18  1  0  0  0
 17100  1  0  0  0
 18 19  2  0  0  0
 18101  1  0  0  0
 19 20  1  0  0  0
 19 24  1  0  0  0
 20 21  2  0  0  0
 20102  1  0  0  0
 21 23  1  0  0  0
 22 28  1  0  0  0
 22 32  2  0  0  0
 26 27  1  0  0  0
 28103  1  0  0  0
 28104  1  0  0  0
 29105  1  0  0  0
 29106  1  0  0  0
 33 34  1  0  0  0
 33 66  1  0  0  0
 33 70  2  0  0  0
 34 36  1  0  0  0
 34 59  1  0  0  0
 34107  1  0  0  0
 35 44  2  0  0  0
 35 45  1  0  0  0
 35 68  1  0  0  0
 36 56  1  0  0  0
 36108  1  0  0  0
 37 39  1  0  0  0
 37 47  1  0  0  0
 37 66  1  0  0  0
 37109  1  0  0  0
 38 43  2  0  0  0
 38 46  1  0  0  0
 38 47  1  0  0  0
 39 64  1  0  0  0
 39 67  2  0  0  0
 40 52  1  0  0  0
 40 53  2  0  0  0
 40 58  1  0  0  0
 41110  1  0  0  0
 41111  1  0  0  0
 41112  1  0  0  0
 41 48  1  0  0  0
 42 43  1  0  0  0
 42 66  1  0  0  0
 42113  1  0  0  0
 42114  1  0  0  0
 43 44  1  0  0  0
 44115  1  0  0  0
 45 46  2  0  0  0
 45116  1  0  0  0
 46117  1  0  0  0
 47118  1  0  0  0
 47119  1  0  0  0
 48 56  1  0  0  0
 48 65  1  0  0  0
 48120  1  0  0  0
 49 50  1  0  0  0
 49 53  1  0  0  0
 49 64  1  0  0  0
 49121  1  0  0  0
 50 51  1  0  0  0
 50122  1  0  0  0
 50123  1  0  0  0
 51 52  1  0  0  0
 51124  1  0  0  0
 51125  1  0  0  0
 52126  1  0  0  0
 52127  1  0  0  0
 53 54  1  0  0  0
 54 55  2  0  0  0
 54128  1  0  0  0
 55 57  1  0  0  0
 55129  1  0  0  0
 56 69  2  0  0  0
 57 58  2  0  0  0
 57130  1  0  0  0
 58131  1  0  0  0
 59 60  1  0  0  0
 59 61  1  0  0  0
 59 62  1  0  0  0
 60132  1  0  0  0
 60133  1  0  0  0
 60134  1  0  0  0
 61135  1  0  0  0
 61136  1  0  0  0
 61137  1  0  0  0
 62138  1  0  0  0
 62139  1  0  0  0
 62140  1  0  0  0
 63 65  1  0  0  0
 63141  1  0  0  0
 63142  1  0  0  0
 63143  1  0  0  0
 64144  1  0  0  0
 65145  1  0  0  0
 68 84  1  0  0  0
 71 73  2  0  0  0
 71 74  1  0  0  0
 71146  1  0  0  0
 72 73  1  0  0  0
 72 75  2  0  0  0
 72147  1  0  0  0
 73 80  1  0  0  0
 74 76  2  0  0  0
 74 77  1  0  0  0
 75 76  1  0  0  0
 75 81  1  0  0  0
 76 82  1  0  0  0
 77148  1  0  0  0
 77149  1  0  0  0
 77150  1  0  0  0
 78 81  1  0  0  0
 78151  1  0  0  0
 78152  1  0  0  0
 78153  1  0  0  0
 79154  1  0  0  0
 79155  1  0  0  0
 79156  1  0  0  0
 79 85  1  0  0  0
 80 84  1  0  0  0
 80157  1  0  0  0
 80158  1  0  0  0
 81159  1  0  0  0
 81160  1  0  0  0
 82 85  1  0  0  0
 82161  1  0  0  0
 82162  1  0  0  0
 83 85  1  0  0  0
 83 86  1  0  0  0
 83163  1  0  0  0
 83164  1  0  0  0
 84165  1  0  0  0
 84166  1  0  0  0
 85167  1  0  0  0
 86168  1  0  0  0
M  ISO  4   1 100  68 101  84 101  86 100
M  END
> <chiral flag>
0

> <version>
0

> <s_m_source_file>
/data/baiqing/PycharmProjects/Reinvent-master-3.2/result/LINK_invent/BTK/process_docking_weight1_custom_sum_contain_oxygen_bond_distance_aromatic_linkinvent_7_9_3/rearranged_h_0083.sdf

> <i_m_source_file_index>
23

> <r_mmod_Potential_Energy-OPLS-2005>
-76.9219665527344

> <r_mmod_Stretch_Energy-OPLS-2005>
37.5366554260254

> <r_mmod_Bend_Energy-OPLS-2005>
109.716873168945

> <r_mmod_Torsional_Energy-OPLS-2005>
210.710052490234

> <r_mmod_Improper_Torsional_Energy-OPLS-2005>
3.01055693626404

> <r_mmod_Van_der_Waal_Energy-OPLS-2005>
158.217926025391

> <r_mmod_Electrostatic_Energy-OPLS-2005>
-406.063446044922

> <r_mmod_Solvation_Energy-OPLS-2005>
-199.073532104492

> <b_mmod_Minimization_Converged-OPLS-2005>
0

> <r_mmod_RMS_Derivative-OPLS-2005>
3.37964344024658

$$$$
23
                    3D
 Structure written by MMmdl.
166174  0  0  1  0            999 V2000
  -30.6990  -14.4301   20.5380 C   0  0  0  0  0  0
  -30.4167  -12.2662   19.4316 C   0  0  0  0  0  0
  -29.4949  -12.4920   18.2139 C   0  0  0  0  0  0
  -28.0139  -12.3653   18.6205 C   0  0  0  0  0  0
  -27.6651  -13.1991   19.8819 C   0  0  2  0  0  0
  -28.7033  -12.9701   21.0081 C   0  0  0  0  0  0
  -25.2606  -13.8151   20.5684 C   0  0  0  0  0  0
  -24.1841  -13.0434   20.9171 C   0  0  0  0  0  0
  -24.6384  -11.6898   20.8737 C   0  0  0  0  0  0
  -23.9048  -10.4288   21.0415 C   0  0  0  0  0  0
  -24.3608   -9.4208   21.9190 C   0  0  0  0  0  0
  -23.6289   -8.2243   22.0758 C   0  0  0  0  0  0
  -22.4270   -8.0280   21.3549 C   0  0  0  0  0  0
  -21.9903   -9.0252   20.4652 C   0  0  0  0  0  0
  -22.7225  -10.2131   20.3067 C   0  0  0  0  0  0
  -21.6848   -6.0733   22.5284 C   0  0  0  0  0  0
  -21.4013   -6.5643   23.8216 C   0  0  0  0  0  0
  -21.3654   -5.6799   24.9180 C   0  0  0  0  0  0
  -21.6041   -4.3063   24.7229 C   0  0  0  0  0  0
  -21.8818   -3.8149   23.4354 C   0  0  0  0  0  0
  -21.9196   -4.6962   22.3409 C   0  0  0  0  0  0
  -22.7869  -13.5247   21.1839 C   0  0  0  0  0  0
  -22.1669   -4.2147   21.0988 F   0  0  0  0  0  0
  -21.5625   -3.4550   25.7744 F   0  0  0  0  0  0
  -30.0430  -13.2454   20.4627 N   0  0  0  0  0  0
  -26.3036  -12.9303   20.3392 N   0  0  0  0  0  0
  -25.9308  -11.6469   20.5782 N   0  0  0  0  0  0
  -22.0511  -12.8238   22.0394 N   0  0  0  0  0  0
  -25.4360  -15.1863   20.4100 N   0  0  0  0  0  0
  -31.8265  -14.6080   20.0729 O   0  0  0  0  0  0
  -21.6638   -6.8874   21.4241 O   0  0  0  0  0  0
  -22.3562  -14.5557   20.6696 O   0  0  0  0  0  0
  -24.6116  -31.8713   23.2136 C   0  0  0  0  0  0
  -25.9017  -32.4847   23.8422 C   0  0  1  0  0  0
  -27.2324  -27.4506   20.0787 C   0  0  0  0  0  0
  -25.5881  -33.8645   24.2353 N   0  0  0  0  0  0
  -23.3973  -30.4973   21.5536 C   0  0  2  0  0  0
  -24.8415  -28.9685   20.1142 C   0  0  0  0  0  0
  -22.7386  -29.4679   22.5000 C   0  0  0  0  0  0
  -18.0265  -28.1368   22.8493 C   0  0  0  0  0  0
  -24.1488  -36.7333   23.2636 C   0  0  0  0  0  0
  -25.9259  -30.8387   21.3661 C   0  0  0  0  0  0
  -26.0000  -29.4740   20.7150 C   0  0  0  0  0  0
  -27.1921  -28.7166   20.7057 C   0  0  0  0  0  0
  -26.0507  -26.9621   19.4687 C   0  0  0  0  0  0
  -24.8603  -27.7103   19.4933 C   0  0  0  0  0  0
  -23.6033  -29.8330   20.1671 C   0  0  0  0  0  0
  -25.4105  -36.3132   24.0341 C   0  0  1  0  0  0
  -20.5856  -28.3656   23.1324 C   0  0  2  0  0  0
  -20.6760  -26.9397   22.5416 C   0  0  0  0  0  0
  -19.5741  -26.6383   21.5211 C   0  0  0  0  0  0
  -18.1915  -26.7919   22.1619 C   0  0  0  0  0  0
  -19.1512  -28.8827   23.2911 C   0  0  0  0  0  0
  -18.9440  -30.1434   23.8921 C   0  0  0  0  0  0
  -17.6445  -30.6581   24.0560 C   0  0  0  0  0  0
  -25.9021  -34.9492   23.5143 C   0  0  0  0  0  0
  -16.5336  -29.9080   23.6324 C   0  0  0  0  0  0
  -16.7253  -28.6493   23.0349 C   0  0  0  0  0  0
  -26.4448  -31.6615   25.0740 C   0  0  0  0  0  0
  -25.3725  -31.3702   26.1498 C   0  0  0  0  0  0
  -27.0281  -30.3064   24.6102 C   0  0  0  0  0  0
  -27.6047  -32.4322   25.7481 C   0  0  0  0  0  0
  -27.5588  -37.1817   24.8460 C   0  0  0  0  0  0
  -21.4116  -29.3038   22.3738 N   0  0  0  0  0  0
  -26.4300  -37.3810   23.9407 N   0  0  0  0  0  0
  -24.6632  -31.0832   22.1027 N   0  0  0  0  0  0
  -23.4173  -28.8213   23.3024 O   0  0  0  0  0  0
  -28.4221  -26.7500   20.1102 O   0  0  0  0  0  0
  -26.5591  -34.8936   22.4708 O   0  0  0  0  0  0
  -23.5313  -32.1457   23.7543 O   0  0  0  0  0  0
  -30.0513  -21.2731   18.7788 C   0  0  0  0  0  0
  -30.8371  -20.2604   19.2653 C   0  0  0  0  0  0
  -31.7648  -22.2156   19.8236 C   0  0  0  0  0  0
  -32.7286  -23.2134   20.3767 C   0  0  0  0  0  0
  -31.8242  -18.3332   18.0456 C   0  0  0  0  0  0
  -32.0102  -17.6120   20.9737 C   0  0  0  0  0  0
  -29.7637  -24.7460   19.7521 C   0  0  0  0  0  0
  -30.2243  -23.7849   18.6396 C   0  0  0  0  0  0
  -29.8119  -16.6360   19.9794 C   0  0  0  0  0  0
  -28.5707  -25.5946   19.2878 C   0  0  0  0  0  0
  -30.7344  -18.7816   19.0372 C   0  0  1  0  0  0
  -30.6412  -17.9056   20.3237 C   0  0  2  0  0  0
  -30.6590  -22.4582   19.1012 N   0  0  0  0  0  0
  -31.8691  -20.8833   19.9226 N   0  3  0  0  0  0
  -29.9180  -15.4700   20.8661 N   0  0  0  0  0  0
  -31.4642  -12.3465   19.1350 H   0  0  0  0  0  0
  -30.2970  -11.2540   19.8216 H   0  0  0  0  0  0
  -29.7272  -11.7716   17.4279 H   0  0  0  0  0  0
  -29.6746  -13.4794   17.7852 H   0  0  0  0  0  0
  -27.8115  -11.3103   18.8063 H   0  0  0  0  0  0
  -27.3686  -12.6543   17.7897 H   0  0  0  0  0  0
  -27.7133  -14.2466   19.5851 H   0  0  0  0  0  0
  -28.6612  -11.9381   21.3594 H   0  0  0  0  0  0
  -28.4775  -13.5840   21.8807 H   0  0  0  0  0  0
  -25.2760   -9.5682   22.4754 H   0  0  0  0  0  0
  -24.0004   -7.4633   22.7472 H   0  0  0  0  0  0
  -21.0841   -8.8770   19.8955 H   0  0  0  0  0  0
  -22.3694  -10.9670   19.6178 H   0  0  0  0  0  0
  -21.2007   -7.6152   23.9717 H   0  0  0  0  0  0
  -21.1474   -6.0534   25.9081 H   0  0  0  0  0  0
  -22.0600   -2.7611   23.2859 H   0  0  0  0  0  0
  -22.4138  -11.9896   22.4767 H   0  0  0  0  0  0
  -21.1134  -13.1261   22.2615 H   0  0  0  0  0  0
  -24.6721  -15.8445   20.5180 H   0  0  0  0  0  0
  -26.2928  -15.6215   20.0922 H   0  0  0  0  0  0
  -26.7083  -32.5574   23.1190 H   0  0  0  0  0  0
  -25.0018  -33.9815   25.0487 H   0  0  0  0  0  0
  -22.6850  -31.3140   21.4184 H   0  0  0  0  0  0
  -23.3751  -35.9667   23.3300 H   0  0  0  0  0  0
  -24.3572  -36.8947   22.2048 H   0  0  0  0  0  0
  -23.7248  -37.6540   23.6647 H   0  0  0  0  0  0
  -26.0341  -31.6031   20.5951 H   0  0  0  0  0  0
  -26.8156  -30.8951   21.9809 H   0  0  0  0  0  0
  -28.0863  -29.1013   21.1759 H   0  0  0  0  0  0
  -26.0041  -26.0098   18.9650 H   0  0  0  0  0  0
  -23.9684  -27.3181   19.0239 H   0  0  0  0  0  0
  -23.7049  -30.6086   19.4067 H   0  0  0  0  0  0
  -22.7282  -29.2495   19.8747 H   0  0  0  0  0  0
  -25.1281  -36.1999   25.0836 H   0  0  0  0  0  0
  -20.9948  -28.3224   24.1446 H   0  0  0  0  0  0
  -20.5662  -26.2263   23.3600 H   0  0  0  0  0  0
  -21.6627  -26.7443   22.1208 H   0  0  0  0  0  0
  -19.6894  -25.6296   21.1232 H   0  0  0  0  0  0
  -19.6677  -27.3201   20.6749 H   0  0  0  0  0  0
  -17.4185  -26.6674   21.4019 H   0  0  0  0  0  0
  -18.0307  -26.0055   22.9005 H   0  0  0  0  0  0
  -19.7917  -30.7242   24.2308 H   0  0  0  0  0  0
  -17.4999  -31.6269   24.5147 H   0  0  0  0  0  0
  -15.5335  -30.2986   23.7643 H   0  0  0  0  0  0
  -15.8653  -28.0821   22.7057 H   0  0  0  0  0  0
  -24.5898  -30.7050   25.7828 H   0  0  0  0  0  0
  -24.8910  -32.2845   26.4975 H   0  0  0  0  0  0
  -25.8085  -30.8848   27.0239 H   0  0  0  0  0  0
  -26.2818  -29.6824   24.1170 H   0  0  0  0  0  0
  -27.4070  -29.7302   25.4553 H   0  0  0  0  0  0
  -27.8642  -30.4395   23.9237 H   0  0  0  0  0  0
  -27.2694  -33.3624   26.2079 H   0  0  0  0  0  0
  -28.3825  -32.6873   25.0272 H   0  0  0  0  0  0
  -28.0744  -31.8432   26.5366 H   0  0  0  0  0  0
  -28.2605  -38.0118   24.7517 H   0  0  0  0  0  0
  -28.1085  -36.2647   24.6267 H   0  0  0  0  0  0
  -27.2301  -37.1444   25.8864 H   0  0  0  0  0  0
  -20.9265  -29.8776   21.6981 H   0  0  0  0  0  0
  -26.0194  -38.2892   24.1406 H   0  0  0  0  0  0
  -29.1539  -21.2313   18.1761 H   0  0  0  0  0  0
  -32.2632  -23.7084   21.2284 H   0  0  0  0  0  0
  -32.9710  -23.9393   19.6011 H   0  0  0  0  0  0
  -33.6345  -22.6980   20.6942 H   0  0  0  0  0  0
  -31.7128  -18.8480   17.0908 H   0  0  0  0  0  0
  -31.7730  -17.2639   17.8416 H   0  0  0  0  0  0
  -32.8252  -18.5515   18.4177 H   0  0  0  0  0  0
  -31.8929  -17.0433   21.8964 H   0  0  0  0  0  0
  -32.5368  -18.5288   21.2324 H   0  0  0  0  0  0
  -32.6599  -17.0361   20.3160 H   0  0  0  0  0  0
  -30.5953  -25.3892   20.0430 H   0  0  0  0  0  0
  -29.4714  -24.1934   20.6468 H   0  0  0  0  0  0
  -31.0343  -24.2260   18.0582 H   0  0  0  0  0  0
  -29.4109  -23.6153   17.9328 H   0  0  0  0  0  0
  -30.0378  -16.3067   18.9628 H   0  0  0  0  0  0
  -28.7576  -16.9150   19.9411 H   0  0  0  0  0  0
  -27.7054  -24.9341   19.3173 H   0  0  0  0  0  0
  -28.7074  -25.9251   18.2567 H   0  0  0  0  0  0
  -29.7845  -18.6558   18.5135 H   0  0  0  0  0  0
  -30.0551  -18.4580   21.0599 H   0  0  0  0  0  0
  -32.6389  -20.4064   20.3770 H   0  0  0  0  0  0
  -29.0634  -15.2153   21.3391 H   0  0  0  0  0  0
  1 25  1  0  0  0
  1 30  2  0  0  0
  1 85  1  0  0  0
  2  3  1  0  0  0
  2 25  1  0  0  0
  2 86  1  0  0  0
  2 87  1  0  0  0
  3  4  1  0  0  0
  3 88  1  0  0  0
  3 89  1  0  0  0
  4  5  1  0  0  0
  4 90  1  0  0  0
  4 91  1  0  0  0
  5  6  1  0  0  0
  5 26  1  0  0  0
  5 92  1  0  0  0
  6 25  1  0  0  0
  6 93  1  0  0  0
  6 94  1  0  0  0
  7  8  2  0  0  0
  7 26  1  0  0  0
  7 29  1  0  0  0
  8  9  1  0  0  0
  8 22  1  0  0  0
  9 10  1  0  0  0
  9 27  2  0  0  0
 10 11  2  0  0  0
 10 15  1  0  0  0
 11 12  1  0  0  0
 11 95  1  0  0  0
 12 13  2  0  0  0
 12 96  1  0  0  0
 13 14  1  0  0  0
 13 31  1  0  0  0
 14 15  2  0  0  0
 14 97  1  0  0  0
 15 98  1  0  0  0
 16 17  2  0  0  0
 16 21  1  0  0  0
 16 31  1  0  0  0
 17 18  1  0  0  0
 17 99  1  0  0  0
 18 19  2  0  0  0
 18100  1  0  0  0
 19 20  1  0  0  0
 19 24  1  0  0  0
 20 21  2  0  0  0
 20101  1  0  0  0
 21 23  1  0  0  0
 22 28  1  0  0  0
 22 32  2  0  0  0
 26 27  1  0  0  0
 28102  1  0  0  0
 28103  1  0  0  0
 29104  1  0  0  0
 29105  1  0  0  0
 33 34  1  0  0  0
 33 66  1  0  0  0
 33 70  2  0  0  0
 34 36  1  0  0  0
 34 59  1  0  0  0
 34106  1  0  0  0
 35 44  2  0  0  0
 35 45  1  0  0  0
 35 68  1  0  0  0
 36 56  1  0  0  0
 36107  1  0  0  0
 37 39  1  0  0  0
 37 47  1  0  0  0
 37 66  1  0  0  0
 37108  1  0  0  0
 38 43  2  0  0  0
 38 46  1  0  0  0
 38 47  1  0  0  0
 39 64  1  0  0  0
 39 67  2  0  0  0
 40 52  1  0  0  0
 40 53  2  0  0  0
 40 58  1  0  0  0
 41109  1  0  0  0
 41110  1  0  0  0
 41111  1  0  0  0
 41 48  1  0  0  0
 42 43  1  0  0  0
 42 66  1  0  0  0
 42112  1  0  0  0
 42113  1  0  0  0
 43 44  1  0  0  0
 44114  1  0  0  0
 45 46  2  0  0  0
 45115  1  0  0  0
 46116  1  0  0  0
 47117  1  0  0  0
 47118  1  0  0  0
 48 56  1  0  0  0
 48 65  1  0  0  0
 48119  1  0  0  0
 49 50  1  0  0  0
 49 53  1  0  0  0
 49 64  1  0  0  0
 49120  1  0  0  0
 50 51  1  0  0  0
 50121  1  0  0  0
 50122  1  0  0  0
 51 52  1  0  0  0
 51123  1  0  0  0
 51124  1  0  0  0
 52125  1  0  0  0
 52126  1  0  0  0
 53 54  1  0  0  0
 54 55  2  0  0  0
 54127  1  0  0  0
 55 57  1  0  0  0
 55128  1  0  0  0
 56 69  2  0  0  0
 57 58  2  0  0  0
 57129  1  0  0  0
 58130  1  0  0  0
 59 60  1  0  0  0
 59 61  1  0  0  0
 59 62  1  0  0  0
 60131  1  0  0  0
 60132  1  0  0  0
 60133  1  0  0  0
 61134  1  0  0  0
 61135  1  0  0  0
 61136  1  0  0  0
 62137  1  0  0  0
 62138  1  0  0  0
 62139  1  0  0  0
 63 65  1  0  0  0
 63140  1  0  0  0
 63141  1  0  0  0
 63142  1  0  0  0
 64143  1  0  0  0
 65144  1  0  0  0
 68 80  1  0  0  0
 71 72  2  0  0  0
 71 83  1  0  0  0
 71145  1  0  0  0
 72 81  1  0  0  0
 72 84  1  0  0  0
 73 74  1  0  0  0
 73 83  1  0  0  0
 73 84  2  0  0  0
 74146  1  0  0  0
 74147  1  0  0  0
 74148  1  0  0  0
 75149  1  0  0  0
 75150  1  0  0  0
 75151  1  0  0  0
 75 81  1  0  0  0
 76152  1  0  0  0
 76153  1  0  0  0
 76154  1  0  0  0
 76 82  1  0  0  0
 77 78  1  0  0  0
 77 80  1  0  0  0
 77155  1  0  0  0
 77156  1  0  0  0
 78 83  1  0  0  0
 78157  1  0  0  0
 78158  1  0  0  0
 79 82  1  0  0  0
 79 85  1  0  0  0
 79159  1  0  0  0
 79160  1  0  0  0
 80161  1  0  0  0
 80162  1  0  0  0
 81 82  1  0  0  0
 81163  1  0  0  0
 82164  1  0  0  0
 84165  1  0  0  0
 85166  1  0  0  0
M  CHG  1  84   1
M  ISO  4   1 100  68 101  80 101  85 100
M  END
> <chiral flag>
0

> <version>
0

> <s_m_source_file>
/data/baiqing/PycharmProjects/Reinvent-master-3.2/result/LINK_invent/BTK/process_docking_weight1_custom_sum_contain_oxygen_bond_distance_aromatic_linkinvent_7_9_3/rearranged_h_0083.sdf

> <i_m_source_file_index>
24

> <r_mmod_Potential_Energy-OPLS-2005>
-89.3299255371094

> <r_mmod_Stretch_Energy-OPLS-2005>
33.0117988586426

> <r_mmod_Bend_Energy-OPLS-2005>
111.314796447754

> <r_mmod_Torsional_Energy-OPLS-2005>
264.943878173828

> <r_mmod_Improper_Torsional_Energy-OPLS-2005>
11.6193828582764

> <r_mmod_Van_der_Waal_Energy-OPLS-2005>
137.541137695312

> <r_mmod_Electrostatic_Energy-OPLS-2005>
-249.662216186523

> <r_mmod_Solvation_Energy-OPLS-2005>
-409.912719726562

> <b_mmod_Minimization_Converged-OPLS-2005>
0

> <r_mmod_RMS_Derivative-OPLS-2005>
1.43187344074249

$$$$
24
                    3D
 Structure written by MMmdl.
171179  0  0  1  0            999 V2000
  -30.6448  -14.5278   20.5438 C   0  0  0  0  0  0
  -30.4397  -12.3284   19.4313 C   0  0  0  0  0  0
  -29.5030  -12.4986   18.2141 C   0  0  0  0  0  0
  -28.0265  -12.3423   18.6317 C   0  0  0  0  0  0
  -27.6655  -13.1967   19.8752 C   0  0  2  0  0  0
  -28.7075  -12.9828   20.9986 C   0  0  0  0  0  0
  -25.2632  -13.8136   20.5679 C   0  0  0  0  0  0
  -24.1875  -13.0430   20.9176 C   0  0  0  0  0  0
  -24.6411  -11.6895   20.8749 C   0  0  0  0  0  0
  -23.9074  -10.4285   21.0416 C   0  0  0  0  0  0
  -24.3621   -9.4197   21.9192 C   0  0  0  0  0  0
  -23.6294   -8.2233   22.0763 C   0  0  0  0  0  0
  -22.4273   -8.0280   21.3551 C   0  0  0  0  0  0
  -21.9916   -9.0257   20.4652 C   0  0  0  0  0  0
  -22.7249  -10.2132   20.3064 C   0  0  0  0  0  0
  -21.6846   -6.0739   22.5288 C   0  0  0  0  0  0
  -21.4001   -6.5641   23.8221 C   0  0  0  0  0  0
  -21.3659   -5.6796   24.9184 C   0  0  0  0  0  0
  -21.6044   -4.3056   24.7233 C   0  0  0  0  0  0
  -21.8818   -3.8154   23.4348 C   0  0  0  0  0  0
  -21.9190   -4.6969   22.3408 C   0  0  0  0  0  0
  -22.7893  -13.5241   21.1828 C   0  0  0  0  0  0
  -22.1662   -4.2153   21.0980 F   0  0  0  0  0  0
  -21.5633   -3.4541   25.7746 F   0  0  0  0  0  0
  -30.0366  -13.3102   20.4543 N   0  0  0  0  0  0
  -26.3057  -12.9287   20.3368 N   0  0  0  0  0  0
  -25.9336  -11.6455   20.5778 N   0  0  0  0  0  0
  -22.0530  -12.8249   22.0377 N   0  0  0  0  0  0
  -25.4381  -15.1847   20.4066 N   0  0  0  0  0  0
  -31.7575  -14.7606   20.0664 O   0  0  0  0  0  0
  -21.6629   -6.8878   21.4249 O   0  0  0  0  0  0
  -22.3589  -14.5546   20.6661 O   0  0  0  0  0  0
  -24.6164  -31.8652   23.2072 C   0  0  0  0  0  0
  -25.9039  -32.4819   23.8387 C   0  0  1  0  0  0
  -27.2463  -27.4048   20.1166 C   0  0  0  0  0  0
  -25.5867  -33.8609   24.2292 N   0  0  0  0  0  0
  -23.4094  -30.4814   21.5513 C   0  0  2  0  0  0
  -24.8594  -28.9324   20.1277 C   0  0  0  0  0  0
  -22.7432  -29.4633   22.5038 C   0  0  0  0  0  0
  -18.0260  -28.1369   22.8474 C   0  0  0  0  0  0
  -24.1494  -36.7334   23.2640 C   0  0  0  0  0  0
  -25.9386  -30.8166   21.3686 C   0  0  0  0  0  0
  -26.0187  -29.4426   20.7283 C   0  0  0  0  0  0
  -27.2182  -28.6870   20.7167 C   0  0  0  0  0  0
  -26.0716  -26.9083   19.5209 C   0  0  0  0  0  0
  -24.8809  -27.6626   19.5200 C   0  0  0  0  0  0
  -23.6217  -29.8015   20.1703 C   0  0  0  0  0  0
  -25.4114  -36.3102   24.0333 C   0  0  1  0  0  0
  -20.5851  -28.3657   23.1312 C   0  0  2  0  0  0
  -20.6753  -26.9400   22.5410 C   0  0  0  0  0  0
  -19.5742  -26.6387   21.5189 C   0  0  0  0  0  0
  -18.1920  -26.7913   22.1605 C   0  0  0  0  0  0
  -19.1510  -28.8837   23.2874 C   0  0  0  0  0  0
  -18.9453  -30.1441   23.8879 C   0  0  0  0  0  0
  -17.6464  -30.6581   24.0564 C   0  0  0  0  0  0
  -25.9034  -34.9475   23.5125 C   0  0  0  0  0  0
  -16.5348  -29.9080   23.6327 C   0  0  0  0  0  0
  -16.7260  -28.6509   23.0321 C   0  0  0  0  0  0
  -26.4445  -31.6611   25.0739 C   0  0  0  0  0  0
  -25.3718  -31.3728   26.1496 C   0  0  0  0  0  0
  -27.0286  -30.3048   24.6143 C   0  0  0  0  0  0
  -27.5995  -32.4363   25.7504 C   0  0  0  0  0  0
  -27.5589  -37.1810   24.8455 C   0  0  0  0  0  0
  -21.4157  -29.3032   22.3761 N   0  0  0  0  0  0
  -26.4292  -37.3794   23.9412 N   0  0  0  0  0  0
  -24.6737  -31.0691   22.1016 N   0  0  0  0  0  0
  -23.4166  -28.8166   23.3116 O   0  0  0  0  0  0
  -28.4204  -26.6939   19.9749 O   0  0  0  0  0  0
  -26.5625  -34.8936   22.4697 O   0  0  0  0  0  0
  -23.5334  -32.1411   23.7423 O   0  0  0  0  0  0
  -27.6586  -21.5487   22.1639 C   0  0  0  0  0  0
  -29.6015  -20.5437   21.1123 C   0  0  0  0  0  0
  -28.8157  -21.7008   21.3785 C   0  0  0  0  0  0
  -27.2803  -20.2872   22.6598 C   0  0  0  0  0  0
  -29.2879  -19.2596   21.6635 C   0  0  0  0  0  0
  -28.0899  -19.1454   22.4313 C   0  0  0  0  0  0
  -26.0059  -20.1958   23.4829 C   0  0  0  0  0  0
  -27.6741  -17.8283   23.0863 C   0  0  0  0  0  0
  -33.6393  -19.8510   21.8133 C   0  0  0  0  0  0
  -29.2966  -23.1063   20.9501 C   0  0  0  0  0  0
  -28.2421  -24.2296   20.6431 C   0  0  0  0  0  0
  -29.7651  -16.9290   20.5315 C   0  0  0  0  0  0
  -31.7222  -18.4060   21.2203 C   0  0  0  0  0  0
  -28.7554  -25.6746   20.9326 C   0  0  0  0  0  0
  -30.2519  -18.0311   21.5351 C   0  0  1  0  0  0
  -29.8464  -15.5198   21.0004 N   0  0  0  0  0  0
  -32.3317  -19.3033   22.2283 N   0  3  0  0  0  0
  -31.4808  -12.4489   19.1281 H   0  0  0  0  0  0
  -30.3632  -11.3172   19.8330 H   0  0  0  0  0  0
  -29.7491  -11.7651   17.4441 H   0  0  0  0  0  0
  -29.6566  -13.4793   17.7614 H   0  0  0  0  0  0
  -27.8603  -11.2874   18.8554 H   0  0  0  0  0  0
  -27.3660  -12.5828   17.7976 H   0  0  0  0  0  0
  -27.7075  -14.2402   19.5628 H   0  0  0  0  0  0
  -28.6962  -11.9444   21.3319 H   0  0  0  0  0  0
  -28.4626  -13.5731   21.8829 H   0  0  0  0  0  0
  -25.2771   -9.5656   22.4765 H   0  0  0  0  0  0
  -23.9998   -7.4617   22.7484 H   0  0  0  0  0  0
  -21.0847   -8.8786   19.8955 H   0  0  0  0  0  0
  -22.3728  -10.9674   19.6170 H   0  0  0  0  0  0
  -21.1984   -7.6153   23.9723 H   0  0  0  0  0  0
  -21.1483   -6.0526   25.9083 H   0  0  0  0  0  0
  -22.0597   -2.7621   23.2852 H   0  0  0  0  0  0
  -22.4131  -11.9907   22.4773 H   0  0  0  0  0  0
  -21.1148  -13.1297   22.2564 H   0  0  0  0  0  0
  -24.6699  -15.8386   20.5025 H   0  0  0  0  0  0
  -26.2837  -15.6192   20.0630 H   0  0  0  0  0  0
  -26.7132  -32.5519   23.1179 H   0  0  0  0  0  0
  -24.9951  -33.9778   25.0384 H   0  0  0  0  0  0
  -22.7011  -31.2996   21.4062 H   0  0  0  0  0  0
  -23.3751  -35.9676   23.3303 H   0  0  0  0  0  0
  -24.3546  -36.8934   22.2039 H   0  0  0  0  0  0
  -23.7259  -37.6548   23.6671 H   0  0  0  0  0  0
  -26.0454  -31.5740   20.5912 H   0  0  0  0  0  0
  -26.8274  -30.8795   21.9872 H   0  0  0  0  0  0
  -28.1255  -29.0904   21.1468 H   0  0  0  0  0  0
  -26.0884  -25.9440   19.0364 H   0  0  0  0  0  0
  -23.9968  -27.2621   19.0445 H   0  0  0  0  0  0
  -23.7360  -30.5685   19.4036 H   0  0  0  0  0  0
  -22.7466  -29.2189   19.8785 H   0  0  0  0  0  0
  -25.1301  -36.1968   25.0828 H   0  0  0  0  0  0
  -20.9894  -28.3210   24.1444 H   0  0  0  0  0  0
  -20.5635  -26.2285   23.3614 H   0  0  0  0  0  0
  -21.6635  -26.7450   22.1226 H   0  0  0  0  0  0
  -19.6913  -25.6295   21.1226 H   0  0  0  0  0  0
  -19.6663  -27.3195   20.6716 H   0  0  0  0  0  0
  -17.4187  -26.6629   21.4013 H   0  0  0  0  0  0
  -18.0330  -26.0062   22.9010 H   0  0  0  0  0  0
  -19.7948  -30.7240   24.2245 H   0  0  0  0  0  0
  -17.5035  -31.6260   24.5174 H   0  0  0  0  0  0
  -15.5344  -30.2982   23.7700 H   0  0  0  0  0  0
  -15.8647  -28.0851   22.7016 H   0  0  0  0  0  0
  -24.5880  -30.7084   25.7845 H   0  0  0  0  0  0
  -24.8936  -32.2894   26.4973 H   0  0  0  0  0  0
  -25.8069  -30.8889   27.0247 H   0  0  0  0  0  0
  -26.2840  -29.6815   24.1183 H   0  0  0  0  0  0
  -27.4004  -29.7282   25.4617 H   0  0  0  0  0  0
  -27.8715  -30.4369   23.9350 H   0  0  0  0  0  0
  -27.2579  -33.3644   26.2117 H   0  0  0  0  0  0
  -28.3791  -32.6936   25.0320 H   0  0  0  0  0  0
  -28.0721  -31.8498   26.5390 H   0  0  0  0  0  0
  -28.2607  -38.0116   24.7504 H   0  0  0  0  0  0
  -28.1090  -36.2631   24.6303 H   0  0  0  0  0  0
  -27.2287  -37.1464   25.8852 H   0  0  0  0  0  0
  -20.9353  -29.8775   21.6965 H   0  0  0  0  0  0
  -26.0191  -38.2885   24.1391 H   0  0  0  0  0  0
  -27.0562  -22.4068   22.4213 H   0  0  0  0  0  0
  -30.4915  -20.6814   20.5166 H   0  0  0  0  0  0
  -25.5885  -21.1812   23.6950 H   0  0  0  0  0  0
  -26.1916  -19.7049   24.4383 H   0  0  0  0  0  0
  -25.2519  -19.6219   22.9428 H   0  0  0  0  0  0
  -26.5946  -17.6791   23.0437 H   0  0  0  0  0  0
  -27.9701  -17.8361   24.1353 H   0  0  0  0  0  0
  -28.1046  -16.9448   22.6276 H   0  0  0  0  0  0
  -34.0819  -20.4364   22.6177 H   0  0  0  0  0  0
  -33.5326  -20.5046   20.9460 H   0  0  0  0  0  0
  -34.3315  -19.0486   21.5528 H   0  0  0  0  0  0
  -29.9393  -22.9995   20.0748 H   0  0  0  0  0  0
  -29.9550  -23.4454   21.7501 H   0  0  0  0  0  0
  -27.3443  -24.1098   21.2436 H   0  0  0  0  0  0
  -27.9078  -24.1318   19.6103 H   0  0  0  0  0  0
  -30.2555  -17.0401   19.5634 H   0  0  0  0  0  0
  -28.7085  -17.0994   20.3180 H   0  0  0  0  0  0
  -31.7778  -18.8633   20.2319 H   0  0  0  0  0  0
  -32.3261  -17.4988   21.1660 H   0  0  0  0  0  0
  -29.8473  -25.6452   20.9408 H   0  0  0  0  0  0
  -28.4655  -25.9814   21.9388 H   0  0  0  0  0  0
  -30.2772  -17.5813   22.5272 H   0  0  0  0  0  0
  -29.0052  -15.1743   21.4371 H   0  0  0  0  0  0
  -31.7061  -20.0706   22.4157 H   0  0  0  0  0  0
  -32.4519  -18.7961   23.0894 H   0  0  0  0  0  0
  1 25  1  0  0  0
  1 30  2  0  0  0
  1 86  1  0  0  0
  2  3  1  0  0  0
  2 25  1  0  0  0
  2 88  1  0  0  0
  2 89  1  0  0  0
  3  4  1  0  0  0
  3 90  1  0  0  0
  3 91  1  0  0  0
  4  5  1  0  0  0
  4 92  1  0  0  0
  4 93  1  0  0  0
  5  6  1  0  0  0
  5 26  1  0  0  0
  5 94  1  0  0  0
  6 25  1  0  0  0
  6 95  1  0  0  0
  6 96  1  0  0  0
  7  8  2  0  0  0
  7 26  1  0  0  0
  7 29  1  0  0  0
  8  9  1  0  0  0
  8 22  1  0  0  0
  9 10  1  0  0  0
  9 27  2  0  0  0
 10 11  2  0  0  0
 10 15  1  0  0  0
 11 12  1  0  0  0
 11 97  1  0  0  0
 12 13  2  0  0  0
 12 98  1  0  0  0
 13 14  1  0  0  0
 13 31  1  0  0  0
 14 15  2  0  0  0
 14 99  1  0  0  0
 15100  1  0  0  0
 16 17  2  0  0  0
 16 21  1  0  0  0
 16 31  1  0  0  0
 17 18  1  0  0  0
 17101  1  0  0  0
 18 19  2  0  0  0
 18102  1  0  0  0
 19 20  1  0  0  0
 19 24  1  0  0  0
 20 21  2  0  0  0
 20103  1  0  0  0
 21 23  1  0  0  0
 22 28  1  0  0  0
 22 32  2  0  0  0
 26 27  1  0  0  0
 28104  1  0  0  0
 28105  1  0  0  0
 29106  1  0  0  0
 29107  1  0  0  0
 33 34  1  0  0  0
 33 66  1  0  0  0
 33 70  2  0  0  0
 34 36  1  0  0  0
 34 59  1  0  0  0
 34108  1  0  0  0
 35 44  2  0  0  0
 35 45  1  0  0  0
 35 68  1  0  0  0
 36 56  1  0  0  0
 36109  1  0  0  0
 37 39  1  0  0  0
 37 47  1  0  0  0
 37 66  1  0  0  0
 37110  1  0  0  0
 38 43  2  0  0  0
 38 46  1  0  0  0
 38 47  1  0  0  0
 39 64  1  0  0  0
 39 67  2  0  0  0
 40 52  1  0  0  0
 40 53  2  0  0  0
 40 58  1  0  0  0
 41111  1  0  0  0
 41112  1  0  0  0
 41113  1  0  0  0
 41 48  1  0  0  0
 42 43  1  0  0  0
 42 66  1  0  0  0
 42114  1  0  0  0
 42115  1  0  0  0
 43 44  1  0  0  0
 44116  1  0  0  0
 45 46  2  0  0  0
 45117  1  0  0  0
 46118  1  0  0  0
 47119  1  0  0  0
 47120  1  0  0  0
 48 56  1  0  0  0
 48 65  1  0  0  0
 48121  1  0  0  0
 49 50  1  0  0  0
 49 53  1  0  0  0
 49 64  1  0  0  0
 49122  1  0  0  0
 50 51  1  0  0  0
 50123  1  0  0  0
 50124  1  0  0  0
 51 52  1  0  0  0
 51125  1  0  0  0
 51126  1  0  0  0
 52127  1  0  0  0
 52128  1  0  0  0
 53 54  1  0  0  0
 54 55  2  0  0  0
 54129  1  0  0  0
 55 57  1  0  0  0
 55130  1  0  0  0
 56 69  2  0  0  0
 57 58  2  0  0  0
 57131  1  0  0  0
 58132  1  0  0  0
 59 60  1  0  0  0
 59 61  1  0  0  0
 59 62  1  0  0  0
 60133  1  0  0  0
 60134  1  0  0  0
 60135  1  0  0  0
 61136  1  0  0  0
 61137  1  0  0  0
 61138  1  0  0  0
 62139  1  0  0  0
 62140  1  0  0  0
 62141  1  0  0  0
 63 65  1  0  0  0
 63142  1  0  0  0
 63143  1  0  0  0
 63144  1  0  0  0
 64145  1  0  0  0
 65146  1  0  0  0
 68 84  1  0  0  0
 71 73  2  0  0  0
 71 74  1  0  0  0
 71147  1  0  0  0
 72 73  1  0  0  0
 72 75  2  0  0  0
 72148  1  0  0  0
 73 80  1  0  0  0
 74 76  2  0  0  0
 74 77  1  0  0  0
 75 76  1  0  0  0
 75 85  1  0  0  0
 76 78  1  0  0  0
 77149  1  0  0  0
 77150  1  0  0  0
 77151  1  0  0  0
 78152  1  0  0  0
 78153  1  0  0  0
 78154  1  0  0  0
 79 87  1  0  0  0
 79155  1  0  0  0
 79156  1  0  0  0
 79157  1  0  0  0
 80 81  1  0  0  0
 80158  1  0  0  0
 80159  1  0  0  0
 81 84  1  0  0  0
 81160  1  0  0  0
 81161  1  0  0  0
 82 86  1  0  0  0
 82162  1  0  0  0
 82163  1  0  0  0
 82 85  1  0  0  0
 83 85  1  0  0  0
 83 87  1  0  0  0
 83164  1  0  0  0
 83165  1  0  0  0
 84166  1  0  0  0
 84167  1  0  0  0
 85168  1  0  0  0
 86169  1  0  0  0
 87170  1  0  0  0
 87171  1  0  0  0
M  CHG  1  87   1
M  ISO  4   1 100  68 101  84 101  86 100
M  END
> <chiral flag>
0

> <version>
0

> <s_m_source_file>
/data/baiqing/PycharmProjects/Reinvent-master-3.2/result/LINK_invent/BTK/process_docking_weight1_custom_sum_contain_oxygen_bond_distance_aromatic_linkinvent_7_9_3/rearranged_h_0083.sdf

> <i_m_source_file_index>
25

> <r_mmod_Potential_Energy-OPLS-2005>
-176.420654296875

> <r_mmod_Stretch_Energy-OPLS-2005>
52.2038116455078

> <r_mmod_Bend_Energy-OPLS-2005>
118.139060974121

> <r_mmod_Torsional_Energy-OPLS-2005>
281.209167480469

> <r_mmod_Improper_Torsional_Energy-OPLS-2005>
7.93762683868408

> <r_mmod_Van_der_Waal_Energy-OPLS-2005>
147.61198425293

> <r_mmod_Electrostatic_Energy-OPLS-2005>
-358.093109130859

> <r_mmod_Solvation_Energy-OPLS-2005>
-443.663818359375

> <b_mmod_Minimization_Converged-OPLS-2005>
0

> <r_mmod_RMS_Derivative-OPLS-2005>
3.14014887809753

$$$$
25
                    3D
 Structure written by MMmdl.
161169  0  0  1  0            999 V2000
  -30.4868  -14.9870   20.4080 C   0  0  0  0  0  0
  -30.4441  -12.6060   19.5274 C   0  0  0  0  0  0
  -29.5329  -12.5453   18.2754 C   0  0  0  0  0  0
  -28.0652  -12.3188   18.6817 C   0  0  0  0  0  0
  -27.6327  -13.2495   19.8448 C   0  0  2  0  0  0
  -28.6624  -13.2750   20.9965 C   0  0  0  0  0  0
  -25.2458  -13.8220   20.5677 C   0  0  0  0  0  0
  -24.1774  -13.0442   20.9206 C   0  0  0  0  0  0
  -24.6399  -11.6925   20.8721 C   0  0  0  0  0  0
  -23.9087  -10.4294   21.0410 C   0  0  0  0  0  0
  -24.3634   -9.4199   21.9165 C   0  0  0  0  0  0
  -23.6305   -8.2227   22.0736 C   0  0  0  0  0  0
  -22.4289   -8.0268   21.3545 C   0  0  0  0  0  0
  -21.9936   -9.0246   20.4633 C   0  0  0  0  0  0
  -22.7266  -10.2122   20.3033 C   0  0  0  0  0  0
  -21.6868   -6.0732   22.5276 C   0  0  0  0  0  0
  -21.4036   -6.5615   23.8209 C   0  0  0  0  0  0
  -21.3650   -5.6757   24.9157 C   0  0  0  0  0  0
  -21.6050   -4.3022   24.7211 C   0  0  0  0  0  0
  -21.8817   -3.8126   23.4319 C   0  0  0  0  0  0
  -21.9220   -4.6957   22.3403 C   0  0  0  0  0  0
  -22.7795  -13.5218   21.1843 C   0  0  0  0  0  0
  -22.1677   -4.2163   21.0972 F   0  0  0  0  0  0
  -21.5627   -3.4488   25.7709 F   0  0  0  0  0  0
  -29.9431  -13.6982   20.4151 N   0  0  0  0  0  0
  -26.2892  -12.9457   20.3236 N   0  0  0  0  0  0
  -25.9332  -11.6587   20.5719 N   0  0  0  0  0  0
  -22.0456  -12.8211   22.0401 N   0  0  0  0  0  0
  -25.4100  -15.1941   20.4101 N   0  0  0  0  0  0
  -31.6628  -15.0869   20.0345 O   0  0  0  0  0  0
  -21.6632   -6.8875   21.4245 O   0  0  0  0  0  0
  -22.3463  -14.5522   20.6677 O   0  0  0  0  0  0
  -24.6471  -31.8407   23.1864 C   0  0  0  0  0  0
  -25.9261  -32.4664   23.8215 C   0  0  1  0  0  0
  -27.1927  -27.0939   20.1576 C   0  0  0  0  0  0
  -25.6007  -33.8469   24.2152 N   0  0  0  0  0  0
  -23.4467  -30.4650   21.5310 C   0  0  2  0  0  0
  -24.8929  -28.8915   20.0929 C   0  0  0  0  0  0
  -22.7577  -29.4539   22.4822 C   0  0  0  0  0  0
  -18.0325  -28.1408   22.8496 C   0  0  0  0  0  0
  -24.1491  -36.7230   23.2641 C   0  0  0  0  0  0
  -26.0050  -30.7005   21.3907 C   0  0  0  0  0  0
  -26.0664  -29.3100   20.7300 C   0  0  0  0  0  0
  -27.2114  -28.4248   20.7512 C   0  0  0  0  0  0
  -26.0105  -26.8032   19.4419 C   0  0  0  0  0  0
  -24.8810  -27.6522   19.4311 C   0  0  0  0  0  0
  -23.6717  -29.8007   20.1449 C   0  0  0  0  0  0
  -25.4123  -36.3008   24.0322 C   0  0  1  0  0  0
  -20.5942  -28.3732   23.1251 C   0  0  2  0  0  0
  -20.6803  -26.9429   22.5423 C   0  0  0  0  0  0
  -19.5758  -26.6402   21.5242 C   0  0  0  0  0  0
  -18.1945  -26.7955   22.1649 C   0  0  0  0  0  0
  -19.1579  -28.8889   23.2867 C   0  0  0  0  0  0
  -18.9484  -30.1506   23.8862 C   0  0  0  0  0  0
  -17.6472  -30.6585   24.0586 C   0  0  0  0  0  0
  -25.9081  -34.9391   23.5030 C   0  0  0  0  0  0
  -16.5368  -29.9073   23.6364 C   0  0  0  0  0  0
  -16.7310  -28.6513   23.0348 C   0  0  0  0  0  0
  -26.4534  -31.6544   25.0674 C   0  0  0  0  0  0
  -25.3714  -31.3766   26.1375 C   0  0  0  0  0  0
  -27.0368  -30.2920   24.6285 C   0  0  0  0  0  0
  -27.6037  -32.4330   25.7453 C   0  0  0  0  0  0
  -27.5570  -37.1769   24.8459 C   0  0  0  0  0  0
  -21.4266  -29.3036   22.3587 N   0  0  0  0  0  0
  -26.4264  -37.3750   23.9428 N   0  0  0  0  0  0
  -24.7195  -31.0245   22.0908 N   0  0  0  0  0  0
  -23.4218  -28.8114   23.2999 O   0  0  0  0  0  0
  -28.2087  -26.0748   20.3346 O   0  0  0  0  0  0
  -26.5632  -34.8909   22.4598 O   0  0  0  0  0  0
  -23.5608  -32.1286   23.7125 O   0  0  0  0  0  0
  -28.9725  -21.9046   20.2294 C   0  0  0  0  0  0
  -28.0855  -23.0985   20.4090 C   0  0  0  0  0  0
  -26.8681  -22.7440   21.0786 C   0  0  0  0  0  0
  -28.6445  -20.5022   20.6185 C   0  0  0  0  0  0
  -26.5852  -21.3738   21.3892 C   0  0  0  0  0  0
  -25.9218  -24.2144   22.9372 C   0  0  0  0  0  0
  -25.4116  -20.5212   23.5115 C   0  0  0  0  0  0
  -25.8491  -23.8245   21.4539 C   0  0  0  0  0  0
  -28.2830  -24.6211   19.7266 C   0  0  0  0  0  0
  -29.5783  -19.1261   20.8148 C   0  0  0  0  0  0
  -25.2741  -20.9004   22.0280 C   0  0  0  0  0  0
  -29.5164  -17.6140   20.0266 C   0  0  0  0  0  0
  -27.4246  -20.3342   21.1551 N   0  0  0  0  0  0
  -29.6677  -16.1354   20.6350 N   0  0  0  0  0  0
  -31.4779  -12.7685   19.2195 H   0  0  0  0  0  0
  -30.4425  -11.6552   20.0624 H   0  0  0  0  0  0
  -29.8658  -11.7526   17.6047 H   0  0  0  0  0  0
  -29.6172  -13.4804   17.7192 H   0  0  0  0  0  0
  -27.9632  -11.2762   18.9857 H   0  0  0  0  0  0
  -27.4054  -12.4504   17.8245 H   0  0  0  0  0  0
  -27.5998  -14.2536   19.4189 H   0  0  0  0  0  0
  -28.7494  -12.2989   21.4769 H   0  0  0  0  0  0
  -28.3432  -13.9739   21.7718 H   0  0  0  0  0  0
  -25.2799   -9.5640   22.4700 H   0  0  0  0  0  0
  -24.0023   -7.4621   22.7433 H   0  0  0  0  0  0
  -21.0878   -8.8763   19.8929 H   0  0  0  0  0  0
  -22.3768  -10.9632   19.6084 H   0  0  0  0  0  0
  -21.2021   -7.6119   23.9727 H   0  0  0  0  0  0
  -21.1467   -6.0460   25.9068 H   0  0  0  0  0  0
  -22.0619   -2.7590   23.2798 H   0  0  0  0  0  0
  -22.4135  -11.9909   22.4812 H   0  0  0  0  0  0
  -21.1046  -13.1156   22.2578 H   0  0  0  0  0  0
  -24.6334  -15.8362   20.5239 H   0  0  0  0  0  0
  -26.2484  -15.6423   20.0630 H   0  0  0  0  0  0
  -26.7327  -32.5214   23.0921 H   0  0  0  0  0  0
  -25.0189  -33.9564   25.0327 H   0  0  0  0  0  0
  -22.7488  -31.2946   21.3849 H   0  0  0  0  0  0
  -23.3761  -35.9550   23.3270 H   0  0  0  0  0  0
  -24.3599  -36.8902   22.2065 H   0  0  0  0  0  0
  -23.7230  -37.6418   23.6679 H   0  0  0  0  0  0
  -26.1732  -31.4568   20.6217 H   0  0  0  0  0  0
  -26.8728  -30.7406   22.0362 H   0  0  0  0  0  0
  -28.0940  -28.7346   21.2932 H   0  0  0  0  0  0
  -25.9056  -25.8568   18.9341 H   0  0  0  0  0  0
  -23.9926  -27.3313   18.9079 H   0  0  0  0  0  0
  -23.8091  -30.5810   19.3947 H   0  0  0  0  0  0
  -22.7796  -29.2542   19.8321 H   0  0  0  0  0  0
  -25.1320  -36.1798   25.0815 H   0  0  0  0  0  0
  -21.0078  -28.3335   24.1358 H   0  0  0  0  0  0
  -20.5727  -26.2324   23.3641 H   0  0  0  0  0  0
  -21.6660  -26.7426   22.1197 H   0  0  0  0  0  0
  -19.6880  -25.6310   21.1273 H   0  0  0  0  0  0
  -19.6706  -27.3214   20.6773 H   0  0  0  0  0  0
  -17.4235  -26.6790   21.4019 H   0  0  0  0  0  0
  -18.0281  -26.0080   22.9016 H   0  0  0  0  0  0
  -19.7946  -30.7386   24.2155 H   0  0  0  0  0  0
  -17.4997  -31.6250   24.5220 H   0  0  0  0  0  0
  -15.5353  -30.2944   23.7693 H   0  0  0  0  0  0
  -15.8730  -28.0839   22.7006 H   0  0  0  0  0  0
  -24.5934  -30.7047   25.7737 H   0  0  0  0  0  0
  -24.8840  -32.2954   26.4641 H   0  0  0  0  0  0
  -25.8032  -30.9078   27.0229 H   0  0  0  0  0  0
  -26.2964  -29.6650   24.1291 H   0  0  0  0  0  0
  -27.3948  -29.7230   25.4872 H   0  0  0  0  0  0
  -27.8914  -30.4124   23.9625 H   0  0  0  0  0  0
  -27.2608  -33.3690   26.1888 H   0  0  0  0  0  0
  -28.3902  -32.6814   25.0306 H   0  0  0  0  0  0
  -28.0618  -31.8533   26.5479 H   0  0  0  0  0  0
  -28.2554  -38.0089   24.7544 H   0  0  0  0  0  0
  -28.1098  -36.2626   24.6224 H   0  0  0  0  0  0
  -27.2309  -37.1379   25.8866 H   0  0  0  0  0  0
  -20.9457  -29.8712   21.6743 H   0  0  0  0  0  0
  -26.0109  -38.2814   24.1447 H   0  0  0  0  0  0
  -29.9413  -22.0759   19.7789 H   0  0  0  0  0  0
  -25.1832  -24.9779   23.1850 H   0  0  0  0  0  0
  -26.9098  -24.5953   23.1977 H   0  0  0  0  0  0
  -25.7225  -23.3735   23.5919 H   0  0  0  0  0  0
  -24.4599  -20.1592   23.8980 H   0  0  0  0  0  0
  -25.7190  -21.3538   24.1373 H   0  0  0  0  0  0
  -26.1517  -19.7352   23.6480 H   0  0  0  0  0  0
  -24.8377  -23.5263   21.1814 H   0  0  0  0  0  0
  -26.0076  -24.7186   20.8717 H   0  0  0  0  0  0
  -27.6557  -24.6139   18.8371 H   0  0  0  0  0  0
  -29.2884  -24.5747   19.3077 H   0  0  0  0  0  0
  -29.4468  -18.8917   21.8716 H   0  0  0  0  0  0
  -30.6102  -19.4714   20.7599 H   0  0  0  0  0  0
  -24.9441  -20.0134   21.4845 H   0  0  0  0  0  0
  -24.4609  -21.6102   21.9003 H   0  0  0  0  0  0
  -30.2015  -17.6726   19.1788 H   0  0  0  0  0  0
  -28.5318  -17.5838   19.5583 H   0  0  0  0  0  0
  -28.8102  -15.8488   21.0870 H   0  0  0  0  0  0
  1 25  1  0  0  0
  1 30  2  0  0  0
  1 84  1  0  0  0
  2  3  1  0  0  0
  2 25  1  0  0  0
  2 85  1  0  0  0
  2 86  1  0  0  0
  3  4  1  0  0  0
  3 87  1  0  0  0
  3 88  1  0  0  0
  4  5  1  0  0  0
  4 89  1  0  0  0
  4 90  1  0  0  0
  5  6  1  0  0  0
  5 26  1  0  0  0
  5 91  1  0  0  0
  6 25  1  0  0  0
  6 92  1  0  0  0
  6 93  1  0  0  0
  7  8  2  0  0  0
  7 26  1  0  0  0
  7 29  1  0  0  0
  8  9  1  0  0  0
  8 22  1  0  0  0
  9 10  1  0  0  0
  9 27  2  0  0  0
 10 11  2  0  0  0
 10 15  1  0  0  0
 11 12  1  0  0  0
 11 94  1  0  0  0
 12 13  2  0  0  0
 12 95  1  0  0  0
 13 14  1  0  0  0
 13 31  1  0  0  0
 14 15  2  0  0  0
 14 96  1  0  0  0
 15 97  1  0  0  0
 16 17  2  0  0  0
 16 21  1  0  0  0
 16 31  1  0  0  0
 17 18  1  0  0  0
 17 98  1  0  0  0
 18 19  2  0  0  0
 18 99  1  0  0  0
 19 20  1  0  0  0
 19 24  1  0  0  0
 20 21  2  0  0  0
 20100  1  0  0  0
 21 23  1  0  0  0
 22 28  1  0  0  0
 22 32  2  0  0  0
 26 27  1  0  0  0
 28101  1  0  0  0
 28102  1  0  0  0
 29103  1  0  0  0
 29104  1  0  0  0
 33 34  1  0  0  0
 33 66  1  0  0  0
 33 70  2  0  0  0
 34 36  1  0  0  0
 34 59  1  0  0  0
 34105  1  0  0  0
 35 44  2  0  0  0
 35 45  1  0  0  0
 35 68  1  0  0  0
 36 56  1  0  0  0
 36106  1  0  0  0
 37 39  1  0  0  0
 37 47  1  0  0  0
 37 66  1  0  0  0
 37107  1  0  0  0
 38 43  2  0  0  0
 38 46  1  0  0  0
 38 47  1  0  0  0
 39 64  1  0  0  0
 39 67  2  0  0  0
 40 52  1  0  0  0
 40 53  2  0  0  0
 40 58  1  0  0  0
 41108  1  0  0  0
 41109  1  0  0  0
 41110  1  0  0  0
 41 48  1  0  0  0
 42 43  1  0  0  0
 42 66  1  0  0  0
 42111  1  0  0  0
 42112  1  0  0  0
 43 44  1  0  0  0
 44113  1  0  0  0
 45 46  2  0  0  0
 45114  1  0  0  0
 46115  1  0  0  0
 47116  1  0  0  0
 47117  1  0  0  0
 48 56  1  0  0  0
 48 65  1  0  0  0
 48118  1  0  0  0
 49 50  1  0  0  0
 49 53  1  0  0  0
 49 64  1  0  0  0
 49119  1  0  0  0
 50 51  1  0  0  0
 50120  1  0  0  0
 50121  1  0  0  0
 51 52  1  0  0  0
 51122  1  0  0  0
 51123  1  0  0  0
 52124  1  0  0  0
 52125  1  0  0  0
 53 54  1  0  0  0
 54 55  2  0  0  0
 54126  1  0  0  0
 55 57  1  0  0  0
 55127  1  0  0  0
 56 69  2  0  0  0
 57 58  2  0  0  0
 57128  1  0  0  0
 58129  1  0  0  0
 59 60  1  0  0  0
 59 61  1  0  0  0
 59 62  1  0  0  0
 60130  1  0  0  0
 60131  1  0  0  0
 60132  1  0  0  0
 61133  1  0  0  0
 61134  1  0  0  0
 61135  1  0  0  0
 62136  1  0  0  0
 62137  1  0  0  0
 62138  1  0  0  0
 63 65  1  0  0  0
 63139  1  0  0  0
 63140  1  0  0  0
 63141  1  0  0  0
 64142  1  0  0  0
 65143  1  0  0  0
 68 79  1  0  0  0
 71 72  2  0  0  0
 71 74  1  0  0  0
 71144  1  0  0  0
 72 73  1  0  0  0
 72 79  1  0  0  0
 73 75  2  0  0  0
 73 78  1  0  0  0
 74 80  1  0  0  0
 74 83  2  0  0  0
 75 81  1  0  0  0
 75 83  1  0  0  0
 76 78  1  0  0  0
 76145  1  0  0  0
 76146  1  0  0  0
 76147  1  0  0  0
 77 81  1  0  0  0
 77148  1  0  0  0
 77149  1  0  0  0
 77150  1  0  0  0
 78151  1  0  0  0
 78152  1  0  0  0
 79153  1  0  0  0
 79154  1  0  0  0
 80 82  1  0  0  0
 80155  1  0  0  0
 80156  1  0  0  0
 81157  1  0  0  0
 81158  1  0  0  0
 82 84  1  0  0  0
 82159  1  0  0  0
 82160  1  0  0  0
 84161  1  0  0  0
M  ISO  4   1 100  68 101  79 101  84 100
M  END
> <chiral flag>
0

> <version>
0

> <s_m_source_file>
/data/baiqing/PycharmProjects/Reinvent-master-3.2/result/LINK_invent/BTK/process_docking_weight1_custom_sum_contain_oxygen_bond_distance_aromatic_linkinvent_7_9_3/rearranged_h_0083.sdf

> <i_m_source_file_index>
26

> <r_mmod_Potential_Energy-OPLS-2005>
527.96044921875

> <r_mmod_Stretch_Energy-OPLS-2005>
309.384246826172

> <r_mmod_Bend_Energy-OPLS-2005>
332.166046142578

> <r_mmod_Torsional_Energy-OPLS-2005>
234.299850463867

> <r_mmod_Improper_Torsional_Energy-OPLS-2005>
8.16504955291748

> <r_mmod_Van_der_Waal_Energy-OPLS-2005>
134.209747314453

> <r_mmod_Electrostatic_Energy-OPLS-2005>
-504.568939208984

> <r_mmod_Solvation_Energy-OPLS-2005>
-221.857635498047

> <b_mmod_Minimization_Converged-OPLS-2005>
0

> <r_mmod_RMS_Derivative-OPLS-2005>
4.35702848434448

$$$$
26
                    3D
 Structure written by MMmdl.
166174  0  0  1  0            999 V2000
  -30.6296  -14.7606   20.4391 C   0  0  0  0  0  0
  -30.4325  -12.4673   19.4728 C   0  0  0  0  0  0
  -29.5078  -12.5025   18.2376 C   0  0  0  0  0  0
  -28.0333  -12.3412   18.6518 C   0  0  0  0  0  0
  -27.6399  -13.2408   19.8524 C   0  0  2  0  0  0
  -28.6909  -13.1934   20.9835 C   0  0  0  0  0  0
  -25.2496  -13.8206   20.5757 C   0  0  0  0  0  0
  -24.1797  -13.0442   20.9258 C   0  0  0  0  0  0
  -24.6384  -11.6921   20.8766 C   0  0  0  0  0  0
  -23.9045  -10.4298   21.0408 C   0  0  0  0  0  0
  -24.3588   -9.4212   21.9180 C   0  0  0  0  0  0
  -23.6289   -8.2242   22.0734 C   0  0  0  0  0  0
  -22.4273   -8.0265   21.3527 C   0  0  0  0  0  0
  -21.9897   -9.0236   20.4630 C   0  0  0  0  0  0
  -22.7219  -10.2132   20.3060 C   0  0  0  0  0  0
  -21.6859   -6.0725   22.5269 C   0  0  0  0  0  0
  -21.4017   -6.5641   23.8196 C   0  0  0  0  0  0
  -21.3658   -5.6802   24.9162 C   0  0  0  0  0  0
  -21.6049   -4.3062   24.7223 C   0  0  0  0  0  0
  -21.8826   -3.8155   23.4341 C   0  0  0  0  0  0
  -21.9205   -4.6960   22.3397 C   0  0  0  0  0  0
  -22.7813  -13.5201   21.1897 C   0  0  0  0  0  0
  -22.1674   -4.2147   21.0975 F   0  0  0  0  0  0
  -21.5620   -3.4548   25.7735 F   0  0  0  0  0  0
  -29.9864  -13.5427   20.3908 N   0  0  0  0  0  0
  -26.2931  -12.9447   20.3328 N   0  0  0  0  0  0
  -25.9323  -11.6576   20.5764 N   0  0  0  0  0  0
  -22.0462  -12.8198   22.0446 N   0  0  0  0  0  0
  -25.4154  -15.1946   20.4149 N   0  0  0  0  0  0
  -31.8229  -14.8271   20.1384 O   0  0  0  0  0  0
  -21.6651   -6.8861   21.4223 O   0  0  0  0  0  0
  -22.3509  -14.5493   20.6700 O   0  0  0  0  0  0
  -24.6326  -31.8555   23.1926 C   0  0  0  0  0  0
  -25.9156  -32.4741   23.8282 C   0  0  1  0  0  0
  -27.2160  -27.2680   20.1383 C   0  0  0  0  0  0
  -25.5951  -33.8533   24.2230 N   0  0  0  0  0  0
  -23.4253  -30.4741   21.5383 C   0  0  2  0  0  0
  -24.8673  -28.9065   20.1183 C   0  0  0  0  0  0
  -22.7503  -29.4592   22.4937 C   0  0  0  0  0  0
  -18.0272  -28.1405   22.8482 C   0  0  0  0  0  0
  -24.1465  -36.7234   23.2642 C   0  0  0  0  0  0
  -25.9668  -30.7689   21.3657 C   0  0  0  0  0  0
  -26.0381  -29.3868   20.7181 C   0  0  0  0  0  0
  -27.2186  -28.5827   20.7081 C   0  0  0  0  0  0
  -26.0239  -26.8361   19.5258 C   0  0  0  0  0  0
  -24.8644  -27.6388   19.5117 C   0  0  0  0  0  0
  -23.6411  -29.7971   20.1573 C   0  0  0  0  0  0
  -25.4097  -36.3043   24.0325 C   0  0  1  0  0  0
  -20.5886  -28.3693   23.1292 C   0  0  2  0  0  0
  -20.6762  -26.9424   22.5415 C   0  0  0  0  0  0
  -19.5731  -26.6406   21.5212 C   0  0  0  0  0  0
  -18.1918  -26.7946   22.1635 C   0  0  0  0  0  0
  -19.1543  -28.8859   23.2879 C   0  0  0  0  0  0
  -18.9474  -30.1479   23.8880 C   0  0  0  0  0  0
  -17.6484  -30.6613   24.0565 C   0  0  0  0  0  0
  -25.9065  -34.9430   23.5079 C   0  0  0  0  0  0
  -16.5360  -29.9110   23.6349 C   0  0  0  0  0  0
  -16.7273  -28.6526   23.0350 C   0  0  0  0  0  0
  -26.4528  -31.6568   25.0675 C   0  0  0  0  0  0
  -25.3756  -31.3696   26.1391 C   0  0  0  0  0  0
  -27.0372  -30.2989   24.6155 C   0  0  0  0  0  0
  -27.6081  -32.4307   25.7455 C   0  0  0  0  0  0
  -27.5552  -37.1774   24.8491 C   0  0  0  0  0  0
  -21.4217  -29.3024   22.3673 N   0  0  0  0  0  0
  -26.4255  -37.3764   23.9441 N   0  0  0  0  0  0
  -24.6935  -31.0531   22.0875 N   0  0  0  0  0  0
  -23.4205  -28.8161   23.3069 O   0  0  0  0  0  0
  -28.3516  -26.4384   20.1047 O   0  0  0  0  0  0
  -26.5669  -34.8928   22.4674 O   0  0  0  0  0  0
  -23.5491  -32.1372   23.7241 O   0  0  0  0  0  0
  -31.6507  -21.1104   18.3845 C   0  0  0  0  0  0
  -31.1457  -19.8566   18.7666 C   0  0  0  0  0  0
  -31.0041  -22.0575   19.1108 C   0  0  0  0  0  0
  -30.1644  -20.0097   19.7135 C   0  0  0  0  0  0
  -31.4077  -23.5007   19.1266 C   0  0  0  0  0  0
  -28.0890  -18.5162   19.9213 C   0  0  0  0  0  0
  -28.2444  -23.7775   18.5110 C   0  0  0  0  0  0
  -27.7136  -25.1472   22.1441 C   0  0  0  0  0  0
  -28.9716  -22.3097   20.6432 C   0  0  0  0  0  0
  -30.3768  -17.3349   20.1945 C   0  0  0  0  0  0
  -29.5314  -18.7283   20.3951 C   0  0  1  0  0  0
  -28.2440  -23.6644   20.0461 C   0  0  1  0  0  0
  -28.4398  -25.1032   20.7869 C   0  0  1  0  0  0
  -29.9493  -21.4596   19.8317 N   0  0  0  0  0  0
  -29.8928  -15.9312   20.5781 N   0  0  0  0  0  0
  -31.4689  -12.6010   19.1559 H   0  0  0  0  0  0
  -30.3885  -11.4969   19.9690 H   0  0  0  0  0  0
  -29.7841  -11.7117   17.5406 H   0  0  0  0  0  0
  -29.6422  -13.4460   17.7072 H   0  0  0  0  0  0
  -27.8757  -11.2941   18.9107 H   0  0  0  0  0  0
  -27.3811  -12.5498   17.8029 H   0  0  0  0  0  0
  -27.6255  -14.2605   19.4651 H   0  0  0  0  0  0
  -28.7375  -12.2044   21.4432 H   0  0  0  0  0  0
  -28.4315  -13.8938   21.7789 H   0  0  0  0  0  0
  -25.2714   -9.5724   22.4772 H   0  0  0  0  0  0
  -24.0019   -7.4632   22.7443 H   0  0  0  0  0  0
  -21.0838   -8.8749   19.8926 H   0  0  0  0  0  0
  -22.3643  -10.9675   19.6185 H   0  0  0  0  0  0
  -21.2007   -7.6152   23.9699 H   0  0  0  0  0  0
  -21.1466   -6.0523   25.9059 H   0  0  0  0  0  0
  -22.0606   -2.7614   23.2844 H   0  0  0  0  0  0
  -22.4068  -11.9896   22.4914 H   0  0  0  0  0  0
  -21.1039  -13.1182   22.2558 H   0  0  0  0  0  0
  -24.6419  -15.8425   20.5141 H   0  0  0  0  0  0
  -26.2459  -15.6335   20.0439 H   0  0  0  0  0  0
  -26.7202  -32.5396   23.1006 H   0  0  0  0  0  0
  -25.0119  -33.9691   25.0381 H   0  0  0  0  0  0
  -22.7211  -31.2948   21.3869 H   0  0  0  0  0  0
  -23.3749  -35.9551   23.3327 H   0  0  0  0  0  0
  -24.3538  -36.8831   22.2052 H   0  0  0  0  0  0
  -23.7197  -37.6424   23.6656 H   0  0  0  0  0  0
  -26.1113  -31.5244   20.5924 H   0  0  0  0  0  0
  -26.8422  -30.8167   21.9995 H   0  0  0  0  0  0
  -28.1257  -28.9562   21.1618 H   0  0  0  0  0  0
  -25.9847  -25.8630   19.0565 H   0  0  0  0  0  0
  -23.9663  -27.2695   19.0374 H   0  0  0  0  0  0
  -23.7721  -30.5613   19.3904 H   0  0  0  0  0  0
  -22.7585  -29.2292   19.8578 H   0  0  0  0  0  0
  -25.1278  -36.1863   25.0813 H   0  0  0  0  0  0
  -20.9975  -28.3256   24.1419 H   0  0  0  0  0  0
  -20.5657  -26.2322   23.3624 H   0  0  0  0  0  0
  -21.6639  -26.7462   22.1226 H   0  0  0  0  0  0
  -19.6907  -25.6319   21.1235 H   0  0  0  0  0  0
  -19.6655  -27.3224   20.6744 H   0  0  0  0  0  0
  -17.4200  -26.6692   21.4034 H   0  0  0  0  0  0
  -18.0314  -26.0099   22.9040 H   0  0  0  0  0  0
  -19.7959  -30.7288   24.2251 H   0  0  0  0  0  0
  -17.5040  -31.6294   24.5173 H   0  0  0  0  0  0
  -15.5370  -30.3009   23.7676 H   0  0  0  0  0  0
  -15.8663  -28.0846   22.7071 H   0  0  0  0  0  0
  -24.5948  -30.7028   25.7711 H   0  0  0  0  0  0
  -24.8941  -32.2862   26.4816 H   0  0  0  0  0  0
  -25.8106  -30.8876   27.0161 H   0  0  0  0  0  0
  -26.2943  -29.6707   24.1227 H   0  0  0  0  0  0
  -27.4104  -29.7265   25.4656 H   0  0  0  0  0  0
  -27.8802  -30.4258   23.9354 H   0  0  0  0  0  0
  -27.2682  -33.3605   26.2034 H   0  0  0  0  0  0
  -28.3919  -32.6869   25.0303 H   0  0  0  0  0  0
  -28.0727  -31.8434   26.5386 H   0  0  0  0  0  0
  -28.2617  -38.0029   24.7522 H   0  0  0  0  0  0
  -28.0993  -36.2567   24.6335 H   0  0  0  0  0  0
  -27.2304  -37.1449   25.8905 H   0  0  0  0  0  0
  -20.9443  -29.8663   21.6775 H   0  0  0  0  0  0
  -26.0117  -38.2831   24.1449 H   0  0  0  0  0  0
  -32.4566  -21.3010   17.6879 H   0  0  0  0  0  0
  -31.5264  -18.9225   18.3814 H   0  0  0  0  0  0
  -32.4536  -23.5931   19.4191 H   0  0  0  0  0  0
  -30.8517  -24.1102   19.8238 H   0  0  0  0  0  0
  -31.3203  -23.9379   18.1315 H   0  0  0  0  0  0
  -27.4817  -19.4041   20.0968 H   0  0  0  0  0  0
  -27.6199  -17.6897   20.4509 H   0  0  0  0  0  0
  -28.0558  -18.2954   18.8533 H   0  0  0  0  0  0
  -28.2578  -22.7951   18.0360 H   0  0  0  0  0  0
  -29.0771  -24.3615   18.1290 H   0  0  0  0  0  0
  -27.3390  -24.2752   18.1693 H   0  0  0  0  0  0
  -27.9289  -24.2561   22.7363 H   0  0  0  0  0  0
  -26.6321  -25.1957   22.0191 H   0  0  0  0  0  0
  -28.0274  -26.0093   22.7348 H   0  0  0  0  0  0
  -28.1737  -21.6364   20.9605 H   0  0  0  0  0  0
  -29.4834  -22.5742   21.5696 H   0  0  0  0  0  0
  -30.5412  -17.2250   19.1239 H   0  0  0  0  0  0
  -31.3674  -17.4792   20.6331 H   0  0  0  0  0  0
  -29.4903  -18.9218   21.4673 H   0  0  0  0  0  0
  -27.1921  -23.4490   20.2431 H   0  0  0  0  0  0
  -29.4875  -25.1138   21.0741 H   0  0  0  0  0  0
  -28.9090  -15.8266   20.7765 H   0  0  0  0  0  0
  1 25  1  0  0  0
  1 30  2  0  0  0
  1 85  1  0  0  0
  2  3  1  0  0  0
  2 25  1  0  0  0
  2 86  1  0  0  0
  2 87  1  0  0  0
  3  4  1  0  0  0
  3 88  1  0  0  0
  3 89  1  0  0  0
  4  5  1  0  0  0
  4 90  1  0  0  0
  4 91  1  0  0  0
  5  6  1  0  0  0
  5 26  1  0  0  0
  5 92  1  0  0  0
  6 25  1  0  0  0
  6 93  1  0  0  0
  6 94  1  0  0  0
  7  8  2  0  0  0
  7 26  1  0  0  0
  7 29  1  0  0  0
  8  9  1  0  0  0
  8 22  1  0  0  0
  9 10  1  0  0  0
  9 27  2  0  0  0
 10 11  2  0  0  0
 10 15  1  0  0  0
 11 12  1  0  0  0
 11 95  1  0  0  0
 12 13  2  0  0  0
 12 96  1  0  0  0
 13 14  1  0  0  0
 13 31  1  0  0  0
 14 15  2  0  0  0
 14 97  1  0  0  0
 15 98  1  0  0  0
 16 17  2  0  0  0
 16 21  1  0  0  0
 16 31  1  0  0  0
 17 18  1  0  0  0
 17 99  1  0  0  0
 18 19  2  0  0  0
 18100  1  0  0  0
 19 20  1  0  0  0
 19 24  1  0  0  0
 20 21  2  0  0  0
 20101  1  0  0  0
 21 23  1  0  0  0
 22 28  1  0  0  0
 22 32  2  0  0  0
 26 27  1  0  0  0
 28102  1  0  0  0
 28103  1  0  0  0
 29104  1  0  0  0
 29105  1  0  0  0
 33 34  1  0  0  0
 33 66  1  0  0  0
 33 70  2  0  0  0
 34 36  1  0  0  0
 34 59  1  0  0  0
 34106  1  0  0  0
 35 44  2  0  0  0
 35 45  1  0  0  0
 35 68  1  0  0  0
 36 56  1  0  0  0
 36107  1  0  0  0
 37 39  1  0  0  0
 37 47  1  0  0  0
 37 66  1  0  0  0
 37108  1  0  0  0
 38 43  2  0  0  0
 38 46  1  0  0  0
 38 47  1  0  0  0
 39 64  1  0  0  0
 39 67  2  0  0  0
 40 52  1  0  0  0
 40 53  2  0  0  0
 40 58  1  0  0  0
 41109  1  0  0  0
 41110  1  0  0  0
 41111  1  0  0  0
 41 48  1  0  0  0
 42 43  1  0  0  0
 42 66  1  0  0  0
 42112  1  0  0  0
 42113  1  0  0  0
 43 44  1  0  0  0
 44114  1  0  0  0
 45 46  2  0  0  0
 45115  1  0  0  0
 46116  1  0  0  0
 47117  1  0  0  0
 47118  1  0  0  0
 48 56  1  0  0  0
 48 65  1  0  0  0
 48119  1  0  0  0
 49 50  1  0  0  0
 49 53  1  0  0  0
 49 64  1  0  0  0
 49120  1  0  0  0
 50 51  1  0  0  0
 50121  1  0  0  0
 50122  1  0  0  0
 51 52  1  0  0  0
 51123  1  0  0  0
 51124  1  0  0  0
 52125  1  0  0  0
 52126  1  0  0  0
 53 54  1  0  0  0
 54 55  2  0  0  0
 54127  1  0  0  0
 55 57  1  0  0  0
 55128  1  0  0  0
 56 69  2  0  0  0
 57 58  2  0  0  0
 57129  1  0  0  0
 58130  1  0  0  0
 59 60  1  0  0  0
 59 61  1  0  0  0
 59 62  1  0  0  0
 60131  1  0  0  0
 60132  1  0  0  0
 60133  1  0  0  0
 61134  1  0  0  0
 61135  1  0  0  0
 61136  1  0  0  0
 62137  1  0  0  0
 62138  1  0  0  0
 62139  1  0  0  0
 63 65  1  0  0  0
 63140  1  0  0  0
 63141  1  0  0  0
 63142  1  0  0  0
 64143  1  0  0  0
 65144  1  0  0  0
 68 83  1  0  0  0
 71 72  1  0  0  0
 71 73  2  0  0  0
 71145  1  0  0  0
 72 74  2  0  0  0
 72146  1  0  0  0
 73 75  1  0  0  0
 73 84  1  0  0  0
 74 81  1  0  0  0
 74 84  1  0  0  0
 75147  1  0  0  0
 75148  1  0  0  0
 75149  1  0  0  0
 76150  1  0  0  0
 76151  1  0  0  0
 76152  1  0  0  0
 76 81  1  0  0  0
 77153  1  0  0  0
 77154  1  0  0  0
 77155  1  0  0  0
 77 82  1  0  0  0
 78156  1  0  0  0
 78157  1  0  0  0
 78158  1  0  0  0
 78 83  1  0  0  0
 79 82  1  0  0  0
 79 84  1  0  0  0
 79159  1  0  0  0
 79160  1  0  0  0
 80 81  1  0  0  0
 80 85  1  0  0  0
 80161  1  0  0  0
 80162  1  0  0  0
 81163  1  0  0  0
 82 83  1  0  0  0
 82164  1  0  0  0
 83165  1  0  0  0
 85166  1  0  0  0
M  ISO  4   1 100  68 101  83 101  85 100
M  END
> <chiral flag>
0

> <version>
0

> <s_m_source_file>
/data/baiqing/PycharmProjects/Reinvent-master-3.2/result/LINK_invent/BTK/process_docking_weight1_custom_sum_contain_oxygen_bond_distance_aromatic_linkinvent_7_9_3/rearranged_h_0083.sdf

> <i_m_source_file_index>
27

> <r_mmod_Potential_Energy-OPLS-2005>
225.019439697266

> <r_mmod_Stretch_Energy-OPLS-2005>
148.529647827148

> <r_mmod_Bend_Energy-OPLS-2005>
237.133483886719

> <r_mmod_Torsional_Energy-OPLS-2005>
271.066680908203

> <r_mmod_Improper_Torsional_Energy-OPLS-2005>
6.85831451416016

> <r_mmod_Van_der_Waal_Energy-OPLS-2005>
112.672424316406

> <r_mmod_Electrostatic_Energy-OPLS-2005>
-427.976989746094

> <r_mmod_Solvation_Energy-OPLS-2005>
-206.175704956055

> <b_mmod_Minimization_Converged-OPLS-2005>
0

> <r_mmod_RMS_Derivative-OPLS-2005>
3.51157689094543

$$$$
27
                    3D
 Structure written by MMmdl.
163171  0  0  1  0            999 V2000
  -30.6370  -14.4790   20.6292 C   0  0  0  0  0  0
  -30.4285  -12.3265   19.4185 C   0  0  0  0  0  0
  -29.4940  -12.5431   18.2098 C   0  0  0  0  0  0
  -28.0174  -12.3667   18.6155 C   0  0  0  0  0  0
  -27.6592  -13.1899   19.8794 C   0  0  2  0  0  0
  -28.6894  -12.9327   21.0006 C   0  0  0  0  0  0
  -25.2548  -13.8138   20.5569 C   0  0  0  0  0  0
  -24.1794  -13.0433   20.9120 C   0  0  0  0  0  0
  -24.6348  -11.6898   20.8703 C   0  0  0  0  0  0
  -23.9046  -10.4286   21.0404 C   0  0  0  0  0  0
  -24.3622   -9.4166   21.9138 C   0  0  0  0  0  0
  -23.6270   -8.2217   22.0716 C   0  0  0  0  0  0
  -22.4236   -8.0269   21.3530 C   0  0  0  0  0  0
  -21.9899   -9.0244   20.4627 C   0  0  0  0  0  0
  -22.7244  -10.2112   20.3025 C   0  0  0  0  0  0
  -21.6838   -6.0711   22.5268 C   0  0  0  0  0  0
  -21.4020   -6.5608   23.8213 C   0  0  0  0  0  0
  -21.3693   -5.6752   24.9171 C   0  0  0  0  0  0
  -21.6071   -4.3030   24.7215 C   0  0  0  0  0  0
  -21.8809   -3.8121   23.4339 C   0  0  0  0  0  0
  -21.9197   -4.6939   22.3388 C   0  0  0  0  0  0
  -22.7826  -13.5234   21.1822 C   0  0  0  0  0  0
  -22.1650   -4.2130   21.0965 F   0  0  0  0  0  0
  -21.5676   -3.4513   25.7739 F   0  0  0  0  0  0
  -30.0239  -13.2735   20.4697 N   0  0  0  0  0  0
  -26.2962  -12.9261   20.3313 N   0  0  0  0  0  0
  -25.9238  -11.6445   20.5684 N   0  0  0  0  0  0
  -22.0490  -12.8225   22.0430 N   0  0  0  0  0  0
  -25.4263  -15.1827   20.3894 N   0  0  0  0  0  0
  -31.7367  -14.7534   20.1348 O   0  0  0  0  0  0
  -21.6602   -6.8844   21.4241 O   0  0  0  0  0  0
  -22.3508  -14.5520   20.6671 O   0  0  0  0  0  0
  -24.6165  -31.8685   23.2052 C   0  0  0  0  0  0
  -25.9087  -32.4804   23.8349 C   0  0  1  0  0  0
  -27.2457  -27.4355   20.1161 C   0  0  0  0  0  0
  -25.5959  -33.8587   24.2305 N   0  0  0  0  0  0
  -23.4049  -30.4830   21.5491 C   0  0  2  0  0  0
  -24.8570  -28.9401   20.1227 C   0  0  0  0  0  0
  -22.7418  -29.4606   22.5021 C   0  0  0  0  0  0
  -18.0305  -28.1375   22.8397 C   0  0  0  0  0  0
  -24.1492  -36.7299   23.2633 C   0  0  0  0  0  0
  -25.9321  -30.8290   21.3616 C   0  0  0  0  0  0
  -26.0116  -29.4590   20.7215 C   0  0  0  0  0  0
  -27.2111  -28.7111   20.7203 C   0  0  0  0  0  0
  -26.0786  -26.9205   19.5227 C   0  0  0  0  0  0
  -24.8849  -27.6694   19.5195 C   0  0  0  0  0  0
  -23.6190  -29.8089   20.1664 C   0  0  0  0  0  0
  -25.4115  -36.3087   24.0328 C   0  0  1  0  0  0
  -20.5864  -28.3671   23.1412 C   0  0  2  0  0  0
  -20.6766  -26.9358   22.5616 C   0  0  0  0  0  0
  -19.5918  -26.6424   21.5235 C   0  0  0  0  0  0
  -18.2000  -26.7966   22.1434 C   0  0  0  0  0  0
  -19.1517  -28.8829   23.2888 C   0  0  0  0  0  0
  -18.9407  -30.1425   23.8901 C   0  0  0  0  0  0
  -17.6397  -30.6524   24.0550 C   0  0  0  0  0  0
  -25.9045  -34.9451   23.5104 C   0  0  0  0  0  0
  -16.5314  -29.9010   23.6286 C   0  0  0  0  0  0
  -16.7275  -28.6471   23.0253 C   0  0  0  0  0  0
  -26.4516  -31.6594   25.0676 C   0  0  0  0  0  0
  -25.3783  -31.3733   26.1428 C   0  0  0  0  0  0
  -27.0349  -30.3026   24.6085 C   0  0  0  0  0  0
  -27.6095  -32.4308   25.7445 C   0  0  0  0  0  0
  -27.5593  -37.1808   24.8467 C   0  0  0  0  0  0
  -21.4140  -29.3041   22.3820 N   0  0  0  0  0  0
  -26.4298  -37.3781   23.9415 N   0  0  0  0  0  0
  -24.6685  -31.0746   22.0971 N   0  0  0  0  0  0
  -23.4205  -28.8139   23.3051 O   0  0  0  0  0  0
  -28.4058  -26.7018   20.0690 O   0  0  0  0  0  0
  -26.5561  -34.8917   22.4652 O   0  0  0  0  0  0
  -23.5353  -32.1460   23.7435 O   0  0  0  0  0  0
  -27.5856  -21.0659   21.5112 C   0  0  0  0  0  0
  -27.6303  -19.6783   21.2195 C   0  0  0  0  0  0
  -28.7680  -21.8213   21.3940 C   0  0  0  0  0  0
  -28.8902  -19.1391   20.8169 C   0  0  0  0  0  0
  -25.5656  -18.8132   20.0288 C   0  0  0  0  0  0
  -25.4534  -19.2882   22.5054 C   0  0  0  0  0  0
  -28.8084  -23.2970   21.8071 C   0  0  0  0  0  0
  -29.1362  -17.6661   20.4251 C   0  0  0  0  0  0
  -28.4147  -24.3174   20.7093 C   0  0  0  0  0  0
  -30.0143  -16.8494   21.4234 C   0  0  0  0  0  0
  -28.6024  -25.7879   21.1538 C   0  0  0  0  0  0
  -26.3607  -18.8368   21.3462 C   0  0  0  0  0  0
  -29.9259  -21.2517   20.9736 N   0  0  0  0  0  0
  -29.9810  -19.9417   20.6938 N   0  0  0  0  0  0
  -29.8699  -15.3910   21.2610 N   0  0  0  0  0  0
  -31.4705  -12.4702   19.1231 H   0  0  0  0  0  0
  -30.3570  -11.2990   19.7824 H   0  0  0  0  0  0
  -29.7517  -11.8538   17.4039 H   0  0  0  0  0  0
  -29.6408  -13.5510   17.8155 H   0  0  0  0  0  0
  -27.8514  -11.3055   18.8041 H   0  0  0  0  0  0
  -27.3557  -12.6395   17.7895 H   0  0  0  0  0  0
  -27.7176  -14.2419   19.5994 H   0  0  0  0  0  0
  -28.6720  -11.8833   21.2945 H   0  0  0  0  0  0
  -28.4224  -13.4801   21.9084 H   0  0  0  0  0  0
  -25.2788   -9.5605   22.4695 H   0  0  0  0  0  0
  -23.9983   -7.4602   22.7430 H   0  0  0  0  0  0
  -21.0820   -8.8769   19.8928 H   0  0  0  0  0  0
  -22.3707  -10.9659   19.6133 H   0  0  0  0  0  0
  -21.1964   -7.6105   23.9715 H   0  0  0  0  0  0
  -21.1559   -6.0468   25.9087 H   0  0  0  0  0  0
  -22.0556   -2.7586   23.2815 H   0  0  0  0  0  0
  -22.4144  -11.9903   22.4841 H   0  0  0  0  0  0
  -21.1116  -13.1245   22.2712 H   0  0  0  0  0  0
  -24.6355  -15.8164   20.4371 H   0  0  0  0  0  0
  -26.2564  -15.6104   19.9999 H   0  0  0  0  0  0
  -26.7175  -32.5519   23.1121 H   0  0  0  0  0  0
  -25.0215  -33.9754   25.0524 H   0  0  0  0  0  0
  -22.6938  -31.2989   21.4051 H   0  0  0  0  0  0
  -23.3741  -35.9650   23.3292 H   0  0  0  0  0  0
  -24.3580  -36.8907   22.2048 H   0  0  0  0  0  0
  -23.7248  -37.6509   23.6636 H   0  0  0  0  0  0
  -26.0379  -31.5860   20.5839 H   0  0  0  0  0  0
  -26.8224  -30.8862   21.9785 H   0  0  0  0  0  0
  -28.1030  -29.1120   21.1775 H   0  0  0  0  0  0
  -26.0988  -25.9410   19.0657 H   0  0  0  0  0  0
  -24.0001  -27.2558   19.0558 H   0  0  0  0  0  0
  -23.7440  -30.5812   19.4079 H   0  0  0  0  0  0
  -22.7428  -29.2350   19.8617 H   0  0  0  0  0  0
  -25.1293  -36.1944   25.0817 H   0  0  0  0  0  0
  -20.9888  -28.3257   24.1550 H   0  0  0  0  0  0
  -20.5392  -26.2300   23.3833 H   0  0  0  0  0  0
  -21.6703  -26.7233   22.1669 H   0  0  0  0  0  0
  -19.7145  -25.6388   21.1165 H   0  0  0  0  0  0
  -19.7018  -27.3312   20.6845 H   0  0  0  0  0  0
  -17.4435  -26.6876   21.3647 H   0  0  0  0  0  0
  -18.0185  -25.9995   22.8671 H   0  0  0  0  0  0
  -19.7847  -30.7262   24.2314 H   0  0  0  0  0  0
  -17.4902  -31.6184   24.5176 H   0  0  0  0  0  0
  -15.5294  -30.2885   23.7569 H   0  0  0  0  0  0
  -15.8734  -28.0780   22.6875 H   0  0  0  0  0  0
  -24.5929  -30.7109   25.7767 H   0  0  0  0  0  0
  -24.9011  -32.2894   26.4898 H   0  0  0  0  0  0
  -25.8123  -30.8878   27.0176 H   0  0  0  0  0  0
  -26.2888  -29.6735   24.1209 H   0  0  0  0  0  0
  -27.4175  -29.7311   25.4558 H   0  0  0  0  0  0
  -27.8692  -30.4309   23.9185 H   0  0  0  0  0  0
  -27.2740  -33.3607   26.2052 H   0  0  0  0  0  0
  -28.3901  -32.6879   25.0267 H   0  0  0  0  0  0
  -28.0782  -31.8415   26.5344 H   0  0  0  0  0  0
  -28.2617  -38.0107   24.7494 H   0  0  0  0  0  0
  -28.1076  -36.2617   24.6300 H   0  0  0  0  0  0
  -27.2294  -37.1478   25.8872 H   0  0  0  0  0  0
  -20.9250  -29.8911   21.7207 H   0  0  0  0  0  0
  -26.0169  -38.2857   24.1428 H   0  0  0  0  0  0
  -26.6812  -21.5560   21.8419 H   0  0  0  0  0  0
  -26.1458  -18.3867   19.2118 H   0  0  0  0  0  0
  -25.2492  -19.8128   19.7278 H   0  0  0  0  0  0
  -24.6662  -18.2058   20.1298 H   0  0  0  0  0  0
  -26.0011  -19.3424   23.4458 H   0  0  0  0  0  0
  -24.6307  -18.5902   22.6533 H   0  0  0  0  0  0
  -25.0013  -20.2610   22.3179 H   0  0  0  0  0  0
  -29.8089  -23.5240   22.1786 H   0  0  0  0  0  0
  -28.1482  -23.4300   22.6628 H   0  0  0  0  0  0
  -29.6400  -17.6827   19.4575 H   0  0  0  0  0  0
  -28.1977  -17.1492   20.2335 H   0  0  0  0  0  0
  -27.3773  -24.1509   20.4138 H   0  0  0  0  0  0
  -29.0216  -24.1408   19.8227 H   0  0  0  0  0  0
  -29.6836  -17.0786   22.4366 H   0  0  0  0  0  0
  -31.0605  -17.1590   21.3764 H   0  0  0  0  0  0
  -29.6256  -25.9221   21.5043 H   0  0  0  0  0  0
  -27.9638  -26.0241   22.0082 H   0  0  0  0  0  0
  -26.6627  -17.8213   21.5927 H   0  0  0  0  0  0
  -29.0155  -15.0044   21.6372 H   0  0  0  0  0  0
  1 25  1  0  0  0
  1 30  2  0  0  0
  1 85  1  0  0  0
  2  3  1  0  0  0
  2 25  1  0  0  0
  2 86  1  0  0  0
  2 87  1  0  0  0
  3  4  1  0  0  0
  3 88  1  0  0  0
  3 89  1  0  0  0
  4  5  1  0  0  0
  4 90  1  0  0  0
  4 91  1  0  0  0
  5  6  1  0  0  0
  5 26  1  0  0  0
  5 92  1  0  0  0
  6 25  1  0  0  0
  6 93  1  0  0  0
  6 94  1  0  0  0
  7  8  2  0  0  0
  7 26  1  0  0  0
  7 29  1  0  0  0
  8  9  1  0  0  0
  8 22  1  0  0  0
  9 10  1  0  0  0
  9 27  2  0  0  0
 10 11  2  0  0  0
 10 15  1  0  0  0
 11 12  1  0  0  0
 11 95  1  0  0  0
 12 13  2  0  0  0
 12 96  1  0  0  0
 13 14  1  0  0  0
 13 31  1  0  0  0
 14 15  2  0  0  0
 14 97  1  0  0  0
 15 98  1  0  0  0
 16 17  2  0  0  0
 16 21  1  0  0  0
 16 31  1  0  0  0
 17 18  1  0  0  0
 17 99  1  0  0  0
 18 19  2  0  0  0
 18100  1  0  0  0
 19 20  1  0  0  0
 19 24  1  0  0  0
 20 21  2  0  0  0
 20101  1  0  0  0
 21 23  1  0  0  0
 22 28  1  0  0  0
 22 32  2  0  0  0
 26 27  1  0  0  0
 28102  1  0  0  0
 28103  1  0  0  0
 29104  1  0  0  0
 29105  1  0  0  0
 33 34  1  0  0  0
 33 66  1  0  0  0
 33 70  2  0  0  0
 34 36  1  0  0  0
 34 59  1  0  0  0
 34106  1  0  0  0
 35 44  2  0  0  0
 35 45  1  0  0  0
 35 68  1  0  0  0
 36 56  1  0  0  0
 36107  1  0  0  0
 37 39  1  0  0  0
 37 47  1  0  0  0
 37 66  1  0  0  0
 37108  1  0  0  0
 38 43  2  0  0  0
 38 46  1  0  0  0
 38 47  1  0  0  0
 39 64  1  0  0  0
 39 67  2  0  0  0
 40 52  1  0  0  0
 40 53  2  0  0  0
 40 58  1  0  0  0
 41109  1  0  0  0
 41110  1  0  0  0
 41111  1  0  0  0
 41 48  1  0  0  0
 42 43  1  0  0  0
 42 66  1  0  0  0
 42112  1  0  0  0
 42113  1  0  0  0
 43 44  1  0  0  0
 44114  1  0  0  0
 45 46  2  0  0  0
 45115  1  0  0  0
 46116  1  0  0  0
 47117  1  0  0  0
 47118  1  0  0  0
 48 56  1  0  0  0
 48 65  1  0  0  0
 48119  1  0  0  0
 49 50  1  0  0  0
 49 53  1  0  0  0
 49 64  1  0  0  0
 49120  1  0  0  0
 50 51  1  0  0  0
 50121  1  0  0  0
 50122  1  0  0  0
 51 52  1  0  0  0
 51123  1  0  0  0
 51124  1  0  0  0
 52125  1  0  0  0
 52126  1  0  0  0
 53 54  1  0  0  0
 54 55  2  0  0  0
 54127  1  0  0  0
 55 57  1  0  0  0
 55128  1  0  0  0
 56 69  2  0  0  0
 57 58  2  0  0  0
 57129  1  0  0  0
 58130  1  0  0  0
 59 60  1  0  0  0
 59 61  1  0  0  0
 59 62  1  0  0  0
 60131  1  0  0  0
 60132  1  0  0  0
 60133  1  0  0  0
 61134  1  0  0  0
 61135  1  0  0  0
 61136  1  0  0  0
 62137  1  0  0  0
 62138  1  0  0  0
 62139  1  0  0  0
 63 65  1  0  0  0
 63140  1  0  0  0
 63141  1  0  0  0
 63142  1  0  0  0
 64143  1  0  0  0
 65144  1  0  0  0
 68 81  1  0  0  0
 71 72  2  0  0  0
 71 73  1  0  0  0
 71145  1  0  0  0
 72 74  1  0  0  0
 72 82  1  0  0  0
 73 77  1  0  0  0
 73 83  2  0  0  0
 74 78  1  0  0  0
 74 84  2  0  0  0
 75146  1  0  0  0
 75147  1  0  0  0
 75148  1  0  0  0
 75 82  1  0  0  0
 76 82  1  0  0  0
 76149  1  0  0  0
 76150  1  0  0  0
 76151  1  0  0  0
 77 79  1  0  0  0
 77152  1  0  0  0
 77153  1  0  0  0
 78 80  1  0  0  0
 78154  1  0  0  0
 78155  1  0  0  0
 79 81  1  0  0  0
 79156  1  0  0  0
 79157  1  0  0  0
 80 85  1  0  0  0
 80158  1  0  0  0
 80159  1  0  0  0
 81160  1  0  0  0
 81161  1  0  0  0
 82162  1  0  0  0
 83 84  1  0  0  0
 85163  1  0  0  0
M  ISO  4   1 100  68 101  81 101  85 100
M  END
> <chiral flag>
0

> <version>
0

> <s_m_source_file>
/data/baiqing/PycharmProjects/Reinvent-master-3.2/result/LINK_invent/BTK/process_docking_weight1_custom_sum_contain_oxygen_bond_distance_aromatic_linkinvent_7_9_3/rearranged_h_0083.sdf

> <i_m_source_file_index>
28

> <r_mmod_Potential_Energy-OPLS-2005>
-88.6307983398438

> <r_mmod_Stretch_Energy-OPLS-2005>
40.9780082702637

> <r_mmod_Bend_Energy-OPLS-2005>
105.041069030762

> <r_mmod_Torsional_Energy-OPLS-2005>
210.182861328125

> <r_mmod_Improper_Torsional_Energy-OPLS-2005>
3.91580486297607

> <r_mmod_Van_der_Waal_Energy-OPLS-2005>
141.411376953125

> <r_mmod_Electrostatic_Energy-OPLS-2005>
-369.384918212891

> <r_mmod_Solvation_Energy-OPLS-2005>
-234.919372558594

> <b_mmod_Minimization_Converged-OPLS-2005>
0

> <r_mmod_RMS_Derivative-OPLS-2005>
5.11847734451294

$$$$
28
                    3D
 Structure written by MMmdl.
161168  0  0  1  0            999 V2000
  -30.4553  -15.1954   20.3813 C   0  0  0  0  0  0
  -30.4437  -12.7642   19.5015 C   0  0  0  0  0  0
  -29.5292  -12.5583   18.2692 C   0  0  0  0  0  0
  -28.0754  -12.2948   18.7025 C   0  0  0  0  0  0
  -27.6136  -13.2654   19.8185 C   0  0  2  0  0  0
  -28.6544  -13.4108   20.9470 C   0  0  0  0  0  0
  -25.2408  -13.8231   20.5733 C   0  0  0  0  0  0
  -24.1752  -13.0431   20.9254 C   0  0  0  0  0  0
  -24.6396  -11.6926   20.8763 C   0  0  0  0  0  0
  -23.9089  -10.4288   21.0411 C   0  0  0  0  0  0
  -24.3635   -9.4201   21.9187 C   0  0  0  0  0  0
  -23.6306   -8.2240   22.0753 C   0  0  0  0  0  0
  -22.4284   -8.0283   21.3546 C   0  0  0  0  0  0
  -21.9926   -9.0256   20.4644 C   0  0  0  0  0  0
  -22.7262  -10.2133   20.3056 C   0  0  0  0  0  0
  -21.6856   -6.0740   22.5281 C   0  0  0  0  0  0
  -21.4015   -6.5643   23.8213 C   0  0  0  0  0  0
  -21.3657   -5.6795   24.9175 C   0  0  0  0  0  0
  -21.6044   -4.3058   24.7225 C   0  0  0  0  0  0
  -21.8819   -3.8149   23.4346 C   0  0  0  0  0  0
  -21.9192   -4.6967   22.3402 C   0  0  0  0  0  0
  -22.7770  -13.5187   21.1904 C   0  0  0  0  0  0
  -22.1663   -4.2154   21.0981 F   0  0  0  0  0  0
  -21.5626   -3.4539   25.7736 F   0  0  0  0  0  0
  -29.8884  -13.9000   20.3131 N   0  0  0  0  0  0
  -26.2827  -12.9489   20.3199 N   0  0  0  0  0  0
  -25.9329  -11.6603   20.5718 N   0  0  0  0  0  0
  -22.0431  -12.8166   22.0458 N   0  0  0  0  0  0
  -25.4035  -15.1966   20.4165 N   0  0  0  0  0  0
  -31.6844  -15.2134   20.2345 O   0  0  0  0  0  0
  -21.6644   -6.8883   21.4243 O   0  0  0  0  0  0
  -22.3448  -14.5489   20.6746 O   0  0  0  0  0  0
  -24.6585  -31.8286   23.1735 C   0  0  0  0  0  0
  -25.9283  -32.4616   23.8184 C   0  0  1  0  0  0
  -27.2206  -26.9735   20.1835 C   0  0  0  0  0  0
  -25.5970  -33.8429   24.2101 N   0  0  0  0  0  0
  -23.4711  -30.4416   21.5217 C   0  0  2  0  0  0
  -24.9233  -28.8319   20.1171 C   0  0  0  0  0  0
  -22.7645  -29.4471   22.4793 C   0  0  0  0  0  0
  -18.0321  -28.1408   22.8475 C   0  0  0  0  0  0
  -24.1489  -36.7217   23.2649 C   0  0  0  0  0  0
  -26.0371  -30.6508   21.3944 C   0  0  0  0  0  0
  -26.1071  -29.2431   20.7431 C   0  0  0  0  0  0
  -27.2544  -28.3364   20.7468 C   0  0  0  0  0  0
  -26.0063  -26.6990   19.5178 C   0  0  0  0  0  0
  -24.8953  -27.5787   19.4844 C   0  0  0  0  0  0
  -23.7088  -29.7565   20.1480 C   0  0  0  0  0  0
  -25.4127  -36.2984   24.0310 C   0  0  1  0  0  0
  -20.5943  -28.3751   23.1197 C   0  0  2  0  0  0
  -20.6800  -26.9438   22.5402 C   0  0  0  0  0  0
  -19.5771  -26.6378   21.5217 C   0  0  0  0  0  0
  -18.1952  -26.7945   22.1623 C   0  0  0  0  0  0
  -19.1583  -28.8896   23.2826 C   0  0  0  0  0  0
  -18.9496  -30.1489   23.8859 C   0  0  0  0  0  0
  -17.6493  -30.6598   24.0560 C   0  0  0  0  0  0
  -25.9088  -34.9369   23.5021 C   0  0  0  0  0  0
  -16.5381  -29.9093   23.6341 C   0  0  0  0  0  0
  -16.7305  -28.6510   23.0361 C   0  0  0  0  0  0
  -26.4550  -31.6544   25.0694 C   0  0  0  0  0  0
  -25.3687  -31.3787   26.1359 C   0  0  0  0  0  0
  -27.0446  -30.2923   24.6381 C   0  0  0  0  0  0
  -27.6045  -32.4351   25.7492 C   0  0  0  0  0  0
  -27.5568  -37.1766   24.8470 C   0  0  0  0  0  0
  -21.4316  -29.3055   22.3551 N   0  0  0  0  0  0
  -26.4274  -37.3716   23.9416 N   0  0  0  0  0  0
  -24.7433  -30.9994   22.0841 N   0  0  0  0  0  0
  -23.4215  -28.8034   23.3009 O   0  0  0  0  0  0
  -28.2531  -25.9124   20.1926 O   0  0  0  0  0  0
  -26.5690  -34.8901   22.4612 O   0  0  0  0  0  0
  -23.5664  -32.1227   23.6854 O   0  0  0  0  0  0
  -29.2629  -22.2528   23.0408 C   0  0  0  0  0  0
  -27.9546  -19.0966   19.2429 C   0  0  0  0  0  0
  -30.3427  -23.2172   19.8218 C   0  0  0  0  0  0
  -28.3164  -22.6001   18.5438 C   0  0  0  0  0  0
  -29.6788  -21.1846   22.0198 C   0  0  0  0  0  0
  -29.8610  -18.0472   20.7383 C   0  0  0  0  0  0
  -28.0410  -24.3199   20.4854 C   0  0  0  0  0  0
  -29.2110  -19.5392   20.0053 C   0  0  2  0  0  0
  -28.8839  -21.1668   20.6920 C   0  0  2  0  0  0
  -28.8624  -22.8150   19.9644 C   0  0  0  0  0  0
  -29.6659  -16.4364   20.4125 N   0  0  0  0  0  0
  -31.4610  -12.9738   19.1674 H   0  0  0  0  0  0
  -30.5090  -11.8528   20.0982 H   0  0  0  0  0  0
  -29.8952  -11.7332   17.6566 H   0  0  0  0  0  0
  -29.5647  -13.4480   17.6391 H   0  0  0  0  0  0
  -28.0223  -11.2681   19.0667 H   0  0  0  0  0  0
  -27.4045  -12.3494   17.8442 H   0  0  0  0  0  0
  -27.5357  -14.2379   19.3311 H   0  0  0  0  0  0
  -28.8118  -12.4673   21.4718 H   0  0  0  0  0  0
  -28.3104  -14.1306   21.6918 H   0  0  0  0  0  0
  -25.2780   -9.5677   22.4762 H   0  0  0  0  0  0
  -24.0013   -7.4629   22.7473 H   0  0  0  0  0  0
  -21.0857   -8.8778   19.8949 H   0  0  0  0  0  0
  -22.3723  -10.9672   19.6164 H   0  0  0  0  0  0
  -21.2011   -7.6151   23.9719 H   0  0  0  0  0  0
  -21.1478   -6.0524   25.9078 H   0  0  0  0  0  0
  -22.0600   -2.7612   23.2843 H   0  0  0  0  0  0
  -22.4073  -11.9837   22.4841 H   0  0  0  0  0  0
  -21.1042  -13.1164   22.2666 H   0  0  0  0  0  0
  -24.6304  -15.8430   20.5304 H   0  0  0  0  0  0
  -26.2392  -15.6405   20.0609 H   0  0  0  0  0  0
  -26.7352  -32.5167   23.0901 H   0  0  0  0  0  0
  -25.0094  -33.9517   25.0235 H   0  0  0  0  0  0
  -22.7819  -31.2715   21.3521 H   0  0  0  0  0  0
  -23.3760  -35.9537   23.3284 H   0  0  0  0  0  0
  -24.3565  -36.8881   22.2066 H   0  0  0  0  0  0
  -23.7236  -37.6399   23.6713 H   0  0  0  0  0  0
  -26.2081  -31.3919   20.6121 H   0  0  0  0  0  0
  -26.9006  -30.7096   22.0450 H   0  0  0  0  0  0
  -28.1569  -28.6559   21.2479 H   0  0  0  0  0  0
  -25.8950  -25.7436   19.0253 H   0  0  0  0  0  0
  -23.9968  -27.2578   18.9759 H   0  0  0  0  0  0
  -23.8639  -30.5251   19.3897 H   0  0  0  0  0  0
  -22.8186  -29.2107   19.8297 H   0  0  0  0  0  0
  -25.1323  -36.1783   25.0800 H   0  0  0  0  0  0
  -21.0036  -28.3351   24.1316 H   0  0  0  0  0  0
  -20.5682  -26.2370   23.3637 H   0  0  0  0  0  0
  -21.6663  -26.7419   22.1206 H   0  0  0  0  0  0
  -19.6936  -25.6278   21.1272 H   0  0  0  0  0  0
  -19.6709  -27.3165   20.6729 H   0  0  0  0  0  0
  -17.4226  -26.6692   21.4024 H   0  0  0  0  0  0
  -18.0345  -26.0096   22.9026 H   0  0  0  0  0  0
  -19.7975  -30.7313   24.2206 H   0  0  0  0  0  0
  -17.5049  -31.6275   24.5169 H   0  0  0  0  0  0
  -15.5382  -30.2985   23.7690 H   0  0  0  0  0  0
  -15.8703  -28.0819   22.7097 H   0  0  0  0  0  0
  -24.5878  -30.7130   25.7670 H   0  0  0  0  0  0
  -24.8867  -32.2989   26.4672 H   0  0  0  0  0  0
  -25.7926  -30.9029   27.0210 H   0  0  0  0  0  0
  -26.3108  -29.6604   24.1365 H   0  0  0  0  0  0
  -27.3991  -29.7276   25.5013 H   0  0  0  0  0  0
  -27.9036  -30.4136   23.9779 H   0  0  0  0  0  0
  -27.2616  -33.3697   26.1945 H   0  0  0  0  0  0
  -28.3917  -32.6836   25.0362 H   0  0  0  0  0  0
  -28.0642  -31.8555   26.5508 H   0  0  0  0  0  0
  -28.2569  -38.0076   24.7508 H   0  0  0  0  0  0
  -28.1076  -36.2600   24.6297 H   0  0  0  0  0  0
  -27.2284  -37.1411   25.8872 H   0  0  0  0  0  0
  -20.9556  -29.8756   21.6699 H   0  0  0  0  0  0
  -26.0122  -38.2775   24.1424 H   0  0  0  0  0  0
  -29.6846  -22.0284   24.0214 H   0  0  0  0  0  0
  -28.1796  -22.3005   23.1542 H   0  0  0  0  0  0
  -29.6255  -23.2415   22.7657 H   0  0  0  0  0  0
  -28.1500  -18.2041   18.6473 H   0  0  0  0  0  0
  -27.6019  -19.8665   18.5583 H   0  0  0  0  0  0
  -27.1414  -18.8645   19.9310 H   0  0  0  0  0  0
  -30.4570  -24.0997   19.1913 H   0  0  0  0  0  0
  -30.9343  -22.4159   19.3779 H   0  0  0  0  0  0
  -30.7906  -23.4606   20.7845 H   0  0  0  0  0  0
  -28.3904  -23.5110   17.9482 H   0  0  0  0  0  0
  -27.2654  -22.3117   18.5687 H   0  0  0  0  0  0
  -28.8636  -21.8213   18.0114 H   0  0  0  0  0  0
  -29.5420  -20.2240   22.5139 H   0  0  0  0  0  0
  -30.7485  -21.2564   21.8184 H   0  0  0  0  0  0
  -29.5285  -18.0904   21.7747 H   0  0  0  0  0  0
  -30.9393  -18.1927   20.8115 H   0  0  0  0  0  0
  -28.0812  -24.3006   21.5716 H   0  0  0  0  0  0
  -26.9836  -24.1430   20.2899 H   0  0  0  0  0  0
  -29.9499  -19.7537   19.2320 H   0  0  0  0  0  0
  -27.8451  -21.0631   21.0093 H   0  0  0  0  0  0
  -28.6853  -16.2044   20.3615 H   0  0  0  0  0  0
  1 25  1  0  0  0
  1 30  2  0  0  0
  1 81  1  0  0  0
  2  3  1  0  0  0
  2 25  1  0  0  0
  2 82  1  0  0  0
  2 83  1  0  0  0
  3  4  1  0  0  0
  3 84  1  0  0  0
  3 85  1  0  0  0
  4  5  1  0  0  0
  4 86  1  0  0  0
  4 87  1  0  0  0
  5  6  1  0  0  0
  5 26  1  0  0  0
  5 88  1  0  0  0
  6 25  1  0  0  0
  6 89  1  0  0  0
  6 90  1  0  0  0
  7  8  2  0  0  0
  7 26  1  0  0  0
  7 29  1  0  0  0
  8  9  1  0  0  0
  8 22  1  0  0  0
  9 10  1  0  0  0
  9 27  2  0  0  0
 10 11  2  0  0  0
 10 15  1  0  0  0
 11 12  1  0  0  0
 11 91  1  0  0  0
 12 13  2  0  0  0
 12 92  1  0  0  0
 13 14  1  0  0  0
 13 31  1  0  0  0
 14 15  2  0  0  0
 14 93  1  0  0  0
 15 94  1  0  0  0
 16 17  2  0  0  0
 16 21  1  0  0  0
 16 31  1  0  0  0
 17 18  1  0  0  0
 17 95  1  0  0  0
 18 19  2  0  0  0
 18 96  1  0  0  0
 19 20  1  0  0  0
 19 24  1  0  0  0
 20 21  2  0  0  0
 20 97  1  0  0  0
 21 23  1  0  0  0
 22 28  1  0  0  0
 22 32  2  0  0  0
 26 27  1  0  0  0
 28 98  1  0  0  0
 28 99  1  0  0  0
 29100  1  0  0  0
 29101  1  0  0  0
 33 34  1  0  0  0
 33 66  1  0  0  0
 33 70  2  0  0  0
 34 36  1  0  0  0
 34 59  1  0  0  0
 34102  1  0  0  0
 35 44  2  0  0  0
 35 45  1  0  0  0
 35 68  1  0  0  0
 36 56  1  0  0  0
 36103  1  0  0  0
 37 39  1  0  0  0
 37 47  1  0  0  0
 37 66  1  0  0  0
 37104  1  0  0  0
 38 43  2  0  0  0
 38 46  1  0  0  0
 38 47  1  0  0  0
 39 64  1  0  0  0
 39 67  2  0  0  0
 40 52  1  0  0  0
 40 53  2  0  0  0
 40 58  1  0  0  0
 41105  1  0  0  0
 41106  1  0  0  0
 41107  1  0  0  0
 41 48  1  0  0  0
 42 43  1  0  0  0
 42 66  1  0  0  0
 42108  1  0  0  0
 42109  1  0  0  0
 43 44  1  0  0  0
 44110  1  0  0  0
 45 46  2  0  0  0
 45111  1  0  0  0
 46112  1  0  0  0
 47113  1  0  0  0
 47114  1  0  0  0
 48 56  1  0  0  0
 48 65  1  0  0  0
 48115  1  0  0  0
 49 50  1  0  0  0
 49 53  1  0  0  0
 49 64  1  0  0  0
 49116  1  0  0  0
 50 51  1  0  0  0
 50117  1  0  0  0
 50118  1  0  0  0
 51 52  1  0  0  0
 51119  1  0  0  0
 51120  1  0  0  0
 52121  1  0  0  0
 52122  1  0  0  0
 53 54  1  0  0  0
 54 55  2  0  0  0
 54123  1  0  0  0
 55 57  1  0  0  0
 55124  1  0  0  0
 56 69  2  0  0  0
 57 58  2  0  0  0
 57125  1  0  0  0
 58126  1  0  0  0
 59 60  1  0  0  0
 59 61  1  0  0  0
 59 62  1  0  0  0
 60127  1  0  0  0
 60128  1  0  0  0
 60129  1  0  0  0
 61130  1  0  0  0
 61131  1  0  0  0
 61132  1  0  0  0
 62133  1  0  0  0
 62134  1  0  0  0
 62135  1  0  0  0
 63 65  1  0  0  0
 63136  1  0  0  0
 63137  1  0  0  0
 63138  1  0  0  0
 64139  1  0  0  0
 65140  1  0  0  0
 68 77  1  0  0  0
 71 75  1  0  0  0
 71141  1  0  0  0
 71142  1  0  0  0
 71143  1  0  0  0
 72144  1  0  0  0
 72145  1  0  0  0
 72146  1  0  0  0
 72 78  1  0  0  0
 73147  1  0  0  0
 73148  1  0  0  0
 73149  1  0  0  0
 73 80  1  0  0  0
 74 80  1  0  0  0
 74150  1  0  0  0
 74151  1  0  0  0
 74152  1  0  0  0
 75153  1  0  0  0
 75154  1  0  0  0
 75 79  1  0  0  0
 76 78  1  0  0  0
 76 81  1  0  0  0
 76155  1  0  0  0
 76156  1  0  0  0
 77 80  1  0  0  0
 77157  1  0  0  0
 77158  1  0  0  0
 78 79  1  0  0  0
 78159  1  0  0  0
 79 80  1  0  0  0
 79160  1  0  0  0
 81161  1  0  0  0
M  ISO  4   1 100  68 101  77 101  81 100
M  END
> <chiral flag>
0

> <version>
0

> <s_m_source_file>
/data/baiqing/PycharmProjects/Reinvent-master-3.2/result/LINK_invent/BTK/process_docking_weight1_custom_sum_contain_oxygen_bond_distance_aromatic_linkinvent_7_9_3/rearranged_h_0083.sdf

> <i_m_source_file_index>
29

> <r_mmod_Potential_Energy-OPLS-2005>
1201.20239257812

> <r_mmod_Stretch_Energy-OPLS-2005>
576.144165039062

> <r_mmod_Bend_Energy-OPLS-2005>
429.997772216797

> <r_mmod_Torsional_Energy-OPLS-2005>
275.058898925781

> <r_mmod_Improper_Torsional_Energy-OPLS-2005>
4.34720325469971

> <r_mmod_Van_der_Waal_Energy-OPLS-2005>
104.785614013672

> <r_mmod_Electrostatic_Energy-OPLS-2005>
-379.418823242188

> <r_mmod_Solvation_Energy-OPLS-2005>
-197.283538818359

> <b_mmod_Minimization_Converged-OPLS-2005>
0

> <r_mmod_RMS_Derivative-OPLS-2005>
0.963180005550385

$$$$
29
                    3D
 Structure written by MMmdl.
174182  0  0  1  0            999 V2000
  -30.6085  -14.7416   20.4574 C   0  0  0  0  0  0
  -30.4383  -12.4604   19.4418 C   0  0  0  0  0  0
  -29.4966  -12.4864   18.2179 C   0  0  0  0  0  0
  -28.0282  -12.3104   18.6518 C   0  0  0  0  0  0
  -27.6400  -13.2247   19.8429 C   0  0  2  0  0  0
  -28.6932  -13.1651   20.9685 C   0  0  0  0  0  0
  -25.2527  -13.8187   20.5706 C   0  0  0  0  0  0
  -24.1806  -13.0446   20.9222 C   0  0  0  0  0  0
  -24.6384  -11.6916   20.8774 C   0  0  0  0  0  0
  -23.9064  -10.4296   21.0432 C   0  0  0  0  0  0
  -24.3614   -9.4204   21.9205 C   0  0  0  0  0  0
  -23.6292   -8.2232   22.0763 C   0  0  0  0  0  0
  -22.4279   -8.0273   21.3542 C   0  0  0  0  0  0
  -21.9914   -9.0253   20.4650 C   0  0  0  0  0  0
  -22.7244  -10.2133   20.3071 C   0  0  0  0  0  0
  -21.6853   -6.0729   22.5275 C   0  0  0  0  0  0
  -21.4003   -6.5639   23.8206 C   0  0  0  0  0  0
  -21.3650   -5.6793   24.9174 C   0  0  0  0  0  0
  -21.6045   -4.3056   24.7230 C   0  0  0  0  0  0
  -21.8822   -3.8151   23.4352 C   0  0  0  0  0  0
  -21.9195   -4.6959   22.3407 C   0  0  0  0  0  0
  -22.7830  -13.5231   21.1885 C   0  0  0  0  0  0
  -22.1668   -4.2143   21.0985 F   0  0  0  0  0  0
  -21.5628   -3.4547   25.7747 F   0  0  0  0  0  0
  -29.9850  -13.5203   20.3670 N   0  0  0  0  0  0
  -26.2938  -12.9373   20.3292 N   0  0  0  0  0  0
  -25.9311  -11.6530   20.5794 N   0  0  0  0  0  0
  -22.0480  -12.8203   22.0432 N   0  0  0  0  0  0
  -25.4259  -15.1905   20.4089 N   0  0  0  0  0  0
  -31.8163  -14.8440   20.2341 O   0  0  0  0  0  0
  -21.6637   -6.8869   21.4234 O   0  0  0  0  0  0
  -22.3516  -14.5546   20.6751 O   0  0  0  0  0  0
  -24.6332  -31.8519   23.1958 C   0  0  0  0  0  0
  -25.9152  -32.4723   23.8317 C   0  0  1  0  0  0
  -27.2171  -27.2463   20.1169 C   0  0  0  0  0  0
  -25.5945  -33.8533   24.2218 N   0  0  0  0  0  0
  -23.4317  -30.4745   21.5386 C   0  0  2  0  0  0
  -24.8780  -28.9218   20.1060 C   0  0  0  0  0  0
  -22.7517  -29.4590   22.4876 C   0  0  0  0  0  0
  -18.0289  -28.1364   22.8435 C   0  0  0  0  0  0
  -24.1499  -36.7313   23.2638 C   0  0  0  0  0  0
  -25.9793  -30.7594   21.3786 C   0  0  0  0  0  0
  -26.0519  -29.3810   20.7175 C   0  0  0  0  0  0
  -27.2242  -28.5558   20.7112 C   0  0  0  0  0  0
  -26.0184  -26.8618   19.4748 C   0  0  0  0  0  0
  -24.8674  -27.6716   19.4724 C   0  0  0  0  0  0
  -23.6511  -29.8092   20.1546 C   0  0  0  0  0  0
  -25.4123  -36.3052   24.0303 C   0  0  1  0  0  0
  -20.5904  -28.3695   23.1230 C   0  0  2  0  0  0
  -20.6791  -26.9411   22.5376 C   0  0  0  0  0  0
  -19.5782  -26.6366   21.5177 C   0  0  0  0  0  0
  -18.1955  -26.7900   22.1578 C   0  0  0  0  0  0
  -19.1548  -28.8844   23.2822 C   0  0  0  0  0  0
  -18.9465  -30.1424   23.8870 C   0  0  0  0  0  0
  -17.6473  -30.6565   24.0539 C   0  0  0  0  0  0
  -25.9069  -34.9420   23.5074 C   0  0  0  0  0  0
  -16.5362  -29.9049   23.6326 C   0  0  0  0  0  0
  -16.7278  -28.6475   23.0327 C   0  0  0  0  0  0
  -26.4509  -31.6561   25.0723 C   0  0  0  0  0  0
  -25.3700  -31.3694   26.1412 C   0  0  0  0  0  0
  -27.0373  -30.2984   24.6229 C   0  0  0  0  0  0
  -27.6051  -32.4326   25.7493 C   0  0  0  0  0  0
  -27.5573  -37.1805   24.8450 C   0  0  0  0  0  0
  -21.4230  -29.3033   22.3626 N   0  0  0  0  0  0
  -26.4300  -37.3747   23.9380 N   0  0  0  0  0  0
  -24.7008  -31.0468   22.0944 N   0  0  0  0  0  0
  -23.4204  -28.8122   23.2984 O   0  0  0  0  0  0
  -28.3061  -26.3378   20.1727 O   0  0  0  0  0  0
  -26.5638  -34.8898   22.4630 O   0  0  0  0  0  0
  -23.5482  -32.1344   23.7237 O   0  0  0  0  0  0
  -27.9455  -21.7239   22.2693 C   0  0  0  0  0  0
  -28.7849  -20.2650   23.9779 C   0  0  0  0  0  0
  -27.8511  -21.2218   23.5695 C   0  0  0  0  0  0
  -28.8289  -21.1743   21.3134 C   0  0  0  0  0  0
  -29.6792  -19.6837   23.0523 C   0  0  0  0  0  0
  -29.5079  -19.8991   21.6411 C   0  0  0  0  0  0
  -27.4846  -22.7350   25.5762 C   0  0  0  0  0  0
  -30.5767  -17.8203   24.6010 C   0  0  0  0  0  0
  -31.7743  -20.0313   24.4052 C   0  0  0  0  0  0
  -31.1686  -19.0493   19.8316 C   0  0  0  0  0  0
  -26.8437  -21.7933   24.5501 C   0  0  0  0  0  0
  -28.9560  -22.1328   20.0666 C   0  0  0  0  0  0
  -29.1639  -23.7381   20.3379 C   0  0  0  0  0  0
  -30.0892  -17.1954   21.2813 C   0  0  0  0  0  0
  -28.0466  -24.8583   20.0019 C   0  0  0  0  0  0
  -30.9107  -18.9989   23.6603 C   0  0  0  0  0  0
  -29.9123  -18.6978   20.6407 C   0  0  1  0  0  0
  -29.8073  -15.8612   20.6038 N   0  0  0  0  0  0
  -31.4702  -12.6103   19.1194 H   0  0  0  0  0  0
  -30.4116  -11.4871   19.9336 H   0  0  0  0  0  0
  -29.7692  -11.6959   17.5170 H   0  0  0  0  0  0
  -29.6096  -13.4280   17.6782 H   0  0  0  0  0  0
  -27.8974  -11.2659   18.9389 H   0  0  0  0  0  0
  -27.3580  -12.4790   17.8081 H   0  0  0  0  0  0
  -27.6296  -14.2420   19.4509 H   0  0  0  0  0  0
  -28.7359  -12.1697   21.4131 H   0  0  0  0  0  0
  -28.4371  -13.8522   21.7767 H   0  0  0  0  0  0
  -25.2751   -9.5676   22.4797 H   0  0  0  0  0  0
  -24.0000   -7.4618   22.7485 H   0  0  0  0  0  0
  -21.0842   -8.8773   19.8960 H   0  0  0  0  0  0
  -22.3703  -10.9675   19.6186 H   0  0  0  0  0  0
  -21.1982   -7.6149   23.9703 H   0  0  0  0  0  0
  -21.1468   -6.0535   25.9071 H   0  0  0  0  0  0
  -22.0612   -2.7615   23.2865 H   0  0  0  0  0  0
  -22.4094  -11.9834   22.4761 H   0  0  0  0  0  0
  -21.1110  -13.1231   22.2690 H   0  0  0  0  0  0
  -24.6649  -15.8529   20.5162 H   0  0  0  0  0  0
  -26.2763  -15.6216   20.0706 H   0  0  0  0  0  0
  -26.7215  -32.5367   23.1057 H   0  0  0  0  0  0
  -25.0131  -33.9698   25.0388 H   0  0  0  0  0  0
  -22.7310  -31.2965   21.3861 H   0  0  0  0  0  0
  -23.3745  -35.9659   23.3290 H   0  0  0  0  0  0
  -24.3617  -36.8972   22.2061 H   0  0  0  0  0  0
  -23.7290  -37.6519   23.6694 H   0  0  0  0  0  0
  -26.1167  -31.5193   20.6081 H   0  0  0  0  0  0
  -26.8584  -30.8097   22.0101 H   0  0  0  0  0  0
  -28.1205  -28.8981   21.2091 H   0  0  0  0  0  0
  -25.9350  -25.9095   18.9739 H   0  0  0  0  0  0
  -23.9701  -27.3176   18.9828 H   0  0  0  0  0  0
  -23.7800  -30.5833   19.3991 H   0  0  0  0  0  0
  -22.7698  -29.2432   19.8479 H   0  0  0  0  0  0
  -25.1298  -36.1913   25.0797 H   0  0  0  0  0  0
  -20.9962  -28.3277   24.1360 H   0  0  0  0  0  0
  -20.5694  -26.2305   23.3585 H   0  0  0  0  0  0
  -21.6664  -26.7438   22.1165 H   0  0  0  0  0  0
  -19.6988  -25.6268   21.1238 H   0  0  0  0  0  0
  -19.6748  -27.3131   20.6678 H   0  0  0  0  0  0
  -17.4222  -26.6613   21.3974 H   0  0  0  0  0  0
  -18.0374  -26.0027   22.8967 H   0  0  0  0  0  0
  -19.7951  -30.7207   24.2272 H   0  0  0  0  0  0
  -17.5031  -31.6249   24.5114 H   0  0  0  0  0  0
  -15.5362  -30.2930   23.7676 H   0  0  0  0  0  0
  -15.8679  -28.0788   22.7059 H   0  0  0  0  0  0
  -24.5938  -30.6987   25.7708 H   0  0  0  0  0  0
  -24.8821  -32.2845   26.4788 H   0  0  0  0  0  0
  -25.8001  -30.8910   27.0226 H   0  0  0  0  0  0
  -26.2965  -29.6704   24.1275 H   0  0  0  0  0  0
  -27.4068  -29.7287   25.4768 H   0  0  0  0  0  0
  -27.8814  -30.4252   23.9448 H   0  0  0  0  0  0
  -27.2681  -33.3676   26.1994 H   0  0  0  0  0  0
  -28.3896  -32.6833   25.0324 H   0  0  0  0  0  0
  -28.0675  -31.8501   26.5481 H   0  0  0  0  0  0
  -28.2541  -38.0136   24.7498 H   0  0  0  0  0  0
  -28.1123  -36.2674   24.6275 H   0  0  0  0  0  0
  -27.2310  -37.1433   25.8855 H   0  0  0  0  0  0
  -20.9443  -29.8806   21.6855 H   0  0  0  0  0  0
  -26.0187  -38.2821   24.1373 H   0  0  0  0  0  0
  -27.3390  -22.5820   22.0121 H   0  0  0  0  0  0
  -28.8473  -20.0193   25.0287 H   0  0  0  0  0  0
  -26.7386  -23.0946   26.2862 H   0  0  0  0  0  0
  -27.9296  -23.6025   25.0890 H   0  0  0  0  0  0
  -28.2627  -22.2264   26.1451 H   0  0  0  0  0  0
  -30.0145  -17.0279   24.1136 H   0  0  0  0  0  0
  -29.9927  -18.1393   25.4641 H   0  0  0  0  0  0
  -31.4898  -17.3677   24.9864 H   0  0  0  0  0  0
  -32.0740  -20.8422   23.7407 H   0  0  0  0  0  0
  -32.6849  -19.5754   24.7924 H   0  0  0  0  0  0
  -31.2484  -20.4761   25.2494 H   0  0  0  0  0  0
  -31.0168  -19.9212   19.1978 H   0  0  0  0  0  0
  -31.4533  -18.2230   19.1784 H   0  0  0  0  0  0
  -32.0132  -19.2586   20.4884 H   0  0  0  0  0  0
  -26.3512  -20.9681   25.0661 H   0  0  0  0  0  0
  -26.0602  -22.3189   24.0013 H   0  0  0  0  0  0
  -28.0887  -21.9799   19.4229 H   0  0  0  0  0  0
  -29.8044  -21.7799   19.4859 H   0  0  0  0  0  0
  -30.0253  -24.0238   19.7331 H   0  0  0  0  0  0
  -29.5097  -23.8785   21.3608 H   0  0  0  0  0  0
  -29.3733  -17.1529   22.0978 H   0  0  0  0  0  0
  -31.0803  -17.0788   21.7141 H   0  0  0  0  0  0
  -27.1627  -24.6088   20.5907 H   0  0  0  0  0  0
  -27.7633  -24.6980   18.9606 H   0  0  0  0  0  0
  -31.5727  -18.6689   22.8681 H   0  0  0  0  0  0
  -29.0793  -18.6316   19.9406 H   0  0  0  0  0  0
  -28.8244  -15.6445   20.5501 H   0  0  0  0  0  0
  1 25  1  0  0  0
  1 30  2  0  0  0
  1 88  1  0  0  0
  2  3  1  0  0  0
  2 25  1  0  0  0
  2 89  1  0  0  0
  2 90  1  0  0  0
  3  4  1  0  0  0
  3 91  1  0  0  0
  3 92  1  0  0  0
  4  5  1  0  0  0
  4 93  1  0  0  0
  4 94  1  0  0  0
  5  6  1  0  0  0
  5 26  1  0  0  0
  5 95  1  0  0  0
  6 25  1  0  0  0
  6 96  1  0  0  0
  6 97  1  0  0  0
  7  8  2  0  0  0
  7 26  1  0  0  0
  7 29  1  0  0  0
  8  9  1  0  0  0
  8 22  1  0  0  0
  9 10  1  0  0  0
  9 27  2  0  0  0
 10 11  2  0  0  0
 10 15  1  0  0  0
 11 12  1  0  0  0
 11 98  1  0  0  0
 12 13  2  0  0  0
 12 99  1  0  0  0
 13 14  1  0  0  0
 13 31  1  0  0  0
 14 15  2  0  0  0
 14100  1  0  0  0
 15101  1  0  0  0
 16 17  2  0  0  0
 16 21  1  0  0  0
 16 31  1  0  0  0
 17 18  1  0  0  0
 17102  1  0  0  0
 18 19  2  0  0  0
 18103  1  0  0  0
 19 20  1  0  0  0
 19 24  1  0  0  0
 20 21  2  0  0  0
 20104  1  0  0  0
 21 23  1  0  0  0
 22 28  1  0  0  0
 22 32  2  0  0  0
 26 27  1  0  0  0
 28105  1  0  0  0
 28106  1  0  0  0
 29107  1  0  0  0
 29108  1  0  0  0
 33 34  1  0  0  0
 33 66  1  0  0  0
 33 70  2  0  0  0
 34 36  1  0  0  0
 34 59  1  0  0  0
 34109  1  0  0  0
 35 44  2  0  0  0
 35 45  1  0  0  0
 35 68  1  0  0  0
 36 56  1  0  0  0
 36110  1  0  0  0
 37 39  1  0  0  0
 37 47  1  0  0  0
 37 66  1  0  0  0
 37111  1  0  0  0
 38 43  2  0  0  0
 38 46  1  0  0  0
 38 47  1  0  0  0
 39 64  1  0  0  0
 39 67  2  0  0  0
 40 52  1  0  0  0
 40 53  2  0  0  0
 40 58  1  0  0  0
 41112  1  0  0  0
 41113  1  0  0  0
 41114  1  0  0  0
 41 48  1  0  0  0
 42 43  1  0  0  0
 42 66  1  0  0  0
 42115  1  0  0  0
 42116  1  0  0  0
 43 44  1  0  0  0
 44117  1  0  0  0
 45 46  2  0  0  0
 45118  1  0  0  0
 46119  1  0  0  0
 47120  1  0  0  0
 47121  1  0  0  0
 48 56  1  0  0  0
 48 65  1  0  0  0
 48122  1  0  0  0
 49 50  1  0  0  0
 49 53  1  0  0  0
 49 64  1  0  0  0
 49123  1  0  0  0
 50 51  1  0  0  0
 50124  1  0  0  0
 50125  1  0  0  0
 51 52  1  0  0  0
 51126  1  0  0  0
 51127  1  0  0  0
 52128  1  0  0  0
 52129  1  0  0  0
 53 54  1  0  0  0
 54 55  2  0  0  0
 54130  1  0  0  0
 55 57  1  0  0  0
 55131  1  0  0  0
 56 69  2  0  0  0
 57 58  2  0  0  0
 57132  1  0  0  0
 58133  1  0  0  0
 59 60  1  0  0  0
 59 61  1  0  0  0
 59 62  1  0  0  0
 60134  1  0  0  0
 60135  1  0  0  0
 60136  1  0  0  0
 61137  1  0  0  0
 61138  1  0  0  0
 61139  1  0  0  0
 62140  1  0  0  0
 62141  1  0  0  0
 62142  1  0  0  0
 63 65  1  0  0  0
 63143  1  0  0  0
 63144  1  0  0  0
 63145  1  0  0  0
 64146  1  0  0  0
 65147  1  0  0  0
 68 85  1  0  0  0
 71 73  2  0  0  0
 71 74  1  0  0  0
 71148  1  0  0  0
 72 73  1  0  0  0
 72 75  2  0  0  0
 72149  1  0  0  0
 73 81  1  0  0  0
 74 76  2  0  0  0
 74 82  1  0  0  0
 75 76  1  0  0  0
 75 86  1  0  0  0
 76 87  1  0  0  0
 77 81  1  0  0  0
 77150  1  0  0  0
 77151  1  0  0  0
 77152  1  0  0  0
 78153  1  0  0  0
 78154  1  0  0  0
 78155  1  0  0  0
 78 86  1  0  0  0
 79 86  1  0  0  0
 79156  1  0  0  0
 79157  1  0  0  0
 79158  1  0  0  0
 80159  1  0  0  0
 80160  1  0  0  0
 80161  1  0  0  0
 80 87  1  0  0  0
 81162  1  0  0  0
 81163  1  0  0  0
 82 83  1  0  0  0
 82164  1  0  0  0
 82165  1  0  0  0
 83 85  1  0  0  0
 83166  1  0  0  0
 83167  1  0  0  0
 84 87  1  0  0  0
 84 88  1  0  0  0
 84168  1  0  0  0
 84169  1  0  0  0
 85170  1  0  0  0
 85171  1  0  0  0
 86172  1  0  0  0
 87173  1  0  0  0
 88174  1  0  0  0
M  ISO  4   1 100  68 101  85 101  88 100
M  END
> <chiral flag>
0

> <version>
0

> <s_m_source_file>
/data/baiqing/PycharmProjects/Reinvent-master-3.2/result/LINK_invent/BTK/process_docking_weight1_custom_sum_contain_oxygen_bond_distance_aromatic_linkinvent_7_9_3/rearranged_h_0083.sdf

> <i_m_source_file_index>
30

> <r_mmod_Potential_Energy-OPLS-2005>
291.679870605469

> <r_mmod_Stretch_Energy-OPLS-2005>
145.895294189453

> <r_mmod_Bend_Energy-OPLS-2005>
207.669021606445

> <r_mmod_Torsional_Energy-OPLS-2005>
331.030395507812

> <r_mmod_Improper_Torsional_Energy-OPLS-2005>
7.18252372741699

> <r_mmod_Van_der_Waal_Energy-OPLS-2005>
143.953842163086

> <r_mmod_Electrostatic_Energy-OPLS-2005>
-439.417877197266

> <r_mmod_Solvation_Energy-OPLS-2005>
-198.102005004883

> <b_mmod_Minimization_Converged-OPLS-2005>
0

> <r_mmod_RMS_Derivative-OPLS-2005>
3.06010365486145

$$$$
30
                    3D
 Structure written by MMmdl.
157165  0  0  1  0            999 V2000
  -30.6229  -14.7539   20.4913 C   0  0  0  0  0  0
  -30.4497  -12.4886   19.4336 C   0  0  0  0  0  0
  -29.5024  -12.5021   18.2138 C   0  0  0  0  0  0
  -28.0352  -12.2887   18.6445 C   0  0  0  0  0  0
  -27.6436  -13.1810   19.8493 C   0  0  2  0  0  0
  -28.7091  -13.0641   20.9663 C   0  0  0  0  0  0
  -25.2531  -13.8049   20.5615 C   0  0  0  0  0  0
  -24.1786  -13.0374   20.9159 C   0  0  0  0  0  0
  -24.6346  -11.6844   20.8758 C   0  0  0  0  0  0
  -23.9015  -10.4258   21.0432 C   0  0  0  0  0  0
  -24.3585   -9.4172   21.9207 C   0  0  0  0  0  0
  -23.6262   -8.2217   22.0776 C   0  0  0  0  0  0
  -22.4245   -8.0267   21.3568 C   0  0  0  0  0  0
  -21.9869   -9.0239   20.4659 C   0  0  0  0  0  0
  -22.7199  -10.2111   20.3073 C   0  0  0  0  0  0
  -21.6844   -6.0720   22.5295 C   0  0  0  0  0  0
  -21.3989   -6.5622   23.8225 C   0  0  0  0  0  0
  -21.3644   -5.6785   24.9191 C   0  0  0  0  0  0
  -21.6048   -4.3051   24.7237 C   0  0  0  0  0  0
  -21.8823   -3.8135   23.4360 C   0  0  0  0  0  0
  -21.9184   -4.6946   22.3415 C   0  0  0  0  0  0
  -22.7831  -13.5231   21.1822 C   0  0  0  0  0  0
  -22.1661   -4.2132   21.0989 F   0  0  0  0  0  0
  -21.5635   -3.4530   25.7743 F   0  0  0  0  0  0
  -29.9755  -13.5295   20.3837 N   0  0  0  0  0  0
  -26.2938  -12.9169   20.3288 N   0  0  0  0  0  0
  -25.9264  -11.6371   20.5788 N   0  0  0  0  0  0
  -22.0460  -12.8261   22.0395 N   0  0  0  0  0  0
  -25.4205  -15.1750   20.3948 N   0  0  0  0  0  0
  -31.8232  -14.7865   20.2014 O   0  0  0  0  0  0
  -21.6634   -6.8853   21.4254 O   0  0  0  0  0  0
  -22.3542  -14.5552   20.6671 O   0  0  0  0  0  0
  -24.6276  -31.8578   23.2012 C   0  0  0  0  0  0
  -25.9120  -32.4763   23.8338 C   0  0  1  0  0  0
  -27.2407  -27.3110   20.1238 C   0  0  0  0  0  0
  -25.5929  -33.8566   24.2267 N   0  0  0  0  0  0
  -23.4229  -30.4791   21.5424 C   0  0  2  0  0  0
  -24.8755  -28.9331   20.1121 C   0  0  0  0  0  0
  -22.7482  -29.4608   22.4919 C   0  0  0  0  0  0
  -18.0287  -28.1390   22.8488 C   0  0  0  0  0  0
  -24.1489  -36.7291   23.2635 C   0  0  0  0  0  0
  -25.9640  -30.7881   21.3723 C   0  0  0  0  0  0
  -26.0429  -29.4122   20.7189 C   0  0  0  0  0  0
  -27.2254  -28.6123   20.7189 C   0  0  0  0  0  0
  -26.0503  -26.8949   19.4804 C   0  0  0  0  0  0
  -24.8819  -27.6792   19.4843 C   0  0  0  0  0  0
  -23.6408  -29.8104   20.1592 C   0  0  0  0  0  0
  -25.4106  -36.3068   24.0325 C   0  0  1  0  0  0
  -20.5891  -28.3688   23.1284 C   0  0  2  0  0  0
  -20.6773  -26.9409   22.5410 C   0  0  0  0  0  0
  -19.5744  -26.6391   21.5215 C   0  0  0  0  0  0
  -18.1928  -26.7932   22.1632 C   0  0  0  0  0  0
  -19.1537  -28.8855   23.2882 C   0  0  0  0  0  0
  -18.9463  -30.1460   23.8896 C   0  0  0  0  0  0
  -17.6463  -30.6591   24.0568 C   0  0  0  0  0  0
  -25.9048  -34.9437   23.5095 C   0  0  0  0  0  0
  -16.5353  -29.9094   23.6337 C   0  0  0  0  0  0
  -16.7271  -28.6510   23.0351 C   0  0  0  0  0  0
  -26.4510  -31.6580   25.0708 C   0  0  0  0  0  0
  -25.3756  -31.3733   26.1449 C   0  0  0  0  0  0
  -27.0362  -30.3001   24.6173 C   0  0  0  0  0  0
  -27.6059  -32.4325   25.7483 C   0  0  0  0  0  0
  -27.5579  -37.1780   24.8454 C   0  0  0  0  0  0
  -21.4187  -29.3042   22.3674 N   0  0  0  0  0  0
  -26.4271  -37.3772   23.9425 N   0  0  0  0  0  0
  -24.6900  -31.0585   22.0961 N   0  0  0  0  0  0
  -23.4196  -28.8148   23.3006 O   0  0  0  0  0  0
  -28.3594  -26.4568   20.1956 O   0  0  0  0  0  0
  -26.5616  -34.8913   22.4659 O   0  0  0  0  0  0
  -23.5433  -32.1369   23.7337 O   0  0  0  0  0  0
  -29.8584  -19.9030   20.1814 C   0  0  0  0  0  0
  -29.3471  -21.0953   20.8192 C   0  0  0  0  0  0
  -30.0921  -18.6975   20.9411 C   0  0  0  0  0  0
  -29.1034  -20.9373   22.2098 C   0  0  0  0  0  0
  -28.3969  -21.9873   23.0476 C   0  0  0  0  0  0
  -28.4932  -16.1761   20.8389 C   0  0  0  0  0  0
  -28.8986  -22.3842   20.0128 C   0  0  0  0  0  0
  -30.6141  -17.3217   20.3487 C   0  0  0  0  0  0
  -29.1935  -23.8987   20.4712 C   0  0  0  0  0  0
  -28.1733  -25.0059   19.9296 C   0  0  0  0  0  0
  -29.9167  -18.7230   22.2848 N   0  0  0  0  0  0
  -29.4202  -19.8062   22.8931 N   0  0  0  0  0  0
  -29.9424  -15.9773   20.6515 N   0  0  0  0  0  0
  -31.4755  -12.6553   19.0988 H   0  0  0  0  0  0
  -30.4632  -11.5048   19.9043 H   0  0  0  0  0  0
  -29.7982  -11.7331   17.4990 H   0  0  0  0  0  0
  -29.5933  -13.4565   17.6928 H   0  0  0  0  0  0
  -27.9213  -11.2376   18.9166 H   0  0  0  0  0  0
  -27.3618  -12.4594   17.8022 H   0  0  0  0  0  0
  -27.6364  -14.1843   19.4407 H   0  0  0  0  0  0
  -28.7913  -12.0176   21.2588 H   0  0  0  0  0  0
  -28.4593  -13.5608   21.9014 H   0  0  0  0  0  0
  -25.2742   -9.5639   22.4765 H   0  0  0  0  0  0
  -23.9961   -7.4604   22.7508 H   0  0  0  0  0  0
  -21.0795   -8.8760   19.8979 H   0  0  0  0  0  0
  -22.3677  -10.9649   19.6169 H   0  0  0  0  0  0
  -21.1977   -7.6135   23.9712 H   0  0  0  0  0  0
  -21.1464   -6.0525   25.9090 H   0  0  0  0  0  0
  -22.0613   -2.7598   23.2882 H   0  0  0  0  0  0
  -22.4040  -11.9886   22.4729 H   0  0  0  0  0  0
  -21.1120  -13.1374   22.2663 H   0  0  0  0  0  0
  -24.6629  -15.8376   20.5161 H   0  0  0  0  0  0
  -26.2861  -15.6100   20.1075 H   0  0  0  0  0  0
  -26.7185  -32.5447   23.1089 H   0  0  0  0  0  0
  -25.0076  -33.9705   25.0411 H   0  0  0  0  0  0
  -22.7174  -31.2992   21.3951 H   0  0  0  0  0  0
  -23.3747  -35.9628   23.3271 H   0  0  0  0  0  0
  -24.3584  -36.8939   22.2056 H   0  0  0  0  0  0
  -23.7249  -37.6485   23.6674 H   0  0  0  0  0  0
  -26.0906  -31.5497   20.6008 H   0  0  0  0  0  0
  -26.8453  -30.8440   21.9996 H   0  0  0  0  0  0
  -28.1156  -28.9755   21.2132 H   0  0  0  0  0  0
  -25.9910  -25.9426   18.9751 H   0  0  0  0  0  0
  -23.9900  -27.3046   19.0021 H   0  0  0  0  0  0
  -23.7574  -30.5845   19.3997 H   0  0  0  0  0  0
  -22.7633  -29.2346   19.8583 H   0  0  0  0  0  0
  -25.1286  -36.1895   25.0813 H   0  0  0  0  0  0
  -20.9980  -28.3261   24.1405 H   0  0  0  0  0  0
  -20.5689  -26.2289   23.3605 H   0  0  0  0  0  0
  -21.6639  -26.7446   22.1193 H   0  0  0  0  0  0
  -19.6905  -25.6306   21.1235 H   0  0  0  0  0  0
  -19.6683  -27.3212   20.6754 H   0  0  0  0  0  0
  -17.4194  -26.6676   21.4040 H   0  0  0  0  0  0
  -18.0328  -26.0080   22.9033 H   0  0  0  0  0  0
  -19.7939  -30.7282   24.2259 H   0  0  0  0  0  0
  -17.5018  -31.6270   24.5173 H   0  0  0  0  0  0
  -15.5353  -30.2993   23.7671 H   0  0  0  0  0  0
  -15.8669  -28.0841   22.7058 H   0  0  0  0  0  0
  -24.5915  -30.7090   25.7800 H   0  0  0  0  0  0
  -24.8975  -32.2913   26.4875 H   0  0  0  0  0  0
  -25.8097  -30.8917   27.0223 H   0  0  0  0  0  0
  -26.2942  -29.6729   24.1219 H   0  0  0  0  0  0
  -27.4084  -29.7274   25.4680 H   0  0  0  0  0  0
  -27.8795  -30.4282   23.9384 H   0  0  0  0  0  0
  -27.2648  -33.3614   26.2067 H   0  0  0  0  0  0
  -28.3869  -32.6909   25.0318 H   0  0  0  0  0  0
  -28.0732  -31.8455   26.5403 H   0  0  0  0  0  0
  -28.2559  -38.0116   24.7548 H   0  0  0  0  0  0
  -28.1111  -36.2646   24.6207 H   0  0  0  0  0  0
  -27.2304  -37.1338   25.8857 H   0  0  0  0  0  0
  -20.9360  -29.8761   21.6885 H   0  0  0  0  0  0
  -26.0143  -38.2831   24.1476 H   0  0  0  0  0  0
  -30.0343  -19.8994   19.1158 H   0  0  0  0  0  0
  -29.1055  -22.7248   23.4210 H   0  0  0  0  0  0
  -27.9109  -21.5333   23.9128 H   0  0  0  0  0  0
  -27.6190  -22.4927   22.4767 H   0  0  0  0  0  0
  -27.9955  -15.4502   21.4621 H   0  0  0  0  0  0
  -28.0036  -16.2393   19.8691 H   0  0  0  0  0  0
  -28.2290  -17.0963   21.3465 H   0  0  0  0  0  0
  -27.8175  -22.2833   19.9158 H   0  0  0  0  0  0
  -29.2778  -22.2765   18.9961 H   0  0  0  0  0  0
  -31.6586  -17.2609   20.6567 H   0  0  0  0  0  0
  -30.6494  -17.4224   19.2638 H   0  0  0  0  0  0
  -30.2095  -24.1604   20.1741 H   0  0  0  0  0  0
  -29.1919  -23.9825   21.5538 H   0  0  0  0  0  0
  -27.2054  -24.7081   20.3360 H   0  0  0  0  0  0
  -28.0993  -24.8897   18.8477 H   0  0  0  0  0  0
  1 25  1  0  0  0
  1 30  2  0  0  0
  1 83  1  0  0  0
  2  3  1  0  0  0
  2 25  1  0  0  0
  2 84  1  0  0  0
  2 85  1  0  0  0
  3  4  1  0  0  0
  3 86  1  0  0  0
  3 87  1  0  0  0
  4  5  1  0  0  0
  4 88  1  0  0  0
  4 89  1  0  0  0
  5  6  1  0  0  0
  5 26  1  0  0  0
  5 90  1  0  0  0
  6 25  1  0  0  0
  6 91  1  0  0  0
  6 92  1  0  0  0
  7  8  2  0  0  0
  7 26  1  0  0  0
  7 29  1  0  0  0
  8  9  1  0  0  0
  8 22  1  0  0  0
  9 10  1  0  0  0
  9 27  2  0  0  0
 10 11  2  0  0  0
 10 15  1  0  0  0
 11 12  1  0  0  0
 11 93  1  0  0  0
 12 13  2  0  0  0
 12 94  1  0  0  0
 13 14  1  0  0  0
 13 31  1  0  0  0
 14 15  2  0  0  0
 14 95  1  0  0  0
 15 96  1  0  0  0
 16 17  2  0  0  0
 16 21  1  0  0  0
 16 31  1  0  0  0
 17 18  1  0  0  0
 17 97  1  0  0  0
 18 19  2  0  0  0
 18 98  1  0  0  0
 19 20  1  0  0  0
 19 24  1  0  0  0
 20 21  2  0  0  0
 20 99  1  0  0  0
 21 23  1  0  0  0
 22 28  1  0  0  0
 22 32  2  0  0  0
 26 27  1  0  0  0
 28100  1  0  0  0
 28101  1  0  0  0
 29102  1  0  0  0
 29103  1  0  0  0
 33 34  1  0  0  0
 33 66  1  0  0  0
 33 70  2  0  0  0
 34 36  1  0  0  0
 34 59  1  0  0  0
 34104  1  0  0  0
 35 44  2  0  0  0
 35 45  1  0  0  0
 35 68  1  0  0  0
 36 56  1  0  0  0
 36105  1  0  0  0
 37 39  1  0  0  0
 37 47  1  0  0  0
 37 66  1  0  0  0
 37106  1  0  0  0
 38 43  2  0  0  0
 38 46  1  0  0  0
 38 47  1  0  0  0
 39 64  1  0  0  0
 39 67  2  0  0  0
 40 52  1  0  0  0
 40 53  2  0  0  0
 40 58  1  0  0  0
 41107  1  0  0  0
 41108  1  0  0  0
 41109  1  0  0  0
 41 48  1  0  0  0
 42 43  1  0  0  0
 42 66  1  0  0  0
 42110  1  0  0  0
 42111  1  0  0  0
 43 44  1  0  0  0
 44112  1  0  0  0
 45 46  2  0  0  0
 45113  1  0  0  0
 46114  1  0  0  0
 47115  1  0  0  0
 47116  1  0  0  0
 48 56  1  0  0  0
 48 65  1  0  0  0
 48117  1  0  0  0
 49 50  1  0  0  0
 49 53  1  0  0  0
 49 64  1  0  0  0
 49118  1  0  0  0
 50 51  1  0  0  0
 50119  1  0  0  0
 50120  1  0  0  0
 51 52  1  0  0  0
 51121  1  0  0  0
 51122  1  0  0  0
 52123  1  0  0  0
 52124  1  0  0  0
 53 54  1  0  0  0
 54 55  2  0  0  0
 54125  1  0  0  0
 55 57  1  0  0  0
 55126  1  0  0  0
 56 69  2  0  0  0
 57 58  2  0  0  0
 57127  1  0  0  0
 58128  1  0  0  0
 59 60  1  0  0  0
 59 61  1  0  0  0
 59 62  1  0  0  0
 60129  1  0  0  0
 60130  1  0  0  0
 60131  1  0  0  0
 61132  1  0  0  0
 61133  1  0  0  0
 61134  1  0  0  0
 62135  1  0  0  0
 62136  1  0  0  0
 62137  1  0  0  0
 63 65  1  0  0  0
 63138  1  0  0  0
 63139  1  0  0  0
 63140  1  0  0  0
 64141  1  0  0  0
 65142  1  0  0  0
 68 80  1  0  0  0
 71 72  2  0  0  0
 71 73  1  0  0  0
 71143  1  0  0  0
 72 74  1  0  0  0
 72 77  1  0  0  0
 73 78  1  0  0  0
 73 81  2  0  0  0
 74 75  1  0  0  0
 74 82  2  0  0  0
 75144  1  0  0  0
 75145  1  0  0  0
 75146  1  0  0  0
 76 83  1  0  0  0
 76147  1  0  0  0
 76148  1  0  0  0
 76149  1  0  0  0
 77 79  1  0  0  0
 77150  1  0  0  0
 77151  1  0  0  0
 78 83  1  0  0  0
 78152  1  0  0  0
 78153  1  0  0  0
 79 80  1  0  0  0
 79154  1  0  0  0
 79155  1  0  0  0
 80156  1  0  0  0
 80157  1  0  0  0
 81 82  1  0  0  0
M  ISO  4   1 100  68 101  80 101  83 100
M  END
> <chiral flag>
0

> <version>
0

> <s_m_source_file>
/data/baiqing/PycharmProjects/Reinvent-master-3.2/result/LINK_invent/BTK/process_docking_weight1_custom_sum_contain_oxygen_bond_distance_aromatic_linkinvent_7_9_3/rearranged_h_0083.sdf

> <i_m_source_file_index>
31

> <r_mmod_Potential_Energy-OPLS-2005>
230.94596862793

> <r_mmod_Stretch_Energy-OPLS-2005>
112.098342895508

> <r_mmod_Bend_Energy-OPLS-2005>
188.4853515625

> <r_mmod_Torsional_Energy-OPLS-2005>
246.133087158203

> <r_mmod_Improper_Torsional_Energy-OPLS-2005>
7.30406093597412

> <r_mmod_Van_der_Waal_Energy-OPLS-2005>
171.650512695312

> <r_mmod_Electrostatic_Energy-OPLS-2005>
-339.765716552734

> <r_mmod_Solvation_Energy-OPLS-2005>
-227.399307250977

> <b_mmod_Minimization_Converged-OPLS-2005>
0

> <r_mmod_RMS_Derivative-OPLS-2005>
2.68300557136536

$$$$
31
                    3D
 Structure written by MMmdl.
163171  0  0  1  0            999 V2000
  -30.6113  -14.7447   20.4615 C   0  0  0  0  0  0
  -30.4328  -12.4585   19.4622 C   0  0  0  0  0  0
  -29.5055  -12.5049   18.2280 C   0  0  0  0  0  0
  -28.0323  -12.3299   18.6464 C   0  0  0  0  0  0
  -27.6400  -13.2311   19.8479 C   0  0  2  0  0  0
  -28.6880  -13.1660   20.9790 C   0  0  0  0  0  0
  -25.2507  -13.8196   20.5698 C   0  0  0  0  0  0
  -24.1800  -13.0437   20.9209 C   0  0  0  0  0  0
  -24.6391  -11.6914   20.8749 C   0  0  0  0  0  0
  -23.9067  -10.4292   21.0406 C   0  0  0  0  0  0
  -24.3624   -9.4207   21.9186 C   0  0  0  0  0  0
  -23.6297   -8.2240   22.0752 C   0  0  0  0  0  0
  -22.4277   -8.0276   21.3545 C   0  0  0  0  0  0
  -21.9914   -9.0250   20.4646 C   0  0  0  0  0  0
  -22.7240  -10.2131   20.3056 C   0  0  0  0  0  0
  -21.6852   -6.0737   22.5276 C   0  0  0  0  0  0
  -21.4011   -6.5641   23.8211 C   0  0  0  0  0  0
  -21.3660   -5.6794   24.9172 C   0  0  0  0  0  0
  -21.6043   -4.3058   24.7224 C   0  0  0  0  0  0
  -21.8820   -3.8149   23.4346 C   0  0  0  0  0  0
  -21.9193   -4.6964   22.3400 C   0  0  0  0  0  0
  -22.7820  -13.5214   21.1870 C   0  0  0  0  0  0
  -22.1663   -4.2151   21.0980 F   0  0  0  0  0  0
  -21.5629   -3.4543   25.7739 F   0  0  0  0  0  0
  -29.9842  -13.5220   20.3896 N   0  0  0  0  0  0
  -26.2934  -12.9400   20.3290 N   0  0  0  0  0  0
  -25.9325  -11.6544   20.5761 N   0  0  0  0  0  0
  -22.0475  -12.8194   22.0429 N   0  0  0  0  0  0
  -25.4189  -15.1918   20.4119 N   0  0  0  0  0  0
  -31.8077  -14.8377   20.1748 O   0  0  0  0  0  0
  -21.6640   -6.8878   21.4239 O   0  0  0  0  0  0
  -22.3495  -14.5518   20.6722 O   0  0  0  0  0  0
  -24.6312  -31.8535   23.1978 C   0  0  0  0  0  0
  -25.9141  -32.4746   23.8317 C   0  0  1  0  0  0
  -27.2167  -27.2579   20.1189 C   0  0  0  0  0  0
  -25.5937  -33.8548   24.2238 N   0  0  0  0  0  0
  -23.4269  -30.4780   21.5409 C   0  0  2  0  0  0
  -24.8736  -28.9265   20.1047 C   0  0  0  0  0  0
  -22.7497  -29.4594   22.4899 C   0  0  0  0  0  0
  -18.0286  -28.1381   22.8464 C   0  0  0  0  0  0
  -24.1492  -36.7283   23.2640 C   0  0  0  0  0  0
  -25.9730  -30.7645   21.3781 C   0  0  0  0  0  0
  -26.0445  -29.3874   20.7184 C   0  0  0  0  0  0
  -27.2173  -28.5641   20.7181 C   0  0  0  0  0  0
  -26.0252  -26.8741   19.4626 C   0  0  0  0  0  0
  -24.8699  -27.6786   19.4650 C   0  0  0  0  0  0
  -23.6440  -29.8135   20.1560 C   0  0  0  0  0  0
  -25.4119  -36.3062   24.0322 C   0  0  1  0  0  0
  -20.5890  -28.3696   23.1260 C   0  0  2  0  0  0
  -20.6779  -26.9409   22.5409 C   0  0  0  0  0  0
  -19.5769  -26.6373   21.5204 C   0  0  0  0  0  0
  -18.1940  -26.7921   22.1601 C   0  0  0  0  0  0
  -19.1540  -28.8853   23.2859 C   0  0  0  0  0  0
  -18.9469  -30.1448   23.8892 C   0  0  0  0  0  0
  -17.6472  -30.6586   24.0553 C   0  0  0  0  0  0
  -25.9061  -34.9435   23.5082 C   0  0  0  0  0  0
  -16.5362  -29.9083   23.6333 C   0  0  0  0  0  0
  -16.7273  -28.6499   23.0351 C   0  0  0  0  0  0
  -26.4506  -31.6575   25.0715 C   0  0  0  0  0  0
  -25.3728  -31.3743   26.1441 C   0  0  0  0  0  0
  -27.0316  -30.2976   24.6205 C   0  0  0  0  0  0
  -27.6084  -32.4299   25.7467 C   0  0  0  0  0  0
  -27.5580  -37.1795   24.8462 C   0  0  0  0  0  0
  -21.4203  -29.3043   22.3655 N   0  0  0  0  0  0
  -26.4284  -37.3765   23.9413 N   0  0  0  0  0  0
  -24.6963  -31.0500   22.0955 N   0  0  0  0  0  0
  -23.4194  -28.8126   23.2998 O   0  0  0  0  0  0
  -28.3078  -26.3563   20.1912 O   0  0  0  0  0  0
  -26.5634  -34.8918   22.4652 O   0  0  0  0  0  0
  -23.5469  -32.1359   23.7281 O   0  0  0  0  0  0
  -27.4252  -21.5867   21.7522 C   0  0  0  0  0  0
  -28.4553  -21.0822   20.9269 C   0  0  0  0  0  0
  -26.6771  -20.7164   22.5588 C   0  0  0  0  0  0
  -28.6671  -19.6183   21.0115 C   0  0  0  0  0  0
  -25.5826  -20.9283   24.8513 C   0  0  0  0  0  0
  -24.1574  -20.7319   22.7419 C   0  0  0  0  0  0
  -29.1128  -22.1906   20.0118 C   0  0  0  0  0  0
  -29.5501  -18.6213   20.1547 C   0  0  0  0  0  0
  -29.1346  -23.7665   20.4661 C   0  0  0  0  0  0
  -30.2822  -17.3417   20.8628 C   0  0  0  0  0  0
  -28.0904  -24.8846   19.9373 C   0  0  0  0  0  0
  -25.4782  -21.2304   23.3490 C   0  0  0  0  0  0
  -26.9276  -19.3915   22.6012 N   0  0  0  0  0  0
  -27.8931  -18.8716   21.8436 N   0  0  0  0  0  0
  -29.8420  -15.8832   20.6655 N   0  0  0  0  0  0
  -31.4724  -12.5870   19.1560 H   0  0  0  0  0  0
  -30.3825  -11.4827   19.9477 H   0  0  0  0  0  0
  -29.7847  -11.7292   17.5138 H   0  0  0  0  0  0
  -29.6284  -13.4574   17.7093 H   0  0  0  0  0  0
  -27.8880  -11.2814   18.9102 H   0  0  0  0  0  0
  -27.3721  -12.5210   17.7998 H   0  0  0  0  0  0
  -27.6320  -14.2523   19.4658 H   0  0  0  0  0  0
  -28.7277  -12.1668   21.4154 H   0  0  0  0  0  0
  -28.4266  -13.8453   21.7922 H   0  0  0  0  0  0
  -25.2764   -9.5684   22.4767 H   0  0  0  0  0  0
  -24.0005   -7.4630   22.7472 H   0  0  0  0  0  0
  -21.0846   -8.8771   19.8951 H   0  0  0  0  0  0
  -22.3697  -10.9676   19.6171 H   0  0  0  0  0  0
  -21.2002   -7.6150   23.9714 H   0  0  0  0  0  0
  -21.1481   -6.0526   25.9076 H   0  0  0  0  0  0
  -22.0600   -2.7612   23.2845 H   0  0  0  0  0  0
  -22.4097  -11.9854   22.4809 H   0  0  0  0  0  0
  -21.1093  -13.1216   22.2652 H   0  0  0  0  0  0
  -24.6552  -15.8471   20.5380 H   0  0  0  0  0  0
  -26.2712  -15.6392   20.0999 H   0  0  0  0  0  0
  -26.7195  -32.5390   23.1047 H   0  0  0  0  0  0
  -25.0101  -33.9697   25.0394 H   0  0  0  0  0  0
  -22.7230  -31.3003   21.3954 H   0  0  0  0  0  0
  -23.3765  -35.9604   23.3271 H   0  0  0  0  0  0
  -24.3581  -36.8946   22.2061 H   0  0  0  0  0  0
  -23.7240  -37.6472   23.6686 H   0  0  0  0  0  0
  -26.1103  -31.5249   20.6080 H   0  0  0  0  0  0
  -26.8516  -30.8128   22.0092 H   0  0  0  0  0  0
  -28.1102  -28.9067   21.2215 H   0  0  0  0  0  0
  -25.9554  -25.9283   18.9470 H   0  0  0  0  0  0
  -23.9776  -27.3242   18.9679 H   0  0  0  0  0  0
  -23.7641  -30.5910   19.4008 H   0  0  0  0  0  0
  -22.7610  -29.2484   19.8520 H   0  0  0  0  0  0
  -25.1299  -36.1897   25.0813 H   0  0  0  0  0  0
  -20.9975  -28.3279   24.1382 H   0  0  0  0  0  0
  -20.5671  -26.2306   23.3617 H   0  0  0  0  0  0
  -21.6652  -26.7428   22.1216 H   0  0  0  0  0  0
  -19.6949  -25.6280   21.1245 H   0  0  0  0  0  0
  -19.6727  -27.3174   20.6728 H   0  0  0  0  0  0
  -17.4216  -26.6660   21.4000 H   0  0  0  0  0  0
  -18.0341  -26.0061   22.8995 H   0  0  0  0  0  0
  -19.7949  -30.7250   24.2273 H   0  0  0  0  0  0
  -17.5030  -31.6273   24.5144 H   0  0  0  0  0  0
  -15.5365  -30.2984   23.7667 H   0  0  0  0  0  0
  -15.8664  -28.0817   22.7079 H   0  0  0  0  0  0
  -24.5926  -30.7054   25.7787 H   0  0  0  0  0  0
  -24.8891  -32.2909   26.4821 H   0  0  0  0  0  0
  -25.8047  -30.8968   27.0244 H   0  0  0  0  0  0
  -26.2869  -29.6737   24.1247 H   0  0  0  0  0  0
  -27.3992  -29.7242   25.4726 H   0  0  0  0  0  0
  -27.8755  -30.4222   23.9418 H   0  0  0  0  0  0
  -27.2752  -33.3672   26.1929 H   0  0  0  0  0  0
  -28.3944  -32.6726   25.0305 H   0  0  0  0  0  0
  -28.0662  -31.8468   26.5470 H   0  0  0  0  0  0
  -28.2589  -38.0099   24.7502 H   0  0  0  0  0  0
  -28.1081  -36.2630   24.6274 H   0  0  0  0  0  0
  -27.2299  -37.1424   25.8867 H   0  0  0  0  0  0
  -20.9389  -29.8767   21.6859 H   0  0  0  0  0  0
  -26.0161  -38.2835   24.1433 H   0  0  0  0  0  0
  -27.1585  -22.6323   21.7355 H   0  0  0  0  0  0
  -26.5090  -21.3260   25.2655 H   0  0  0  0  0  0
  -25.5614  -19.8557   25.0450 H   0  0  0  0  0  0
  -24.7551  -21.3826   25.3972 H   0  0  0  0  0  0
  -24.0767  -21.0272   21.6952 H   0  0  0  0  0  0
  -23.2973  -21.1452   23.2685 H   0  0  0  0  0  0
  -24.0856  -19.6446   22.7834 H   0  0  0  0  0  0
  -28.6629  -22.1184   19.0216 H   0  0  0  0  0  0
  -30.1480  -21.8752   19.8751 H   0  0  0  0  0  0
  -30.3240  -19.2358   19.6949 H   0  0  0  0  0  0
  -28.9438  -18.2690   19.3207 H   0  0  0  0  0  0
  -30.1024  -24.1350   20.1257 H   0  0  0  0  0  0
  -29.2070  -23.8259   21.5525 H   0  0  0  0  0  0
  -30.3389  -17.5257   21.9361 H   0  0  0  0  0  0
  -31.3223  -17.3809   20.5373 H   0  0  0  0  0  0
  -27.1187  -24.6039   20.3441 H   0  0  0  0  0  0
  -28.0053  -24.7662   18.8564 H   0  0  0  0  0  0
  -25.4735  -22.3169   23.2548 H   0  0  0  0  0  0
  -28.8583  -15.7078   20.8066 H   0  0  0  0  0  0
  1 25  1  0  0  0
  1 30  2  0  0  0
  1 85  1  0  0  0
  2  3  1  0  0  0
  2 25  1  0  0  0
  2 86  1  0  0  0
  2 87  1  0  0  0
  3  4  1  0  0  0
  3 88  1  0  0  0
  3 89  1  0  0  0
  4  5  1  0  0  0
  4 90  1  0  0  0
  4 91  1  0  0  0
  5  6  1  0  0  0
  5 26  1  0  0  0
  5 92  1  0  0  0
  6 25  1  0  0  0
  6 93  1  0  0  0
  6 94  1  0  0  0
  7  8  2  0  0  0
  7 26  1  0  0  0
  7 29  1  0  0  0
  8  9  1  0  0  0
  8 22  1  0  0  0
  9 10  1  0  0  0
  9 27  2  0  0  0
 10 11  2  0  0  0
 10 15  1  0  0  0
 11 12  1  0  0  0
 11 95  1  0  0  0
 12 13  2  0  0  0
 12 96  1  0  0  0
 13 14  1  0  0  0
 13 31  1  0  0  0
 14 15  2  0  0  0
 14 97  1  0  0  0
 15 98  1  0  0  0
 16 17  2  0  0  0
 16 21  1  0  0  0
 16 31  1  0  0  0
 17 18  1  0  0  0
 17 99  1  0  0  0
 18 19  2  0  0  0
 18100  1  0  0  0
 19 20  1  0  0  0
 19 24  1  0  0  0
 20 21  2  0  0  0
 20101  1  0  0  0
 21 23  1  0  0  0
 22 28  1  0  0  0
 22 32  2  0  0  0
 26 27  1  0  0  0
 28102  1  0  0  0
 28103  1  0  0  0
 29104  1  0  0  0
 29105  1  0  0  0
 33 34  1  0  0  0
 33 66  1  0  0  0
 33 70  2  0  0  0
 34 36  1  0  0  0
 34 59  1  0  0  0
 34106  1  0  0  0
 35 44  2  0  0  0
 35 45  1  0  0  0
 35 68  1  0  0  0
 36 56  1  0  0  0
 36107  1  0  0  0
 37 39  1  0  0  0
 37 47  1  0  0  0
 37 66  1  0  0  0
 37108  1  0  0  0
 38 43  2  0  0  0
 38 46  1  0  0  0
 38 47  1  0  0  0
 39 64  1  0  0  0
 39 67  2  0  0  0
 40 52  1  0  0  0
 40 53  2  0  0  0
 40 58  1  0  0  0
 41109  1  0  0  0
 41110  1  0  0  0
 41111  1  0  0  0
 41 48  1  0  0  0
 42 43  1  0  0  0
 42 66  1  0  0  0
 42112  1  0  0  0
 42113  1  0  0  0
 43 44  1  0  0  0
 44114  1  0  0  0
 45 46  2  0  0  0
 45115  1  0  0  0
 46116  1  0  0  0
 47117  1  0  0  0
 47118  1  0  0  0
 48 56  1  0  0  0
 48 65  1  0  0  0
 48119  1  0  0  0
 49 50  1  0  0  0
 49 53  1  0  0  0
 49 64  1  0  0  0
 49120  1  0  0  0
 50 51  1  0  0  0
 50121  1  0  0  0
 50122  1  0  0  0
 51 52  1  0  0  0
 51123  1  0  0  0
 51124  1  0  0  0
 52125  1  0  0  0
 52126  1  0  0  0
 53 54  1  0  0  0
 54 55  2  0  0  0
 54127  1  0  0  0
 55 57  1  0  0  0
 55128  1  0  0  0
 56 69  2  0  0  0
 57 58  2  0  0  0
 57129  1  0  0  0
 58130  1  0  0  0
 59 60  1  0  0  0
 59 61  1  0  0  0
 59 62  1  0  0  0
 60131  1  0  0  0
 60132  1  0  0  0
 60133  1  0  0  0
 61134  1  0  0  0
 61135  1  0  0  0
 61136  1  0  0  0
 62137  1  0  0  0
 62138  1  0  0  0
 62139  1  0  0  0
 63 65  1  0  0  0
 63140  1  0  0  0
 63141  1  0  0  0
 63142  1  0  0  0
 64143  1  0  0  0
 65144  1  0  0  0
 68 81  1  0  0  0
 71 72  2  0  0  0
 71 73  1  0  0  0
 71145  1  0  0  0
 72 74  1  0  0  0
 72 77  1  0  0  0
 73 82  1  0  0  0
 73 83  2  0  0  0
 74 78  1  0  0  0
 74 84  2  0  0  0
 75146  1  0  0  0
 75147  1  0  0  0
 75148  1  0  0  0
 75 82  1  0  0  0
 76 82  1  0  0  0
 76149  1  0  0  0
 76150  1  0  0  0
 76151  1  0  0  0
 77 79  1  0  0  0
 77152  1  0  0  0
 77153  1  0  0  0
 78 80  1  0  0  0
 78154  1  0  0  0
 78155  1  0  0  0
 79 81  1  0  0  0
 79156  1  0  0  0
 79157  1  0  0  0
 80 85  1  0  0  0
 80158  1  0  0  0
 80159  1  0  0  0
 81160  1  0  0  0
 81161  1  0  0  0
 82162  1  0  0  0
 83 84  1  0  0  0
 85163  1  0  0  0
M  ISO  4   1 100  68 101  81 101  85 100
M  END
> <chiral flag>
0

> <version>
0

> <s_m_source_file>
/data/baiqing/PycharmProjects/Reinvent-master-3.2/result/LINK_invent/BTK/process_docking_weight1_custom_sum_contain_oxygen_bond_distance_aromatic_linkinvent_7_9_3/rearranged_h_0083.sdf

> <i_m_source_file_index>
32

> <r_mmod_Potential_Energy-OPLS-2005>
217.277725219727

> <r_mmod_Stretch_Energy-OPLS-2005>
137.574737548828

> <r_mmod_Bend_Energy-OPLS-2005>
210.651748657227

> <r_mmod_Torsional_Energy-OPLS-2005>
215.433135986328

> <r_mmod_Improper_Torsional_Energy-OPLS-2005>
5.00478458404541

> <r_mmod_Van_der_Waal_Energy-OPLS-2005>
140.025619506836

> <r_mmod_Electrostatic_Energy-OPLS-2005>
-356.765014648438

> <r_mmod_Solvation_Energy-OPLS-2005>
-222.861083984375

> <b_mmod_Minimization_Converged-OPLS-2005>
0

> <r_mmod_RMS_Derivative-OPLS-2005>
1.46448469161987

$$$$
32
                    3D
 Structure written by MMmdl.
163171  0  0  1  0            999 V2000
  -30.4754  -14.8966   20.4424 C   0  0  0  0  0  0
  -30.4401  -12.5636   19.4763 C   0  0  0  0  0  0
  -29.5148  -12.5955   18.2349 C   0  0  0  0  0  0
  -28.0380  -12.3800   18.6290 C   0  0  0  0  0  0
  -27.6267  -13.2436   19.8499 C   0  0  2  0  0  0
  -28.6700  -13.2014   20.9847 C   0  0  0  0  0  0
  -25.2416  -13.8195   20.5684 C   0  0  0  0  0  0
  -24.1784  -13.0415   20.9215 C   0  0  0  0  0  0
  -24.6423  -11.6885   20.8801 C   0  0  0  0  0  0
  -23.9130  -10.4274   21.0472 C   0  0  0  0  0  0
  -24.3693   -9.4151   21.9221 C   0  0  0  0  0  0
  -23.6336   -8.2193   22.0768 C   0  0  0  0  0  0
  -22.4297   -8.0285   21.3577 C   0  0  0  0  0  0
  -21.9975   -9.0268   20.4671 C   0  0  0  0  0  0
  -22.7317  -10.2133   20.3088 C   0  0  0  0  0  0
  -21.6866   -6.0764   22.5297 C   0  0  0  0  0  0
  -21.3996   -6.5672   23.8225 C   0  0  0  0  0  0
  -21.3636   -5.6821   24.9192 C   0  0  0  0  0  0
  -21.6036   -4.3084   24.7244 C   0  0  0  0  0  0
  -21.8796   -3.8181   23.4361 C   0  0  0  0  0  0
  -21.9185   -4.6993   22.3421 C   0  0  0  0  0  0
  -22.7765  -13.5165   21.1875 C   0  0  0  0  0  0
  -22.1645   -4.2174   21.0992 F   0  0  0  0  0  0
  -21.5665   -3.4566   25.7762 F   0  0  0  0  0  0
  -29.9527  -13.6152   20.4005 N   0  0  0  0  0  0
  -26.2847  -12.9435   20.3285 N   0  0  0  0  0  0
  -25.9359  -11.6547   20.5765 N   0  0  0  0  0  0
  -22.0468  -12.8189   22.0465 N   0  0  0  0  0  0
  -25.3987  -15.1936   20.4114 N   0  0  0  0  0  0
  -31.6829  -15.0580   20.2265 O   0  0  0  0  0  0
  -21.6644   -6.8889   21.4257 O   0  0  0  0  0  0
  -22.3407  -14.5463   20.6709 O   0  0  0  0  0  0
  -24.6459  -31.8465   23.1972 C   0  0  0  0  0  0
  -25.9238  -32.4767   23.8321 C   0  0  1  0  0  0
  -27.2016  -27.1415   20.1165 C   0  0  0  0  0  0
  -25.5899  -33.8568   24.2223 N   0  0  0  0  0  0
  -23.4461  -30.4701   21.5533 C   0  0  2  0  0  0
  -24.8824  -28.9062   20.1240 C   0  0  0  0  0  0
  -22.7576  -29.4542   22.4967 C   0  0  0  0  0  0
  -18.0324  -28.1391   22.8527 C   0  0  0  0  0  0
  -24.1480  -36.7271   23.2639 C   0  0  0  0  0  0
  -26.0058  -30.7143   21.3973 C   0  0  0  0  0  0
  -26.0717  -29.3334   20.7259 C   0  0  0  0  0  0
  -27.2330  -28.4707   20.7076 C   0  0  0  0  0  0
  -25.9701  -26.8236   19.4856 C   0  0  0  0  0  0
  -24.8425  -27.6646   19.4892 C   0  0  0  0  0  0
  -23.6655  -29.8133   20.1720 C   0  0  0  0  0  0
  -25.4123  -36.3127   24.0337 C   0  0  1  0  0  0
  -20.5914  -28.3714   23.1302 C   0  0  2  0  0  0
  -20.6801  -26.9414   22.5435 C   0  0  0  0  0  0
  -19.5755  -26.6370   21.5269 C   0  0  0  0  0  0
  -18.1949  -26.7944   22.1668 C   0  0  0  0  0  0
  -19.1573  -28.8887   23.2893 C   0  0  0  0  0  0
  -18.9457  -30.1492   23.8900 C   0  0  0  0  0  0
  -17.6429  -30.6586   24.0567 C   0  0  0  0  0  0
  -25.9076  -34.9469   23.5126 C   0  0  0  0  0  0
  -16.5339  -29.9061   23.6315 C   0  0  0  0  0  0
  -16.7300  -28.6479   23.0377 C   0  0  0  0  0  0
  -26.4479  -31.6675   25.0807 C   0  0  0  0  0  0
  -25.3591  -31.3915   26.1471 C   0  0  0  0  0  0
  -27.0314  -30.3064   24.6446 C   0  0  0  0  0  0
  -27.6000  -32.4423   25.7585 C   0  0  0  0  0  0
  -27.5588  -37.1828   24.8455 C   0  0  0  0  0  0
  -21.4266  -29.3036   22.3704 N   0  0  0  0  0  0
  -26.4320  -37.3801   23.9433 N   0  0  0  0  0  0
  -24.7208  -31.0322   22.1024 N   0  0  0  0  0  0
  -23.4230  -28.8058   23.3086 O   0  0  0  0  0  0
  -28.2347  -26.1282   20.1626 O   0  0  0  0  0  0
  -26.5657  -34.8944   22.4709 O   0  0  0  0  0  0
  -23.5580  -32.1270   23.7233 O   0  0  0  0  0  0
  -29.8890  -21.4912   20.9170 C   0  0  0  0  0  0
  -28.5592  -23.1980   19.8356 C   0  0  0  0  0  0
  -29.3904  -20.3679   20.1323 C   0  0  0  0  0  0
  -28.1096  -22.0876   19.0072 C   0  0  0  0  0  0
  -30.9841  -21.3169   21.9478 C   0  0  0  0  0  0
  -25.6444  -22.1847   18.3912 C   0  0  0  0  0  0
  -27.3230  -21.3882   16.6447 C   0  0  0  0  0  0
  -31.4648  -18.7127   20.2151 C   0  0  0  0  0  0
  -27.8256  -24.6876   19.7627 C   0  0  0  0  0  0
  -29.3269  -17.4927   20.8103 C   0  0  0  0  0  0
  -27.0846  -22.2859   17.8772 C   0  0  0  0  0  0
  -29.9502  -18.8054   20.0221 C   0  0  1  0  0  0
  -29.4657  -22.8215   20.8009 N   0  0  0  0  0  0
  -28.4721  -20.7567   19.1943 N   0  0  0  0  0  0
  -29.5401  -15.9506   20.5233 N   0  0  0  0  0  0
  -31.4761  -12.7450   19.1815 H   0  0  0  0  0  0
  -30.4191  -11.5890   19.9604 H   0  0  0  0  0  0
  -29.8226  -11.8660   17.4854 H   0  0  0  0  0  0
  -29.6075  -13.5705   17.7537 H   0  0  0  0  0  0
  -27.8886  -11.3277   18.8467 H   0  0  0  0  0  0
  -27.3849  -12.6084   17.7848 H   0  0  0  0  0  0
  -27.5993  -14.2638   19.4725 H   0  0  0  0  0  0
  -28.7522  -12.2071   21.4230 H   0  0  0  0  0  0
  -28.3788  -13.8703   21.7995 H   0  0  0  0  0  0
  -25.2842   -9.5595   22.4823 H   0  0  0  0  0  0
  -24.0018   -7.4573   22.7505 H   0  0  0  0  0  0
  -21.0861   -8.8794   19.9040 H   0  0  0  0  0  0
  -22.3745  -10.9697   19.6217 H   0  0  0  0  0  0
  -21.1954   -7.6173   23.9729 H   0  0  0  0  0  0
  -21.1487   -6.0564   25.9095 H   0  0  0  0  0  0
  -22.0603   -2.7646   23.2851 H   0  0  0  0  0  0
  -22.4087  -11.9793   22.4800 H   0  0  0  0  0  0
  -21.1144  -13.1257   22.2803 H   0  0  0  0  0  0
  -24.6106  -15.8292   20.4801 H   0  0  0  0  0  0
  -26.2436  -15.6630   20.1163 H   0  0  0  0  0  0
  -26.7315  -32.5389   23.1026 H   0  0  0  0  0  0
  -24.9981  -33.9674   25.0349 H   0  0  0  0  0  0
  -22.7505  -31.2990   21.4179 H   0  0  0  0  0  0
  -23.3798  -35.9539   23.3317 H   0  0  0  0  0  0
  -24.3521  -36.8876   22.2027 H   0  0  0  0  0  0
  -23.7147  -37.6448   23.6653 H   0  0  0  0  0  0
  -26.1756  -31.4755   20.6378 H   0  0  0  0  0  0
  -26.8711  -30.7465   22.0480 H   0  0  0  0  0  0
  -28.1366  -28.8059   21.1977 H   0  0  0  0  0  0
  -25.8011  -25.8780   18.9984 H   0  0  0  0  0  0
  -23.9328  -27.3415   19.0037 H   0  0  0  0  0  0
  -23.8038  -30.5983   19.4272 H   0  0  0  0  0  0
  -22.7808  -29.2566   19.8594 H   0  0  0  0  0  0
  -25.1330  -36.1946   25.0822 H   0  0  0  0  0  0
  -21.0003  -28.3293   24.1436 H   0  0  0  0  0  0
  -20.5753  -26.2294   23.3660 H   0  0  0  0  0  0
  -21.6665  -26.7448   22.1195 H   0  0  0  0  0  0
  -19.6896  -25.6283   21.1329 H   0  0  0  0  0  0
  -19.6713  -27.3172   20.6822 H   0  0  0  0  0  0
  -17.4217  -26.6745   21.4062 H   0  0  0  0  0  0
  -18.0293  -26.0075   22.9052 H   0  0  0  0  0  0
  -19.7930  -30.7341   24.2248 H   0  0  0  0  0  0
  -17.4991  -31.6302   24.5130 H   0  0  0  0  0  0
  -15.5348  -30.2953   23.7700 H   0  0  0  0  0  0
  -15.8715  -28.0826   22.7070 H   0  0  0  0  0  0
  -24.5788  -30.7234   25.7823 H   0  0  0  0  0  0
  -24.8701  -32.3089   26.4769 H   0  0  0  0  0  0
  -25.7751  -30.9182   27.0378 H   0  0  0  0  0  0
  -26.2961  -29.6867   24.1291 H   0  0  0  0  0  0
  -27.3713  -29.7310   25.5081 H   0  0  0  0  0  0
  -27.8983  -30.4340   23.9944 H   0  0  0  0  0  0
  -27.2652  -33.3787   26.2087 H   0  0  0  0  0  0
  -28.3847  -32.6890   25.0422 H   0  0  0  0  0  0
  -28.0649  -31.8586   26.5547 H   0  0  0  0  0  0
  -28.2657  -38.0089   24.7565 H   0  0  0  0  0  0
  -28.1061  -36.2638   24.6278 H   0  0  0  0  0  0
  -27.2311  -37.1474   25.8856 H   0  0  0  0  0  0
  -20.9490  -29.8711   21.6860 H   0  0  0  0  0  0
  -26.0208  -38.2913   24.1371 H   0  0  0  0  0  0
  -31.9409  -21.1656   21.4488 H   0  0  0  0  0  0
  -30.7792  -20.4607   22.5912 H   0  0  0  0  0  0
  -31.0894  -22.2059   22.5712 H   0  0  0  0  0  0
  -25.4574  -22.9067   19.1924 H   0  0  0  0  0  0
  -25.4455  -21.1831   18.7727 H   0  0  0  0  0  0
  -24.9404  -22.4046   17.5835 H   0  0  0  0  0  0
  -28.3356  -21.5101   16.2709 H   0  0  0  0  0  0
  -26.6544  -21.6442   15.8254 H   0  0  0  0  0  0
  -27.1611  -20.3338   16.8600 H   0  0  0  0  0  0
  -31.7247  -18.8031   21.2701 H   0  0  0  0  0  0
  -31.9963  -19.4599   19.6352 H   0  0  0  0  0  0
  -31.8347  -17.7407   19.9005 H   0  0  0  0  0  0
  -26.8862  -24.4922   20.2840 H   0  0  0  0  0  0
  -27.5790  -24.8140   18.7156 H   0  0  0  0  0  0
  -29.5063  -17.6378   21.8761 H   0  0  0  0  0  0
  -28.2427  -17.6057   20.7099 H   0  0  0  0  0  0
  -27.2176  -23.2783   17.4637 H   0  0  0  0  0  0
  -29.7859  -18.5634   18.9693 H   0  0  0  0  0  0
  -28.6318  -15.5063   20.5193 H   0  0  0  0  0  0
  1 25  1  0  0  0
  1 30  2  0  0  0
  1 85  1  0  0  0
  2  3  1  0  0  0
  2 25  1  0  0  0
  2 86  1  0  0  0
  2 87  1  0  0  0
  3  4  1  0  0  0
  3 88  1  0  0  0
  3 89  1  0  0  0
  4  5  1  0  0  0
  4 90  1  0  0  0
  4 91  1  0  0  0
  5  6  1  0  0  0
  5 26  1  0  0  0
  5 92  1  0  0  0
  6 25  1  0  0  0
  6 93  1  0  0  0
  6 94  1  0  0  0
  7  8  2  0  0  0
  7 26  1  0  0  0
  7 29  1  0  0  0
  8  9  1  0  0  0
  8 22  1  0  0  0
  9 10  1  0  0  0
  9 27  2  0  0  0
 10 11  2  0  0  0
 10 15  1  0  0  0
 11 12  1  0  0  0
 11 95  1  0  0  0
 12 13  2  0  0  0
 12 96  1  0  0  0
 13 14  1  0  0  0
 13 31  1  0  0  0
 14 15  2  0  0  0
 14 97  1  0  0  0
 15 98  1  0  0  0
 16 17  2  0  0  0
 16 21  1  0  0  0
 16 31  1  0  0  0
 17 18  1  0  0  0
 17 99  1  0  0  0
 18 19  2  0  0  0
 18100  1  0  0  0
 19 20  1  0  0  0
 19 24  1  0  0  0
 20 21  2  0  0  0
 20101  1  0  0  0
 21 23  1  0  0  0
 22 28  1  0  0  0
 22 32  2  0  0  0
 26 27  1  0  0  0
 28102  1  0  0  0
 28103  1  0  0  0
 29104  1  0  0  0
 29105  1  0  0  0
 33 34  1  0  0  0
 33 66  1  0  0  0
 33 70  2  0  0  0
 34 36  1  0  0  0
 34 59  1  0  0  0
 34106  1  0  0  0
 35 44  2  0  0  0
 35 45  1  0  0  0
 35 68  1  0  0  0
 36 56  1  0  0  0
 36107  1  0  0  0
 37 39  1  0  0  0
 37 47  1  0  0  0
 37 66  1  0  0  0
 37108  1  0  0  0
 38 43  2  0  0  0
 38 46  1  0  0  0
 38 47  1  0  0  0
 39 64  1  0  0  0
 39 67  2  0  0  0
 40 52  1  0  0  0
 40 53  2  0  0  0
 40 58  1  0  0  0
 41109  1  0  0  0
 41110  1  0  0  0
 41111  1  0  0  0
 41 48  1  0  0  0
 42 43  1  0  0  0
 42 66  1  0  0  0
 42112  1  0  0  0
 42113  1  0  0  0
 43 44  1  0  0  0
 44114  1  0  0  0
 45 46  2  0  0  0
 45115  1  0  0  0
 46116  1  0  0  0
 47117  1  0  0  0
 47118  1  0  0  0
 48 56  1  0  0  0
 48 65  1  0  0  0
 48119  1  0  0  0
 49 50  1  0  0  0
 49 53  1  0  0  0
 49 64  1  0  0  0
 49120  1  0  0  0
 50 51  1  0  0  0
 50121  1  0  0  0
 50122  1  0  0  0
 51 52  1  0  0  0
 51123  1  0  0  0
 51124  1  0  0  0
 52125  1  0  0  0
 52126  1  0  0  0
 53 54  1  0  0  0
 54 55  2  0  0  0
 54127  1  0  0  0
 55 57  1  0  0  0
 55128  1  0  0  0
 56 69  2  0  0  0
 57 58  2  0  0  0
 57129  1  0  0  0
 58130  1  0  0  0
 59 60  1  0  0  0
 59 61  1  0  0  0
 59 62  1  0  0  0
 60131  1  0  0  0
 60132  1  0  0  0
 60133  1  0  0  0
 61134  1  0  0  0
 61135  1  0  0  0
 61136  1  0  0  0
 62137  1  0  0  0
 62138  1  0  0  0
 62139  1  0  0  0
 63 65  1  0  0  0
 63140  1  0  0  0
 63141  1  0  0  0
 63142  1  0  0  0
 64143  1  0  0  0
 65144  1  0  0  0
 68 79  1  0  0  0
 71 73  2  0  0  0
 71 75  1  0  0  0
 71 83  1  0  0  0
 72 74  1  0  0  0
 72 79  1  0  0  0
 72 83  2  0  0  0
 73 82  1  0  0  0
 73 84  1  0  0  0
 74 81  1  0  0  0
 74 84  2  0  0  0
 75145  1  0  0  0
 75146  1  0  0  0
 75147  1  0  0  0
 76148  1  0  0  0
 76149  1  0  0  0
 76150  1  0  0  0
 76 81  1  0  0  0
 77 81  1  0  0  0
 77151  1  0  0  0
 77152  1  0  0  0
 77153  1  0  0  0
 78154  1  0  0  0
 78155  1  0  0  0
 78156  1  0  0  0
 78 82  1  0  0  0
 79157  1  0  0  0
 79158  1  0  0  0
 80 82  1  0  0  0
 80 85  1  0  0  0
 80159  1  0  0  0
 80160  1  0  0  0
 81161  1  0  0  0
 82162  1  0  0  0
 85163  1  0  0  0
M  ISO  4   1 100  68 101  79 101  85 100
M  END
> <chiral flag>
0

> <version>
0

> <s_m_source_file>
/data/baiqing/PycharmProjects/Reinvent-master-3.2/result/LINK_invent/BTK/process_docking_weight1_custom_sum_contain_oxygen_bond_distance_aromatic_linkinvent_7_9_3/rearranged_h_0083.sdf

> <i_m_source_file_index>
33

> <r_mmod_Potential_Energy-OPLS-2005>
561.338317871094

> <r_mmod_Stretch_Energy-OPLS-2005>
235.884429931641

> <r_mmod_Bend_Energy-OPLS-2005>
331.385223388672

> <r_mmod_Torsional_Energy-OPLS-2005>
206.887023925781

> <r_mmod_Improper_Torsional_Energy-OPLS-2005>
7.68149042129517

> <r_mmod_Van_der_Waal_Energy-OPLS-2005>
151.265106201172

> <r_mmod_Electrostatic_Energy-OPLS-2005>
-326.759979248047

> <r_mmod_Solvation_Energy-OPLS-2005>
-227.181091308594

> <b_mmod_Minimization_Converged-OPLS-2005>
0

> <r_mmod_RMS_Derivative-OPLS-2005>
9.1544771194458

$$$$
33
                    3D
 Structure written by MMmdl.
158165  0  0  1  0            999 V2000
  -30.5724  -14.8949   20.4298 C   0  0  0  0  0  0
  -30.4327  -12.5564   19.4824 C   0  0  0  0  0  0
  -29.5108  -12.5146   18.2441 C   0  0  0  0  0  0
  -28.0441  -12.3128   18.6667 C   0  0  0  0  0  0
  -27.6292  -13.2442   19.8362 C   0  0  2  0  0  0
  -28.6749  -13.2620   20.9699 C   0  0  0  0  0  0
  -25.2469  -13.8200   20.5702 C   0  0  0  0  0  0
  -24.1788  -13.0426   20.9229 C   0  0  0  0  0  0
  -24.6406  -11.6914   20.8760 C   0  0  0  0  0  0
  -23.9086  -10.4287   21.0409 C   0  0  0  0  0  0
  -24.3631   -9.4206   21.9184 C   0  0  0  0  0  0
  -23.6310   -8.2249   22.0765 C   0  0  0  0  0  0
  -22.4287   -8.0287   21.3553 C   0  0  0  0  0  0
  -21.9923   -9.0260   20.4652 C   0  0  0  0  0  0
  -22.7253  -10.2139   20.3063 C   0  0  0  0  0  0
  -21.6863   -6.0742   22.5286 C   0  0  0  0  0  0
  -21.4005   -6.5640   23.8216 C   0  0  0  0  0  0
  -21.3660   -5.6796   24.9178 C   0  0  0  0  0  0
  -21.6061   -4.3068   24.7227 C   0  0  0  0  0  0
  -21.8814   -3.8155   23.4348 C   0  0  0  0  0  0
  -21.9191   -4.6971   22.3403 C   0  0  0  0  0  0
  -22.7809  -13.5206   21.1879 C   0  0  0  0  0  0
  -22.1659   -4.2154   21.0984 F   0  0  0  0  0  0
  -21.5639   -3.4541   25.7737 F   0  0  0  0  0  0
  -29.9521  -13.6542   20.3641 N   0  0  0  0  0  0
  -26.2897  -12.9434   20.3256 N   0  0  0  0  0  0
  -25.9339  -11.6565   20.5758 N   0  0  0  0  0  0
  -22.0478  -12.8194   22.0443 N   0  0  0  0  0  0
  -25.4110  -15.1926   20.4092 N   0  0  0  0  0  0
  -31.7801  -14.9451   20.1746 O   0  0  0  0  0  0
  -21.6655   -6.8884   21.4248 O   0  0  0  0  0  0
  -22.3495  -14.5504   20.6717 O   0  0  0  0  0  0
  -24.6384  -31.8472   23.1911 C   0  0  0  0  0  0
  -25.9179  -32.4712   23.8279 C   0  0  1  0  0  0
  -27.2233  -27.1787   20.1455 C   0  0  0  0  0  0
  -25.5939  -33.8521   24.2193 N   0  0  0  0  0  0
  -23.4398  -30.4660   21.5364 C   0  0  2  0  0  0
  -24.8902  -28.9004   20.1116 C   0  0  0  0  0  0
  -22.7537  -29.4554   22.4884 C   0  0  0  0  0  0
  -18.0296  -28.1391   22.8484 C   0  0  0  0  0  0
  -24.1493  -36.7265   23.2638 C   0  0  0  0  0  0
  -25.9927  -30.7357   21.3830 C   0  0  0  0  0  0
  -26.0662  -29.3505   20.7252 C   0  0  0  0  0  0
  -27.2342  -28.5055   20.7246 C   0  0  0  0  0  0
  -26.0181  -26.8182   19.5007 C   0  0  0  0  0  0
  -24.8763  -27.6459   19.4864 C   0  0  0  0  0  0
  -23.6635  -29.7957   20.1552 C   0  0  0  0  0  0
  -25.4125  -36.3044   24.0312 C   0  0  1  0  0  0
  -20.5907  -28.3711   23.1248 C   0  0  2  0  0  0
  -20.6785  -26.9420   22.5406 C   0  0  0  0  0  0
  -19.5764  -26.6378   21.5211 C   0  0  0  0  0  0
  -18.1939  -26.7927   22.1620 C   0  0  0  0  0  0
  -19.1550  -28.8866   23.2857 C   0  0  0  0  0  0
  -18.9471  -30.1460   23.8884 C   0  0  0  0  0  0
  -17.6473  -30.6593   24.0557 C   0  0  0  0  0  0
  -25.9068  -34.9413   23.5068 C   0  0  0  0  0  0
  -16.5360  -29.9089   23.6333 C   0  0  0  0  0  0
  -16.7280  -28.6498   23.0365 C   0  0  0  0  0  0
  -26.4512  -31.6576   25.0709 C   0  0  0  0  0  0
  -25.3701  -31.3775   26.1409 C   0  0  0  0  0  0
  -27.0370  -30.2974   24.6271 C   0  0  0  0  0  0
  -27.6034  -32.4344   25.7501 C   0  0  0  0  0  0
  -27.5581  -37.1784   24.8456 C   0  0  0  0  0  0
  -21.4228  -29.3042   22.3628 N   0  0  0  0  0  0
  -26.4289  -37.3755   23.9405 N   0  0  0  0  0  0
  -24.7098  -31.0364   22.0925 N   0  0  0  0  0  0
  -23.4195  -28.8104   23.3019 O   0  0  0  0  0  0
  -28.2913  -26.2226   20.2126 O   0  0  0  0  0  0
  -26.5654  -34.8913   22.4643 O   0  0  0  0  0  0
  -23.5508  -32.1333   23.7151 O   0  0  0  0  0  0
  -30.8575  -17.6480   22.2013 C   0  0  0  0  0  0
  -30.7835  -20.7079   19.3662 C   0  0  0  0  0  0
  -30.4979  -20.8682   21.8295 C   0  0  0  0  0  0
  -29.0607  -23.4606   20.3844 C   0  0  0  0  0  0
  -28.6765  -21.8248   20.3098 C   0  0  0  0  0  0
  -29.2935  -18.9323   20.5048 C   0  0  0  0  0  0
  -28.0149  -24.7131   20.0588 C   0  0  0  0  0  0
  -30.2823  -17.5839   20.7705 C   0  0  2  0  0  0
  -29.7650  -20.5608   20.5088 C   0  0  0  0  0  0
  -29.8238  -16.0879   20.5932 N   0  0  0  0  0  0
  -31.4668  -12.7079   19.1672 H   0  0  0  0  0  0
  -30.4200  -11.6033   20.0119 H   0  0  0  0  0  0
  -29.8169  -11.7144   17.5692 H   0  0  0  0  0  0
  -29.6040  -13.4451   17.6818 H   0  0  0  0  0  0
  -27.9336  -11.2713   18.9676 H   0  0  0  0  0  0
  -27.3795  -12.4526   17.8130 H   0  0  0  0  0  0
  -27.5939  -14.2477   19.4119 H   0  0  0  0  0  0
  -28.7494  -12.2869   21.4535 H   0  0  0  0  0  0
  -28.3847  -13.9739   21.7449 H   0  0  0  0  0  0
  -25.2783   -9.5694   22.4756 H   0  0  0  0  0  0
  -24.0018   -7.4641   22.7496 H   0  0  0  0  0  0
  -21.0851   -8.8775   19.8954 H   0  0  0  0  0  0
  -22.3709  -10.9676   19.6173 H   0  0  0  0  0  0
  -21.1987   -7.6147   23.9709 H   0  0  0  0  0  0
  -21.1490   -6.0537   25.9077 H   0  0  0  0  0  0
  -22.0593   -2.7613   23.2852 H   0  0  0  0  0  0
  -22.4078  -11.9826   22.4809 H   0  0  0  0  0  0
  -21.1094  -13.1216   22.2650 H   0  0  0  0  0  0
  -24.6446  -15.8456   20.5317 H   0  0  0  0  0  0
  -26.2503  -15.6346   20.0584 H   0  0  0  0  0  0
  -26.7243  -32.5336   23.1007 H   0  0  0  0  0  0
  -25.0059  -33.9645   25.0323 H   0  0  0  0  0  0
  -22.7406  -31.2906   21.3836 H   0  0  0  0  0  0
  -23.3768  -35.9585   23.3268 H   0  0  0  0  0  0
  -24.3581  -36.8931   22.2059 H   0  0  0  0  0  0
  -23.7240  -37.6448   23.6697 H   0  0  0  0  0  0
  -26.1406  -31.4925   20.6112 H   0  0  0  0  0  0
  -26.8654  -30.7858   22.0221 H   0  0  0  0  0  0
  -28.1304  -28.8452   21.2255 H   0  0  0  0  0  0
  -25.9209  -25.8574   19.0198 H   0  0  0  0  0  0
  -23.9766  -27.2941   19.0002 H   0  0  0  0  0  0
  -23.7930  -30.5700   19.3980 H   0  0  0  0  0  0
  -22.7807  -29.2313   19.8484 H   0  0  0  0  0  0
  -25.1316  -36.1866   25.0804 H   0  0  0  0  0  0
  -20.9991  -28.3289   24.1371 H   0  0  0  0  0  0
  -20.5684  -26.2309   23.3615 H   0  0  0  0  0  0
  -21.6651  -26.7432   22.1196 H   0  0  0  0  0  0
  -19.6926  -25.6281   21.1255 H   0  0  0  0  0  0
  -19.6712  -27.3175   20.6730 H   0  0  0  0  0  0
  -17.4208  -26.6665   21.4024 H   0  0  0  0  0  0
  -18.0346  -26.0072   22.9020 H   0  0  0  0  0  0
  -19.7949  -30.7275   24.2251 H   0  0  0  0  0  0
  -17.5030  -31.6279   24.5152 H   0  0  0  0  0  0
  -15.5364  -30.2995   23.7671 H   0  0  0  0  0  0
  -15.8671  -28.0814   22.7111 H   0  0  0  0  0  0
  -24.5859  -30.7148   25.7725 H   0  0  0  0  0  0
  -24.8920  -32.2973   26.4790 H   0  0  0  0  0  0
  -25.7976  -30.8964   27.0213 H   0  0  0  0  0  0
  -26.2979  -29.6707   24.1265 H   0  0  0  0  0  0
  -27.3975  -29.7263   25.4834 H   0  0  0  0  0  0
  -27.8888  -30.4213   23.9580 H   0  0  0  0  0  0
  -27.2605  -33.3643   26.2053 H   0  0  0  0  0  0
  -28.3867  -32.6914   25.0356 H   0  0  0  0  0  0
  -28.0682  -31.8496   26.5451 H   0  0  0  0  0  0
  -28.2571  -38.0108   24.7532 H   0  0  0  0  0  0
  -28.1110  -36.2638   24.6248 H   0  0  0  0  0  0
  -27.2297  -37.1383   25.8858 H   0  0  0  0  0  0
  -20.9426  -29.8748   21.6814 H   0  0  0  0  0  0
  -26.0153  -38.2815   24.1442 H   0  0  0  0  0  0
  -31.6331  -18.3996   22.3013 H   0  0  0  0  0  0
  -31.3334  -16.7126   22.4970 H   0  0  0  0  0  0
  -30.0809  -17.8599   22.9376 H   0  0  0  0  0  0
  -31.2795  -21.6780   19.3897 H   0  0  0  0  0  0
  -30.3016  -20.6088   18.3937 H   0  0  0  0  0  0
  -31.5620  -19.9465   19.4219 H   0  0  0  0  0  0
  -30.6669  -21.9342   21.9720 H   0  0  0  0  0  0
  -31.4928  -20.4288   21.8516 H   0  0  0  0  0  0
  -29.9382  -20.5136   22.6946 H   0  0  0  0  0  0
  -29.9287  -23.6158   19.7426 H   0  0  0  0  0  0
  -29.4250  -23.6547   21.3919 H   0  0  0  0  0  0
  -28.1829  -21.6642   19.3506 H   0  0  0  0  0  0
  -27.8841  -21.6676   21.0431 H   0  0  0  0  0  0
  -28.4761  -18.8563   21.2208 H   0  0  0  0  0  0
  -28.8104  -18.7653   19.5416 H   0  0  0  0  0  0
  -27.1227  -24.5141   20.6529 H   0  0  0  0  0  0
  -27.7126  -24.5698   19.0223 H   0  0  0  0  0  0
  -31.1200  -17.6840   20.0801 H   0  0  0  0  0  0
  -28.8284  -15.9397   20.6678 H   0  0  0  0  0  0
  1 25  1  0  0  0
  1 30  2  0  0  0
  1 80  1  0  0  0
  2  3  1  0  0  0
  2 25  1  0  0  0
  2 81  1  0  0  0
  2 82  1  0  0  0
  3  4  1  0  0  0
  3 83  1  0  0  0
  3 84  1  0  0  0
  4  5  1  0  0  0
  4 85  1  0  0  0
  4 86  1  0  0  0
  5  6  1  0  0  0
  5 26  1  0  0  0
  5 87  1  0  0  0
  6 25  1  0  0  0
  6 88  1  0  0  0
  6 89  1  0  0  0
  7  8  2  0  0  0
  7 26  1  0  0  0
  7 29  1  0  0  0
  8  9  1  0  0  0
  8 22  1  0  0  0
  9 10  1  0  0  0
  9 27  2  0  0  0
 10 11  2  0  0  0
 10 15  1  0  0  0
 11 12  1  0  0  0
 11 90  1  0  0  0
 12 13  2  0  0  0
 12 91  1  0  0  0
 13 14  1  0  0  0
 13 31  1  0  0  0
 14 15  2  0  0  0
 14 92  1  0  0  0
 15 93  1  0  0  0
 16 17  2  0  0  0
 16 21  1  0  0  0
 16 31  1  0  0  0
 17 18  1  0  0  0
 17 94  1  0  0  0
 18 19  2  0  0  0
 18 95  1  0  0  0
 19 20  1  0  0  0
 19 24  1  0  0  0
 20 21  2  0  0  0
 20 96  1  0  0  0
 21 23  1  0  0  0
 22 28  1  0  0  0
 22 32  2  0  0  0
 26 27  1  0  0  0
 28 97  1  0  0  0
 28 98  1  0  0  0
 29 99  1  0  0  0
 29100  1  0  0  0
 33 34  1  0  0  0
 33 66  1  0  0  0
 33 70  2  0  0  0
 34 36  1  0  0  0
 34 59  1  0  0  0
 34101  1  0  0  0
 35 44  2  0  0  0
 35 45  1  0  0  0
 35 68  1  0  0  0
 36 56  1  0  0  0
 36102  1  0  0  0
 37 39  1  0  0  0
 37 47  1  0  0  0
 37 66  1  0  0  0
 37103  1  0  0  0
 38 43  2  0  0  0
 38 46  1  0  0  0
 38 47  1  0  0  0
 39 64  1  0  0  0
 39 67  2  0  0  0
 40 52  1  0  0  0
 40 53  2  0  0  0
 40 58  1  0  0  0
 41104  1  0  0  0
 41105  1  0  0  0
 41106  1  0  0  0
 41 48  1  0  0  0
 42 43  1  0  0  0
 42 66  1  0  0  0
 42107  1  0  0  0
 42108  1  0  0  0
 43 44  1  0  0  0
 44109  1  0  0  0
 45 46  2  0  0  0
 45110  1  0  0  0
 46111  1  0  0  0
 47112  1  0  0  0
 47113  1  0  0  0
 48 56  1  0  0  0
 48 65  1  0  0  0
 48114  1  0  0  0
 49 50  1  0  0  0
 49 53  1  0  0  0
 49 64  1  0  0  0
 49115  1  0  0  0
 50 51  1  0  0  0
 50116  1  0  0  0
 50117  1  0  0  0
 51 52  1  0  0  0
 51118  1  0  0  0
 51119  1  0  0  0
 52120  1  0  0  0
 52121  1  0  0  0
 53 54  1  0  0  0
 54 55  2  0  0  0
 54122  1  0  0  0
 55 57  1  0  0  0
 55123  1  0  0  0
 56 69  2  0  0  0
 57 58  2  0  0  0
 57124  1  0  0  0
 58125  1  0  0  0
 59 60  1  0  0  0
 59 61  1  0  0  0
 59 62  1  0  0  0
 60126  1  0  0  0
 60127  1  0  0  0
 60128  1  0  0  0
 61129  1  0  0  0
 61130  1  0  0  0
 61131  1  0  0  0
 62132  1  0  0  0
 62133  1  0  0  0
 62134  1  0  0  0
 63 65  1  0  0  0
 63135  1  0  0  0
 63136  1  0  0  0
 63137  1  0  0  0
 64138  1  0  0  0
 65139  1  0  0  0
 68 77  1  0  0  0
 71140  1  0  0  0
 71141  1  0  0  0
 71142  1  0  0  0
 71 78  1  0  0  0
 72143  1  0  0  0
 72144  1  0  0  0
 72145  1  0  0  0
 72 79  1  0  0  0
 73 79  1  0  0  0
 73146  1  0  0  0
 73147  1  0  0  0
 73148  1  0  0  0
 74 75  1  0  0  0
 74 77  1  0  0  0
 74149  1  0  0  0
 74150  1  0  0  0
 75 79  1  0  0  0
 75151  1  0  0  0
 75152  1  0  0  0
 76 78  1  0  0  0
 76 79  1  0  0  0
 76153  1  0  0  0
 76154  1  0  0  0
 77155  1  0  0  0
 77156  1  0  0  0
 78 80  1  0  0  0
 78157  1  0  0  0
 80158  1  0  0  0
M  ISO  4   1 100  68 101  77 101  80 100
M  END
> <chiral flag>
0

> <version>
0

> <s_m_source_file>
/data/baiqing/PycharmProjects/Reinvent-master-3.2/result/LINK_invent/BTK/process_docking_weight1_custom_sum_contain_oxygen_bond_distance_aromatic_linkinvent_7_9_3/rearranged_h_0083.sdf

> <i_m_source_file_index>
34

> <r_mmod_Potential_Energy-OPLS-2005>
444.903289794922

> <r_mmod_Stretch_Energy-OPLS-2005>
248.443756103516

> <r_mmod_Bend_Energy-OPLS-2005>
242.234390258789

> <r_mmod_Torsional_Energy-OPLS-2005>
219.877014160156

> <r_mmod_Improper_Torsional_Energy-OPLS-2005>
3.81561970710754

> <r_mmod_Van_der_Waal_Energy-OPLS-2005>
121.527008056641

> <r_mmod_Electrostatic_Energy-OPLS-2005>
-352.155639648438

> <r_mmod_Solvation_Energy-OPLS-2005>
-196.173187255859

> <b_mmod_Minimization_Converged-OPLS-2005>
0

> <r_mmod_RMS_Derivative-OPLS-2005>
2.25364685058594

$$$$
34
                    3D
 Structure written by MMmdl.
159167  0  0  1  0            999 V2000
  -30.6698  -14.4834   20.5575 C   0  0  0  0  0  0
  -30.4346  -12.3070   19.4288 C   0  0  0  0  0  0
  -29.5009  -12.5028   18.2149 C   0  0  0  0  0  0
  -28.0224  -12.3584   18.6289 C   0  0  0  0  0  0
  -27.6662  -13.2004   19.8831 C   0  0  2  0  0  0
  -28.7068  -12.9713   21.0048 C   0  0  0  0  0  0
  -25.2616  -13.8145   20.5684 C   0  0  0  0  0  0
  -24.1856  -13.0433   20.9181 C   0  0  0  0  0  0
  -24.6404  -11.6892   20.8753 C   0  0  0  0  0  0
  -23.9074  -10.4282   21.0418 C   0  0  0  0  0  0
  -24.3622   -9.4187   21.9192 C   0  0  0  0  0  0
  -23.6292   -8.2227   22.0752 C   0  0  0  0  0  0
  -22.4273   -8.0275   21.3540 C   0  0  0  0  0  0
  -21.9918   -9.0253   20.4646 C   0  0  0  0  0  0
  -22.7255  -10.2130   20.3059 C   0  0  0  0  0  0
  -21.6856   -6.0732   22.5276 C   0  0  0  0  0  0
  -21.4011   -6.5634   23.8213 C   0  0  0  0  0  0
  -21.3660   -5.6788   24.9174 C   0  0  0  0  0  0
  -21.6050   -4.3051   24.7225 C   0  0  0  0  0  0
  -21.8821   -3.8142   23.4345 C   0  0  0  0  0  0
  -21.9195   -4.6961   22.3399 C   0  0  0  0  0  0
  -22.7878  -13.5227   21.1855 C   0  0  0  0  0  0
  -22.1660   -4.2143   21.0981 F   0  0  0  0  0  0
  -21.5638   -3.4539   25.7740 F   0  0  0  0  0  0
  -30.0407  -13.2815   20.4580 N   0  0  0  0  0  0
  -26.3049  -12.9297   20.3398 N   0  0  0  0  0  0
  -25.9328  -11.6466   20.5798 N   0  0  0  0  0  0
  -22.0525  -12.8200   22.0406 N   0  0  0  0  0  0
  -25.4359  -15.1859   20.4063 N   0  0  0  0  0  0
  -31.7879  -14.7023   20.0818 O   0  0  0  0  0  0
  -21.6632   -6.8870   21.4235 O   0  0  0  0  0  0
  -22.3559  -14.5538   20.6719 O   0  0  0  0  0  0
  -24.6150  -31.8678   23.2092 C   0  0  0  0  0  0
  -25.9041  -32.4823   23.8386 C   0  0  1  0  0  0
  -27.2378  -27.4189   20.0963 C   0  0  0  0  0  0
  -25.5893  -33.8619   24.2327 N   0  0  0  0  0  0
  -23.4018  -30.4923   21.5502 C   0  0  2  0  0  0
  -24.8473  -28.9535   20.1188 C   0  0  0  0  0  0
  -22.7394  -29.4668   22.4989 C   0  0  0  0  0  0
  -18.0263  -28.1379   22.8525 C   0  0  0  0  0  0
  -24.1489  -36.7314   23.2641 C   0  0  0  0  0  0
  -25.9319  -30.8309   21.3615 C   0  0  0  0  0  0
  -26.0082  -29.4627   20.7110 C   0  0  0  0  0  0
  -27.2020  -28.7035   20.6943 C   0  0  0  0  0  0
  -26.0458  -26.9198   19.5179 C   0  0  0  0  0  0
  -24.8618  -27.6818   19.5232 C   0  0  0  0  0  0
  -23.6105  -29.8233   20.1652 C   0  0  0  0  0  0
  -25.4112  -36.3115   24.0342 C   0  0  1  0  0  0
  -20.5857  -28.3671   23.1337 C   0  0  2  0  0  0
  -20.6762  -26.9413   22.5410 C   0  0  0  0  0  0
  -19.5728  -26.6413   21.5212 C   0  0  0  0  0  0
  -18.1914  -26.7940   22.1644 C   0  0  0  0  0  0
  -19.1518  -28.8840   23.2923 C   0  0  0  0  0  0
  -18.9442  -30.1445   23.8936 C   0  0  0  0  0  0
  -17.6450  -30.6595   24.0571 C   0  0  0  0  0  0
  -25.9035  -34.9480   23.5134 C   0  0  0  0  0  0
  -16.5338  -29.9101   23.6329 C   0  0  0  0  0  0
  -16.7258  -28.6507   23.0377 C   0  0  0  0  0  0
  -26.4472  -31.6599   25.0712 C   0  0  0  0  0  0
  -25.3737  -31.3692   26.1458 C   0  0  0  0  0  0
  -27.0305  -30.3050   24.6076 C   0  0  0  0  0  0
  -27.6056  -32.4312   25.7473 C   0  0  0  0  0  0
  -27.5582  -37.1812   24.8466 C   0  0  0  0  0  0
  -21.4118  -29.3071   22.3757 N   0  0  0  0  0  0
  -26.4296  -37.3800   23.9408 N   0  0  0  0  0  0
  -24.6681  -31.0775   22.0994 N   0  0  0  0  0  0
  -23.4162  -28.8193   23.3013 O   0  0  0  0  0  0
  -28.4406  -26.7297   20.0982 O   0  0  0  0  0  0
  -26.5601  -34.8924   22.4697 O   0  0  0  0  0  0
  -23.5342  -32.1435   23.7481 O   0  0  0  0  0  0
  -29.7472  -21.6250   20.7532 C   0  0  0  0  0  0
  -30.2115  -20.3314   21.0889 C   0  0  0  0  0  0
  -28.3544  -21.8753   20.6976 C   0  0  0  0  0  0
  -29.2782  -19.3116   21.3646 C   0  0  0  0  0  0
  -27.5020  -20.7794   20.9792 C   0  0  0  0  0  0
  -25.4579  -21.1760   22.4242 C   0  0  0  0  0  0
  -29.7025  -17.8941   21.7879 C   0  0  0  0  0  0
  -25.9907  -20.9467   21.0019 C   0  0  0  0  0  0
  -29.9604  -16.9031   20.6221 C   0  0  0  0  0  0
  -28.5349  -25.3592   19.6553 C   0  0  0  0  0  0
  -28.3634  -24.3253   20.8002 C   0  0  0  0  0  0
  -27.9490  -19.5413   21.3012 N   0  0  0  0  0  0
  -29.8921  -15.4801   21.0177 N   0  0  0  0  0  0
  -27.7952  -23.0921   20.3314 O   0  0  0  0  0  0
  -31.4766  -12.4200   19.1245 H   0  0  0  0  0  0
  -30.3507  -11.2919   19.8207 H   0  0  0  0  0  0
  -29.7411  -11.7795   17.4345 H   0  0  0  0  0  0
  -29.6653  -13.4880   17.7767 H   0  0  0  0  0  0
  -27.8391  -11.3026   18.8329 H   0  0  0  0  0  0
  -27.3689  -12.6238   17.7974 H   0  0  0  0  0  0
  -27.7136  -14.2491   19.5888 H   0  0  0  0  0  0
  -28.6812  -11.9333   21.3400 H   0  0  0  0  0  0
  -28.4682  -13.5651   21.8887 H   0  0  0  0  0  0
  -25.2772   -9.5654   22.4760 H   0  0  0  0  0  0
  -24.0008   -7.4611   22.7461 H   0  0  0  0  0  0
  -21.0855   -8.8791   19.8936 H   0  0  0  0  0  0
  -22.3743  -10.9675   19.6161 H   0  0  0  0  0  0
  -21.1993   -7.6145   23.9714 H   0  0  0  0  0  0
  -21.1487   -6.0518   25.9081 H   0  0  0  0  0  0
  -22.0603   -2.7604   23.2854 H   0  0  0  0  0  0
  -22.4154  -11.9842   22.4753 H   0  0  0  0  0  0
  -21.1141  -13.1199   22.2643 H   0  0  0  0  0  0
  -24.6739  -15.8459   20.5157 H   0  0  0  0  0  0
  -26.2922  -15.6231   20.0900 H   0  0  0  0  0  0
  -26.7111  -32.5537   23.1145 H   0  0  0  0  0  0
  -25.0029  -33.9783   25.0463 H   0  0  0  0  0  0
  -22.6906  -31.3089   21.4111 H   0  0  0  0  0  0
  -23.3749  -35.9646   23.3317 H   0  0  0  0  0  0
  -24.3579  -36.8917   22.2050 H   0  0  0  0  0  0
  -23.7241  -37.6525   23.6648 H   0  0  0  0  0  0
  -26.0420  -31.5966   20.5921 H   0  0  0  0  0  0
  -26.8214  -30.8875   21.9769 H   0  0  0  0  0  0
  -28.1008  -29.0997   21.1461 H   0  0  0  0  0  0
  -25.9916  -25.9469   19.0563 H   0  0  0  0  0  0
  -23.9647  -27.2809   19.0721 H   0  0  0  0  0  0
  -23.7188  -30.5977   19.4043 H   0  0  0  0  0  0
  -22.7340  -29.2433   19.8709 H   0  0  0  0  0  0
  -25.1288  -36.1981   25.0836 H   0  0  0  0  0  0
  -20.9957  -28.3215   24.1457 H   0  0  0  0  0  0
  -20.5667  -26.2268   23.3583 H   0  0  0  0  0  0
  -21.6629  -26.7473   22.1185 H   0  0  0  0  0  0
  -19.6885  -25.6336   21.1201 H   0  0  0  0  0  0
  -19.6655  -27.3252   20.6762 H   0  0  0  0  0  0
  -17.4177  -26.6697   21.4053 H   0  0  0  0  0  0
  -18.0313  -26.0074   22.9033 H   0  0  0  0  0  0
  -19.7922  -30.7257   24.2308 H   0  0  0  0  0  0
  -17.5005  -31.6285   24.5157 H   0  0  0  0  0  0
  -15.5342  -30.3020   23.7625 H   0  0  0  0  0  0
  -15.8657  -28.0829   22.7097 H   0  0  0  0  0  0
  -24.5906  -30.7054   25.7780 H   0  0  0  0  0  0
  -24.8924  -32.2840   26.4931 H   0  0  0  0  0  0
  -25.8080  -30.8832   27.0203 H   0  0  0  0  0  0
  -26.2843  -29.6805   24.1151 H   0  0  0  0  0  0
  -27.4119  -29.7291   25.4519 H   0  0  0  0  0  0
  -27.8659  -30.4387   23.9196 H   0  0  0  0  0  0
  -27.2692  -33.3602   26.2087 H   0  0  0  0  0  0
  -28.3847  -32.6886   25.0287 H   0  0  0  0  0  0
  -28.0750  -31.8410   26.5354 H   0  0  0  0  0  0
  -28.2613  -38.0100   24.7509 H   0  0  0  0  0  0
  -28.1067  -36.2630   24.6305 H   0  0  0  0  0  0
  -27.2293  -37.1483   25.8869 H   0  0  0  0  0  0
  -20.9247  -29.8857   21.7062 H   0  0  0  0  0  0
  -26.0188  -38.2878   24.1415 H   0  0  0  0  0  0
  -30.4583  -22.4048   20.5247 H   0  0  0  0  0  0
  -31.2735  -20.1310   21.1358 H   0  0  0  0  0  0
  -25.6959  -20.3344   23.0753 H   0  0  0  0  0  0
  -24.3756  -21.3014   22.4228 H   0  0  0  0  0  0
  -25.8986  -22.0698   22.8658 H   0  0  0  0  0  0
  -28.9214  -17.4917   22.4351 H   0  0  0  0  0  0
  -30.5910  -17.9603   22.4166 H   0  0  0  0  0  0
  -25.5235  -20.0602   20.5731 H   0  0  0  0  0  0
  -25.6976  -21.7751   20.3571 H   0  0  0  0  0  0
  -30.9039  -17.1453   20.1287 H   0  0  0  0  0  0
  -29.1837  -17.0419   19.8691 H   0  0  0  0  0  0
  -27.8693  -25.1415   18.8234 H   0  0  0  0  0  0
  -29.5293  -25.2268   19.2289 H   0  0  0  0  0  0
  -27.6510  -24.7281   21.5209 H   0  0  0  0  0  0
  -29.2987  -24.2019   21.3472 H   0  0  0  0  0  0
  -29.0138  -15.1750   21.4122 H   0  0  0  0  0  0
  1 25  1  0  0  0
  1 30  2  0  0  0
  1 83  1  0  0  0
  2  3  1  0  0  0
  2 25  1  0  0  0
  2 85  1  0  0  0
  2 86  1  0  0  0
  3  4  1  0  0  0
  3 87  1  0  0  0
  3 88  1  0  0  0
  4  5  1  0  0  0
  4 89  1  0  0  0
  4 90  1  0  0  0
  5  6  1  0  0  0
  5 26  1  0  0  0
  5 91  1  0  0  0
  6 25  1  0  0  0
  6 92  1  0  0  0
  6 93  1  0  0  0
  7  8  2  0  0  0
  7 26  1  0  0  0
  7 29  1  0  0  0
  8  9  1  0  0  0
  8 22  1  0  0  0
  9 10  1  0  0  0
  9 27  2  0  0  0
 10 11  2  0  0  0
 10 15  1  0  0  0
 11 12  1  0  0  0
 11 94  1  0  0  0
 12 13  2  0  0  0
 12 95  1  0  0  0
 13 14  1  0  0  0
 13 31  1  0  0  0
 14 15  2  0  0  0
 14 96  1  0  0  0
 15 97  1  0  0  0
 16 17  2  0  0  0
 16 21  1  0  0  0
 16 31  1  0  0  0
 17 18  1  0  0  0
 17 98  1  0  0  0
 18 19  2  0  0  0
 18 99  1  0  0  0
 19 20  1  0  0  0
 19 24  1  0  0  0
 20 21  2  0  0  0
 20100  1  0  0  0
 21 23  1  0  0  0
 22 28  1  0  0  0
 22 32  2  0  0  0
 26 27  1  0  0  0
 28101  1  0  0  0
 28102  1  0  0  0
 29103  1  0  0  0
 29104  1  0  0  0
 33 34  1  0  0  0
 33 66  1  0  0  0
 33 70  2  0  0  0
 34 36  1  0  0  0
 34 59  1  0  0  0
 34105  1  0  0  0
 35 44  2  0  0  0
 35 45  1  0  0  0
 35 68  1  0  0  0
 36 56  1  0  0  0
 36106  1  0  0  0
 37 39  1  0  0  0
 37 47  1  0  0  0
 37 66  1  0  0  0
 37107  1  0  0  0
 38 43  2  0  0  0
 38 46  1  0  0  0
 38 47  1  0  0  0
 39 64  1  0  0  0
 39 67  2  0  0  0
 40 52  1  0  0  0
 40 53  2  0  0  0
 40 58  1  0  0  0
 41108  1  0  0  0
 41109  1  0  0  0
 41110  1  0  0  0
 41 48  1  0  0  0
 42 43  1  0  0  0
 42 66  1  0  0  0
 42111  1  0  0  0
 42112  1  0  0  0
 43 44  1  0  0  0
 44113  1  0  0  0
 45 46  2  0  0  0
 45114  1  0  0  0
 46115  1  0  0  0
 47116  1  0  0  0
 47117  1  0  0  0
 48 56  1  0  0  0
 48 65  1  0  0  0
 48118  1  0  0  0
 49 50  1  0  0  0
 49 53  1  0  0  0
 49 64  1  0  0  0
 49119  1  0  0  0
 50 51  1  0  0  0
 50120  1  0  0  0
 50121  1  0  0  0
 51 52  1  0  0  0
 51122  1  0  0  0
 51123  1  0  0  0
 52124  1  0  0  0
 52125  1  0  0  0
 53 54  1  0  0  0
 54 55  2  0  0  0
 54126  1  0  0  0
 55 57  1  0  0  0
 55127  1  0  0  0
 56 69  2  0  0  0
 57 58  2  0  0  0
 57128  1  0  0  0
 58129  1  0  0  0
 59 60  1  0  0  0
 59 61  1  0  0  0
 59 62  1  0  0  0
 60130  1  0  0  0
 60131  1  0  0  0
 60132  1  0  0  0
 61133  1  0  0  0
 61134  1  0  0  0
 61135  1  0  0  0
 62136  1  0  0  0
 62137  1  0  0  0
 62138  1  0  0  0
 63 65  1  0  0  0
 63139  1  0  0  0
 63140  1  0  0  0
 63141  1  0  0  0
 64142  1  0  0  0
 65143  1  0  0  0
 68 80  1  0  0  0
 71 72  2  0  0  0
 71 73  1  0  0  0
 71144  1  0  0  0
 72 74  1  0  0  0
 72145  1  0  0  0
 73 75  2  0  0  0
 73 84  1  0  0  0
 74 77  1  0  0  0
 74 82  2  0  0  0
 75 78  1  0  0  0
 75 82  1  0  0  0
 76 78  1  0  0  0
 76146  1  0  0  0
 76147  1  0  0  0
 76148  1  0  0  0
 77 79  1  0  0  0
 77149  1  0  0  0
 77150  1  0  0  0
 78151  1  0  0  0
 78152  1  0  0  0
 79 83  1  0  0  0
 79153  1  0  0  0
 79154  1  0  0  0
 80 81  1  0  0  0
 80155  1  0  0  0
 80156  1  0  0  0
 81 84  1  0  0  0
 81157  1  0  0  0
 81158  1  0  0  0
 83159  1  0  0  0
M  ISO  4   1 100  68 101  80 101  83 100
M  END
> <chiral flag>
0

> <version>
0

> <s_m_source_file>
/data/baiqing/PycharmProjects/Reinvent-master-3.2/result/LINK_invent/BTK/process_docking_weight1_custom_sum_contain_oxygen_bond_distance_aromatic_linkinvent_7_9_3/rearranged_h_0083.sdf

> <i_m_source_file_index>
35

> <r_mmod_Potential_Energy-OPLS-2005>
-153.541168212891

> <r_mmod_Stretch_Energy-OPLS-2005>
40.8412132263184

> <r_mmod_Bend_Energy-OPLS-2005>
113.637802124023

> <r_mmod_Torsional_Energy-OPLS-2005>
202.69108581543

> <r_mmod_Improper_Torsional_Energy-OPLS-2005>
6.34104013442993

> <r_mmod_Van_der_Waal_Energy-OPLS-2005>
151.751846313477

> <r_mmod_Electrostatic_Energy-OPLS-2005>
-466.373046875

> <r_mmod_Solvation_Energy-OPLS-2005>
-216.202224731445

> <b_mmod_Minimization_Converged-OPLS-2005>
0

> <r_mmod_RMS_Derivative-OPLS-2005>
1.61338889598846

$$$$
35
                    3D
 Structure written by MMmdl.
160168  0  0  1  0            999 V2000
  -30.5433  -14.9557   20.4103 C   0  0  0  0  0  0
  -30.4372  -12.5883   19.5108 C   0  0  0  0  0  0
  -29.5234  -12.5301   18.2644 C   0  0  0  0  0  0
  -28.0561  -12.3169   18.6789 C   0  0  0  0  0  0
  -27.6304  -13.2506   19.8423 C   0  0  2  0  0  0
  -28.6703  -13.2843   20.9836 C   0  0  0  0  0  0
  -25.2458  -13.8223   20.5714 C   0  0  0  0  0  0
  -24.1775  -13.0442   20.9226 C   0  0  0  0  0  0
  -24.6395  -11.6929   20.8755 C   0  0  0  0  0  0
  -23.9082  -10.4296   21.0408 C   0  0  0  0  0  0
  -24.3629   -9.4210   21.9185 C   0  0  0  0  0  0
  -23.6300   -8.2247   22.0756 C   0  0  0  0  0  0
  -22.4283   -8.0285   21.3546 C   0  0  0  0  0  0
  -21.9921   -9.0259   20.4648 C   0  0  0  0  0  0
  -22.7253  -10.2137   20.3057 C   0  0  0  0  0  0
  -21.6855   -6.0739   22.5279 C   0  0  0  0  0  0
  -21.4015   -6.5642   23.8212 C   0  0  0  0  0  0
  -21.3659   -5.6794   24.9174 C   0  0  0  0  0  0
  -21.6043   -4.3057   24.7224 C   0  0  0  0  0  0
  -21.8819   -3.8150   23.4345 C   0  0  0  0  0  0
  -21.9193   -4.6967   22.3402 C   0  0  0  0  0  0
  -22.7794  -13.5209   21.1879 C   0  0  0  0  0  0
  -22.1661   -4.2151   21.0980 F   0  0  0  0  0  0
  -21.5628   -3.4541   25.7738 F   0  0  0  0  0  0
  -29.9492  -13.6927   20.3896 N   0  0  0  0  0  0
  -26.2887  -12.9460   20.3260 N   0  0  0  0  0  0
  -25.9330  -11.6585   20.5747 N   0  0  0  0  0  0
  -22.0448  -12.8195   22.0435 N   0  0  0  0  0  0
  -25.4120  -15.1952   20.4139 N   0  0  0  0  0  0
  -31.7364  -15.0153   20.0958 O   0  0  0  0  0  0
  -21.6644   -6.8884   21.4242 O   0  0  0  0  0  0
  -22.3473  -14.5511   20.6723 O   0  0  0  0  0  0
  -24.6452  -31.8422   23.1875 C   0  0  0  0  0  0
  -25.9220  -32.4681   23.8269 C   0  0  1  0  0  0
  -27.2146  -27.1157   20.1512 C   0  0  0  0  0  0
  -25.5961  -33.8488   24.2179 N   0  0  0  0  0  0
  -23.4499  -30.4615   21.5332 C   0  0  2  0  0  0
  -24.9004  -28.8887   20.1063 C   0  0  0  0  0  0
  -22.7581  -29.4530   22.4849 C   0  0  0  0  0  0
  -18.0306  -28.1392   22.8473 C   0  0  0  0  0  0
  -24.1492  -36.7248   23.2642 C   0  0  0  0  0  0
  -26.0077  -30.7076   21.3926 C   0  0  0  0  0  0
  -26.0771  -29.3179   20.7327 C   0  0  0  0  0  0
  -27.2324  -28.4461   20.7422 C   0  0  0  0  0  0
  -26.0179  -26.8041   19.4665 C   0  0  0  0  0  0
  -24.8853  -27.6462   19.4570 C   0  0  0  0  0  0
  -23.6777  -29.7926   20.1516 C   0  0  0  0  0  0
  -25.4125  -36.3020   24.0310 C   0  0  1  0  0  0
  -20.5921  -28.3718   23.1227 C   0  0  2  0  0  0
  -20.6786  -26.9416   22.5403 C   0  0  0  0  0  0
  -19.5759  -26.6375   21.5210 C   0  0  0  0  0  0
  -18.1942  -26.7929   22.1621 C   0  0  0  0  0  0
  -19.1564  -28.8874   23.2840 C   0  0  0  0  0  0
  -18.9479  -30.1471   23.8864 C   0  0  0  0  0  0
  -17.6474  -30.6586   24.0556 C   0  0  0  0  0  0
  -25.9078  -34.9396   23.5052 C   0  0  0  0  0  0
  -16.5365  -29.9076   23.6336 C   0  0  0  0  0  0
  -16.7291  -28.6497   23.0353 C   0  0  0  0  0  0
  -26.4536  -31.6561   25.0722 C   0  0  0  0  0  0
  -25.3711  -31.3758   26.1409 C   0  0  0  0  0  0
  -27.0410  -30.2949   24.6335 C   0  0  0  0  0  0
  -27.6056  -32.4344   25.7509 C   0  0  0  0  0  0
  -27.5574  -37.1779   24.8463 C   0  0  0  0  0  0
  -21.4271  -29.3039   22.3600 N   0  0  0  0  0  0
  -26.4285  -37.3735   23.9405 N   0  0  0  0  0  0
  -24.7206  -31.0260   22.0923 N   0  0  0  0  0  0
  -23.4216  -28.8078   23.3006 O   0  0  0  0  0  0
  -28.2496  -26.1067   20.2569 O   0  0  0  0  0  0
  -26.5665  -34.8894   22.4633 O   0  0  0  0  0  0
  -23.5566  -32.1314   23.7081 O   0  0  0  0  0  0
  -28.4335  -19.8064   18.3593 C   0  0  0  0  0  0
  -28.1968  -21.9955   18.1801 C   0  0  0  0  0  0
  -28.0408  -20.8403   17.4862 C   0  0  0  0  0  0
  -28.8708  -20.2897   19.5656 C   0  0  0  0  0  0
  -26.0192  -20.4332   16.0607 C   0  0  0  0  0  0
  -28.2982  -19.6322   15.2822 C   0  0  0  0  0  0
  -29.3400  -19.1067   20.5953 C   0  0  0  0  0  0
  -28.8148  -23.1416   20.3163 C   0  0  0  0  0  0
  -30.0445  -17.6377   20.0683 C   0  0  0  0  0  0
  -28.0171  -24.6025   19.8802 C   0  0  0  0  0  0
  -27.5292  -20.7040   16.0696 C   0  0  0  0  0  0
  -28.6502  -21.7919   19.4843 N   0  0  0  0  0  0
  -29.7778  -16.1502   20.5596 N   0  0  0  0  0  0
  -31.4730  -12.7362   19.2017 H   0  0  0  0  0  0
  -30.4230  -11.6376   20.0465 H   0  0  0  0  0  0
  -29.8439  -11.7303   17.5955 H   0  0  0  0  0  0
  -29.6140  -13.4589   17.6990 H   0  0  0  0  0  0
  -27.9511  -11.2756   18.9862 H   0  0  0  0  0  0
  -27.3947  -12.4495   17.8218 H   0  0  0  0  0  0
  -27.5936  -14.2521   19.4125 H   0  0  0  0  0  0
  -28.7546  -12.3114   21.4699 H   0  0  0  0  0  0
  -28.3675  -13.9921   21.7569 H   0  0  0  0  0  0
  -25.2774   -9.5685   22.4762 H   0  0  0  0  0  0
  -24.0007   -7.4639   22.7478 H   0  0  0  0  0  0
  -21.0851   -8.8782   19.8953 H   0  0  0  0  0  0
  -22.3713  -10.9677   19.6168 H   0  0  0  0  0  0
  -21.2010   -7.6151   23.9716 H   0  0  0  0  0  0
  -21.1479   -6.0526   25.9077 H   0  0  0  0  0  0
  -22.0597   -2.7612   23.2846 H   0  0  0  0  0  0
  -22.4076  -11.9863   22.4827 H   0  0  0  0  0  0
  -21.1061  -13.1207   22.2639 H   0  0  0  0  0  0
  -24.6412  -15.8453   20.5242 H   0  0  0  0  0  0
  -26.2522  -15.6363   20.0634 H   0  0  0  0  0  0
  -26.7285  -32.5279   23.0996 H   0  0  0  0  0  0
  -25.0081  -33.9603   25.0308 H   0  0  0  0  0  0
  -22.7529  -31.2879   21.3789 H   0  0  0  0  0  0
  -23.3754  -35.9578   23.3289 H   0  0  0  0  0  0
  -24.3577  -36.8902   22.2059 H   0  0  0  0  0  0
  -23.7248  -37.6438   23.6697 H   0  0  0  0  0  0
  -26.1694  -31.4615   20.6212 H   0  0  0  0  0  0
  -26.8757  -30.7561   22.0384 H   0  0  0  0  0  0
  -28.1237  -28.7650   21.2641 H   0  0  0  0  0  0
  -25.9148  -25.8634   18.9479 H   0  0  0  0  0  0
  -23.9907  -27.3170   18.9465 H   0  0  0  0  0  0
  -23.8150  -30.5687   19.3976 H   0  0  0  0  0  0
  -22.7924  -29.2357   19.8395 H   0  0  0  0  0  0
  -25.1313  -36.1843   25.0800 H   0  0  0  0  0  0
  -21.0012  -28.3309   24.1350 H   0  0  0  0  0  0
  -20.5673  -26.2328   23.3623 H   0  0  0  0  0  0
  -21.6651  -26.7412   22.1202 H   0  0  0  0  0  0
  -19.6915  -25.6280   21.1254 H   0  0  0  0  0  0
  -19.6697  -27.3172   20.6728 H   0  0  0  0  0  0
  -17.4209  -26.6673   21.4026 H   0  0  0  0  0  0
  -18.0339  -26.0078   22.9024 H   0  0  0  0  0  0
  -19.7955  -30.7297   24.2217 H   0  0  0  0  0  0
  -17.5024  -31.6262   24.5163 H   0  0  0  0  0  0
  -15.5363  -30.2963   23.7679 H   0  0  0  0  0  0
  -15.8693  -28.0808   22.7077 H   0  0  0  0  0  0
  -24.5900  -30.7097   25.7726 H   0  0  0  0  0  0
  -24.8888  -32.2940   26.4769 H   0  0  0  0  0  0
  -25.7984  -30.8974   27.0231 H   0  0  0  0  0  0
  -26.3038  -29.6659   24.1332 H   0  0  0  0  0  0
  -27.3990  -29.7267   25.4931 H   0  0  0  0  0  0
  -27.8960  -30.4165   23.9681 H   0  0  0  0  0  0
  -27.2639  -33.3668   26.2015 H   0  0  0  0  0  0
  -28.3902  -32.6874   25.0364 H   0  0  0  0  0  0
  -28.0688  -31.8524   26.5486 H   0  0  0  0  0  0
  -28.2576  -38.0089   24.7510 H   0  0  0  0  0  0
  -28.1086  -36.2617   24.6293 H   0  0  0  0  0  0
  -27.2291  -37.1425   25.8866 H   0  0  0  0  0  0
  -20.9487  -29.8761   21.6782 H   0  0  0  0  0  0
  -26.0147  -38.2799   24.1417 H   0  0  0  0  0  0
  -28.3887  -18.7599   18.0971 H   0  0  0  0  0  0
  -27.9844  -22.9763   17.7926 H   0  0  0  0  0  0
  -25.4751  -21.2336   16.5632 H   0  0  0  0  0  0
  -25.7798  -19.4989   16.5696 H   0  0  0  0  0  0
  -25.6360  -20.3662   15.0420 H   0  0  0  0  0  0
  -29.3678  -19.8443   15.2729 H   0  0  0  0  0  0
  -27.9638  -19.5924   14.2450 H   0  0  0  0  0  0
  -28.1581  -18.6387   15.7091 H   0  0  0  0  0  0
  -28.4559  -18.8313   21.1707 H   0  0  0  0  0  0
  -30.0079  -19.5462   21.3366 H   0  0  0  0  0  0
  -28.5670  -22.9127   21.3526 H   0  0  0  0  0  0
  -29.8837  -23.3544   20.3218 H   0  0  0  0  0  0
  -31.1234  -17.7840   20.1307 H   0  0  0  0  0  0
  -29.8797  -17.5628   18.9961 H   0  0  0  0  0  0
  -26.9723  -24.3883   20.1011 H   0  0  0  0  0  0
  -28.0758  -24.6935   18.8007 H   0  0  0  0  0  0
  -27.6995  -21.6609   15.5730 H   0  0  0  0  0  0
  -28.8266  -15.9787   20.8504 H   0  0  0  0  0  0
  1 25  1  0  0  0
  1 30  2  0  0  0
  1 83  1  0  0  0
  2  3  1  0  0  0
  2 25  1  0  0  0
  2 84  1  0  0  0
  2 85  1  0  0  0
  3  4  1  0  0  0
  3 86  1  0  0  0
  3 87  1  0  0  0
  4  5  1  0  0  0
  4 88  1  0  0  0
  4 89  1  0  0  0
  5  6  1  0  0  0
  5 26  1  0  0  0
  5 90  1  0  0  0
  6 25  1  0  0  0
  6 91  1  0  0  0
  6 92  1  0  0  0
  7  8  2  0  0  0
  7 26  1  0  0  0
  7 29  1  0  0  0
  8  9  1  0  0  0
  8 22  1  0  0  0
  9 10  1  0  0  0
  9 27  2  0  0  0
 10 11  2  0  0  0
 10 15  1  0  0  0
 11 12  1  0  0  0
 11 93  1  0  0  0
 12 13  2  0  0  0
 12 94  1  0  0  0
 13 14  1  0  0  0
 13 31  1  0  0  0
 14 15  2  0  0  0
 14 95  1  0  0  0
 15 96  1  0  0  0
 16 17  2  0  0  0
 16 21  1  0  0  0
 16 31  1  0  0  0
 17 18  1  0  0  0
 17 97  1  0  0  0
 18 19  2  0  0  0
 18 98  1  0  0  0
 19 20  1  0  0  0
 19 24  1  0  0  0
 20 21  2  0  0  0
 20 99  1  0  0  0
 21 23  1  0  0  0
 22 28  1  0  0  0
 22 32  2  0  0  0
 26 27  1  0  0  0
 28100  1  0  0  0
 28101  1  0  0  0
 29102  1  0  0  0
 29103  1  0  0  0
 33 34  1  0  0  0
 33 66  1  0  0  0
 33 70  2  0  0  0
 34 36  1  0  0  0
 34 59  1  0  0  0
 34104  1  0  0  0
 35 44  2  0  0  0
 35 45  1  0  0  0
 35 68  1  0  0  0
 36 56  1  0  0  0
 36105  1  0  0  0
 37 39  1  0  0  0
 37 47  1  0  0  0
 37 66  1  0  0  0
 37106  1  0  0  0
 38 43  2  0  0  0
 38 46  1  0  0  0
 38 47  1  0  0  0
 39 64  1  0  0  0
 39 67  2  0  0  0
 40 52  1  0  0  0
 40 53  2  0  0  0
 40 58  1  0  0  0
 41107  1  0  0  0
 41108  1  0  0  0
 41109  1  0  0  0
 41 48  1  0  0  0
 42 43  1  0  0  0
 42 66  1  0  0  0
 42110  1  0  0  0
 42111  1  0  0  0
 43 44  1  0  0  0
 44112  1  0  0  0
 45 46  2  0  0  0
 45113  1  0  0  0
 46114  1  0  0  0
 47115  1  0  0  0
 47116  1  0  0  0
 48 56  1  0  0  0
 48 65  1  0  0  0
 48117  1  0  0  0
 49 50  1  0  0  0
 49 53  1  0  0  0
 49 64  1  0  0  0
 49118  1  0  0  0
 50 51  1  0  0  0
 50119  1  0  0  0
 50120  1  0  0  0
 51 52  1  0  0  0
 51121  1  0  0  0
 51122  1  0  0  0
 52123  1  0  0  0
 52124  1  0  0  0
 53 54  1  0  0  0
 54 55  2  0  0  0
 54125  1  0  0  0
 55 57  1  0  0  0
 55126  1  0  0  0
 56 69  2  0  0  0
 57 58  2  0  0  0
 57127  1  0  0  0
 58128  1  0  0  0
 59 60  1  0  0  0
 59 61  1  0  0  0
 59 62  1  0  0  0
 60129  1  0  0  0
 60130  1  0  0  0
 60131  1  0  0  0
 61132  1  0  0  0
 61133  1  0  0  0
 61134  1  0  0  0
 62135  1  0  0  0
 62136  1  0  0  0
 62137  1  0  0  0
 63 65  1  0  0  0
 63138  1  0  0  0
 63139  1  0  0  0
 63140  1  0  0  0
 64141  1  0  0  0
 65142  1  0  0  0
 68 80  1  0  0  0
 71 73  1  0  0  0
 71 74  2  0  0  0
 71143  1  0  0  0
 72 73  2  0  0  0
 72 82  1  0  0  0
 72144  1  0  0  0
 73 81  1  0  0  0
 74 77  1  0  0  0
 74 82  1  0  0  0
 75145  1  0  0  0
 75146  1  0  0  0
 75147  1  0  0  0
 75 81  1  0  0  0
 76 81  1  0  0  0
 76148  1  0  0  0
 76149  1  0  0  0
 76150  1  0  0  0
 77 79  1  0  0  0
 77151  1  0  0  0
 77152  1  0  0  0
 78 80  1  0  0  0
 78 82  1  0  0  0
 78153  1  0  0  0
 78154  1  0  0  0
 79 83  1  0  0  0
 79155  1  0  0  0
 79156  1  0  0  0
 80157  1  0  0  0
 80158  1  0  0  0
 81159  1  0  0  0
 83160  1  0  0  0
M  ISO  4   1 100  68 101  80 101  83 100
M  END
> <chiral flag>
0

> <version>
0

> <s_m_source_file>
/data/baiqing/PycharmProjects/Reinvent-master-3.2/result/LINK_invent/BTK/process_docking_weight1_custom_sum_contain_oxygen_bond_distance_aromatic_linkinvent_7_9_3/rearranged_h_0083.sdf

> <i_m_source_file_index>
36

> <r_mmod_Potential_Energy-OPLS-2005>
616.870178222656

> <r_mmod_Stretch_Energy-OPLS-2005>
316.225616455078

> <r_mmod_Bend_Energy-OPLS-2005>
346.405090332031

> <r_mmod_Torsional_Energy-OPLS-2005>
233.093002319336

> <r_mmod_Improper_Torsional_Energy-OPLS-2005>
5.90368461608887

> <r_mmod_Van_der_Waal_Energy-OPLS-2005>
120.216812133789

> <r_mmod_Electrostatic_Energy-OPLS-2005>
-395.397186279297

> <r_mmod_Solvation_Energy-OPLS-2005>
-216.220062255859

> <b_mmod_Minimization_Converged-OPLS-2005>
0

> <r_mmod_RMS_Derivative-OPLS-2005>
0.351527452468872

$$$$
36
                    3D
 Structure written by MMmdl.
154162  0  0  1  0            999 V2000
  -30.5324  -14.9729   20.4233 C   0  0  0  0  0  0
  -30.4454  -12.6085   19.4836 C   0  0  0  0  0  0
  -29.5210  -12.5186   18.2483 C   0  0  0  0  0  0
  -28.0549  -12.3049   18.6739 C   0  0  0  0  0  0
  -27.6255  -13.2468   19.8295 C   0  0  2  0  0  0
  -28.6729  -13.2948   20.9591 C   0  0  0  0  0  0
  -25.2473  -13.8208   20.5755 C   0  0  0  0  0  0
  -24.1775  -13.0431   20.9236 C   0  0  0  0  0  0
  -24.6390  -11.6920   20.8753 C   0  0  0  0  0  0
  -23.9068  -10.4289   21.0394 C   0  0  0  0  0  0
  -24.3608   -9.4209   21.9178 C   0  0  0  0  0  0
  -23.6294   -8.2241   22.0752 C   0  0  0  0  0  0
  -22.4282   -8.0276   21.3539 C   0  0  0  0  0  0
  -21.9912   -9.0249   20.4644 C   0  0  0  0  0  0
  -22.7232  -10.2136   20.3051 C   0  0  0  0  0  0
  -21.6858   -6.0733   22.5276 C   0  0  0  0  0  0
  -21.4015   -6.5633   23.8212 C   0  0  0  0  0  0
  -21.3663   -5.6789   24.9174 C   0  0  0  0  0  0
  -21.6046   -4.3053   24.7224 C   0  0  0  0  0  0
  -21.8816   -3.8146   23.4347 C   0  0  0  0  0  0
  -21.9192   -4.6960   22.3405 C   0  0  0  0  0  0
  -22.7794  -13.5213   21.1876 C   0  0  0  0  0  0
  -22.1661   -4.2143   21.0983 F   0  0  0  0  0  0
  -21.5626   -3.4537   25.7742 F   0  0  0  0  0  0
  -29.9366  -13.7155   20.3405 N   0  0  0  0  0  0
  -26.2884  -12.9437   20.3245 N   0  0  0  0  0  0
  -25.9320  -11.6568   20.5729 N   0  0  0  0  0  0
  -22.0417  -12.8230   22.0436 N   0  0  0  0  0  0
  -25.4139  -15.1949   20.4265 N   0  0  0  0  0  0
  -31.7559  -15.0250   20.2523 O   0  0  0  0  0  0
  -21.6647   -6.8875   21.4242 O   0  0  0  0  0  0
  -22.3489  -14.5503   20.6691 O   0  0  0  0  0  0
  -24.6436  -31.8432   23.1852 C   0  0  0  0  0  0
  -25.9207  -32.4687   23.8255 C   0  0  1  0  0  0
  -27.2224  -27.1195   20.1755 C   0  0  0  0  0  0
  -25.5951  -33.8492   24.2180 N   0  0  0  0  0  0
  -23.4471  -30.4574   21.5332 C   0  0  2  0  0  0
  -24.8955  -28.8643   20.1295 C   0  0  0  0  0  0
  -22.7568  -29.4535   22.4897 C   0  0  0  0  0  0
  -18.0306  -28.1388   22.8485 C   0  0  0  0  0  0
  -24.1491  -36.7250   23.2640 C   0  0  0  0  0  0
  -26.0014  -30.7114   21.3829 C   0  0  0  0  0  0
  -26.0731  -29.3137   20.7415 C   0  0  0  0  0  0
  -27.2390  -28.4601   20.7385 C   0  0  0  0  0  0
  -26.0160  -26.7583   19.5443 C   0  0  0  0  0  0
  -24.8779  -27.5993   19.5187 C   0  0  0  0  0  0
  -23.6757  -29.7738   20.1586 C   0  0  0  0  0  0
  -25.4124  -36.3025   24.0314 C   0  0  1  0  0  0
  -20.5916  -28.3709   23.1255 C   0  0  2  0  0  0
  -20.6803  -26.9417   22.5409 C   0  0  0  0  0  0
  -19.5771  -26.6376   21.5219 C   0  0  0  0  0  0
  -18.1954  -26.7924   22.1634 C   0  0  0  0  0  0
  -19.1563  -28.8868   23.2857 C   0  0  0  0  0  0
  -18.9475  -30.1467   23.8874 C   0  0  0  0  0  0
  -17.6471  -30.6591   24.0551 C   0  0  0  0  0  0
  -25.9080  -34.9402   23.5058 C   0  0  0  0  0  0
  -16.5363  -29.9085   23.6331 C   0  0  0  0  0  0
  -16.7291  -28.6499   23.0358 C   0  0  0  0  0  0
  -26.4533  -31.6552   25.0690 C   0  0  0  0  0  0
  -25.3717  -31.3729   26.1379 C   0  0  0  0  0  0
  -27.0400  -30.2953   24.6253 C   0  0  0  0  0  0
  -27.6062  -32.4311   25.7482 C   0  0  0  0  0  0
  -27.5575  -37.1781   24.8469 C   0  0  0  0  0  0
  -21.4263  -29.3036   22.3636 N   0  0  0  0  0  0
  -26.4286  -37.3742   23.9409 N   0  0  0  0  0  0
  -24.7176  -31.0270   22.0892 N   0  0  0  0  0  0
  -23.4209  -28.8095   23.3056 O   0  0  0  0  0  0
  -28.3351  -26.2146   20.0569 O   0  0  0  0  0  0
  -26.5662  -34.8899   22.4638 O   0  0  0  0  0  0
  -23.5555  -32.1316   23.7066 O   0  0  0  0  0  0
  -27.9739  -18.6836   21.3296 C   0  0  0  0  0  0
  -29.5996  -17.4230   22.2587 C   0  0  0  0  0  0
  -29.1422  -18.8934   20.6593 C   0  0  0  0  0  0
  -29.8794  -17.5782   20.9308 C   0  0  0  0  0  0
  -27.4843  -17.7105   23.6008 C   0  0  0  0  0  0
  -29.5698  -20.5006   20.5542 C   0  0  0  0  0  0
  -28.7735  -21.7959   19.8013 C   0  0  0  0  0  0
  -28.0199  -23.2246   20.3479 C   0  0  0  0  0  0
  -28.5555  -24.7971   20.6734 C   0  0  0  0  0  0
  -28.3196  -17.9244   22.4348 N   0  0  0  0  0  0
  -29.7330  -16.1575   20.3673 N   0  0  0  0  0  0
  -31.4751  -12.7828   19.1656 H   0  0  0  0  0  0
  -30.4572  -11.6665   20.0352 H   0  0  0  0  0  0
  -29.8403  -11.7071   17.5939 H   0  0  0  0  0  0
  -29.6046  -13.4368   17.6640 H   0  0  0  0  0  0
  -27.9565  -11.2661   18.9936 H   0  0  0  0  0  0
  -27.3912  -12.4210   17.8175 H   0  0  0  0  0  0
  -27.5791  -14.2438   19.3905 H   0  0  0  0  0  0
  -28.7736  -12.3254   21.4488 H   0  0  0  0  0  0
  -28.3717  -14.0063   21.7303 H   0  0  0  0  0  0
  -25.2728   -9.5702   22.4770 H   0  0  0  0  0  0
  -23.9995   -7.4643   22.7481 H   0  0  0  0  0  0
  -21.0837   -8.8772   19.8960 H   0  0  0  0  0  0
  -22.3669  -10.9680   19.6176 H   0  0  0  0  0  0
  -21.2007   -7.6137   23.9715 H   0  0  0  0  0  0
  -21.1489   -6.0514   25.9079 H   0  0  0  0  0  0
  -22.0591   -2.7605   23.2853 H   0  0  0  0  0  0
  -22.4020  -11.9921   22.4891 H   0  0  0  0  0  0
  -21.1023  -13.1270   22.2578 H   0  0  0  0  0  0
  -24.6490  -15.8442   20.5707 H   0  0  0  0  0  0
  -26.2724  -15.6533   20.1536 H   0  0  0  0  0  0
  -26.7265  -32.5301   23.0976 H   0  0  0  0  0  0
  -25.0084  -33.9623   25.0315 H   0  0  0  0  0  0
  -22.7492  -31.2818   21.3720 H   0  0  0  0  0  0
  -23.3759  -35.9579   23.3301 H   0  0  0  0  0  0
  -24.3569  -36.8884   22.2054 H   0  0  0  0  0  0
  -23.7245  -37.6444   23.6679 H   0  0  0  0  0  0
  -26.1502  -31.4565   20.6007 H   0  0  0  0  0  0
  -26.8754  -30.7747   22.0196 H   0  0  0  0  0  0
  -28.1502  -28.8150   21.1973 H   0  0  0  0  0  0
  -25.9527  -25.7950   19.0568 H   0  0  0  0  0  0
  -23.9781  -27.2509   19.0303 H   0  0  0  0  0  0
  -23.8191  -30.5404   19.3967 H   0  0  0  0  0  0
  -22.7901  -29.2166   19.8474 H   0  0  0  0  0  0
  -25.1314  -36.1850   25.0807 H   0  0  0  0  0  0
  -20.9992  -28.3281   24.1381 H   0  0  0  0  0  0
  -20.5718  -26.2317   23.3621 H   0  0  0  0  0  0
  -21.6674  -26.7454   22.1184 H   0  0  0  0  0  0
  -19.6937  -25.6286   21.1255 H   0  0  0  0  0  0
  -19.6690  -27.3181   20.6738 H   0  0  0  0  0  0
  -17.4216  -26.6651   21.4041 H   0  0  0  0  0  0
  -18.0347  -26.0082   22.9043 H   0  0  0  0  0  0
  -19.7950  -30.7292   24.2234 H   0  0  0  0  0  0
  -17.5026  -31.6269   24.5159 H   0  0  0  0  0  0
  -15.5365  -30.2972   23.7679 H   0  0  0  0  0  0
  -15.8688  -28.0809   22.7095 H   0  0  0  0  0  0
  -24.5930  -30.7040   25.7693 H   0  0  0  0  0  0
  -24.8868  -32.2907   26.4718 H   0  0  0  0  0  0
  -25.8007  -30.8965   27.0208 H   0  0  0  0  0  0
  -26.3009  -29.6671   24.1269 H   0  0  0  0  0  0
  -27.4041  -29.7245   25.4810 H   0  0  0  0  0  0
  -27.8905  -30.4202   23.9546 H   0  0  0  0  0  0
  -27.2667  -33.3646   26.1986 H   0  0  0  0  0  0
  -28.3921  -32.6819   25.0341 H   0  0  0  0  0  0
  -28.0680  -31.8480   26.5461 H   0  0  0  0  0  0
  -28.2586  -38.0080   24.7510 H   0  0  0  0  0  0
  -28.1075  -36.2612   24.6304 H   0  0  0  0  0  0
  -27.2292  -37.1433   25.8870 H   0  0  0  0  0  0
  -20.9494  -29.8732   21.6789 H   0  0  0  0  0  0
  -26.0152  -38.2811   24.1413 H   0  0  0  0  0  0
  -27.0740  -19.2828   21.3935 H   0  0  0  0  0  0
  -29.9497  -16.6981   22.9830 H   0  0  0  0  0  0
  -26.4380  -17.6370   23.3034 H   0  0  0  0  0  0
  -27.5984  -18.5437   24.2940 H   0  0  0  0  0  0
  -27.7699  -16.7866   24.1067 H   0  0  0  0  0  0
  -30.5638  -20.4707   20.1081 H   0  0  0  0  0  0
  -29.7690  -20.8140   21.5792 H   0  0  0  0  0  0
  -27.9932  -21.2950   19.2272 H   0  0  0  0  0  0
  -29.4567  -22.1336   19.0206 H   0  0  0  0  0  0
  -27.4872  -22.9156   21.2473 H   0  0  0  0  0  0
  -27.2101  -23.3894   19.6371 H   0  0  0  0  0  0
  -29.6425  -24.7096   20.6840 H   0  0  0  0  0  0
  -28.3152  -24.9554   21.7243 H   0  0  0  0  0  0
  -28.7801  -15.9380   20.1219 H   0  0  0  0  0  0
  1 25  1  0  0  0
  1 30  2  0  0  0
  1 81  1  0  0  0
  2  3  1  0  0  0
  2 25  1  0  0  0
  2 82  1  0  0  0
  2 83  1  0  0  0
  3  4  1  0  0  0
  3 84  1  0  0  0
  3 85  1  0  0  0
  4  5  1  0  0  0
  4 86  1  0  0  0
  4 87  1  0  0  0
  5  6  1  0  0  0
  5 26  1  0  0  0
  5 88  1  0  0  0
  6 25  1  0  0  0
  6 89  1  0  0  0
  6 90  1  0  0  0
  7  8  2  0  0  0
  7 26  1  0  0  0
  7 29  1  0  0  0
  8  9  1  0  0  0
  8 22  1  0  0  0
  9 10  1  0  0  0
  9 27  2  0  0  0
 10 11  2  0  0  0
 10 15  1  0  0  0
 11 12  1  0  0  0
 11 91  1  0  0  0
 12 13  2  0  0  0
 12 92  1  0  0  0
 13 14  1  0  0  0
 13 31  1  0  0  0
 14 15  2  0  0  0
 14 93  1  0  0  0
 15 94  1  0  0  0
 16 17  2  0  0  0
 16 21  1  0  0  0
 16 31  1  0  0  0
 17 18  1  0  0  0
 17 95  1  0  0  0
 18 19  2  0  0  0
 18 96  1  0  0  0
 19 20  1  0  0  0
 19 24  1  0  0  0
 20 21  2  0  0  0
 20 97  1  0  0  0
 21 23  1  0  0  0
 22 28  1  0  0  0
 22 32  2  0  0  0
 26 27  1  0  0  0
 28 98  1  0  0  0
 28 99  1  0  0  0
 29100  1  0  0  0
 29101  1  0  0  0
 33 34  1  0  0  0
 33 66  1  0  0  0
 33 70  2  0  0  0
 34 36  1  0  0  0
 34 59  1  0  0  0
 34102  1  0  0  0
 35 44  2  0  0  0
 35 45  1  0  0  0
 35 68  1  0  0  0
 36 56  1  0  0  0
 36103  1  0  0  0
 37 39  1  0  0  0
 37 47  1  0  0  0
 37 66  1  0  0  0
 37104  1  0  0  0
 38 43  2  0  0  0
 38 46  1  0  0  0
 38 47  1  0  0  0
 39 64  1  0  0  0
 39 67  2  0  0  0
 40 52  1  0  0  0
 40 53  2  0  0  0
 40 58  1  0  0  0
 41105  1  0  0  0
 41106  1  0  0  0
 41107  1  0  0  0
 41 48  1  0  0  0
 42 43  1  0  0  0
 42 66  1  0  0  0
 42108  1  0  0  0
 42109  1  0  0  0
 43 44  1  0  0  0
 44110  1  0  0  0
 45 46  2  0  0  0
 45111  1  0  0  0
 46112  1  0  0  0
 47113  1  0  0  0
 47114  1  0  0  0
 48 56  1  0  0  0
 48 65  1  0  0  0
 48115  1  0  0  0
 49 50  1  0  0  0
 49 53  1  0  0  0
 49 64  1  0  0  0
 49116  1  0  0  0
 50 51  1  0  0  0
 50117  1  0  0  0
 50118  1  0  0  0
 51 52  1  0  0  0
 51119  1  0  0  0
 51120  1  0  0  0
 52121  1  0  0  0
 52122  1  0  0  0
 53 54  1  0  0  0
 54 55  2  0  0  0
 54123  1  0  0  0
 55 57  1  0  0  0
 55124  1  0  0  0
 56 69  2  0  0  0
 57 58  2  0  0  0
 57125  1  0  0  0
 58126  1  0  0  0
 59 60  1  0  0  0
 59 61  1  0  0  0
 59 62  1  0  0  0
 60127  1  0  0  0
 60128  1  0  0  0
 60129  1  0  0  0
 61130  1  0  0  0
 61131  1  0  0  0
 61132  1  0  0  0
 62133  1  0  0  0
 62134  1  0  0  0
 62135  1  0  0  0
 63 65  1  0  0  0
 63136  1  0  0  0
 63137  1  0  0  0
 63138  1  0  0  0
 64139  1  0  0  0
 65140  1  0  0  0
 68 79  1  0  0  0
 71 73  2  0  0  0
 71 80  1  0  0  0
 71141  1  0  0  0
 72 74  2  0  0  0
 72 80  1  0  0  0
 72142  1  0  0  0
 73 74  1  0  0  0
 73 76  1  0  0  0
 74 81  1  0  0  0
 75 80  1  0  0  0
 75143  1  0  0  0
 75144  1  0  0  0
 75145  1  0  0  0
 76 77  1  0  0  0
 76146  1  0  0  0
 76147  1  0  0  0
 77 78  1  0  0  0
 77148  1  0  0  0
 77149  1  0  0  0
 78 79  1  0  0  0
 78150  1  0  0  0
 78151  1  0  0  0
 79152  1  0  0  0
 79153  1  0  0  0
 81154  1  0  0  0
M  ISO  4   1 100  68 101  79 101  81 100
M  END
> <chiral flag>
0

> <version>
0

> <s_m_source_file>
/data/baiqing/PycharmProjects/Reinvent-master-3.2/result/LINK_invent/BTK/process_docking_weight1_custom_sum_contain_oxygen_bond_distance_aromatic_linkinvent_7_9_3/rearranged_h_0083.sdf

> <i_m_source_file_index>
37

> <r_mmod_Potential_Energy-OPLS-2005>
949.053894042969

> <r_mmod_Stretch_Energy-OPLS-2005>
287.433776855469

> <r_mmod_Bend_Energy-OPLS-2005>
411.658508300781

> <r_mmod_Torsional_Energy-OPLS-2005>
474.082977294922

> <r_mmod_Improper_Torsional_Energy-OPLS-2005>
55.440258026123

> <r_mmod_Van_der_Waal_Energy-OPLS-2005>
101.22908782959

> <r_mmod_Electrostatic_Energy-OPLS-2005>
-368.151519775391

> <r_mmod_Solvation_Energy-OPLS-2005>
-211.516342163086

> <b_mmod_Minimization_Converged-OPLS-2005>
0

> <r_mmod_RMS_Derivative-OPLS-2005>
1.71890866756439

$$$$
37
                    3D
 Structure written by MMmdl.
169177  0  0  1  0            999 V2000
  -30.7130  -14.5141   20.4930 C   0  0  0  0  0  0
  -30.4230  -12.3130   19.4410 C   0  0  0  0  0  0
  -29.5068  -12.4859   18.2112 C   0  0  0  0  0  0
  -28.0249  -12.3581   18.6160 C   0  0  0  0  0  0
  -27.6607  -13.2167   19.8590 C   0  0  2  0  0  0
  -28.7055  -13.0625   20.9881 C   0  0  0  0  0  0
  -25.2637  -13.8184   20.5636 C   0  0  0  0  0  0
  -24.1902  -13.0459   20.9176 C   0  0  0  0  0  0
  -24.6450  -11.6931   20.8724 C   0  0  0  0  0  0
  -23.9093  -10.4327   21.0396 C   0  0  0  0  0  0
  -24.3651   -9.4249   21.9173 C   0  0  0  0  0  0
  -23.6336   -8.2276   22.0756 C   0  0  0  0  0  0
  -22.4311   -8.0308   21.3553 C   0  0  0  0  0  0
  -21.9937   -9.0279   20.4645 C   0  0  0  0  0  0
  -22.7262  -10.2168   20.3048 C   0  0  0  0  0  0
  -21.6860   -6.0769   22.5304 C   0  0  0  0  0  0
  -21.4010   -6.5665   23.8239 C   0  0  0  0  0  0
  -21.3658   -5.6809   24.9197 C   0  0  0  0  0  0
  -21.6039   -4.3066   24.7226 C   0  0  0  0  0  0
  -21.8832   -3.8172   23.4345 C   0  0  0  0  0  0
  -21.9200   -4.6996   22.3414 C   0  0  0  0  0  0
  -22.7918  -13.5260   21.1818 C   0  0  0  0  0  0
  -22.1671   -4.2200   21.0983 F   0  0  0  0  0  0
  -21.5629   -3.4545   25.7724 F   0  0  0  0  0  0
  -30.0297  -13.3408   20.4205 N   0  0  0  0  0  0
  -26.3058  -12.9362   20.3282 N   0  0  0  0  0  0
  -25.9383  -11.6517   20.5725 N   0  0  0  0  0  0
  -22.0541  -12.8265   22.0360 N   0  0  0  0  0  0
  -25.4306  -15.1899   20.4032 N   0  0  0  0  0  0
  -31.8995  -14.5923   20.1698 O   0  0  0  0  0  0
  -21.6658   -6.8913   21.4265 O   0  0  0  0  0  0
  -22.3621  -14.5566   20.6651 O   0  0  0  0  0  0
  -24.6158  -31.8669   23.2089 C   0  0  0  0  0  0
  -25.9039  -32.4815   23.8398 C   0  0  1  0  0  0
  -27.2243  -27.4158   20.1098 C   0  0  0  0  0  0
  -25.5895  -33.8621   24.2328 N   0  0  0  0  0  0
  -23.4038  -30.4900   21.5507 C   0  0  2  0  0  0
  -24.8512  -28.9617   20.1063 C   0  0  0  0  0  0
  -22.7423  -29.4636   22.4977 C   0  0  0  0  0  0
  -18.0271  -28.1369   22.8489 C   0  0  0  0  0  0
  -24.1485  -36.7313   23.2638 C   0  0  0  0  0  0
  -25.9334  -30.8314   21.3604 C   0  0  0  0  0  0
  -26.0119  -29.4660   20.7055 C   0  0  0  0  0  0
  -27.2044  -28.7032   20.7007 C   0  0  0  0  0  0
  -26.0527  -26.9432   19.4787 C   0  0  0  0  0  0
  -24.8682  -27.7025   19.4833 C   0  0  0  0  0  0
  -23.6110  -29.8256   20.1642 C   0  0  0  0  0  0
  -25.4103  -36.3117   24.0345 C   0  0  1  0  0  0
  -20.5859  -28.3658   23.1316 C   0  0  2  0  0  0
  -20.6766  -26.9386   22.5428 C   0  0  0  0  0  0
  -19.5747  -26.6374   21.5219 C   0  0  0  0  0  0
  -18.1919  -26.7908   22.1614 C   0  0  0  0  0  0
  -19.1524  -28.8827   23.2886 C   0  0  0  0  0  0
  -18.9446  -30.1437   23.8899 C   0  0  0  0  0  0
  -17.6457  -30.6580   24.0555 C   0  0  0  0  0  0
  -25.9034  -34.9481   23.5138 C   0  0  0  0  0  0
  -16.5343  -29.9091   23.6323 C   0  0  0  0  0  0
  -16.7258  -28.6493   23.0351 C   0  0  0  0  0  0
  -26.4472  -31.6595   25.0722 C   0  0  0  0  0  0
  -25.3742  -31.3693   26.1478 C   0  0  0  0  0  0
  -27.0312  -30.3047   24.6075 C   0  0  0  0  0  0
  -27.6052  -32.4311   25.7481 C   0  0  0  0  0  0
  -27.5577  -37.1808   24.8471 C   0  0  0  0  0  0
  -21.4151  -29.3031   22.3737 N   0  0  0  0  0  0
  -26.4301  -37.3802   23.9413 N   0  0  0  0  0  0
  -24.6701  -31.0771   22.0985 N   0  0  0  0  0  0
  -23.4191  -28.8160   23.3008 O   0  0  0  0  0  0
  -28.3580  -26.6265   20.1498 O   0  0  0  0  0  0
  -26.5594  -34.8936   22.4698 O   0  0  0  0  0  0
  -23.5347  -32.1437   23.7480 O   0  0  0  0  0  0
  -30.1808  -19.5236   20.1688 C   0  0  0  0  0  0
  -29.8993  -18.2349   20.5746 C   0  0  0  0  0  0
  -28.8837  -19.6912   21.9508 C   0  0  0  0  0  0
  -30.1270  -16.8904   18.4825 C   0  0  0  0  0  0
  -28.8418  -20.0601   24.4403 C   0  0  0  0  0  0
  -26.6893  -19.5780   23.1774 C   0  0  0  0  0  0
  -28.7648  -24.2685   18.4674 C   0  0  0  0  0  0
  -28.5802  -22.7263   20.4764 C   0  0  0  0  0  0
  -29.7560  -21.8831   21.0476 C   0  0  0  0  0  0
  -28.1641  -25.3043   20.7130 C   0  0  0  0  0  0
  -30.4101  -16.9231   19.9971 C   0  0  2  0  0  0
  -28.0850  -20.2174   23.1115 C   0  0  0  0  0  0
  -28.9531  -24.1727   19.9908 C   0  0  2  0  0  0
  -29.5799  -20.4004   21.0418 N   0  0  0  0  0  0
  -29.0978  -18.3884   21.6795 N   0  3  0  0  0  0
  -29.9714  -15.6424   20.6098 N   0  0  0  0  0  0
  -31.4712  -12.3906   19.1441 H   0  0  0  0  0  0
  -30.3098  -11.3158   19.8688 H   0  0  0  0  0  0
  -29.7526  -11.7469   17.4473 H   0  0  0  0  0  0
  -29.6826  -13.4607   17.7538 H   0  0  0  0  0  0
  -27.8231  -11.3048   18.8111 H   0  0  0  0  0  0
  -27.3883  -12.6359   17.7749 H   0  0  0  0  0  0
  -27.6819  -14.2543   19.5265 H   0  0  0  0  0  0
  -28.6916  -12.0498   21.3942 H   0  0  0  0  0  0
  -28.4844  -13.7290   21.8223 H   0  0  0  0  0  0
  -25.2802   -9.5737   22.4736 H   0  0  0  0  0  0
  -24.0061   -7.4671   22.7479 H   0  0  0  0  0  0
  -21.0869   -8.8800   19.8947 H   0  0  0  0  0  0
  -22.3713  -10.9709   19.6156 H   0  0  0  0  0  0
  -21.1991   -7.6174   23.9763 H   0  0  0  0  0  0
  -21.1451   -6.0524   25.9105 H   0  0  0  0  0  0
  -22.0594   -2.7634   23.2834 H   0  0  0  0  0  0
  -22.4107  -11.9924   22.4777 H   0  0  0  0  0  0
  -21.1135  -13.1309   22.2498 H   0  0  0  0  0  0
  -24.6506  -15.8300   20.5057 H   0  0  0  0  0  0
  -26.2531  -15.6309   20.0144 H   0  0  0  0  0  0
  -26.7095  -32.5522   23.1143 H   0  0  0  0  0  0
  -25.0099  -33.9792   25.0513 H   0  0  0  0  0  0
  -22.6935  -31.3069   21.4118 H   0  0  0  0  0  0
  -23.3762  -35.9626   23.3326 H   0  0  0  0  0  0
  -24.3586  -36.8909   22.2052 H   0  0  0  0  0  0
  -23.7226  -37.6518   23.6636 H   0  0  0  0  0  0
  -26.0465  -31.5977   20.5926 H   0  0  0  0  0  0
  -26.8217  -30.8853   21.9783 H   0  0  0  0  0  0
  -28.0978  -29.0859   21.1742 H   0  0  0  0  0  0
  -26.0469  -25.9787   18.9906 H   0  0  0  0  0  0
  -23.9775  -27.3144   19.0076 H   0  0  0  0  0  0
  -23.7128  -30.6012   19.4053 H   0  0  0  0  0  0
  -22.7358  -29.2432   19.8689 H   0  0  0  0  0  0
  -25.1273  -36.1995   25.0835 H   0  0  0  0  0  0
  -20.9932  -28.3213   24.1443 H   0  0  0  0  0  0
  -20.5669  -26.2250   23.3612 H   0  0  0  0  0  0
  -21.6625  -26.7437   22.1193 H   0  0  0  0  0  0
  -19.6916  -25.6292   21.1239 H   0  0  0  0  0  0
  -19.6689  -27.3190   20.6750 H   0  0  0  0  0  0
  -17.4186  -26.6660   21.4026 H   0  0  0  0  0  0
  -18.0301  -26.0064   22.9010 H   0  0  0  0  0  0
  -19.7932  -30.7240   24.2274 H   0  0  0  0  0  0
  -17.5016  -31.6263   24.5151 H   0  0  0  0  0  0
  -15.5347  -30.2984   23.7667 H   0  0  0  0  0  0
  -15.8649  -28.0823   22.7079 H   0  0  0  0  0  0
  -24.5895  -30.7055   25.7816 H   0  0  0  0  0  0
  -24.8950  -32.2847   26.4960 H   0  0  0  0  0  0
  -25.8103  -30.8842   27.0217 H   0  0  0  0  0  0
  -26.2854  -29.6796   24.1136 H   0  0  0  0  0  0
  -27.4132  -29.7278   25.4506 H   0  0  0  0  0  0
  -27.8659  -30.4411   23.9192 H   0  0  0  0  0  0
  -27.2675  -33.3599   26.2089 H   0  0  0  0  0  0
  -28.3834  -32.6890   25.0284 H   0  0  0  0  0  0
  -28.0734  -31.8413   26.5370 H   0  0  0  0  0  0
  -28.2605  -38.0097   24.7515 H   0  0  0  0  0  0
  -28.1067  -36.2635   24.6299 H   0  0  0  0  0  0
  -27.2302  -37.1455   25.8877 H   0  0  0  0  0  0
  -20.9314  -29.8771   21.6973 H   0  0  0  0  0  0
  -26.0205  -38.2881   24.1411 H   0  0  0  0  0  0
  -30.7998  -19.8697   19.3519 H   0  0  0  0  0  0
  -30.5605  -17.7531   17.9779 H   0  0  0  0  0  0
  -29.0563  -16.8862   18.2757 H   0  0  0  0  0  0
  -30.5646  -16.0115   18.0101 H   0  0  0  0  0  0
  -29.7951  -20.5908   24.4226 H   0  0  0  0  0  0
  -29.0522  -19.0131   24.6613 H   0  0  0  0  0  0
  -28.2629  -20.4635   25.2726 H   0  0  0  0  0  0
  -26.1501  -19.7125   22.2387 H   0  0  0  0  0  0
  -26.0866  -20.0335   23.9641 H   0  0  0  0  0  0
  -26.7445  -18.5078   23.3767 H   0  0  0  0  0  0
  -29.3432  -23.5015   17.9528 H   0  0  0  0  0  0
  -29.0955  -25.2343   18.0871 H   0  0  0  0  0  0
  -27.7197  -24.1399   18.1825 H   0  0  0  0  0  0
  -27.7864  -22.7824   21.2218 H   0  0  0  0  0  0
  -28.1403  -22.1738   19.6449 H   0  0  0  0  0  0
  -29.9809  -22.1891   22.0709 H   0  0  0  0  0  0
  -30.6586  -22.0886   20.4740 H   0  0  0  0  0  0
  -28.4893  -25.3472   21.7535 H   0  0  0  0  0  0
  -27.1120  -25.0228   20.7645 H   0  0  0  0  0  0
  -31.4949  -16.9954   20.1113 H   0  0  0  0  0  0
  -27.9447  -21.2819   22.9345 H   0  0  0  0  0  0
  -30.0114  -24.3500   20.1942 H   0  0  0  0  0  0
  -28.7346  -17.6286   22.2411 H   0  0  0  0  0  0
  -28.9915  -15.5250   20.8066 H   0  0  0  0  0  0
  1 25  1  0  0  0
  1 30  2  0  0  0
  1 86  1  0  0  0
  2  3  1  0  0  0
  2 25  1  0  0  0
  2 87  1  0  0  0
  2 88  1  0  0  0
  3  4  1  0  0  0
  3 89  1  0  0  0
  3 90  1  0  0  0
  4  5  1  0  0  0
  4 91  1  0  0  0
  4 92  1  0  0  0
  5  6  1  0  0  0
  5 26  1  0  0  0
  5 93  1  0  0  0
  6 25  1  0  0  0
  6 94  1  0  0  0
  6 95  1  0  0  0
  7  8  2  0  0  0
  7 26  1  0  0  0
  7 29  1  0  0  0
  8  9  1  0  0  0
  8 22  1  0  0  0
  9 10  1  0  0  0
  9 27  2  0  0  0
 10 11  2  0  0  0
 10 15  1  0  0  0
 11 12  1  0  0  0
 11 96  1  0  0  0
 12 13  2  0  0  0
 12 97  1  0  0  0
 13 14  1  0  0  0
 13 31  1  0  0  0
 14 15  2  0  0  0
 14 98  1  0  0  0
 15 99  1  0  0  0
 16 17  2  0  0  0
 16 21  1  0  0  0
 16 31  1  0  0  0
 17 18  1  0  0  0
 17100  1  0  0  0
 18 19  2  0  0  0
 18101  1  0  0  0
 19 20  1  0  0  0
 19 24  1  0  0  0
 20 21  2  0  0  0
 20102  1  0  0  0
 21 23  1  0  0  0
 22 28  1  0  0  0
 22 32  2  0  0  0
 26 27  1  0  0  0
 28103  1  0  0  0
 28104  1  0  0  0
 29105  1  0  0  0
 29106  1  0  0  0
 33 34  1  0  0  0
 33 66  1  0  0  0
 33 70  2  0  0  0
 34 36  1  0  0  0
 34 59  1  0  0  0
 34107  1  0  0  0
 35 44  2  0  0  0
 35 45  1  0  0  0
 35 68  1  0  0  0
 36 56  1  0  0  0
 36108  1  0  0  0
 37 39  1  0  0  0
 37 47  1  0  0  0
 37 66  1  0  0  0
 37109  1  0  0  0
 38 43  2  0  0  0
 38 46  1  0  0  0
 38 47  1  0  0  0
 39 64  1  0  0  0
 39 67  2  0  0  0
 40 52  1  0  0  0
 40 53  2  0  0  0
 40 58  1  0  0  0
 41110  1  0  0  0
 41111  1  0  0  0
 41112  1  0  0  0
 41 48  1  0  0  0
 42 43  1  0  0  0
 42 66  1  0  0  0
 42113  1  0  0  0
 42114  1  0  0  0
 43 44  1  0  0  0
 44115  1  0  0  0
 45 46  2  0  0  0
 45116  1  0  0  0
 46117  1  0  0  0
 47118  1  0  0  0
 47119  1  0  0  0
 48 56  1  0  0  0
 48 65  1  0  0  0
 48120  1  0  0  0
 49 50  1  0  0  0
 49 53  1  0  0  0
 49 64  1  0  0  0
 49121  1  0  0  0
 50 51  1  0  0  0
 50122  1  0  0  0
 50123  1  0  0  0
 51 52  1  0  0  0
 51124  1  0  0  0
 51125  1  0  0  0
 52126  1  0  0  0
 52127  1  0  0  0
 53 54  1  0  0  0
 54 55  2  0  0  0
 54128  1  0  0  0
 55 57  1  0  0  0
 55129  1  0  0  0
 56 69  2  0  0  0
 57 58  2  0  0  0
 57130  1  0  0  0
 58131  1  0  0  0
 59 60  1  0  0  0
 59 61  1  0  0  0
 59 62  1  0  0  0
 60132  1  0  0  0
 60133  1  0  0  0
 60134  1  0  0  0
 61135  1  0  0  0
 61136  1  0  0  0
 61137  1  0  0  0
 62138  1  0  0  0
 62139  1  0  0  0
 62140  1  0  0  0
 63 65  1  0  0  0
 63141  1  0  0  0
 63142  1  0  0  0
 63143  1  0  0  0
 64144  1  0  0  0
 65145  1  0  0  0
 68 80  1  0  0  0
 71 72  2  0  0  0
 71 84  1  0  0  0
 71146  1  0  0  0
 72 81  1  0  0  0
 72 85  1  0  0  0
 73 82  1  0  0  0
 73 84  1  0  0  0
 73 85  2  0  0  0
 74147  1  0  0  0
 74148  1  0  0  0
 74149  1  0  0  0
 74 81  1  0  0  0
 75150  1  0  0  0
 75151  1  0  0  0
 75152  1  0  0  0
 75 82  1  0  0  0
 76 82  1  0  0  0
 76153  1  0  0  0
 76154  1  0  0  0
 76155  1  0  0  0
 77156  1  0  0  0
 77157  1  0  0  0
 77158  1  0  0  0
 77 83  1  0  0  0
 78 79  1  0  0  0
 78 83  1  0  0  0
 78159  1  0  0  0
 78160  1  0  0  0
 79 84  1  0  0  0
 79161  1  0  0  0
 79162  1  0  0  0
 80 83  1  0  0  0
 80163  1  0  0  0
 80164  1  0  0  0
 81 86  1  0  0  0
 81165  1  0  0  0
 82166  1  0  0  0
 83167  1  0  0  0
 85168  1  0  0  0
 86169  1  0  0  0
M  CHG  1  85   1
M  ISO  4   1 100  68 101  80 101  86 100
M  END
> <chiral flag>
0

> <version>
0

> <s_m_source_file>
/data/baiqing/PycharmProjects/Reinvent-master-3.2/result/LINK_invent/BTK/process_docking_weight1_custom_sum_contain_oxygen_bond_distance_aromatic_linkinvent_7_9_3/rearranged_h_0083.sdf

> <i_m_source_file_index>
38

> <r_mmod_Potential_Energy-OPLS-2005>
-122.058219909668

> <r_mmod_Stretch_Energy-OPLS-2005>
43.224983215332

> <r_mmod_Bend_Energy-OPLS-2005>
106.512878417969

> <r_mmod_Torsional_Energy-OPLS-2005>
273.178161621094

> <r_mmod_Improper_Torsional_Energy-OPLS-2005>
10.2683134078979

> <r_mmod_Van_der_Waal_Energy-OPLS-2005>
123.788246154785

> <r_mmod_Electrostatic_Energy-OPLS-2005>
-291.722442626953

> <r_mmod_Solvation_Energy-OPLS-2005>
-411.540679931641

> <b_mmod_Minimization_Converged-OPLS-2005>
0

> <r_mmod_RMS_Derivative-OPLS-2005>
2.92945504188538

$$$$
38
                    3D
 Structure written by MMmdl.
161169  0  0  1  0            999 V2000
  -30.5600  -14.9461   20.4202 C   0  0  0  0  0  0
  -30.4297  -12.5851   19.4946 C   0  0  0  0  0  0
  -29.5143  -12.5243   18.2514 C   0  0  0  0  0  0
  -28.0497  -12.3104   18.6744 C   0  0  0  0  0  0
  -27.6255  -13.2482   19.8344 C   0  0  2  0  0  0
  -28.6689  -13.2917   20.9711 C   0  0  0  0  0  0
  -25.2452  -13.8218   20.5717 C   0  0  0  0  0  0
  -24.1772  -13.0436   20.9243 C   0  0  0  0  0  0
  -24.6382  -11.6923   20.8756 C   0  0  0  0  0  0
  -23.9064  -10.4292   21.0408 C   0  0  0  0  0  0
  -24.3617   -9.4211   21.9189 C   0  0  0  0  0  0
  -23.6291   -8.2246   22.0755 C   0  0  0  0  0  0
  -22.4282   -8.0274   21.3536 C   0  0  0  0  0  0
  -21.9910   -9.0250   20.4646 C   0  0  0  0  0  0
  -22.7235  -10.2133   20.3055 C   0  0  0  0  0  0
  -21.6858   -6.0732   22.5276 C   0  0  0  0  0  0
  -21.4016   -6.5637   23.8208 C   0  0  0  0  0  0
  -21.3656   -5.6790   24.9171 C   0  0  0  0  0  0
  -21.6050   -4.3054   24.7227 C   0  0  0  0  0  0
  -21.8818   -3.8142   23.4347 C   0  0  0  0  0  0
  -21.9195   -4.6958   22.3400 C   0  0  0  0  0  0
  -22.7797  -13.5211   21.1887 C   0  0  0  0  0  0
  -22.1666   -4.2140   21.0980 F   0  0  0  0  0  0
  -21.5623   -3.4538   25.7739 F   0  0  0  0  0  0
  -29.9409  -13.6964   20.3621 N   0  0  0  0  0  0
  -26.2865  -12.9447   20.3234 N   0  0  0  0  0  0
  -25.9318  -11.6578   20.5747 N   0  0  0  0  0  0
  -22.0449  -12.8192   22.0442 N   0  0  0  0  0  0
  -25.4099  -15.1944   20.4133 N   0  0  0  0  0  0
  -31.7731  -14.9551   20.1765 O   0  0  0  0  0  0
  -21.6644   -6.8875   21.4239 O   0  0  0  0  0  0
  -22.3481  -14.5517   20.6735 O   0  0  0  0  0  0
  -24.6440  -31.8435   23.1881 C   0  0  0  0  0  0
  -25.9215  -32.4698   23.8266 C   0  0  1  0  0  0
  -27.2188  -27.1255   20.1527 C   0  0  0  0  0  0
  -25.5953  -33.8499   24.2177 N   0  0  0  0  0  0
  -23.4494  -30.4599   21.5341 C   0  0  2  0  0  0
  -24.9007  -28.8849   20.1093 C   0  0  0  0  0  0
  -22.7583  -29.4529   22.4872 C   0  0  0  0  0  0
  -18.0303  -28.1390   22.8476 C   0  0  0  0  0  0
  -24.1498  -36.7246   23.2643 C   0  0  0  0  0  0
  -26.0047  -30.7114   21.3910 C   0  0  0  0  0  0
  -26.0761  -29.3217   20.7322 C   0  0  0  0  0  0
  -27.2345  -28.4557   20.7401 C   0  0  0  0  0  0
  -26.0207  -26.7958   19.4816 C   0  0  0  0  0  0
  -24.8849  -27.6357   19.4702 C   0  0  0  0  0  0
  -23.6776  -29.7881   20.1533 C   0  0  0  0  0  0
  -25.4133  -36.3035   24.0309 C   0  0  1  0  0  0
  -20.5919  -28.3721   23.1240 C   0  0  2  0  0  0
  -20.6800  -26.9425   22.5412 C   0  0  0  0  0  0
  -19.5774  -26.6379   21.5214 C   0  0  0  0  0  0
  -18.1950  -26.7931   22.1618 C   0  0  0  0  0  0
  -19.1557  -28.8873   23.2850 C   0  0  0  0  0  0
  -18.9482  -30.1476   23.8874 C   0  0  0  0  0  0
  -17.6477  -30.6599   24.0548 C   0  0  0  0  0  0
  -25.9080  -34.9408   23.5058 C   0  0  0  0  0  0
  -16.5368  -29.9084   23.6344 C   0  0  0  0  0  0
  -16.7292  -28.6507   23.0359 C   0  0  0  0  0  0
  -26.4529  -31.6577   25.0719 C   0  0  0  0  0  0
  -25.3695  -31.3774   26.1401 C   0  0  0  0  0  0
  -27.0398  -30.2964   24.6326 C   0  0  0  0  0  0
  -27.6059  -32.4348   25.7500 C   0  0  0  0  0  0
  -27.5585  -37.1781   24.8465 C   0  0  0  0  0  0
  -21.4269  -29.3034   22.3618 N   0  0  0  0  0  0
  -26.4295  -37.3736   23.9403 N   0  0  0  0  0  0
  -24.7187  -31.0267   22.0930 N   0  0  0  0  0  0
  -23.4222  -28.8087   23.3033 O   0  0  0  0  0  0
  -28.2707  -26.1382   20.2453 O   0  0  0  0  0  0
  -26.5674  -34.8905   22.4641 O   0  0  0  0  0  0
  -23.5557  -32.1315   23.7090 O   0  0  0  0  0  0
  -29.3707  -18.8576   20.3873 C   0  0  0  0  0  0
  -29.8302  -20.2735   20.5347 C   0  0  0  0  0  0
  -31.2190  -20.3403   20.9319 C   0  0  0  0  0  0
  -31.9250  -19.1239   21.2036 C   0  0  0  0  0  0
  -30.1907  -17.6340   20.6159 C   0  0  0  0  0  0
  -33.3433  -19.0780   21.7603 C   0  0  0  0  0  0
  -31.6604  -22.4360   22.3894 C   0  0  0  0  0  0
  -32.2501  -22.4769   19.8170 C   0  0  0  0  0  0
  -28.8887  -21.6414   20.2733 C   0  0  0  0  0  0
  -28.9489  -23.3305   20.6262 C   0  0  0  0  0  0
  -28.0691  -24.6118   19.9664 C   0  0  0  0  0  0
  -32.0072  -21.6618   21.1061 C   0  0  0  0  0  0
  -31.4370  -17.8805   21.0378 N   0  0  0  0  0  0
  -29.7989  -16.1564   20.4954 N   0  0  0  0  0  0
  -31.4648  -12.7270   19.1816 H   0  0  0  0  0  0
  -30.4109  -11.6369   20.0337 H   0  0  0  0  0  0
  -29.8310  -11.7234   17.5818 H   0  0  0  0  0  0
  -29.6020  -13.4523   17.6841 H   0  0  0  0  0  0
  -27.9511  -11.2714   18.9908 H   0  0  0  0  0  0
  -27.3828  -12.4337   17.8198 H   0  0  0  0  0  0
  -27.5841  -14.2462   19.3984 H   0  0  0  0  0  0
  -28.7581  -12.3248   21.4693 H   0  0  0  0  0  0
  -28.3716  -14.0100   21.7374 H   0  0  0  0  0  0
  -25.2758   -9.5697   22.4772 H   0  0  0  0  0  0
  -23.9997   -7.4646   22.7483 H   0  0  0  0  0  0
  -21.0836   -8.8776   19.8955 H   0  0  0  0  0  0
  -22.3686  -10.9679   19.6170 H   0  0  0  0  0  0
  -21.2012   -7.6146   23.9706 H   0  0  0  0  0  0
  -21.1478   -6.0524   25.9072 H   0  0  0  0  0  0
  -22.0600   -2.7603   23.2853 H   0  0  0  0  0  0
  -22.4069  -11.9850   22.4823 H   0  0  0  0  0  0
  -21.1071  -13.1221   22.2663 H   0  0  0  0  0  0
  -24.6350  -15.8404   20.5198 H   0  0  0  0  0  0
  -26.2426  -15.6372   20.0493 H   0  0  0  0  0  0
  -26.7279  -32.5305   23.0996 H   0  0  0  0  0  0
  -25.0051  -33.9604   25.0290 H   0  0  0  0  0  0
  -22.7518  -31.2863   21.3794 H   0  0  0  0  0  0
  -23.3775  -35.9562   23.3283 H   0  0  0  0  0  0
  -24.3570  -36.8907   22.2058 H   0  0  0  0  0  0
  -23.7236  -37.6423   23.6703 H   0  0  0  0  0  0
  -26.1619  -31.4680   20.6211 H   0  0  0  0  0  0
  -26.8725  -30.7601   22.0363 H   0  0  0  0  0  0
  -28.1283  -28.7798   21.2553 H   0  0  0  0  0  0
  -25.9271  -25.8450   18.9800 H   0  0  0  0  0  0
  -23.9861  -27.2955   18.9735 H   0  0  0  0  0  0
  -23.8161  -30.5633   19.3983 H   0  0  0  0  0  0
  -22.7937  -29.2288   19.8433 H   0  0  0  0  0  0
  -25.1322  -36.1862   25.0799 H   0  0  0  0  0  0
  -20.9988  -28.3313   24.1362 H   0  0  0  0  0  0
  -20.5700  -26.2321   23.3623 H   0  0  0  0  0  0
  -21.6664  -26.7439   22.1202 H   0  0  0  0  0  0
  -19.6923  -25.6274   21.1276 H   0  0  0  0  0  0
  -19.6719  -27.3168   20.6732 H   0  0  0  0  0  0
  -17.4220  -26.6682   21.4025 H   0  0  0  0  0  0
  -18.0338  -26.0077   22.9014 H   0  0  0  0  0  0
  -19.7956  -30.7295   24.2234 H   0  0  0  0  0  0
  -17.5029  -31.6276   24.5158 H   0  0  0  0  0  0
  -15.5364  -30.2970   23.7691 H   0  0  0  0  0  0
  -15.8689  -28.0823   22.7072 H   0  0  0  0  0  0
  -24.5871  -30.7143   25.7695 H   0  0  0  0  0  0
  -24.8888  -32.2960   26.4777 H   0  0  0  0  0  0
  -25.7940  -30.8961   27.0219 H   0  0  0  0  0  0
  -26.3023  -29.6669   24.1335 H   0  0  0  0  0  0
  -27.3985  -29.7292   25.4927 H   0  0  0  0  0  0
  -27.8946  -30.4174   23.9665 H   0  0  0  0  0  0
  -27.2673  -33.3695   26.1976 H   0  0  0  0  0  0
  -28.3920  -32.6825   25.0357 H   0  0  0  0  0  0
  -28.0666  -31.8535   26.5497 H   0  0  0  0  0  0
  -28.2590  -38.0090   24.7522 H   0  0  0  0  0  0
  -28.1099  -36.2617   24.6296 H   0  0  0  0  0  0
  -27.2295  -37.1423   25.8865 H   0  0  0  0  0  0
  -20.9491  -29.8740   21.6782 H   0  0  0  0  0  0
  -26.0176  -38.2806   24.1409 H   0  0  0  0  0  0
  -28.3452  -18.7109   20.0774 H   0  0  0  0  0  0
  -34.0656  -19.4405   21.0291 H   0  0  0  0  0  0
  -33.6388  -18.0634   22.0316 H   0  0  0  0  0  0
  -33.4237  -19.6748   22.6697 H   0  0  0  0  0  0
  -31.9241  -21.8423   23.2652 H   0  0  0  0  0  0
  -30.6119  -22.6785   22.5029 H   0  0  0  0  0  0
  -32.2268  -23.3656   22.4546 H   0  0  0  0  0  0
  -32.8729  -21.9086   19.1251 H   0  0  0  0  0  0
  -32.7949  -23.3953   20.0408 H   0  0  0  0  0  0
  -31.3694  -22.7605   19.2553 H   0  0  0  0  0  0
  -29.5530  -21.7564   19.4234 H   0  0  0  0  0  0
  -29.0682  -21.5307   21.3398 H   0  0  0  0  0  0
  -29.9762  -23.6626   20.5364 H   0  0  0  0  0  0
  -28.7375  -23.4432   21.6913 H   0  0  0  0  0  0
  -27.0318  -24.3834   20.2092 H   0  0  0  0  0  0
  -28.1337  -24.5077   18.8831 H   0  0  0  0  0  0
  -33.0434  -21.4177   21.3132 H   0  0  0  0  0  0
  -28.8053  -15.9982   20.5011 H   0  0  0  0  0  0
  1 25  1  0  0  0
  1 30  2  0  0  0
  1 84  1  0  0  0
  2  3  1  0  0  0
  2 25  1  0  0  0
  2 85  1  0  0  0
  2 86  1  0  0  0
  3  4  1  0  0  0
  3 87  1  0  0  0
  3 88  1  0  0  0
  4  5  1  0  0  0
  4 89  1  0  0  0
  4 90  1  0  0  0
  5  6  1  0  0  0
  5 26  1  0  0  0
  5 91  1  0  0  0
  6 25  1  0  0  0
  6 92  1  0  0  0
  6 93  1  0  0  0
  7  8  2  0  0  0
  7 26  1  0  0  0
  7 29  1  0  0  0
  8  9  1  0  0  0
  8 22  1  0  0  0
  9 10  1  0  0  0
  9 27  2  0  0  0
 10 11  2  0  0  0
 10 15  1  0  0  0
 11 12  1  0  0  0
 11 94  1  0  0  0
 12 13  2  0  0  0
 12 95  1  0  0  0
 13 14  1  0  0  0
 13 31  1  0  0  0
 14 15  2  0  0  0
 14 96  1  0  0  0
 15 97  1  0  0  0
 16 17  2  0  0  0
 16 21  1  0  0  0
 16 31  1  0  0  0
 17 18  1  0  0  0
 17 98  1  0  0  0
 18 19  2  0  0  0
 18 99  1  0  0  0
 19 20  1  0  0  0
 19 24  1  0  0  0
 20 21  2  0  0  0
 20100  1  0  0  0
 21 23  1  0  0  0
 22 28  1  0  0  0
 22 32  2  0  0  0
 26 27  1  0  0  0
 28101  1  0  0  0
 28102  1  0  0  0
 29103  1  0  0  0
 29104  1  0  0  0
 33 34  1  0  0  0
 33 66  1  0  0  0
 33 70  2  0  0  0
 34 36  1  0  0  0
 34 59  1  0  0  0
 34105  1  0  0  0
 35 44  2  0  0  0
 35 45  1  0  0  0
 35 68  1  0  0  0
 36 56  1  0  0  0
 36106  1  0  0  0
 37 39  1  0  0  0
 37 47  1  0  0  0
 37 66  1  0  0  0
 37107  1  0  0  0
 38 43  2  0  0  0
 38 46  1  0  0  0
 38 47  1  0  0  0
 39 64  1  0  0  0
 39 67  2  0  0  0
 40 52  1  0  0  0
 40 53  2  0  0  0
 40 58  1  0  0  0
 41108  1  0  0  0
 41109  1  0  0  0
 41110  1  0  0  0
 41 48  1  0  0  0
 42 43  1  0  0  0
 42 66  1  0  0  0
 42111  1  0  0  0
 42112  1  0  0  0
 43 44  1  0  0  0
 44113  1  0  0  0
 45 46  2  0  0  0
 45114  1  0  0  0
 46115  1  0  0  0
 47116  1  0  0  0
 47117  1  0  0  0
 48 56  1  0  0  0
 48 65  1  0  0  0
 48118  1  0  0  0
 49 50  1  0  0  0
 49 53  1  0  0  0
 49 64  1  0  0  0
 49119  1  0  0  0
 50 51  1  0  0  0
 50120  1  0  0  0
 50121  1  0  0  0
 51 52  1  0  0  0
 51122  1  0  0  0
 51123  1  0  0  0
 52124  1  0  0  0
 52125  1  0  0  0
 53 54  1  0  0  0
 54 55  2  0  0  0
 54126  1  0  0  0
 55 57  1  0  0  0
 55127  1  0  0  0
 56 69  2  0  0  0
 57 58  2  0  0  0
 57128  1  0  0  0
 58129  1  0  0  0
 59 60  1  0  0  0
 59 61  1  0  0  0
 59 62  1  0  0  0
 60130  1  0  0  0
 60131  1  0  0  0
 60132  1  0  0  0
 61133  1  0  0  0
 61134  1  0  0  0
 61135  1  0  0  0
 62136  1  0  0  0
 62137  1  0  0  0
 62138  1  0  0  0
 63 65  1  0  0  0
 63139  1  0  0  0
 63140  1  0  0  0
 63141  1  0  0  0
 64142  1  0  0  0
 65143  1  0  0  0
 68 81  1  0  0  0
 71 72  2  0  0  0
 71 75  1  0  0  0
 71144  1  0  0  0
 72 73  1  0  0  0
 72 79  1  0  0  0
 73 74  2  0  0  0
 73 82  1  0  0  0
 74 76  1  0  0  0
 74 83  1  0  0  0
 75 83  2  0  0  0
 75 84  1  0  0  0
 76145  1  0  0  0
 76146  1  0  0  0
 76147  1  0  0  0
 77148  1  0  0  0
 77149  1  0  0  0
 77150  1  0  0  0
 77 82  1  0  0  0
 78 82  1  0  0  0
 78151  1  0  0  0
 78152  1  0  0  0
 78153  1  0  0  0
 79 80  1  0  0  0
 79154  1  0  0  0
 79155  1  0  0  0
 80 81  1  0  0  0
 80156  1  0  0  0
 80157  1  0  0  0
 81158  1  0  0  0
 81159  1  0  0  0
 82160  1  0  0  0
 84161  1  0  0  0
M  ISO  4   1 100  68 101  81 101  84 100
M  END
> <chiral flag>
0

> <version>
0

> <s_m_source_file>
/data/baiqing/PycharmProjects/Reinvent-master-3.2/result/LINK_invent/BTK/process_docking_weight1_custom_sum_contain_oxygen_bond_distance_aromatic_linkinvent_7_9_3/rearranged_h_0083.sdf

> <i_m_source_file_index>
39

> <r_mmod_Potential_Energy-OPLS-2005>
624.426696777344

> <r_mmod_Stretch_Energy-OPLS-2005>
294.106872558594

> <r_mmod_Bend_Energy-OPLS-2005>
494.739318847656

> <r_mmod_Torsional_Energy-OPLS-2005>
213.408752441406

> <r_mmod_Improper_Torsional_Energy-OPLS-2005>
5.86283683776855

> <r_mmod_Van_der_Waal_Energy-OPLS-2005>
158.693115234375

> <r_mmod_Electrostatic_Energy-OPLS-2005>
-506.386444091797

> <r_mmod_Solvation_Energy-OPLS-2005>
-231.734573364258

> <b_mmod_Minimization_Converged-OPLS-2005>
0

> <r_mmod_RMS_Derivative-OPLS-2005>
1.56027913093567

$$$$
39
                    3D
 Structure written by MMmdl.
165173  0  0  1  0            999 V2000
  -30.6439  -14.6948   20.4691 C   0  0  0  0  0  0
  -30.4236  -12.4249   19.4589 C   0  0  0  0  0  0
  -29.4995  -12.4949   18.2255 C   0  0  0  0  0  0
  -28.0259  -12.3313   18.6442 C   0  0  0  0  0  0
  -27.6399  -13.2300   19.8492 C   0  0  2  0  0  0
  -28.6874  -13.1575   20.9816 C   0  0  0  0  0  0
  -25.2499  -13.8201   20.5696 C   0  0  0  0  0  0
  -24.1794  -13.0441   20.9216 C   0  0  0  0  0  0
  -24.6390  -11.6921   20.8763 C   0  0  0  0  0  0
  -23.9074  -10.4293   21.0418 C   0  0  0  0  0  0
  -24.3621   -9.4206   21.9194 C   0  0  0  0  0  0
  -23.6293   -8.2243   22.0761 C   0  0  0  0  0  0
  -22.4279   -8.0283   21.3546 C   0  0  0  0  0  0
  -21.9916   -9.0258   20.4653 C   0  0  0  0  0  0
  -22.7247  -10.2136   20.3065 C   0  0  0  0  0  0
  -21.6854   -6.0738   22.5278 C   0  0  0  0  0  0
  -21.4014   -6.5642   23.8212 C   0  0  0  0  0  0
  -21.3660   -5.6793   24.9175 C   0  0  0  0  0  0
  -21.6042   -4.3054   24.7226 C   0  0  0  0  0  0
  -21.8820   -3.8148   23.4346 C   0  0  0  0  0  0
  -21.9192   -4.6965   22.3401 C   0  0  0  0  0  0
  -22.7816  -13.5216   21.1869 C   0  0  0  0  0  0
  -22.1662   -4.2149   21.0976 F   0  0  0  0  0  0
  -21.5625   -3.4540   25.7741 F   0  0  0  0  0  0
  -29.9897  -13.4884   20.3917 N   0  0  0  0  0  0
  -26.2926  -12.9406   20.3292 N   0  0  0  0  0  0
  -25.9319  -11.6550   20.5773 N   0  0  0  0  0  0
  -22.0467  -12.8208   22.0431 N   0  0  0  0  0  0
  -25.4164  -15.1927   20.4093 N   0  0  0  0  0  0
  -31.8377  -14.7500   20.1560 O   0  0  0  0  0  0
  -21.6639   -6.8882   21.4238 O   0  0  0  0  0  0
  -22.3504  -14.5524   20.6719 O   0  0  0  0  0  0
  -24.6261  -31.8576   23.1982 C   0  0  0  0  0  0
  -25.9101  -32.4761   23.8322 C   0  0  1  0  0  0
  -27.2217  -27.3022   20.1330 C   0  0  0  0  0  0
  -25.5907  -33.8565   24.2254 N   0  0  0  0  0  0
  -23.4214  -30.4779   21.5429 C   0  0  2  0  0  0
  -24.8681  -28.9222   20.1171 C   0  0  0  0  0  0
  -22.7474  -29.4607   22.4944 C   0  0  0  0  0  0
  -18.0287  -28.1379   22.8489 C   0  0  0  0  0  0
  -24.1499  -36.7294   23.2639 C   0  0  0  0  0  0
  -25.9626  -30.7839   21.3711 C   0  0  0  0  0  0
  -26.0375  -29.4077   20.7168 C   0  0  0  0  0  0
  -27.2217  -28.6117   20.7064 C   0  0  0  0  0  0
  -26.0319  -26.8588   19.5229 C   0  0  0  0  0  0
  -24.8667  -27.6537   19.5112 C   0  0  0  0  0  0
  -23.6364  -29.8056   20.1612 C   0  0  0  0  0  0
  -25.4124  -36.3080   24.0327 C   0  0  1  0  0  0
  -20.5886  -28.3681   23.1292 C   0  0  2  0  0  0
  -20.6783  -26.9405   22.5418 C   0  0  0  0  0  0
  -19.5757  -26.6382   21.5221 C   0  0  0  0  0  0
  -18.1932  -26.7926   22.1626 C   0  0  0  0  0  0
  -19.1537  -28.8848   23.2880 C   0  0  0  0  0  0
  -18.9460  -30.1452   23.8893 C   0  0  0  0  0  0
  -17.6460  -30.6581   24.0560 C   0  0  0  0  0  0
  -25.9061  -34.9446   23.5099 C   0  0  0  0  0  0
  -16.5354  -29.9079   23.6328 C   0  0  0  0  0  0
  -16.7275  -28.6496   23.0351 C   0  0  0  0  0  0
  -26.4486  -31.6572   25.0695 C   0  0  0  0  0  0
  -25.3704  -31.3692   26.1408 C   0  0  0  0  0  0
  -27.0330  -30.2995   24.6152 C   0  0  0  0  0  0
  -27.6064  -32.4298   25.7451 C   0  0  0  0  0  0
  -27.5591  -37.1791   24.8458 C   0  0  0  0  0  0
  -21.4190  -29.3028   22.3682 N   0  0  0  0  0  0
  -26.4306  -37.3770   23.9401 N   0  0  0  0  0  0
  -24.6888  -31.0571   22.0944 N   0  0  0  0  0  0
  -23.4190  -28.8163   23.3038 O   0  0  0  0  0  0
  -28.3443  -26.4671   20.1030 O   0  0  0  0  0  0
  -26.5648  -34.8913   22.4681 O   0  0  0  0  0  0
  -23.5424  -32.1404   23.7294 O   0  0  0  0  0  0
  -29.5008  -18.3937   20.5724 C   0  0  0  0  0  0
  -29.9112  -19.7593   20.8539 C   0  0  0  0  0  0
  -31.1827  -19.8692   21.5179 C   0  0  0  0  0  0
  -30.3187  -17.2337   20.8563 C   0  0  0  0  0  0
  -31.9670  -18.6945   21.6705 C   0  0  0  0  0  0
  -32.7321  -21.8364   21.0678 C   0  0  0  0  0  0
  -32.3461  -21.1251   23.4874 C   0  0  0  0  0  0
  -34.0526  -17.6023   22.2474 C   0  0  0  0  0  0
  -28.9962  -20.9854   20.3479 C   0  0  0  0  0  0
  -29.1447  -22.5411   20.7789 C   0  0  0  0  0  0
  -28.3404  -23.7421   20.0700 C   0  0  0  0  0  0
  -28.3129  -25.1658   20.8167 C   0  0  0  0  0  0
  -31.7535  -21.1912   22.0621 C   0  0  0  0  0  0
  -31.5361  -17.4552   21.3736 N   0  0  0  0  0  0
  -29.8855  -15.8436   20.6337 N   0  0  0  0  0  0
  -33.2698  -18.7879   22.1177 O   0  0  0  0  0  0
  -31.4644  -12.5351   19.1499 H   0  0  0  0  0  0
  -30.3576  -11.4474   19.9390 H   0  0  0  0  0  0
  -29.7692  -11.7206   17.5059 H   0  0  0  0  0  0
  -29.6349  -13.4496   17.7151 H   0  0  0  0  0  0
  -27.8744  -11.2829   18.9036 H   0  0  0  0  0  0
  -27.3673  -12.5313   17.7982 H   0  0  0  0  0  0
  -27.6352  -14.2521   19.4700 H   0  0  0  0  0  0
  -28.7119  -12.1628   21.4280 H   0  0  0  0  0  0
  -28.4349  -13.8490   21.7874 H   0  0  0  0  0  0
  -25.2762   -9.5681   22.4777 H   0  0  0  0  0  0
  -23.9997   -7.4637   22.7485 H   0  0  0  0  0  0
  -21.0844   -8.8784   19.8962 H   0  0  0  0  0  0
  -22.3705  -10.9679   19.6180 H   0  0  0  0  0  0
  -21.2012   -7.6155   23.9715 H   0  0  0  0  0  0
  -21.1477   -6.0526   25.9075 H   0  0  0  0  0  0
  -22.0599   -2.7611   23.2847 H   0  0  0  0  0  0
  -22.4074  -11.9853   22.4794 H   0  0  0  0  0  0
  -21.1097  -13.1246   22.2669 H   0  0  0  0  0  0
  -24.6417  -15.8391   20.5134 H   0  0  0  0  0  0
  -26.2505  -15.6347   20.0462 H   0  0  0  0  0  0
  -26.7170  -32.5428   23.1070 H   0  0  0  0  0  0
  -24.9981  -33.9707   25.0346 H   0  0  0  0  0  0
  -22.7151  -31.2974   21.3952 H   0  0  0  0  0  0
  -23.3765  -35.9621   23.3297 H   0  0  0  0  0  0
  -24.3588  -36.8932   22.2053 H   0  0  0  0  0  0
  -23.7256  -37.6492   23.6680 H   0  0  0  0  0  0
  -26.0967  -31.5455   20.6021 H   0  0  0  0  0  0
  -26.8413  -30.8318   22.0028 H   0  0  0  0  0  0
  -28.1274  -28.9849   21.1640 H   0  0  0  0  0  0
  -26.0027  -25.8846   19.0557 H   0  0  0  0  0  0
  -23.9680  -27.2761   19.0434 H   0  0  0  0  0  0
  -23.7537  -30.5786   19.4003 H   0  0  0  0  0  0
  -22.7561  -29.2329   19.8640 H   0  0  0  0  0  0
  -25.1307  -36.1936   25.0821 H   0  0  0  0  0  0
  -20.9973  -28.3266   24.1414 H   0  0  0  0  0  0
  -20.5706  -26.2285   23.3613 H   0  0  0  0  0  0
  -21.6648  -26.7450   22.1195 H   0  0  0  0  0  0
  -19.6927  -25.6295   21.1242 H   0  0  0  0  0  0
  -19.6706  -27.3200   20.6757 H   0  0  0  0  0  0
  -17.4212  -26.6683   21.4016 H   0  0  0  0  0  0
  -18.0319  -26.0060   22.9012 H   0  0  0  0  0  0
  -19.7937  -30.7263   24.2270 H   0  0  0  0  0  0
  -17.5014  -31.6263   24.5155 H   0  0  0  0  0  0
  -15.5352  -30.2974   23.7651 H   0  0  0  0  0  0
  -15.8680  -28.0809   22.7071 H   0  0  0  0  0  0
  -24.5907  -30.7025   25.7703 H   0  0  0  0  0  0
  -24.8843  -32.2836   26.4820 H   0  0  0  0  0  0
  -25.8001  -30.8864   27.0192 H   0  0  0  0  0  0
  -26.2895  -29.6726   24.1215 H   0  0  0  0  0  0
  -27.4075  -29.7272   25.4649 H   0  0  0  0  0  0
  -27.8746  -30.4279   23.9342 H   0  0  0  0  0  0
  -27.2720  -33.3623   26.2013 H   0  0  0  0  0  0
  -28.3869  -32.6818   25.0255 H   0  0  0  0  0  0
  -28.0743  -31.8421   26.5364 H   0  0  0  0  0  0
  -28.2596  -38.0099   24.7528 H   0  0  0  0  0  0
  -28.1108  -36.2634   24.6274 H   0  0  0  0  0  0
  -27.2303  -37.1421   25.8857 H   0  0  0  0  0  0
  -20.9386  -29.8714   21.6853 H   0  0  0  0  0  0
  -26.0196  -38.2851   24.1394 H   0  0  0  0  0  0
  -28.5373  -18.2388   20.1063 H   0  0  0  0  0  0
  -32.2693  -21.9857   20.0923 H   0  0  0  0  0  0
  -33.6158  -21.2165   20.9147 H   0  0  0  0  0  0
  -33.0713  -22.8098   21.4232 H   0  0  0  0  0  0
  -31.6669  -20.6210   24.1755 H   0  0  0  0  0  0
  -32.5028  -22.1314   23.8778 H   0  0  0  0  0  0
  -33.3155  -20.6340   23.5438 H   0  0  0  0  0  0
  -35.0488  -17.8644   22.6010 H   0  0  0  0  0  0
  -34.1682  -17.0886   21.2920 H   0  0  0  0  0  0
  -33.6162  -16.9144   22.9726 H   0  0  0  0  0  0
  -27.9661  -20.6968   20.5608 H   0  0  0  0  0  0
  -29.0683  -20.9590   19.2603 H   0  0  0  0  0  0
  -30.1770  -22.8358   20.6150 H   0  0  0  0  0  0
  -28.9463  -22.6091   21.8487 H   0  0  0  0  0  0
  -27.3086  -23.4303   19.9059 H   0  0  0  0  0  0
  -28.7590  -23.8833   19.0736 H   0  0  0  0  0  0
  -29.2010  -25.1968   21.4481 H   0  0  0  0  0  0
  -27.4833  -25.1657   21.5261 H   0  0  0  0  0  0
  -30.9316  -21.8573   22.2547 H   0  0  0  0  0  0
  -28.8904  -15.6977   20.6461 H   0  0  0  0  0  0
  1 25  1  0  0  0
  1 30  2  0  0  0
  1 85  1  0  0  0
  2  3  1  0  0  0
  2 25  1  0  0  0
  2 87  1  0  0  0
  2 88  1  0  0  0
  3  4  1  0  0  0
  3 89  1  0  0  0
  3 90  1  0  0  0
  4  5  1  0  0  0
  4 91  1  0  0  0
  4 92  1  0  0  0
  5  6  1  0  0  0
  5 26  1  0  0  0
  5 93  1  0  0  0
  6 25  1  0  0  0
  6 94  1  0  0  0
  6 95  1  0  0  0
  7  8  2  0  0  0
  7 26  1  0  0  0
  7 29  1  0  0  0
  8  9  1  0  0  0
  8 22  1  0  0  0
  9 10  1  0  0  0
  9 27  2  0  0  0
 10 11  2  0  0  0
 10 15  1  0  0  0
 11 12  1  0  0  0
 11 96  1  0  0  0
 12 13  2  0  0  0
 12 97  1  0  0  0
 13 14  1  0  0  0
 13 31  1  0  0  0
 14 15  2  0  0  0
 14 98  1  0  0  0
 15 99  1  0  0  0
 16 17  2  0  0  0
 16 21  1  0  0  0
 16 31  1  0  0  0
 17 18  1  0  0  0
 17100  1  0  0  0
 18 19  2  0  0  0
 18101  1  0  0  0
 19 20  1  0  0  0
 19 24  1  0  0  0
 20 21  2  0  0  0
 20102  1  0  0  0
 21 23  1  0  0  0
 22 28  1  0  0  0
 22 32  2  0  0  0
 26 27  1  0  0  0
 28103  1  0  0  0
 28104  1  0  0  0
 29105  1  0  0  0
 29106  1  0  0  0
 33 34  1  0  0  0
 33 66  1  0  0  0
 33 70  2  0  0  0
 34 36  1  0  0  0
 34 59  1  0  0  0
 34107  1  0  0  0
 35 44  2  0  0  0
 35 45  1  0  0  0
 35 68  1  0  0  0
 36 56  1  0  0  0
 36108  1  0  0  0
 37 39  1  0  0  0
 37 47  1  0  0  0
 37 66  1  0  0  0
 37109  1  0  0  0
 38 43  2  0  0  0
 38 46  1  0  0  0
 38 47  1  0  0  0
 39 64  1  0  0  0
 39 67  2  0  0  0
 40 52  1  0  0  0
 40 53  2  0  0  0
 40 58  1  0  0  0
 41110  1  0  0  0
 41111  1  0  0  0
 41112  1  0  0  0
 41 48  1  0  0  0
 42 43  1  0  0  0
 42 66  1  0  0  0
 42113  1  0  0  0
 42114  1  0  0  0
 43 44  1  0  0  0
 44115  1  0  0  0
 45 46  2  0  0  0
 45116  1  0  0  0
 46117  1  0  0  0
 47118  1  0  0  0
 47119  1  0  0  0
 48 56  1  0  0  0
 48 65  1  0  0  0
 48120  1  0  0  0
 49 50  1  0  0  0
 49 53  1  0  0  0
 49 64  1  0  0  0
 49121  1  0  0  0
 50 51  1  0  0  0
 50122  1  0  0  0
 50123  1  0  0  0
 51 52  1  0  0  0
 51124  1  0  0  0
 51125  1  0  0  0
 52126  1  0  0  0
 52127  1  0  0  0
 53 54  1  0  0  0
 54 55  2  0  0  0
 54128  1  0  0  0
 55 57  1  0  0  0
 55129  1  0  0  0
 56 69  2  0  0  0
 57 58  2  0  0  0
 57130  1  0  0  0
 58131  1  0  0  0
 59 60  1  0  0  0
 59 61  1  0  0  0
 59 62  1  0  0  0
 60132  1  0  0  0
 60133  1  0  0  0
 60134  1  0  0  0
 61135  1  0  0  0
 61136  1  0  0  0
 61137  1  0  0  0
 62138  1  0  0  0
 62139  1  0  0  0
 62140  1  0  0  0
 63 65  1  0  0  0
 63141  1  0  0  0
 63142  1  0  0  0
 63143  1  0  0  0
 64144  1  0  0  0
 65145  1  0  0  0
 68 82  1  0  0  0
 71 72  2  0  0  0
 71 74  1  0  0  0
 71146  1  0  0  0
 72 73  1  0  0  0
 72 79  1  0  0  0
 73 75  2  0  0  0
 73 83  1  0  0  0
 74 84  2  0  0  0
 74 85  1  0  0  0
 75 84  1  0  0  0
 75 86  1  0  0  0
 76147  1  0  0  0
 76148  1  0  0  0
 76149  1  0  0  0
 76 83  1  0  0  0
 77 83  1  0  0  0
 77150  1  0  0  0
 77151  1  0  0  0
 77152  1  0  0  0
 78 86  1  0  0  0
 78153  1  0  0  0
 78154  1  0  0  0
 78155  1  0  0  0
 79 80  1  0  0  0
 79156  1  0  0  0
 79157  1  0  0  0
 80 81  1  0  0  0
 80158  1  0  0  0
 80159  1  0  0  0
 81 82  1  0  0  0
 81160  1  0  0  0
 81161  1  0  0  0
 82162  1  0  0  0
 82163  1  0  0  0
 83164  1  0  0  0
 85165  1  0  0  0
M  ISO  4   1 100  68 101  82 101  85 100
M  END
> <chiral flag>
0

> <version>
0

> <s_m_source_file>
/data/baiqing/PycharmProjects/Reinvent-master-3.2/result/LINK_invent/BTK/process_docking_weight1_custom_sum_contain_oxygen_bond_distance_aromatic_linkinvent_7_9_3/rearranged_h_0083.sdf

> <i_m_source_file_index>
40

> <r_mmod_Potential_Energy-OPLS-2005>
42.7271308898926

> <r_mmod_Stretch_Energy-OPLS-2005>
111.454132080078

> <r_mmod_Bend_Energy-OPLS-2005>
188.787445068359

> <r_mmod_Torsional_Energy-OPLS-2005>
233.472015380859

> <r_mmod_Improper_Torsional_Energy-OPLS-2005>
6.53382682800293

> <r_mmod_Van_der_Waal_Energy-OPLS-2005>
161.502334594727

> <r_mmod_Electrostatic_Energy-OPLS-2005>
-497.716888427734

> <r_mmod_Solvation_Energy-OPLS-2005>
-222.960556030273

> <b_mmod_Minimization_Converged-OPLS-2005>
0

> <r_mmod_RMS_Derivative-OPLS-2005>
1.17417323589325

$$$$
40
                    3D
 Structure written by MMmdl.
154162  0  0  1  0            999 V2000
  -30.6322  -14.6223   20.4972 C   0  0  0  0  0  0
  -30.4361  -12.3794   19.4511 C   0  0  0  0  0  0
  -29.5060  -12.4997   18.2234 C   0  0  0  0  0  0
  -28.0286  -12.3408   18.6359 C   0  0  0  0  0  0
  -27.6527  -13.2133   19.8630 C   0  0  2  0  0  0
  -28.6974  -13.0660   20.9930 C   0  0  0  0  0  0
  -25.2556  -13.8159   20.5683 C   0  0  0  0  0  0
  -24.1825  -13.0433   20.9205 C   0  0  0  0  0  0
  -24.6386  -11.6901   20.8744 C   0  0  0  0  0  0
  -23.9048  -10.4284   21.0405 C   0  0  0  0  0  0
  -24.3603   -9.4204   21.9179 C   0  0  0  0  0  0
  -23.6287   -8.2233   22.0747 C   0  0  0  0  0  0
  -22.4269   -8.0269   21.3538 C   0  0  0  0  0  0
  -21.9902   -9.0242   20.4642 C   0  0  0  0  0  0
  -22.7222  -10.2126   20.3054 C   0  0  0  0  0  0
  -21.6851   -6.0727   22.5279 C   0  0  0  0  0  0
  -21.4011   -6.5630   23.8212 C   0  0  0  0  0  0
  -21.3659   -5.6784   24.9177 C   0  0  0  0  0  0
  -21.6045   -4.3048   24.7225 C   0  0  0  0  0  0
  -21.8821   -3.8139   23.4348 C   0  0  0  0  0  0
  -21.9192   -4.6956   22.3404 C   0  0  0  0  0  0
  -22.7851  -13.5232   21.1871 C   0  0  0  0  0  0
  -22.1662   -4.2139   21.0984 F   0  0  0  0  0  0
  -21.5630   -3.4532   25.7739 F   0  0  0  0  0  0
  -30.0141  -13.4016   20.4288 N   0  0  0  0  0  0
  -26.2980  -12.9337   20.3313 N   0  0  0  0  0  0
  -25.9310  -11.6498   20.5756 N   0  0  0  0  0  0
  -22.0488  -12.8214   22.0417 N   0  0  0  0  0  0
  -25.4272  -15.1878   20.4077 N   0  0  0  0  0  0
  -31.8022  -14.7628   20.1287 O   0  0  0  0  0  0
  -21.6636   -6.8865   21.4241 O   0  0  0  0  0  0
  -22.3540  -14.5535   20.6712 O   0  0  0  0  0  0
  -24.6257  -31.8619   23.2058 C   0  0  0  0  0  0
  -25.9110  -32.4785   23.8373 C   0  0  1  0  0  0
  -27.2121  -27.3284   20.1018 C   0  0  0  0  0  0
  -25.5934  -33.8589   24.2298 N   0  0  0  0  0  0
  -23.4170  -30.4893   21.5503 C   0  0  2  0  0  0
  -24.8578  -28.9500   20.1136 C   0  0  0  0  0  0
  -22.7469  -29.4632   22.4952 C   0  0  0  0  0  0
  -18.0281  -28.1381   22.8489 C   0  0  0  0  0  0
  -24.1484  -36.7287   23.2636 C   0  0  0  0  0  0
  -25.9593  -30.7950   21.3749 C   0  0  0  0  0  0
  -26.0307  -29.4257   20.7133 C   0  0  0  0  0  0
  -27.2123  -28.6269   20.6982 C   0  0  0  0  0  0
  -26.0097  -26.9057   19.4854 C   0  0  0  0  0  0
  -24.8482  -27.6945   19.4943 C   0  0  0  0  0  0
  -23.6284  -29.8320   20.1637 C   0  0  0  0  0  0
  -25.4108  -36.3087   24.0339 C   0  0  1  0  0  0
  -20.5884  -28.3675   23.1290 C   0  0  2  0  0  0
  -20.6771  -26.9400   22.5412 C   0  0  0  0  0  0
  -19.5749  -26.6386   21.5211 C   0  0  0  0  0  0
  -18.1927  -26.7924   22.1626 C   0  0  0  0  0  0
  -19.1536  -28.8848   23.2879 C   0  0  0  0  0  0
  -18.9462  -30.1454   23.8886 C   0  0  0  0  0  0
  -17.6462  -30.6581   24.0564 C   0  0  0  0  0  0
  -25.9052  -34.9457   23.5119 C   0  0  0  0  0  0
  -16.5352  -29.9082   23.6336 C   0  0  0  0  0  0
  -16.7267  -28.6502   23.0351 C   0  0  0  0  0  0
  -26.4499  -31.6587   25.0736 C   0  0  0  0  0  0
  -25.3745  -31.3729   26.1480 C   0  0  0  0  0  0
  -27.0326  -30.3012   24.6157 C   0  0  0  0  0  0
  -27.6076  -32.4307   25.7489 C   0  0  0  0  0  0
  -27.5588  -37.1785   24.8458 C   0  0  0  0  0  0
  -21.4184  -29.3037   22.3696 N   0  0  0  0  0  0
  -26.4280  -37.3788   23.9432 N   0  0  0  0  0  0
  -24.6867  -31.0644   22.1005 N   0  0  0  0  0  0
  -23.4201  -28.8160   23.3014 O   0  0  0  0  0  0
  -28.3290  -26.4794   20.1336 O   0  0  0  0  0  0
  -26.5604  -34.8926   22.4671 O   0  0  0  0  0  0
  -23.5424  -32.1411   23.7404 O   0  0  0  0  0  0
  -28.8224  -17.9401   20.6560 C   0  0  0  0  0  0
  -31.2128  -19.1022   20.3329 C   0  0  0  0  0  0
  -30.0375  -19.9152   20.3463 C   0  0  0  0  0  0
  -29.9909  -17.1163   20.6393 C   0  0  0  0  0  0
  -32.5911  -19.7019   20.1272 C   0  0  0  0  0  0
  -30.1328  -21.4670   20.1141 C   0  0  0  0  0  0
  -28.9073  -22.4512   20.2849 C   0  0  0  0  0  0
  -29.2637  -24.0053   20.2162 C   0  0  0  0  0  0
  -28.0705  -25.0257   20.0535 C   0  0  0  0  0  0
  -28.8321  -19.3052   20.5026 N   0  0  0  0  0  0
  -31.1879  -17.7429   20.4766 N   0  0  0  0  0  0
  -29.8212  -15.6795   20.8086 N   0  0  0  0  0  0
  -31.4773  -12.4995   19.1467 H   0  0  0  0  0  0
  -30.3676  -11.3831   19.8905 H   0  0  0  0  0  0
  -29.7679  -11.7475   17.4782 H   0  0  0  0  0  0
  -29.6520  -13.4688   17.7431 H   0  0  0  0  0  0
  -27.8647  -11.2885   18.8696 H   0  0  0  0  0  0
  -27.3734  -12.5687   17.7946 H   0  0  0  0  0  0
  -27.6721  -14.2480   19.5216 H   0  0  0  0  0  0
  -28.7045  -12.0436   21.3744 H   0  0  0  0  0  0
  -28.4453  -13.6989   21.8459 H   0  0  0  0  0  0
  -25.2754   -9.5677   22.4749 H   0  0  0  0  0  0
  -23.9997   -7.4622   22.7459 H   0  0  0  0  0  0
  -21.0834   -8.8752   19.8949 H   0  0  0  0  0  0
  -22.3675  -10.9658   19.6153 H   0  0  0  0  0  0
  -21.2000   -7.6136   23.9712 H   0  0  0  0  0  0
  -21.1482   -6.0514   25.9077 H   0  0  0  0  0  0
  -22.0599   -2.7602   23.2850 H   0  0  0  0  0  0
  -22.4103  -11.9876   22.4807 H   0  0  0  0  0  0
  -21.1105  -13.1236   22.2626 H   0  0  0  0  0  0
  -24.6522  -15.8348   20.5040 H   0  0  0  0  0  0
  -26.2527  -15.6174   20.0125 H   0  0  0  0  0  0
  -26.7176  -32.5448   23.1122 H   0  0  0  0  0  0
  -25.0119  -33.9739   25.0470 H   0  0  0  0  0  0
  -22.7104  -31.3111   21.4151 H   0  0  0  0  0  0
  -23.3772  -35.9589   23.3258 H   0  0  0  0  0  0
  -24.3592  -36.8937   22.2058 H   0  0  0  0  0  0
  -23.7202  -37.6468   23.6672 H   0  0  0  0  0  0
  -26.0939  -31.5598   20.6090 H   0  0  0  0  0  0
  -26.8399  -30.8398   22.0032 H   0  0  0  0  0  0
  -28.1128  -28.9883   21.1751 H   0  0  0  0  0  0
  -25.9219  -25.9523   18.9896 H   0  0  0  0  0  0
  -23.9473  -27.3228   19.0247 H   0  0  0  0  0  0
  -23.7525  -30.6129   19.4123 H   0  0  0  0  0  0
  -22.7452  -29.2682   19.8574 H   0  0  0  0  0  0
  -25.1279  -36.1936   25.0831 H   0  0  0  0  0  0
  -20.9980  -28.3233   24.1409 H   0  0  0  0  0  0
  -20.5685  -26.2272   23.3602 H   0  0  0  0  0  0
  -21.6636  -26.7437   22.1201 H   0  0  0  0  0  0
  -19.6907  -25.6301   21.1235 H   0  0  0  0  0  0
  -19.6692  -27.3199   20.6743 H   0  0  0  0  0  0
  -17.4204  -26.6669   21.4021 H   0  0  0  0  0  0
  -18.0327  -26.0066   22.9028 H   0  0  0  0  0  0
  -19.7938  -30.7275   24.2238 H   0  0  0  0  0  0
  -17.5021  -31.6258   24.5170 H   0  0  0  0  0  0
  -15.5355  -30.2984   23.7670 H   0  0  0  0  0  0
  -15.8667  -28.0829   22.7060 H   0  0  0  0  0  0
  -24.5887  -30.7112   25.7822 H   0  0  0  0  0  0
  -24.8982  -32.2906   26.4945 H   0  0  0  0  0  0
  -25.8085  -30.8879   27.0233 H   0  0  0  0  0  0
  -26.2878  -29.6770   24.1211 H   0  0  0  0  0  0
  -27.4074  -29.7256   25.4629 H   0  0  0  0  0  0
  -27.8731  -30.4316   23.9337 H   0  0  0  0  0  0
  -27.2721  -33.3641   26.2024 H   0  0  0  0  0  0
  -28.3906  -32.6803   25.0316 H   0  0  0  0  0  0
  -28.0714  -31.8448   26.5435 H   0  0  0  0  0  0
  -28.2567  -38.0125   24.7581 H   0  0  0  0  0  0
  -28.1126  -36.2662   24.6182 H   0  0  0  0  0  0
  -27.2321  -37.1306   25.8863 H   0  0  0  0  0  0
  -20.9355  -29.8781   21.6932 H   0  0  0  0  0  0
  -26.0158  -38.2850   24.1490 H   0  0  0  0  0  0
  -27.8466  -17.4931   20.7806 H   0  0  0  0  0  0
  -32.6617  -20.1617   19.1415 H   0  0  0  0  0  0
  -33.3731  -18.9457   20.2004 H   0  0  0  0  0  0
  -32.7966  -20.4638   20.8786 H   0  0  0  0  0  0
  -30.5272  -21.6050   19.1065 H   0  0  0  0  0  0
  -30.9144  -21.8276   20.7823 H   0  0  0  0  0  0
  -28.4200  -22.2490   21.2394 H   0  0  0  0  0  0
  -28.1693  -22.2161   19.5165 H   0  0  0  0  0  0
  -29.9445  -24.1661   19.3796 H   0  0  0  0  0  0
  -29.8303  -24.2683   21.1095 H   0  0  0  0  0  0
  -27.3129  -24.7791   20.7999 H   0  0  0  0  0  0
  -27.6410  -24.7975   19.0783 H   0  0  0  0  0  0
  -28.8914  -15.3999   21.0764 H   0  0  0  0  0  0
  1 25  1  0  0  0
  1 30  2  0  0  0
  1 82  1  0  0  0
  2  3  1  0  0  0
  2 25  1  0  0  0
  2 83  1  0  0  0
  2 84  1  0  0  0
  3  4  1  0  0  0
  3 85  1  0  0  0
  3 86  1  0  0  0
  4  5  1  0  0  0
  4 87  1  0  0  0
  4 88  1  0  0  0
  5  6  1  0  0  0
  5 26  1  0  0  0
  5 89  1  0  0  0
  6 25  1  0  0  0
  6 90  1  0  0  0
  6 91  1  0  0  0
  7  8  2  0  0  0
  7 26  1  0  0  0
  7 29  1  0  0  0
  8  9  1  0  0  0
  8 22  1  0  0  0
  9 10  1  0  0  0
  9 27  2  0  0  0
 10 11  2  0  0  0
 10 15  1  0  0  0
 11 12  1  0  0  0
 11 92  1  0  0  0
 12 13  2  0  0  0
 12 93  1  0  0  0
 13 14  1  0  0  0
 13 31  1  0  0  0
 14 15  2  0  0  0
 14 94  1  0  0  0
 15 95  1  0  0  0
 16 17  2  0  0  0
 16 21  1  0  0  0
 16 31  1  0  0  0
 17 18  1  0  0  0
 17 96  1  0  0  0
 18 19  2  0  0  0
 18 97  1  0  0  0
 19 20  1  0  0  0
 19 24  1  0  0  0
 20 21  2  0  0  0
 20 98  1  0  0  0
 21 23  1  0  0  0
 22 28  1  0  0  0
 22 32  2  0  0  0
 26 27  1  0  0  0
 28 99  1  0  0  0
 28100  1  0  0  0
 29101  1  0  0  0
 29102  1  0  0  0
 33 34  1  0  0  0
 33 66  1  0  0  0
 33 70  2  0  0  0
 34 36  1  0  0  0
 34 59  1  0  0  0
 34103  1  0  0  0
 35 44  2  0  0  0
 35 45  1  0  0  0
 35 68  1  0  0  0
 36 56  1  0  0  0
 36104  1  0  0  0
 37 39  1  0  0  0
 37 47  1  0  0  0
 37 66  1  0  0  0
 37105  1  0  0  0
 38 43  2  0  0  0
 38 46  1  0  0  0
 38 47  1  0  0  0
 39 64  1  0  0  0
 39 67  2  0  0  0
 40 52  1  0  0  0
 40 53  2  0  0  0
 40 58  1  0  0  0
 41106  1  0  0  0
 41107  1  0  0  0
 41108  1  0  0  0
 41 48  1  0  0  0
 42 43  1  0  0  0
 42 66  1  0  0  0
 42109  1  0  0  0
 42110  1  0  0  0
 43 44  1  0  0  0
 44111  1  0  0  0
 45 46  2  0  0  0
 45112  1  0  0  0
 46113  1  0  0  0
 47114  1  0  0  0
 47115  1  0  0  0
 48 56  1  0  0  0
 48 65  1  0  0  0
 48116  1  0  0  0
 49 50  1  0  0  0
 49 53  1  0  0  0
 49 64  1  0  0  0
 49117  1  0  0  0
 50 51  1  0  0  0
 50118  1  0  0  0
 50119  1  0  0  0
 51 52  1  0  0  0
 51120  1  0  0  0
 51121  1  0  0  0
 52122  1  0  0  0
 52123  1  0  0  0
 53 54  1  0  0  0
 54 55  2  0  0  0
 54124  1  0  0  0
 55 57  1  0  0  0
 55125  1  0  0  0
 56 69  2  0  0  0
 57 58  2  0  0  0
 57126  1  0  0  0
 58127  1  0  0  0
 59 60  1  0  0  0
 59 61  1  0  0  0
 59 62  1  0  0  0
 60128  1  0  0  0
 60129  1  0  0  0
 60130  1  0  0  0
 61131  1  0  0  0
 61132  1  0  0  0
 61133  1  0  0  0
 62134  1  0  0  0
 62135  1  0  0  0
 62136  1  0  0  0
 63 65  1  0  0  0
 63137  1  0  0  0
 63138  1  0  0  0
 63139  1  0  0  0
 64140  1  0  0  0
 65141  1  0  0  0
 68 79  1  0  0  0
 71 74  2  0  0  0
 71 80  1  0  0  0
 71142  1  0  0  0
 72 73  1  0  0  0
 72 75  1  0  0  0
 72 81  2  0  0  0
 73 76  1  0  0  0
 73 80  2  0  0  0
 74 81  1  0  0  0
 74 82  1  0  0  0
 75143  1  0  0  0
 75144  1  0  0  0
 75145  1  0  0  0
 76 77  1  0  0  0
 76146  1  0  0  0
 76147  1  0  0  0
 77 78  1  0  0  0
 77148  1  0  0  0
 77149  1  0  0  0
 78 79  1  0  0  0
 78150  1  0  0  0
 78151  1  0  0  0
 79152  1  0  0  0
 79153  1  0  0  0
 82154  1  0  0  0
M  ISO  4   1 100  68 101  79 101  82 100
M  END
> <chiral flag>
0

> <version>
0

> <s_m_source_file>
/data/baiqing/PycharmProjects/Reinvent-master-3.2/result/LINK_invent/BTK/process_docking_weight1_custom_sum_contain_oxygen_bond_distance_aromatic_linkinvent_7_9_3/rearranged_h_0083.sdf

> <i_m_source_file_index>
41

> <r_mmod_Potential_Energy-OPLS-2005>
47.0882034301758

> <r_mmod_Stretch_Energy-OPLS-2005>
74.7837600708008

> <r_mmod_Bend_Energy-OPLS-2005>
132.488845825195

> <r_mmod_Torsional_Energy-OPLS-2005>
209.837493896484

> <r_mmod_Improper_Torsional_Energy-OPLS-2005>
4.8677716255188

> <r_mmod_Van_der_Waal_Energy-OPLS-2005>
151.895034790039

> <r_mmod_Electrostatic_Energy-OPLS-2005>
-338.927917480469

> <r_mmod_Solvation_Energy-OPLS-2005>
-232.039184570312

> <b_mmod_Minimization_Converged-OPLS-2005>
0

> <r_mmod_RMS_Derivative-OPLS-2005>
1.38811349868774

$$$$
41
                    3D
 Structure written by MMmdl.
165173  0  0  1  0            999 V2000
  -30.7488  -14.3896   20.6413 C   0  0  0  0  0  0
  -30.4130  -12.2900   19.3859 C   0  0  0  0  0  0
  -29.4879  -12.5346   18.1797 C   0  0  0  0  0  0
  -28.0078  -12.4079   18.5876 C   0  0  0  0  0  0
  -27.6676  -13.2087   19.8724 C   0  0  2  0  0  0
  -28.7048  -12.9426   20.9854 C   0  0  0  0  0  0
  -25.2613  -13.8133   20.5633 C   0  0  0  0  0  0
  -24.1874  -13.0414   20.9137 C   0  0  0  0  0  0
  -24.6415  -11.6870   20.8701 C   0  0  0  0  0  0
  -23.9055  -10.4267   21.0389 C   0  0  0  0  0  0
  -24.3593   -9.4167   21.9170 C   0  0  0  0  0  0
  -23.6255   -8.2219   22.0749 C   0  0  0  0  0  0
  -22.4236   -8.0270   21.3535 C   0  0  0  0  0  0
  -21.9876   -9.0256   20.4646 C   0  0  0  0  0  0
  -22.7225  -10.2126   20.3045 C   0  0  0  0  0  0
  -21.6826   -6.0724   22.5272 C   0  0  0  0  0  0
  -21.4004   -6.5629   23.8221 C   0  0  0  0  0  0
  -21.3667   -5.6781   24.9182 C   0  0  0  0  0  0
  -21.6048   -4.3046   24.7226 C   0  0  0  0  0  0
  -21.8821   -3.8136   23.4339 C   0  0  0  0  0  0
  -21.9182   -4.6955   22.3391 C   0  0  0  0  0  0
  -22.7905  -13.5236   21.1807 C   0  0  0  0  0  0
  -22.1647   -4.2133   21.0974 F   0  0  0  0  0  0
  -21.5638   -3.4541   25.7734 F   0  0  0  0  0  0
  -30.0455  -13.2398   20.4472 N   0  0  0  0  0  0
  -26.3064  -12.9320   20.3292 N   0  0  0  0  0  0
  -25.9330  -11.6473   20.5649 N   0  0  0  0  0  0
  -22.0568  -12.8262   22.0371 N   0  0  0  0  0  0
  -25.4276  -15.1848   20.4048 N   0  0  0  0  0  0
  -31.7891  -14.6529   20.0296 O   0  0  0  0  0  0
  -21.6597   -6.8879   21.4251 O   0  0  0  0  0  0
  -22.3570  -14.5545   20.6651 O   0  0  0  0  0  0
  -24.6118  -31.8692   23.2131 C   0  0  0  0  0  0
  -25.9014  -32.4841   23.8422 C   0  0  1  0  0  0
  -27.2186  -27.4501   20.0977 C   0  0  0  0  0  0
  -25.5894  -33.8640   24.2363 N   0  0  0  0  0  0
  -23.3967  -30.4945   21.5522 C   0  0  2  0  0  0
  -24.8405  -28.9655   20.1115 C   0  0  0  0  0  0
  -22.7393  -29.4666   22.4998 C   0  0  0  0  0  0
  -18.0255  -28.1385   22.8500 C   0  0  0  0  0  0
  -24.1474  -36.7313   23.2641 C   0  0  0  0  0  0
  -25.9226  -30.8448   21.3583 C   0  0  0  0  0  0
  -26.0008  -29.4805   20.7056 C   0  0  0  0  0  0
  -27.1964  -28.7304   20.6918 C   0  0  0  0  0  0
  -26.0466  -26.9455   19.4954 C   0  0  0  0  0  0
  -24.8584  -27.6999   19.5003 C   0  0  0  0  0  0
  -23.6018  -29.8297   20.1648 C   0  0  0  0  0  0
  -25.4098  -36.3129   24.0358 C   0  0  1  0  0  0
  -20.5855  -28.3661   23.1343 C   0  0  2  0  0  0
  -20.6749  -26.9404   22.5431 C   0  0  0  0  0  0
  -19.5729  -26.6389   21.5230 C   0  0  0  0  0  0
  -18.1905  -26.7939   22.1625 C   0  0  0  0  0  0
  -19.1505  -28.8839   23.2915 C   0  0  0  0  0  0
  -18.9441  -30.1448   23.8912 C   0  0  0  0  0  0
  -17.6442  -30.6590   24.0574 C   0  0  0  0  0  0
  -25.9023  -34.9492   23.5156 C   0  0  0  0  0  0
  -16.5330  -29.9097   23.6344 C   0  0  0  0  0  0
  -16.7245  -28.6519   23.0364 C   0  0  0  0  0  0
  -26.4459  -31.6607   25.0724 C   0  0  0  0  0  0
  -25.3735  -31.3706   26.1478 C   0  0  0  0  0  0
  -27.0290  -30.3067   24.6056 C   0  0  0  0  0  0
  -27.6049  -32.4312   25.7476 C   0  0  0  0  0  0
  -27.5585  -37.1807   24.8469 C   0  0  0  0  0  0
  -21.4126  -29.3029   22.3758 N   0  0  0  0  0  0
  -26.4296  -37.3806   23.9418 N   0  0  0  0  0  0
  -24.6624  -31.0833   22.1010 N   0  0  0  0  0  0
  -23.4183  -28.8219   23.3036 O   0  0  0  0  0  0
  -28.3699  -26.6994   20.1177 O   0  0  0  0  0  0
  -26.5567  -34.8946   22.4704 O   0  0  0  0  0  0
  -23.5321  -32.1420   23.7559 O   0  0  0  0  0  0
  -27.4829  -19.1594   18.2859 C   0  0  0  0  0  0
  -27.2316  -17.7940   17.9798 C   0  0  0  0  0  0
  -28.0070  -19.1476   19.5527 C   0  0  0  0  0  0
  -26.5702  -17.2065   16.7690 C   0  0  0  0  0  0
  -30.3493  -15.1366   22.9013 C   0  0  0  0  0  0
  -28.4014  -20.2924   20.4511 C   0  0  0  0  0  0
  -28.1597  -21.6827   19.8212 C   0  0  0  0  0  0
  -28.4178  -22.8953   20.7391 C   0  0  0  0  0  0
  -28.3070  -24.2316   19.9674 C   0  0  0  0  0  0
  -28.5864  -17.1999   21.1456 C   0  0  0  0  0  0
  -30.0439  -16.7021   21.0261 C   0  0  0  0  0  0
  -28.2692  -25.4813   20.8704 C   0  0  0  0  0  0
  -27.6353  -16.9906   18.9476 N   0  0  0  0  0  0
  -28.1005  -17.8096   19.9166 N   0  0  0  0  0  0
  -30.1752  -15.3003   21.4568 N   0  0  0  0  0  0
  -31.4587  -12.3824   19.0840 H   0  0  0  0  0  0
  -30.2956  -11.2684   19.7468 H   0  0  0  0  0  0
  -29.7152  -11.8227   17.3839 H   0  0  0  0  0  0
  -29.6730  -13.5263   17.7606 H   0  0  0  0  0  0
  -27.7954  -11.3487   18.7386 H   0  0  0  0  0  0
  -27.3623  -12.7344   17.7698 H   0  0  0  0  0  0
  -27.7262  -14.2657   19.6158 H   0  0  0  0  0  0
  -28.6643  -11.9004   21.3056 H   0  0  0  0  0  0
  -28.4499  -13.5221   21.8719 H   0  0  0  0  0  0
  -25.2760   -9.5617   22.4710 H   0  0  0  0  0  0
  -23.9969   -7.4602   22.7454 H   0  0  0  0  0  0
  -21.0800   -8.8779   19.8942 H   0  0  0  0  0  0
  -22.3716  -10.9653   19.6134 H   0  0  0  0  0  0
  -21.1993   -7.6143   23.9728 H   0  0  0  0  0  0
  -21.1504   -6.0511   25.9083 H   0  0  0  0  0  0
  -22.0600   -2.7595   23.2844 H   0  0  0  0  0  0
  -22.4226  -11.9936   22.4739 H   0  0  0  0  0  0
  -21.1220  -13.1330   22.2640 H   0  0  0  0  0  0
  -24.6463  -15.8228   20.5047 H   0  0  0  0  0  0
  -26.2498  -15.6302   19.9983 H   0  0  0  0  0  0
  -26.7089  -32.5553   23.1199 H   0  0  0  0  0  0
  -25.0122  -33.9822   25.0561 H   0  0  0  0  0  0
  -22.6831  -31.3107   21.4195 H   0  0  0  0  0  0
  -23.3761  -35.9616   23.3296 H   0  0  0  0  0  0
  -24.3583  -36.8914   22.2057 H   0  0  0  0  0  0
  -23.7193  -37.6514   23.6639 H   0  0  0  0  0  0
  -26.0225  -31.6127   20.5905 H   0  0  0  0  0  0
  -26.8164  -30.9037   21.9678 H   0  0  0  0  0  0
  -28.0903  -29.1214   21.1579 H   0  0  0  0  0  0
  -26.0413  -25.9766   19.0192 H   0  0  0  0  0  0
  -23.9674  -27.3038   19.0319 H   0  0  0  0  0  0
  -23.7051  -30.6053   19.4038 H   0  0  0  0  0  0
  -22.7268  -29.2457   19.8737 H   0  0  0  0  0  0
  -25.1274  -36.2016   25.0858 H   0  0  0  0  0  0
  -20.9937  -28.3209   24.1468 H   0  0  0  0  0  0
  -20.5686  -26.2259   23.3603 H   0  0  0  0  0  0
  -21.6622  -26.7475   22.1209 H   0  0  0  0  0  0
  -19.6893  -25.6305   21.1254 H   0  0  0  0  0  0
  -19.6698  -27.3210   20.6772 H   0  0  0  0  0  0
  -17.4202  -26.6712   21.3998 H   0  0  0  0  0  0
  -18.0288  -26.0074   22.9009 H   0  0  0  0  0  0
  -19.7921  -30.7261   24.2287 H   0  0  0  0  0  0
  -17.5007  -31.6282   24.5155 H   0  0  0  0  0  0
  -15.5332  -30.3003   23.7668 H   0  0  0  0  0  0
  -15.8644  -28.0840   22.7072 H   0  0  0  0  0  0
  -24.5936  -30.7010   25.7837 H   0  0  0  0  0  0
  -24.8878  -32.2849   26.4898 H   0  0  0  0  0  0
  -25.8098  -30.8925   27.0252 H   0  0  0  0  0  0
  -26.2823  -29.6837   24.1115 H   0  0  0  0  0  0
  -27.4108  -29.7298   25.4491 H   0  0  0  0  0  0
  -27.8637  -30.4436   23.9171 H   0  0  0  0  0  0
  -27.2699  -33.3634   26.2047 H   0  0  0  0  0  0
  -28.3854  -32.6820   25.0275 H   0  0  0  0  0  0
  -28.0713  -31.8421   26.5387 H   0  0  0  0  0  0
  -28.2604  -38.0105   24.7541 H   0  0  0  0  0  0
  -28.1078  -36.2641   24.6264 H   0  0  0  0  0  0
  -27.2311  -37.1427   25.8875 H   0  0  0  0  0  0
  -20.9276  -29.8738   21.6975 H   0  0  0  0  0  0
  -26.0198  -38.2888   24.1429 H   0  0  0  0  0  0
  -27.2649  -20.0265   17.6777 H   0  0  0  0  0  0
  -26.2002  -17.9852   16.1022 H   0  0  0  0  0  0
  -25.7153  -16.5910   17.0528 H   0  0  0  0  0  0
  -27.2567  -16.5782   16.2019 H   0  0  0  0  0  0
  -29.4889  -15.5394   23.4359 H   0  0  0  0  0  0
  -31.2465  -15.6549   23.2407 H   0  0  0  0  0  0
  -30.4442  -14.0860   23.1854 H   0  0  0  0  0  0
  -29.4509  -20.1895   20.7301 H   0  0  0  0  0  0
  -27.8378  -20.2196   21.3809 H   0  0  0  0  0  0
  -27.1216  -21.7315   19.4882 H   0  0  0  0  0  0
  -28.7766  -21.7759   18.9271 H   0  0  0  0  0  0
  -29.4091  -22.8221   21.1899 H   0  0  0  0  0  0
  -27.7042  -22.8814   21.5648 H   0  0  0  0  0  0
  -27.4124  -24.2123   19.3455 H   0  0  0  0  0  0
  -29.1510  -24.3096   19.2833 H   0  0  0  0  0  0
  -28.5003  -17.9174   21.9605 H   0  0  0  0  0  0
  -27.9123  -16.3800   21.3987 H   0  0  0  0  0  0
  -30.7043  -17.3421   21.6113 H   0  0  0  0  0  0
  -30.3796  -16.8185   19.9903 H   0  0  0  0  0  0
  -29.1094  -25.4601   21.5649 H   0  0  0  0  0  0
  -27.3710  -25.4610   21.4939 H   0  0  0  0  0  0
  1 25  1  0  0  0
  1 30  2  0  0  0
  1 85  1  0  0  0
  2  3  1  0  0  0
  2 25  1  0  0  0
  2 86  1  0  0  0
  2 87  1  0  0  0
  3  4  1  0  0  0
  3 88  1  0  0  0
  3 89  1  0  0  0
  4  5  1  0  0  0
  4 90  1  0  0  0
  4 91  1  0  0  0
  5  6  1  0  0  0
  5 26  1  0  0  0
  5 92  1  0  0  0
  6 25  1  0  0  0
  6 93  1  0  0  0
  6 94  1  0  0  0
  7  8  2  0  0  0
  7 26  1  0  0  0
  7 29  1  0  0  0
  8  9  1  0  0  0
  8 22  1  0  0  0
  9 10  1  0  0  0
  9 27  2  0  0  0
 10 11  2  0  0  0
 10 15  1  0  0  0
 11 12  1  0  0  0
 11 95  1  0  0  0
 12 13  2  0  0  0
 12 96  1  0  0  0
 13 14  1  0  0  0
 13 31  1  0  0  0
 14 15  2  0  0  0
 14 97  1  0  0  0
 15 98  1  0  0  0
 16 17  2  0  0  0
 16 21  1  0  0  0
 16 31  1  0  0  0
 17 18  1  0  0  0
 17 99  1  0  0  0
 18 19  2  0  0  0
 18100  1  0  0  0
 19 20  1  0  0  0
 19 24  1  0  0  0
 20 21  2  0  0  0
 20101  1  0  0  0
 21 23  1  0  0  0
 22 28  1  0  0  0
 22 32  2  0  0  0
 26 27  1  0  0  0
 28102  1  0  0  0
 28103  1  0  0  0
 29104  1  0  0  0
 29105  1  0  0  0
 33 34  1  0  0  0
 33 66  1  0  0  0
 33 70  2  0  0  0
 34 36  1  0  0  0
 34 59  1  0  0  0
 34106  1  0  0  0
 35 44  2  0  0  0
 35 45  1  0  0  0
 35 68  1  0  0  0
 36 56  1  0  0  0
 36107  1  0  0  0
 37 39  1  0  0  0
 37 47  1  0  0  0
 37 66  1  0  0  0
 37108  1  0  0  0
 38 43  2  0  0  0
 38 46  1  0  0  0
 38 47  1  0  0  0
 39 64  1  0  0  0
 39 67  2  0  0  0
 40 52  1  0  0  0
 40 53  2  0  0  0
 40 58  1  0  0  0
 41109  1  0  0  0
 41110  1  0  0  0
 41111  1  0  0  0
 41 48  1  0  0  0
 42 43  1  0  0  0
 42 66  1  0  0  0
 42112  1  0  0  0
 42113  1  0  0  0
 43 44  1  0  0  0
 44114  1  0  0  0
 45 46  2  0  0  0
 45115  1  0  0  0
 46116  1  0  0  0
 47117  1  0  0  0
 47118  1  0  0  0
 48 56  1  0  0  0
 48 65  1  0  0  0
 48119  1  0  0  0
 49 50  1  0  0  0
 49 53  1  0  0  0
 49 64  1  0  0  0
 49120  1  0  0  0
 50 51  1  0  0  0
 50121  1  0  0  0
 50122  1  0  0  0
 51 52  1  0  0  0
 51123  1  0  0  0
 51124  1  0  0  0
 52125  1  0  0  0
 52126  1  0  0  0
 53 54  1  0  0  0
 54 55  2  0  0  0
 54127  1  0  0  0
 55 57  1  0  0  0
 55128  1  0  0  0
 56 69  2  0  0  0
 57 58  2  0  0  0
 57129  1  0  0  0
 58130  1  0  0  0
 59 60  1  0  0  0
 59 61  1  0  0  0
 59 62  1  0  0  0
 60131  1  0  0  0
 60132  1  0  0  0
 60133  1  0  0  0
 61134  1  0  0  0
 61135  1  0  0  0
 61136  1  0  0  0
 62137  1  0  0  0
 62138  1  0  0  0
 62139  1  0  0  0
 63 65  1  0  0  0
 63140  1  0  0  0
 63141  1  0  0  0
 63142  1  0  0  0
 64143  1  0  0  0
 65144  1  0  0  0
 68 82  1  0  0  0
 71 72  1  0  0  0
 71 73  2  0  0  0
 71145  1  0  0  0
 72 74  1  0  0  0
 72 83  2  0  0  0
 73 76  1  0  0  0
 73 84  1  0  0  0
 74146  1  0  0  0
 74147  1  0  0  0
 74148  1  0  0  0
 75 85  1  0  0  0
 75149  1  0  0  0
 75150  1  0  0  0
 75151  1  0  0  0
 76 77  1  0  0  0
 76152  1  0  0  0
 76153  1  0  0  0
 77 78  1  0  0  0
 77154  1  0  0  0
 77155  1  0  0  0
 78 79  1  0  0  0
 78156  1  0  0  0
 78157  1  0  0  0
 79 82  1  0  0  0
 79158  1  0  0  0
 79159  1  0  0  0
 80 81  1  0  0  0
 80 84  1  0  0  0
 80160  1  0  0  0
 80161  1  0  0  0
 81 85  1  0  0  0
 81162  1  0  0  0
 81163  1  0  0  0
 82164  1  0  0  0
 82165  1  0  0  0
 83 84  1  0  0  0
M  ISO  4   1 100  68 101  82 101  85 100
M  END
> <chiral flag>
0

> <version>
0

> <s_m_source_file>
/data/baiqing/PycharmProjects/Reinvent-master-3.2/result/LINK_invent/BTK/process_docking_weight1_custom_sum_contain_oxygen_bond_distance_aromatic_linkinvent_7_9_3/rearranged_h_0083.sdf

> <i_m_source_file_index>
42

> <r_mmod_Potential_Energy-OPLS-2005>
37.9075736999512

> <r_mmod_Stretch_Energy-OPLS-2005>
34.0882301330566

> <r_mmod_Bend_Energy-OPLS-2005>
87.8364486694336

> <r_mmod_Torsional_Energy-OPLS-2005>
313.638153076172

> <r_mmod_Improper_Torsional_Energy-OPLS-2005>
5.61410522460938

> <r_mmod_Van_der_Waal_Energy-OPLS-2005>
116.760673522949

> <r_mmod_Electrostatic_Energy-OPLS-2005>
-343.974334716797

> <r_mmod_Solvation_Energy-OPLS-2005>
-184.701583862305

> <b_mmod_Minimization_Converged-OPLS-2005>
0

> <r_mmod_RMS_Derivative-OPLS-2005>
3.5913393497467

$$$$
42
                    3D
 Structure written by MMmdl.
169177  0  0  1  0            999 V2000
  -30.6721  -14.4655   20.5530 C   0  0  0  0  0  0
  -30.4433  -12.3026   19.4052 C   0  0  0  0  0  0
  -29.4854  -12.4688   18.2075 C   0  0  0  0  0  0
  -28.0217  -12.2872   18.6506 C   0  0  0  0  0  0
  -27.6645  -13.1680   19.8725 C   0  0  2  0  0  0
  -28.7063  -12.9574   20.9960 C   0  0  0  0  0  0
  -25.2638  -13.8060   20.5587 C   0  0  0  0  0  0
  -24.1853  -13.0406   20.9156 C   0  0  0  0  0  0
  -24.6363  -11.6900   20.8765 C   0  0  0  0  0  0
  -23.9016  -10.4311   21.0432 C   0  0  0  0  0  0
  -24.3590   -9.4247   21.9193 C   0  0  0  0  0  0
  -23.6279   -8.2278   22.0777 C   0  0  0  0  0  0
  -22.4266   -8.0298   21.3559 C   0  0  0  0  0  0
  -21.9890   -9.0275   20.4663 C   0  0  0  0  0  0
  -22.7217  -10.2161   20.3067 C   0  0  0  0  0  0
  -21.6877   -6.0761   22.5273 C   0  0  0  0  0  0
  -21.4018   -6.5655   23.8207 C   0  0  0  0  0  0
  -21.3634   -5.6807   24.9164 C   0  0  0  0  0  0
  -21.6044   -4.3074   24.7210 C   0  0  0  0  0  0
  -21.8838   -3.8160   23.4337 C   0  0  0  0  0  0
  -21.9201   -4.6981   22.3391 C   0  0  0  0  0  0
  -22.7921  -13.5308   21.1795 C   0  0  0  0  0  0
  -22.1676   -4.2174   21.0971 F   0  0  0  0  0  0
  -21.5608   -3.4545   25.7716 F   0  0  0  0  0  0
  -30.0424  -13.2661   20.4442 N   0  0  0  0  0  0
  -26.3032  -12.9165   20.3343 N   0  0  0  0  0  0
  -25.9263  -11.6385   20.5813 N   0  0  0  0  0  0
  -22.0504  -12.8317   22.0351 N   0  0  0  0  0  0
  -25.4316  -15.1723   20.3853 N   0  0  0  0  0  0
  -31.7851  -14.7091   20.0761 O   0  0  0  0  0  0
  -21.6657   -6.8897   21.4245 O   0  0  0  0  0  0
  -22.3654  -14.5634   20.6670 O   0  0  0  0  0  0
  -24.6204  -31.8683   23.2020 C   0  0  0  0  0  0
  -25.9048  -32.4834   23.8371 C   0  0  1  0  0  0
  -27.2468  -27.4516   20.0653 C   0  0  0  0  0  0
  -25.5884  -33.8608   24.2285 N   0  0  0  0  0  0
  -23.4067  -30.4870   21.5435 C   0  0  2  0  0  0
  -24.8465  -28.9490   20.1133 C   0  0  0  0  0  0
  -22.7423  -29.4640   22.4881 C   0  0  0  0  0  0
  -18.0223  -28.1571   22.8246 C   0  0  0  0  0  0
  -24.1490  -36.7326   23.2620 C   0  0  0  0  0  0
  -25.9332  -30.8344   21.3532 C   0  0  0  0  0  0
  -26.0103  -29.4714   20.6897 C   0  0  0  0  0  0
  -27.2137  -28.7336   20.6498 C   0  0  0  0  0  0
  -26.0602  -26.9308   19.5011 C   0  0  0  0  0  0
  -24.8602  -27.6709   19.5151 C   0  0  0  0  0  0
  -23.6128  -29.8117   20.1641 C   0  0  0  0  0  0
  -25.4127  -36.3112   24.0315 C   0  0  1  0  0  0
  -20.5800  -28.3766   23.1150 C   0  0  2  0  0  0
  -20.6709  -26.9390   22.5480 C   0  0  0  0  0  0
  -19.5800  -26.5888   21.5381 C   0  0  0  0  0  0
  -18.1766  -26.8243   22.1060 C   0  0  0  0  0  0
  -19.1491  -28.8966   23.2690 C   0  0  0  0  0  0
  -18.9429  -30.1567   23.8741 C   0  0  0  0  0  0
  -17.6460  -30.6573   24.0717 C   0  0  0  0  0  0
  -25.9052  -34.9476   23.5080 C   0  0  0  0  0  0
  -16.5339  -29.9134   23.6450 C   0  0  0  0  0  0
  -16.7222  -28.6689   23.0138 C   0  0  0  0  0  0
  -26.4504  -31.6602   25.0693 C   0  0  0  0  0  0
  -25.3778  -31.3693   26.1434 C   0  0  0  0  0  0
  -27.0327  -30.3043   24.6065 C   0  0  0  0  0  0
  -27.6064  -32.4323   25.7487 C   0  0  0  0  0  0
  -27.5570  -37.1819   24.8455 C   0  0  0  0  0  0
  -21.4149  -29.3083   22.3547 N   0  0  0  0  0  0
  -26.4309  -37.3805   23.9377 N   0  0  0  0  0  0
  -24.6701  -31.0812   22.0907 N   0  0  0  0  0  0
  -23.4181  -28.8243   23.2982 O   0  0  0  0  0  0
  -28.4295  -26.7420   20.0477 O   0  0  0  0  0  0
  -26.5639  -34.8937   22.4664 O   0  0  0  0  0  0
  -23.5395  -32.1438   23.7479 O   0  0  0  0  0  0
  -28.5817  -19.4604   19.2757 C   0  0  0  0  0  0
  -26.5582  -18.7998   19.8876 C   0  0  0  0  0  0
  -27.7174  -20.4974   18.9887 C   0  0  0  0  0  0
  -26.3891  -20.0357   19.3164 C   0  0  0  0  0  0
  -24.6059  -21.5012   20.3610 C   0  0  0  0  0  0
  -23.9248  -19.6045   18.9149 C   0  0  0  0  0  0
  -24.9860  -21.5653   17.8455 C   0  0  0  0  0  0
  -28.1539  -21.8490   18.4215 C   0  0  0  0  0  0
  -27.9168  -23.0043   19.4292 C   0  0  0  0  0  0
  -28.4853  -24.4001   19.0991 C   0  0  0  0  0  0
  -28.3029  -17.0572   20.1721 C   0  0  0  0  0  0
  -29.7759  -16.8180   20.5601 C   0  0  0  0  0  0
  -28.3436  -25.3325   20.3260 C   0  0  0  0  0  0
  -25.0144  -20.6848   19.1157 C   0  0  0  0  0  0
  -27.8720  -18.4083   19.8197 N   0  0  0  0  0  0
  -29.8794  -15.4300   21.0386 N   0  0  0  0  0  0
  -31.4682  -12.4531   19.0636 H   0  0  0  0  0  0
  -30.4024  -11.2889   19.8037 H   0  0  0  0  0  0
  -29.7363  -11.7344   17.4378 H   0  0  0  0  0  0
  -29.6127  -13.4540   17.7531 H   0  0  0  0  0  0
  -27.8968  -11.2354   18.9136 H   0  0  0  0  0  0
  -27.3397  -12.4717   17.8186 H   0  0  0  0  0  0
  -27.7133  -14.2018   19.5369 H   0  0  0  0  0  0
  -28.6866  -11.9266   21.3500 H   0  0  0  0  0  0
  -28.4493  -13.5605   21.8697 H   0  0  0  0  0  0
  -25.2740   -9.5774   22.4759 H   0  0  0  0  0  0
  -24.0017   -7.4709   22.7508 H   0  0  0  0  0  0
  -21.0821   -8.8803   19.8961 H   0  0  0  0  0  0
  -22.3672  -10.9708   19.6166 H   0  0  0  0  0  0
  -21.2022   -7.6162   23.9719 H   0  0  0  0  0  0
  -21.1413   -6.0521   25.9066 H   0  0  0  0  0  0
  -22.0624   -2.7625   23.2821 H   0  0  0  0  0  0
  -22.4082  -11.9966   22.4754 H   0  0  0  0  0  0
  -21.1120  -13.1389   22.2476 H   0  0  0  0  0  0
  -24.6417  -15.8057   20.4549 H   0  0  0  0  0  0
  -26.2420  -15.5934   19.9521 H   0  0  0  0  0  0
  -26.7117  -32.5558   23.1131 H   0  0  0  0  0  0
  -25.0049  -33.9733   25.0435 H   0  0  0  0  0  0
  -22.6998  -31.3037   21.4030 H   0  0  0  0  0  0
  -23.3734  -35.9654   23.3332 H   0  0  0  0  0  0
  -24.3597  -36.8914   22.2017 H   0  0  0  0  0  0
  -23.7252  -37.6537   23.6664 H   0  0  0  0  0  0
  -26.0534  -31.6098   20.5955 H   0  0  0  0  0  0
  -26.8234  -30.8859   21.9704 H   0  0  0  0  0  0
  -28.1164  -29.1426   21.0782 H   0  0  0  0  0  0
  -26.0613  -25.9520   19.0415 H   0  0  0  0  0  0
  -23.9600  -27.2544   19.0805 H   0  0  0  0  0  0
  -23.7151  -30.5833   19.4061 H   0  0  0  0  0  0
  -22.7474  -29.2194   19.8642 H   0  0  0  0  0  0
  -25.1305  -36.1957   25.0813 H   0  0  0  0  0  0
  -20.9866  -28.3421   24.1297 H   0  0  0  0  0  0
  -20.5564  -26.2448   23.3806 H   0  0  0  0  0  0
  -21.6625  -26.7298   22.1415 H   0  0  0  0  0  0
  -19.6708  -25.5419   21.2468 H   0  0  0  0  0  0
  -19.7173  -27.1688   20.6290 H   0  0  0  0  0  0
  -17.4629  -26.7850   21.2771 H   0  0  0  0  0  0
  -17.9163  -26.0251   22.7998 H   0  0  0  0  0  0
  -19.7848  -30.7468   24.2134 H   0  0  0  0  0  0
  -17.5096  -31.6084   24.5729 H   0  0  0  0  0  0
  -15.5372  -30.3033   23.8055 H   0  0  0  0  0  0
  -15.8628  -28.1121   22.6683 H   0  0  0  0  0  0
  -24.5908  -30.7108   25.7749 H   0  0  0  0  0  0
  -24.9045  -32.2847   26.4999 H   0  0  0  0  0  0
  -25.8144  -30.8754   27.0120 H   0  0  0  0  0  0
  -26.2859  -29.6797   24.1168 H   0  0  0  0  0  0
  -27.4122  -29.7305   25.4533 H   0  0  0  0  0  0
  -27.8694  -30.4341   23.9194 H   0  0  0  0  0  0
  -27.2650  -33.3572   26.2166 H   0  0  0  0  0  0
  -28.3874  -32.6972   25.0332 H   0  0  0  0  0  0
  -28.0768  -31.8389   26.5340 H   0  0  0  0  0  0
  -28.2626  -38.0093   24.7532 H   0  0  0  0  0  0
  -28.1055  -36.2631   24.6305 H   0  0  0  0  0  0
  -27.2293  -37.1475   25.8865 H   0  0  0  0  0  0
  -20.9364  -29.8747   21.6643 H   0  0  0  0  0  0
  -26.0190  -38.2865   24.1419 H   0  0  0  0  0  0
  -29.6520  -19.3821   19.1356 H   0  0  0  0  0  0
  -25.8301  -18.1143   20.2977 H   0  0  0  0  0  0
  -23.6323  -21.9680   20.2100 H   0  0  0  0  0  0
  -25.3068  -22.2889   20.6196 H   0  0  0  0  0  0
  -24.5128  -20.8647   21.2412 H   0  0  0  0  0  0
  -23.8018  -18.9709   19.7960 H   0  0  0  0  0  0
  -24.1436  -18.9585   18.0618 H   0  0  0  0  0  0
  -22.9518  -20.0616   18.7314 H   0  0  0  0  0  0
  -25.5183  -22.5054   17.9640 H   0  0  0  0  0  0
  -23.9689  -21.8426   17.5750 H   0  0  0  0  0  0
  -25.4143  -21.0142   17.0064 H   0  0  0  0  0  0
  -27.6479  -22.0336   17.4746 H   0  0  0  0  0  0
  -29.2142  -21.7927   18.1728 H   0  0  0  0  0  0
  -28.2975  -22.6857   20.4019 H   0  0  0  0  0  0
  -26.8520  -23.1448   19.5510 H   0  0  0  0  0  0
  -27.9719  -24.8244   18.2428 H   0  0  0  0  0  0
  -29.5297  -24.3194   18.8097 H   0  0  0  0  0  0
  -27.6723  -16.7351   21.0014 H   0  0  0  0  0  0
  -28.0577  -16.4245   19.3141 H   0  0  0  0  0  0
  -30.0867  -17.5071   21.3443 H   0  0  0  0  0  0
  -30.4163  -16.9873   19.6932 H   0  0  0  0  0  0
  -27.4181  -25.0999   20.8535 H   0  0  0  0  0  0
  -29.1512  -25.0965   21.0191 H   0  0  0  0  0  0
  -29.0525  -15.0732   21.4948 H   0  0  0  0  0  0
  1 25  1  0  0  0
  1 30  2  0  0  0
  1 86  1  0  0  0
  2  3  1  0  0  0
  2 25  1  0  0  0
  2 87  1  0  0  0
  2 88  1  0  0  0
  3  4  1  0  0  0
  3 89  1  0  0  0
  3 90  1  0  0  0
  4  5  1  0  0  0
  4 91  1  0  0  0
  4 92  1  0  0  0
  5  6  1  0  0  0
  5 26  1  0  0  0
  5 93  1  0  0  0
  6 25  1  0  0  0
  6 94  1  0  0  0
  6 95  1  0  0  0
  7  8  2  0  0  0
  7 26  1  0  0  0
  7 29  1  0  0  0
  8  9  1  0  0  0
  8 22  1  0  0  0
  9 10  1  0  0  0
  9 27  2  0  0  0
 10 11  2  0  0  0
 10 15  1  0  0  0
 11 12  1  0  0  0
 11 96  1  0  0  0
 12 13  2  0  0  0
 12 97  1  0  0  0
 13 14  1  0  0  0
 13 31  1  0  0  0
 14 15  2  0  0  0
 14 98  1  0  0  0
 15 99  1  0  0  0
 16 17  2  0  0  0
 16 21  1  0  0  0
 16 31  1  0  0  0
 17 18  1  0  0  0
 17100  1  0  0  0
 18 19  2  0  0  0
 18101  1  0  0  0
 19 20  1  0  0  0
 19 24  1  0  0  0
 20 21  2  0  0  0
 20102  1  0  0  0
 21 23  1  0  0  0
 22 28  1  0  0  0
 22 32  2  0  0  0
 26 27  1  0  0  0
 28103  1  0  0  0
 28104  1  0  0  0
 29105  1  0  0  0
 29106  1  0  0  0
 33 34  1  0  0  0
 33 66  1  0  0  0
 33 70  2  0  0  0
 34 36  1  0  0  0
 34 59  1  0  0  0
 34107  1  0  0  0
 35 44  2  0  0  0
 35 45  1  0  0  0
 35 68  1  0  0  0
 36 56  1  0  0  0
 36108  1  0  0  0
 37 39  1  0  0  0
 37 47  1  0  0  0
 37 66  1  0  0  0
 37109  1  0  0  0
 38 43  2  0  0  0
 38 46  1  0  0  0
 38 47  1  0  0  0
 39 64  1  0  0  0
 39 67  2  0  0  0
 40 52  1  0  0  0
 40 53  2  0  0  0
 40 58  1  0  0  0
 41110  1  0  0  0
 41111  1  0  0  0
 41112  1  0  0  0
 41 48  1  0  0  0
 42 43  1  0  0  0
 42 66  1  0  0  0
 42113  1  0  0  0
 42114  1  0  0  0
 43 44  1  0  0  0
 44115  1  0  0  0
 45 46  2  0  0  0
 45116  1  0  0  0
 46117  1  0  0  0
 47118  1  0  0  0
 47119  1  0  0  0
 48 56  1  0  0  0
 48 65  1  0  0  0
 48120  1  0  0  0
 49 50  1  0  0  0
 49 53  1  0  0  0
 49 64  1  0  0  0
 49121  1  0  0  0
 50 51  1  0  0  0
 50122  1  0  0  0
 50123  1  0  0  0
 51 52  1  0  0  0
 51124  1  0  0  0
 51125  1  0  0  0
 52126  1  0  0  0
 52127  1  0  0  0
 53 54  1  0  0  0
 54 55  2  0  0  0
 54128  1  0  0  0
 55 57  1  0  0  0
 55129  1  0  0  0
 56 69  2  0  0  0
 57 58  2  0  0  0
 57130  1  0  0  0
 58131  1  0  0  0
 59 60  1  0  0  0
 59 61  1  0  0  0
 59 62  1  0  0  0
 60132  1  0  0  0
 60133  1  0  0  0
 60134  1  0  0  0
 61135  1  0  0  0
 61136  1  0  0  0
 61137  1  0  0  0
 62138  1  0  0  0
 62139  1  0  0  0
 62140  1  0  0  0
 63 65  1  0  0  0
 63141  1  0  0  0
 63142  1  0  0  0
 63143  1  0  0  0
 64144  1  0  0  0
 65145  1  0  0  0
 68 83  1  0  0  0
 71 73  2  0  0  0
 71 85  1  0  0  0
 71146  1  0  0  0
 72 74  2  0  0  0
 72 85  1  0  0  0
 72147  1  0  0  0
 73 74  1  0  0  0
 73 78  1  0  0  0
 74 84  1  0  0  0
 75148  1  0  0  0
 75149  1  0  0  0
 75150  1  0  0  0
 75 84  1  0  0  0
 76 84  1  0  0  0
 76151  1  0  0  0
 76152  1  0  0  0
 76153  1  0  0  0
 77 84  1  0  0  0
 77154  1  0  0  0
 77155  1  0  0  0
 77156  1  0  0  0
 78 79  1  0  0  0
 78157  1  0  0  0
 78158  1  0  0  0
 79 80  1  0  0  0
 79159  1  0  0  0
 79160  1  0  0  0
 80 83  1  0  0  0
 80161  1  0  0  0
 80162  1  0  0  0
 81 82  1  0  0  0
 81 85  1  0  0  0
 81163  1  0  0  0
 81164  1  0  0  0
 82 86  1  0  0  0
 82165  1  0  0  0
 82166  1  0  0  0
 83167  1  0  0  0
 83168  1  0  0  0
 86169  1  0  0  0
M  ISO  4   1 100  68 101  83 101  86 100
M  END
> <chiral flag>
0

> <version>
0

> <s_m_source_file>
/data/baiqing/PycharmProjects/Reinvent-master-3.2/result/LINK_invent/BTK/process_docking_weight1_custom_sum_contain_oxygen_bond_distance_aromatic_linkinvent_7_9_3/rearranged_h_0083.sdf

> <i_m_source_file_index>
43

> <r_mmod_Potential_Energy-OPLS-2005>
-79.8263168334961

> <r_mmod_Stretch_Energy-OPLS-2005>
37.4243011474609

> <r_mmod_Bend_Energy-OPLS-2005>
122.120506286621

> <r_mmod_Torsional_Energy-OPLS-2005>
241.077682495117

> <r_mmod_Improper_Torsional_Energy-OPLS-2005>
7.50856399536133

> <r_mmod_Van_der_Waal_Energy-OPLS-2005>
128.743728637695

> <r_mmod_Electrostatic_Energy-OPLS-2005>
-427.08349609375

> <r_mmod_Solvation_Energy-OPLS-2005>
-205.022613525391

> <b_mmod_Minimization_Converged-OPLS-2005>
0

> <r_mmod_RMS_Derivative-OPLS-2005>
9.40722370147705

$$$$
43
                    3D
 Structure written by MMmdl.
168176  0  0  1  0            999 V2000
  -30.7172  -14.4843   20.5530 C   0  0  0  0  0  0
  -30.4187  -12.3040   19.4432 C   0  0  0  0  0  0
  -29.4992  -12.5043   18.2212 C   0  0  0  0  0  0
  -28.0209  -12.3612   18.6303 C   0  0  0  0  0  0
  -27.6634  -13.2126   19.8780 C   0  0  2  0  0  0
  -28.7054  -13.0215   21.0065 C   0  0  0  0  0  0
  -25.2593  -13.8182   20.5673 C   0  0  0  0  0  0
  -24.1848  -13.0460   20.9168 C   0  0  0  0  0  0
  -24.6407  -11.6924   20.8738 C   0  0  0  0  0  0
  -23.9077  -10.4304   21.0407 C   0  0  0  0  0  0
  -24.3627   -9.4211   21.9181 C   0  0  0  0  0  0
  -23.6297   -8.2249   22.0748 C   0  0  0  0  0  0
  -22.4273   -8.0292   21.3543 C   0  0  0  0  0  0
  -21.9920   -9.0269   20.4645 C   0  0  0  0  0  0
  -22.7254  -10.2143   20.3055 C   0  0  0  0  0  0
  -21.6853   -6.0736   22.5282 C   0  0  0  0  0  0
  -21.4013   -6.5638   23.8214 C   0  0  0  0  0  0
  -21.3661   -5.6789   24.9177 C   0  0  0  0  0  0
  -21.6043   -4.3055   24.7229 C   0  0  0  0  0  0
  -21.8823   -3.8147   23.4350 C   0  0  0  0  0  0
  -21.9192   -4.6960   22.3405 C   0  0  0  0  0  0
  -22.7868  -13.5246   21.1842 C   0  0  0  0  0  0
  -22.1659   -4.2145   21.0982 F   0  0  0  0  0  0
  -21.5634   -3.4540   25.7744 F   0  0  0  0  0  0
  -30.0399  -13.3068   20.4526 N   0  0  0  0  0  0
  -26.3040  -12.9360   20.3389 N   0  0  0  0  0  0
  -25.9339  -11.6517   20.5794 N   0  0  0  0  0  0
  -22.0515  -12.8227   22.0398 N   0  0  0  0  0  0
  -25.4338  -15.1895   20.4045 N   0  0  0  0  0  0
  -31.8373  -14.6513   20.0652 O   0  0  0  0  0  0
  -21.6641   -6.8883   21.4242 O   0  0  0  0  0  0
  -22.3544  -14.5551   20.6697 O   0  0  0  0  0  0
  -24.6190  -31.8664   23.2105 C   0  0  0  0  0  0
  -25.9066  -32.4817   23.8404 C   0  0  1  0  0  0
  -27.2222  -27.3907   20.0961 C   0  0  0  0  0  0
  -25.5895  -33.8612   24.2317 N   0  0  0  0  0  0
  -23.4075  -30.4947   21.5523 C   0  0  2  0  0  0
  -24.8499  -28.9639   20.1105 C   0  0  0  0  0  0
  -22.7431  -29.4661   22.4962 C   0  0  0  0  0  0
  -18.0281  -28.1355   22.8499 C   0  0  0  0  0  0
  -24.1480  -36.7321   23.2636 C   0  0  0  0  0  0
  -25.9430  -30.8179   21.3731 C   0  0  0  0  0  0
  -26.0151  -29.4517   20.7147 C   0  0  0  0  0  0
  -27.2023  -28.6722   20.7070 C   0  0  0  0  0  0
  -26.0348  -26.9480   19.4610 C   0  0  0  0  0  0
  -24.8559  -27.7120   19.4812 C   0  0  0  0  0  0
  -23.6153  -29.8354   20.1647 C   0  0  0  0  0  0
  -25.4100  -36.3107   24.0335 C   0  0  1  0  0  0
  -20.5875  -28.3651   23.1289 C   0  0  2  0  0  0
  -20.6762  -26.9381   22.5402 C   0  0  0  0  0  0
  -19.5739  -26.6360   21.5207 C   0  0  0  0  0  0
  -18.1919  -26.7897   22.1623 C   0  0  0  0  0  0
  -19.1532  -28.8816   23.2894 C   0  0  0  0  0  0
  -18.9460  -30.1422   23.8896 C   0  0  0  0  0  0
  -17.6466  -30.6565   24.0557 C   0  0  0  0  0  0
  -25.9035  -34.9471   23.5129 C   0  0  0  0  0  0
  -16.5353  -29.9076   23.6319 C   0  0  0  0  0  0
  -16.7275  -28.6489   23.0352 C   0  0  0  0  0  0
  -26.4463  -31.6605   25.0742 C   0  0  0  0  0  0
  -25.3716  -31.3746   26.1488 C   0  0  0  0  0  0
  -27.0280  -30.3024   24.6147 C   0  0  0  0  0  0
  -27.6015  -32.4347   25.7501 C   0  0  0  0  0  0
  -27.5583  -37.1814   24.8464 C   0  0  0  0  0  0
  -21.4151  -29.3034   22.3698 N   0  0  0  0  0  0
  -26.4292  -37.3789   23.9409 N   0  0  0  0  0  0
  -24.6749  -31.0744   22.1029 N   0  0  0  0  0  0
  -23.4184  -28.8186   23.3002 O   0  0  0  0  0  0
  -28.3646  -26.5938   20.1540 O   0  0  0  0  0  0
  -26.5607  -34.8922   22.4696 O   0  0  0  0  0  0
  -23.5374  -32.1433   23.7486 O   0  0  0  0  0  0
  -28.8744  -20.4159   20.7739 C   0  0  0  0  0  0
  -29.8420  -19.4318   21.1497 C   0  0  0  0  0  0
  -29.5803  -21.5089   20.3323 C   0  0  0  0  0  0
  -32.8756  -21.2614   18.9800 C   0  0  0  0  0  0
  -33.0087  -22.1812   21.3527 C   0  0  0  0  0  0
  -28.1144  -17.6779   21.6971 C   0  0  0  0  0  0
  -30.1620  -17.8855   23.1101 C   0  0  0  0  0  0
  -29.0609  -22.7716   19.6654 C   0  0  0  0  0  0
  -29.2461  -24.1665   20.3487 C   0  0  0  0  0  0
  -30.3486  -16.9470   20.7617 C   0  0  0  0  0  0
  -28.2054  -25.1920   19.8076 C   0  0  0  0  0  0
  -32.1103  -21.9408   20.1278 C   0  0  0  0  0  0
  -29.6266  -17.9941   21.6693 C   0  0  0  0  0  0
  -31.0662  -19.9255   21.0011 N   0  0  0  0  0  0
  -30.9174  -21.1771   20.4876 N   0  0  0  0  0  0
  -30.0249  -15.5287   21.0443 N   0  0  0  0  0  0
  -31.4665  -12.3801   19.1475 H   0  0  0  0  0  0
  -30.2999  -11.2987   19.8519 H   0  0  0  0  0  0
  -29.7436  -11.7820   17.4417 H   0  0  0  0  0  0
  -29.6698  -13.4922   17.7893 H   0  0  0  0  0  0
  -27.8365  -11.3064   18.8371 H   0  0  0  0  0  0
  -27.3709  -12.6240   17.7948 H   0  0  0  0  0  0
  -27.7018  -14.2568   19.5653 H   0  0  0  0  0  0
  -28.6756  -11.9986   21.3856 H   0  0  0  0  0  0
  -28.4695  -13.6558   21.8622 H   0  0  0  0  0  0
  -25.2774   -9.5678   22.4757 H   0  0  0  0  0  0
  -24.0007   -7.4634   22.7461 H   0  0  0  0  0  0
  -21.0856   -8.8800   19.8948 H   0  0  0  0  0  0
  -22.3725  -10.9687   19.6165 H   0  0  0  0  0  0
  -21.2001   -7.6145   23.9717 H   0  0  0  0  0  0
  -21.1480   -6.0520   25.9078 H   0  0  0  0  0  0
  -22.0598   -2.7608   23.2855 H   0  0  0  0  0  0
  -22.4130  -11.9866   22.4747 H   0  0  0  0  0  0
  -21.1144  -13.1264   22.2650 H   0  0  0  0  0  0
  -24.6707  -15.8504   20.4979 H   0  0  0  0  0  0
  -26.2927  -15.6197   20.0881 H   0  0  0  0  0  0
  -26.7130  -32.5501   23.1163 H   0  0  0  0  0  0
  -25.0008  -33.9763   25.0434 H   0  0  0  0  0  0
  -22.6983  -31.3140   21.4178 H   0  0  0  0  0  0
  -23.3732  -35.9669   23.3310 H   0  0  0  0  0  0
  -24.3582  -36.8929   22.2052 H   0  0  0  0  0  0
  -23.7248  -37.6529   23.6652 H   0  0  0  0  0  0
  -26.0668  -31.5861   20.6079 H   0  0  0  0  0  0
  -26.8285  -30.8666   21.9950 H   0  0  0  0  0  0
  -28.0948  -29.0372   21.1948 H   0  0  0  0  0  0
  -25.9791  -26.0035   18.9408 H   0  0  0  0  0  0
  -23.9613  -27.3330   19.0053 H   0  0  0  0  0  0
  -23.7267  -30.6152   19.4110 H   0  0  0  0  0  0
  -22.7344  -29.2635   19.8653 H   0  0  0  0  0  0
  -25.1278  -36.1975   25.0831 H   0  0  0  0  0  0
  -20.9989  -28.3224   24.1402 H   0  0  0  0  0  0
  -20.5648  -26.2273   23.3608 H   0  0  0  0  0  0
  -21.6631  -26.7402   22.1199 H   0  0  0  0  0  0
  -19.6894  -25.6276   21.1229 H   0  0  0  0  0  0
  -19.6652  -27.3168   20.6740 H   0  0  0  0  0  0
  -17.4181  -26.6653   21.4024 H   0  0  0  0  0  0
  -18.0315  -26.0019   22.9000 H   0  0  0  0  0  0
  -19.7946  -30.7236   24.2254 H   0  0  0  0  0  0
  -17.5033  -31.6246   24.5158 H   0  0  0  0  0  0
  -15.5357  -30.2986   23.7629 H   0  0  0  0  0  0
  -15.8675  -28.0811   22.7066 H   0  0  0  0  0  0
  -24.5892  -30.7068   25.7865 H   0  0  0  0  0  0
  -24.8897  -32.2916   26.4879 H   0  0  0  0  0  0
  -25.8053  -30.8972   27.0287 H   0  0  0  0  0  0
  -26.2838  -29.6807   24.1144 H   0  0  0  0  0  0
  -27.3958  -29.7228   25.4626 H   0  0  0  0  0  0
  -27.8719  -30.4309   23.9366 H   0  0  0  0  0  0
  -27.2610  -33.3642   26.2078 H   0  0  0  0  0  0
  -28.3819  -32.6930   25.0332 H   0  0  0  0  0  0
  -28.0696  -31.8488   26.5425 H   0  0  0  0  0  0
  -28.2598  -38.0109   24.7510 H   0  0  0  0  0  0
  -28.1077  -36.2641   24.6289 H   0  0  0  0  0  0
  -27.2314  -37.1477   25.8869 H   0  0  0  0  0  0
  -20.9302  -29.8798   21.6959 H   0  0  0  0  0  0
  -26.0174  -38.2866   24.1398 H   0  0  0  0  0  0
  -27.7992  -20.3116   20.7770 H   0  0  0  0  0  0
  -33.7333  -21.8590   18.6704 H   0  0  0  0  0  0
  -32.2325  -21.1291   18.1091 H   0  0  0  0  0  0
  -33.2438  -20.2766   19.2680 H   0  0  0  0  0  0
  -33.8623  -22.8104   21.1004 H   0  0  0  0  0  0
  -33.3959  -21.2460   21.7589 H   0  0  0  0  0  0
  -32.4550  -22.6820   22.1471 H   0  0  0  0  0  0
  -27.5679  -18.3940   22.3119 H   0  0  0  0  0  0
  -27.9078  -16.6915   22.1122 H   0  0  0  0  0  0
  -27.6869  -17.7080   20.6943 H   0  0  0  0  0  0
  -29.6553  -18.5876   23.7728 H   0  0  0  0  0  0
  -31.2292  -18.1089   23.1503 H   0  0  0  0  0  0
  -30.0230  -16.8850   23.5210 H   0  0  0  0  0  0
  -27.9930  -22.6211   19.5071 H   0  0  0  0  0  0
  -29.4804  -22.8235   18.6590 H   0  0  0  0  0  0
  -30.2588  -24.5366   20.1961 H   0  0  0  0  0  0
  -29.1093  -24.0670   21.4257 H   0  0  0  0  0  0
  -31.4278  -17.1048   20.8212 H   0  0  0  0  0  0
  -30.0765  -17.1382   19.7220 H   0  0  0  0  0  0
  -27.2493  -24.8246   20.1838 H   0  0  0  0  0  0
  -28.1704  -25.1219   18.7195 H   0  0  0  0  0  0
  -31.7848  -22.9128   19.7628 H   0  0  0  0  0  0
  -29.1202  -15.3308   21.4440 H   0  0  0  0  0  0
  1 25  1  0  0  0
  1 30  2  0  0  0
  1 86  1  0  0  0
  2  3  1  0  0  0
  2 25  1  0  0  0
  2 87  1  0  0  0
  2 88  1  0  0  0
  3  4  1  0  0  0
  3 89  1  0  0  0
  3 90  1  0  0  0
  4  5  1  0  0  0
  4 91  1  0  0  0
  4 92  1  0  0  0
  5  6  1  0  0  0
  5 26  1  0  0  0
  5 93  1  0  0  0
  6 25  1  0  0  0
  6 94  1  0  0  0
  6 95  1  0  0  0
  7  8  2  0  0  0
  7 26  1  0  0  0
  7 29  1  0  0  0
  8  9  1  0  0  0
  8 22  1  0  0  0
  9 10  1  0  0  0
  9 27  2  0  0  0
 10 11  2  0  0  0
 10 15  1  0  0  0
 11 12  1  0  0  0
 11 96  1  0  0  0
 12 13  2  0  0  0
 12 97  1  0  0  0
 13 14  1  0  0  0
 13 31  1  0  0  0
 14 15  2  0  0  0
 14 98  1  0  0  0
 15 99  1  0  0  0
 16 17  2  0  0  0
 16 21  1  0  0  0
 16 31  1  0  0  0
 17 18  1  0  0  0
 17100  1  0  0  0
 18 19  2  0  0  0
 18101  1  0  0  0
 19 20  1  0  0  0
 19 24  1  0  0  0
 20 21  2  0  0  0
 20102  1  0  0  0
 21 23  1  0  0  0
 22 28  1  0  0  0
 22 32  2  0  0  0
 26 27  1  0  0  0
 28103  1  0  0  0
 28104  1  0  0  0
 29105  1  0  0  0
 29106  1  0  0  0
 33 34  1  0  0  0
 33 66  1  0  0  0
 33 70  2  0  0  0
 34 36  1  0  0  0
 34 59  1  0  0  0
 34107  1  0  0  0
 35 44  2  0  0  0
 35 45  1  0  0  0
 35 68  1  0  0  0
 36 56  1  0  0  0
 36108  1  0  0  0
 37 39  1  0  0  0
 37 47  1  0  0  0
 37 66  1  0  0  0
 37109  1  0  0  0
 38 43  2  0  0  0
 38 46  1  0  0  0
 38 47  1  0  0  0
 39 64  1  0  0  0
 39 67  2  0  0  0
 40 52  1  0  0  0
 40 53  2  0  0  0
 40 58  1  0  0  0
 41110  1  0  0  0
 41111  1  0  0  0
 41112  1  0  0  0
 41 48  1  0  0  0
 42 43  1  0  0  0
 42 66  1  0  0  0
 42113  1  0  0  0
 42114  1  0  0  0
 43 44  1  0  0  0
 44115  1  0  0  0
 45 46  2  0  0  0
 45116  1  0  0  0
 46117  1  0  0  0
 47118  1  0  0  0
 47119  1  0  0  0
 48 56  1  0  0  0
 48 65  1  0  0  0
 48120  1  0  0  0
 49 50  1  0  0  0
 49 53  1  0  0  0
 49 64  1  0  0  0
 49121  1  0  0  0
 50 51  1  0  0  0
 50122  1  0  0  0
 50123  1  0  0  0
 51 52  1  0  0  0
 51124  1  0  0  0
 51125  1  0  0  0
 52126  1  0  0  0
 52127  1  0  0  0
 53 54  1  0  0  0
 54 55  2  0  0  0
 54128  1  0  0  0
 55 57  1  0  0  0
 55129  1  0  0  0
 56 69  2  0  0  0
 57 58  2  0  0  0
 57130  1  0  0  0
 58131  1  0  0  0
 59 60  1  0  0  0
 59 61  1  0  0  0
 59 62  1  0  0  0
 60132  1  0  0  0
 60133  1  0  0  0
 60134  1  0  0  0
 61135  1  0  0  0
 61136  1  0  0  0
 61137  1  0  0  0
 62138  1  0  0  0
 62139  1  0  0  0
 62140  1  0  0  0
 63 65  1  0  0  0
 63141  1  0  0  0
 63142  1  0  0  0
 63143  1  0  0  0
 64144  1  0  0  0
 65145  1  0  0  0
 68 81  1  0  0  0
 71 72  1  0  0  0
 71 73  2  0  0  0
 71146  1  0  0  0
 72 83  1  0  0  0
 72 84  2  0  0  0
 73 78  1  0  0  0
 73 85  1  0  0  0
 74147  1  0  0  0
 74148  1  0  0  0
 74149  1  0  0  0
 74 82  1  0  0  0
 75 82  1  0  0  0
 75150  1  0  0  0
 75151  1  0  0  0
 75152  1  0  0  0
 76153  1  0  0  0
 76154  1  0  0  0
 76155  1  0  0  0
 76 83  1  0  0  0
 77 83  1  0  0  0
 77156  1  0  0  0
 77157  1  0  0  0
 77158  1  0  0  0
 78 79  1  0  0  0
 78159  1  0  0  0
 78160  1  0  0  0
 79 81  1  0  0  0
 79161  1  0  0  0
 79162  1  0  0  0
 80 83  1  0  0  0
 80 86  1  0  0  0
 80163  1  0  0  0
 80164  1  0  0  0
 81165  1  0  0  0
 81166  1  0  0  0
 82 85  1  0  0  0
 82167  1  0  0  0
 84 85  1  0  0  0
 86168  1  0  0  0
M  ISO  4   1 100  68 101  81 101  86 100
M  END
> <chiral flag>
0

> <version>
0

> <s_m_source_file>
/data/baiqing/PycharmProjects/Reinvent-master-3.2/result/LINK_invent/BTK/process_docking_weight1_custom_sum_contain_oxygen_bond_distance_aromatic_linkinvent_7_9_3/rearranged_h_0083.sdf

> <i_m_source_file_index>
44

> <r_mmod_Potential_Energy-OPLS-2005>
-136.871658325195

> <r_mmod_Stretch_Energy-OPLS-2005>
45.4937896728516

> <r_mmod_Bend_Energy-OPLS-2005>
111.598403930664

> <r_mmod_Torsional_Energy-OPLS-2005>
223.529769897461

> <r_mmod_Improper_Torsional_Energy-OPLS-2005>
5.23583078384399

> <r_mmod_Van_der_Waal_Energy-OPLS-2005>
134.032470703125

> <r_mmod_Electrostatic_Energy-OPLS-2005>
-467.622344970703

> <r_mmod_Solvation_Energy-OPLS-2005>
-208.888717651367

> <b_mmod_Minimization_Converged-OPLS-2005>
0

> <r_mmod_RMS_Derivative-OPLS-2005>
1.9110050201416

$$$$
44
                    3D
 Structure written by MMmdl.
164172  0  0  1  0            999 V2000
  -30.5218  -14.9920   20.4244 C   0  0  0  0  0  0
  -30.4437  -12.6265   19.4894 C   0  0  0  0  0  0
  -29.5249  -12.5403   18.2502 C   0  0  0  0  0  0
  -28.0587  -12.3128   18.6687 C   0  0  0  0  0  0
  -27.6252  -13.2476   19.8284 C   0  0  2  0  0  0
  -28.6678  -13.2981   20.9629 C   0  0  0  0  0  0
  -25.2433  -13.8214   20.5672 C   0  0  0  0  0  0
  -24.1766  -13.0436   20.9228 C   0  0  0  0  0  0
  -24.6388  -11.6923   20.8753 C   0  0  0  0  0  0
  -23.9075  -10.4288   21.0401 C   0  0  0  0  0  0
  -24.3633   -9.4208   21.9174 C   0  0  0  0  0  0
  -23.6309   -8.2247   22.0749 C   0  0  0  0  0  0
  -22.4281   -8.0287   21.3547 C   0  0  0  0  0  0
  -21.9920   -9.0243   20.4639 C   0  0  0  0  0  0
  -22.7244  -10.2118   20.3045 C   0  0  0  0  0  0
  -21.6856   -6.0730   22.5279 C   0  0  0  0  0  0
  -21.4009   -6.5631   23.8206 C   0  0  0  0  0  0
  -21.3672   -5.6787   24.9172 C   0  0  0  0  0  0
  -21.6051   -4.3052   24.7221 C   0  0  0  0  0  0
  -21.8824   -3.8141   23.4347 C   0  0  0  0  0  0
  -21.9191   -4.6958   22.3398 C   0  0  0  0  0  0
  -22.7771  -13.5197   21.1867 C   0  0  0  0  0  0
  -22.1648   -4.2140   21.0977 F   0  0  0  0  0  0
  -21.5646   -3.4538   25.7738 F   0  0  0  0  0  0
  -29.9336  -13.7279   20.3534 N   0  0  0  0  0  0
  -26.2852  -12.9436   20.3190 N   0  0  0  0  0  0
  -25.9314  -11.6570   20.5720 N   0  0  0  0  0  0
  -22.0415  -12.8196   22.0429 N   0  0  0  0  0  0
  -25.4115  -15.1946   20.4076 N   0  0  0  0  0  0
  -31.7407  -15.0520   20.2292 O   0  0  0  0  0  0
  -21.6656   -6.8876   21.4241 O   0  0  0  0  0  0
  -22.3458  -14.5495   20.6701 O   0  0  0  0  0  0
  -24.6469  -31.8409   23.1835 C   0  0  0  0  0  0
  -25.9226  -32.4678   23.8248 C   0  0  1  0  0  0
  -27.2236  -27.1013   20.1692 C   0  0  0  0  0  0
  -25.5954  -33.8484   24.2170 N   0  0  0  0  0  0
  -23.4528  -30.4559   21.5297 C   0  0  2  0  0  0
  -24.9022  -28.8688   20.1144 C   0  0  0  0  0  0
  -22.7580  -29.4541   22.4863 C   0  0  0  0  0  0
  -18.0301  -28.1399   22.8482 C   0  0  0  0  0  0
  -24.1486  -36.7244   23.2646 C   0  0  0  0  0  0
  -26.0083  -30.7044   21.3846 C   0  0  0  0  0  0
  -26.0796  -29.3100   20.7303 C   0  0  0  0  0  0
  -27.2397  -28.4441   20.7342 C   0  0  0  0  0  0
  -26.0189  -26.7612   19.5176 C   0  0  0  0  0  0
  -24.8866  -27.6096   19.4917 C   0  0  0  0  0  0
  -23.6802  -29.7756   20.1527 C   0  0  0  0  0  0
  -25.4125  -36.3027   24.0319 C   0  0  1  0  0  0
  -20.5911  -28.3734   23.1232 C   0  0  2  0  0  0
  -20.6791  -26.9438   22.5408 C   0  0  0  0  0  0
  -19.5758  -26.6389   21.5223 C   0  0  0  0  0  0
  -18.1933  -26.7944   22.1626 C   0  0  0  0  0  0
  -19.1555  -28.8884   23.2850 C   0  0  0  0  0  0
  -18.9478  -30.1475   23.8876 C   0  0  0  0  0  0
  -17.6478  -30.6607   24.0556 C   0  0  0  0  0  0
  -25.9079  -34.9402   23.5063 C   0  0  0  0  0  0
  -16.5366  -29.9097   23.6338 C   0  0  0  0  0  0
  -16.7287  -28.6508   23.0376 C   0  0  0  0  0  0
  -26.4538  -31.6552   25.0704 C   0  0  0  0  0  0
  -25.3719  -31.3731   26.1396 C   0  0  0  0  0  0
  -27.0408  -30.2947   24.6295 C   0  0  0  0  0  0
  -27.6059  -32.4326   25.7501 C   0  0  0  0  0  0
  -27.5576  -37.1777   24.8467 C   0  0  0  0  0  0
  -21.4265  -29.3061   22.3605 N   0  0  0  0  0  0
  -26.4281  -37.3751   23.9419 N   0  0  0  0  0  0
  -24.7231  -31.0224   22.0882 N   0  0  0  0  0  0
  -23.4196  -28.8112   23.3052 O   0  0  0  0  0  0
  -28.2925  -26.1256   20.2399 O   0  0  0  0  0  0
  -26.5673  -34.8911   22.4646 O   0  0  0  0  0  0
  -23.5583  -32.1295   23.7035 O   0  0  0  0  0  0
  -30.5676  -24.3640   20.5076 C   0  0  0  0  0  0
  -31.8446  -23.8556   20.7609 C   0  0  0  0  0  0
  -29.4161  -23.5448   20.3981 C   0  0  0  0  0  0
  -31.9994  -22.4805   20.8887 C   0  0  0  0  0  0
  -29.7052  -22.0382   20.5009 C   0  0  0  0  0  0
  -33.4216  -21.5278   22.7518 C   0  0  0  0  0  0
  -27.4019  -20.8710   20.3290 C   0  0  0  0  0  0
  -28.5398  -18.5950   18.8545 C   0  0  0  0  0  0
  -28.1206  -24.5546   20.2059 C   0  0  0  0  0  0
  -33.3392  -21.8721   21.2578 C   0  0  0  0  0  0
  -29.9641  -17.7173   20.8536 C   0  0  0  0  0  0
  -28.8878  -20.6128   20.6236 C   0  0  1  0  0  0
  -29.4492  -19.0982   19.9907 C   0  0  2  0  0  0
  -30.9729  -21.6322   20.7500 N   0  0  0  0  0  0
  -29.7235  -16.1744   20.5150 N   0  0  0  0  0  0
  -31.4706  -12.8088   19.1720 H   0  0  0  0  0  0
  -30.4599  -11.6815   20.0344 H   0  0  0  0  0  0
  -29.8571  -11.7414   17.5862 H   0  0  0  0  0  0
  -29.6023  -13.4674   17.6807 H   0  0  0  0  0  0
  -27.9668  -11.2718   18.9800 H   0  0  0  0  0  0
  -27.3961  -12.4344   17.8100 H   0  0  0  0  0  0
  -27.5794  -14.2448   19.3913 H   0  0  0  0  0  0
  -28.7717  -12.3275   21.4493 H   0  0  0  0  0  0
  -28.3567  -14.0025   21.7362 H   0  0  0  0  0  0
  -25.2763   -9.5701   22.4769 H   0  0  0  0  0  0
  -24.0012   -7.4652   22.7480 H   0  0  0  0  0  0
  -21.0857   -8.8742   19.8941 H   0  0  0  0  0  0
  -22.3689  -10.9654   19.6165 H   0  0  0  0  0  0
  -21.1988   -7.6135   23.9699 H   0  0  0  0  0  0
  -21.1493   -6.0521   25.9073 H   0  0  0  0  0  0
  -22.0595   -2.7605   23.2845 H   0  0  0  0  0  0
  -22.4004  -11.9876   22.4869 H   0  0  0  0  0  0
  -21.1011  -13.1205   22.2573 H   0  0  0  0  0  0
  -24.6476  -15.8505   20.5239 H   0  0  0  0  0  0
  -26.2517  -15.6325   20.0520 H   0  0  0  0  0  0
  -26.7293  -32.5267   23.0974 H   0  0  0  0  0  0
  -25.0063  -33.9589   25.0295 H   0  0  0  0  0  0
  -22.7579  -31.2827   21.3694 H   0  0  0  0  0  0
  -23.3768  -35.9552   23.3283 H   0  0  0  0  0  0
  -24.3572  -36.8906   22.2066 H   0  0  0  0  0  0
  -23.7211  -37.6421   23.6700 H   0  0  0  0  0  0
  -26.1621  -31.4545   20.6078 H   0  0  0  0  0  0
  -26.8793  -30.7598   22.0263 H   0  0  0  0  0  0
  -28.1387  -28.7789   21.2318 H   0  0  0  0  0  0
  -25.9272  -25.7952   19.0425 H   0  0  0  0  0  0
  -23.9864  -27.2643   19.0021 H   0  0  0  0  0  0
  -23.8195  -30.5453   19.3930 H   0  0  0  0  0  0
  -22.7937  -29.2180   19.8444 H   0  0  0  0  0  0
  -25.1314  -36.1854   25.0809 H   0  0  0  0  0  0
  -20.9994  -28.3334   24.1358 H   0  0  0  0  0  0
  -20.5699  -26.2361   23.3637 H   0  0  0  0  0  0
  -21.6653  -26.7459   22.1196 H   0  0  0  0  0  0
  -19.6927  -25.6288   21.1277 H   0  0  0  0  0  0
  -19.6692  -27.3182   20.6736 H   0  0  0  0  0  0
  -17.4217  -26.6702   21.4014 H   0  0  0  0  0  0
  -18.0312  -26.0081   22.9009 H   0  0  0  0  0  0
  -19.7950  -30.7287   24.2252 H   0  0  0  0  0  0
  -17.5035  -31.6296   24.5138 H   0  0  0  0  0  0
  -15.5365  -30.3000   23.7677 H   0  0  0  0  0  0
  -15.8681  -28.0814   22.7132 H   0  0  0  0  0  0
  -24.5921  -30.7056   25.7714 H   0  0  0  0  0  0
  -24.8882  -32.2897   26.4774 H   0  0  0  0  0  0
  -25.8009  -30.8942   27.0208 H   0  0  0  0  0  0
  -26.3026  -29.6661   24.1303 H   0  0  0  0  0  0
  -27.4013  -29.7260   25.4877 H   0  0  0  0  0  0
  -27.8936  -30.4184   23.9619 H   0  0  0  0  0  0
  -27.2651  -33.3655   26.2008 H   0  0  0  0  0  0
  -28.3914  -32.6842   25.0361 H   0  0  0  0  0  0
  -28.0680  -31.8495   26.5479 H   0  0  0  0  0  0
  -28.2579  -38.0087   24.7544 H   0  0  0  0  0  0
  -28.1084  -36.2623   24.6259 H   0  0  0  0  0  0
  -27.2296  -37.1384   25.8867 H   0  0  0  0  0  0
  -20.9497  -29.8737   21.6739 H   0  0  0  0  0  0
  -26.0146  -38.2817   24.1432 H   0  0  0  0  0  0
  -30.4920  -25.4374   20.4360 H   0  0  0  0  0  0
  -32.6869  -24.5233   20.8828 H   0  0  0  0  0  0
  -34.3890  -21.0927   23.0008 H   0  0  0  0  0  0
  -32.6489  -20.8146   23.0388 H   0  0  0  0  0  0
  -33.2909  -22.4194   23.3649 H   0  0  0  0  0  0
  -27.0218  -21.6775   20.9563 H   0  0  0  0  0  0
  -26.7903  -19.9934   20.5336 H   0  0  0  0  0  0
  -27.2526  -21.1630   19.2895 H   0  0  0  0  0  0
  -29.0185  -17.7831   18.3049 H   0  0  0  0  0  0
  -28.3292  -19.3829   18.1304 H   0  0  0  0  0  0
  -27.5907  -18.2142   19.2318 H   0  0  0  0  0  0
  -27.3903  -24.2906   20.9708 H   0  0  0  0  0  0
  -27.6625  -24.2891   19.2534 H   0  0  0  0  0  0
  -34.1375  -22.5680   20.9971 H   0  0  0  0  0  0
  -33.5067  -20.9779   20.6562 H   0  0  0  0  0  0
  -29.5597  -17.8299   21.8594 H   0  0  0  0  0  0
  -31.0407  -17.8249   21.0003 H   0  0  0  0  0  0
  -28.9107  -20.4382   21.7010 H   0  0  0  0  0  0
  -30.3570  -19.3901   19.4616 H   0  0  0  0  0  0
  -28.7414  -15.9419   20.5093 H   0  0  0  0  0  0
  1 25  1  0  0  0
  1 30  2  0  0  0
  1 85  1  0  0  0
  2  3  1  0  0  0
  2 25  1  0  0  0
  2 86  1  0  0  0
  2 87  1  0  0  0
  3  4  1  0  0  0
  3 88  1  0  0  0
  3 89  1  0  0  0
  4  5  1  0  0  0
  4 90  1  0  0  0
  4 91  1  0  0  0
  5  6  1  0  0  0
  5 26  1  0  0  0
  5 92  1  0  0  0
  6 25  1  0  0  0
  6 93  1  0  0  0
  6 94  1  0  0  0
  7  8  2  0  0  0
  7 26  1  0  0  0
  7 29  1  0  0  0
  8  9  1  0  0  0
  8 22  1  0  0  0
  9 10  1  0  0  0
  9 27  2  0  0  0
 10 11  2  0  0  0
 10 15  1  0  0  0
 11 12  1  0  0  0
 11 95  1  0  0  0
 12 13  2  0  0  0
 12 96  1  0  0  0
 13 14  1  0  0  0
 13 31  1  0  0  0
 14 15  2  0  0  0
 14 97  1  0  0  0
 15 98  1  0  0  0
 16 17  2  0  0  0
 16 21  1  0  0  0
 16 31  1  0  0  0
 17 18  1  0  0  0
 17 99  1  0  0  0
 18 19  2  0  0  0
 18100  1  0  0  0
 19 20  1  0  0  0
 19 24  1  0  0  0
 20 21  2  0  0  0
 20101  1  0  0  0
 21 23  1  0  0  0
 22 28  1  0  0  0
 22 32  2  0  0  0
 26 27  1  0  0  0
 28102  1  0  0  0
 28103  1  0  0  0
 29104  1  0  0  0
 29105  1  0  0  0
 33 34  1  0  0  0
 33 66  1  0  0  0
 33 70  2  0  0  0
 34 36  1  0  0  0
 34 59  1  0  0  0
 34106  1  0  0  0
 35 44  2  0  0  0
 35 45  1  0  0  0
 35 68  1  0  0  0
 36 56  1  0  0  0
 36107  1  0  0  0
 37 39  1  0  0  0
 37 47  1  0  0  0
 37 66  1  0  0  0
 37108  1  0  0  0
 38 43  2  0  0  0
 38 46  1  0  0  0
 38 47  1  0  0  0
 39 64  1  0  0  0
 39 67  2  0  0  0
 40 52  1  0  0  0
 40 53  2  0  0  0
 40 58  1  0  0  0
 41109  1  0  0  0
 41110  1  0  0  0
 41111  1  0  0  0
 41 48  1  0  0  0
 42 43  1  0  0  0
 42 66  1  0  0  0
 42112  1  0  0  0
 42113  1  0  0  0
 43 44  1  0  0  0
 44114  1  0  0  0
 45 46  2  0  0  0
 45115  1  0  0  0
 46116  1  0  0  0
 47117  1  0  0  0
 47118  1  0  0  0
 48 56  1  0  0  0
 48 65  1  0  0  0
 48119  1  0  0  0
 49 50  1  0  0  0
 49 53  1  0  0  0
 49 64  1  0  0  0
 49120  1  0  0  0
 50 51  1  0  0  0
 50121  1  0  0  0
 50122  1  0  0  0
 51 52  1  0  0  0
 51123  1  0  0  0
 51124  1  0  0  0
 52125  1  0  0  0
 52126  1  0  0  0
 53 54  1  0  0  0
 54 55  2  0  0  0
 54127  1  0  0  0
 55 57  1  0  0  0
 55128  1  0  0  0
 56 69  2  0  0  0
 57 58  2  0  0  0
 57129  1  0  0  0
 58130  1  0  0  0
 59 60  1  0  0  0
 59 61  1  0  0  0
 59 62  1  0  0  0
 60131  1  0  0  0
 60132  1  0  0  0
 60133  1  0  0  0
 61134  1  0  0  0
 61135  1  0  0  0
 61136  1  0  0  0
 62137  1  0  0  0
 62138  1  0  0  0
 62139  1  0  0  0
 63 65  1  0  0  0
 63140  1  0  0  0
 63141  1  0  0  0
 63142  1  0  0  0
 64143  1  0  0  0
 65144  1  0  0  0
 68 79  1  0  0  0
 71 72  2  0  0  0
 71 73  1  0  0  0
 71145  1  0  0  0
 72 74  1  0  0  0
 72146  1  0  0  0
 73 75  2  0  0  0
 73 79  1  0  0  0
 74 80  1  0  0  0
 74 84  2  0  0  0
 75 82  1  0  0  0
 75 84  1  0  0  0
 76 80  1  0  0  0
 76147  1  0  0  0
 76148  1  0  0  0
 76149  1  0  0  0
 77150  1  0  0  0
 77151  1  0  0  0
 77152  1  0  0  0
 77 82  1  0  0  0
 78153  1  0  0  0
 78154  1  0  0  0
 78155  1  0  0  0
 78 83  1  0  0  0
 79156  1  0  0  0
 79157  1  0  0  0
 80158  1  0  0  0
 80159  1  0  0  0
 81 83  1  0  0  0
 81 85  1  0  0  0
 81160  1  0  0  0
 81161  1  0  0  0
 82 83  1  0  0  0
 82162  1  0  0  0
 83163  1  0  0  0
 85164  1  0  0  0
M  ISO  4   1 100  68 101  79 101  85 100
M  END
> <chiral flag>
0

> <version>
0

> <s_m_source_file>
/data/baiqing/PycharmProjects/Reinvent-master-3.2/result/LINK_invent/BTK/process_docking_weight1_custom_sum_contain_oxygen_bond_distance_aromatic_linkinvent_7_9_3/rearranged_h_0083.sdf

> <i_m_source_file_index>
45

> <r_mmod_Potential_Energy-OPLS-2005>
534.778198242188

> <r_mmod_Stretch_Energy-OPLS-2005>
329.133087158203

> <r_mmod_Bend_Energy-OPLS-2005>
357.109344482422

> <r_mmod_Torsional_Energy-OPLS-2005>
240.27473449707

> <r_mmod_Improper_Torsional_Energy-OPLS-2005>
5.14427804946899

> <r_mmod_Van_der_Waal_Energy-OPLS-2005>
128.860870361328

> <r_mmod_Electrostatic_Energy-OPLS-2005>
-536.137268066406

> <r_mmod_Solvation_Energy-OPLS-2005>
-214.095489501953

> <b_mmod_Minimization_Converged-OPLS-2005>
0

> <r_mmod_RMS_Derivative-OPLS-2005>
2.18999218940735

$$$$
45
                    3D
 Structure written by MMmdl.
164172  0  0  1  0            999 V2000
  -30.6483  -14.5281   20.5595 C   0  0  0  0  0  0
  -30.4352  -12.3383   19.4226 C   0  0  0  0  0  0
  -29.4976  -12.5078   18.2068 C   0  0  0  0  0  0
  -28.0195  -12.3585   18.6214 C   0  0  0  0  0  0
  -27.6597  -13.2027   19.8727 C   0  0  2  0  0  0
  -28.7026  -12.9874   20.9926 C   0  0  0  0  0  0
  -25.2601  -13.8151   20.5675 C   0  0  0  0  0  0
  -24.1842  -13.0437   20.9155 C   0  0  0  0  0  0
  -24.6391  -11.6899   20.8723 C   0  0  0  0  0  0
  -23.9053  -10.4289   21.0401 C   0  0  0  0  0  0
  -24.3605   -9.4212   21.9186 C   0  0  0  0  0  0
  -23.6285   -8.2247   22.0756 C   0  0  0  0  0  0
  -22.4272   -8.0277   21.3540 C   0  0  0  0  0  0
  -21.9900   -9.0252   20.4650 C   0  0  0  0  0  0
  -22.7221  -10.2135   20.3059 C   0  0  0  0  0  0
  -21.6860   -6.0731   22.5278 C   0  0  0  0  0  0
  -21.4018   -6.5638   23.8209 C   0  0  0  0  0  0
  -21.3654   -5.6791   24.9171 C   0  0  0  0  0  0
  -21.6043   -4.3054   24.7222 C   0  0  0  0  0  0
  -21.8818   -3.8142   23.4346 C   0  0  0  0  0  0
  -21.9192   -4.6958   22.3402 C   0  0  0  0  0  0
  -22.7869  -13.5249   21.1830 C   0  0  0  0  0  0
  -22.1661   -4.2145   21.0980 F   0  0  0  0  0  0
  -21.5626   -3.4540   25.7738 F   0  0  0  0  0  0
  -30.0266  -13.3216   20.4381 N   0  0  0  0  0  0
  -26.3020  -12.9302   20.3350 N   0  0  0  0  0  0
  -25.9313  -11.6470   20.5747 N   0  0  0  0  0  0
  -22.0511  -12.8245   22.0391 N   0  0  0  0  0  0
  -25.4345  -15.1873   20.4119 N   0  0  0  0  0  0
  -31.7801  -14.7418   20.1148 O   0  0  0  0  0  0
  -21.6642   -6.8873   21.4237 O   0  0  0  0  0  0
  -22.3561  -14.5559   20.6691 O   0  0  0  0  0  0
  -24.6175  -31.8647   23.2063 C   0  0  0  0  0  0
  -25.9061  -32.4803   23.8370 C   0  0  1  0  0  0
  -27.2343  -27.4095   20.1066 C   0  0  0  0  0  0
  -25.5909  -33.8600   24.2306 N   0  0  0  0  0  0
  -23.4077  -30.4857   21.5469 C   0  0  2  0  0  0
  -24.8558  -28.9462   20.1147 C   0  0  0  0  0  0
  -22.7431  -29.4638   22.4976 C   0  0  0  0  0  0
  -18.0289  -28.1358   22.8473 C   0  0  0  0  0  0
  -24.1484  -36.7311   23.2637 C   0  0  0  0  0  0
  -25.9373  -30.8253   21.3605 C   0  0  0  0  0  0
  -26.0163  -29.4561   20.7102 C   0  0  0  0  0  0
  -27.2129  -28.6976   20.6960 C   0  0  0  0  0  0
  -26.0584  -26.9154   19.5093 C   0  0  0  0  0  0
  -24.8733  -27.6776   19.5070 C   0  0  0  0  0  0
  -23.6175  -29.8151   20.1621 C   0  0  0  0  0  0
  -25.4107  -36.3097   24.0328 C   0  0  1  0  0  0
  -20.5876  -28.3666   23.1316 C   0  0  2  0  0  0
  -20.6784  -26.9394   22.5435 C   0  0  0  0  0  0
  -19.5782  -26.6358   21.5219 C   0  0  0  0  0  0
  -18.1951  -26.7905   22.1602 C   0  0  0  0  0  0
  -19.1533  -28.8826   23.2891 C   0  0  0  0  0  0
  -18.9451  -30.1434   23.8895 C   0  0  0  0  0  0
  -17.6452  -30.6568   24.0538 C   0  0  0  0  0  0
  -25.9037  -34.9464   23.5114 C   0  0  0  0  0  0
  -16.5349  -29.9055   23.6302 C   0  0  0  0  0  0
  -16.7279  -28.6473   23.0328 C   0  0  0  0  0  0
  -26.4485  -31.6588   25.0706 C   0  0  0  0  0  0
  -25.3743  -31.3715   26.1452 C   0  0  0  0  0  0
  -27.0314  -30.3022   24.6097 C   0  0  0  0  0  0
  -27.6055  -32.4308   25.7478 C   0  0  0  0  0  0
  -27.5574  -37.1808   24.8463 C   0  0  0  0  0  0
  -21.4154  -29.3039   22.3728 N   0  0  0  0  0  0
  -26.4291  -37.3783   23.9401 N   0  0  0  0  0  0
  -24.6727  -31.0735   22.0967 N   0  0  0  0  0  0
  -23.4193  -28.8194   23.3040 O   0  0  0  0  0  0
  -28.3862  -26.6479   20.0779 O   0  0  0  0  0  0
  -26.5604  -34.8921   22.4679 O   0  0  0  0  0  0
  -23.5361  -32.1403   23.7450 O   0  0  0  0  0  0
  -29.3021  -20.4096   20.4797 C   0  0  0  0  0  0
  -28.3285  -21.4418   20.6113 C   0  0  0  0  0  0
  -26.9676  -21.0686   20.4458 C   0  0  0  0  0  0
  -28.9024  -19.0760   20.1952 C   0  0  0  0  0  0
  -26.6677  -19.7248   20.1147 C   0  0  0  0  0  0
  -25.8276  -22.0661   20.6450 C   0  0  0  0  0  0
  -25.2464  -19.2525   19.8657 C   0  0  0  0  0  0
  -31.3772  -17.2576   22.0435 C   0  0  0  0  0  0
  -28.7360  -22.8698   21.0515 C   0  0  0  0  0  0
  -29.8793  -17.8850   20.0379 C   0  0  0  0  0  0
  -28.3935  -24.0865   20.1216 C   0  0  0  0  0  0
  -28.3822  -25.4485   20.8855 C   0  0  0  0  0  0
  -30.0611  -16.9675   21.2986 C   0  0  1  0  0  0
  -27.6057  -18.7638   20.0051 N   0  0  0  0  0  0
  -29.8663  -15.5081   21.0718 N   0  0  0  0  0  0
  -31.4758  -12.4659   19.1187 H   0  0  0  0  0  0
  -30.3626  -11.3267   19.8251 H   0  0  0  0  0  0
  -29.7422  -11.7768   17.4348 H   0  0  0  0  0  0
  -29.6548  -13.4889   17.7568 H   0  0  0  0  0  0
  -27.8374  -11.3021   18.8236 H   0  0  0  0  0  0
  -27.3659  -12.6233   17.7898 H   0  0  0  0  0  0
  -27.6989  -14.2485   19.5681 H   0  0  0  0  0  0
  -28.6946  -11.9479   21.3238 H   0  0  0  0  0  0
  -28.4561  -13.5723   21.8805 H   0  0  0  0  0  0
  -25.2751   -9.5689   22.4760 H   0  0  0  0  0  0
  -23.9993   -7.4642   22.7481 H   0  0  0  0  0  0
  -21.0825   -8.8764   19.8966 H   0  0  0  0  0  0
  -22.3672  -10.9669   19.6166 H   0  0  0  0  0  0
  -21.2021   -7.6152   23.9710 H   0  0  0  0  0  0
  -21.1475   -6.0528   25.9074 H   0  0  0  0  0  0
  -22.0604   -2.7606   23.2851 H   0  0  0  0  0  0
  -22.4120  -11.9894   22.4765 H   0  0  0  0  0  0
  -21.1142  -13.1290   22.2612 H   0  0  0  0  0  0
  -24.6726  -15.8432   20.5408 H   0  0  0  0  0  0
  -26.2944  -15.6344   20.1180 H   0  0  0  0  0  0
  -26.7130  -32.5513   23.1131 H   0  0  0  0  0  0
  -25.0071  -33.9759   25.0459 H   0  0  0  0  0  0
  -22.6993  -31.3042   21.4049 H   0  0  0  0  0  0
  -23.3731  -35.9658   23.3310 H   0  0  0  0  0  0
  -24.3580  -36.8917   22.2049 H   0  0  0  0  0  0
  -23.7257  -37.6524   23.6651 H   0  0  0  0  0  0
  -26.0504  -31.5919   20.5923 H   0  0  0  0  0  0
  -26.8246  -30.8804   21.9793 H   0  0  0  0  0  0
  -28.1125  -29.0917   21.1473 H   0  0  0  0  0  0
  -26.0618  -25.9412   19.0410 H   0  0  0  0  0  0
  -23.9830  -27.2831   19.0371 H   0  0  0  0  0  0
  -23.7255  -30.5879   19.4012 H   0  0  0  0  0  0
  -22.7405  -29.2354   19.8671 H   0  0  0  0  0  0
  -25.1281  -36.1956   25.0819 H   0  0  0  0  0  0
  -20.9953  -28.3238   24.1444 H   0  0  0  0  0  0
  -20.5673  -26.2287   23.3633 H   0  0  0  0  0  0
  -21.6662  -26.7423   22.1259 H   0  0  0  0  0  0
  -19.6941  -25.6258   21.1268 H   0  0  0  0  0  0
  -19.6733  -27.3164   20.6749 H   0  0  0  0  0  0
  -17.4234  -26.6639   21.3991 H   0  0  0  0  0  0
  -18.0335  -26.0042   22.8984 H   0  0  0  0  0  0
  -19.7930  -30.7242   24.2268 H   0  0  0  0  0  0
  -17.5009  -31.6253   24.5124 H   0  0  0  0  0  0
  -15.5349  -30.2954   23.7609 H   0  0  0  0  0  0
  -15.8684  -28.0787   22.7033 H   0  0  0  0  0  0
  -24.5905  -30.7075   25.7795 H   0  0  0  0  0  0
  -24.8949  -32.2880   26.4897 H   0  0  0  0  0  0
  -25.8086  -30.8884   27.0212 H   0  0  0  0  0  0
  -26.2861  -29.6787   24.1144 H   0  0  0  0  0  0
  -27.4066  -29.7262   25.4567 H   0  0  0  0  0  0
  -27.8705  -30.4327   23.9258 H   0  0  0  0  0  0
  -27.2661  -33.3590   26.2089 H   0  0  0  0  0  0
  -28.3856  -32.6895   25.0307 H   0  0  0  0  0  0
  -28.0732  -31.8411   26.5371 H   0  0  0  0  0  0
  -28.2598  -38.0096   24.7490 H   0  0  0  0  0  0
  -28.1061  -36.2625   24.6307 H   0  0  0  0  0  0
  -27.2294  -37.1483   25.8868 H   0  0  0  0  0  0
  -20.9322  -29.8797   21.6975 H   0  0  0  0  0  0
  -26.0174  -38.2859   24.1398 H   0  0  0  0  0  0
  -30.3520  -20.6278   20.6252 H   0  0  0  0  0  0
  -26.0881  -22.8718   21.3295 H   0  0  0  0  0  0
  -24.9482  -21.5866   21.0751 H   0  0  0  0  0  0
  -25.5333  -22.5050   19.6913 H   0  0  0  0  0  0
  -24.6856  -19.2188   20.7993 H   0  0  0  0  0  0
  -25.2266  -18.2529   19.4298 H   0  0  0  0  0  0
  -24.7332  -19.9206   19.1737 H   0  0  0  0  0  0
  -31.4340  -18.3085   22.3300 H   0  0  0  0  0  0
  -32.2474  -17.0426   21.4230 H   0  0  0  0  0  0
  -31.4627  -16.6638   22.9536 H   0  0  0  0  0  0
  -29.8085  -22.8803   21.2456 H   0  0  0  0  0  0
  -28.2787  -23.0317   22.0285 H   0  0  0  0  0  0
  -30.8449  -18.2673   19.7043 H   0  0  0  0  0  0
  -29.5201  -17.2798   19.2040 H   0  0  0  0  0  0
  -27.4196  -23.9571   19.6563 H   0  0  0  0  0  0
  -29.1084  -24.1233   19.2997 H   0  0  0  0  0  0
  -29.2780  -25.5020   21.5049 H   0  0  0  0  0  0
  -27.5473  -25.4603   21.5893 H   0  0  0  0  0  0
  -29.2521  -17.2265   21.9844 H   0  0  0  0  0  0
  -28.9548  -15.1720   21.3470 H   0  0  0  0  0  0
  1 25  1  0  0  0
  1 30  2  0  0  0
  1 85  1  0  0  0
  2  3  1  0  0  0
  2 25  1  0  0  0
  2 86  1  0  0  0
  2 87  1  0  0  0
  3  4  1  0  0  0
  3 88  1  0  0  0
  3 89  1  0  0  0
  4  5  1  0  0  0
  4 90  1  0  0  0
  4 91  1  0  0  0
  5  6  1  0  0  0
  5 26  1  0  0  0
  5 92  1  0  0  0
  6 25  1  0  0  0
  6 93  1  0  0  0
  6 94  1  0  0  0
  7  8  2  0  0  0
  7 26  1  0  0  0
  7 29  1  0  0  0
  8  9  1  0  0  0
  8 22  1  0  0  0
  9 10  1  0  0  0
  9 27  2  0  0  0
 10 11  2  0  0  0
 10 15  1  0  0  0
 11 12  1  0  0  0
 11 95  1  0  0  0
 12 13  2  0  0  0
 12 96  1  0  0  0
 13 14  1  0  0  0
 13 31  1  0  0  0
 14 15  2  0  0  0
 14 97  1  0  0  0
 15 98  1  0  0  0
 16 17  2  0  0  0
 16 21  1  0  0  0
 16 31  1  0  0  0
 17 18  1  0  0  0
 17 99  1  0  0  0
 18 19  2  0  0  0
 18100  1  0  0  0
 19 20  1  0  0  0
 19 24  1  0  0  0
 20 21  2  0  0  0
 20101  1  0  0  0
 21 23  1  0  0  0
 22 28  1  0  0  0
 22 32  2  0  0  0
 26 27  1  0  0  0
 28102  1  0  0  0
 28103  1  0  0  0
 29104  1  0  0  0
 29105  1  0  0  0
 33 34  1  0  0  0
 33 66  1  0  0  0
 33 70  2  0  0  0
 34 36  1  0  0  0
 34 59  1  0  0  0
 34106  1  0  0  0
 35 44  2  0  0  0
 35 45  1  0  0  0
 35 68  1  0  0  0
 36 56  1  0  0  0
 36107  1  0  0  0
 37 39  1  0  0  0
 37 47  1  0  0  0
 37 66  1  0  0  0
 37108  1  0  0  0
 38 43  2  0  0  0
 38 46  1  0  0  0
 38 47  1  0  0  0
 39 64  1  0  0  0
 39 67  2  0  0  0
 40 52  1  0  0  0
 40 53  2  0  0  0
 40 58  1  0  0  0
 41109  1  0  0  0
 41110  1  0  0  0
 41111  1  0  0  0
 41 48  1  0  0  0
 42 43  1  0  0  0
 42 66  1  0  0  0
 42112  1  0  0  0
 42113  1  0  0  0
 43 44  1  0  0  0
 44114  1  0  0  0
 45 46  2  0  0  0
 45115  1  0  0  0
 46116  1  0  0  0
 47117  1  0  0  0
 47118  1  0  0  0
 48 56  1  0  0  0
 48 65  1  0  0  0
 48119  1  0  0  0
 49 50  1  0  0  0
 49 53  1  0  0  0
 49 64  1  0  0  0
 49120  1  0  0  0
 50 51  1  0  0  0
 50121  1  0  0  0
 50122  1  0  0  0
 51 52  1  0  0  0
 51123  1  0  0  0
 51124  1  0  0  0
 52125  1  0  0  0
 52126  1  0  0  0
 53 54  1  0  0  0
 54 55  2  0  0  0
 54127  1  0  0  0
 55 57  1  0  0  0
 55128  1  0  0  0
 56 69  2  0  0  0
 57 58  2  0  0  0
 57129  1  0  0  0
 58130  1  0  0  0
 59 60  1  0  0  0
 59 61  1  0  0  0
 59 62  1  0  0  0
 60131  1  0  0  0
 60132  1  0  0  0
 60133  1  0  0  0
 61134  1  0  0  0
 61135  1  0  0  0
 61136  1  0  0  0
 62137  1  0  0  0
 62138  1  0  0  0
 62139  1  0  0  0
 63 65  1  0  0  0
 63140  1  0  0  0
 63141  1  0  0  0
 63142  1  0  0  0
 64143  1  0  0  0
 65144  1  0  0  0
 68 82  1  0  0  0
 71 72  2  0  0  0
 71 74  1  0  0  0
 71145  1  0  0  0
 72 73  1  0  0  0
 72 79  1  0  0  0
 73 75  2  0  0  0
 73 76  1  0  0  0
 74 80  1  0  0  0
 74 84  2  0  0  0
 75 77  1  0  0  0
 75 84  1  0  0  0
 76146  1  0  0  0
 76147  1  0  0  0
 76148  1  0  0  0
 77149  1  0  0  0
 77150  1  0  0  0
 77151  1  0  0  0
 78152  1  0  0  0
 78153  1  0  0  0
 78154  1  0  0  0
 78 83  1  0  0  0
 79 81  1  0  0  0
 79155  1  0  0  0
 79156  1  0  0  0
 80 83  1  0  0  0
 80157  1  0  0  0
 80158  1  0  0  0
 81 82  1  0  0  0
 81159  1  0  0  0
 81160  1  0  0  0
 82161  1  0  0  0
 82162  1  0  0  0
 83 85  1  0  0  0
 83163  1  0  0  0
 85164  1  0  0  0
M  ISO  4   1 100  68 101  82 101  85 100
M  END
> <chiral flag>
0

> <version>
0

> <s_m_source_file>
/data/baiqing/PycharmProjects/Reinvent-master-3.2/result/LINK_invent/BTK/process_docking_weight1_custom_sum_contain_oxygen_bond_distance_aromatic_linkinvent_7_9_3/rearranged_h_0083.sdf

> <i_m_source_file_index>
46

> <r_mmod_Potential_Energy-OPLS-2005>
-166.512756347656

> <r_mmod_Stretch_Energy-OPLS-2005>
48.6755561828613

> <r_mmod_Bend_Energy-OPLS-2005>
116.3818359375

> <r_mmod_Torsional_Energy-OPLS-2005>
221.759399414062

> <r_mmod_Improper_Torsional_Energy-OPLS-2005>
3.62042856216431

> <r_mmod_Van_der_Waal_Energy-OPLS-2005>
144.141036987305

> <r_mmod_Electrostatic_Energy-OPLS-2005>
-509.310546875

> <r_mmod_Solvation_Energy-OPLS-2005>
-210.024429321289

> <b_mmod_Minimization_Converged-OPLS-2005>
0

> <r_mmod_RMS_Derivative-OPLS-2005>
1.45933735370636

$$$$
46
                    3D
 Structure written by MMmdl.
161169  0  0  1  0            999 V2000
  -30.5639  -14.7694   20.4742 C   0  0  0  0  0  0
  -30.4425  -12.4741   19.4669 C   0  0  0  0  0  0
  -29.5155  -12.5115   18.2309 C   0  0  0  0  0  0
  -28.0420  -12.3199   18.6451 C   0  0  0  0  0  0
  -27.6396  -13.2214   19.8426 C   0  0  2  0  0  0
  -28.6807  -13.1468   20.9777 C   0  0  0  0  0  0
  -25.2508  -13.8153   20.5637 C   0  0  0  0  0  0
  -24.1791  -13.0420   20.9172 C   0  0  0  0  0  0
  -24.6366  -11.6889   20.8719 C   0  0  0  0  0  0
  -23.9046  -10.4274   21.0401 C   0  0  0  0  0  0
  -24.3608   -9.4194   21.9181 C   0  0  0  0  0  0
  -23.6288   -8.2228   22.0758 C   0  0  0  0  0  0
  -22.4267   -8.0268   21.3544 C   0  0  0  0  0  0
  -21.9897   -9.0236   20.4638 C   0  0  0  0  0  0
  -22.7223  -10.2113   20.3045 C   0  0  0  0  0  0
  -21.6864   -6.0723   22.5276 C   0  0  0  0  0  0
  -21.4012   -6.5631   23.8208 C   0  0  0  0  0  0
  -21.3662   -5.6785   24.9174 C   0  0  0  0  0  0
  -21.6051   -4.3050   24.7226 C   0  0  0  0  0  0
  -21.8822   -3.8135   23.4351 C   0  0  0  0  0  0
  -21.9188   -4.6948   22.3401 C   0  0  0  0  0  0
  -22.7819  -13.5221   21.1858 C   0  0  0  0  0  0
  -22.1661   -4.2134   21.0980 F   0  0  0  0  0  0
  -21.5636   -3.4534   25.7737 F   0  0  0  0  0  0
  -29.9775  -13.5247   20.3990 N   0  0  0  0  0  0
  -26.2911  -12.9339   20.3193 N   0  0  0  0  0  0
  -25.9292  -11.6500   20.5696 N   0  0  0  0  0  0
  -22.0472  -12.8197   22.0408 N   0  0  0  0  0  0
  -25.4203  -15.1875   20.4042 N   0  0  0  0  0  0
  -31.7582  -14.9101   20.1925 O   0  0  0  0  0  0
  -21.6641   -6.8862   21.4241 O   0  0  0  0  0  0
  -22.3508  -14.5543   20.6734 O   0  0  0  0  0  0
  -24.6299  -31.8540   23.1955 C   0  0  0  0  0  0
  -25.9107  -32.4761   23.8316 C   0  0  1  0  0  0
  -27.2229  -27.2689   20.1325 C   0  0  0  0  0  0
  -25.5907  -33.8565   24.2245 N   0  0  0  0  0  0
  -23.4258  -30.4753   21.5409 C   0  0  2  0  0  0
  -24.8728  -28.9153   20.1164 C   0  0  0  0  0  0
  -22.7501  -29.4608   22.4936 C   0  0  0  0  0  0
  -18.0276  -28.1381   22.8484 C   0  0  0  0  0  0
  -24.1493  -36.7292   23.2640 C   0  0  0  0  0  0
  -25.9701  -30.7748   21.3657 C   0  0  0  0  0  0
  -26.0468  -29.3935   20.7169 C   0  0  0  0  0  0
  -27.2289  -28.5856   20.7056 C   0  0  0  0  0  0
  -26.0273  -26.8466   19.5187 C   0  0  0  0  0  0
  -24.8668  -27.6492   19.5093 C   0  0  0  0  0  0
  -23.6411  -29.8013   20.1610 C   0  0  0  0  0  0
  -25.4119  -36.3093   24.0330 C   0  0  1  0  0  0
  -20.5881  -28.3670   23.1280 C   0  0  2  0  0  0
  -20.6781  -26.9392   22.5405 C   0  0  0  0  0  0
  -19.5760  -26.6377   21.5208 C   0  0  0  0  0  0
  -18.1928  -26.7928   22.1604 C   0  0  0  0  0  0
  -19.1532  -28.8846   23.2881 C   0  0  0  0  0  0
  -18.9469  -30.1450   23.8883 C   0  0  0  0  0  0
  -17.6473  -30.6584   24.0556 C   0  0  0  0  0  0
  -25.9050  -34.9447   23.5097 C   0  0  0  0  0  0
  -16.5363  -29.9084   23.6331 C   0  0  0  0  0  0
  -16.7263  -28.6505   23.0351 C   0  0  0  0  0  0
  -26.4486  -31.6576   25.0685 C   0  0  0  0  0  0
  -25.3699  -31.3688   26.1396 C   0  0  0  0  0  0
  -27.0323  -30.3005   24.6116 C   0  0  0  0  0  0
  -27.6068  -32.4292   25.7447 C   0  0  0  0  0  0
  -27.5577  -37.1800   24.8470 C   0  0  0  0  0  0
  -21.4200  -29.3028   22.3694 N   0  0  0  0  0  0
  -26.4291  -37.3794   23.9412 N   0  0  0  0  0  0
  -24.6957  -31.0521   22.0914 N   0  0  0  0  0  0
  -23.4221  -28.8146   23.3012 O   0  0  0  0  0  0
  -28.3221  -26.3875   20.0921 O   0  0  0  0  0  0
  -26.5666  -34.8930   22.4685 O   0  0  0  0  0  0
  -23.5440  -32.1352   23.7253 O   0  0  0  0  0  0
  -29.5994  -23.0005   22.6729 C   0  0  0  0  0  0
  -30.0845  -22.1822   23.7035 C   0  0  0  0  0  0
  -29.2275  -22.4870   21.4010 C   0  0  0  0  0  0
  -30.2178  -20.8127   23.4575 C   0  0  0  0  0  0
  -29.3914  -21.0174   21.2683 C   0  0  0  0  0  0
  -30.4642  -22.7853   25.0462 C   0  0  0  0  0  0
  -30.7799  -19.8531   24.4874 C   0  0  0  0  0  0
  -28.7569  -23.6180   20.3515 C   0  0  0  0  0  0
  -28.9558  -19.9968   20.1538 C   0  0  0  0  0  0
  -29.6618  -18.5211   19.9231 C   0  0  0  0  0  0
  -29.9048  -17.3449   21.0177 C   0  0  0  0  0  0
  -28.2708  -25.1089   20.8730 C   0  0  0  0  0  0
  -29.8611  -20.2720   22.2890 N   0  0  0  0  0  0
  -29.7202  -15.8549   20.6804 N   0  0  0  0  0  0
  -31.4810  -12.6230   19.1664 H   0  0  0  0  0  0
  -30.4055  -11.4957   19.9497 H   0  0  0  0  0  0
  -29.8098  -11.7396   17.5175 H   0  0  0  0  0  0
  -29.6279  -13.4662   17.7141 H   0  0  0  0  0  0
  -27.9138  -11.2715   18.9151 H   0  0  0  0  0  0
  -27.3825  -12.4964   17.7946 H   0  0  0  0  0  0
  -27.6329  -14.2419   19.4595 H   0  0  0  0  0  0
  -28.7230  -12.1394   21.3953 H   0  0  0  0  0  0
  -28.4018  -13.8060   21.8026 H   0  0  0  0  0  0
  -25.2761   -9.5679   22.4751 H   0  0  0  0  0  0
  -23.9999   -7.4628   22.7491 H   0  0  0  0  0  0
  -21.0833   -8.8743   19.8955 H   0  0  0  0  0  0
  -22.3685  -10.9643   19.6146 H   0  0  0  0  0  0
  -21.2006   -7.6140   23.9708 H   0  0  0  0  0  0
  -21.1490   -6.0517   25.9075 H   0  0  0  0  0  0
  -22.0601   -2.7599   23.2851 H   0  0  0  0  0  0
  -22.4095  -11.9829   22.4742 H   0  0  0  0  0  0
  -21.1094  -13.1219   22.2662 H   0  0  0  0  0  0
  -24.6504  -15.8387   20.5095 H   0  0  0  0  0  0
  -26.2588  -15.6252   20.0463 H   0  0  0  0  0  0
  -26.7167  -32.5421   23.1051 H   0  0  0  0  0  0
  -25.0023  -33.9712   25.0370 H   0  0  0  0  0  0
  -22.7196  -31.2957   21.3914 H   0  0  0  0  0  0
  -23.3774  -35.9604   23.3311 H   0  0  0  0  0  0
  -24.3587  -36.8908   22.2056 H   0  0  0  0  0  0
  -23.7227  -37.6476   23.6668 H   0  0  0  0  0  0
  -26.0961  -31.5306   20.5891 H   0  0  0  0  0  0
  -26.8555  -30.8335   21.9890 H   0  0  0  0  0  0
  -28.1365  -28.9558   21.1629 H   0  0  0  0  0  0
  -25.9891  -25.8730   19.0524 H   0  0  0  0  0  0
  -23.9645  -27.2752   19.0429 H   0  0  0  0  0  0
  -23.7560  -30.5750   19.4000 H   0  0  0  0  0  0
  -22.7596  -29.2297   19.8630 H   0  0  0  0  0  0
  -25.1304  -36.1943   25.0824 H   0  0  0  0  0  0
  -20.9953  -28.3229   24.1404 H   0  0  0  0  0  0
  -20.5684  -26.2262   23.3591 H   0  0  0  0  0  0
  -21.6646  -26.7438   22.1178 H   0  0  0  0  0  0
  -19.6932  -25.6300   21.1206 H   0  0  0  0  0  0
  -19.6707  -27.3220   20.6765 H   0  0  0  0  0  0
  -17.4198  -26.6655   21.4013 H   0  0  0  0  0  0
  -18.0323  -26.0092   22.9015 H   0  0  0  0  0  0
  -19.7951  -30.7257   24.2251 H   0  0  0  0  0  0
  -17.5031  -31.6268   24.5156 H   0  0  0  0  0  0
  -15.5359  -30.2982   23.7683 H   0  0  0  0  0  0
  -15.8656  -28.0823   22.7078 H   0  0  0  0  0  0
  -24.5922  -30.6999   25.7699 H   0  0  0  0  0  0
  -24.8833  -32.2835   26.4790 H   0  0  0  0  0  0
  -25.8009  -30.8881   27.0187 H   0  0  0  0  0  0
  -26.2873  -29.6750   24.1188 H   0  0  0  0  0  0
  -27.4096  -29.7263   25.4586 H   0  0  0  0  0  0
  -27.8706  -30.4310   23.9274 H   0  0  0  0  0  0
  -27.2727  -33.3623   26.1996 H   0  0  0  0  0  0
  -28.3894  -32.6795   25.0272 H   0  0  0  0  0  0
  -28.0727  -31.8414   26.5379 H   0  0  0  0  0  0
  -28.2617  -38.0083   24.7545 H   0  0  0  0  0  0
  -28.1062  -36.2620   24.6283 H   0  0  0  0  0  0
  -27.2297  -37.1422   25.8875 H   0  0  0  0  0  0
  -20.9373  -29.8732   21.6901 H   0  0  0  0  0  0
  -26.0181  -38.2863   24.1426 H   0  0  0  0  0  0
  -29.5320  -24.0432   22.9201 H   0  0  0  0  0  0
  -30.0687  -23.7962   25.1626 H   0  0  0  0  0  0
  -31.5487  -22.8357   25.1491 H   0  0  0  0  0  0
  -30.0656  -22.1832   25.8633 H   0  0  0  0  0  0
  -31.7376  -20.2168   24.8609 H   0  0  0  0  0  0
  -30.9451  -18.8628   24.0604 H   0  0  0  0  0  0
  -30.0956  -19.7463   25.3291 H   0  0  0  0  0  0
  -27.9740  -23.1947   19.7214 H   0  0  0  0  0  0
  -29.6072  -23.7687   19.6872 H   0  0  0  0  0  0
  -29.0145  -20.5397   19.2102 H   0  0  0  0  0  0
  -27.8896  -19.8253   20.3080 H   0  0  0  0  0  0
  -30.6389  -18.7212   19.4838 H   0  0  0  0  0  0
  -29.0967  -18.0596   19.1138 H   0  0  0  0  0  0
  -29.2127  -17.5325   21.8394 H   0  0  0  0  0  0
  -30.8938  -17.4772   21.4617 H   0  0  0  0  0  0
  -28.9399  -25.4303   21.6637 H   0  0  0  0  0  0
  -27.2982  -25.0120   21.3579 H   0  0  0  0  0  0
  -28.7623  -15.5542   20.7813 H   0  0  0  0  0  0
  1 25  1  0  0  0
  1 30  2  0  0  0
  1 84  1  0  0  0
  2  3  1  0  0  0
  2 25  1  0  0  0
  2 85  1  0  0  0
  2 86  1  0  0  0
  3  4  1  0  0  0
  3 87  1  0  0  0
  3 88  1  0  0  0
  4  5  1  0  0  0
  4 89  1  0  0  0
  4 90  1  0  0  0
  5  6  1  0  0  0
  5 26  1  0  0  0
  5 91  1  0  0  0
  6 25  1  0  0  0
  6 92  1  0  0  0
  6 93  1  0  0  0
  7  8  2  0  0  0
  7 26  1  0  0  0
  7 29  1  0  0  0
  8  9  1  0  0  0
  8 22  1  0  0  0
  9 10  1  0  0  0
  9 27  2  0  0  0
 10 11  2  0  0  0
 10 15  1  0  0  0
 11 12  1  0  0  0
 11 94  1  0  0  0
 12 13  2  0  0  0
 12 95  1  0  0  0
 13 14  1  0  0  0
 13 31  1  0  0  0
 14 15  2  0  0  0
 14 96  1  0  0  0
 15 97  1  0  0  0
 16 17  2  0  0  0
 16 21  1  0  0  0
 16 31  1  0  0  0
 17 18  1  0  0  0
 17 98  1  0  0  0
 18 19  2  0  0  0
 18 99  1  0  0  0
 19 20  1  0  0  0
 19 24  1  0  0  0
 20 21  2  0  0  0
 20100  1  0  0  0
 21 23  1  0  0  0
 22 28  1  0  0  0
 22 32  2  0  0  0
 26 27  1  0  0  0
 28101  1  0  0  0
 28102  1  0  0  0
 29103  1  0  0  0
 29104  1  0  0  0
 33 34  1  0  0  0
 33 66  1  0  0  0
 33 70  2  0  0  0
 34 36  1  0  0  0
 34 59  1  0  0  0
 34105  1  0  0  0
 35 44  2  0  0  0
 35 45  1  0  0  0
 35 68  1  0  0  0
 36 56  1  0  0  0
 36106  1  0  0  0
 37 39  1  0  0  0
 37 47  1  0  0  0
 37 66  1  0  0  0
 37107  1  0  0  0
 38 43  2  0  0  0
 38 46  1  0  0  0
 38 47  1  0  0  0
 39 64  1  0  0  0
 39 67  2  0  0  0
 40 52  1  0  0  0
 40 53  2  0  0  0
 40 58  1  0  0  0
 41108  1  0  0  0
 41109  1  0  0  0
 41110  1  0  0  0
 41 48  1  0  0  0
 42 43  1  0  0  0
 42 66  1  0  0  0
 42111  1  0  0  0
 42112  1  0  0  0
 43 44  1  0  0  0
 44113  1  0  0  0
 45 46  2  0  0  0
 45114  1  0  0  0
 46115  1  0  0  0
 47116  1  0  0  0
 47117  1  0  0  0
 48 56  1  0  0  0
 48 65  1  0  0  0
 48118  1  0  0  0
 49 50  1  0  0  0
 49 53  1  0  0  0
 49 64  1  0  0  0
 49119  1  0  0  0
 50 51  1  0  0  0
 50120  1  0  0  0
 50121  1  0  0  0
 51 52  1  0  0  0
 51122  1  0  0  0
 51123  1  0  0  0
 52124  1  0  0  0
 52125  1  0  0  0
 53 54  1  0  0  0
 54 55  2  0  0  0
 54126  1  0  0  0
 55 57  1  0  0  0
 55127  1  0  0  0
 56 69  2  0  0  0
 57 58  2  0  0  0
 57128  1  0  0  0
 58129  1  0  0  0
 59 60  1  0  0  0
 59 61  1  0  0  0
 59 62  1  0  0  0
 60130  1  0  0  0
 60131  1  0  0  0
 60132  1  0  0  0
 61133  1  0  0  0
 61134  1  0  0  0
 61135  1  0  0  0
 62136  1  0  0  0
 62137  1  0  0  0
 62138  1  0  0  0
 63 65  1  0  0  0
 63139  1  0  0  0
 63140  1  0  0  0
 63141  1  0  0  0
 64142  1  0  0  0
 65143  1  0  0  0
 68 82  1  0  0  0
 71 72  2  0  0  0
 71 73  1  0  0  0
 71144  1  0  0  0
 72 74  1  0  0  0
 72 76  1  0  0  0
 73 75  2  0  0  0
 73 78  1  0  0  0
 74 77  1  0  0  0
 74 83  2  0  0  0
 75 79  1  0  0  0
 75 83  1  0  0  0
 76145  1  0  0  0
 76146  1  0  0  0
 76147  1  0  0  0
 77148  1  0  0  0
 77149  1  0  0  0
 77150  1  0  0  0
 78 82  1  0  0  0
 78151  1  0  0  0
 78152  1  0  0  0
 79 80  1  0  0  0
 79153  1  0  0  0
 79154  1  0  0  0
 80 81  1  0  0  0
 80155  1  0  0  0
 80156  1  0  0  0
 81 84  1  0  0  0
 81157  1  0  0  0
 81158  1  0  0  0
 82159  1  0  0  0
 82160  1  0  0  0
 84161  1  0  0  0
M  ISO  4   1 100  68 101  82 101  84 100
M  END
> <chiral flag>
0

> <version>
0

> <s_m_source_file>
/data/baiqing/PycharmProjects/Reinvent-master-3.2/result/LINK_invent/BTK/process_docking_weight1_custom_sum_contain_oxygen_bond_distance_aromatic_linkinvent_7_9_3/rearranged_h_0083.sdf

> <i_m_source_file_index>
47

> <r_mmod_Potential_Energy-OPLS-2005>
92.9369964599609

> <r_mmod_Stretch_Energy-OPLS-2005>
149.296890258789

> <r_mmod_Bend_Energy-OPLS-2005>
246.852157592773

> <r_mmod_Torsional_Energy-OPLS-2005>
243.640243530273

> <r_mmod_Improper_Torsional_Energy-OPLS-2005>
5.15692377090454

> <r_mmod_Van_der_Waal_Energy-OPLS-2005>
139.719329833984

> <r_mmod_Electrostatic_Energy-OPLS-2005>
-556.483276367188

> <r_mmod_Solvation_Energy-OPLS-2005>
-223.678482055664

> <b_mmod_Minimization_Converged-OPLS-2005>
0

> <r_mmod_RMS_Derivative-OPLS-2005>
2.59429740905762

$$$$
47
                    3D
 Structure written by MMmdl.
168176  0  0  1  0            999 V2000
  -30.7109  -14.4727   20.5065 C   0  0  0  0  0  0
  -30.4188  -12.2767   19.4496 C   0  0  0  0  0  0
  -29.5099  -12.4715   18.2188 C   0  0  0  0  0  0
  -28.0220  -12.3640   18.6134 C   0  0  0  0  0  0
  -27.6608  -13.2121   19.8639 C   0  0  2  0  0  0
  -28.6986  -13.0273   20.9944 C   0  0  0  0  0  0
  -25.2598  -13.8187   20.5639 C   0  0  0  0  0  0
  -24.1851  -13.0455   20.9156 C   0  0  0  0  0  0
  -24.6396  -11.6923   20.8702 C   0  0  0  0  0  0
  -23.9059  -10.4307   21.0369 C   0  0  0  0  0  0
  -24.3610   -9.4231   21.9141 C   0  0  0  0  0  0
  -23.6295   -8.2260   22.0734 C   0  0  0  0  0  0
  -22.4271   -8.0287   21.3543 C   0  0  0  0  0  0
  -21.9901   -9.0256   20.4634 C   0  0  0  0  0  0
  -22.7228  -10.2132   20.3030 C   0  0  0  0  0  0
  -21.6864   -6.0731   22.5276 C   0  0  0  0  0  0
  -21.4023   -6.5625   23.8210 C   0  0  0  0  0  0
  -21.3662   -5.6769   24.9168 C   0  0  0  0  0  0
  -21.6042   -4.3032   24.7210 C   0  0  0  0  0  0
  -21.8819   -3.8138   23.4328 C   0  0  0  0  0  0
  -21.9199   -4.6965   22.3390 C   0  0  0  0  0  0
  -22.7873  -13.5240   21.1806 C   0  0  0  0  0  0
  -22.1661   -4.2147   21.0970 F   0  0  0  0  0  0
  -21.5631   -3.4515   25.7721 F   0  0  0  0  0  0
  -30.0357  -13.2944   20.4420 N   0  0  0  0  0  0
  -26.3025  -12.9352   20.3299 N   0  0  0  0  0  0
  -25.9335  -11.6508   20.5747 N   0  0  0  0  0  0
  -22.0504  -12.8258   22.0360 N   0  0  0  0  0  0
  -25.4332  -15.1911   20.4048 N   0  0  0  0  0  0
  -31.8733  -14.5976   20.1133 O   0  0  0  0  0  0
  -21.6641   -6.8879   21.4241 O   0  0  0  0  0  0
  -22.3541  -14.5525   20.6622 O   0  0  0  0  0  0
  -24.6169  -31.8682   23.2125 C   0  0  0  0  0  0
  -25.9058  -32.4822   23.8415 C   0  0  1  0  0  0
  -27.2305  -27.4267   20.0836 C   0  0  0  0  0  0
  -25.5912  -33.8626   24.2342 N   0  0  0  0  0  0
  -23.4029  -30.4959   21.5541 C   0  0  2  0  0  0
  -24.8448  -28.9641   20.1164 C   0  0  0  0  0  0
  -22.7415  -29.4668   22.4993 C   0  0  0  0  0  0
  -18.0277  -28.1379   22.8500 C   0  0  0  0  0  0
  -24.1480  -36.7296   23.2640 C   0  0  0  0  0  0
  -25.9355  -30.8296   21.3701 C   0  0  0  0  0  0
  -26.0078  -29.4662   20.7120 C   0  0  0  0  0  0
  -27.1997  -28.7038   20.6939 C   0  0  0  0  0  0
  -26.0403  -26.9477   19.4817 C   0  0  0  0  0  0
  -24.8551  -27.7024   19.5040 C   0  0  0  0  0  0
  -23.6092  -29.8329   20.1678 C   0  0  0  0  0  0
  -25.4107  -36.3114   24.0342 C   0  0  1  0  0  0
  -20.5870  -28.3667   23.1315 C   0  0  2  0  0  0
  -20.6761  -26.9402   22.5411 C   0  0  0  0  0  0
  -19.5732  -26.6384   21.5213 C   0  0  0  0  0  0
  -18.1913  -26.7930   22.1629 C   0  0  0  0  0  0
  -19.1525  -28.8839   23.2904 C   0  0  0  0  0  0
  -18.9453  -30.1448   23.8916 C   0  0  0  0  0  0
  -17.6453  -30.6588   24.0570 C   0  0  0  0  0  0
  -25.9038  -34.9476   23.5136 C   0  0  0  0  0  0
  -16.5347  -29.9088   23.6332 C   0  0  0  0  0  0
  -16.7264  -28.6499   23.0362 C   0  0  0  0  0  0
  -26.4487  -31.6612   25.0750 C   0  0  0  0  0  0
  -25.3742  -31.3708   26.1484 C   0  0  0  0  0  0
  -27.0340  -30.3060   24.6139 C   0  0  0  0  0  0
  -27.6063  -32.4339   25.7502 C   0  0  0  0  0  0
  -27.5581  -37.1808   24.8472 C   0  0  0  0  0  0
  -21.4141  -29.3040   22.3727 N   0  0  0  0  0  0
  -26.4296  -37.3797   23.9412 N   0  0  0  0  0  0
  -24.6699  -31.0784   22.1037 N   0  0  0  0  0  0
  -23.4180  -28.8208   23.3034 O   0  0  0  0  0  0
  -28.4153  -26.7049   20.1028 O   0  0  0  0  0  0
  -26.5588  -34.8923   22.4695 O   0  0  0  0  0  0
  -23.5356  -32.1447   23.7513 O   0  0  0  0  0  0
  -30.6181  -21.9002   19.9713 C   0  0  0  0  0  0
  -30.6475  -22.9662   20.8335 C   0  0  0  0  0  0
  -30.6304  -22.3390   22.1117 C   0  0  0  0  0  0
  -30.6809  -22.9981   23.4589 C   0  0  0  0  0  0
  -27.7041  -24.3670   20.5101 C   0  0  0  0  0  0
  -28.8125  -18.2772   21.6726 C   0  0  0  0  0  0
  -31.2504  -17.8643   22.1875 C   0  0  0  0  0  0
  -30.7362  -24.4577   20.5397 C   0  0  0  0  0  0
  -29.9100  -24.9310   19.3184 C   0  0  0  0  0  0
  -30.6191  -19.3559   20.1768 C   0  0  0  0  0  0
  -30.2158  -16.8753   20.1167 C   0  0  0  0  0  0
  -28.4462  -25.3596   19.5866 C   0  0  2  0  0  0
  -30.2212  -18.1145   21.0622 C   0  0  0  0  0  0
  -30.5991  -21.0154   22.0319 N   0  0  0  0  0  0
  -30.5734  -20.7295   20.7109 N   0  0  0  0  0  0
  -29.9548  -15.5603   20.7410 N   0  0  0  0  0  0
  -31.4691  -12.3452   19.1620 H   0  0  0  0  0  0
  -30.2952  -11.2750   19.8666 H   0  0  0  0  0  0
  -29.7484  -11.7248   17.4592 H   0  0  0  0  0  0
  -29.7099  -13.4441   17.7662 H   0  0  0  0  0  0
  -27.8084  -11.3125   18.8045 H   0  0  0  0  0  0
  -27.3906  -12.6566   17.7719 H   0  0  0  0  0  0
  -27.6955  -14.2540   19.5453 H   0  0  0  0  0  0
  -28.6575  -12.0101   21.3870 H   0  0  0  0  0  0
  -28.4712  -13.6834   21.8352 H   0  0  0  0  0  0
  -25.2767   -9.5716   22.4708 H   0  0  0  0  0  0
  -24.0016   -7.4654   22.7453 H   0  0  0  0  0  0
  -21.0839   -8.8758   19.8939 H   0  0  0  0  0  0
  -22.3673  -10.9660   19.6133 H   0  0  0  0  0  0
  -21.2015   -7.6136   23.9706 H   0  0  0  0  0  0
  -21.1489   -6.0502   25.9062 H   0  0  0  0  0  0
  -22.0603   -2.7607   23.2824 H   0  0  0  0  0  0
  -22.4091  -11.9971   22.4865 H   0  0  0  0  0  0
  -21.1101  -13.1283   22.2471 H   0  0  0  0  0  0
  -24.6685  -15.8495   20.5145 H   0  0  0  0  0  0
  -26.2878  -15.6316   20.0894 H   0  0  0  0  0  0
  -26.7129  -32.5518   23.1174 H   0  0  0  0  0  0
  -25.0104  -33.9792   25.0514 H   0  0  0  0  0  0
  -22.6921  -31.3134   21.4187 H   0  0  0  0  0  0
  -23.3755  -35.9616   23.3314 H   0  0  0  0  0  0
  -24.3574  -36.8896   22.2052 H   0  0  0  0  0  0
  -23.7214  -37.6499   23.6641 H   0  0  0  0  0  0
  -26.0568  -31.5981   20.6053 H   0  0  0  0  0  0
  -26.8213  -30.8739   21.9927 H   0  0  0  0  0  0
  -28.0988  -29.0895   21.1550 H   0  0  0  0  0  0
  -25.9874  -25.9886   18.9910 H   0  0  0  0  0  0
  -23.9576  -27.3075   19.0466 H   0  0  0  0  0  0
  -23.7181  -30.6095   19.4104 H   0  0  0  0  0  0
  -22.7320  -29.2546   19.8722 H   0  0  0  0  0  0
  -25.1285  -36.1985   25.0837 H   0  0  0  0  0  0
  -20.9968  -28.3223   24.1428 H   0  0  0  0  0  0
  -20.5666  -26.2273   23.3598 H   0  0  0  0  0  0
  -21.6627  -26.7438   22.1198 H   0  0  0  0  0  0
  -19.6887  -25.6297   21.1237 H   0  0  0  0  0  0
  -19.6671  -27.3203   20.6749 H   0  0  0  0  0  0
  -17.4184  -26.6696   21.4027 H   0  0  0  0  0  0
  -18.0306  -26.0065   22.9014 H   0  0  0  0  0  0
  -19.7928  -30.7264   24.2290 H   0  0  0  0  0  0
  -17.5007  -31.6277   24.5164 H   0  0  0  0  0  0
  -15.5347  -30.3000   23.7644 H   0  0  0  0  0  0
  -15.8657  -28.0822   22.7081 H   0  0  0  0  0  0
  -24.5902  -30.7085   25.7795 H   0  0  0  0  0  0
  -24.8948  -32.2859   26.4967 H   0  0  0  0  0  0
  -25.8072  -30.8831   27.0223 H   0  0  0  0  0  0
  -26.2908  -29.6803   24.1187 H   0  0  0  0  0  0
  -27.4117  -29.7315   25.4606 H   0  0  0  0  0  0
  -27.8729  -30.4399   23.9307 H   0  0  0  0  0  0
  -27.2696  -33.3634   26.2099 H   0  0  0  0  0  0
  -28.3852  -32.6911   25.0314 H   0  0  0  0  0  0
  -28.0755  -31.8458   26.5396 H   0  0  0  0  0  0
  -28.2613  -38.0094   24.7521 H   0  0  0  0  0  0
  -28.1065  -36.2629   24.6301 H   0  0  0  0  0  0
  -27.2293  -37.1455   25.8874 H   0  0  0  0  0  0
  -20.9305  -29.8761   21.6951 H   0  0  0  0  0  0
  -26.0186  -38.2877   24.1412 H   0  0  0  0  0  0
  -30.6476  -21.8781   18.8907 H   0  0  0  0  0  0
  -29.8813  -23.7318   23.5652 H   0  0  0  0  0  0
  -31.6284  -23.5193   23.5991 H   0  0  0  0  0  0
  -30.5788  -22.2766   24.2700 H   0  0  0  0  0  0
  -27.7668  -23.3513   20.1172 H   0  0  0  0  0  0
  -26.6460  -24.5995   20.6203 H   0  0  0  0  0  0
  -28.1303  -24.3590   21.5125 H   0  0  0  0  0  0
  -28.7491  -19.1431   22.3323 H   0  0  0  0  0  0
  -28.5293  -17.4059   22.2644 H   0  0  0  0  0  0
  -28.0563  -18.4062   20.8955 H   0  0  0  0  0  0
  -31.3380  -18.7083   22.8680 H   0  0  0  0  0  0
  -32.2441  -17.6672   21.7822 H   0  0  0  0  0  0
  -30.9703  -17.0042   22.7963 H   0  0  0  0  0  0
  -31.7797  -24.7164   20.3566 H   0  0  0  0  0  0
  -30.4600  -25.0553   21.4103 H   0  0  0  0  0  0
  -29.9368  -24.1720   18.5373 H   0  0  0  0  0  0
  -30.4177  -25.7914   18.8797 H   0  0  0  0  0  0
  -29.9771  -19.3610   19.2965 H   0  0  0  0  0  0
  -31.6277  -19.2068   19.7876 H   0  0  0  0  0  0
  -31.1534  -16.8621   19.5558 H   0  0  0  0  0  0
  -29.4491  -17.0083   19.3521 H   0  0  0  0  0  0
  -27.9751  -25.3564   18.6027 H   0  0  0  0  0  0
  -29.0198  -15.3963   21.0786 H   0  0  0  0  0  0
  1 25  1  0  0  0
  1 30  2  0  0  0
  1 86  1  0  0  0
  2  3  1  0  0  0
  2 25  1  0  0  0
  2 87  1  0  0  0
  2 88  1  0  0  0
  3  4  1  0  0  0
  3 89  1  0  0  0
  3 90  1  0  0  0
  4  5  1  0  0  0
  4 91  1  0  0  0
  4 92  1  0  0  0
  5  6  1  0  0  0
  5 26  1  0  0  0
  5 93  1  0  0  0
  6 25  1  0  0  0
  6 94  1  0  0  0
  6 95  1  0  0  0
  7  8  2  0  0  0
  7 26  1  0  0  0
  7 29  1  0  0  0
  8  9  1  0  0  0
  8 22  1  0  0  0
  9 10  1  0  0  0
  9 27  2  0  0  0
 10 11  2  0  0  0
 10 15  1  0  0  0
 11 12  1  0  0  0
 11 96  1  0  0  0
 12 13  2  0  0  0
 12 97  1  0  0  0
 13 14  1  0  0  0
 13 31  1  0  0  0
 14 15  2  0  0  0
 14 98  1  0  0  0
 15 99  1  0  0  0
 16 17  2  0  0  0
 16 21  1  0  0  0
 16 31  1  0  0  0
 17 18  1  0  0  0
 17100  1  0  0  0
 18 19  2  0  0  0
 18101  1  0  0  0
 19 20  1  0  0  0
 19 24  1  0  0  0
 20 21  2  0  0  0
 20102  1  0  0  0
 21 23  1  0  0  0
 22 28  1  0  0  0
 22 32  2  0  0  0
 26 27  1  0  0  0
 28103  1  0  0  0
 28104  1  0  0  0
 29105  1  0  0  0
 29106  1  0  0  0
 33 34  1  0  0  0
 33 66  1  0  0  0
 33 70  2  0  0  0
 34 36  1  0  0  0
 34 59  1  0  0  0
 34107  1  0  0  0
 35 44  2  0  0  0
 35 45  1  0  0  0
 35 68  1  0  0  0
 36 56  1  0  0  0
 36108  1  0  0  0
 37 39  1  0  0  0
 37 47  1  0  0  0
 37 66  1  0  0  0
 37109  1  0  0  0
 38 43  2  0  0  0
 38 46  1  0  0  0
 38 47  1  0  0  0
 39 64  1  0  0  0
 39 67  2  0  0  0
 40 52  1  0  0  0
 40 53  2  0  0  0
 40 58  1  0  0  0
 41110  1  0  0  0
 41111  1  0  0  0
 41112  1  0  0  0
 41 48  1  0  0  0
 42 43  1  0  0  0
 42 66  1  0  0  0
 42113  1  0  0  0
 42114  1  0  0  0
 43 44  1  0  0  0
 44115  1  0  0  0
 45 46  2  0  0  0
 45116  1  0  0  0
 46117  1  0  0  0
 47118  1  0  0  0
 47119  1  0  0  0
 48 56  1  0  0  0
 48 65  1  0  0  0
 48120  1  0  0  0
 49 50  1  0  0  0
 49 53  1  0  0  0
 49 64  1  0  0  0
 49121  1  0  0  0
 50 51  1  0  0  0
 50122  1  0  0  0
 50123  1  0  0  0
 51 52  1  0  0  0
 51124  1  0  0  0
 51125  1  0  0  0
 52126  1  0  0  0
 52127  1  0  0  0
 53 54  1  0  0  0
 54 55  2  0  0  0
 54128  1  0  0  0
 55 57  1  0  0  0
 55129  1  0  0  0
 56 69  2  0  0  0
 57 58  2  0  0  0
 57130  1  0  0  0
 58131  1  0  0  0
 59 60  1  0  0  0
 59 61  1  0  0  0
 59 62  1  0  0  0
 60132  1  0  0  0
 60133  1  0  0  0
 60134  1  0  0  0
 61135  1  0  0  0
 61136  1  0  0  0
 61137  1  0  0  0
 62138  1  0  0  0
 62139  1  0  0  0
 62140  1  0  0  0
 63 65  1  0  0  0
 63141  1  0  0  0
 63142  1  0  0  0
 63143  1  0  0  0
 64144  1  0  0  0
 65145  1  0  0  0
 68 82  1  0  0  0
 71 72  2  0  0  0
 71 85  1  0  0  0
 71146  1  0  0  0
 72 73  1  0  0  0
 72 78  1  0  0  0
 73 74  1  0  0  0
 73 84  2  0  0  0
 74147  1  0  0  0
 74148  1  0  0  0
 74149  1  0  0  0
 75150  1  0  0  0
 75151  1  0  0  0
 75152  1  0  0  0
 75 82  1  0  0  0
 76153  1  0  0  0
 76154  1  0  0  0
 76155  1  0  0  0
 76 83  1  0  0  0
 77 83  1  0  0  0
 77156  1  0  0  0
 77157  1  0  0  0
 77158  1  0  0  0
 78 79  1  0  0  0
 78159  1  0  0  0
 78160  1  0  0  0
 79 82  1  0  0  0
 79161  1  0  0  0
 79162  1  0  0  0
 80 83  1  0  0  0
 80 85  1  0  0  0
 80163  1  0  0  0
 80164  1  0  0  0
 81 83  1  0  0  0
 81 86  1  0  0  0
 81165  1  0  0  0
 81166  1  0  0  0
 82167  1  0  0  0
 84 85  1  0  0  0
 86168  1  0  0  0
M  ISO  4   1 100  68 101  82 101  86 100
M  END
> <chiral flag>
0

> <version>
0

> <s_m_source_file>
/data/baiqing/PycharmProjects/Reinvent-master-3.2/result/LINK_invent/BTK/process_docking_weight1_custom_sum_contain_oxygen_bond_distance_aromatic_linkinvent_7_9_3/rearranged_h_0083.sdf

> <i_m_source_file_index>
48

> <r_mmod_Potential_Energy-OPLS-2005>
-87.8806076049805

> <r_mmod_Stretch_Energy-OPLS-2005>
40.5627250671387

> <r_mmod_Bend_Energy-OPLS-2005>
121.681419372559

> <r_mmod_Torsional_Energy-OPLS-2005>
230.879913330078

> <r_mmod_Improper_Torsional_Energy-OPLS-2005>
8.71130752563477

> <r_mmod_Van_der_Waal_Energy-OPLS-2005>
134.163909912109

> <r_mmod_Electrostatic_Energy-OPLS-2005>
-430.547149658203

> <r_mmod_Solvation_Energy-OPLS-2005>
-210.315185546875

> <b_mmod_Minimization_Converged-OPLS-2005>
0

> <r_mmod_RMS_Derivative-OPLS-2005>
2.39317560195923

$$$$
48
                    3D
 Structure written by MMmdl.
160168  0  0  1  0            999 V2000
  -30.6923  -14.4768   20.5776 C   0  0  0  0  0  0
  -30.4266  -12.3134   19.4199 C   0  0  0  0  0  0
  -29.4952  -12.5146   18.2065 C   0  0  0  0  0  0
  -28.0165  -12.3696   18.6157 C   0  0  0  0  0  0
  -27.6622  -13.2043   19.8763 C   0  0  2  0  0  0
  -28.7045  -12.9810   20.9963 C   0  0  0  0  0  0
  -25.2600  -13.8152   20.5667 C   0  0  0  0  0  0
  -24.1847  -13.0436   20.9166 C   0  0  0  0  0  0
  -24.6389  -11.6905   20.8714 C   0  0  0  0  0  0
  -23.9047  -10.4299   21.0391 C   0  0  0  0  0  0
  -24.3604   -9.4223   21.9172 C   0  0  0  0  0  0
  -23.6292   -8.2253   22.0750 C   0  0  0  0  0  0
  -22.4272   -8.0281   21.3544 C   0  0  0  0  0  0
  -21.9902   -9.0244   20.4643 C   0  0  0  0  0  0
  -22.7217  -10.2130   20.3050 C   0  0  0  0  0  0
  -21.6861   -6.0734   22.5285 C   0  0  0  0  0  0
  -21.4012   -6.5639   23.8218 C   0  0  0  0  0  0
  -21.3664   -5.6790   24.9177 C   0  0  0  0  0  0
  -21.6046   -4.3053   24.7232 C   0  0  0  0  0  0
  -21.8817   -3.8149   23.4350 C   0  0  0  0  0  0
  -21.9198   -4.6965   22.3406 C   0  0  0  0  0  0
  -22.7879  -13.5245   21.1844 C   0  0  0  0  0  0
  -22.1668   -4.2157   21.0980 F   0  0  0  0  0  0
  -21.5637   -3.4531   25.7739 F   0  0  0  0  0  0
  -30.0348  -13.2931   20.4455 N   0  0  0  0  0  0
  -26.3029  -12.9312   20.3363 N   0  0  0  0  0  0
  -25.9318  -11.6473   20.5742 N   0  0  0  0  0  0
  -22.0515  -12.8228   22.0393 N   0  0  0  0  0  0
  -25.4337  -15.1870   20.4073 N   0  0  0  0  0  0
  -31.8178  -14.6763   20.1123 O   0  0  0  0  0  0
  -21.6648   -6.8875   21.4243 O   0  0  0  0  0  0
  -22.3567  -14.5555   20.6698 O   0  0  0  0  0  0
  -24.6171  -31.8686   23.2105 C   0  0  0  0  0  0
  -25.9059  -32.4826   23.8398 C   0  0  1  0  0  0
  -27.2236  -27.4210   20.0899 C   0  0  0  0  0  0
  -25.5910  -33.8624   24.2333 N   0  0  0  0  0  0
  -23.4039  -30.4944   21.5532 C   0  0  2  0  0  0
  -24.8467  -28.9651   20.1112 C   0  0  0  0  0  0
  -22.7424  -29.4664   22.4997 C   0  0  0  0  0  0
  -18.0274  -28.1373   22.8490 C   0  0  0  0  0  0
  -24.1486  -36.7312   23.2638 C   0  0  0  0  0  0
  -25.9363  -30.8303   21.3652 C   0  0  0  0  0  0
  -26.0119  -29.4667   20.7063 C   0  0  0  0  0  0
  -27.2063  -28.7050   20.6878 C   0  0  0  0  0  0
  -26.0401  -26.9469   19.4777 C   0  0  0  0  0  0
  -24.8579  -27.7065   19.4909 C   0  0  0  0  0  0
  -23.6102  -29.8335   20.1658 C   0  0  0  0  0  0
  -25.4109  -36.3113   24.0340 C   0  0  1  0  0  0
  -20.5867  -28.3661   23.1315 C   0  0  2  0  0  0
  -20.6765  -26.9398   22.5410 C   0  0  0  0  0  0
  -19.5743  -26.6380   21.5209 C   0  0  0  0  0  0
  -18.1924  -26.7917   22.1625 C   0  0  0  0  0  0
  -19.1525  -28.8833   23.2899 C   0  0  0  0  0  0
  -18.9452  -30.1441   23.8905 C   0  0  0  0  0  0
  -17.6455  -30.6580   24.0561 C   0  0  0  0  0  0
  -25.9040  -34.9482   23.5135 C   0  0  0  0  0  0
  -16.5346  -29.9082   23.6325 C   0  0  0  0  0  0
  -16.7264  -28.6499   23.0348 C   0  0  0  0  0  0
  -26.4474  -31.6604   25.0730 C   0  0  0  0  0  0
  -25.3727  -31.3708   26.1469 C   0  0  0  0  0  0
  -27.0302  -30.3050   24.6098 C   0  0  0  0  0  0
  -27.6052  -32.4316   25.7489 C   0  0  0  0  0  0
  -27.5583  -37.1811   24.8467 C   0  0  0  0  0  0
  -21.4151  -29.3032   22.3729 N   0  0  0  0  0  0
  -26.4298  -37.3797   23.9410 N   0  0  0  0  0  0
  -24.6710  -31.0780   22.1011 N   0  0  0  0  0  0
  -23.4199  -28.8205   23.3034 O   0  0  0  0  0  0
  -28.3657  -26.6393   20.1176 O   0  0  0  0  0  0
  -26.5601  -34.8932   22.4694 O   0  0  0  0  0  0
  -23.5361  -32.1445   23.7495 O   0  0  0  0  0  0
  -28.4929  -20.0916   20.1029 C   0  0  0  0  0  0
  -29.6487  -19.2704   20.1597 C   0  0  0  0  0  0
  -30.9614  -21.1793   20.0138 C   0  0  0  0  0  0
  -29.7989  -21.9955   19.9052 C   0  0  0  0  0  0
  -32.3628  -21.7555   19.9639 C   0  0  0  0  0  0
  -29.9094  -17.2864   18.6303 C   0  0  0  0  0  0
  -29.8463  -23.5035   19.6022 C   0  0  0  0  0  0
  -29.4032  -24.4269   20.7682 C   0  0  0  0  0  0
  -30.2965  -16.9194   21.1387 C   0  0  0  0  0  0
  -28.1300  -25.2673   20.5047 C   0  0  0  0  0  0
  -29.5343  -17.7368   20.0523 C   0  0  1  0  0  0
  -28.5624  -21.4420   19.9720 N   0  0  0  0  0  0
  -30.8876  -19.8259   20.1312 N   0  0  0  0  0  0
  -29.9651  -15.4775   21.1093 N   0  0  0  0  0  0
  -31.4693  -12.4214   19.1160 H   0  0  0  0  0  0
  -30.3354  -11.2997   19.8126 H   0  0  0  0  0  0
  -29.7362  -11.7982   17.4198 H   0  0  0  0  0  0
  -29.6615  -13.5043   17.7780 H   0  0  0  0  0  0
  -27.8240  -11.3118   18.8015 H   0  0  0  0  0  0
  -27.3690  -12.6549   17.7860 H   0  0  0  0  0  0
  -27.7065  -14.2530   19.5820 H   0  0  0  0  0  0
  -28.6845  -11.9433   21.3332 H   0  0  0  0  0  0
  -28.4626  -13.5755   21.8780 H   0  0  0  0  0  0
  -25.2748   -9.5717   22.4736 H   0  0  0  0  0  0
  -24.0021   -7.4649   22.7459 H   0  0  0  0  0  0
  -21.0845   -8.8740   19.8937 H   0  0  0  0  0  0
  -22.3666  -10.9656   19.6157 H   0  0  0  0  0  0
  -21.1992   -7.6148   23.9720 H   0  0  0  0  0  0
  -21.1490   -6.0522   25.9080 H   0  0  0  0  0  0
  -22.0593   -2.7616   23.2846 H   0  0  0  0  0  0
  -22.4132  -11.9876   22.4755 H   0  0  0  0  0  0
  -21.1133  -13.1260   22.2596 H   0  0  0  0  0  0
  -24.6652  -15.8408   20.5063 H   0  0  0  0  0  0
  -26.2842  -15.6242   20.0766 H   0  0  0  0  0  0
  -26.7134  -32.5529   23.1164 H   0  0  0  0  0  0
  -25.0055  -33.9783   25.0473 H   0  0  0  0  0  0
  -22.6930  -31.3124   21.4189 H   0  0  0  0  0  0
  -23.3751  -35.9643   23.3311 H   0  0  0  0  0  0
  -24.3579  -36.8915   22.2050 H   0  0  0  0  0  0
  -23.7235  -37.6521   23.6641 H   0  0  0  0  0  0
  -26.0538  -31.5990   20.6002 H   0  0  0  0  0  0
  -26.8227  -30.8783   21.9861 H   0  0  0  0  0  0
  -28.1043  -29.0869   21.1532 H   0  0  0  0  0  0
  -26.0115  -25.9909   18.9771 H   0  0  0  0  0  0
  -23.9651  -27.3198   19.0193 H   0  0  0  0  0  0
  -23.7181  -30.6124   19.4097 H   0  0  0  0  0  0
  -22.7320  -29.2568   19.8690 H   0  0  0  0  0  0
  -25.1285  -36.1984   25.0833 H   0  0  0  0  0  0
  -20.9955  -28.3218   24.1438 H   0  0  0  0  0  0
  -20.5671  -26.2268   23.3596 H   0  0  0  0  0  0
  -21.6639  -26.7440   22.1206 H   0  0  0  0  0  0
  -19.6906  -25.6294   21.1233 H   0  0  0  0  0  0
  -19.6684  -27.3195   20.6744 H   0  0  0  0  0  0
  -17.4194  -26.6665   21.4026 H   0  0  0  0  0  0
  -18.0330  -26.0055   22.9016 H   0  0  0  0  0  0
  -19.7930  -30.7252   24.2285 H   0  0  0  0  0  0
  -17.5011  -31.6262   24.5156 H   0  0  0  0  0  0
  -15.5349  -30.2988   23.7635 H   0  0  0  0  0  0
  -15.8667  -28.0819   22.7060 H   0  0  0  0  0  0
  -24.5894  -30.7069   25.7792 H   0  0  0  0  0  0
  -24.8921  -32.2862   26.4934 H   0  0  0  0  0  0
  -25.8067  -30.8854   27.0220 H   0  0  0  0  0  0
  -26.2846  -29.6822   24.1139 H   0  0  0  0  0  0
  -27.4068  -29.7277   25.4551 H   0  0  0  0  0  0
  -27.8684  -30.4385   23.9255 H   0  0  0  0  0  0
  -27.2680  -33.3604   26.2108 H   0  0  0  0  0  0
  -28.3839  -32.6899   25.0297 H   0  0  0  0  0  0
  -28.0748  -31.8411   26.5370 H   0  0  0  0  0  0
  -28.2611  -38.0100   24.7519 H   0  0  0  0  0  0
  -28.1072  -36.2634   24.6290 H   0  0  0  0  0  0
  -27.2301  -37.1460   25.8871 H   0  0  0  0  0  0
  -20.9314  -29.8764   21.6959 H   0  0  0  0  0  0
  -26.0193  -38.2881   24.1397 H   0  0  0  0  0  0
  -27.5018  -19.6618   20.0887 H   0  0  0  0  0  0
  -32.4503  -22.6095   20.6350 H   0  0  0  0  0  0
  -32.6006  -22.0825   18.9519 H   0  0  0  0  0  0
  -33.1075  -21.0192   20.2660 H   0  0  0  0  0  0
  -29.3539  -17.8530   17.8830 H   0  0  0  0  0  0
  -29.6927  -16.2316   18.4651 H   0  0  0  0  0  0
  -30.9709  -17.4429   18.4402 H   0  0  0  0  0  0
  -29.2356  -23.6870   18.7173 H   0  0  0  0  0  0
  -30.8512  -23.7878   19.2922 H   0  0  0  0  0  0
  -30.2211  -25.0853   21.0588 H   0  0  0  0  0  0
  -29.2188  -23.8027   21.6426 H   0  0  0  0  0  0
  -30.0322  -17.2957   22.1278 H   0  0  0  0  0  0
  -31.3727  -17.0700   21.0367 H   0  0  0  0  0  0
  -27.5534  -25.2906   21.4315 H   0  0  0  0  0  0
  -27.5103  -24.7367   19.7832 H   0  0  0  0  0  0
  -28.4751  -17.5109   20.1862 H   0  0  0  0  0  0
  -29.0521  -15.2187   21.4530 H   0  0  0  0  0  0
  1 25  1  0  0  0
  1 30  2  0  0  0
  1 84  1  0  0  0
  2  3  1  0  0  0
  2 25  1  0  0  0
  2 85  1  0  0  0
  2 86  1  0  0  0
  3  4  1  0  0  0
  3 87  1  0  0  0
  3 88  1  0  0  0
  4  5  1  0  0  0
  4 89  1  0  0  0
  4 90  1  0  0  0
  5  6  1  0  0  0
  5 26  1  0  0  0
  5 91  1  0  0  0
  6 25  1  0  0  0
  6 92  1  0  0  0
  6 93  1  0  0  0
  7  8  2  0  0  0
  7 26  1  0  0  0
  7 29  1  0  0  0
  8  9  1  0  0  0
  8 22  1  0  0  0
  9 10  1  0  0  0
  9 27  2  0  0  0
 10 11  2  0  0  0
 10 15  1  0  0  0
 11 12  1  0  0  0
 11 94  1  0  0  0
 12 13  2  0  0  0
 12 95  1  0  0  0
 13 14  1  0  0  0
 13 31  1  0  0  0
 14 15  2  0  0  0
 14 96  1  0  0  0
 15 97  1  0  0  0
 16 17  2  0  0  0
 16 21  1  0  0  0
 16 31  1  0  0  0
 17 18  1  0  0  0
 17 98  1  0  0  0
 18 19  2  0  0  0
 18 99  1  0  0  0
 19 20  1  0  0  0
 19 24  1  0  0  0
 20 21  2  0  0  0
 20100  1  0  0  0
 21 23  1  0  0  0
 22 28  1  0  0  0
 22 32  2  0  0  0
 26 27  1  0  0  0
 28101  1  0  0  0
 28102  1  0  0  0
 29103  1  0  0  0
 29104  1  0  0  0
 33 34  1  0  0  0
 33 66  1  0  0  0
 33 70  2  0  0  0
 34 36  1  0  0  0
 34 59  1  0  0  0
 34105  1  0  0  0
 35 44  2  0  0  0
 35 45  1  0  0  0
 35 68  1  0  0  0
 36 56  1  0  0  0
 36106  1  0  0  0
 37 39  1  0  0  0
 37 47  1  0  0  0
 37 66  1  0  0  0
 37107  1  0  0  0
 38 43  2  0  0  0
 38 46  1  0  0  0
 38 47  1  0  0  0
 39 64  1  0  0  0
 39 67  2  0  0  0
 40 52  1  0  0  0
 40 53  2  0  0  0
 40 58  1  0  0  0
 41108  1  0  0  0
 41109  1  0  0  0
 41110  1  0  0  0
 41 48  1  0  0  0
 42 43  1  0  0  0
 42 66  1  0  0  0
 42111  1  0  0  0
 42112  1  0  0  0
 43 44  1  0  0  0
 44113  1  0  0  0
 45 46  2  0  0  0
 45114  1  0  0  0
 46115  1  0  0  0
 47116  1  0  0  0
 47117  1  0  0  0
 48 56  1  0  0  0
 48 65  1  0  0  0
 48118  1  0  0  0
 49 50  1  0  0  0
 49 53  1  0  0  0
 49 64  1  0  0  0
 49119  1  0  0  0
 50 51  1  0  0  0
 50120  1  0  0  0
 50121  1  0  0  0
 51 52  1  0  0  0
 51122  1  0  0  0
 51123  1  0  0  0
 52124  1  0  0  0
 52125  1  0  0  0
 53 54  1  0  0  0
 54 55  2  0  0  0
 54126  1  0  0  0
 55 57  1  0  0  0
 55127  1  0  0  0
 56 69  2  0  0  0
 57 58  2  0  0  0
 57128  1  0  0  0
 58129  1  0  0  0
 59 60  1  0  0  0
 59 61  1  0  0  0
 59 62  1  0  0  0
 60130  1  0  0  0
 60131  1  0  0  0
 60132  1  0  0  0
 61133  1  0  0  0
 61134  1  0  0  0
 61135  1  0  0  0
 62136  1  0  0  0
 62137  1  0  0  0
 62138  1  0  0  0
 63 65  1  0  0  0
 63139  1  0  0  0
 63140  1  0  0  0
 63141  1  0  0  0
 64142  1  0  0  0
 65143  1  0  0  0
 68 80  1  0  0  0
 71 72  2  0  0  0
 71 82  1  0  0  0
 71144  1  0  0  0
 72 81  1  0  0  0
 72 83  1  0  0  0
 73 74  1  0  0  0
 73 75  1  0  0  0
 73 83  2  0  0  0
 74 77  1  0  0  0
 74 82  2  0  0  0
 75145  1  0  0  0
 75146  1  0  0  0
 75147  1  0  0  0
 76148  1  0  0  0
 76149  1  0  0  0
 76150  1  0  0  0
 76 81  1  0  0  0
 77 78  1  0  0  0
 77151  1  0  0  0
 77152  1  0  0  0
 78 80  1  0  0  0
 78153  1  0  0  0
 78154  1  0  0  0
 79 81  1  0  0  0
 79 84  1  0  0  0
 79155  1  0  0  0
 79156  1  0  0  0
 80157  1  0  0  0
 80158  1  0  0  0
 81159  1  0  0  0
 84160  1  0  0  0
M  ISO  4   1 100  68 101  80 101  84 100
M  END
> <chiral flag>
0

> <version>
0

> <s_m_source_file>
/data/baiqing/PycharmProjects/Reinvent-master-3.2/result/LINK_invent/BTK/process_docking_weight1_custom_sum_contain_oxygen_bond_distance_aromatic_linkinvent_7_9_3/rearranged_h_0083.sdf

> <i_m_source_file_index>
49

> <r_mmod_Potential_Energy-OPLS-2005>
-55.2536506652832

> <r_mmod_Stretch_Energy-OPLS-2005>
42.9332542419434

> <r_mmod_Bend_Energy-OPLS-2005>
97.3668594360352

> <r_mmod_Torsional_Energy-OPLS-2005>
215.832962036133

> <r_mmod_Improper_Torsional_Energy-OPLS-2005>
4.68249988555908

> <r_mmod_Van_der_Waal_Energy-OPLS-2005>
156.325393676758

> <r_mmod_Electrostatic_Energy-OPLS-2005>
-363.590698242188

> <r_mmod_Solvation_Energy-OPLS-2005>
-223.583190917969

> <b_mmod_Minimization_Converged-OPLS-2005>
0

> <r_mmod_RMS_Derivative-OPLS-2005>
1.55681371688843

$$$$
49
                    3D
 Structure written by MMmdl.
155163  0  0  1  0            999 V2000
  -30.6234  -14.7147   20.4687 C   0  0  0  0  0  0
  -30.4284  -12.4357   19.4656 C   0  0  0  0  0  0
  -29.5055  -12.4998   18.2294 C   0  0  0  0  0  0
  -28.0297  -12.3370   18.6435 C   0  0  0  0  0  0
  -27.6423  -13.2312   19.8509 C   0  0  2  0  0  0
  -28.6875  -13.1534   20.9837 C   0  0  0  0  0  0
  -25.2513  -13.8192   20.5686 C   0  0  0  0  0  0
  -24.1807  -13.0435   20.9200 C   0  0  0  0  0  0
  -24.6398  -11.6912   20.8742 C   0  0  0  0  0  0
  -23.9076  -10.4289   21.0399 C   0  0  0  0  0  0
  -24.3630   -9.4206   21.9171 C   0  0  0  0  0  0
  -23.6303   -8.2240   22.0740 C   0  0  0  0  0  0
  -22.4282   -8.0284   21.3535 C   0  0  0  0  0  0
  -21.9926   -9.0252   20.4635 C   0  0  0  0  0  0
  -22.7255  -10.2130   20.3045 C   0  0  0  0  0  0
  -21.6859   -6.0739   22.5270 C   0  0  0  0  0  0
  -21.4024   -6.5635   23.8213 C   0  0  0  0  0  0
  -21.3659   -5.6779   24.9163 C   0  0  0  0  0  0
  -21.6052   -4.3042   24.7210 C   0  0  0  0  0  0
  -21.8827   -3.8145   23.4323 C   0  0  0  0  0  0
  -21.9200   -4.6964   22.3391 C   0  0  0  0  0  0
  -22.7836  -13.5215   21.1881 C   0  0  0  0  0  0
  -22.1670   -4.2155   21.0963 F   0  0  0  0  0  0
  -21.5628   -3.4526   25.7718 F   0  0  0  0  0  0
  -29.9884  -13.4968   20.3987 N   0  0  0  0  0  0
  -26.2941  -12.9403   20.3284 N   0  0  0  0  0  0
  -25.9326  -11.6544   20.5750 N   0  0  0  0  0  0
  -22.0504  -12.8176   22.0431 N   0  0  0  0  0  0
  -25.4222  -15.1909   20.4081 N   0  0  0  0  0  0
  -31.8150  -14.8078   20.1649 O   0  0  0  0  0  0
  -21.6643   -6.8879   21.4234 O   0  0  0  0  0  0
  -22.3517  -14.5534   20.6753 O   0  0  0  0  0  0
  -24.6294  -31.8549   23.1982 C   0  0  0  0  0  0
  -25.9119  -32.4757   23.8322 C   0  0  1  0  0  0
  -27.2178  -27.2657   20.1229 C   0  0  0  0  0  0
  -25.5935  -33.8564   24.2258 N   0  0  0  0  0  0
  -23.4278  -30.4800   21.5400 C   0  0  2  0  0  0
  -24.8747  -28.9321   20.1057 C   0  0  0  0  0  0
  -22.7503  -29.4608   22.4884 C   0  0  0  0  0  0
  -18.0302  -28.1392   22.8494 C   0  0  0  0  0  0
  -24.1503  -36.7265   23.2639 C   0  0  0  0  0  0
  -25.9745  -30.7707   21.3780 C   0  0  0  0  0  0
  -26.0462  -29.3943   20.7186 C   0  0  0  0  0  0
  -27.2207  -28.5743   20.7159 C   0  0  0  0  0  0
  -26.0200  -26.8726   19.4821 C   0  0  0  0  0  0
  -24.8661  -27.6788   19.4782 C   0  0  0  0  0  0
  -23.6461  -29.8183   20.1547 C   0  0  0  0  0  0
  -25.4132  -36.3069   24.0328 C   0  0  1  0  0  0
  -20.5906  -28.3691   23.1275 C   0  0  2  0  0  0
  -20.6800  -26.9407   22.5418 C   0  0  0  0  0  0
  -19.5774  -26.6374   21.5226 C   0  0  0  0  0  0
  -18.1945  -26.7941   22.1618 C   0  0  0  0  0  0
  -19.1556  -28.8855   23.2884 C   0  0  0  0  0  0
  -18.9473  -30.1458   23.8892 C   0  0  0  0  0  0
  -17.6473  -30.6590   24.0564 C   0  0  0  0  0  0
  -25.9057  -34.9440   23.5089 C   0  0  0  0  0  0
  -16.5361  -29.9089   23.6337 C   0  0  0  0  0  0
  -16.7280  -28.6509   23.0347 C   0  0  0  0  0  0
  -26.4492  -31.6576   25.0704 C   0  0  0  0  0  0
  -25.3723  -31.3737   26.1426 C   0  0  0  0  0  0
  -27.0318  -30.2992   24.6172 C   0  0  0  0  0  0
  -27.6048  -32.4313   25.7482 C   0  0  0  0  0  0
  -27.5587  -37.1794   24.8468 C   0  0  0  0  0  0
  -21.4205  -29.3048   22.3652 N   0  0  0  0  0  0
  -26.4296  -37.3766   23.9415 N   0  0  0  0  0  0
  -24.6964  -31.0538   22.0946 N   0  0  0  0  0  0
  -23.4221  -28.8146   23.2963 O   0  0  0  0  0  0
  -28.3111  -26.3676   20.1843 O   0  0  0  0  0  0
  -26.5616  -34.8909   22.4650 O   0  0  0  0  0  0
  -23.5437  -32.1355   23.7280 O   0  0  0  0  0  0
  -28.3303  -21.3414   22.4403 C   0  0  0  0  0  0
  -28.8316  -21.1114   21.1802 C   0  0  0  0  0  0
  -27.7620  -22.5822   23.0563 C   0  0  0  0  0  0
  -28.9444  -22.1863   20.0440 C   0  0  0  0  0  0
  -29.1499  -23.7738   20.3783 C   0  0  0  0  0  0
  -29.4689  -18.5716   20.2568 C   0  0  0  0  0  0
  -30.3377  -17.3039   20.8074 C   0  0  0  0  0  0
  -28.0627  -24.8979   19.9766 C   0  0  0  0  0  0
  -28.3463  -20.1713   23.1824 N   0  0  0  0  0  0
  -28.7778  -19.2028   22.4541 N   0  0  0  0  0  0
  -29.0935  -19.6801   21.2234 N   0  0  0  0  0  0
  -29.8655  -15.8531   20.6856 N   0  0  0  0  0  0
  -31.4697  -12.5550   19.1626 H   0  0  0  0  0  0
  -30.3656  -11.4552   19.9424 H   0  0  0  0  0  0
  -29.7768  -11.7232   17.5118 H   0  0  0  0  0  0
  -29.6421  -13.4530   17.7163 H   0  0  0  0  0  0
  -27.8756  -11.2881   18.8987 H   0  0  0  0  0  0
  -27.3734  -12.5431   17.7959 H   0  0  0  0  0  0
  -27.6399  -14.2555   19.4765 H   0  0  0  0  0  0
  -28.7142  -12.1555   21.4221 H   0  0  0  0  0  0
  -28.4296  -13.8362   21.7945 H   0  0  0  0  0  0
  -25.2779   -9.5672   22.4742 H   0  0  0  0  0  0
  -24.0014   -7.4627   22.7454 H   0  0  0  0  0  0
  -21.0864   -8.8777   19.8934 H   0  0  0  0  0  0
  -22.3727  -10.9666   19.6150 H   0  0  0  0  0  0
  -21.2026   -7.6147   23.9716 H   0  0  0  0  0  0
  -21.1474   -6.0504   25.9069 H   0  0  0  0  0  0
  -22.0612   -2.7608   23.2815 H   0  0  0  0  0  0
  -22.4141  -11.9807   22.4750 H   0  0  0  0  0  0
  -21.1130  -13.1186   22.2687 H   0  0  0  0  0  0
  -24.6558  -15.8463   20.5154 H   0  0  0  0  0  0
  -26.2667  -15.6260   20.0600 H   0  0  0  0  0  0
  -26.7176  -32.5391   23.1053 H   0  0  0  0  0  0
  -25.0153  -33.9727   25.0450 H   0  0  0  0  0  0
  -22.7227  -31.3012   21.3950 H   0  0  0  0  0  0
  -23.3773  -35.9593   23.3294 H   0  0  0  0  0  0
  -24.3611  -36.8879   22.2056 H   0  0  0  0  0  0
  -23.7241  -37.6460   23.6659 H   0  0  0  0  0  0
  -26.1162  -31.5337   20.6109 H   0  0  0  0  0  0
  -26.8523  -30.8169   22.0115 H   0  0  0  0  0  0
  -28.1163  -28.9239   21.2101 H   0  0  0  0  0  0
  -25.9382  -25.9172   18.9873 H   0  0  0  0  0  0
  -23.9690  -27.3192   18.9928 H   0  0  0  0  0  0
  -23.7674  -30.5962   19.3993 H   0  0  0  0  0  0
  -22.7662  -29.2493   19.8489 H   0  0  0  0  0  0
  -25.1318  -36.1907   25.0821 H   0  0  0  0  0  0
  -21.0016  -28.3243   24.1383 H   0  0  0  0  0  0
  -20.5719  -26.2290   23.3617 H   0  0  0  0  0  0
  -21.6662  -26.7437   22.1198 H   0  0  0  0  0  0
  -19.6945  -25.6287   21.1241 H   0  0  0  0  0  0
  -19.6723  -27.3205   20.6774 H   0  0  0  0  0  0
  -17.4231  -26.6701   21.3997 H   0  0  0  0  0  0
  -18.0305  -26.0097   22.9016 H   0  0  0  0  0  0
  -19.7945  -30.7291   24.2246 H   0  0  0  0  0  0
  -17.5019  -31.6272   24.5163 H   0  0  0  0  0  0
  -15.5361  -30.2985   23.7674 H   0  0  0  0  0  0
  -15.8680  -28.0834   22.7048 H   0  0  0  0  0  0
  -24.5975  -30.6979   25.7783 H   0  0  0  0  0  0
  -24.8825  -32.2904   26.4722 H   0  0  0  0  0  0
  -25.8061  -30.9047   27.0262 H   0  0  0  0  0  0
  -26.2880  -29.6769   24.1183 H   0  0  0  0  0  0
  -27.3996  -29.7225   25.4663 H   0  0  0  0  0  0
  -27.8768  -30.4268   23.9408 H   0  0  0  0  0  0
  -27.2668  -33.3663   26.1963 H   0  0  0  0  0  0
  -28.3911  -32.6780   25.0336 H   0  0  0  0  0  0
  -28.0640  -31.8480   26.5471 H   0  0  0  0  0  0
  -28.2586  -38.0105   24.7521 H   0  0  0  0  0  0
  -28.1092  -36.2629   24.6282 H   0  0  0  0  0  0
  -27.2299  -37.1418   25.8868 H   0  0  0  0  0  0
  -20.9363  -29.8766   21.6875 H   0  0  0  0  0  0
  -26.0159  -38.2832   24.1432 H   0  0  0  0  0  0
  -27.2160  -23.1774   22.3271 H   0  0  0  0  0  0
  -28.5431  -23.2039   23.4929 H   0  0  0  0  0  0
  -27.0544  -22.3458   23.8509 H   0  0  0  0  0  0
  -28.0748  -22.0874   19.3939 H   0  0  0  0  0  0
  -29.7790  -21.8833   19.4097 H   0  0  0  0  0  0
  -30.0558  -24.0695   19.8477 H   0  0  0  0  0  0
  -29.4298  -23.9001   21.4218 H   0  0  0  0  0  0
  -28.5403  -18.2005   19.8195 H   0  0  0  0  0  0
  -30.0065  -19.0344   19.4285 H   0  0  0  0  0  0
  -30.5804  -17.4573   21.8588 H   0  0  0  0  0  0
  -31.3094  -17.3639   20.3147 H   0  0  0  0  0  0
  -27.1433  -24.6381   20.5021 H   0  0  0  0  0  0
  -27.8492  -24.7621   18.9153 H   0  0  0  0  0  0
  -28.8853  -15.6889   20.8618 H   0  0  0  0  0  0
  1 25  1  0  0  0
  1 30  2  0  0  0
  1 82  1  0  0  0
  2  3  1  0  0  0
  2 25  1  0  0  0
  2 83  1  0  0  0
  2 84  1  0  0  0
  3  4  1  0  0  0
  3 85  1  0  0  0
  3 86  1  0  0  0
  4  5  1  0  0  0
  4 87  1  0  0  0
  4 88  1  0  0  0
  5  6  1  0  0  0
  5 26  1  0  0  0
  5 89  1  0  0  0
  6 25  1  0  0  0
  6 90  1  0  0  0
  6 91  1  0  0  0
  7  8  2  0  0  0
  7 26  1  0  0  0
  7 29  1  0  0  0
  8  9  1  0  0  0
  8 22  1  0  0  0
  9 10  1  0  0  0
  9 27  2  0  0  0
 10 11  2  0  0  0
 10 15  1  0  0  0
 11 12  1  0  0  0
 11 92  1  0  0  0
 12 13  2  0  0  0
 12 93  1  0  0  0
 13 14  1  0  0  0
 13 31  1  0  0  0
 14 15  2  0  0  0
 14 94  1  0  0  0
 15 95  1  0  0  0
 16 17  2  0  0  0
 16 21  1  0  0  0
 16 31  1  0  0  0
 17 18  1  0  0  0
 17 96  1  0  0  0
 18 19  2  0  0  0
 18 97  1  0  0  0
 19 20  1  0  0  0
 19 24  1  0  0  0
 20 21  2  0  0  0
 20 98  1  0  0  0
 21 23  1  0  0  0
 22 28  1  0  0  0
 22 32  2  0  0  0
 26 27  1  0  0  0
 28 99  1  0  0  0
 28100  1  0  0  0
 29101  1  0  0  0
 29102  1  0  0  0
 33 34  1  0  0  0
 33 66  1  0  0  0
 33 70  2  0  0  0
 34 36  1  0  0  0
 34 59  1  0  0  0
 34103  1  0  0  0
 35 44  2  0  0  0
 35 45  1  0  0  0
 35 68  1  0  0  0
 36 56  1  0  0  0
 36104  1  0  0  0
 37 39  1  0  0  0
 37 47  1  0  0  0
 37 66  1  0  0  0
 37105  1  0  0  0
 38 43  2  0  0  0
 38 46  1  0  0  0
 38 47  1  0  0  0
 39 64  1  0  0  0
 39 67  2  0  0  0
 40 52  1  0  0  0
 40 53  2  0  0  0
 40 58  1  0  0  0
 41106  1  0  0  0
 41107  1  0  0  0
 41108  1  0  0  0
 41 48  1  0  0  0
 42 43  1  0  0  0
 42 66  1  0  0  0
 42109  1  0  0  0
 42110  1  0  0  0
 43 44  1  0  0  0
 44111  1  0  0  0
 45 46  2  0  0  0
 45112  1  0  0  0
 46113  1  0  0  0
 47114  1  0  0  0
 47115  1  0  0  0
 48 56  1  0  0  0
 48 65  1  0  0  0
 48116  1  0  0  0
 49 50  1  0  0  0
 49 53  1  0  0  0
 49 64  1  0  0  0
 49117  1  0  0  0
 50 51  1  0  0  0
 50118  1  0  0  0
 50119  1  0  0  0
 51 52  1  0  0  0
 51120  1  0  0  0
 51121  1  0  0  0
 52122  1  0  0  0
 52123  1  0  0  0
 53 54  1  0  0  0
 54 55  2  0  0  0
 54124  1  0  0  0
 55 57  1  0  0  0
 55125  1  0  0  0
 56 69  2  0  0  0
 57 58  2  0  0  0
 57126  1  0  0  0
 58127  1  0  0  0
 59 60  1  0  0  0
 59 61  1  0  0  0
 59 62  1  0  0  0
 60128  1  0  0  0
 60129  1  0  0  0
 60130  1  0  0  0
 61131  1  0  0  0
 61132  1  0  0  0
 61133  1  0  0  0
 62134  1  0  0  0
 62135  1  0  0  0
 62136  1  0  0  0
 63 65  1  0  0  0
 63137  1  0  0  0
 63138  1  0  0  0
 63139  1  0  0  0
 64140  1  0  0  0
 65141  1  0  0  0
 68 78  1  0  0  0
 71 72  2  0  0  0
 71 73  1  0  0  0
 71 79  1  0  0  0
 72 74  1  0  0  0
 72 81  1  0  0  0
 73142  1  0  0  0
 73143  1  0  0  0
 73144  1  0  0  0
 74 75  1  0  0  0
 74145  1  0  0  0
 74146  1  0  0  0
 75 78  1  0  0  0
 75147  1  0  0  0
 75148  1  0  0  0
 76 77  1  0  0  0
 76 81  1  0  0  0
 76149  1  0  0  0
 76150  1  0  0  0
 77 82  1  0  0  0
 77151  1  0  0  0
 77152  1  0  0  0
 78153  1  0  0  0
 78154  1  0  0  0
 79 80  2  0  0  0
 80 81  1  0  0  0
 82155  1  0  0  0
M  ISO  4   1 100  68 101  78 101  82 100
M  END
> <chiral flag>
0

> <version>
0

> <s_m_source_file>
/data/baiqing/PycharmProjects/Reinvent-master-3.2/result/LINK_invent/BTK/process_docking_weight1_custom_sum_contain_oxygen_bond_distance_aromatic_linkinvent_7_9_3/rearranged_h_0083.sdf

> <i_m_source_file_index>
50

> <r_mmod_Potential_Energy-OPLS-2005>
138.385223388672

> <r_mmod_Stretch_Energy-OPLS-2005>
127.271789550781

> <r_mmod_Bend_Energy-OPLS-2005>
182.202987670898

> <r_mmod_Torsional_Energy-OPLS-2005>
232.658172607422

> <r_mmod_Improper_Torsional_Energy-OPLS-2005>
4.8933424949646

> <r_mmod_Van_der_Waal_Energy-OPLS-2005>
122.425155639648

> <r_mmod_Electrostatic_Energy-OPLS-2005>
-385.456115722656

> <r_mmod_Solvation_Energy-OPLS-2005>
-224.207550048828

> <b_mmod_Minimization_Converged-OPLS-2005>
0

> <r_mmod_RMS_Derivative-OPLS-2005>
2.03604221343994

$$$$
50
                    3D
 Structure written by MMmdl.
166174  0  0  1  0            999 V2000
  -30.6088  -14.7559   20.4589 C   0  0  0  0  0  0
  -30.4346  -12.4669   19.4614 C   0  0  0  0  0  0
  -29.5057  -12.5006   18.2284 C   0  0  0  0  0  0
  -28.0330  -12.3262   18.6487 C   0  0  0  0  0  0
  -27.6379  -13.2314   19.8454 C   0  0  2  0  0  0
  -28.6872  -13.1722   20.9748 C   0  0  0  0  0  0
  -25.2504  -13.8191   20.5713 C   0  0  0  0  0  0
  -24.1795  -13.0431   20.9197 C   0  0  0  0  0  0
  -24.6391  -11.6913   20.8739 C   0  0  0  0  0  0
  -23.9065  -10.4284   21.0397 C   0  0  0  0  0  0
  -24.3617   -9.4206   21.9181 C   0  0  0  0  0  0
  -23.6291   -8.2238   22.0758 C   0  0  0  0  0  0
  -22.4274   -8.0273   21.3547 C   0  0  0  0  0  0
  -21.9907   -9.0244   20.4649 C   0  0  0  0  0  0
  -22.7234  -10.2122   20.3054 C   0  0  0  0  0  0
  -21.6852   -6.0727   22.5275 C   0  0  0  0  0  0
  -21.4011   -6.5640   23.8205 C   0  0  0  0  0  0
  -21.3660   -5.6794   24.9170 C   0  0  0  0  0  0
  -21.6044   -4.3054   24.7223 C   0  0  0  0  0  0
  -21.8822   -3.8144   23.4347 C   0  0  0  0  0  0
  -21.9195   -4.6954   22.3401 C   0  0  0  0  0  0
  -22.7823  -13.5213   21.1865 C   0  0  0  0  0  0
  -22.1664   -4.2141   21.0975 F   0  0  0  0  0  0
  -21.5631   -3.4539   25.7737 F   0  0  0  0  0  0
  -29.9810  -13.5323   20.3834 N   0  0  0  0  0  0
  -26.2923  -12.9397   20.3276 N   0  0  0  0  0  0
  -25.9318  -11.6531   20.5749 N   0  0  0  0  0  0
  -22.0478  -12.8197   22.0417 N   0  0  0  0  0  0
  -25.4194  -15.1919   20.4192 N   0  0  0  0  0  0
  -31.8090  -14.8457   20.1887 O   0  0  0  0  0  0
  -21.6646   -6.8871   21.4237 O   0  0  0  0  0  0
  -22.3497  -14.5510   20.6706 O   0  0  0  0  0  0
  -24.6314  -31.8535   23.1950 C   0  0  0  0  0  0
  -25.9140  -32.4738   23.8294 C   0  0  1  0  0  0
  -27.2197  -27.2476   20.1165 C   0  0  0  0  0  0
  -25.5963  -33.8547   24.2225 N   0  0  0  0  0  0
  -23.4297  -30.4755   21.5381 C   0  0  2  0  0  0
  -24.8759  -28.9213   20.1035 C   0  0  0  0  0  0
  -22.7505  -29.4591   22.4876 C   0  0  0  0  0  0
  -18.0298  -28.1380   22.8480 C   0  0  0  0  0  0
  -24.1505  -36.7265   23.2640 C   0  0  0  0  0  0
  -25.9763  -30.7598   21.3765 C   0  0  0  0  0  0
  -26.0469  -29.3812   20.7179 C   0  0  0  0  0  0
  -27.2190  -28.5556   20.7168 C   0  0  0  0  0  0
  -26.0265  -26.8679   19.4608 C   0  0  0  0  0  0
  -24.8711  -27.6729   19.4647 C   0  0  0  0  0  0
  -23.6474  -29.8108   20.1528 C   0  0  0  0  0  0
  -25.4133  -36.3054   24.0324 C   0  0  1  0  0  0
  -20.5907  -28.3686   23.1255 C   0  0  2  0  0  0
  -20.6799  -26.9403   22.5399 C   0  0  0  0  0  0
  -19.5783  -26.6368   21.5204 C   0  0  0  0  0  0
  -18.1956  -26.7923   22.1606 C   0  0  0  0  0  0
  -19.1555  -28.8846   23.2864 C   0  0  0  0  0  0
  -18.9483  -30.1450   23.8877 C   0  0  0  0  0  0
  -17.6487  -30.6582   24.0555 C   0  0  0  0  0  0
  -25.9077  -34.9435   23.5070 C   0  0  0  0  0  0
  -16.5371  -29.9087   23.6330 C   0  0  0  0  0  0
  -16.7286  -28.6501   23.0345 C   0  0  0  0  0  0
  -26.4513  -31.6568   25.0686 C   0  0  0  0  0  0
  -25.3740  -31.3735   26.1405 C   0  0  0  0  0  0
  -27.0338  -30.2981   24.6164 C   0  0  0  0  0  0
  -27.6070  -32.4304   25.7451 C   0  0  0  0  0  0
  -27.5583  -37.1788   24.8469 C   0  0  0  0  0  0
  -21.4208  -29.3031   22.3629 N   0  0  0  0  0  0
  -26.4294  -37.3757   23.9417 N   0  0  0  0  0  0
  -24.6983  -31.0485   22.0927 N   0  0  0  0  0  0
  -23.4204  -28.8131   23.2973 O   0  0  0  0  0  0
  -28.3152  -26.3474   20.1857 O   0  0  0  0  0  0
  -26.5627  -34.8918   22.4629 O   0  0  0  0  0  0
  -23.5459  -32.1360   23.7237 O   0  0  0  0  0  0
  -27.0435  -21.4449   20.8225 C   0  0  0  0  0  0
  -28.3478  -21.0209   20.4888 C   0  0  0  0  0  0
  -26.0460  -20.5057   21.1466 C   0  0  0  0  0  0
  -28.5731  -19.5588   20.5583 C   0  0  0  0  0  0
  -23.7203  -20.2627   20.2245 C   0  0  0  0  0  0
  -24.3348  -22.4236   21.2863 C   0  0  0  0  0  0
  -24.0597  -20.4092   22.7189 C   0  0  0  0  0  0
  -29.2760  -22.2014   19.9945 C   0  0  0  0  0  0
  -29.7864  -18.6584   20.0903 C   0  0  0  0  0  0
  -29.0976  -23.7462   20.5264 C   0  0  0  0  0  0
  -30.2639  -17.3444   20.9399 C   0  0  0  0  0  0
  -28.1397  -24.8791   19.8685 C   0  0  0  0  0  0
  -24.5661  -20.8953   21.3473 C   0  0  0  0  0  0
  -26.3324  -19.1850   21.2096 N   0  0  0  0  0  0
  -27.5555  -18.7372   20.9230 N   0  0  0  0  0  0
  -29.8376  -15.8963   20.6498 N   0  0  0  0  0  0
  -31.4718  -12.6046   19.1527 H   0  0  0  0  0  0
  -30.3937  -11.4938   19.9532 H   0  0  0  0  0  0
  -29.7864  -11.7181   17.5214 H   0  0  0  0  0  0
  -29.6279  -13.4478   17.7006 H   0  0  0  0  0  0
  -27.8932  -11.2792   18.9201 H   0  0  0  0  0  0
  -27.3717  -12.5100   17.8013 H   0  0  0  0  0  0
  -27.6279  -14.2511   19.4589 H   0  0  0  0  0  0
  -28.7310  -12.1748   21.4150 H   0  0  0  0  0  0
  -28.4241  -13.8542   21.7849 H   0  0  0  0  0  0
  -25.2758   -9.5683   22.4760 H   0  0  0  0  0  0
  -23.9998   -7.4631   22.7483 H   0  0  0  0  0  0
  -21.0835   -8.8755   19.8960 H   0  0  0  0  0  0
  -22.3686  -10.9656   19.6166 H   0  0  0  0  0  0
  -21.2002   -7.6151   23.9701 H   0  0  0  0  0  0
  -21.1480   -6.0529   25.9070 H   0  0  0  0  0  0
  -22.0602   -2.7605   23.2844 H   0  0  0  0  0  0
  -22.4104  -11.9850   22.4786 H   0  0  0  0  0  0
  -21.1100  -13.1219   22.2631 H   0  0  0  0  0  0
  -24.6624  -15.8496   20.5715 H   0  0  0  0  0  0
  -26.2789  -15.6485   20.1420 H   0  0  0  0  0  0
  -26.7193  -32.5363   23.1017 H   0  0  0  0  0  0
  -25.0174  -33.9709   25.0413 H   0  0  0  0  0  0
  -22.7269  -31.2973   21.3904 H   0  0  0  0  0  0
  -23.3772  -35.9590   23.3285 H   0  0  0  0  0  0
  -24.3610  -36.8897   22.2058 H   0  0  0  0  0  0
  -23.7251  -37.6461   23.6671 H   0  0  0  0  0  0
  -26.1201  -31.5196   20.6070 H   0  0  0  0  0  0
  -26.8527  -30.8060   22.0098 H   0  0  0  0  0  0
  -28.1142  -28.9006   21.2146 H   0  0  0  0  0  0
  -25.9535  -25.9250   18.9396 H   0  0  0  0  0  0
  -23.9791  -27.3177   18.9673 H   0  0  0  0  0  0
  -23.7722  -30.5880   19.3976 H   0  0  0  0  0  0
  -22.7649  -29.2450   19.8463 H   0  0  0  0  0  0
  -25.1318  -36.1877   25.0813 H   0  0  0  0  0  0
  -21.0010  -28.3259   24.1371 H   0  0  0  0  0  0
  -20.5691  -26.2306   23.3604 H   0  0  0  0  0  0
  -21.6674  -26.7431   22.1198 H   0  0  0  0  0  0
  -19.6969  -25.6274   21.1240 H   0  0  0  0  0  0
  -19.6738  -27.3168   20.6727 H   0  0  0  0  0  0
  -17.4240  -26.6662   21.3990 H   0  0  0  0  0  0
  -18.0355  -26.0061   22.8994 H   0  0  0  0  0  0
  -19.7965  -30.7266   24.2232 H   0  0  0  0  0  0
  -17.5049  -31.6260   24.5161 H   0  0  0  0  0  0
  -15.5375  -30.2992   23.7666 H   0  0  0  0  0  0
  -15.8682  -28.0825   22.7055 H   0  0  0  0  0  0
  -24.5963  -30.7016   25.7751 H   0  0  0  0  0  0
  -24.8875  -32.2900   26.4740 H   0  0  0  0  0  0
  -25.8067  -30.9002   27.0223 H   0  0  0  0  0  0
  -26.2889  -29.6727   24.1218 H   0  0  0  0  0  0
  -27.4050  -29.7244   25.4662 H   0  0  0  0  0  0
  -27.8772  -30.4243   23.9376 H   0  0  0  0  0  0
  -27.2704  -33.3654   26.1934 H   0  0  0  0  0  0
  -28.3929  -32.6759   25.0301 H   0  0  0  0  0  0
  -28.0670  -31.8470   26.5433 H   0  0  0  0  0  0
  -28.2578  -38.0099   24.7505 H   0  0  0  0  0  0
  -28.1085  -36.2622   24.6288 H   0  0  0  0  0  0
  -27.2305  -37.1424   25.8872 H   0  0  0  0  0  0
  -20.9375  -29.8776   21.6861 H   0  0  0  0  0  0
  -26.0155  -38.2817   24.1429 H   0  0  0  0  0  0
  -26.7977  -22.4903   20.7627 H   0  0  0  0  0  0
  -24.0572  -20.5968   19.2422 H   0  0  0  0  0  0
  -22.6667  -20.5265   20.3193 H   0  0  0  0  0  0
  -23.7854  -19.1742   20.2380 H   0  0  0  0  0  0
  -24.6149  -22.8389   20.3172 H   0  0  0  0  0  0
  -24.9019  -22.9492   22.0555 H   0  0  0  0  0  0
  -23.2840  -22.6708   21.4389 H   0  0  0  0  0  0
  -24.1230  -19.3244   22.8088 H   0  0  0  0  0  0
  -23.0152  -20.6829   22.8746 H   0  0  0  0  0  0
  -24.6389  -20.8442   23.5339 H   0  0  0  0  0  0
  -29.2517  -22.2032   18.9037 H   0  0  0  0  0  0
  -30.2895  -21.8906   20.2497 H   0  0  0  0  0  0
  -30.6373  -19.3394   20.0532 H   0  0  0  0  0  0
  -29.6163  -18.3719   19.0523 H   0  0  0  0  0  0
  -30.0941  -24.1761   20.4252 H   0  0  0  0  0  0
  -28.9271  -23.7238   21.6032 H   0  0  0  0  0  0
  -30.0750  -17.5368   21.9967 H   0  0  0  0  0  0
  -31.3522  -17.3368   20.8658 H   0  0  0  0  0  0
  -27.1268  -24.5854   20.1366 H   0  0  0  0  0  0
  -28.1981  -24.7865   18.7831 H   0  0  0  0  0  0
  -28.8502  -15.7178   20.7579 H   0  0  0  0  0  0
  1 25  1  0  0  0
  1 30  2  0  0  0
  1 86  1  0  0  0
  2  3  1  0  0  0
  2 25  1  0  0  0
  2 87  1  0  0  0
  2 88  1  0  0  0
  3  4  1  0  0  0
  3 89  1  0  0  0
  3 90  1  0  0  0
  4  5  1  0  0  0
  4 91  1  0  0  0
  4 92  1  0  0  0
  5  6  1  0  0  0
  5 26  1  0  0  0
  5 93  1  0  0  0
  6 25  1  0  0  0
  6 94  1  0  0  0
  6 95  1  0  0  0
  7  8  2  0  0  0
  7 26  1  0  0  0
  7 29  1  0  0  0
  8  9  1  0  0  0
  8 22  1  0  0  0
  9 10  1  0  0  0
  9 27  2  0  0  0
 10 11  2  0  0  0
 10 15  1  0  0  0
 11 12  1  0  0  0
 11 96  1  0  0  0
 12 13  2  0  0  0
 12 97  1  0  0  0
 13 14  1  0  0  0
 13 31  1  0  0  0
 14 15  2  0  0  0
 14 98  1  0  0  0
 15 99  1  0  0  0
 16 17  2  0  0  0
 16 21  1  0  0  0
 16 31  1  0  0  0
 17 18  1  0  0  0
 17100  1  0  0  0
 18 19  2  0  0  0
 18101  1  0  0  0
 19 20  1  0  0  0
 19 24  1  0  0  0
 20 21  2  0  0  0
 20102  1  0  0  0
 21 23  1  0  0  0
 22 28  1  0  0  0
 22 32  2  0  0  0
 26 27  1  0  0  0
 28103  1  0  0  0
 28104  1  0  0  0
 29105  1  0  0  0
 29106  1  0  0  0
 33 34  1  0  0  0
 33 66  1  0  0  0
 33 70  2  0  0  0
 34 36  1  0  0  0
 34 59  1  0  0  0
 34107  1  0  0  0
 35 44  2  0  0  0
 35 45  1  0  0  0
 35 68  1  0  0  0
 36 56  1  0  0  0
 36108  1  0  0  0
 37 39  1  0  0  0
 37 47  1  0  0  0
 37 66  1  0  0  0
 37109  1  0  0  0
 38 43  2  0  0  0
 38 46  1  0  0  0
 38 47  1  0  0  0
 39 64  1  0  0  0
 39 67  2  0  0  0
 40 52  1  0  0  0
 40 53  2  0  0  0
 40 58  1  0  0  0
 41110  1  0  0  0
 41111  1  0  0  0
 41112  1  0  0  0
 41 48  1  0  0  0
 42 43  1  0  0  0
 42 66  1  0  0  0
 42113  1  0  0  0
 42114  1  0  0  0
 43 44  1  0  0  0
 44115  1  0  0  0
 45 46  2  0  0  0
 45116  1  0  0  0
 46117  1  0  0  0
 47118  1  0  0  0
 47119  1  0  0  0
 48 56  1  0  0  0
 48 65  1  0  0  0
 48120  1  0  0  0
 49 50  1  0  0  0
 49 53  1  0  0  0
 49 64  1  0  0  0
 49121  1  0  0  0
 50 51  1  0  0  0
 50122  1  0  0  0
 50123  1  0  0  0
 51 52  1  0  0  0
 51124  1  0  0  0
 51125  1  0  0  0
 52126  1  0  0  0
 52127  1  0  0  0
 53 54  1  0  0  0
 54 55  2  0  0  0
 54128  1  0  0  0
 55 57  1  0  0  0
 55129  1  0  0  0
 56 69  2  0  0  0
 57 58  2  0  0  0
 57130  1  0  0  0
 58131  1  0  0  0
 59 60  1  0  0  0
 59 61  1  0  0  0
 59 62  1  0  0  0
 60132  1  0  0  0
 60133  1  0  0  0
 60134  1  0  0  0
 61135  1  0  0  0
 61136  1  0  0  0
 61137  1  0  0  0
 62138  1  0  0  0
 62139  1  0  0  0
 62140  1  0  0  0
 63 65  1  0  0  0
 63141  1  0  0  0
 63142  1  0  0  0
 63143  1  0  0  0
 64144  1  0  0  0
 65145  1  0  0  0
 68 82  1  0  0  0
 71 72  2  0  0  0
 71 73  1  0  0  0
 71146  1  0  0  0
 72 74  1  0  0  0
 72 78  1  0  0  0
 73 83  1  0  0  0
 73 84  2  0  0  0
 74 79  1  0  0  0
 74 85  2  0  0  0
 75147  1  0  0  0
 75148  1  0  0  0
 75149  1  0  0  0
 75 83  1  0  0  0
 76 83  1  0  0  0
 76150  1  0  0  0
 76151  1  0  0  0
 76152  1  0  0  0
 77 83  1  0  0  0
 77153  1  0  0  0
 77154  1  0  0  0
 77155  1  0  0  0
 78 80  1  0  0  0
 78156  1  0  0  0
 78157  1  0  0  0
 79 81  1  0  0  0
 79158  1  0  0  0
 79159  1  0  0  0
 80 82  1  0  0  0
 80160  1  0  0  0
 80161  1  0  0  0
 81 86  1  0  0  0
 81162  1  0  0  0
 81163  1  0  0  0
 82164  1  0  0  0
 82165  1  0  0  0
 84 85  1  0  0  0
 86166  1  0  0  0
M  ISO  4   1 100  68 101  82 101  86 100
M  END
> <chiral flag>
0

> <version>
0

> <s_m_source_file>
/data/baiqing/PycharmProjects/Reinvent-master-3.2/result/LINK_invent/BTK/process_docking_weight1_custom_sum_contain_oxygen_bond_distance_aromatic_linkinvent_7_9_3/rearranged_h_0083.sdf

> <i_m_source_file_index>
51

> <r_mmod_Potential_Energy-OPLS-2005>
248.327529907227

> <r_mmod_Stretch_Energy-OPLS-2005>
143.272735595703

> <r_mmod_Bend_Energy-OPLS-2005>
229.624404907227

> <r_mmod_Torsional_Energy-OPLS-2005>
212.307113647461

> <r_mmod_Improper_Torsional_Energy-OPLS-2005>
5.12158823013306

> <r_mmod_Van_der_Waal_Energy-OPLS-2005>
143.114501953125

> <r_mmod_Electrostatic_Energy-OPLS-2005>
-363.494293212891

> <r_mmod_Solvation_Energy-OPLS-2005>
-215.026397705078

> <b_mmod_Minimization_Converged-OPLS-2005>
0

> <r_mmod_RMS_Derivative-OPLS-2005>
1.79029726982117

$$$$
51
                    3D
 Structure written by MMmdl.
172180  0  0  1  0            999 V2000
  -30.5695  -14.7604   20.4734 C   0  0  0  0  0  0
  -30.4516  -12.4709   19.4545 C   0  0  0  0  0  0
  -29.5153  -12.5093   18.2253 C   0  0  0  0  0  0
  -28.0406  -12.3237   18.6414 C   0  0  0  0  0  0
  -27.6432  -13.2200   19.8437 C   0  0  2  0  0  0
  -28.6918  -13.1344   20.9728 C   0  0  0  0  0  0
  -25.2535  -13.8166   20.5671 C   0  0  0  0  0  0
  -24.1822  -13.0429   20.9208 C   0  0  0  0  0  0
  -24.6392  -11.6901   20.8745 C   0  0  0  0  0  0
  -23.9069  -10.4288   21.0412 C   0  0  0  0  0  0
  -24.3624   -9.4204   21.9188 C   0  0  0  0  0  0
  -23.6301   -8.2236   22.0754 C   0  0  0  0  0  0
  -22.4280   -8.0281   21.3547 C   0  0  0  0  0  0
  -21.9914   -9.0248   20.4644 C   0  0  0  0  0  0
  -22.7243  -10.2126   20.3058 C   0  0  0  0  0  0
  -21.6842   -6.0742   22.5289 C   0  0  0  0  0  0
  -21.4004   -6.5643   23.8226 C   0  0  0  0  0  0
  -21.3659   -5.6793   24.9185 C   0  0  0  0  0  0
  -21.6047   -4.3055   24.7224 C   0  0  0  0  0  0
  -21.8823   -3.8153   23.4344 C   0  0  0  0  0  0
  -21.9185   -4.6972   22.3404 C   0  0  0  0  0  0
  -22.7848  -13.5223   21.1857 C   0  0  0  0  0  0
  -22.1661   -4.2162   21.0981 F   0  0  0  0  0  0
  -21.5629   -3.4537   25.7734 F   0  0  0  0  0  0
  -29.9866  -13.5150   20.3913 N   0  0  0  0  0  0
  -26.2945  -12.9342   20.3234 N   0  0  0  0  0  0
  -25.9316  -11.6499   20.5727 N   0  0  0  0  0  0
  -22.0469  -12.8230   22.0412 N   0  0  0  0  0  0
  -25.4212  -15.1893   20.4077 N   0  0  0  0  0  0
  -31.7695  -14.9002   20.2235 O   0  0  0  0  0  0
  -21.6635   -6.8883   21.4252 O   0  0  0  0  0  0
  -22.3540  -14.5524   20.6688 O   0  0  0  0  0  0
  -24.6317  -31.8523   23.1955 C   0  0  0  0  0  0
  -25.9128  -32.4748   23.8310 C   0  0  1  0  0  0
  -27.2274  -27.2538   20.1426 C   0  0  0  0  0  0
  -25.5924  -33.8550   24.2238 N   0  0  0  0  0  0
  -23.4301  -30.4720   21.5379 C   0  0  2  0  0  0
  -24.8802  -28.9101   20.1172 C   0  0  0  0  0  0
  -22.7515  -29.4577   22.4902 C   0  0  0  0  0  0
  -18.0289  -28.1399   22.8477 C   0  0  0  0  0  0
  -24.1488  -36.7282   23.2639 C   0  0  0  0  0  0
  -25.9756  -30.7657   21.3734 C   0  0  0  0  0  0
  -26.0520  -29.3842   20.7219 C   0  0  0  0  0  0
  -27.2322  -28.5710   20.7151 C   0  0  0  0  0  0
  -26.0314  -26.8380   19.5236 C   0  0  0  0  0  0
  -24.8743  -27.6447   19.5072 C   0  0  0  0  0  0
  -23.6521  -29.8004   20.1560 C   0  0  0  0  0  0
  -25.4120  -36.3065   24.0316 C   0  0  1  0  0  0
  -20.5896  -28.3701   23.1275 C   0  0  2  0  0  0
  -20.6771  -26.9414   22.5417 C   0  0  0  0  0  0
  -19.5745  -26.6383   21.5224 C   0  0  0  0  0  0
  -18.1927  -26.7937   22.1628 C   0  0  0  0  0  0
  -19.1544  -28.8867   23.2867 C   0  0  0  0  0  0
  -18.9463  -30.1475   23.8879 C   0  0  0  0  0  0
  -17.6463  -30.6591   24.0571 C   0  0  0  0  0  0
  -25.9049  -34.9439   23.5080 C   0  0  0  0  0  0
  -16.5349  -29.9087   23.6336 C   0  0  0  0  0  0
  -16.7272  -28.6518   23.0338 C   0  0  0  0  0  0
  -26.4502  -31.6578   25.0698 C   0  0  0  0  0  0
  -25.3719  -31.3734   26.1413 C   0  0  0  0  0  0
  -27.0349  -30.2995   24.6182 C   0  0  0  0  0  0
  -27.6051  -32.4325   25.7472 C   0  0  0  0  0  0
  -27.5579  -37.1799   24.8462 C   0  0  0  0  0  0
  -21.4216  -29.3038   22.3667 N   0  0  0  0  0  0
  -26.4294  -37.3769   23.9404 N   0  0  0  0  0  0
  -24.6983  -31.0482   22.0927 N   0  0  0  0  0  0
  -23.4210  -28.8110   23.3003 O   0  0  0  0  0  0
  -28.3353  -26.3759   20.1273 O   0  0  0  0  0  0
  -26.5631  -34.8917   22.4652 O   0  0  0  0  0  0
  -23.5461  -32.1340   23.7247 O   0  0  0  0  0  0
  -31.3402  -18.2674   19.2929 C   0  0  0  0  0  0
  -30.7935  -20.4180   19.1080 C   0  0  0  0  0  0
  -31.7032  -19.4949   18.6729 C   0  0  0  0  0  0
  -30.2695  -18.4435   20.1258 C   0  0  0  0  0  0
  -30.3789  -17.4173   22.4481 C   0  0  0  0  0  0
  -27.5510  -23.2521   18.9387 C   0  0  0  0  0  0
  -32.7954  -18.7224   16.5599 C   0  0  0  0  0  0
  -34.1883  -19.4779   18.5093 C   0  0  0  0  0  0
  -32.8908  -21.1488   17.1746 C   0  0  0  0  0  0
  -28.9893  -22.3062   20.9028 C   0  0  0  0  0  0
  -28.7837  -20.7137   20.5557 C   0  0  0  0  0  0
  -28.2169  -24.9970   20.7218 C   0  0  0  0  0  0
  -29.7295  -17.3094   21.0611 C   0  0  2  0  0  0
  -28.6317  -23.6037   19.9711 C   0  0  2  0  0  0
  -32.8801  -19.7133   17.7340 C   0  0  0  0  0  0
  -29.9038  -19.8511   20.0043 N   0  0  0  0  0  0
  -29.6994  -15.8272   20.6514 N   0  0  0  0  0  0
  -31.4857  -12.6348   19.1464 H   0  0  0  0  0  0
  -30.4305  -11.4905   19.9330 H   0  0  0  0  0  0
  -29.8031  -11.7383   17.5090 H   0  0  0  0  0  0
  -29.6315  -13.4645   17.7098 H   0  0  0  0  0  0
  -27.9029  -11.2745   18.9048 H   0  0  0  0  0  0
  -27.3803  -12.5107   17.7935 H   0  0  0  0  0  0
  -27.6381  -14.2425   19.4657 H   0  0  0  0  0  0
  -28.7403  -12.1232   21.3793 H   0  0  0  0  0  0
  -28.4230  -13.7819   21.8092 H   0  0  0  0  0  0
  -25.2768   -9.5674   22.4764 H   0  0  0  0  0  0
  -24.0010   -7.4620   22.7468 H   0  0  0  0  0  0
  -21.0844   -8.8760   19.8947 H   0  0  0  0  0  0
  -22.3704  -10.9662   19.6166 H   0  0  0  0  0  0
  -21.1994   -7.6150   23.9732 H   0  0  0  0  0  0
  -21.1481   -6.0520   25.9091 H   0  0  0  0  0  0
  -22.0599   -2.7616   23.2834 H   0  0  0  0  0  0
  -22.4065  -11.9898   22.4827 H   0  0  0  0  0  0
  -21.1088  -13.1272   22.2585 H   0  0  0  0  0  0
  -24.6434  -15.8324   20.5124 H   0  0  0  0  0  0
  -26.2489  -15.6316   20.0310 H   0  0  0  0  0  0
  -26.7191  -32.5404   23.1054 H   0  0  0  0  0  0
  -25.0088  -33.9688   25.0397 H   0  0  0  0  0  0
  -22.7266  -31.2936   21.3877 H   0  0  0  0  0  0
  -23.3752  -35.9612   23.3295 H   0  0  0  0  0  0
  -24.3580  -36.8913   22.2053 H   0  0  0  0  0  0
  -23.7237  -37.6477   23.6675 H   0  0  0  0  0  0
  -26.1096  -31.5237   20.6003 H   0  0  0  0  0  0
  -26.8548  -30.8226   22.0039 H   0  0  0  0  0  0
  -28.1366  -28.9331   21.1833 H   0  0  0  0  0  0
  -25.9850  -25.8650   19.0561 H   0  0  0  0  0  0
  -23.9778  -27.2753   19.0289 H   0  0  0  0  0  0
  -23.7841  -30.5740   19.3987 H   0  0  0  0  0  0
  -22.7704  -29.2357   19.8464 H   0  0  0  0  0  0
  -25.1313  -36.1903   25.0809 H   0  0  0  0  0  0
  -20.9995  -28.3263   24.1395 H   0  0  0  0  0  0
  -20.5681  -26.2302   23.3620 H   0  0  0  0  0  0
  -21.6636  -26.7430   22.1216 H   0  0  0  0  0  0
  -19.6898  -25.6295   21.1253 H   0  0  0  0  0  0
  -19.6686  -27.3194   20.6756 H   0  0  0  0  0  0
  -17.4206  -26.6692   21.4022 H   0  0  0  0  0  0
  -18.0311  -26.0090   22.9030 H   0  0  0  0  0  0
  -19.7934  -30.7307   24.2229 H   0  0  0  0  0  0
  -17.5001  -31.6263   24.5184 H   0  0  0  0  0  0
  -15.5346  -30.2983   23.7667 H   0  0  0  0  0  0
  -15.8673  -28.0839   22.7035 H   0  0  0  0  0  0
  -24.5917  -30.7056   25.7745 H   0  0  0  0  0  0
  -24.8885  -32.2904   26.4786 H   0  0  0  0  0  0
  -25.8028  -30.8955   27.0218 H   0  0  0  0  0  0
  -26.2926  -29.6742   24.1206 H   0  0  0  0  0  0
  -27.4035  -29.7258   25.4695 H   0  0  0  0  0  0
  -27.8803  -30.4273   23.9419 H   0  0  0  0  0  0
  -27.2657  -33.3645   26.2004 H   0  0  0  0  0  0
  -28.3883  -32.6848   25.0309 H   0  0  0  0  0  0
  -28.0695  -31.8475   26.5422 H   0  0  0  0  0  0
  -28.2594  -38.0101   24.7519 H   0  0  0  0  0  0
  -28.1079  -36.2632   24.6284 H   0  0  0  0  0  0
  -27.2295  -37.1433   25.8865 H   0  0  0  0  0  0
  -20.9398  -29.8781   21.6896 H   0  0  0  0  0  0
  -26.0162  -38.2833   24.1426 H   0  0  0  0  0  0
  -31.8612  -17.3274   19.1717 H   0  0  0  0  0  0
  -30.7030  -21.4676   18.8607 H   0  0  0  0  0  0
  -30.2282  -18.4101   22.8719 H   0  0  0  0  0  0
  -31.4536  -17.2412   22.3939 H   0  0  0  0  0  0
  -29.9560  -16.6957   23.1483 H   0  0  0  0  0  0
  -27.8553  -22.4146   18.3103 H   0  0  0  0  0  0
  -27.3565  -24.0951   18.2766 H   0  0  0  0  0  0
  -26.6111  -22.9862   19.4230 H   0  0  0  0  0  0
  -32.8373  -17.6881   16.9017 H   0  0  0  0  0  0
  -33.6193  -18.8648   15.8595 H   0  0  0  0  0  0
  -31.8655  -18.8446   16.0035 H   0  0  0  0  0  0
  -34.2458  -18.4618   18.9013 H   0  0  0  0  0  0
  -34.2734  -20.1594   19.3570 H   0  0  0  0  0  0
  -35.0623  -19.6333   17.8756 H   0  0  0  0  0  0
  -31.9819  -21.3682   16.6136 H   0  0  0  0  0  0
  -33.7336  -21.3058   16.5005 H   0  0  0  0  0  0
  -32.9769  -21.8887   17.9709 H   0  0  0  0  0  0
  -29.9970  -22.4377   21.2980 H   0  0  0  0  0  0
  -28.3586  -22.4497   21.7805 H   0  0  0  0  0  0
  -27.9279  -20.6017   19.8904 H   0  0  0  0  0  0
  -28.4747  -20.2251   21.4804 H   0  0  0  0  0  0
  -28.8367  -25.0508   21.6171 H   0  0  0  0  0  0
  -27.2075  -24.8732   21.1165 H   0  0  0  0  0  0
  -28.6734  -17.5386   21.2127 H   0  0  0  0  0  0
  -29.5414  -23.8178   19.4082 H   0  0  0  0  0  0
  -28.7531  -15.4824   20.6703 H   0  0  0  0  0  0
  1 25  1  0  0  0
  1 30  2  0  0  0
  1 87  1  0  0  0
  2  3  1  0  0  0
  2 25  1  0  0  0
  2 88  1  0  0  0
  2 89  1  0  0  0
  3  4  1  0  0  0
  3 90  1  0  0  0
  3 91  1  0  0  0
  4  5  1  0  0  0
  4 92  1  0  0  0
  4 93  1  0  0  0
  5  6  1  0  0  0
  5 26  1  0  0  0
  5 94  1  0  0  0
  6 25  1  0  0  0
  6 95  1  0  0  0
  6 96  1  0  0  0
  7  8  2  0  0  0
  7 26  1  0  0  0
  7 29  1  0  0  0
  8  9  1  0  0  0
  8 22  1  0  0  0
  9 10  1  0  0  0
  9 27  2  0  0  0
 10 11  2  0  0  0
 10 15  1  0  0  0
 11 12  1  0  0  0
 11 97  1  0  0  0
 12 13  2  0  0  0
 12 98  1  0  0  0
 13 14  1  0  0  0
 13 31  1  0  0  0
 14 15  2  0  0  0
 14 99  1  0  0  0
 15100  1  0  0  0
 16 17  2  0  0  0
 16 21  1  0  0  0
 16 31  1  0  0  0
 17 18  1  0  0  0
 17101  1  0  0  0
 18 19  2  0  0  0
 18102  1  0  0  0
 19 20  1  0  0  0
 19 24  1  0  0  0
 20 21  2  0  0  0
 20103  1  0  0  0
 21 23  1  0  0  0
 22 28  1  0  0  0
 22 32  2  0  0  0
 26 27  1  0  0  0
 28104  1  0  0  0
 28105  1  0  0  0
 29106  1  0  0  0
 29107  1  0  0  0
 33 34  1  0  0  0
 33 66  1  0  0  0
 33 70  2  0  0  0
 34 36  1  0  0  0
 34 59  1  0  0  0
 34108  1  0  0  0
 35 44  2  0  0  0
 35 45  1  0  0  0
 35 68  1  0  0  0
 36 56  1  0  0  0
 36109  1  0  0  0
 37 39  1  0  0  0
 37 47  1  0  0  0
 37 66  1  0  0  0
 37110  1  0  0  0
 38 43  2  0  0  0
 38 46  1  0  0  0
 38 47  1  0  0  0
 39 64  1  0  0  0
 39 67  2  0  0  0
 40 52  1  0  0  0
 40 53  2  0  0  0
 40 58  1  0  0  0
 41111  1  0  0  0
 41112  1  0  0  0
 41113  1  0  0  0
 41 48  1  0  0  0
 42 43  1  0  0  0
 42 66  1  0  0  0
 42114  1  0  0  0
 42115  1  0  0  0
 43 44  1  0  0  0
 44116  1  0  0  0
 45 46  2  0  0  0
 45117  1  0  0  0
 46118  1  0  0  0
 47119  1  0  0  0
 47120  1  0  0  0
 48 56  1  0  0  0
 48 65  1  0  0  0
 48121  1  0  0  0
 49 50  1  0  0  0
 49 53  1  0  0  0
 49 64  1  0  0  0
 49122  1  0  0  0
 50 51  1  0  0  0
 50123  1  0  0  0
 50124  1  0  0  0
 51 52  1  0  0  0
 51125  1  0  0  0
 51126  1  0  0  0
 52127  1  0  0  0
 52128  1  0  0  0
 53 54  1  0  0  0
 54 55  2  0  0  0
 54129  1  0  0  0
 55 57  1  0  0  0
 55130  1  0  0  0
 56 69  2  0  0  0
 57 58  2  0  0  0
 57131  1  0  0  0
 58132  1  0  0  0
 59 60  1  0  0  0
 59 61  1  0  0  0
 59 62  1  0  0  0
 60133  1  0  0  0
 60134  1  0  0  0
 60135  1  0  0  0
 61136  1  0  0  0
 61137  1  0  0  0
 61138  1  0  0  0
 62139  1  0  0  0
 62140  1  0  0  0
 62141  1  0  0  0
 63 65  1  0  0  0
 63142  1  0  0  0
 63143  1  0  0  0
 63144  1  0  0  0
 64145  1  0  0  0
 65146  1  0  0  0
 68 82  1  0  0  0
 71 73  1  0  0  0
 71 74  2  0  0  0
 71147  1  0  0  0
 72 73  2  0  0  0
 72 86  1  0  0  0
 72148  1  0  0  0
 73 85  1  0  0  0
 74 83  1  0  0  0
 74 86  1  0  0  0
 75149  1  0  0  0
 75150  1  0  0  0
 75151  1  0  0  0
 75 83  1  0  0  0
 76152  1  0  0  0
 76153  1  0  0  0
 76154  1  0  0  0
 76 84  1  0  0  0
 77155  1  0  0  0
 77156  1  0  0  0
 77157  1  0  0  0
 77 85  1  0  0  0
 78 85  1  0  0  0
 78158  1  0  0  0
 78159  1  0  0  0
 78160  1  0  0  0
 79 85  1  0  0  0
 79161  1  0  0  0
 79162  1  0  0  0
 79163  1  0  0  0
 80 81  1  0  0  0
 80 84  1  0  0  0
 80164  1  0  0  0
 80165  1  0  0  0
 81 86  1  0  0  0
 81166  1  0  0  0
 81167  1  0  0  0
 82 84  1  0  0  0
 82168  1  0  0  0
 82169  1  0  0  0
 83 87  1  0  0  0
 83170  1  0  0  0
 84171  1  0  0  0
 87172  1  0  0  0
M  ISO  4   1 100  68 101  82 101  87 100
M  END
> <chiral flag>
0

> <version>
0

> <s_m_source_file>
/data/baiqing/PycharmProjects/Reinvent-master-3.2/result/LINK_invent/BTK/process_docking_weight1_custom_sum_contain_oxygen_bond_distance_aromatic_linkinvent_7_9_3/rearranged_h_0083.sdf

> <i_m_source_file_index>
52

> <r_mmod_Potential_Energy-OPLS-2005>
183.557907104492

> <r_mmod_Stretch_Energy-OPLS-2005>
139.282638549805

> <r_mmod_Bend_Energy-OPLS-2005>
239.600936889648

> <r_mmod_Torsional_Energy-OPLS-2005>
255.101211547852

> <r_mmod_Improper_Torsional_Energy-OPLS-2005>
5.30432987213135

> <r_mmod_Van_der_Waal_Energy-OPLS-2005>
101.602088928223

> <r_mmod_Electrostatic_Energy-OPLS-2005>
-445.197235107422

> <r_mmod_Solvation_Energy-OPLS-2005>
-202.363586425781

> <b_mmod_Minimization_Converged-OPLS-2005>
0

> <r_mmod_RMS_Derivative-OPLS-2005>
1.43135452270508

$$$$
52
                    3D
 Structure written by MMmdl.
172180  0  0  1  0            999 V2000
  -30.6348  -14.5307   20.5674 C   0  0  0  0  0  0
  -30.4370  -12.3451   19.4216 C   0  0  0  0  0  0
  -29.5024  -12.5331   18.2065 C   0  0  0  0  0  0
  -28.0207  -12.3770   18.6112 C   0  0  0  0  0  0
  -27.6622  -13.1996   19.8767 C   0  0  2  0  0  0
  -28.7047  -12.9639   20.9924 C   0  0  0  0  0  0
  -25.2605  -13.8146   20.5661 C   0  0  0  0  0  0
  -24.1835  -13.0444   20.9154 C   0  0  0  0  0  0
  -24.6367  -11.6897   20.8711 C   0  0  0  0  0  0
  -23.9020  -10.4291   21.0387 C   0  0  0  0  0  0
  -24.3579   -9.4217   21.9169 C   0  0  0  0  0  0
  -23.6280   -8.2243   22.0740 C   0  0  0  0  0  0
  -22.4272   -8.0260   21.3526 C   0  0  0  0  0  0
  -21.9884   -9.0233   20.4635 C   0  0  0  0  0  0
  -22.7190  -10.2128   20.3044 C   0  0  0  0  0  0
  -21.6859   -6.0729   22.5275 C   0  0  0  0  0  0
  -21.4007   -6.5637   23.8201 C   0  0  0  0  0  0
  -21.3656   -5.6788   24.9164 C   0  0  0  0  0  0
  -21.6050   -4.3052   24.7217 C   0  0  0  0  0  0
  -21.8816   -3.8143   23.4338 C   0  0  0  0  0  0
  -21.9183   -4.6959   22.3391 C   0  0  0  0  0  0
  -22.7856  -13.5261   21.1799 C   0  0  0  0  0  0
  -22.1656   -4.2135   21.0974 F   0  0  0  0  0  0
  -21.5630   -3.4536   25.7735 F   0  0  0  0  0  0
  -30.0276  -13.3141   20.4482 N   0  0  0  0  0  0
  -26.3020  -12.9283   20.3363 N   0  0  0  0  0  0
  -25.9293  -11.6453   20.5756 N   0  0  0  0  0  0
  -22.0462  -12.8293   22.0362 N   0  0  0  0  0  0
  -25.4405  -15.1847   20.4027 N   0  0  0  0  0  0
  -31.7601  -14.7589   20.1149 O   0  0  0  0  0  0
  -21.6637   -6.8867   21.4233 O   0  0  0  0  0  0
  -22.3559  -14.5561   20.6629 O   0  0  0  0  0  0
  -24.6218  -31.8626   23.2074 C   0  0  0  0  0  0
  -25.9085  -32.4804   23.8397 C   0  0  1  0  0  0
  -27.2328  -27.3893   20.1075 C   0  0  0  0  0  0
  -25.5913  -33.8611   24.2310 N   0  0  0  0  0  0
  -23.4132  -30.4850   21.5459 C   0  0  2  0  0  0
  -24.8597  -28.9448   20.1149 C   0  0  0  0  0  0
  -22.7451  -29.4627   22.4949 C   0  0  0  0  0  0
  -18.0282  -28.1347   22.8483 C   0  0  0  0  0  0
  -24.1466  -36.7282   23.2643 C   0  0  0  0  0  0
  -25.9485  -30.8196   21.3650 C   0  0  0  0  0  0
  -26.0248  -29.4513   20.7044 C   0  0  0  0  0  0
  -27.2207  -28.6861   20.6839 C   0  0  0  0  0  0
  -26.0490  -26.9070   19.5102 C   0  0  0  0  0  0
  -24.8684  -27.6736   19.5135 C   0  0  0  0  0  0
  -23.6250  -29.8177   20.1605 C   0  0  0  0  0  0
  -25.4099  -36.3100   24.0345 C   0  0  1  0  0  0
  -20.5880  -28.3640   23.1284 C   0  0  2  0  0  0
  -20.6740  -26.9366   22.5396 C   0  0  0  0  0  0
  -19.5718  -26.6362   21.5185 C   0  0  0  0  0  0
  -18.1907  -26.7891   22.1619 C   0  0  0  0  0  0
  -19.1538  -28.8817   23.2871 C   0  0  0  0  0  0
  -18.9474  -30.1416   23.8870 C   0  0  0  0  0  0
  -17.6473  -30.6557   24.0546 C   0  0  0  0  0  0
  -25.9039  -34.9465   23.5125 C   0  0  0  0  0  0
  -16.5359  -29.9059   23.6312 C   0  0  0  0  0  0
  -16.7271  -28.6476   23.0349 C   0  0  0  0  0  0
  -26.4491  -31.6616   25.0743 C   0  0  0  0  0  0
  -25.3773  -31.3759   26.1511 C   0  0  0  0  0  0
  -27.0330  -30.3057   24.6151 C   0  0  0  0  0  0
  -27.6035  -32.4372   25.7514 C   0  0  0  0  0  0
  -27.5568  -37.1792   24.8471 C   0  0  0  0  0  0
  -21.4169  -29.3021   22.3703 N   0  0  0  0  0  0
  -26.4267  -37.3804   23.9433 N   0  0  0  0  0  0
  -24.6792  -31.0713   22.0967 N   0  0  0  0  0  0
  -23.4208  -28.8164   23.3008 O   0  0  0  0  0  0
  -28.3648  -26.5889   20.1184 O   0  0  0  0  0  0
  -26.5585  -34.8930   22.4679 O   0  0  0  0  0  0
  -23.5391  -32.1358   23.7452 O   0  0  0  0  0  0
  -29.2736  -20.1041   20.6567 C   0  0  0  0  0  0
  -29.3332  -21.2401   18.7621 C   0  0  0  0  0  0
  -29.0056  -21.3891   20.0761 C   0  0  0  0  0  0
  -29.7021  -19.2091   19.6954 C   0  0  0  0  0  0
  -26.8885  -22.3890   20.9440 C   0  0  0  0  0  0
  -31.1622  -17.3712   22.0800 C   0  0  0  0  0  0
  -28.7202  -19.2118   16.3964 C   0  0  0  0  0  0
  -30.9544  -18.2449   16.9681 C   0  0  0  0  0  0
  -30.8073  -20.6154   16.3197 C   0  0  0  0  0  0
  -30.0007  -17.7037   19.7935 C   0  0  0  0  0  0
  -28.6506  -24.0164   20.0124 C   0  0  0  0  0  0
  -28.2273  -25.3081   20.8011 C   0  0  0  0  0  0
  -28.3948  -22.6408   20.7470 C   0  0  2  0  0  0
  -29.9796  -16.9817   21.1774 C   0  0  1  0  0  0
  -30.0618  -19.4989   17.0940 C   0  0  0  0  0  0
  -29.7700  -19.9406   18.4890 N   0  0  0  0  0  0
  -29.8372  -15.5009   21.0794 N   0  0  0  0  0  0
  -31.4777  -12.4764   19.1232 H   0  0  0  0  0  0
  -30.3630  -11.3280   19.8104 H   0  0  0  0  0  0
  -29.7583  -11.8219   17.4202 H   0  0  0  0  0  0
  -29.6555  -13.5267   17.7838 H   0  0  0  0  0  0
  -27.8325  -11.3192   18.7939 H   0  0  0  0  0  0
  -27.3711  -12.6587   17.7820 H   0  0  0  0  0  0
  -27.7101  -14.2505   19.5917 H   0  0  0  0  0  0
  -28.6959  -11.9171   21.3006 H   0  0  0  0  0  0
  -28.4546  -13.5256   21.8919 H   0  0  0  0  0  0
  -25.2715   -9.5728   22.4746 H   0  0  0  0  0  0
  -23.9987   -7.4658   22.7486 H   0  0  0  0  0  0
  -21.0799   -8.8761   19.8962 H   0  0  0  0  0  0
  -22.3628  -10.9671   19.6162 H   0  0  0  0  0  0
  -21.2008   -7.6147   23.9712 H   0  0  0  0  0  0
  -21.1480   -6.0511   25.9072 H   0  0  0  0  0  0
  -22.0599   -2.7606   23.2842 H   0  0  0  0  0  0
  -22.4036  -11.9988   22.4851 H   0  0  0  0  0  0
  -21.1080  -13.1373   22.2501 H   0  0  0  0  0  0
  -24.6817  -15.8511   20.4964 H   0  0  0  0  0  0
  -26.2970  -15.6100   20.0726 H   0  0  0  0  0  0
  -26.7168  -32.5476   23.1167 H   0  0  0  0  0  0
  -25.0108  -33.9775   25.0489 H   0  0  0  0  0  0
  -22.7026  -31.3012   21.4035 H   0  0  0  0  0  0
  -23.3738  -35.9606   23.3315 H   0  0  0  0  0  0
  -24.3543  -36.8880   22.2053 H   0  0  0  0  0  0
  -23.7201  -37.6487   23.6643 H   0  0  0  0  0  0
  -26.0733  -31.5928   20.6046 H   0  0  0  0  0  0
  -26.8330  -30.8591   21.9903 H   0  0  0  0  0  0
  -28.1244  -29.0768   21.1305 H   0  0  0  0  0  0
  -26.0412  -25.9277   19.0518 H   0  0  0  0  0  0
  -23.9723  -27.2735   19.0589 H   0  0  0  0  0  0
  -23.7454  -30.5916   19.4013 H   0  0  0  0  0  0
  -22.7479  -29.2427   19.8561 H   0  0  0  0  0  0
  -25.1276  -36.1950   25.0838 H   0  0  0  0  0  0
  -20.9977  -28.3195   24.1407 H   0  0  0  0  0  0
  -20.5563  -26.2261   23.3596 H   0  0  0  0  0  0
  -21.6615  -26.7334   22.1237 H   0  0  0  0  0  0
  -19.6853  -25.6274   21.1215 H   0  0  0  0  0  0
  -19.6653  -27.3166   20.6709 H   0  0  0  0  0  0
  -17.4167  -26.6632   21.4035 H   0  0  0  0  0  0
  -18.0306  -26.0028   22.9012 H   0  0  0  0  0  0
  -19.7960  -30.7223   24.2229 H   0  0  0  0  0  0
  -17.5044  -31.6230   24.5148 H   0  0  0  0  0  0
  -15.5363  -30.2965   23.7626 H   0  0  0  0  0  0
  -15.8671  -28.0785   22.7082 H   0  0  0  0  0  0
  -24.5905  -30.7136   25.7886 H   0  0  0  0  0  0
  -24.9026  -32.2933   26.5002 H   0  0  0  0  0  0
  -25.8159  -30.8918   27.0242 H   0  0  0  0  0  0
  -26.2888  -29.6821   24.1181 H   0  0  0  0  0  0
  -27.4055  -29.7298   25.4628 H   0  0  0  0  0  0
  -27.8739  -30.4371   23.9339 H   0  0  0  0  0  0
  -27.2610  -33.3652   26.2118 H   0  0  0  0  0  0
  -28.3837  -32.6990   25.0349 H   0  0  0  0  0  0
  -28.0706  -31.8497   26.5427 H   0  0  0  0  0  0
  -28.2598  -38.0073   24.7515 H   0  0  0  0  0  0
  -28.1046  -36.2613   24.6293 H   0  0  0  0  0  0
  -27.2284  -37.1426   25.8869 H   0  0  0  0  0  0
  -20.9316  -29.8802   21.6981 H   0  0  0  0  0  0
  -26.0142  -38.2872   24.1470 H   0  0  0  0  0  0
  -29.1073  -19.8370   21.6923 H   0  0  0  0  0  0
  -29.2429  -21.9707   17.9713 H   0  0  0  0  0  0
  -26.7100  -21.4439   21.4601 H   0  0  0  0  0  0
  -26.3683  -22.3419   19.9862 H   0  0  0  0  0  0
  -26.4135  -23.1637   21.5425 H   0  0  0  0  0  0
  -31.1981  -18.4481   22.2433 H   0  0  0  0  0  0
  -32.1169  -17.0795   21.6408 H   0  0  0  0  0  0
  -31.0795  -16.9032   23.0621 H   0  0  0  0  0  0
  -28.8684  -18.8663   15.3722 H   0  0  0  0  0  0
  -28.0952  -20.1044   16.3527 H   0  0  0  0  0  0
  -28.1563  -18.4417   16.9245 H   0  0  0  0  0  0
  -31.2569  -18.0809   15.9330 H   0  0  0  0  0  0
  -30.4363  -17.3289   17.2449 H   0  0  0  0  0  0
  -31.8706  -18.3353   17.5515 H   0  0  0  0  0  0
  -31.1372  -20.2718   15.3383 H   0  0  0  0  0  0
  -31.6937  -20.9525   16.8603 H   0  0  0  0  0  0
  -30.1842  -21.4872   16.1271 H   0  0  0  0  0  0
  -30.9933  -17.5078   19.3952 H   0  0  0  0  0  0
  -29.2881  -17.1871   19.1497 H   0  0  0  0  0  0
  -29.7161  -24.0962   19.7971 H   0  0  0  0  0  0
  -28.1464  -24.0118   19.0450 H   0  0  0  0  0  0
  -28.8384  -25.3709   21.7014 H   0  0  0  0  0  0
  -27.2111  -25.1851   21.1716 H   0  0  0  0  0  0
  -28.8496  -22.7034   21.7367 H   0  0  0  0  0  0
  -29.0685  -17.3077   21.6814 H   0  0  0  0  0  0
  -28.9445  -15.1497   21.3954 H   0  0  0  0  0  0
  1 25  1  0  0  0
  1 30  2  0  0  0
  1 87  1  0  0  0
  2  3  1  0  0  0
  2 25  1  0  0  0
  2 88  1  0  0  0
  2 89  1  0  0  0
  3  4  1  0  0  0
  3 90  1  0  0  0
  3 91  1  0  0  0
  4  5  1  0  0  0
  4 92  1  0  0  0
  4 93  1  0  0  0
  5  6  1  0  0  0
  5 26  1  0  0  0
  5 94  1  0  0  0
  6 25  1  0  0  0
  6 95  1  0  0  0
  6 96  1  0  0  0
  7  8  2  0  0  0
  7 26  1  0  0  0
  7 29  1  0  0  0
  8  9  1  0  0  0
  8 22  1  0  0  0
  9 10  1  0  0  0
  9 27  2  0  0  0
 10 11  2  0  0  0
 10 15  1  0  0  0
 11 12  1  0  0  0
 11 97  1  0  0  0
 12 13  2  0  0  0
 12 98  1  0  0  0
 13 14  1  0  0  0
 13 31  1  0  0  0
 14 15  2  0  0  0
 14 99  1  0  0  0
 15100  1  0  0  0
 16 17  2  0  0  0
 16 21  1  0  0  0
 16 31  1  0  0  0
 17 18  1  0  0  0
 17101  1  0  0  0
 18 19  2  0  0  0
 18102  1  0  0  0
 19 20  1  0  0  0
 19 24  1  0  0  0
 20 21  2  0  0  0
 20103  1  0  0  0
 21 23  1  0  0  0
 22 28  1  0  0  0
 22 32  2  0  0  0
 26 27  1  0  0  0
 28104  1  0  0  0
 28105  1  0  0  0
 29106  1  0  0  0
 29107  1  0  0  0
 33 34  1  0  0  0
 33 66  1  0  0  0
 33 70  2  0  0  0
 34 36  1  0  0  0
 34 59  1  0  0  0
 34108  1  0  0  0
 35 44  2  0  0  0
 35 45  1  0  0  0
 35 68  1  0  0  0
 36 56  1  0  0  0
 36109  1  0  0  0
 37 39  1  0  0  0
 37 47  1  0  0  0
 37 66  1  0  0  0
 37110  1  0  0  0
 38 43  2  0  0  0
 38 46  1  0  0  0
 38 47  1  0  0  0
 39 64  1  0  0  0
 39 67  2  0  0  0
 40 52  1  0  0  0
 40 53  2  0  0  0
 40 58  1  0  0  0
 41111  1  0  0  0
 41112  1  0  0  0
 41113  1  0  0  0
 41 48  1  0  0  0
 42 43  1  0  0  0
 42 66  1  0  0  0
 42114  1  0  0  0
 42115  1  0  0  0
 43 44  1  0  0  0
 44116  1  0  0  0
 45 46  2  0  0  0
 45117  1  0  0  0
 46118  1  0  0  0
 47119  1  0  0  0
 47120  1  0  0  0
 48 56  1  0  0  0
 48 65  1  0  0  0
 48121  1  0  0  0
 49 50  1  0  0  0
 49 53  1  0  0  0
 49 64  1  0  0  0
 49122  1  0  0  0
 50 51  1  0  0  0
 50123  1  0  0  0
 50124  1  0  0  0
 51 52  1  0  0  0
 51125  1  0  0  0
 51126  1  0  0  0
 52127  1  0  0  0
 52128  1  0  0  0
 53 54  1  0  0  0
 54 55  2  0  0  0
 54129  1  0  0  0
 55 57  1  0  0  0
 55130  1  0  0  0
 56 69  2  0  0  0
 57 58  2  0  0  0
 57131  1  0  0  0
 58132  1  0  0  0
 59 60  1  0  0  0
 59 61  1  0  0  0
 59 62  1  0  0  0
 60133  1  0  0  0
 60134  1  0  0  0
 60135  1  0  0  0
 61136  1  0  0  0
 61137  1  0  0  0
 61138  1  0  0  0
 62139  1  0  0  0
 62140  1  0  0  0
 62141  1  0  0  0
 63 65  1  0  0  0
 63142  1  0  0  0
 63143  1  0  0  0
 63144  1  0  0  0
 64145  1  0  0  0
 65146  1  0  0  0
 68 82  1  0  0  0
 71 73  1  0  0  0
 71 74  2  0  0  0
 71147  1  0  0  0
 72 73  2  0  0  0
 72 86  1  0  0  0
 72148  1  0  0  0
 73 83  1  0  0  0
 74 80  1  0  0  0
 74 86  1  0  0  0
 75149  1  0  0  0
 75150  1  0  0  0
 75151  1  0  0  0
 75 83  1  0  0  0
 76152  1  0  0  0
 76153  1  0  0  0
 76154  1  0  0  0
 76 84  1  0  0  0
 77155  1  0  0  0
 77156  1  0  0  0
 77157  1  0  0  0
 77 85  1  0  0  0
 78 85  1  0  0  0
 78158  1  0  0  0
 78159  1  0  0  0
 78160  1  0  0  0
 79 85  1  0  0  0
 79161  1  0  0  0
 79162  1  0  0  0
 79163  1  0  0  0
 80 84  1  0  0  0
 80164  1  0  0  0
 80165  1  0  0  0
 81 82  1  0  0  0
 81 83  1  0  0  0
 81166  1  0  0  0
 81167  1  0  0  0
 82168  1  0  0  0
 82169  1  0  0  0
 83170  1  0  0  0
 84 87  1  0  0  0
 84171  1  0  0  0
 85 86  1  0  0  0
 87172  1  0  0  0
M  ISO  4   1 100  68 101  82 101  87 100
M  END
> <chiral flag>
0

> <version>
0

> <s_m_source_file>
/data/baiqing/PycharmProjects/Reinvent-master-3.2/result/LINK_invent/BTK/process_docking_weight1_custom_sum_contain_oxygen_bond_distance_aromatic_linkinvent_7_9_3/rearranged_h_0083.sdf

> <i_m_source_file_index>
53

> <r_mmod_Potential_Energy-OPLS-2005>
-17.3651371002197

> <r_mmod_Stretch_Energy-OPLS-2005>
57.350341796875

> <r_mmod_Bend_Energy-OPLS-2005>
133.808654785156

> <r_mmod_Torsional_Energy-OPLS-2005>
255.15739440918

> <r_mmod_Improper_Torsional_Energy-OPLS-2005>
4.74291467666626

> <r_mmod_Van_der_Waal_Energy-OPLS-2005>
130.612197875977

> <r_mmod_Electrostatic_Energy-OPLS-2005>
-428.06201171875

> <r_mmod_Solvation_Energy-OPLS-2005>
-193.264984130859

> <b_mmod_Minimization_Converged-OPLS-2005>
0

> <r_mmod_RMS_Derivative-OPLS-2005>
3.26300477981567

$$$$
53
                    3D
 Structure written by MMmdl.
162170  0  0  1  0            999 V2000
  -30.6068  -14.7535   20.5195 C   0  0  0  0  0  0
  -30.4481  -12.4813   19.4751 C   0  0  0  0  0  0
  -29.5180  -12.5165   18.2431 C   0  0  0  0  0  0
  -28.0484  -12.3207   18.6632 C   0  0  0  0  0  0
  -27.6532  -13.2169   19.8669 C   0  0  2  0  0  0
  -28.6969  -13.1426   21.0040 C   0  0  0  0  0  0
  -25.2483  -13.7959   20.5210 C   0  0  0  0  0  0
  -24.1835  -13.0345   20.9074 C   0  0  0  0  0  0
  -24.6452  -11.6823   20.8861 C   0  0  0  0  0  0
  -23.9099  -10.4247   21.0485 C   0  0  0  0  0  0
  -24.3630   -9.4149   21.9248 C   0  0  0  0  0  0
  -23.6282   -8.2216   22.0811 C   0  0  0  0  0  0
  -22.4270   -8.0277   21.3576 C   0  0  0  0  0  0
  -21.9915   -9.0270   20.4697 C   0  0  0  0  0  0
  -22.7281  -10.2126   20.3112 C   0  0  0  0  0  0
  -21.6840   -6.0734   22.5284 C   0  0  0  0  0  0
  -21.4003   -6.5646   23.8214 C   0  0  0  0  0  0
  -21.3654   -5.6800   24.9177 C   0  0  0  0  0  0
  -21.6038   -4.3064   24.7217 C   0  0  0  0  0  0
  -21.8826   -3.8157   23.4346 C   0  0  0  0  0  0
  -21.9196   -4.6972   22.3398 C   0  0  0  0  0  0
  -22.7882  -13.5206   21.1756 C   0  0  0  0  0  0
  -22.1666   -4.2160   21.0979 F   0  0  0  0  0  0
  -21.5626   -3.4544   25.7736 F   0  0  0  0  0  0
  -29.9928  -13.5221   20.4274 N   0  0  0  0  0  0
  -26.3029  -12.9236   20.3339 N   0  0  0  0  0  0
  -25.9417  -11.6423   20.5998 N   0  0  0  0  0  0
  -22.0520  -12.8263   22.0333 N   0  0  0  0  0  0
  -25.4013  -15.1489   20.2701 N   0  0  0  0  0  0
  -31.7779  -14.8823   20.1482 O   0  0  0  0  0  0
  -21.6643   -6.8872   21.4236 O   0  0  0  0  0  0
  -22.3602  -14.5530   20.6606 O   0  0  0  0  0  0
  -24.6364  -31.8498   23.1929 C   0  0  0  0  0  0
  -25.9163  -32.4750   23.8262 C   0  0  1  0  0  0
  -27.2173  -27.2400   20.1088 C   0  0  0  0  0  0
  -25.5947  -33.8542   24.2210 N   0  0  0  0  0  0
  -23.4327  -30.4775   21.5389 C   0  0  2  0  0  0
  -24.8772  -28.9238   20.1047 C   0  0  0  0  0  0
  -22.7490  -29.4650   22.4894 C   0  0  0  0  0  0
  -18.0290  -28.1318   22.8530 C   0  0  0  0  0  0
  -24.1488  -36.7288   23.2633 C   0  0  0  0  0  0
  -25.9805  -30.7595   21.3715 C   0  0  0  0  0  0
  -26.0513  -29.3781   20.7157 C   0  0  0  0  0  0
  -27.2256  -28.5526   20.6987 C   0  0  0  0  0  0
  -26.0109  -26.8625   19.4672 C   0  0  0  0  0  0
  -24.8642  -27.6751   19.4663 C   0  0  0  0  0  0
  -23.6497  -29.8138   20.1527 C   0  0  0  0  0  0
  -25.4125  -36.3056   24.0311 C   0  0  1  0  0  0
  -20.5887  -28.3721   23.1145 C   0  0  2  0  0  0
  -20.6821  -26.9444   22.5295 C   0  0  0  0  0  0
  -19.5703  -26.6260   21.5228 C   0  0  0  0  0  0
  -18.1929  -26.7830   22.1773 C   0  0  0  0  0  0
  -19.1533  -28.8849   23.2788 C   0  0  0  0  0  0
  -18.9450  -30.1461   23.8802 C   0  0  0  0  0  0
  -17.6437  -30.6559   24.0533 C   0  0  0  0  0  0
  -25.9058  -34.9440   23.5055 C   0  0  0  0  0  0
  -16.5335  -29.9006   23.6311 C   0  0  0  0  0  0
  -16.7258  -28.6425   23.0392 C   0  0  0  0  0  0
  -26.4508  -31.6578   25.0666 C   0  0  0  0  0  0
  -25.3700  -31.3750   26.1380 C   0  0  0  0  0  0
  -27.0375  -30.2991   24.6161 C   0  0  0  0  0  0
  -27.6062  -32.4326   25.7484 C   0  0  0  0  0  0
  -27.5580  -37.1790   24.8464 C   0  0  0  0  0  0
  -21.4199  -29.3074   22.3544 N   0  0  0  0  0  0
  -26.4290  -37.3778   23.9408 N   0  0  0  0  0  0
  -24.7029  -31.0492   22.0915 N   0  0  0  0  0  0
  -23.4176  -28.8219   23.3049 O   0  0  0  0  0  0
  -28.3073  -26.3267   20.1598 O   0  0  0  0  0  0
  -26.5689  -34.8938   22.4659 O   0  0  0  0  0  0
  -23.5520  -32.1375   23.7197 O   0  0  0  0  0  0
  -27.0668  -19.6872   19.9944 C   0  0  0  0  0  0
  -26.0776  -18.8406   20.5120 C   0  0  0  0  0  0
  -28.4255  -19.5800   20.3759 C   0  0  0  0  0  0
  -26.4975  -17.8646   21.4365 C   0  0  0  0  0  0
  -28.7537  -18.2344   20.8950 C   0  0  0  0  0  0
  -24.6268  -19.0628   20.1107 C   0  0  0  0  0  0
  -25.5694  -17.2176   22.4523 C   0  0  0  0  0  0
  -30.9287  -17.7647   22.1236 C   0  0  0  0  0  0
  -29.0580  -23.6098   20.2488 C   0  0  0  0  0  0
  -28.0570  -24.8559   19.8938 C   0  0  0  0  0  0
  -28.5075  -22.1021   19.9781 C   0  0  0  0  0  0
  -30.0879  -17.3769   20.8848 C   0  0  2  0  0  0
  -27.7899  -17.5006   21.5158 N   0  0  0  0  0  0
  -29.8405  -15.8544   20.8683 N   0  0  0  0  0  0
  -29.2132  -20.7758   20.2494 O   0  0  0  0  0  0
  -31.4864  -12.6176   19.1684 H   0  0  0  0  0  0
  -30.4148  -11.5017   19.9470 H   0  0  0  0  0  0
  -29.8052  -11.7369   17.5355 H   0  0  0  0  0  0
  -29.6304  -13.4667   17.7194 H   0  0  0  0  0  0
  -27.9158  -11.2694   18.9224 H   0  0  0  0  0  0
  -27.3796  -12.4965   17.8206 H   0  0  0  0  0  0
  -27.6576  -14.2411   19.4933 H   0  0  0  0  0  0
  -28.7549  -12.1408   21.4304 H   0  0  0  0  0  0
  -28.4247  -13.7998   21.8303 H   0  0  0  0  0  0
  -25.2762   -9.5626   22.4815 H   0  0  0  0  0  0
  -23.9998   -7.4600   22.7515 H   0  0  0  0  0  0
  -21.0857   -8.8810   19.8983 H   0  0  0  0  0  0
  -22.3764  -10.9678   19.6233 H   0  0  0  0  0  0
  -21.1993   -7.6153   23.9705 H   0  0  0  0  0  0
  -21.1461   -6.0539   25.9075 H   0  0  0  0  0  0
  -22.0605   -2.7614   23.2842 H   0  0  0  0  0  0
  -22.4147  -11.9909   22.4686 H   0  0  0  0  0  0
  -21.1161  -13.1335   22.2560 H   0  0  0  0  0  0
  -24.6328  -15.8006   20.3630 H   0  0  0  0  0  0
  -26.2684  -15.5854   19.9845 H   0  0  0  0  0  0
  -26.7267  -32.5380   23.1040 H   0  0  0  0  0  0
  -24.9990  -33.9657   25.0286 H   0  0  0  0  0  0
  -22.7329  -31.3031   21.3926 H   0  0  0  0  0  0
  -23.3742  -35.9617   23.3293 H   0  0  0  0  0  0
  -24.3554  -36.8936   22.2036 H   0  0  0  0  0  0
  -23.7249  -37.6487   23.6688 H   0  0  0  0  0  0
  -26.1219  -31.5147   20.5940 H   0  0  0  0  0  0
  -26.8603  -30.8095   22.0009 H   0  0  0  0  0  0
  -28.1289  -28.8995   21.1791 H   0  0  0  0  0  0
  -25.9202  -25.9118   18.9613 H   0  0  0  0  0  0
  -23.9683  -27.3269   18.9712 H   0  0  0  0  0  0
  -23.7764  -30.5904   19.3962 H   0  0  0  0  0  0
  -22.7665  -29.2490   19.8456 H   0  0  0  0  0  0
  -25.1300  -36.1896   25.0805 H   0  0  0  0  0  0
  -20.9920  -28.3338   24.1294 H   0  0  0  0  0  0
  -20.6022  -26.2318   23.3488 H   0  0  0  0  0  0
  -21.6606  -26.7649   22.0810 H   0  0  0  0  0  0
  -19.6831  -25.6141   21.1327 H   0  0  0  0  0  0
  -19.6540  -27.2972   20.6680 H   0  0  0  0  0  0
  -18.0440  -26.0080   22.9307 H   0  0  0  0  0  0
  -17.4127  -26.6526   21.4307 H   0  0  0  0  0  0
  -19.7943  -30.7375   24.1979 H   0  0  0  0  0  0
  -17.4988  -31.6273   24.5047 H   0  0  0  0  0  0
  -15.5331  -30.2893   23.7619 H   0  0  0  0  0  0
  -15.8673  -28.0730   22.7118 H   0  0  0  0  0  0
  -24.5871  -30.7126   25.7682 H   0  0  0  0  0  0
  -24.8903  -32.2939   26.4752 H   0  0  0  0  0  0
  -25.7953  -30.8941   27.0195 H   0  0  0  0  0  0
  -26.2950  -29.6740   24.1195 H   0  0  0  0  0  0
  -27.4094  -29.7261   25.4663 H   0  0  0  0  0  0
  -27.8807  -30.4307   23.9382 H   0  0  0  0  0  0
  -27.2651  -33.3633   26.2047 H   0  0  0  0  0  0
  -28.3876  -32.6882   25.0312 H   0  0  0  0  0  0
  -28.0734  -31.8457   26.5414 H   0  0  0  0  0  0
  -28.2586  -38.0093   24.7512 H   0  0  0  0  0  0
  -28.1082  -36.2622   24.6292 H   0  0  0  0  0  0
  -27.2288  -37.1448   25.8862 H   0  0  0  0  0  0
  -20.9499  -29.8599   21.6490 H   0  0  0  0  0  0
  -26.0153  -38.2835   24.1455 H   0  0  0  0  0  0
  -26.7285  -20.4863   19.3566 H   0  0  0  0  0  0
  -24.2968  -18.2395   19.4755 H   0  0  0  0  0  0
  -24.5049  -19.9705   19.5175 H   0  0  0  0  0  0
  -23.9564  -19.1509   20.9679 H   0  0  0  0  0  0
  -25.7259  -16.1448   22.5430 H   0  0  0  0  0  0
  -25.8161  -17.6203   23.4344 H   0  0  0  0  0  0
  -24.5125  -17.3916   22.2500 H   0  0  0  0  0  0
  -30.4042  -17.5891   23.0673 H   0  0  0  0  0  0
  -31.1783  -18.8252   22.1062 H   0  0  0  0  0  0
  -31.8732  -17.2201   22.1342 H   0  0  0  0  0  0
  -29.3133  -23.6814   21.3056 H   0  0  0  0  0  0
  -29.9887  -23.7461   19.6977 H   0  0  0  0  0  0
  -27.1175  -24.6023   20.3849 H   0  0  0  0  0  0
  -27.8465  -24.7728   18.8288 H   0  0  0  0  0  0
  -28.2215  -22.0838   18.9274 H   0  0  0  0  0  0
  -27.5739  -22.1110   20.5388 H   0  0  0  0  0  0
  -30.6511  -17.6339   19.9841 H   0  0  0  0  0  0
  -28.8811  -15.6596   21.1248 H   0  0  0  0  0  0
  1 25  1  0  0  0
  1 30  2  0  0  0
  1 84  1  0  0  0
  2  3  1  0  0  0
  2 25  1  0  0  0
  2 86  1  0  0  0
  2 87  1  0  0  0
  3  4  1  0  0  0
  3 88  1  0  0  0
  3 89  1  0  0  0
  4  5  1  0  0  0
  4 90  1  0  0  0
  4 91  1  0  0  0
  5  6  1  0  0  0
  5 26  1  0  0  0
  5 92  1  0  0  0
  6 25  1  0  0  0
  6 93  1  0  0  0
  6 94  1  0  0  0
  7  8  2  0  0  0
  7 26  1  0  0  0
  7 29  1  0  0  0
  8  9  1  0  0  0
  8 22  1  0  0  0
  9 10  1  0  0  0
  9 27  2  0  0  0
 10 11  2  0  0  0
 10 15  1  0  0  0
 11 12  1  0  0  0
 11 95  1  0  0  0
 12 13  2  0  0  0
 12 96  1  0  0  0
 13 14  1  0  0  0
 13 31  1  0  0  0
 14 15  2  0  0  0
 14 97  1  0  0  0
 15 98  1  0  0  0
 16 17  2  0  0  0
 16 21  1  0  0  0
 16 31  1  0  0  0
 17 18  1  0  0  0
 17 99  1  0  0  0
 18 19  2  0  0  0
 18100  1  0  0  0
 19 20  1  0  0  0
 19 24  1  0  0  0
 20 21  2  0  0  0
 20101  1  0  0  0
 21 23  1  0  0  0
 22 28  1  0  0  0
 22 32  2  0  0  0
 26 27  1  0  0  0
 28102  1  0  0  0
 28103  1  0  0  0
 29104  1  0  0  0
 29105  1  0  0  0
 33 34  1  0  0  0
 33 66  1  0  0  0
 33 70  2  0  0  0
 34 36  1  0  0  0
 34 59  1  0  0  0
 34106  1  0  0  0
 35 44  2  0  0  0
 35 45  1  0  0  0
 35 68  1  0  0  0
 36 56  1  0  0  0
 36107  1  0  0  0
 37 39  1  0  0  0
 37 47  1  0  0  0
 37 66  1  0  0  0
 37108  1  0  0  0
 38 43  2  0  0  0
 38 46  1  0  0  0
 38 47  1  0  0  0
 39 64  1  0  0  0
 39 67  2  0  0  0
 40 52  1  0  0  0
 40 53  2  0  0  0
 40 58  1  0  0  0
 41109  1  0  0  0
 41110  1  0  0  0
 41111  1  0  0  0
 41 48  1  0  0  0
 42 43  1  0  0  0
 42 66  1  0  0  0
 42112  1  0  0  0
 42113  1  0  0  0
 43 44  1  0  0  0
 44114  1  0  0  0
 45 46  2  0  0  0
 45115  1  0  0  0
 46116  1  0  0  0
 47117  1  0  0  0
 47118  1  0  0  0
 48 56  1  0  0  0
 48 65  1  0  0  0
 48119  1  0  0  0
 49 50  1  0  0  0
 49 53  1  0  0  0
 49 64  1  0  0  0
 49120  1  0  0  0
 50 51  1  0  0  0
 50121  1  0  0  0
 50122  1  0  0  0
 51 52  1  0  0  0
 51123  1  0  0  0
 51124  1  0  0  0
 52125  1  0  0  0
 52126  1  0  0  0
 53 54  1  0  0  0
 54 55  2  0  0  0
 54127  1  0  0  0
 55 57  1  0  0  0
 55128  1  0  0  0
 56 69  2  0  0  0
 57 58  2  0  0  0
 57129  1  0  0  0
 58130  1  0  0  0
 59 60  1  0  0  0
 59 61  1  0  0  0
 59 62  1  0  0  0
 60131  1  0  0  0
 60132  1  0  0  0
 60133  1  0  0  0
 61134  1  0  0  0
 61135  1  0  0  0
 61136  1  0  0  0
 62137  1  0  0  0
 62138  1  0  0  0
 62139  1  0  0  0
 63 65  1  0  0  0
 63140  1  0  0  0
 63141  1  0  0  0
 63142  1  0  0  0
 64143  1  0  0  0
 65144  1  0  0  0
 68 80  1  0  0  0
 71 72  2  0  0  0
 71 73  1  0  0  0
 71145  1  0  0  0
 72 74  1  0  0  0
 72 76  1  0  0  0
 73 75  2  0  0  0
 73 85  1  0  0  0
 74 77  1  0  0  0
 74 83  2  0  0  0
 75 82  1  0  0  0
 75 83  1  0  0  0
 76146  1  0  0  0
 76147  1  0  0  0
 76148  1  0  0  0
 77149  1  0  0  0
 77150  1  0  0  0
 77151  1  0  0  0
 78152  1  0  0  0
 78153  1  0  0  0
 78154  1  0  0  0
 78 82  1  0  0  0
 79 80  1  0  0  0
 79 81  1  0  0  0
 79155  1  0  0  0
 79156  1  0  0  0
 80157  1  0  0  0
 80158  1  0  0  0
 81 85  1  0  0  0
 81159  1  0  0  0
 81160  1  0  0  0
 82 84  1  0  0  0
 82161  1  0  0  0
 84162  1  0  0  0
M  ISO  4   1 100  68 101  80 101  84 100
M  END
> <chiral flag>
0

> <version>
0

> <s_m_source_file>
/data/baiqing/PycharmProjects/Reinvent-master-3.2/result/LINK_invent/BTK/process_docking_weight1_custom_sum_contain_oxygen_bond_distance_aromatic_linkinvent_7_9_3/rearranged_h_0083.sdf

> <i_m_source_file_index>
54

> <r_mmod_Potential_Energy-OPLS-2005>
70.3064422607422

> <r_mmod_Stretch_Energy-OPLS-2005>
153.346832275391

> <r_mmod_Bend_Energy-OPLS-2005>
222.262115478516

> <r_mmod_Torsional_Energy-OPLS-2005>
257.255310058594

> <r_mmod_Improper_Torsional_Energy-OPLS-2005>
4.1090145111084

> <r_mmod_Van_der_Waal_Energy-OPLS-2005>
160.284866333008

> <r_mmod_Electrostatic_Energy-OPLS-2005>
-615.323547363281

> <r_mmod_Solvation_Energy-OPLS-2005>
-206.453353881836

> <b_mmod_Minimization_Converged-OPLS-2005>
0

> <r_mmod_RMS_Derivative-OPLS-2005>
7.93195724487305

$$$$
54
                    3D
 Structure written by MMmdl.
184192  0  0  1  0            999 V2000
  -30.7093  -14.4716   20.5751 C   0  0  0  0  0  0
  -30.4162  -12.3023   19.4333 C   0  0  0  0  0  0
  -29.4929  -12.5114   18.2144 C   0  0  0  0  0  0
  -28.0153  -12.3711   18.6250 C   0  0  0  0  0  0
  -27.6639  -13.2096   19.8828 C   0  0  2  0  0  0
  -28.7053  -12.9909   21.0070 C   0  0  0  0  0  0
  -25.2575  -13.8162   20.5689 C   0  0  0  0  0  0
  -24.1832  -13.0444   20.9163 C   0  0  0  0  0  0
  -24.6384  -11.6901   20.8723 C   0  0  0  0  0  0
  -23.9045  -10.4300   21.0390 C   0  0  0  0  0  0
  -24.3587   -9.4222   21.9184 C   0  0  0  0  0  0
  -23.6269   -8.2256   22.0764 C   0  0  0  0  0  0
  -22.4265   -8.0275   21.3545 C   0  0  0  0  0  0
  -21.9906   -9.0235   20.4630 C   0  0  0  0  0  0
  -22.7223  -10.2121   20.3032 C   0  0  0  0  0  0
  -21.6855   -6.0721   22.5269 C   0  0  0  0  0  0
  -21.4017   -6.5630   23.8200 C   0  0  0  0  0  0
  -21.3664   -5.6787   24.9167 C   0  0  0  0  0  0
  -21.6048   -4.3052   24.7224 C   0  0  0  0  0  0
  -21.8819   -3.8132   23.4349 C   0  0  0  0  0  0
  -21.9195   -4.6947   22.3397 C   0  0  0  0  0  0
  -22.7853  -13.5236   21.1816 C   0  0  0  0  0  0
  -22.1661   -4.2129   21.0976 F   0  0  0  0  0  0
  -21.5638   -3.4536   25.7740 F   0  0  0  0  0  0
  -30.0420  -13.2882   20.4623 N   0  0  0  0  0  0
  -26.3035  -12.9344   20.3393 N   0  0  0  0  0  0
  -25.9321  -11.6497   20.5779 N   0  0  0  0  0  0
  -22.0479  -12.8211   22.0344 N   0  0  0  0  0  0
  -25.4312  -15.1876   20.4112 N   0  0  0  0  0  0
  -31.7825  -14.6814   20.0052 O   0  0  0  0  0  0
  -21.6643   -6.8860   21.4231 O   0  0  0  0  0  0
  -22.3550  -14.5566   20.6693 O   0  0  0  0  0  0
  -24.6161  -31.8691   23.2103 C   0  0  0  0  0  0
  -25.9038  -32.4849   23.8407 C   0  0  1  0  0  0
  -27.2104  -27.3966   20.0886 C   0  0  0  0  0  0
  -25.5867  -33.8641   24.2333 N   0  0  0  0  0  0
  -23.4048  -30.4943   21.5600 C   0  0  2  0  0  0
  -24.8480  -28.9782   20.1045 C   0  0  0  0  0  0
  -22.7434  -29.4647   22.5047 C   0  0  0  0  0  0
  -18.0247  -28.1367   22.8483 C   0  0  0  0  0  0
  -24.1459  -36.7310   23.2650 C   0  0  0  0  0  0
  -25.9380  -30.8254   21.3669 C   0  0  0  0  0  0
  -26.0146  -29.4596   20.7107 C   0  0  0  0  0  0
  -27.1988  -28.6744   20.7077 C   0  0  0  0  0  0
  -26.0283  -26.9788   19.4221 C   0  0  0  0  0  0
  -24.8522  -27.7385   19.4550 C   0  0  0  0  0  0
  -23.6087  -29.8418   20.1695 C   0  0  0  0  0  0
  -25.4082  -36.3131   24.0346 C   0  0  1  0  0  0
  -20.5844  -28.3642   23.1316 C   0  0  2  0  0  0
  -20.6742  -26.9389   22.5398 C   0  0  0  0  0  0
  -19.5717  -26.6395   21.5194 C   0  0  0  0  0  0
  -18.1900  -26.7914   22.1618 C   0  0  0  0  0  0
  -19.1502  -28.8817   23.2892 C   0  0  0  0  0  0
  -18.9450  -30.1433   23.8899 C   0  0  0  0  0  0
  -17.6458  -30.6585   24.0546 C   0  0  0  0  0  0
  -25.9031  -34.9499   23.5160 C   0  0  0  0  0  0
  -16.5338  -29.9078   23.6345 C   0  0  0  0  0  0
  -16.7243  -28.6500   23.0354 C   0  0  0  0  0  0
  -26.4440  -31.6604   25.0727 C   0  0  0  0  0  0
  -25.3684  -31.3608   26.1444 C   0  0  0  0  0  0
  -27.0337  -30.3095   24.6040 C   0  0  0  0  0  0
  -27.5996  -32.4324   25.7529 C   0  0  0  0  0  0
  -27.5553  -37.1809   24.8474 C   0  0  0  0  0  0
  -21.4162  -29.3027   22.3769 N   0  0  0  0  0  0
  -26.4272  -37.3802   23.9414 N   0  0  0  0  0  0
  -24.6733  -31.0754   22.1048 N   0  0  0  0  0  0
  -23.4201  -28.8175   23.3077 O   0  0  0  0  0  0
  -28.3243  -26.5600   20.1739 O   0  0  0  0  0  0
  -26.5632  -34.8954   22.4747 O   0  0  0  0  0  0
  -23.5338  -32.1472   23.7470 O   0  0  0  0  0  0
  -29.7587  -20.9759   21.5762 C   0  0  0  0  0  0
  -28.4291  -21.4922   21.6068 C   0  0  0  0  0  0
  -29.8119  -19.7947   22.2642 C   0  0  0  0  0  0
  -27.6514  -20.5503   22.2794 C   0  0  0  0  0  0
  -28.2801  -17.5040   26.0454 C   0  0  0  0  0  0
  -25.2771  -21.6007   21.9236 C   0  0  0  0  0  0
  -25.6548  -20.3050   23.9297 C   0  0  0  0  0  0
  -25.6234  -19.2077   21.6196 C   0  0  0  0  0  0
  -32.2674  -18.2433   20.5109 C   0  0  0  0  0  0
  -32.2827  -16.7559   22.5070 C   0  0  0  0  0  0
  -27.9602  -22.7849   20.9209 C   0  0  0  0  0  0
  -31.0018  -18.9015   22.5781 C   0  0  0  0  0  0
  -28.5065  -18.7387   25.1595 C   0  0  0  0  0  0
  -28.8660  -24.0511   20.7680 C   0  0  0  0  0  0
  -28.2498  -18.4284   23.6702 C   0  0  0  0  0  0
  -30.1864  -16.9140   20.9848 C   0  0  0  0  0  0
  -28.0379  -25.1419   20.0164 C   0  0  0  0  0  0
  -26.1163  -20.4134   22.4541 C   0  0  0  0  0  0
  -31.3889  -17.6858   21.6511 C   0  0  0  0  0  0
  -28.5383  -19.5641   22.7744 N   0  0  0  0  0  0
  -30.0587  -15.4560   21.2272 N   0  0  0  0  0  0
  -31.4635  -12.3817   19.1368 H   0  0  0  0  0  0
  -30.2981  -11.2921   19.8278 H   0  0  0  0  0  0
  -29.7309  -11.7907   17.4309 H   0  0  0  0  0  0
  -29.6636  -13.5001   17.7839 H   0  0  0  0  0  0
  -27.8244  -11.3154   18.8181 H   0  0  0  0  0  0
  -27.3644  -12.6484   17.7953 H   0  0  0  0  0  0
  -27.7096  -14.2578   19.5865 H   0  0  0  0  0  0
  -28.6751  -11.9570   21.3532 H   0  0  0  0  0  0
  -28.4617  -13.5949   21.8825 H   0  0  0  0  0  0
  -25.2722   -9.5726   22.4778 H   0  0  0  0  0  0
  -23.9973   -7.4671   22.7516 H   0  0  0  0  0  0
  -21.0838   -8.8731   19.8927 H   0  0  0  0  0  0
  -22.3667  -10.9646   19.6135 H   0  0  0  0  0  0
  -21.2009   -7.6140   23.9694 H   0  0  0  0  0  0
  -21.1491   -6.0524   25.9068 H   0  0  0  0  0  0
  -22.0597   -2.7596   23.2852 H   0  0  0  0  0  0
  -22.4069  -11.9816   22.4655 H   0  0  0  0  0  0
  -21.1095  -13.1228   22.2543 H   0  0  0  0  0  0
  -24.6654  -15.8426   20.5208 H   0  0  0  0  0  0
  -26.2888  -15.6274   20.1040 H   0  0  0  0  0  0
  -26.7137  -32.5555   23.1199 H   0  0  0  0  0  0
  -24.9862  -33.9778   25.0370 H   0  0  0  0  0  0
  -22.6948  -31.3125   21.4304 H   0  0  0  0  0  0
  -23.3740  -35.9627   23.3322 H   0  0  0  0  0  0
  -24.3536  -36.8913   22.2061 H   0  0  0  0  0  0
  -23.7191  -37.6506   23.6665 H   0  0  0  0  0  0
  -26.0380  -31.5872   20.5920 H   0  0  0  0  0  0
  -26.8328  -30.8908   21.9746 H   0  0  0  0  0  0
  -28.0910  -29.0293   21.2049 H   0  0  0  0  0  0
  -25.9712  -26.0485   18.8771 H   0  0  0  0  0  0
  -23.9624  -27.3674   18.9638 H   0  0  0  0  0  0
  -23.7037  -30.6229   19.4140 H   0  0  0  0  0  0
  -22.7290  -29.2617   19.8808 H   0  0  0  0  0  0
  -25.1250  -36.2017   25.0833 H   0  0  0  0  0  0
  -20.9883  -28.3175   24.1450 H   0  0  0  0  0  0
  -20.5622  -26.2247   23.3567 H   0  0  0  0  0  0
  -21.6607  -26.7429   22.1187 H   0  0  0  0  0  0
  -19.6866  -25.6323   21.1184 H   0  0  0  0  0  0
  -19.6632  -27.3230   20.6738 H   0  0  0  0  0  0
  -17.4151  -26.6652   21.4038 H   0  0  0  0  0  0
  -18.0290  -26.0052   22.9012 H   0  0  0  0  0  0
  -19.7941  -30.7226   24.2250 H   0  0  0  0  0  0
  -17.5038  -31.6258   24.5164 H   0  0  0  0  0  0
  -15.5344  -30.2982   23.7709 H   0  0  0  0  0  0
  -15.8634  -28.0843   22.7055 H   0  0  0  0  0  0
  -24.5920  -30.6918   25.7698 H   0  0  0  0  0  0
  -24.8784  -32.2712   26.4912 H   0  0  0  0  0  0
  -25.8011  -30.8742   27.0201 H   0  0  0  0  0  0
  -26.2921  -29.6846   24.1046 H   0  0  0  0  0  0
  -27.4158  -29.7289   25.4450 H   0  0  0  0  0  0
  -27.8704  -30.4504   23.9189 H   0  0  0  0  0  0
  -27.2631  -33.3672   26.2025 H   0  0  0  0  0  0
  -28.3852  -32.6776   25.0375 H   0  0  0  0  0  0
  -28.0604  -31.8485   26.5508 H   0  0  0  0  0  0
  -28.2574  -38.0102   24.7527 H   0  0  0  0  0  0
  -28.1052  -36.2634   24.6326 H   0  0  0  0  0  0
  -27.2261  -37.1456   25.8873 H   0  0  0  0  0  0
  -20.9330  -29.8829   21.7057 H   0  0  0  0  0  0
  -26.0184  -38.2884   24.1434 H   0  0  0  0  0  0
  -30.6103  -21.4345   21.0920 H   0  0  0  0  0  0
  -28.3538  -17.7585   27.1028 H   0  0  0  0  0  0
  -29.0210  -16.7309   25.8408 H   0  0  0  0  0  0
  -27.2952  -17.0698   25.8777 H   0  0  0  0  0  0
  -25.4312  -22.5089   22.5083 H   0  0  0  0  0  0
  -24.2068  -21.3953   21.9935 H   0  0  0  0  0  0
  -25.4631  -21.8089   20.8700 H   0  0  0  0  0  0
  -24.5668  -20.3299   23.9992 H   0  0  0  0  0  0
  -26.0220  -21.1451   24.5218 H   0  0  0  0  0  0
  -25.9357  -19.3913   24.4382 H   0  0  0  0  0  0
  -25.7160  -19.4158   20.5535 H   0  0  0  0  0  0
  -24.5759  -18.9824   21.8156 H   0  0  0  0  0  0
  -26.1819  -18.2918   21.7822 H   0  0  0  0  0  0
  -33.1307  -18.7914   20.8893 H   0  0  0  0  0  0
  -31.7011  -18.9251   19.8754 H   0  0  0  0  0  0
  -32.6475  -17.4430   19.8750 H   0  0  0  0  0  0
  -33.0592  -17.3236   23.0216 H   0  0  0  0  0  0
  -32.8010  -16.0106   21.9064 H   0  0  0  0  0  0
  -31.7079  -16.2317   23.2710 H   0  0  0  0  0  0
  -27.1471  -23.1598   21.5257 H   0  0  0  0  0  0
  -27.5427  -22.5052   19.9518 H   0  0  0  0  0  0
  -30.8797  -18.5133   23.5882 H   0  0  0  0  0  0
  -31.8751  -19.5446   22.6924 H   0  0  0  0  0  0
  -29.5249  -19.0990   25.3028 H   0  0  0  0  0  0
  -27.8638  -19.5507   25.4966 H   0  0  0  0  0  0
  -29.7838  -23.8292   20.2251 H   0  0  0  0  0  0
  -29.1522  -24.4174   21.7539 H   0  0  0  0  0  0
  -27.2457  -18.0516   23.5311 H   0  0  0  0  0  0
  -28.8723  -17.5811   23.3918 H   0  0  0  0  0  0
  -30.2041  -17.0572   19.9028 H   0  0  0  0  0  0
  -29.2381  -17.3635   21.2647 H   0  0  0  0  0  0
  -27.0265  -24.9706   20.3817 H   0  0  0  0  0  0
  -28.0194  -24.9054   18.9505 H   0  0  0  0  0  0
  -29.2216  -15.1669   21.7115 H   0  0  0  0  0  0
  1 25  1  0  0  0
  1 30  2  0  0  0
  1 91  1  0  0  0
  2  3  1  0  0  0
  2 25  1  0  0  0
  2 92  1  0  0  0
  2 93  1  0  0  0
  3  4  1  0  0  0
  3 94  1  0  0  0
  3 95  1  0  0  0
  4  5  1  0  0  0
  4 96  1  0  0  0
  4 97  1  0  0  0
  5  6  1  0  0  0
  5 26  1  0  0  0
  5 98  1  0  0  0
  6 25  1  0  0  0
  6 99  1  0  0  0
  6100  1  0  0  0
  7  8  2  0  0  0
  7 26  1  0  0  0
  7 29  1  0  0  0
  8  9  1  0  0  0
  8 22  1  0  0  0
  9 10  1  0  0  0
  9 27  2  0  0  0
 10 11  2  0  0  0
 10 15  1  0  0  0
 11 12  1  0  0  0
 11101  1  0  0  0
 12 13  2  0  0  0
 12102  1  0  0  0
 13 14  1  0  0  0
 13 31  1  0  0  0
 14 15  2  0  0  0
 14103  1  0  0  0
 15104  1  0  0  0
 16 17  2  0  0  0
 16 21  1  0  0  0
 16 31  1  0  0  0
 17 18  1  0  0  0
 17105  1  0  0  0
 18 19  2  0  0  0
 18106  1  0  0  0
 19 20  1  0  0  0
 19 24  1  0  0  0
 20 21  2  0  0  0
 20107  1  0  0  0
 21 23  1  0  0  0
 22 28  1  0  0  0
 22 32  2  0  0  0
 26 27  1  0  0  0
 28108  1  0  0  0
 28109  1  0  0  0
 29110  1  0  0  0
 29111  1  0  0  0
 33 34  1  0  0  0
 33 66  1  0  0  0
 33 70  2  0  0  0
 34 36  1  0  0  0
 34 59  1  0  0  0
 34112  1  0  0  0
 35 44  2  0  0  0
 35 45  1  0  0  0
 35 68  1  0  0  0
 36 56  1  0  0  0
 36113  1  0  0  0
 37 39  1  0  0  0
 37 47  1  0  0  0
 37 66  1  0  0  0
 37114  1  0  0  0
 38 43  2  0  0  0
 38 46  1  0  0  0
 38 47  1  0  0  0
 39 64  1  0  0  0
 39 67  2  0  0  0
 40 52  1  0  0  0
 40 53  2  0  0  0
 40 58  1  0  0  0
 41115  1  0  0  0
 41116  1  0  0  0
 41117  1  0  0  0
 41 48  1  0  0  0
 42 43  1  0  0  0
 42 66  1  0  0  0
 42118  1  0  0  0
 42119  1  0  0  0
 43 44  1  0  0  0
 44120  1  0  0  0
 45 46  2  0  0  0
 45121  1  0  0  0
 46122  1  0  0  0
 47123  1  0  0  0
 47124  1  0  0  0
 48 56  1  0  0  0
 48 65  1  0  0  0
 48125  1  0  0  0
 49 50  1  0  0  0
 49 53  1  0  0  0
 49 64  1  0  0  0
 49126  1  0  0  0
 50 51  1  0  0  0
 50127  1  0  0  0
 50128  1  0  0  0
 51 52  1  0  0  0
 51129  1  0  0  0
 51130  1  0  0  0
 52131  1  0  0  0
 52132  1  0  0  0
 53 54  1  0  0  0
 54 55  2  0  0  0
 54133  1  0  0  0
 55 57  1  0  0  0
 55134  1  0  0  0
 56 69  2  0  0  0
 57 58  2  0  0  0
 57135  1  0  0  0
 58136  1  0  0  0
 59 60  1  0  0  0
 59 61  1  0  0  0
 59 62  1  0  0  0
 60137  1  0  0  0
 60138  1  0  0  0
 60139  1  0  0  0
 61140  1  0  0  0
 61141  1  0  0  0
 61142  1  0  0  0
 62143  1  0  0  0
 62144  1  0  0  0
 62145  1  0  0  0
 63 65  1  0  0  0
 63146  1  0  0  0
 63147  1  0  0  0
 63148  1  0  0  0
 64149  1  0  0  0
 65150  1  0  0  0
 68 87  1  0  0  0
 71 72  1  0  0  0
 71 73  2  0  0  0
 71151  1  0  0  0
 72 74  2  0  0  0
 72 81  1  0  0  0
 73 82  1  0  0  0
 73 90  1  0  0  0
 74 88  1  0  0  0
 74 90  1  0  0  0
 75 83  1  0  0  0
 75152  1  0  0  0
 75153  1  0  0  0
 75154  1  0  0  0
 76155  1  0  0  0
 76156  1  0  0  0
 76157  1  0  0  0
 76 88  1  0  0  0
 77 88  1  0  0  0
 77158  1  0  0  0
 77159  1  0  0  0
 77160  1  0  0  0
 78 88  1  0  0  0
 78161  1  0  0  0
 78162  1  0  0  0
 78163  1  0  0  0
 79164  1  0  0  0
 79165  1  0  0  0
 79166  1  0  0  0
 79 89  1  0  0  0
 80 89  1  0  0  0
 80167  1  0  0  0
 80168  1  0  0  0
 80169  1  0  0  0
 81 84  1  0  0  0
 81170  1  0  0  0
 81171  1  0  0  0
 82 89  1  0  0  0
 82172  1  0  0  0
 82173  1  0  0  0
 83 85  1  0  0  0
 83174  1  0  0  0
 83175  1  0  0  0
 84 87  1  0  0  0
 84176  1  0  0  0
 84177  1  0  0  0
 85 90  1  0  0  0
 85178  1  0  0  0
 85179  1  0  0  0
 86 89  1  0  0  0
 86 91  1  0  0  0
 86180  1  0  0  0
 86181  1  0  0  0
 87182  1  0  0  0
 87183  1  0  0  0
 91184  1  0  0  0
M  ISO  4   1 100  68 101  87 101  91 100
M  END
> <chiral flag>
0

> <version>
0

> <s_m_source_file>
/data/baiqing/PycharmProjects/Reinvent-master-3.2/result/LINK_invent/BTK/process_docking_weight1_custom_sum_contain_oxygen_bond_distance_aromatic_linkinvent_7_9_3/rearranged_h_0083.sdf

> <i_m_source_file_index>
55

> <r_mmod_Potential_Energy-OPLS-2005>
30.6765975952148

> <r_mmod_Stretch_Energy-OPLS-2005>
60.501049041748

> <r_mmod_Bend_Energy-OPLS-2005>
169.54801940918

> <r_mmod_Torsional_Energy-OPLS-2005>
262.853179931641

> <r_mmod_Improper_Torsional_Energy-OPLS-2005>
5.06630992889404

> <r_mmod_Van_der_Waal_Energy-OPLS-2005>
165.570343017578

> <r_mmod_Electrostatic_Energy-OPLS-2005>
-463.629943847656

> <r_mmod_Solvation_Energy-OPLS-2005>
-190.003387451172

> <b_mmod_Minimization_Converged-OPLS-2005>
0

> <r_mmod_RMS_Derivative-OPLS-2005>
3.19630265235901

$$$$
55
                    3D
 Structure written by MMmdl.
160168  0  0  1  0            999 V2000
  -30.6149  -14.7378   20.4542 C   0  0  0  0  0  0
  -30.4300  -12.4525   19.4653 C   0  0  0  0  0  0
  -29.5064  -12.5136   18.2295 C   0  0  0  0  0  0
  -28.0339  -12.3348   18.6463 C   0  0  0  0  0  0
  -27.6419  -13.2306   19.8512 C   0  0  2  0  0  0
  -28.6883  -13.1614   20.9833 C   0  0  0  0  0  0
  -25.2519  -13.8190   20.5699 C   0  0  0  0  0  0
  -24.1808  -13.0440   20.9206 C   0  0  0  0  0  0
  -24.6396  -11.6914   20.8740 C   0  0  0  0  0  0
  -23.9078  -10.4288   21.0418 C   0  0  0  0  0  0
  -24.3626   -9.4198   21.9187 C   0  0  0  0  0  0
  -23.6299   -8.2235   22.0757 C   0  0  0  0  0  0
  -22.4282   -8.0281   21.3539 C   0  0  0  0  0  0
  -21.9921   -9.0260   20.4649 C   0  0  0  0  0  0
  -22.7252  -10.2138   20.3064 C   0  0  0  0  0  0
  -21.6856   -6.0740   22.5282 C   0  0  0  0  0  0
  -21.4010   -6.5644   23.8214 C   0  0  0  0  0  0
  -21.3659   -5.6795   24.9177 C   0  0  0  0  0  0
  -21.6052   -4.3061   24.7224 C   0  0  0  0  0  0
  -21.8816   -3.8153   23.4346 C   0  0  0  0  0  0
  -21.9191   -4.6971   22.3402 C   0  0  0  0  0  0
  -22.7830  -13.5221   21.1863 C   0  0  0  0  0  0
  -22.1657   -4.2163   21.0979 F   0  0  0  0  0  0
  -21.5639   -3.4536   25.7733 F   0  0  0  0  0  0
  -29.9868  -13.5142   20.3963 N   0  0  0  0  0  0
  -26.2944  -12.9398   20.3301 N   0  0  0  0  0  0
  -25.9326  -11.6538   20.5749 N   0  0  0  0  0  0
  -22.0484  -12.8209   22.0418 N   0  0  0  0  0  0
  -25.4200  -15.1913   20.4094 N   0  0  0  0  0  0
  -31.8092  -14.8313   20.1591 O   0  0  0  0  0  0
  -21.6636   -6.8883   21.4244 O   0  0  0  0  0  0
  -22.3510  -14.5527   20.6707 O   0  0  0  0  0  0
  -24.6323  -31.8552   23.2013 C   0  0  0  0  0  0
  -25.9147  -32.4752   23.8349 C   0  0  1  0  0  0
  -27.2199  -27.2687   20.1231 C   0  0  0  0  0  0
  -25.5945  -33.8561   24.2262 N   0  0  0  0  0  0
  -23.4285  -30.4808   21.5449 C   0  0  2  0  0  0
  -24.8750  -28.9351   20.1083 C   0  0  0  0  0  0
  -22.7513  -29.4604   22.4922 C   0  0  0  0  0  0
  -18.0292  -28.1387   22.8483 C   0  0  0  0  0  0
  -24.1489  -36.7291   23.2638 C   0  0  0  0  0  0
  -25.9751  -30.7710   21.3806 C   0  0  0  0  0  0
  -26.0486  -29.3969   20.7185 C   0  0  0  0  0  0
  -27.2241  -28.5785   20.7119 C   0  0  0  0  0  0
  -26.0198  -26.8811   19.4790 C   0  0  0  0  0  0
  -24.8670  -27.6859   19.4763 C   0  0  0  0  0  0
  -23.6457  -29.8193   20.1595 C   0  0  0  0  0  0
  -25.4115  -36.3068   24.0324 C   0  0  1  0  0  0
  -20.5897  -28.3698   23.1270 C   0  0  2  0  0  0
  -20.6786  -26.9414   22.5413 C   0  0  0  0  0  0
  -19.5761  -26.6380   21.5221 C   0  0  0  0  0  0
  -18.1936  -26.7927   22.1624 C   0  0  0  0  0  0
  -19.1545  -28.8864   23.2868 C   0  0  0  0  0  0
  -18.9466  -30.1461   23.8883 C   0  0  0  0  0  0
  -17.6466  -30.6588   24.0563 C   0  0  0  0  0  0
  -25.9057  -34.9438   23.5099 C   0  0  0  0  0  0
  -16.5359  -29.9082   23.6334 C   0  0  0  0  0  0
  -16.7276  -28.6505   23.0348 C   0  0  0  0  0  0
  -26.4517  -31.6583   25.0741 C   0  0  0  0  0  0
  -25.3748  -31.3739   26.1470 C   0  0  0  0  0  0
  -27.0368  -30.2996   24.6234 C   0  0  0  0  0  0
  -27.6057  -32.4343   25.7522 C   0  0  0  0  0  0
  -27.5577  -37.1798   24.8456 C   0  0  0  0  0  0
  -21.4221  -29.3043   22.3660 N   0  0  0  0  0  0
  -26.4282  -37.3772   23.9413 N   0  0  0  0  0  0
  -24.6975  -31.0528   22.0983 N   0  0  0  0  0  0
  -23.4208  -28.8133   23.3013 O   0  0  0  0  0  0
  -28.3089  -26.3637   20.1935 O   0  0  0  0  0  0
  -26.5618  -34.8910   22.4656 O   0  0  0  0  0  0
  -23.5474  -32.1369   23.7313 O   0  0  0  0  0  0
  -29.5124  -23.1755   17.9896 C   0  0  0  0  0  0
  -29.3126  -22.5916   19.2638 C   0  0  0  0  0  0
  -29.7480  -22.3690   16.8641 C   0  0  0  0  0  0
  -29.4665  -21.1216   19.3071 C   0  0  0  0  0  0
  -29.2423  -24.2951   15.2199 C   0  0  0  0  0  0
  -29.0408  -23.6779   20.3817 C   0  0  0  0  0  0
  -29.9406  -22.9472   15.4671 C   0  0  0  0  0  0
  -29.5576  -20.1095   20.5212 C   0  0  0  0  0  0
  -29.2047  -18.5205   20.3155 C   0  0  0  0  0  0
  -30.2766  -17.3476   20.6367 C   0  0  0  0  0  0
  -28.0200  -24.8968   20.0328 C   0  0  0  0  0  0
  -29.8334  -21.0288   16.9662 N   0  0  0  0  0  0
  -29.7295  -20.4432   18.1583 N   0  0  0  0  0  0
  -29.8453  -15.8770   20.6350 N   0  0  0  0  0  0
  -31.4723  -12.5724   19.1658 H   0  0  0  0  0  0
  -30.3664  -11.4754   19.9464 H   0  0  0  0  0  0
  -29.7877  -11.7453   17.5074 H   0  0  0  0  0  0
  -29.6316  -13.4714   17.7210 H   0  0  0  0  0  0
  -27.8892  -11.2845   18.9018 H   0  0  0  0  0  0
  -27.3758  -12.5334   17.8002 H   0  0  0  0  0  0
  -27.6360  -14.2529   19.4722 H   0  0  0  0  0  0
  -28.7255  -12.1613   21.4183 H   0  0  0  0  0  0
  -28.4265  -13.8391   21.7979 H   0  0  0  0  0  0
  -25.2773   -9.5680   22.4755 H   0  0  0  0  0  0
  -24.0020   -7.4622   22.7469 H   0  0  0  0  0  0
  -21.0856   -8.8783   19.8938 H   0  0  0  0  0  0
  -22.3721  -10.9681   19.6174 H   0  0  0  0  0  0
  -21.1994   -7.6151   23.9727 H   0  0  0  0  0  0
  -21.1489   -6.0521   25.9082 H   0  0  0  0  0  0
  -22.0596   -2.7616   23.2838 H   0  0  0  0  0  0
  -22.4103  -11.9868   22.4808 H   0  0  0  0  0  0
  -21.1104  -13.1244   22.2630 H   0  0  0  0  0  0
  -24.6491  -15.8426   20.5101 H   0  0  0  0  0  0
  -26.2643  -15.6308   20.0667 H   0  0  0  0  0  0
  -26.7208  -32.5396   23.1086 H   0  0  0  0  0  0
  -25.0118  -33.9699   25.0425 H   0  0  0  0  0  0
  -22.7245  -31.3032   21.4019 H   0  0  0  0  0  0
  -23.3750  -35.9623   23.3292 H   0  0  0  0  0  0
  -24.3580  -36.8926   22.2053 H   0  0  0  0  0  0
  -23.7249  -37.6492   23.6672 H   0  0  0  0  0  0
  -26.1154  -31.5327   20.6121 H   0  0  0  0  0  0
  -26.8521  -30.8159   22.0153 H   0  0  0  0  0  0
  -28.1220  -28.9286   21.2028 H   0  0  0  0  0  0
  -25.9252  -25.9303   18.9789 H   0  0  0  0  0  0
  -23.9706  -27.3292   18.9873 H   0  0  0  0  0  0
  -23.7680  -30.5977   19.4055 H   0  0  0  0  0  0
  -22.7637  -29.2529   19.8543 H   0  0  0  0  0  0
  -25.1298  -36.1918   25.0817 H   0  0  0  0  0  0
  -20.9979  -28.3277   24.1397 H   0  0  0  0  0  0
  -20.5712  -26.2303   23.3617 H   0  0  0  0  0  0
  -21.6649  -26.7455   22.1193 H   0  0  0  0  0  0
  -19.6929  -25.6292   21.1250 H   0  0  0  0  0  0
  -19.6702  -27.3191   20.6755 H   0  0  0  0  0  0
  -17.4215  -26.6679   21.4016 H   0  0  0  0  0  0
  -18.0325  -26.0066   22.9016 H   0  0  0  0  0  0
  -19.7940  -30.7280   24.2244 H   0  0  0  0  0  0
  -17.5019  -31.6264   24.5166 H   0  0  0  0  0  0
  -15.5356  -30.2979   23.7673 H   0  0  0  0  0  0
  -15.8674  -28.0825   22.7062 H   0  0  0  0  0  0
  -24.5911  -30.7095   25.7817 H   0  0  0  0  0  0
  -24.8954  -32.2908   26.4907 H   0  0  0  0  0  0
  -25.8070  -30.8918   27.0245 H   0  0  0  0  0  0
  -26.2954  -29.6743   24.1241 H   0  0  0  0  0  0
  -27.4027  -29.7267   25.4768 H   0  0  0  0  0  0
  -27.8845  -30.4272   23.9497 H   0  0  0  0  0  0
  -27.2638  -33.3640   26.2090 H   0  0  0  0  0  0
  -28.3870  -32.6919   25.0358 H   0  0  0  0  0  0
  -28.0720  -31.8485   26.5452 H   0  0  0  0  0  0
  -28.2579  -38.0108   24.7519 H   0  0  0  0  0  0
  -28.1085  -36.2643   24.6261 H   0  0  0  0  0  0
  -27.2294  -37.1423   25.8854 H   0  0  0  0  0  0
  -20.9417  -29.8760   21.6853 H   0  0  0  0  0  0
  -26.0160  -38.2842   24.1424 H   0  0  0  0  0  0
  -29.4958  -24.2482   17.8745 H   0  0  0  0  0  0
  -29.3124  -24.5769   14.1689 H   0  0  0  0  0  0
  -29.7033  -25.0958   15.7980 H   0  0  0  0  0  0
  -28.1844  -24.2487   15.4816 H   0  0  0  0  0  0
  -30.0075  -24.1073   20.6464 H   0  0  0  0  0  0
  -28.6986  -23.1675   21.2818 H   0  0  0  0  0  0
  -29.5741  -22.2233   14.7389 H   0  0  0  0  0  0
  -31.0100  -23.0507   15.2807 H   0  0  0  0  0  0
  -28.8993  -20.5026   21.2958 H   0  0  0  0  0  0
  -30.5628  -20.1951   20.9339 H   0  0  0  0  0  0
  -28.8211  -18.3590   19.3082 H   0  0  0  0  0  0
  -28.3367  -18.3274   20.9467 H   0  0  0  0  0  0
  -30.6975  -17.5411   21.6241 H   0  0  0  0  0  0
  -31.1126  -17.4564   19.9443 H   0  0  0  0  0  0
  -27.1286  -24.6901   20.6283 H   0  0  0  0  0  0
  -27.6890  -24.7617   19.0050 H   0  0  0  0  0  0
  -28.8659  -15.7049   20.8062 H   0  0  0  0  0  0
  1 25  1  0  0  0
  1 30  2  0  0  0
  1 84  1  0  0  0
  2  3  1  0  0  0
  2 25  1  0  0  0
  2 85  1  0  0  0
  2 86  1  0  0  0
  3  4  1  0  0  0
  3 87  1  0  0  0
  3 88  1  0  0  0
  4  5  1  0  0  0
  4 89  1  0  0  0
  4 90  1  0  0  0
  5  6  1  0  0  0
  5 26  1  0  0  0
  5 91  1  0  0  0
  6 25  1  0  0  0
  6 92  1  0  0  0
  6 93  1  0  0  0
  7  8  2  0  0  0
  7 26  1  0  0  0
  7 29  1  0  0  0
  8  9  1  0  0  0
  8 22  1  0  0  0
  9 10  1  0  0  0
  9 27  2  0  0  0
 10 11  2  0  0  0
 10 15  1  0  0  0
 11 12  1  0  0  0
 11 94  1  0  0  0
 12 13  2  0  0  0
 12 95  1  0  0  0
 13 14  1  0  0  0
 13 31  1  0  0  0
 14 15  2  0  0  0
 14 96  1  0  0  0
 15 97  1  0  0  0
 16 17  2  0  0  0
 16 21  1  0  0  0
 16 31  1  0  0  0
 17 18  1  0  0  0
 17 98  1  0  0  0
 18 19  2  0  0  0
 18 99  1  0  0  0
 19 20  1  0  0  0
 19 24  1  0  0  0
 20 21  2  0  0  0
 20100  1  0  0  0
 21 23  1  0  0  0
 22 28  1  0  0  0
 22 32  2  0  0  0
 26 27  1  0  0  0
 28101  1  0  0  0
 28102  1  0  0  0
 29103  1  0  0  0
 29104  1  0  0  0
 33 34  1  0  0  0
 33 66  1  0  0  0
 33 70  2  0  0  0
 34 36  1  0  0  0
 34 59  1  0  0  0
 34105  1  0  0  0
 35 44  2  0  0  0
 35 45  1  0  0  0
 35 68  1  0  0  0
 36 56  1  0  0  0
 36106  1  0  0  0
 37 39  1  0  0  0
 37 47  1  0  0  0
 37 66  1  0  0  0
 37107  1  0  0  0
 38 43  2  0  0  0
 38 46  1  0  0  0
 38 47  1  0  0  0
 39 64  1  0  0  0
 39 67  2  0  0  0
 40 52  1  0  0  0
 40 53  2  0  0  0
 40 58  1  0  0  0
 41108  1  0  0  0
 41109  1  0  0  0
 41110  1  0  0  0
 41 48  1  0  0  0
 42 43  1  0  0  0
 42 66  1  0  0  0
 42111  1  0  0  0
 42112  1  0  0  0
 43 44  1  0  0  0
 44113  1  0  0  0
 45 46  2  0  0  0
 45114  1  0  0  0
 46115  1  0  0  0
 47116  1  0  0  0
 47117  1  0  0  0
 48 56  1  0  0  0
 48 65  1  0  0  0
 48118  1  0  0  0
 49 50  1  0  0  0
 49 53  1  0  0  0
 49 64  1  0  0  0
 49119  1  0  0  0
 50 51  1  0  0  0
 50120  1  0  0  0
 50121  1  0  0  0
 51 52  1  0  0  0
 51122  1  0  0  0
 51123  1  0  0  0
 52124  1  0  0  0
 52125  1  0  0  0
 53 54  1  0  0  0
 54 55  2  0  0  0
 54126  1  0  0  0
 55 57  1  0  0  0
 55127  1  0  0  0
 56 69  2  0  0  0
 57 58  2  0  0  0
 57128  1  0  0  0
 58129  1  0  0  0
 59 60  1  0  0  0
 59 61  1  0  0  0
 59 62  1  0  0  0
 60130  1  0  0  0
 60131  1  0  0  0
 60132  1  0  0  0
 61133  1  0  0  0
 61134  1  0  0  0
 61135  1  0  0  0
 62136  1  0  0  0
 62137  1  0  0  0
 62138  1  0  0  0
 63 65  1  0  0  0
 63139  1  0  0  0
 63140  1  0  0  0
 63141  1  0  0  0
 64142  1  0  0  0
 65143  1  0  0  0
 68 81  1  0  0  0
 71 72  2  0  0  0
 71 73  1  0  0  0
 71144  1  0  0  0
 72 74  1  0  0  0
 72 76  1  0  0  0
 73 77  1  0  0  0
 73 82  2  0  0  0
 74 78  1  0  0  0
 74 83  2  0  0  0
 75 77  1  0  0  0
 75145  1  0  0  0
 75146  1  0  0  0
 75147  1  0  0  0
 76 81  1  0  0  0
 76148  1  0  0  0
 76149  1  0  0  0
 77150  1  0  0  0
 77151  1  0  0  0
 78 79  1  0  0  0
 78152  1  0  0  0
 78153  1  0  0  0
 79 80  1  0  0  0
 79154  1  0  0  0
 79155  1  0  0  0
 80 84  1  0  0  0
 80156  1  0  0  0
 80157  1  0  0  0
 81158  1  0  0  0
 81159  1  0  0  0
 82 83  1  0  0  0
 84160  1  0  0  0
M  ISO  4   1 100  68 101  81 101  84 100
M  END
> <chiral flag>
0

> <version>
0

> <s_m_source_file>
/data/baiqing/PycharmProjects/Reinvent-master-3.2/result/LINK_invent/BTK/process_docking_weight1_custom_sum_contain_oxygen_bond_distance_aromatic_linkinvent_7_9_3/rearranged_h_0083.sdf

> <i_m_source_file_index>
56

> <r_mmod_Potential_Energy-OPLS-2005>
205.079559326172

> <r_mmod_Stretch_Energy-OPLS-2005>
132.602127075195

> <r_mmod_Bend_Energy-OPLS-2005>
199.221008300781

> <r_mmod_Torsional_Energy-OPLS-2005>
233.220474243164

> <r_mmod_Improper_Torsional_Energy-OPLS-2005>
5.2284779548645

> <r_mmod_Van_der_Waal_Energy-OPLS-2005>
152.249374389648

> <r_mmod_Electrostatic_Energy-OPLS-2005>
-363.908294677734

> <r_mmod_Solvation_Energy-OPLS-2005>
-237.481628417969

> <b_mmod_Minimization_Converged-OPLS-2005>
0

> <r_mmod_RMS_Derivative-OPLS-2005>
1.76390373706818

$$$$
56
                    3D
 Structure written by MMmdl.
160168  0  0  1  0            999 V2000
  -30.6216  -14.7373   20.4566 C   0  0  0  0  0  0
  -30.4301  -12.4510   19.4696 C   0  0  0  0  0  0
  -29.5081  -12.5116   18.2326 C   0  0  0  0  0  0
  -28.0336  -12.3392   18.6450 C   0  0  0  0  0  0
  -27.6424  -13.2349   19.8509 C   0  0  2  0  0  0
  -28.6880  -13.1677   20.9857 C   0  0  0  0  0  0
  -25.2511  -13.8201   20.5697 C   0  0  0  0  0  0
  -24.1800  -13.0439   20.9210 C   0  0  0  0  0  0
  -24.6398  -11.6920   20.8749 C   0  0  0  0  0  0
  -23.9076  -10.4291   21.0410 C   0  0  0  0  0  0
  -24.3627   -9.4203   21.9187 C   0  0  0  0  0  0
  -23.6299   -8.2239   22.0758 C   0  0  0  0  0  0
  -22.4279   -8.0273   21.3551 C   0  0  0  0  0  0
  -21.9915   -9.0248   20.4653 C   0  0  0  0  0  0
  -22.7246  -10.2127   20.3059 C   0  0  0  0  0  0
  -21.6853   -6.0731   22.5280 C   0  0  0  0  0  0
  -21.4016   -6.5643   23.8209 C   0  0  0  0  0  0
  -21.3661   -5.6802   24.9179 C   0  0  0  0  0  0
  -21.6042   -4.3063   24.7234 C   0  0  0  0  0  0
  -21.8821   -3.8146   23.4361 C   0  0  0  0  0  0
  -21.9196   -4.6960   22.3411 C   0  0  0  0  0  0
  -22.7816  -13.5211   21.1873 C   0  0  0  0  0  0
  -22.1662   -4.2140   21.0988 F   0  0  0  0  0  0
  -21.5634   -3.4549   25.7752 F   0  0  0  0  0  0
  -29.9897  -13.5145   20.4034 N   0  0  0  0  0  0
  -26.2943  -12.9415   20.3286 N   0  0  0  0  0  0
  -25.9328  -11.6555   20.5747 N   0  0  0  0  0  0
  -22.0477  -12.8178   22.0422 N   0  0  0  0  0  0
  -25.4186  -15.1926   20.4106 N   0  0  0  0  0  0
  -31.8070  -14.8284   20.1284 O   0  0  0  0  0  0
  -21.6643   -6.8872   21.4240 O   0  0  0  0  0  0
  -22.3486  -14.5513   20.6728 O   0  0  0  0  0  0
  -24.6321  -31.8544   23.1969 C   0  0  0  0  0  0
  -25.9145  -32.4745   23.8322 C   0  0  1  0  0  0
  -27.2195  -27.2570   20.1253 C   0  0  0  0  0  0
  -25.5938  -33.8547   24.2242 N   0  0  0  0  0  0
  -23.4287  -30.4762   21.5425 C   0  0  2  0  0  0
  -24.8756  -28.9242   20.1097 C   0  0  0  0  0  0
  -22.7507  -29.4587   22.4923 C   0  0  0  0  0  0
  -18.0294  -28.1370   22.8487 C   0  0  0  0  0  0
  -24.1497  -36.7276   23.2640 C   0  0  0  0  0  0
  -25.9767  -30.7649   21.3796 C   0  0  0  0  0  0
  -26.0489  -29.3894   20.7167 C   0  0  0  0  0  0
  -27.2248  -28.5701   20.7095 C   0  0  0  0  0  0
  -26.0195  -26.8619   19.4910 C   0  0  0  0  0  0
  -24.8669  -27.6694   19.4842 C   0  0  0  0  0  0
  -23.6456  -29.8093   20.1592 C   0  0  0  0  0  0
  -25.4124  -36.3058   24.0323 C   0  0  1  0  0  0
  -20.5897  -28.3677   23.1273 C   0  0  2  0  0  0
  -20.6780  -26.9397   22.5405 C   0  0  0  0  0  0
  -19.5756  -26.6369   21.5212 C   0  0  0  0  0  0
  -18.1934  -26.7915   22.1622 C   0  0  0  0  0  0
  -19.1546  -28.8846   23.2869 C   0  0  0  0  0  0
  -18.9462  -30.1451   23.8875 C   0  0  0  0  0  0
  -17.6458  -30.6572   24.0551 C   0  0  0  0  0  0
  -25.9064  -34.9432   23.5085 C   0  0  0  0  0  0
  -16.5352  -29.9058   23.6337 C   0  0  0  0  0  0
  -16.7278  -28.6478   23.0359 C   0  0  0  0  0  0
  -26.4501  -31.6571   25.0721 C   0  0  0  0  0  0
  -25.3717  -31.3726   26.1434 C   0  0  0  0  0  0
  -27.0357  -30.2983   24.6230 C   0  0  0  0  0  0
  -27.6038  -32.4329   25.7501 C   0  0  0  0  0  0
  -27.5584  -37.1795   24.8462 C   0  0  0  0  0  0
  -21.4217  -29.3023   22.3664 N   0  0  0  0  0  0
  -26.4295  -37.3761   23.9404 N   0  0  0  0  0  0
  -24.6981  -31.0502   22.0950 N   0  0  0  0  0  0
  -23.4208  -28.8139   23.3032 O   0  0  0  0  0  0
  -28.3126  -26.3566   20.1806 O   0  0  0  0  0  0
  -26.5635  -34.8909   22.4655 O   0  0  0  0  0  0
  -23.5472  -32.1371   23.7265 O   0  0  0  0  0  0
  -28.9099  -21.6203   18.2718 C   0  0  0  0  0  0
  -28.9109  -20.5742   17.4047 C   0  0  0  0  0  0
  -29.0110  -19.3859   18.1771 C   0  0  0  0  0  0
  -29.1648  -19.7165   19.5083 C   0  0  0  0  0  0
  -28.7767  -20.6643   15.9066 C   0  0  0  0  0  0
  -28.9220  -18.0005   17.5791 C   0  0  0  0  0  0
  -29.3097  -18.6128   20.6251 C   0  0  0  0  0  0
  -29.1985  -23.7781   20.4129 C   0  0  0  0  0  0
  -28.9114  -22.1873   20.6906 C   0  0  0  0  0  0
  -30.3023  -17.3336   20.3977 C   0  0  0  0  0  0
  -28.0452  -24.8719   20.1175 C   0  0  0  0  0  0
  -29.0238  -21.1691   19.5742 N   0  0  0  0  0  0
  -29.8678  -15.8852   20.6549 N   0  0  0  0  0  0
  -31.4720  -12.5684   19.1669 H   0  0  0  0  0  0
  -30.3688  -11.4735   19.9500 H   0  0  0  0  0  0
  -29.7856  -11.7403   17.5122 H   0  0  0  0  0  0
  -29.6372  -13.4678   17.7226 H   0  0  0  0  0  0
  -27.8832  -11.2894   18.8997 H   0  0  0  0  0  0
  -27.3795  -12.5437   17.7963 H   0  0  0  0  0  0
  -27.6356  -14.2572   19.4714 H   0  0  0  0  0  0
  -28.7206  -12.1709   21.4291 H   0  0  0  0  0  0
  -28.4264  -13.8532   21.7931 H   0  0  0  0  0  0
  -25.2774   -9.5679   22.4761 H   0  0  0  0  0  0
  -24.0018   -7.4623   22.7469 H   0  0  0  0  0  0
  -21.0854   -8.8762   19.8948 H   0  0  0  0  0  0
  -22.3710  -10.9664   19.6168 H   0  0  0  0  0  0
  -21.2001   -7.6148   23.9709 H   0  0  0  0  0  0
  -21.1483   -6.0537   25.9080 H   0  0  0  0  0  0
  -22.0596   -2.7607   23.2868 H   0  0  0  0  0  0
  -22.4126  -11.9856   22.4814 H   0  0  0  0  0  0
  -21.1087  -13.1174   22.2628 H   0  0  0  0  0  0
  -24.6470  -15.8428   20.5140 H   0  0  0  0  0  0
  -26.2614  -15.6327   20.0648 H   0  0  0  0  0  0
  -26.7210  -32.5386   23.1060 H   0  0  0  0  0  0
  -25.0088  -33.9674   25.0389 H   0  0  0  0  0  0
  -22.7243  -31.2977   21.3959 H   0  0  0  0  0  0
  -23.3762  -35.9603   23.3291 H   0  0  0  0  0  0
  -24.3588  -36.8913   22.2055 H   0  0  0  0  0  0
  -23.7246  -37.6471   23.6676 H   0  0  0  0  0  0
  -26.1244  -31.5288   20.6151 H   0  0  0  0  0  0
  -26.8507  -30.8052   22.0185 H   0  0  0  0  0  0
  -28.1236  -28.9224   21.1958 H   0  0  0  0  0  0
  -25.9381  -25.9038   19.0019 H   0  0  0  0  0  0
  -23.9689  -27.3077   19.0019 H   0  0  0  0  0  0
  -23.7642  -30.5835   19.4009 H   0  0  0  0  0  0
  -22.7654  -29.2381   19.8592 H   0  0  0  0  0  0
  -25.1309  -36.1901   25.0817 H   0  0  0  0  0  0
  -20.9987  -28.3249   24.1395 H   0  0  0  0  0  0
  -20.5688  -26.2282   23.3603 H   0  0  0  0  0  0
  -21.6646  -26.7420   22.1193 H   0  0  0  0  0  0
  -19.6913  -25.6280   21.1235 H   0  0  0  0  0  0
  -19.6693  -27.3185   20.6747 H   0  0  0  0  0  0
  -17.4208  -26.6671   21.4019 H   0  0  0  0  0  0
  -18.0326  -26.0049   22.9010 H   0  0  0  0  0  0
  -19.7938  -30.7279   24.2228 H   0  0  0  0  0  0
  -17.5007  -31.6255   24.5148 H   0  0  0  0  0  0
  -15.5349  -30.2945   23.7673 H   0  0  0  0  0  0
  -15.8684  -28.0784   22.7087 H   0  0  0  0  0  0
  -24.5879  -30.7096   25.7751 H   0  0  0  0  0  0
  -24.8927  -32.2900   26.4864 H   0  0  0  0  0  0
  -25.8025  -30.8884   27.0205 H   0  0  0  0  0  0
  -26.2952  -29.6721   24.1239 H   0  0  0  0  0  0
  -27.4004  -29.7257   25.4766 H   0  0  0  0  0  0
  -27.8844  -30.4243   23.9506 H   0  0  0  0  0  0
  -27.2619  -33.3626   26.2061 H   0  0  0  0  0  0
  -28.3853  -32.6900   25.0339 H   0  0  0  0  0  0
  -28.0700  -31.8472   26.5431 H   0  0  0  0  0  0
  -28.2586  -38.0107   24.7519 H   0  0  0  0  0  0
  -28.1096  -36.2634   24.6280 H   0  0  0  0  0  0
  -27.2299  -37.1433   25.8864 H   0  0  0  0  0  0
  -20.9409  -29.8728   21.6849 H   0  0  0  0  0  0
  -26.0171  -38.2836   24.1394 H   0  0  0  0  0  0
  -28.8018  -22.6750   18.0574 H   0  0  0  0  0  0
  -29.0896  -21.6445   15.5457 H   0  0  0  0  0  0
  -27.7406  -20.5019   15.6068 H   0  0  0  0  0  0
  -29.3977  -19.9112   15.4206 H   0  0  0  0  0  0
  -29.9085  -17.6371   17.2923 H   0  0  0  0  0  0
  -28.2984  -18.0062   16.6848 H   0  0  0  0  0  0
  -28.4700  -17.2944   18.2753 H   0  0  0  0  0  0
  -28.3117  -18.2194   20.8209 H   0  0  0  0  0  0
  -29.5936  -19.1013   21.5576 H   0  0  0  0  0  0
  -29.9798  -23.8738   19.6587 H   0  0  0  0  0  0
  -29.6781  -24.1368   21.3239 H   0  0  0  0  0  0
  -27.9255  -22.0795   21.1432 H   0  0  0  0  0  0
  -29.6129  -21.8606   21.4587 H   0  0  0  0  0  0
  -31.1830  -17.5055   21.0177 H   0  0  0  0  0  0
  -30.7101  -17.3645   19.3898 H   0  0  0  0  0  0
  -27.2301  -24.6684   20.8138 H   0  0  0  0  0  0
  -27.6601  -24.6393   19.1249 H   0  0  0  0  0  0
  -28.8990  -15.7409   20.8953 H   0  0  0  0  0  0
  1 25  1  0  0  0
  1 30  2  0  0  0
  1 83  1  0  0  0
  2  3  1  0  0  0
  2 25  1  0  0  0
  2 84  1  0  0  0
  2 85  1  0  0  0
  3  4  1  0  0  0
  3 86  1  0  0  0
  3 87  1  0  0  0
  4  5  1  0  0  0
  4 88  1  0  0  0
  4 89  1  0  0  0
  5  6  1  0  0  0
  5 26  1  0  0  0
  5 90  1  0  0  0
  6 25  1  0  0  0
  6 91  1  0  0  0
  6 92  1  0  0  0
  7  8  2  0  0  0
  7 26  1  0  0  0
  7 29  1  0  0  0
  8  9  1  0  0  0
  8 22  1  0  0  0
  9 10  1  0  0  0
  9 27  2  0  0  0
 10 11  2  0  0  0
 10 15  1  0  0  0
 11 12  1  0  0  0
 11 93  1  0  0  0
 12 13  2  0  0  0
 12 94  1  0  0  0
 13 14  1  0  0  0
 13 31  1  0  0  0
 14 15  2  0  0  0
 14 95  1  0  0  0
 15 96  1  0  0  0
 16 17  2  0  0  0
 16 21  1  0  0  0
 16 31  1  0  0  0
 17 18  1  0  0  0
 17 97  1  0  0  0
 18 19  2  0  0  0
 18 98  1  0  0  0
 19 20  1  0  0  0
 19 24  1  0  0  0
 20 21  2  0  0  0
 20 99  1  0  0  0
 21 23  1  0  0  0
 22 28  1  0  0  0
 22 32  2  0  0  0
 26 27  1  0  0  0
 28100  1  0  0  0
 28101  1  0  0  0
 29102  1  0  0  0
 29103  1  0  0  0
 33 34  1  0  0  0
 33 66  1  0  0  0
 33 70  2  0  0  0
 34 36  1  0  0  0
 34 59  1  0  0  0
 34104  1  0  0  0
 35 44  2  0  0  0
 35 45  1  0  0  0
 35 68  1  0  0  0
 36 56  1  0  0  0
 36105  1  0  0  0
 37 39  1  0  0  0
 37 47  1  0  0  0
 37 66  1  0  0  0
 37106  1  0  0  0
 38 43  2  0  0  0
 38 46  1  0  0  0
 38 47  1  0  0  0
 39 64  1  0  0  0
 39 67  2  0  0  0
 40 52  1  0  0  0
 40 53  2  0  0  0
 40 58  1  0  0  0
 41107  1  0  0  0
 41108  1  0  0  0
 41109  1  0  0  0
 41 48  1  0  0  0
 42 43  1  0  0  0
 42 66  1  0  0  0
 42110  1  0  0  0
 42111  1  0  0  0
 43 44  1  0  0  0
 44112  1  0  0  0
 45 46  2  0  0  0
 45113  1  0  0  0
 46114  1  0  0  0
 47115  1  0  0  0
 47116  1  0  0  0
 48 56  1  0  0  0
 48 65  1  0  0  0
 48117  1  0  0  0
 49 50  1  0  0  0
 49 53  1  0  0  0
 49 64  1  0  0  0
 49118  1  0  0  0
 50 51  1  0  0  0
 50119  1  0  0  0
 50120  1  0  0  0
 51 52  1  0  0  0
 51121  1  0  0  0
 51122  1  0  0  0
 52123  1  0  0  0
 52124  1  0  0  0
 53 54  1  0  0  0
 54 55  2  0  0  0
 54125  1  0  0  0
 55 57  1  0  0  0
 55126  1  0  0  0
 56 69  2  0  0  0
 57 58  2  0  0  0
 57127  1  0  0  0
 58128  1  0  0  0
 59 60  1  0  0  0
 59 61  1  0  0  0
 59 62  1  0  0  0
 60129  1  0  0  0
 60130  1  0  0  0
 60131  1  0  0  0
 61132  1  0  0  0
 61133  1  0  0  0
 61134  1  0  0  0
 62135  1  0  0  0
 62136  1  0  0  0
 62137  1  0  0  0
 63 65  1  0  0  0
 63138  1  0  0  0
 63139  1  0  0  0
 63140  1  0  0  0
 64141  1  0  0  0
 65142  1  0  0  0
 68 81  1  0  0  0
 71 72  2  0  0  0
 71 82  1  0  0  0
 71143  1  0  0  0
 72 73  1  0  0  0
 72 75  1  0  0  0
 73 74  2  0  0  0
 73 76  1  0  0  0
 74 77  1  0  0  0
 74 82  1  0  0  0
 75144  1  0  0  0
 75145  1  0  0  0
 75146  1  0  0  0
 76147  1  0  0  0
 76148  1  0  0  0
 76149  1  0  0  0
 77 80  1  0  0  0
 77150  1  0  0  0
 77151  1  0  0  0
 78 79  1  0  0  0
 78 81  1  0  0  0
 78152  1  0  0  0
 78153  1  0  0  0
 79 82  1  0  0  0
 79154  1  0  0  0
 79155  1  0  0  0
 80 83  1  0  0  0
 80156  1  0  0  0
 80157  1  0  0  0
 81158  1  0  0  0
 81159  1  0  0  0
 83160  1  0  0  0
M  ISO  4   1 100  68 101  81 101  83 100
M  END
> <chiral flag>
0

> <version>
0

> <s_m_source_file>
/data/baiqing/PycharmProjects/Reinvent-master-3.2/result/LINK_invent/BTK/process_docking_weight1_custom_sum_contain_oxygen_bond_distance_aromatic_linkinvent_7_9_3/rearranged_h_0083.sdf

> <i_m_source_file_index>
57

> <r_mmod_Potential_Energy-OPLS-2005>
144.361785888672

> <r_mmod_Stretch_Energy-OPLS-2005>
136.566787719727

> <r_mmod_Bend_Energy-OPLS-2005>
196.295684814453

> <r_mmod_Torsional_Energy-OPLS-2005>
243.628723144531

> <r_mmod_Improper_Torsional_Energy-OPLS-2005>
5.82433366775513

> <r_mmod_Van_der_Waal_Energy-OPLS-2005>
118.338813781738

> <r_mmod_Electrostatic_Energy-OPLS-2005>
-422.309417724609

> <r_mmod_Solvation_Energy-OPLS-2005>
-218.833450317383

> <b_mmod_Minimization_Converged-OPLS-2005>
0

> <r_mmod_RMS_Derivative-OPLS-2005>
1.19037282466888

$$$$
57
                    3D
 Structure written by MMmdl.
158166  0  0  1  0            999 V2000
  -30.5684  -14.8914   20.4140 C   0  0  0  0  0  0
  -30.4321  -12.5449   19.5037 C   0  0  0  0  0  0
  -29.5190  -12.5302   18.2571 C   0  0  0  0  0  0
  -28.0510  -12.3235   18.6702 C   0  0  0  0  0  0
  -27.6336  -13.2471   19.8444 C   0  0  2  0  0  0
  -28.6730  -13.2560   20.9859 C   0  0  0  0  0  0
  -25.2477  -13.8210   20.5714 C   0  0  0  0  0  0
  -24.1793  -13.0440   20.9204 C   0  0  0  0  0  0
  -24.6397  -11.6918   20.8741 C   0  0  0  0  0  0
  -23.9074  -10.4289   21.0396 C   0  0  0  0  0  0
  -24.3615   -9.4202   21.9176 C   0  0  0  0  0  0
  -23.6280   -8.2246   22.0756 C   0  0  0  0  0  0
  -22.4261   -8.0287   21.3548 C   0  0  0  0  0  0
  -21.9904   -9.0257   20.4648 C   0  0  0  0  0  0
  -22.7240  -10.2131   20.3052 C   0  0  0  0  0  0
  -21.6856   -6.0725   22.5274 C   0  0  0  0  0  0
  -21.4010   -6.5639   23.8202 C   0  0  0  0  0  0
  -21.3663   -5.6797   24.9164 C   0  0  0  0  0  0
  -21.6048   -4.3058   24.7223 C   0  0  0  0  0  0
  -21.8820   -3.8142   23.4346 C   0  0  0  0  0  0
  -21.9187   -4.6952   22.3398 C   0  0  0  0  0  0
  -22.7812  -13.5208   21.1861 C   0  0  0  0  0  0
  -22.1658   -4.2135   21.0978 F   0  0  0  0  0  0
  -21.5624   -3.4547   25.7737 F   0  0  0  0  0  0
  -29.9603  -13.6413   20.3966 N   0  0  0  0  0  0
  -26.2910  -12.9447   20.3261 N   0  0  0  0  0  0
  -25.9334  -11.6575   20.5717 N   0  0  0  0  0  0
  -22.0466  -12.8197   22.0417 N   0  0  0  0  0  0
  -25.4174  -15.1939   20.4160 N   0  0  0  0  0  0
  -31.7647  -14.9428   20.1097 O   0  0  0  0  0  0
  -21.6654   -6.8861   21.4234 O   0  0  0  0  0  0
  -22.3514  -14.5512   20.6702 O   0  0  0  0  0  0
  -24.6381  -31.8433   23.1896 C   0  0  0  0  0  0
  -25.9171  -32.4699   23.8259 C   0  0  1  0  0  0
  -27.2186  -27.1598   20.1544 C   0  0  0  0  0  0
  -25.5925  -33.8508   24.2202 N   0  0  0  0  0  0
  -23.4398  -30.4645   21.5316 C   0  0  2  0  0  0
  -24.8885  -28.8872   20.1119 C   0  0  0  0  0  0
  -22.7514  -29.4574   22.4850 C   0  0  0  0  0  0
  -18.0291  -28.1415   22.8459 C   0  0  0  0  0  0
  -24.1488  -36.7254   23.2638 C   0  0  0  0  0  0
  -25.9893  -30.7253   21.3834 C   0  0  0  0  0  0
  -26.0614  -29.3378   20.7293 C   0  0  0  0  0  0
  -27.2232  -28.4867   20.7359 C   0  0  0  0  0  0
  -26.0198  -26.7992   19.4997 C   0  0  0  0  0  0
  -24.8786  -27.6309   19.4844 C   0  0  0  0  0  0
  -23.6663  -29.7903   20.1514 C   0  0  0  0  0  0
  -25.4117  -36.3042   24.0321 C   0  0  1  0  0  0
  -20.5881  -28.3754   23.1210 C   0  0  2  0  0  0
  -20.6766  -26.9453   22.5396 C   0  0  0  0  0  0
  -19.5735  -26.6374   21.5225 C   0  0  0  0  0  0
  -18.1930  -26.7947   22.1639 C   0  0  0  0  0  0
  -19.1540  -28.8897   23.2831 C   0  0  0  0  0  0
  -18.9467  -30.1473   23.8882 C   0  0  0  0  0  0
  -17.6473  -30.6583   24.0579 C   0  0  0  0  0  0
  -25.9060  -34.9413   23.5075 C   0  0  0  0  0  0
  -16.5367  -29.9091   23.6333 C   0  0  0  0  0  0
  -16.7269  -28.6513   23.0340 C   0  0  0  0  0  0
  -26.4535  -31.6559   25.0690 C   0  0  0  0  0  0
  -25.3727  -31.3744   26.1398 C   0  0  0  0  0  0
  -27.0407  -30.2967   24.6249 C   0  0  0  0  0  0
  -27.6073  -32.4338   25.7456 C   0  0  0  0  0  0
  -27.5579  -37.1794   24.8473 C   0  0  0  0  0  0
  -21.4201  -29.3123   22.3614 N   0  0  0  0  0  0
  -26.4292  -37.3748   23.9414 N   0  0  0  0  0  0
  -24.7080  -31.0329   22.0904 N   0  0  0  0  0  0
  -23.4170  -28.8093   23.2962 O   0  0  0  0  0  0
  -28.3099  -26.2354   20.2611 O   0  0  0  0  0  0
  -26.5663  -34.8906   22.4659 O   0  0  0  0  0  0
  -23.5516  -32.1283   23.7154 O   0  0  0  0  0  0
  -28.3622  -19.3619   20.8747 C   0  0  0  0  0  0
  -29.9860  -21.3849   20.0249 C   0  0  0  0  0  0
  -27.9664  -20.7503   21.0452 C   0  0  0  0  0  0
  -28.7692  -21.8688   20.5975 C   0  0  0  0  0  0
  -29.6032  -18.9861   20.2928 C   0  0  0  0  0  0
  -26.6628  -21.0068   21.7778 C   0  0  0  0  0  0
  -29.3651  -23.8873   22.0933 C   0  0  0  0  0  0
  -29.8722  -17.3351   18.3774 C   0  0  0  0  0  0
  -28.3314  -24.7352   19.8690 C   0  0  0  0  0  0
  -28.4491  -23.4610   20.9367 C   0  0  1  0  0  0
  -30.1359  -17.4815   19.8880 C   0  0  2  0  0  0
  -30.3672  -20.0558   19.8842 N   0  0  0  0  0  0
  -29.8135  -16.0834   20.5144 N   0  0  0  0  0  0
  -31.4718  -12.6765   19.1961 H   0  0  0  0  0  0
  -30.3905  -11.5836   20.0207 H   0  0  0  0  0  0
  -29.8303  -11.7475   17.5642 H   0  0  0  0  0  0
  -29.6217  -13.4719   17.7149 H   0  0  0  0  0  0
  -27.9361  -11.2785   18.9628 H   0  0  0  0  0  0
  -27.3906  -12.4760   17.8156 H   0  0  0  0  0  0
  -27.6042  -14.2552   19.4283 H   0  0  0  0  0  0
  -28.7408  -12.2792   21.4655 H   0  0  0  0  0  0
  -28.3839  -13.9639   21.7641 H   0  0  0  0  0  0
  -25.2762   -9.5659   22.4751 H   0  0  0  0  0  0
  -23.9979   -7.4638   22.7486 H   0  0  0  0  0  0
  -21.0831   -8.8781   19.8961 H   0  0  0  0  0  0
  -22.3704  -10.9666   19.6161 H   0  0  0  0  0  0
  -21.2009   -7.6149   23.9706 H   0  0  0  0  0  0
  -21.1485   -6.0520   25.9066 H   0  0  0  0  0  0
  -22.0594   -2.7605   23.2852 H   0  0  0  0  0  0
  -22.4099  -11.9869   22.4807 H   0  0  0  0  0  0
  -21.1089  -13.1238   22.2632 H   0  0  0  0  0  0
  -24.6536  -15.8497   20.5362 H   0  0  0  0  0  0
  -26.2629  -15.6321   20.0802 H   0  0  0  0  0  0
  -26.7215  -32.5328   23.0966 H   0  0  0  0  0  0
  -25.0092  -33.9607   25.0372 H   0  0  0  0  0  0
  -22.7428  -31.2903   21.3776 H   0  0  0  0  0  0
  -23.3762  -35.9581   23.3312 H   0  0  0  0  0  0
  -24.3564  -36.8876   22.2051 H   0  0  0  0  0  0
  -23.7237  -37.6446   23.6666 H   0  0  0  0  0  0
  -26.1386  -31.4757   20.6074 H   0  0  0  0  0  0
  -26.8599  -30.7759   22.0253 H   0  0  0  0  0  0
  -28.1172  -28.8186   21.2457 H   0  0  0  0  0  0
  -25.9209  -25.8388   19.0200 H   0  0  0  0  0  0
  -23.9817  -27.2788   18.9942 H   0  0  0  0  0  0
  -23.8112  -30.5620   19.3941 H   0  0  0  0  0  0
  -22.7795  -29.2350   19.8378 H   0  0  0  0  0  0
  -25.1306  -36.1871   25.0815 H   0  0  0  0  0  0
  -20.9961  -28.3334   24.1347 H   0  0  0  0  0  0
  -20.5635  -26.2384   23.3630 H   0  0  0  0  0  0
  -21.6642  -26.7473   22.1214 H   0  0  0  0  0  0
  -19.6877  -25.6265   21.1306 H   0  0  0  0  0  0
  -19.6654  -27.3128   20.6711 H   0  0  0  0  0  0
  -17.4186  -26.6647   21.4070 H   0  0  0  0  0  0
  -18.0336  -26.0122   22.9063 H   0  0  0  0  0  0
  -19.7940  -30.7299   24.2243 H   0  0  0  0  0  0
  -17.5054  -31.6244   24.5224 H   0  0  0  0  0  0
  -15.5384  -30.3013   23.7670 H   0  0  0  0  0  0
  -15.8666  -28.0831   22.7050 H   0  0  0  0  0  0
  -25.8076  -30.9532   27.0468 H   0  0  0  0  0  0
  -24.6256  -30.6616   25.7900 H   0  0  0  0  0  0
  -24.8478  -32.2830   26.4318 H   0  0  0  0  0  0
  -26.3033  -29.6695   24.1229 H   0  0  0  0  0  0
  -27.4022  -29.7234   25.4802 H   0  0  0  0  0  0
  -27.8933  -30.4243   23.9568 H   0  0  0  0  0  0
  -27.2722  -33.3753   26.1818 H   0  0  0  0  0  0
  -28.3966  -32.6684   25.0308 H   0  0  0  0  0  0
  -28.0642  -31.8587   26.5518 H   0  0  0  0  0  0
  -28.2592  -38.0095   24.7499 H   0  0  0  0  0  0
  -28.1070  -36.2615   24.6320 H   0  0  0  0  0  0
  -27.2294  -37.1474   25.8876 H   0  0  0  0  0  0
  -20.9422  -29.8922   21.6861 H   0  0  0  0  0  0
  -26.0157  -38.2815   24.1424 H   0  0  0  0  0  0
  -27.6971  -18.5705   21.1942 H   0  0  0  0  0  0
  -30.7214  -22.1056   19.7002 H   0  0  0  0  0  0
  -26.2456  -20.0849   22.1822 H   0  0  0  0  0  0
  -25.9275  -21.4436   21.1028 H   0  0  0  0  0  0
  -26.8155  -21.6799   22.6213 H   0  0  0  0  0  0
  -29.2497  -23.2204   22.9486 H   0  0  0  0  0  0
  -29.1255  -24.8930   22.4404 H   0  0  0  0  0  0
  -30.4144  -23.8784   21.7991 H   0  0  0  0  0  0
  -30.3052  -18.1669   17.8215 H   0  0  0  0  0  0
  -28.8022  -17.3281   18.1693 H   0  0  0  0  0  0
  -30.2997  -16.4215   17.9641 H   0  0  0  0  0  0
  -27.5176  -24.5080   19.1849 H   0  0  0  0  0  0
  -29.2195  -24.6610   19.2417 H   0  0  0  0  0  0
  -27.4521  -23.4541   21.3722 H   0  0  0  0  0  0
  -31.2170  -17.5620   20.0052 H   0  0  0  0  0  0
  -28.8619  -15.9719   20.8277 H   0  0  0  0  0  0
  1 25  1  0  0  0
  1 30  2  0  0  0
  1 83  1  0  0  0
  2  3  1  0  0  0
  2 25  1  0  0  0
  2 84  1  0  0  0
  2 85  1  0  0  0
  3  4  1  0  0  0
  3 86  1  0  0  0
  3 87  1  0  0  0
  4  5  1  0  0  0
  4 88  1  0  0  0
  4 89  1  0  0  0
  5  6  1  0  0  0
  5 26  1  0  0  0
  5 90  1  0  0  0
  6 25  1  0  0  0
  6 91  1  0  0  0
  6 92  1  0  0  0
  7  8  2  0  0  0
  7 26  1  0  0  0
  7 29  1  0  0  0
  8  9  1  0  0  0
  8 22  1  0  0  0
  9 10  1  0  0  0
  9 27  2  0  0  0
 10 11  2  0  0  0
 10 15  1  0  0  0
 11 12  1  0  0  0
 11 93  1  0  0  0
 12 13  2  0  0  0
 12 94  1  0  0  0
 13 14  1  0  0  0
 13 31  1  0  0  0
 14 15  2  0  0  0
 14 95  1  0  0  0
 15 96  1  0  0  0
 16 17  2  0  0  0
 16 21  1  0  0  0
 16 31  1  0  0  0
 17 18  1  0  0  0
 17 97  1  0  0  0
 18 19  2  0  0  0
 18 98  1  0  0  0
 19 20  1  0  0  0
 19 24  1  0  0  0
 20 21  2  0  0  0
 20 99  1  0  0  0
 21 23  1  0  0  0
 22 28  1  0  0  0
 22 32  2  0  0  0
 26 27  1  0  0  0
 28100  1  0  0  0
 28101  1  0  0  0
 29102  1  0  0  0
 29103  1  0  0  0
 33 34  1  0  0  0
 33 66  1  0  0  0
 33 70  2  0  0  0
 34 36  1  0  0  0
 34 59  1  0  0  0
 34104  1  0  0  0
 35 44  2  0  0  0
 35 45  1  0  0  0
 35 68  1  0  0  0
 36 56  1  0  0  0
 36105  1  0  0  0
 37 39  1  0  0  0
 37 47  1  0  0  0
 37 66  1  0  0  0
 37106  1  0  0  0
 38 43  2  0  0  0
 38 46  1  0  0  0
 38 47  1  0  0  0
 39 64  1  0  0  0
 39 67  2  0  0  0
 40 52  1  0  0  0
 40 53  2  0  0  0
 40 58  1  0  0  0
 41107  1  0  0  0
 41108  1  0  0  0
 41109  1  0  0  0
 41 48  1  0  0  0
 42 43  1  0  0  0
 42 66  1  0  0  0
 42110  1  0  0  0
 42111  1  0  0  0
 43 44  1  0  0  0
 44112  1  0  0  0
 45 46  2  0  0  0
 45113  1  0  0  0
 46114  1  0  0  0
 47115  1  0  0  0
 47116  1  0  0  0
 48 56  1  0  0  0
 48 65  1  0  0  0
 48117  1  0  0  0
 49 50  1  0  0  0
 49 53  1  0  0  0
 49 64  1  0  0  0
 49118  1  0  0  0
 50 51  1  0  0  0
 50119  1  0  0  0
 50120  1  0  0  0
 51 52  1  0  0  0
 51121  1  0  0  0
 51122  1  0  0  0
 52123  1  0  0  0
 52124  1  0  0  0
 53 54  1  0  0  0
 54 55  2  0  0  0
 54125  1  0  0  0
 55 57  1  0  0  0
 55126  1  0  0  0
 56 69  2  0  0  0
 57 58  2  0  0  0
 57127  1  0  0  0
 58128  1  0  0  0
 59 60  1  0  0  0
 59 61  1  0  0  0
 59 62  1  0  0  0
 60129  1  0  0  0
 60130  1  0  0  0
 60131  1  0  0  0
 61132  1  0  0  0
 61133  1  0  0  0
 61134  1  0  0  0
 62135  1  0  0  0
 62136  1  0  0  0
 62137  1  0  0  0
 63 65  1  0  0  0
 63138  1  0  0  0
 63139  1  0  0  0
 63140  1  0  0  0
 64141  1  0  0  0
 65142  1  0  0  0
 68 79  1  0  0  0
 71 73  2  0  0  0
 71 75  1  0  0  0
 71143  1  0  0  0
 72 74  2  0  0  0
 72 82  1  0  0  0
 72144  1  0  0  0
 73 74  1  0  0  0
 73 76  1  0  0  0
 74 80  1  0  0  0
 75 81  1  0  0  0
 75 82  2  0  0  0
 76145  1  0  0  0
 76146  1  0  0  0
 76147  1  0  0  0
 77148  1  0  0  0
 77149  1  0  0  0
 77150  1  0  0  0
 77 80  1  0  0  0
 78151  1  0  0  0
 78152  1  0  0  0
 78153  1  0  0  0
 78 81  1  0  0  0
 79 80  1  0  0  0
 79154  1  0  0  0
 79155  1  0  0  0
 80156  1  0  0  0
 81 83  1  0  0  0
 81157  1  0  0  0
 83158  1  0  0  0
M  ISO  4   1 100  68 101  79 101  83 100
M  END
> <chiral flag>
0

> <version>
0

> <s_m_source_file>
/data/baiqing/PycharmProjects/Reinvent-master-3.2/result/LINK_invent/BTK/process_docking_weight1_custom_sum_contain_oxygen_bond_distance_aromatic_linkinvent_7_9_3/rearranged_h_0083.sdf

> <i_m_source_file_index>
58

> <r_mmod_Potential_Energy-OPLS-2005>
161.67041015625

> <r_mmod_Stretch_Energy-OPLS-2005>
210.452438354492

> <r_mmod_Bend_Energy-OPLS-2005>
267.128692626953

> <r_mmod_Torsional_Energy-OPLS-2005>
204.847717285156

> <r_mmod_Improper_Torsional_Energy-OPLS-2005>
8.40388298034668

> <r_mmod_Van_der_Waal_Energy-OPLS-2005>
132.641891479492

> <r_mmod_Electrostatic_Energy-OPLS-2005>
-598.367492675781

> <r_mmod_Solvation_Energy-OPLS-2005>
-222.076782226562

> <b_mmod_Minimization_Converged-OPLS-2005>
0

> <r_mmod_RMS_Derivative-OPLS-2005>
2.80653238296509

$$$$
58
                    3D
 Structure written by MMmdl.
152160  0  0  1  0            999 V2000
  -30.6654  -14.7101   20.5778 C   0  0  0  0  0  0
  -30.4417  -12.4669   19.4776 C   0  0  0  0  0  0
  -29.5114  -12.5412   18.2465 C   0  0  0  0  0  0
  -28.0362  -12.3788   18.6539 C   0  0  0  0  0  0
  -27.6533  -13.2480   19.8794 C   0  0  2  0  0  0
  -28.7017  -13.1452   21.0104 C   0  0  0  0  0  0
  -25.2511  -13.8245   20.5708 C   0  0  0  0  0  0
  -24.1797  -13.0452   20.9188 C   0  0  0  0  0  0
  -24.6431  -11.6944   20.8764 C   0  0  0  0  0  0
  -23.9115  -10.4309   21.0411 C   0  0  0  0  0  0
  -24.3649   -9.4213   21.9183 C   0  0  0  0  0  0
  -23.6308   -8.2251   22.0768 C   0  0  0  0  0  0
  -22.4301   -8.0297   21.3554 C   0  0  0  0  0  0
  -21.9949   -9.0275   20.4658 C   0  0  0  0  0  0
  -22.7289  -10.2140   20.3064 C   0  0  0  0  0  0
  -21.6831   -6.0738   22.5263 C   0  0  0  0  0  0
  -21.4018   -6.5641   23.8199 C   0  0  0  0  0  0
  -21.3663   -5.6795   24.9157 C   0  0  0  0  0  0
  -21.6033   -4.3057   24.7213 C   0  0  0  0  0  0
  -21.8827   -3.8149   23.4338 C   0  0  0  0  0  0
  -21.9201   -4.6965   22.3389 C   0  0  0  0  0  0
  -22.7817  -13.5221   21.1816 C   0  0  0  0  0  0
  -22.1653   -4.2153   21.0958 F   0  0  0  0  0  0
  -21.5639   -3.4537   25.7731 F   0  0  0  0  0  0
  -30.0075  -13.5066   20.4443 N   0  0  0  0  0  0
  -26.3001  -12.9474   20.3455 N   0  0  0  0  0  0
  -25.9389  -11.6611   20.5846 N   0  0  0  0  0  0
  -22.0472  -12.8213   22.0383 N   0  0  0  0  0  0
  -25.4227  -15.1955   20.4061 N   0  0  0  0  0  0
  -31.8222  -14.8252   20.1723 O   0  0  0  0  0  0
  -21.6646   -6.8898   21.4233 O   0  0  0  0  0  0
  -22.3491  -14.5511   20.6656 O   0  0  0  0  0  0
  -24.6188  -31.8618   23.2120 C   0  0  0  0  0  0
  -25.9053  -32.4787   23.8483 C   0  0  1  0  0  0
  -27.2661  -27.3117   20.1885 C   0  0  0  0  0  0
  -25.5931  -33.8610   24.2418 N   0  0  0  0  0  0
  -23.4249  -30.4825   21.5395 C   0  0  2  0  0  0
  -24.9013  -28.9414   20.1197 C   0  0  0  0  0  0
  -22.7466  -29.4594   22.4833 C   0  0  0  0  0  0
  -18.0269  -28.1354   22.8484 C   0  0  0  0  0  0
  -24.1471  -36.7196   23.2650 C   0  0  0  0  0  0
  -25.9689  -30.7874   21.4089 C   0  0  0  0  0  0
  -26.0582  -29.4163   20.7521 C   0  0  0  0  0  0
  -27.2401  -28.6088   20.7943 C   0  0  0  0  0  0
  -26.0864  -26.8888   19.5387 C   0  0  0  0  0  0
  -24.9166  -27.6762   19.5071 C   0  0  0  0  0  0
  -23.6639  -29.8223   20.1524 C   0  0  0  0  0  0
  -25.4071  -36.3091   24.0398 C   0  0  1  0  0  0
  -20.5897  -28.3645   23.1254 C   0  0  2  0  0  0
  -20.6759  -26.9367   22.5397 C   0  0  0  0  0  0
  -19.5718  -26.6357   21.5200 C   0  0  0  0  0  0
  -18.1892  -26.7906   22.1611 C   0  0  0  0  0  0
  -19.1530  -28.8808   23.2852 C   0  0  0  0  0  0
  -18.9472  -30.1427   23.8851 C   0  0  0  0  0  0
  -17.6485  -30.6563   24.0565 C   0  0  0  0  0  0
  -25.9032  -34.9462   23.5190 C   0  0  0  0  0  0
  -16.5372  -29.9064   23.6369 C   0  0  0  0  0  0
  -16.7281  -28.6487   23.0376 C   0  0  0  0  0  0
  -26.4501  -31.6637   25.0873 C   0  0  0  0  0  0
  -25.3740  -31.3704   26.1608 C   0  0  0  0  0  0
  -27.0468  -30.3094   24.6404 C   0  0  0  0  0  0
  -27.6094  -32.4410   25.7555 C   0  0  0  0  0  0
  -27.5618  -37.1648   24.8415 C   0  0  0  0  0  0
  -21.4178  -29.3011   22.3625 N   0  0  0  0  0  0
  -26.4218  -37.3819   23.9554 N   0  0  0  0  0  0
  -24.6831  -31.0627   22.1061 N   0  0  0  0  0  0
  -23.4204  -28.8090   23.2878 O   0  0  0  0  0  0
  -28.3498  -26.4060   20.2341 O   0  0  0  0  0  0
  -26.5599  -34.8920   22.4755 O   0  0  0  0  0  0
  -23.5332  -32.1448   23.7403 O   0  0  0  0  0  0
  -29.8695  -23.4701   19.8770 C   0  0  0  0  0  0
  -28.8733  -23.8380   20.7604 C   0  0  0  0  0  0
  -29.7006  -21.3713   20.9403 C   0  0  0  0  0  0
  -30.5236  -24.3729   18.8761 C   0  0  0  0  0  0
  -28.0637  -25.1627   21.0051 C   0  0  0  0  0  0
  -30.2156  -19.9752   21.4407 C   0  0  0  0  0  0
  -29.5683  -18.5454   21.0709 C   0  0  0  0  0  0
  -30.4845  -17.2307   21.3180 C   0  0  0  0  0  0
  -30.2814  -22.1019   19.9656 N   0  0  0  0  0  0
  -29.9680  -15.8152   21.0462 N   0  0  0  0  0  0
  -28.4986  -22.4075   21.7676 S   0  0  0  0  0  0
  -31.4772  -12.6031   19.1639 H   0  0  0  0  0  0
  -30.4022  -11.4802   19.9406 H   0  0  0  0  0  0
  -29.7847  -11.7773   17.5166 H   0  0  0  0  0  0
  -29.6452  -13.5033   17.7461 H   0  0  0  0  0  0
  -27.8630  -11.3245   18.8720 H   0  0  0  0  0  0
  -27.3889  -12.6238   17.8127 H   0  0  0  0  0  0
  -27.6595  -14.2818   19.5327 H   0  0  0  0  0  0
  -28.7305  -12.1346   21.4197 H   0  0  0  0  0  0
  -28.4405  -13.8013   21.8423 H   0  0  0  0  0  0
  -25.2794   -9.5651   22.4776 H   0  0  0  0  0  0
  -23.9974   -7.4653   22.7501 H   0  0  0  0  0  0
  -21.0872   -8.8826   19.8966 H   0  0  0  0  0  0
  -22.3764  -10.9697   19.6182 H   0  0  0  0  0  0
  -21.2007   -7.6146   23.9698 H   0  0  0  0  0  0
  -21.1469   -6.0522   25.9058 H   0  0  0  0  0  0
  -22.0612   -2.7613   23.2827 H   0  0  0  0  0  0
  -22.4078  -11.9843   22.4732 H   0  0  0  0  0  0
  -21.1099  -13.1274   22.2649 H   0  0  0  0  0  0
  -24.6621  -15.8630   20.4966 H   0  0  0  0  0  0
  -26.2786  -15.6197   20.0705 H   0  0  0  0  0  0
  -26.7113  -32.5569   23.1234 H   0  0  0  0  0  0
  -25.0230  -33.9787   25.0679 H   0  0  0  0  0  0
  -22.7150  -31.2993   21.3888 H   0  0  0  0  0  0
  -23.3859  -35.9395   23.3213 H   0  0  0  0  0  0
  -24.3600  -36.8913   22.2086 H   0  0  0  0  0  0
  -23.7058  -37.6293   23.6720 H   0  0  0  0  0  0
  -26.1294  -31.5625   20.6593 H   0  0  0  0  0  0
  -26.8255  -30.8232   22.0689 H   0  0  0  0  0  0
  -28.0956  -28.9536   21.3607 H   0  0  0  0  0  0
  -26.0611  -25.9061   19.0944 H   0  0  0  0  0  0
  -24.0352  -27.2898   19.0148 H   0  0  0  0  0  0
  -23.7881  -30.6102   19.4048 H   0  0  0  0  0  0
  -22.7926  -29.2474   19.8368 H   0  0  0  0  0  0
  -25.1180  -36.1926   25.0867 H   0  0  0  0  0  0
  -20.9991  -28.3264   24.1368 H   0  0  0  0  0  0
  -20.5667  -26.2232   23.3593 H   0  0  0  0  0  0
  -21.6612  -26.7393   22.1141 H   0  0  0  0  0  0
  -19.6907  -25.6256   21.1207 H   0  0  0  0  0  0
  -19.6698  -27.3215   20.6748 H   0  0  0  0  0  0
  -17.4164  -26.6712   21.4005 H   0  0  0  0  0  0
  -18.0246  -26.0026   22.8961 H   0  0  0  0  0  0
  -19.7980  -30.7225   24.2217 H   0  0  0  0  0  0
  -17.5061  -31.6275   24.5122 H   0  0  0  0  0  0
  -15.5356  -30.2954   23.7712 H   0  0  0  0  0  0
  -15.8673  -28.0811   22.7092 H   0  0  0  0  0  0
  -24.5933  -30.7060   25.7907 H   0  0  0  0  0  0
  -24.8878  -32.2800   26.5132 H   0  0  0  0  0  0
  -25.8028  -30.8819   27.0367 H   0  0  0  0  0  0
  -26.3163  -29.6707   24.1420 H   0  0  0  0  0  0
  -27.4203  -29.7479   25.4989 H   0  0  0  0  0  0
  -27.8989  -30.4464   23.9738 H   0  0  0  0  0  0
  -27.2813  -33.3760   26.2082 H   0  0  0  0  0  0
  -28.3824  -32.6876   25.0282 H   0  0  0  0  0  0
  -28.0851  -31.8597   26.5451 H   0  0  0  0  0  0
  -28.2302  -38.0261   24.7974 H   0  0  0  0  0  0
  -28.1416  -36.2839   24.5570 H   0  0  0  0  0  0
  -27.2406  -37.0455   25.8787 H   0  0  0  0  0  0
  -20.9321  -29.8788   21.6946 H   0  0  0  0  0  0
  -26.0094  -38.2808   24.1916 H   0  0  0  0  0  0
  -31.4622  -23.9612   18.4992 H   0  0  0  0  0  0
  -30.7527  -25.3460   19.3131 H   0  0  0  0  0  0
  -29.8594  -24.5470   18.0313 H   0  0  0  0  0  0
  -28.1991  -25.4368   22.0507 H   0  0  0  0  0  0
  -27.0130  -24.8958   20.9006 H   0  0  0  0  0  0
  -30.2269  -20.0578   22.5280 H   0  0  0  0  0  0
  -31.2718  -19.9305   21.1731 H   0  0  0  0  0  0
  -29.2590  -18.5593   20.0250 H   0  0  0  0  0  0
  -28.6475  -18.4479   21.6544 H   0  0  0  0  0  0
  -30.7772  -17.2352   22.3696 H   0  0  0  0  0  0
  -31.4130  -17.3833   20.7660 H   0  0  0  0  0  0
  -29.0259  -15.6183   21.3461 H   0  0  0  0  0  0
  1 25  1  0  0  0
  1 30  2  0  0  0
  1 80  1  0  0  0
  2  3  1  0  0  0
  2 25  1  0  0  0
  2 82  1  0  0  0
  2 83  1  0  0  0
  3  4  1  0  0  0
  3 84  1  0  0  0
  3 85  1  0  0  0
  4  5  1  0  0  0
  4 86  1  0  0  0
  4 87  1  0  0  0
  5  6  1  0  0  0
  5 26  1  0  0  0
  5 88  1  0  0  0
  6 25  1  0  0  0
  6 89  1  0  0  0
  6 90  1  0  0  0
  7  8  2  0  0  0
  7 26  1  0  0  0
  7 29  1  0  0  0
  8  9  1  0  0  0
  8 22  1  0  0  0
  9 10  1  0  0  0
  9 27  2  0  0  0
 10 11  2  0  0  0
 10 15  1  0  0  0
 11 12  1  0  0  0
 11 91  1  0  0  0
 12 13  2  0  0  0
 12 92  1  0  0  0
 13 14  1  0  0  0
 13 31  1  0  0  0
 14 15  2  0  0  0
 14 93  1  0  0  0
 15 94  1  0  0  0
 16 17  2  0  0  0
 16 21  1  0  0  0
 16 31  1  0  0  0
 17 18  1  0  0  0
 17 95  1  0  0  0
 18 19  2  0  0  0
 18 96  1  0  0  0
 19 20  1  0  0  0
 19 24  1  0  0  0
 20 21  2  0  0  0
 20 97  1  0  0  0
 21 23  1  0  0  0
 22 28  1  0  0  0
 22 32  2  0  0  0
 26 27  1  0  0  0
 28 98  1  0  0  0
 28 99  1  0  0  0
 29100  1  0  0  0
 29101  1  0  0  0
 33 34  1  0  0  0
 33 66  1  0  0  0
 33 70  2  0  0  0
 34 36  1  0  0  0
 34 59  1  0  0  0
 34102  1  0  0  0
 35 44  2  0  0  0
 35 45  1  0  0  0
 35 68  1  0  0  0
 36 56  1  0  0  0
 36103  1  0  0  0
 37 39  1  0  0  0
 37 47  1  0  0  0
 37 66  1  0  0  0
 37104  1  0  0  0
 38 43  2  0  0  0
 38 46  1  0  0  0
 38 47  1  0  0  0
 39 64  1  0  0  0
 39 67  2  0  0  0
 40 52  1  0  0  0
 40 53  2  0  0  0
 40 58  1  0  0  0
 41105  1  0  0  0
 41106  1  0  0  0
 41107  1  0  0  0
 41 48  1  0  0  0
 42 43  1  0  0  0
 42 66  1  0  0  0
 42108  1  0  0  0
 42109  1  0  0  0
 43 44  1  0  0  0
 44110  1  0  0  0
 45 46  2  0  0  0
 45111  1  0  0  0
 46112  1  0  0  0
 47113  1  0  0  0
 47114  1  0  0  0
 48 56  1  0  0  0
 48 65  1  0  0  0
 48115  1  0  0  0
 49 50  1  0  0  0
 49 53  1  0  0  0
 49 64  1  0  0  0
 49116  1  0  0  0
 50 51  1  0  0  0
 50117  1  0  0  0
 50118  1  0  0  0
 51 52  1  0  0  0
 51119  1  0  0  0
 51120  1  0  0  0
 52121  1  0  0  0
 52122  1  0  0  0
 53 54  1  0  0  0
 54 55  2  0  0  0
 54123  1  0  0  0
 55 57  1  0  0  0
 55124  1  0  0  0
 56 69  2  0  0  0
 57 58  2  0  0  0
 57125  1  0  0  0
 58126  1  0  0  0
 59 60  1  0  0  0
 59 61  1  0  0  0
 59 62  1  0  0  0
 60127  1  0  0  0
 60128  1  0  0  0
 60129  1  0  0  0
 61130  1  0  0  0
 61131  1  0  0  0
 61132  1  0  0  0
 62133  1  0  0  0
 62134  1  0  0  0
 62135  1  0  0  0
 63 65  1  0  0  0
 63136  1  0  0  0
 63137  1  0  0  0
 63138  1  0  0  0
 64139  1  0  0  0
 65140  1  0  0  0
 68 75  1  0  0  0
 71 72  2  0  0  0
 71 74  1  0  0  0
 71 79  1  0  0  0
 72 75  1  0  0  0
 72 81  1  0  0  0
 73 76  1  0  0  0
 73 79  2  0  0  0
 73 81  1  0  0  0
 74141  1  0  0  0
 74142  1  0  0  0
 74143  1  0  0  0
 75144  1  0  0  0
 75145  1  0  0  0
 76 77  1  0  0  0
 76146  1  0  0  0
 76147  1  0  0  0
 77 78  1  0  0  0
 77148  1  0  0  0
 77149  1  0  0  0
 78 80  1  0  0  0
 78150  1  0  0  0
 78151  1  0  0  0
 80152  1  0  0  0
M  ISO  4   1 100  68 101  75 101  80 100
M  END
> <chiral flag>
0

> <version>
0

> <s_m_source_file>
/data/baiqing/PycharmProjects/Reinvent-master-3.2/result/LINK_invent/BTK/process_docking_weight1_custom_sum_contain_oxygen_bond_distance_aromatic_linkinvent_7_9_3/rearranged_h_0083.sdf

> <i_m_source_file_index>
59

> <r_mmod_Potential_Energy-OPLS-2005>
88.0878219604492

> <r_mmod_Stretch_Energy-OPLS-2005>
106.363296508789

> <r_mmod_Bend_Energy-OPLS-2005>
174.512420654297

> <r_mmod_Torsional_Energy-OPLS-2005>
214.52326965332

> <r_mmod_Improper_Torsional_Energy-OPLS-2005>
4.47298765182495

> <r_mmod_Van_der_Waal_Energy-OPLS-2005>
115.793594360352

> <r_mmod_Electrostatic_Energy-OPLS-2005>
-382.795257568359

> <r_mmod_Solvation_Energy-OPLS-2005>
-216.301223754883

> <b_mmod_Minimization_Converged-OPLS-2005>
0

> <r_mmod_RMS_Derivative-OPLS-2005>
8.1276273727417

$$$$
59
                    3D
 Structure written by MMmdl.
169177  0  0  1  0            999 V2000
  -30.2328  -16.2977   20.1422 C   0  0  0  0  0  0
  -30.4173  -13.5311   19.3611 C   0  0  0  0  0  0
  -29.5713  -12.7688   18.2849 C   0  0  0  0  0  0
  -28.2016  -12.3238   18.8244 C   0  0  0  0  0  0
  -27.6080  -13.3935   19.7555 C   0  0  2  0  0  0
  -28.6711  -14.0415   20.7116 C   0  0  0  0  0  0
  -25.2453  -13.8456   20.5970 C   0  0  0  0  0  0
  -24.1886  -13.0499   20.9412 C   0  0  0  0  0  0
  -24.6666  -11.7024   20.8766 C   0  0  0  0  0  0
  -23.9317  -10.4325   21.0320 C   0  0  0  0  0  0
  -24.3730   -9.4214   21.9148 C   0  0  0  0  0  0
  -23.6340   -8.2260   22.0769 C   0  0  0  0  0  0
  -22.4315   -8.0292   21.3559 C   0  0  0  0  0  0
  -22.0011   -9.0294   20.4644 C   0  0  0  0  0  0
  -22.7434  -10.2138   20.3023 C   0  0  0  0  0  0
  -21.6827   -6.0747   22.5291 C   0  0  0  0  0  0
  -21.4020   -6.5644   23.8235 C   0  0  0  0  0  0
  -21.3711   -5.6807   24.9196 C   0  0  0  0  0  0
  -21.6055   -4.3069   24.7239 C   0  0  0  0  0  0
  -21.8787   -3.8156   23.4349 C   0  0  0  0  0  0
  -21.9169   -4.6973   22.3407 C   0  0  0  0  0  0
  -22.7789  -13.5091   21.1986 C   0  0  0  0  0  0
  -22.1629   -4.2154   21.0986 F   0  0  0  0  0  0
  -21.5638   -3.4552   25.7756 F   0  0  0  0  0  0
  -29.7058  -14.8348   19.8793 N   0  0  0  0  0  0
  -26.3124  -13.0022   20.3461 N   0  0  0  0  0  0
  -25.9697  -11.6980   20.5683 N   0  0  0  0  0  0
  -22.0435  -12.8071   22.0512 N   0  0  0  0  0  0
  -25.3836  -15.2222   20.4303 N   0  0  0  0  0  0
  -30.8551  -15.7603   21.1033 O   0  0  0  0  0  0
  -21.6651   -6.8902   21.4249 O   0  0  0  0  0  0
  -22.3401  -14.5339   20.6772 O   0  0  0  0  0  0
  -24.7200  -31.7564   23.1146 C   0  0  0  0  0  0
  -25.9590  -32.4265   23.7857 C   0  0  1  0  0  0
  -27.2972  -26.3210   20.2484 C   0  0  0  0  0  0
  -25.6014  -33.8101   24.1721 N   0  0  0  0  0  0
  -23.5673  -30.3376   21.4826 C   0  0  2  0  0  0
  -25.0381  -28.5867   20.1453 C   0  0  0  0  0  0
  -22.7947  -29.4109   22.4624 C   0  0  0  0  0  0
  -18.0385  -28.1434   22.8459 C   0  0  0  0  0  0
  -24.1525  -36.7096   23.2650 C   0  0  0  0  0  0
  -26.1639  -30.3664   21.4373 C   0  0  0  0  0  0
  -26.2384  -28.8827   20.8004 C   0  0  0  0  0  0
  -27.3335  -27.8013   20.7929 C   0  0  0  0  0  0
  -26.0421  -26.3326   19.5417 C   0  0  0  0  0  0
  -24.9987  -27.3380   19.4924 C   0  0  0  0  0  0
  -23.8495  -29.5869   20.1439 C   0  0  0  0  0  0
  -25.4173  -36.2765   24.0239 C   0  0  1  0  0  0
  -20.6030  -28.3823   23.1114 C   0  0  2  0  0  0
  -20.6839  -26.9460   22.5427 C   0  0  0  0  0  0
  -19.5799  -26.6364   21.5256 C   0  0  0  0  0  0
  -18.1991  -26.7958   22.1639 C   0  0  0  0  0  0
  -19.1650  -28.8962   23.2755 C   0  0  0  0  0  0
  -18.9530  -30.1553   23.8793 C   0  0  0  0  0  0
  -17.6505  -30.6605   24.0556 C   0  0  0  0  0  0
  -25.9167  -34.9179   23.4848 C   0  0  0  0  0  0
  -16.5415  -29.9068   23.6361 C   0  0  0  0  0  0
  -16.7364  -28.6504   23.0371 C   0  0  0  0  0  0
  -26.4639  -31.6451   25.0634 C   0  0  0  0  0  0
  -25.3599  -31.3894   26.1168 C   0  0  0  0  0  0
  -27.0582  -30.2734   24.6786 C   0  0  0  0  0  0
  -27.6027  -32.4392   25.7469 C   0  0  0  0  0  0
  -27.5562  -37.1693   24.8427 C   0  0  0  0  0  0
  -21.4552  -29.3003   22.3374 N   0  0  0  0  0  0
  -26.4265  -37.3566   23.9377 N   0  0  0  0  0  0
  -24.8455  -30.8615   22.0629 N   0  0  0  0  0  0
  -23.4208  -28.7770   23.3156 O   0  0  0  0  0  0
  -28.2906  -24.9766   20.1840 O   0  0  0  0  0  0
  -26.5861  -34.8828   22.4500 O   0  0  0  0  0  0
  -23.6156  -32.0816   23.5880 O   0  0  0  0  0  0
  -31.1850  -18.4251   20.8704 C   0  0  0  0  0  0
  -29.4582  -18.9346   20.0673 C   0  0  0  0  0  0
  -32.4680  -17.1290   19.9897 C   0  0  0  0  0  0
  -28.8926  -17.6825   18.6170 C   0  0  0  0  0  0
  -31.1717  -18.4108   23.3645 C   0  0  0  0  0  0
  -27.4277  -17.0325   16.5916 C   0  0  0  0  0  0
  -27.2557  -20.7389   19.8170 C   0  0  0  0  0  0
  -31.6773  -19.1386   22.1062 C   0  0  0  0  0  0
  -33.8487  -17.6407   19.8789 C   0  0  0  0  0  0
  -27.8208  -18.1107   17.6163 C   0  0  0  0  0  0
  -33.5816  -18.9767   19.1585 C   0  0  0  0  0  0
  -32.2176  -19.0847   18.3545 C   0  0  0  0  0  0
  -28.5957  -23.0382   20.4868 C   0  0  0  0  0  0
  -28.7639  -20.9238   19.9322 C   0  0  1  0  0  0
  -31.8593  -16.1257   18.4375 N   0  0  0  0  0  0
  -30.0876  -16.3952   17.7782 N   0  0  0  0  0  0
  -31.0433  -18.1465   18.6778 N   0  0  0  0  0  0
  -31.3698  -13.7794   18.9050 H   0  0  0  0  0  0
  -30.7202  -12.8601   20.1713 H   0  0  0  0  0  0
  -30.1238  -11.9147   17.8940 H   0  0  0  0  0  0
  -29.4158  -13.4441   17.4414 H   0  0  0  0  0  0
  -28.3525  -11.4082   19.4006 H   0  0  0  0  0  0
  -27.5168  -12.0827   18.0066 H   0  0  0  0  0  0
  -27.3415  -14.1983   19.0682 H   0  0  0  0  0  0
  -29.1006  -13.3044   21.3943 H   0  0  0  0  0  0
  -28.1764  -14.7580   21.3651 H   0  0  0  0  0  0
  -25.2821   -9.5628   22.4777 H   0  0  0  0  0  0
  -24.0015   -7.4633   22.7476 H   0  0  0  0  0  0
  -21.0962   -8.8811   19.8924 H   0  0  0  0  0  0
  -22.3884  -10.9648   19.6118 H   0  0  0  0  0  0
  -21.2015   -7.6148   23.9746 H   0  0  0  0  0  0
  -21.1596   -6.0534   25.9117 H   0  0  0  0  0  0
  -22.0520   -2.7607   23.2849 H   0  0  0  0  0  0
  -22.4112  -11.9767   22.4987 H   0  0  0  0  0  0
  -21.1019  -13.0993   22.2690 H   0  0  0  0  0  0
  -24.5994  -15.8557   20.5486 H   0  0  0  0  0  0
  -26.2293  -15.6788   20.1128 H   0  0  0  0  0  0
  -26.7679  -32.4667   23.0574 H   0  0  0  0  0  0
  -24.9974  -33.9047   24.9747 H   0  0  0  0  0  0
  -22.9183  -31.1843   21.2552 H   0  0  0  0  0  0
  -23.3797  -35.9405   23.3162 H   0  0  0  0  0  0
  -24.3618  -36.8936   22.2096 H   0  0  0  0  0  0
  -23.7286  -37.6220   23.6867 H   0  0  0  0  0  0
  -26.4030  -31.0633   20.6334 H   0  0  0  0  0  0
  -26.9972  -30.4647   22.1183 H   0  0  0  0  0  0
  -28.2472  -28.0758   21.3026 H   0  0  0  0  0  0
  -25.8304  -25.4296   18.9938 H   0  0  0  0  0  0
  -24.1125  -27.1020   18.9196 H   0  0  0  0  0  0
  -24.0456  -30.3261   19.3641 H   0  0  0  0  0  0
  -22.9479  -29.0668   19.8202 H   0  0  0  0  0  0
  -25.1414  -36.1452   25.0731 H   0  0  0  0  0  0
  -21.0149  -28.3466   24.1223 H   0  0  0  0  0  0
  -20.5693  -26.2475   23.3715 H   0  0  0  0  0  0
  -21.6693  -26.7334   22.1256 H   0  0  0  0  0  0
  -19.6933  -25.6245   21.1364 H   0  0  0  0  0  0
  -19.6735  -27.3122   20.6742 H   0  0  0  0  0  0
  -17.4282  -26.6776   21.4028 H   0  0  0  0  0  0
  -18.0300  -26.0117   22.9028 H   0  0  0  0  0  0
  -19.8003  -30.7426   24.2109 H   0  0  0  0  0  0
  -17.5032  -31.6252   24.5182 H   0  0  0  0  0  0
  -15.5402  -30.2908   23.7705 H   0  0  0  0  0  0
  -15.8795  -28.0764   22.7115 H   0  0  0  0  0  0
  -24.5853  -30.7173   25.7449 H   0  0  0  0  0  0
  -24.8711  -32.3155   26.4214 H   0  0  0  0  0  0
  -25.7666  -30.9308   27.0187 H   0  0  0  0  0  0
  -26.3334  -29.6288   24.1792 H   0  0  0  0  0  0
  -27.3855  -29.7296   25.5654 H   0  0  0  0  0  0
  -27.9398  -30.3745   24.0447 H   0  0  0  0  0  0
  -27.2537  -33.3849   26.1631 H   0  0  0  0  0  0
  -28.4027  -32.6689   25.0420 H   0  0  0  0  0  0
  -28.0456  -31.8789   26.5714 H   0  0  0  0  0  0
  -28.2465  -38.0095   24.7538 H   0  0  0  0  0  0
  -28.1188  -36.2618   24.6182 H   0  0  0  0  0  0
  -27.2285  -37.1211   25.8828 H   0  0  0  0  0  0
  -20.9942  -29.8576   21.6325 H   0  0  0  0  0  0
  -26.0052  -38.2587   24.1428 H   0  0  0  0  0  0
  -31.7830  -18.6573   24.2369 H   0  0  0  0  0  0
  -31.2214  -17.3266   23.2375 H   0  0  0  0  0  0
  -30.1329  -18.6586   23.5928 H   0  0  0  0  0  0
  -26.7172  -17.4214   15.8589 H   0  0  0  0  0  0
  -26.9789  -16.1726   17.0847 H   0  0  0  0  0  0
  -28.2834  -16.6696   16.0254 H   0  0  0  0  0  0
  -26.9707  -19.7077   19.6866 H   0  0  0  0  0  0
  -26.8550  -21.3205   18.9853 H   0  0  0  0  0  0
  -26.7659  -21.0718   20.7349 H   0  0  0  0  0  0
  -31.3514  -20.1793   22.0950 H   0  0  0  0  0  0
  -32.7665  -19.1330   22.0849 H   0  0  0  0  0  0
  -34.4773  -16.9496   19.3194 H   0  0  0  0  0  0
  -34.2838  -17.7903   20.8700 H   0  0  0  0  0  0
  -28.1834  -18.9911   17.0826 H   0  0  0  0  0  0
  -26.9126  -18.4020   18.1257 H   0  0  0  0  0  0
  -34.4330  -19.2490   18.5335 H   0  0  0  0  0  0
  -33.5548  -19.7550   19.9253 H   0  0  0  0  0  0
  -32.4702  -18.9015   17.3068 H   0  0  0  0  0  0
  -31.8703  -20.1176   18.3645 H   0  0  0  0  0  0
  -29.6580  -23.1768   20.7252 H   0  0  0  0  0  0
  -28.1143  -22.9536   21.4605 H   0  0  0  0  0  0
  -29.1670  -21.0660   18.9243 H   0  0  0  0  0  0
  -30.6887  -17.7965   17.7880 H   0  0  0  0  0  0
  1 25  1  0  0  0
  1 30  2  0  0  0
  1 87  1  0  0  0
  2  3  1  0  0  0
  2 25  1  0  0  0
  2 88  1  0  0  0
  2 89  1  0  0  0
  3  4  1  0  0  0
  3 90  1  0  0  0
  3 91  1  0  0  0
  4  5  1  0  0  0
  4 92  1  0  0  0
  4 93  1  0  0  0
  5  6  1  0  0  0
  5 26  1  0  0  0
  5 94  1  0  0  0
  6 25  1  0  0  0
  6 95  1  0  0  0
  6 96  1  0  0  0
  7  8  2  0  0  0
  7 26  1  0  0  0
  7 29  1  0  0  0
  8  9  1  0  0  0
  8 22  1  0  0  0
  9 10  1  0  0  0
  9 27  2  0  0  0
 10 11  2  0  0  0
 10 15  1  0  0  0
 11 12  1  0  0  0
 11 97  1  0  0  0
 12 13  2  0  0  0
 12 98  1  0  0  0
 13 14  1  0  0  0
 13 31  1  0  0  0
 14 15  2  0  0  0
 14 99  1  0  0  0
 15100  1  0  0  0
 16 17  2  0  0  0
 16 21  1  0  0  0
 16 31  1  0  0  0
 17 18  1  0  0  0
 17101  1  0  0  0
 18 19  2  0  0  0
 18102  1  0  0  0
 19 20  1  0  0  0
 19 24  1  0  0  0
 20 21  2  0  0  0
 20103  1  0  0  0
 21 23  1  0  0  0
 22 28  1  0  0  0
 22 32  2  0  0  0
 26 27  1  0  0  0
 28104  1  0  0  0
 28105  1  0  0  0
 29106  1  0  0  0
 29107  1  0  0  0
 33 34  1  0  0  0
 33 66  1  0  0  0
 33 70  2  0  0  0
 34 36  1  0  0  0
 34 59  1  0  0  0
 34108  1  0  0  0
 35 44  2  0  0  0
 35 45  1  0  0  0
 35 68  1  0  0  0
 36 56  1  0  0  0
 36109  1  0  0  0
 37 39  1  0  0  0
 37 47  1  0  0  0
 37 66  1  0  0  0
 37110  1  0  0  0
 38 43  2  0  0  0
 38 46  1  0  0  0
 38 47  1  0  0  0
 39 64  1  0  0  0
 39 67  2  0  0  0
 40 52  1  0  0  0
 40 53  2  0  0  0
 40 58  1  0  0  0
 41111  1  0  0  0
 41112  1  0  0  0
 41113  1  0  0  0
 41 48  1  0  0  0
 42 43  1  0  0  0
 42 66  1  0  0  0
 42114  1  0  0  0
 42115  1  0  0  0
 43 44  1  0  0  0
 44116  1  0  0  0
 45 46  2  0  0  0
 45117  1  0  0  0
 46118  1  0  0  0
 47119  1  0  0  0
 47120  1  0  0  0
 48 56  1  0  0  0
 48 65  1  0  0  0
 48121  1  0  0  0
 49 50  1  0  0  0
 49 53  1  0  0  0
 49 64  1  0  0  0
 49122  1  0  0  0
 50 51  1  0  0  0
 50123  1  0  0  0
 50124  1  0  0  0
 51 52  1  0  0  0
 51125  1  0  0  0
 51126  1  0  0  0
 52127  1  0  0  0
 52128  1  0  0  0
 53 54  1  0  0  0
 54 55  2  0  0  0
 54129  1  0  0  0
 55 57  1  0  0  0
 55130  1  0  0  0
 56 69  2  0  0  0
 57 58  2  0  0  0
 57131  1  0  0  0
 58132  1  0  0  0
 59 60  1  0  0  0
 59 61  1  0  0  0
 59 62  1  0  0  0
 60133  1  0  0  0
 60134  1  0  0  0
 60135  1  0  0  0
 61136  1  0  0  0
 61137  1  0  0  0
 61138  1  0  0  0
 62139  1  0  0  0
 62140  1  0  0  0
 62141  1  0  0  0
 63 65  1  0  0  0
 63142  1  0  0  0
 63143  1  0  0  0
 63144  1  0  0  0
 64145  1  0  0  0
 65146  1  0  0  0
 68 83  1  0  0  0
 71 72  2  0  0  0
 71 73  1  0  0  0
 71 78  1  0  0  0
 72 74  1  0  0  0
 72 84  1  0  0  0
 73 79  1  0  0  0
 73 85  2  0  0  0
 74 80  1  0  0  0
 74 86  2  0  0  0
 75 78  1  0  0  0
 75147  1  0  0  0
 75148  1  0  0  0
 75149  1  0  0  0
 76 80  1  0  0  0
 76150  1  0  0  0
 76151  1  0  0  0
 76152  1  0  0  0
 77153  1  0  0  0
 77154  1  0  0  0
 77155  1  0  0  0
 77 84  1  0  0  0
 78156  1  0  0  0
 78157  1  0  0  0
 79 81  1  0  0  0
 79158  1  0  0  0
 79159  1  0  0  0
 80160  1  0  0  0
 80161  1  0  0  0
 81 82  1  0  0  0
 81162  1  0  0  0
 81163  1  0  0  0
 82 87  1  0  0  0
 82164  1  0  0  0
 82165  1  0  0  0
 83 84  1  0  0  0
 83166  1  0  0  0
 83167  1  0  0  0
 84168  1  0  0  0
 85 86  1  0  0  0
 87169  1  0  0  0
M  ISO  4   1 100  68 101  83 101  87 100
M  END
> <chiral flag>
0

> <version>
0

> <s_m_source_file>
/data/baiqing/PycharmProjects/Reinvent-master-3.2/result/LINK_invent/BTK/process_docking_weight1_custom_sum_contain_oxygen_bond_distance_aromatic_linkinvent_7_9_3/rearranged_h_0083.sdf

> <i_m_source_file_index>
60

> <r_mmod_Potential_Energy-OPLS-2005>
15173.1787109375

> <r_mmod_Stretch_Energy-OPLS-2005>
9025.6572265625

> <r_mmod_Bend_Energy-OPLS-2005>
1132.87731933594

> <r_mmod_Torsional_Energy-OPLS-2005>
406.131042480469

> <r_mmod_Improper_Torsional_Energy-OPLS-2005>
102.606010437012

> <r_mmod_Van_der_Waal_Energy-OPLS-2005>
2981.14111328125

> <r_mmod_Electrostatic_Energy-OPLS-2005>
-388.02734375

> <r_mmod_Solvation_Energy-OPLS-2005>
-207.637084960938

> <b_mmod_Minimization_Converged-OPLS-2005>
0

> <r_mmod_RMS_Derivative-OPLS-2005>
15.491828918457

$$$$
60
                    3D
 Structure written by MMmdl.
180188  0  0  1  0            999 V2000
  -30.7364  -14.3902   20.6435 C   0  0  0  0  0  0
  -30.4241  -12.2889   19.4028 C   0  0  0  0  0  0
  -29.4942  -12.5341   18.2006 C   0  0  0  0  0  0
  -28.0130  -12.4000   18.6062 C   0  0  0  0  0  0
  -27.6738  -13.2059   19.8910 C   0  0  2  0  0  0
  -28.7122  -12.9255   21.0008 C   0  0  0  0  0  0
  -25.2656  -13.8195   20.5649 C   0  0  0  0  0  0
  -24.1889  -13.0490   20.9160 C   0  0  0  0  0  0
  -24.6433  -11.6950   20.8750 C   0  0  0  0  0  0
  -23.9087  -10.4341   21.0399 C   0  0  0  0  0  0
  -24.3633   -9.4248   21.9166 C   0  0  0  0  0  0
  -23.6310   -8.2287   22.0739 C   0  0  0  0  0  0
  -22.4298   -8.0303   21.3510 C   0  0  0  0  0  0
  -21.9931   -9.0295   20.4628 C   0  0  0  0  0  0
  -22.7261  -10.2175   20.3047 C   0  0  0  0  0  0
  -21.6882   -6.0772   22.5274 C   0  0  0  0  0  0
  -21.4030   -6.5655   23.8211 C   0  0  0  0  0  0
  -21.3654   -5.6783   24.9161 C   0  0  0  0  0  0
  -21.6057   -4.3050   24.7196 C   0  0  0  0  0  0
  -21.8828   -3.8154   23.4310 C   0  0  0  0  0  0
  -21.9202   -4.7001   22.3373 C   0  0  0  0  0  0
  -22.7918  -13.5306   21.1787 C   0  0  0  0  0  0
  -22.1661   -4.2196   21.0961 F   0  0  0  0  0  0
  -21.5614   -3.4513   25.7689 F   0  0  0  0  0  0
  -30.0483  -13.2335   20.4610 N   0  0  0  0  0  0
  -26.3104  -12.9356   20.3438 N   0  0  0  0  0  0
  -25.9359  -11.6513   20.5803 N   0  0  0  0  0  0
  -22.0499  -12.8353   22.0343 N   0  0  0  0  0  0
  -25.4437  -15.1891   20.4014 N   0  0  0  0  0  0
  -31.7898  -14.6488   20.0554 O   0  0  0  0  0  0
  -21.6653   -6.8910   21.4219 O   0  0  0  0  0  0
  -22.3611  -14.5585   20.6560 O   0  0  0  0  0  0
  -24.6088  -31.8689   23.2123 C   0  0  0  0  0  0
  -25.8999  -32.4821   23.8401 C   0  0  1  0  0  0
  -27.2373  -27.4749   20.0743 C   0  0  0  0  0  0
  -25.5894  -33.8625   24.2325 N   0  0  0  0  0  0
  -23.3929  -30.4947   21.5496 C   0  0  2  0  0  0
  -24.8382  -28.9606   20.1142 C   0  0  0  0  0  0
  -22.7357  -29.4674   22.4971 C   0  0  0  0  0  0
  -18.0261  -28.1368   22.8477 C   0  0  0  0  0  0
  -24.1492  -36.7330   23.2639 C   0  0  0  0  0  0
  -25.9174  -30.8440   21.3595 C   0  0  0  0  0  0
  -25.9937  -29.4785   20.7127 C   0  0  0  0  0  0
  -27.1899  -28.7352   20.7035 C   0  0  0  0  0  0
  -26.0626  -26.9532   19.4845 C   0  0  0  0  0  0
  -24.8657  -27.6938   19.5033 C   0  0  0  0  0  0
  -23.5978  -29.8219   20.1643 C   0  0  0  0  0  0
  -25.4109  -36.3108   24.0328 C   0  0  1  0  0  0
  -20.5845  -28.3659   23.1301 C   0  0  2  0  0  0
  -20.6743  -26.9399   22.5407 C   0  0  0  0  0  0
  -19.5739  -26.6380   21.5186 C   0  0  0  0  0  0
  -18.1911  -26.7927   22.1588 C   0  0  0  0  0  0
  -19.1510  -28.8836   23.2899 C   0  0  0  0  0  0
  -18.9448  -30.1420   23.8915 C   0  0  0  0  0  0
  -17.6454  -30.6592   24.0556 C   0  0  0  0  0  0
  -25.9029  -34.9470   23.5126 C   0  0  0  0  0  0
  -16.5344  -29.9087   23.6310 C   0  0  0  0  0  0
  -16.7247  -28.6502   23.0354 C   0  0  0  0  0  0
  -26.4456  -31.6607   25.0721 C   0  0  0  0  0  0
  -25.3740  -31.3714   26.1489 C   0  0  0  0  0  0
  -27.0268  -30.3046   24.6076 C   0  0  0  0  0  0
  -27.6035  -32.4329   25.7474 C   0  0  0  0  0  0
  -27.5581  -37.1812   24.8453 C   0  0  0  0  0  0
  -21.4110  -29.3039   22.3724 N   0  0  0  0  0  0
  -26.4294  -37.3797   23.9410 N   0  0  0  0  0  0
  -24.6568  -31.0836   22.0992 N   0  0  0  0  0  0
  -23.4167  -28.8210   23.2992 O   0  0  0  0  0  0
  -28.4337  -26.8025   20.0795 O   0  0  0  0  0  0
  -26.5594  -34.8908   22.4672 O   0  0  0  0  0  0
  -23.5292  -32.1427   23.7561 O   0  0  0  0  0  0
  -32.6469  -20.6467   19.0594 C   0  0  0  0  0  0
  -31.6543  -21.5957   19.4147 C   0  0  0  0  0  0
  -32.4035  -19.5695   19.8633 C   0  0  0  0  0  0
  -33.2488  -18.3490   20.0351 C   0  0  0  0  0  0
  -32.3674  -23.1213   16.0231 C   0  0  0  0  0  0
  -29.8732  -22.9220   15.6423 C   0  0  0  0  0  0
  -29.6360  -17.6233   19.7343 C   0  0  0  0  0  0
  -28.4623  -17.7178   21.9286 C   0  0  0  0  0  0
  -31.6361  -23.0675   19.0824 C   0  0  0  0  0  0
  -30.2309  -25.8224   18.9340 C   0  0  0  0  0  0
  -30.5721  -19.1008   21.6455 C   0  0  0  0  0  0
  -30.6989  -16.5817   21.8286 C   0  0  0  0  0  0
  -30.7858  -24.9756   17.7695 C   0  0  0  0  0  0
  -28.7019  -25.8890   19.0254 C   0  0  0  0  0  0
  -31.0133  -22.7524   16.6709 C   0  0  0  0  0  0
  -29.8572  -17.7604   21.2602 C   0  0  0  0  0  0
  -30.7715  -21.0828   20.2627 N   0  0  0  0  0  0
  -31.2394  -19.8463   20.5717 N   0  0  0  0  0  0
  -30.1745  -15.2574   21.4952 N   0  0  0  0  0  0
  -30.7575  -23.4905   17.9526 N   0  3  1  0  0  0
  -31.4668  -12.3925   19.0967 H   0  0  0  0  0  0
  -30.3208  -11.2649   19.7674 H   0  0  0  0  0  0
  -29.7300  -11.8379   17.3954 H   0  0  0  0  0  0
  -29.6761  -13.5327   17.8011 H   0  0  0  0  0  0
  -27.8099  -11.3392   18.7653 H   0  0  0  0  0  0
  -27.3681  -12.7094   17.7822 H   0  0  0  0  0  0
  -27.7404  -14.2678   19.6434 H   0  0  0  0  0  0
  -28.6840  -11.8741   21.2902 H   0  0  0  0  0  0
  -28.4702  -13.4725   21.9116 H   0  0  0  0  0  0
  -25.2774   -9.5766   22.4746 H   0  0  0  0  0  0
  -24.0033   -7.4715   22.7468 H   0  0  0  0  0  0
  -21.0847   -8.8828   19.8982 H   0  0  0  0  0  0
  -22.3691  -10.9713   19.6162 H   0  0  0  0  0  0
  -21.2037   -7.6157   23.9737 H   0  0  0  0  0  0
  -21.1451   -6.0489   25.9070 H   0  0  0  0  0  0
  -22.0617   -2.7614   23.2773 H   0  0  0  0  0  0
  -22.4046  -12.0041   22.4824 H   0  0  0  0  0  0
  -21.1110  -13.1426   22.2452 H   0  0  0  0  0  0
  -24.6843  -15.8537   20.5095 H   0  0  0  0  0  0
  -26.3023  -15.6182   20.0820 H   0  0  0  0  0  0
  -26.7075  -32.5550   23.1177 H   0  0  0  0  0  0
  -25.0043  -33.9795   25.0471 H   0  0  0  0  0  0
  -22.6810  -31.3112   21.4106 H   0  0  0  0  0  0
  -23.3736  -35.9682   23.3303 H   0  0  0  0  0  0
  -24.3581  -36.8942   22.2050 H   0  0  0  0  0  0
  -23.7254  -37.6539   23.6652 H   0  0  0  0  0  0
  -26.0231  -31.6098   20.5901 H   0  0  0  0  0  0
  -26.8082  -30.9007   21.9720 H   0  0  0  0  0  0
  -28.0836  -29.1325   21.1660 H   0  0  0  0  0  0
  -26.0607  -25.9804   19.0137 H   0  0  0  0  0  0
  -23.9758  -27.2885   19.0404 H   0  0  0  0  0  0
  -23.6954  -30.5917   19.3979 H   0  0  0  0  0  0
  -22.7244  -29.2335   19.8746 H   0  0  0  0  0  0
  -25.1286  -36.1973   25.0826 H   0  0  0  0  0  0
  -20.9947  -28.3232   24.1415 H   0  0  0  0  0  0
  -20.5583  -26.2288   23.3600 H   0  0  0  0  0  0
  -21.6623  -26.7411   22.1238 H   0  0  0  0  0  0
  -19.6902  -25.6289   21.1213 H   0  0  0  0  0  0
  -19.6687  -27.3176   20.6701 H   0  0  0  0  0  0
  -17.4187  -26.6671   21.3988 H   0  0  0  0  0  0
  -18.0324  -26.0056   22.8968 H   0  0  0  0  0  0
  -19.7935  -30.7219   24.2318 H   0  0  0  0  0  0
  -17.5022  -31.6269   24.5154 H   0  0  0  0  0  0
  -15.5339  -30.3010   23.7630 H   0  0  0  0  0  0
  -15.8642  -28.0810   22.7082 H   0  0  0  0  0  0
  -24.5920  -30.7043   25.7856 H   0  0  0  0  0  0
  -24.8926  -32.2871   26.4941 H   0  0  0  0  0  0
  -25.8118  -30.8903   27.0248 H   0  0  0  0  0  0
  -26.2788  -29.6826   24.1147 H   0  0  0  0  0  0
  -27.4056  -29.7269   25.4524 H   0  0  0  0  0  0
  -27.8628  -30.4368   23.9198 H   0  0  0  0  0  0
  -27.2652  -33.3616   26.2096 H   0  0  0  0  0  0
  -28.3829  -32.6920   25.0290 H   0  0  0  0  0  0
  -28.0738  -31.8435   26.5364 H   0  0  0  0  0  0
  -28.2598  -38.0111   24.7501 H   0  0  0  0  0  0
  -28.1073  -36.2638   24.6275 H   0  0  0  0  0  0
  -27.2301  -37.1462   25.8856 H   0  0  0  0  0  0
  -20.9256  -29.8793   21.6973 H   0  0  0  0  0  0
  -26.0177  -38.2872   24.1415 H   0  0  0  0  0  0
  -33.4946  -20.7802   18.4005 H   0  0  0  0  0  0
  -34.1668  -18.4390   19.4538 H   0  0  0  0  0  0
  -32.7496  -17.4468   19.6881 H   0  0  0  0  0  0
  -33.5343  -18.2186   21.0793 H   0  0  0  0  0  0
  -32.5720  -22.4806   15.1667 H   0  0  0  0  0  0
  -33.2015  -23.0034   16.7120 H   0  0  0  0  0  0
  -32.3800  -24.1474   15.6530 H   0  0  0  0  0  0
  -30.0051  -22.2278   14.8129 H   0  0  0  0  0  0
  -29.8496  -23.9173   15.1982 H   0  0  0  0  0  0
  -28.8927  -22.7222   16.0718 H   0  0  0  0  0  0
  -29.2448  -18.5429   19.2995 H   0  0  0  0  0  0
  -28.9226  -16.8341   19.4958 H   0  0  0  0  0  0
  -30.5576  -17.3904   19.2051 H   0  0  0  0  0  0
  -27.8318  -18.5428   21.5950 H   0  0  0  0  0  0
  -28.5353  -17.7780   23.0153 H   0  0  0  0  0  0
  -27.9284  -16.7969   21.6908 H   0  0  0  0  0  0
  -32.6556  -23.3978   18.8853 H   0  0  0  0  0  0
  -31.3507  -23.5886   19.9914 H   0  0  0  0  0  0
  -30.5819  -26.8418   18.7717 H   0  0  0  0  0  0
  -30.6538  -25.5499   19.8969 H   0  0  0  0  0  0
  -31.3110  -18.9356   22.4323 H   0  0  0  0  0  0
  -29.8475  -19.7765   22.1048 H   0  0  0  0  0  0
  -30.7465  -16.6473   22.9178 H   0  0  0  0  0  0
  -31.7360  -16.6645   21.5116 H   0  0  0  0  0  0
  -31.8218  -25.2744   17.6079 H   0  0  0  0  0  0
  -30.2530  -25.2724   16.8690 H   0  0  0  0  0  0
  -28.2736  -24.9114   19.2497 H   0  0  0  0  0  0
  -28.2879  -26.2397   18.0776 H   0  0  0  0  0  0
  -31.0344  -21.6860   16.8918 H   0  0  0  0  0  0
  -29.3279  -14.9601   21.9538 H   0  0  0  0  0  0
  -29.8283  -23.2245   18.2413 H   0  0  0  0  0  0
  1 25  1  0  0  0
  1 30  2  0  0  0
  1 89  1  0  0  0
  2  3  1  0  0  0
  2 25  1  0  0  0
  2 91  1  0  0  0
  2 92  1  0  0  0
  3  4  1  0  0  0
  3 93  1  0  0  0
  3 94  1  0  0  0
  4  5  1  0  0  0
  4 95  1  0  0  0
  4 96  1  0  0  0
  5  6  1  0  0  0
  5 26  1  0  0  0
  5 97  1  0  0  0
  6 25  1  0  0  0
  6 98  1  0  0  0
  6 99  1  0  0  0
  7  8  2  0  0  0
  7 26  1  0  0  0
  7 29  1  0  0  0
  8  9  1  0  0  0
  8 22  1  0  0  0
  9 10  1  0  0  0
  9 27  2  0  0  0
 10 11  2  0  0  0
 10 15  1  0  0  0
 11 12  1  0  0  0
 11100  1  0  0  0
 12 13  2  0  0  0
 12101  1  0  0  0
 13 14  1  0  0  0
 13 31  1  0  0  0
 14 15  2  0  0  0
 14102  1  0  0  0
 15103  1  0  0  0
 16 17  2  0  0  0
 16 21  1  0  0  0
 16 31  1  0  0  0
 17 18  1  0  0  0
 17104  1  0  0  0
 18 19  2  0  0  0
 18105  1  0  0  0
 19 20  1  0  0  0
 19 24  1  0  0  0
 20 21  2  0  0  0
 20106  1  0  0  0
 21 23  1  0  0  0
 22 28  1  0  0  0
 22 32  2  0  0  0
 26 27  1  0  0  0
 28107  1  0  0  0
 28108  1  0  0  0
 29109  1  0  0  0
 29110  1  0  0  0
 33 34  1  0  0  0
 33 66  1  0  0  0
 33 70  2  0  0  0
 34 36  1  0  0  0
 34 59  1  0  0  0
 34111  1  0  0  0
 35 44  2  0  0  0
 35 45  1  0  0  0
 35 68  1  0  0  0
 36 56  1  0  0  0
 36112  1  0  0  0
 37 39  1  0  0  0
 37 47  1  0  0  0
 37 66  1  0  0  0
 37113  1  0  0  0
 38 43  2  0  0  0
 38 46  1  0  0  0
 38 47  1  0  0  0
 39 64  1  0  0  0
 39 67  2  0  0  0
 40 52  1  0  0  0
 40 53  2  0  0  0
 40 58  1  0  0  0
 41114  1  0  0  0
 41115  1  0  0  0
 41116  1  0  0  0
 41 48  1  0  0  0
 42 43  1  0  0  0
 42 66  1  0  0  0
 42117  1  0  0  0
 42118  1  0  0  0
 43 44  1  0  0  0
 44119  1  0  0  0
 45 46  2  0  0  0
 45120  1  0  0  0
 46121  1  0  0  0
 47122  1  0  0  0
 47123  1  0  0  0
 48 56  1  0  0  0
 48 65  1  0  0  0
 48124  1  0  0  0
 49 50  1  0  0  0
 49 53  1  0  0  0
 49 64  1  0  0  0
 49125  1  0  0  0
 50 51  1  0  0  0
 50126  1  0  0  0
 50127  1  0  0  0
 51 52  1  0  0  0
 51128  1  0  0  0
 51129  1  0  0  0
 52130  1  0  0  0
 52131  1  0  0  0
 53 54  1  0  0  0
 54 55  2  0  0  0
 54132  1  0  0  0
 55 57  1  0  0  0
 55133  1  0  0  0
 56 69  2  0  0  0
 57 58  2  0  0  0
 57134  1  0  0  0
 58135  1  0  0  0
 59 60  1  0  0  0
 59 61  1  0  0  0
 59 62  1  0  0  0
 60136  1  0  0  0
 60137  1  0  0  0
 60138  1  0  0  0
 61139  1  0  0  0
 61140  1  0  0  0
 61141  1  0  0  0
 62142  1  0  0  0
 62143  1  0  0  0
 62144  1  0  0  0
 63 65  1  0  0  0
 63145  1  0  0  0
 63146  1  0  0  0
 63147  1  0  0  0
 64148  1  0  0  0
 65149  1  0  0  0
 68 84  1  0  0  0
 71 72  1  0  0  0
 71 73  2  0  0  0
 71150  1  0  0  0
 72 79  1  0  0  0
 72 87  2  0  0  0
 73 74  1  0  0  0
 73 88  1  0  0  0
 74151  1  0  0  0
 74152  1  0  0  0
 74153  1  0  0  0
 75154  1  0  0  0
 75155  1  0  0  0
 75156  1  0  0  0
 75 85  1  0  0  0
 76 85  1  0  0  0
 76157  1  0  0  0
 76158  1  0  0  0
 76159  1  0  0  0
 77160  1  0  0  0
 77161  1  0  0  0
 77162  1  0  0  0
 77 86  1  0  0  0
 78 86  1  0  0  0
 78163  1  0  0  0
 78164  1  0  0  0
 78165  1  0  0  0
 79166  1  0  0  0
 79167  1  0  0  0
 79 90  1  0  0  0
 80 83  1  0  0  0
 80 84  1  0  0  0
 80168  1  0  0  0
 80169  1  0  0  0
 81 86  1  0  0  0
 81 88  1  0  0  0
 81170  1  0  0  0
 81171  1  0  0  0
 82 86  1  0  0  0
 82 89  1  0  0  0
 82172  1  0  0  0
 82173  1  0  0  0
 83 90  1  0  0  0
 83174  1  0  0  0
 83175  1  0  0  0
 84176  1  0  0  0
 84177  1  0  0  0
 85 90  1  0  0  0
 85178  1  0  0  0
 87 88  1  0  0  0
 89179  1  0  0  0
 90180  1  0  0  0
M  CHG  1  90   1
M  ISO  4   1 100  68 101  84 101  89 100
M  END
> <chiral flag>
0

> <version>
0

> <s_m_source_file>
/data/baiqing/PycharmProjects/Reinvent-master-3.2/result/LINK_invent/BTK/process_docking_weight1_custom_sum_contain_oxygen_bond_distance_aromatic_linkinvent_7_9_3/rearranged_h_0083.sdf

> <i_m_source_file_index>
61

> <r_mmod_Potential_Energy-OPLS-2005>
-239.756301879883

> <r_mmod_Stretch_Energy-OPLS-2005>
37.5174980163574

> <r_mmod_Bend_Energy-OPLS-2005>
122.625541687012

> <r_mmod_Torsional_Energy-OPLS-2005>
243.704742431641

> <r_mmod_Improper_Torsional_Energy-OPLS-2005>
3.2575945854187

> <r_mmod_Van_der_Waal_Energy-OPLS-2005>
139.663238525391

> <r_mmod_Electrostatic_Energy-OPLS-2005>
-378.242919921875

> <r_mmod_Solvation_Energy-OPLS-2005>
-416.060974121094

> <b_mmod_Minimization_Converged-OPLS-2005>
0

> <r_mmod_RMS_Derivative-OPLS-2005>
4.24498462677002

$$$$
61
                    3D
 Structure written by MMmdl.
164172  0  0  1  0            999 V2000
  -31.0964  -13.2633   20.9301 C   0  0  0  0  0  0
  -30.5537  -12.6254   18.8369 C   0  0  0  0  0  0
  -29.4308  -12.5245   17.8687 C   0  0  0  0  0  0
  -28.1590  -13.2720   18.2569 C   0  0  0  0  0  0
  -27.9699  -13.9758   19.7015 C   0  0  2  0  0  0
  -29.0835  -13.9226   20.6113 C   0  0  0  0  0  0
  -25.9310  -14.2408   21.0001 C   0  0  0  0  0  0
  -24.1909  -13.6030   20.8527 C   0  0  0  0  0  0
  -24.0593  -12.3203   20.5601 C   0  0  0  0  0  0
  -23.7068  -10.8075   20.9855 C   0  0  0  0  0  0
  -24.2092   -9.8063   21.9184 C   0  0  0  0  0  0
  -23.6235   -8.5015   22.0786 C   0  0  0  0  0  0
  -22.4672   -8.1354   21.3475 C   0  0  0  0  0  0
  -21.9992   -9.0667   20.4097 C   0  0  0  0  0  0
  -22.6111  -10.3270   20.2313 C   0  0  0  0  0  0
  -21.7515   -6.1134   22.5226 C   0  0  0  0  0  0
  -21.4476   -6.5938   23.8155 C   0  0  0  0  0  0
  -21.3785   -5.7008   24.9066 C   0  0  0  0  0  0
  -21.6011   -4.3239   24.7113 C   0  0  0  0  0  0
  -21.8763   -3.8369   23.4224 C   0  0  0  0  0  0
  -21.9408   -4.7255   22.3334 C   0  0  0  0  0  0
  -22.6255  -13.9421   21.1815 C   0  0  0  0  0  0
  -22.1773   -4.2365   21.0920 F   0  0  0  0  0  0
  -21.5492   -3.4681   25.7604 F   0  0  0  0  0  0
  -30.2192  -13.3261   20.0548 N   0  0  0  0  0  0
  -26.8433  -13.8882   20.7865 N   0  0  0  0  0  0
  -24.9764  -13.5315   20.7970 N   0  0  0  0  0  0
  -21.9697  -13.1300   22.0342 N   0  0  0  0  0  0
  -26.8301  -15.3519   21.4369 N   0  0  0  0  0  0
  -32.0395  -14.0736   20.8803 O   0  0  0  0  0  0
  -21.7776   -6.9332   21.4151 O   0  0  0  0  0  0
  -22.0600  -14.8539   20.6056 O   0  0  0  0  0  0
  -24.7236  -31.7442   23.1274 C   0  0  0  0  0  0
  -25.9674  -32.4125   23.7874 C   0  0  1  0  0  0
  -26.5495  -26.0221   20.2491 C   0  0  0  0  0  0
  -25.6095  -33.8011   24.1674 N   0  0  0  0  0  0
  -23.5310  -30.3786   21.5000 C   0  0  2  0  0  0
  -24.8633  -28.6360   20.0686 C   0  0  0  0  0  0
  -22.7791  -29.4109   22.4557 C   0  0  0  0  0  0
  -18.0338  -28.1428   22.8445 C   0  0  0  0  0  0
  -24.1509  -36.7003   23.2661 C   0  0  0  0  0  0
  -26.1104  -30.2150   21.4906 C   0  0  0  0  0  0
  -26.0322  -28.7367   20.8182 C   0  0  0  0  0  0
  -26.8810  -27.4490   20.8782 C   0  0  0  0  0  0
  -25.5390  -26.3354   19.3301 C   0  0  0  0  0  0
  -24.7117  -27.4912   19.2810 C   0  0  0  0  0  0
  -23.7712  -29.7186   20.1130 C   0  0  0  0  0  0
  -25.4180  -36.2699   24.0234 C   0  0  1  0  0  0
  -20.5976  -28.3781   23.1081 C   0  0  2  0  0  0
  -20.6781  -26.9413   22.5402 C   0  0  0  0  0  0
  -19.5761  -26.6347   21.5218 C   0  0  0  0  0  0
  -18.1947  -26.7953   22.1617 C   0  0  0  0  0  0
  -19.1610  -28.8936   23.2748 C   0  0  0  0  0  0
  -18.9519  -30.1519   23.8798 C   0  0  0  0  0  0
  -17.6507  -30.6602   24.0546 C   0  0  0  0  0  0
  -25.9204  -34.9106   23.4818 C   0  0  0  0  0  0
  -16.5393  -29.9082   23.6361 C   0  0  0  0  0  0
  -16.7320  -28.6512   23.0366 C   0  0  0  0  0  0
  -26.4689  -31.6437   25.0734 C   0  0  0  0  0  0
  -25.3622  -31.3923   26.1258 C   0  0  0  0  0  0
  -27.0710  -30.2716   24.7102 C   0  0  0  0  0  0
  -27.6049  -32.4452   25.7532 C   0  0  0  0  0  0
  -27.5552  -37.1663   24.8463 C   0  0  0  0  0  0
  -21.4424  -29.2976   22.3343 N   0  0  0  0  0  0
  -26.4252  -37.3524   23.9405 N   0  0  0  0  0  0
  -24.8280  -30.8352   22.0840 N   0  0  0  0  0  0
  -23.4127  -28.7690   23.2973 O   0  0  0  0  0  0
  -26.9033  -24.3775   20.3383 O   0  0  0  0  0  0
  -26.5896  -34.8777   22.4474 O   0  0  0  0  0  0
  -23.6221  -32.0890   23.5970 O   0  0  0  0  0  0
  -24.5999  -15.4486   22.2969 C   0  0  0  0  0  0
  -25.5219  -14.2331   18.7754 C   0  0  0  0  0  0
  -24.8386  -15.9946   20.1650 C   0  0  0  0  0  0
  -25.3384  -13.5184   23.0485 C   0  0  0  0  0  0
  -26.2212  -12.0983   19.6859 C   0  0  0  0  0  0
  -25.2976  -13.2198   24.5276 C   0  0  0  0  0  0
  -26.4087   -9.5902   19.3560 C   0  0  0  0  0  0
  -25.0597  -18.1343   19.9019 C   0  0  0  0  0  0
  -25.9665  -20.2090   20.3013 C   0  0  0  0  0  0
  -28.6570  -10.6260   20.1929 C   0  0  0  0  0  0
  -29.4434  -11.2542   21.5224 C   0  0  0  0  0  0
  -26.0767  -22.5024   20.0967 C   0  0  0  0  0  0
  -27.2120  -10.9002   19.3540 C   0  0  2  0  0  0
  -26.1349  -11.9873   21.8565 N   0  0  0  0  0  0
  -30.8035  -12.0592   21.5542 N   0  0  0  0  0  0
  -31.3431  -13.2015   18.3496 H   0  0  0  0  0  0
  -31.0101  -11.6445   18.9970 H   0  0  0  0  0  0
  -29.2624  -11.4816   17.6152 H   0  0  0  0  0  0
  -29.7820  -12.9242   16.9143 H   0  0  0  0  0  0
  -27.3051  -12.9037   17.6961 H   0  0  0  0  0  0
  -28.2832  -14.1587   17.6317 H   0  0  0  0  0  0
  -27.9543  -15.0162   19.3603 H   0  0  0  0  0  0
  -28.8552  -13.6680   21.6530 H   0  0  0  0  0  0
  -29.3708  -14.9724   20.7486 H   0  0  0  0  0  0
  -25.0477  -10.0204   22.5596 H   0  0  0  0  0  0
  -24.0505   -7.8115   22.7927 H   0  0  0  0  0  0
  -21.1419   -8.8101   19.8032 H   0  0  0  0  0  0
  -22.1730  -10.9818   19.4901 H   0  0  0  0  0  0
  -21.2671   -7.6472   23.9721 H   0  0  0  0  0  0
  -21.1571   -6.0739   25.8959 H   0  0  0  0  0  0
  -22.0339   -2.7810   23.2657 H   0  0  0  0  0  0
  -22.4516  -12.3702   22.4913 H   0  0  0  0  0  0
  -20.9964  -13.2951   22.2456 H   0  0  0  0  0  0
  -26.0679  -15.8191   21.9309 H   0  0  0  0  0  0
  -27.0695  -15.9095   20.6318 H   0  0  0  0  0  0
  -26.7744  -32.4351   23.0537 H   0  0  0  0  0  0
  -25.0080  -33.8975   24.9722 H   0  0  0  0  0  0
  -22.8859  -31.2437   21.3303 H   0  0  0  0  0  0
  -23.3807  -35.9293   23.3215 H   0  0  0  0  0  0
  -24.3561  -36.8811   22.2098 H   0  0  0  0  0  0
  -23.7243  -37.6117   23.6858 H   0  0  0  0  0  0
  -26.4395  -30.8960   20.7048 H   0  0  0  0  0  0
  -26.9346  -30.2116   22.1875 H   0  0  0  0  0  0
  -27.7226  -27.4772   21.5563 H   0  0  0  0  0  0
  -25.2171  -25.5185   18.6999 H   0  0  0  0  0  0
  -23.8570  -27.4460   18.6192 H   0  0  0  0  0  0
  -24.0482  -30.4913   19.3943 H   0  0  0  0  0  0
  -22.8352  -29.2986   19.7409 H   0  0  0  0  0  0
  -25.1418  -36.1379   25.0721 H   0  0  0  0  0  0
  -21.0073  -28.3443   24.1206 H   0  0  0  0  0  0
  -20.5624  -26.2413   23.3690 H   0  0  0  0  0  0
  -21.6637  -26.7310   22.1234 H   0  0  0  0  0  0
  -19.6890  -25.6235   21.1307 H   0  0  0  0  0  0
  -19.6711  -27.3112   20.6715 H   0  0  0  0  0  0
  -17.4216  -26.6721   21.4016 H   0  0  0  0  0  0
  -18.0304  -26.0121   22.9034 H   0  0  0  0  0  0
  -19.7993  -30.7364   24.2118 H   0  0  0  0  0  0
  -17.5051  -31.6269   24.5171 H   0  0  0  0  0  0
  -15.5387  -30.2944   23.7735 H   0  0  0  0  0  0
  -15.8727  -28.0791   22.7122 H   0  0  0  0  0  0
  -24.5859  -30.7212   25.7554 H   0  0  0  0  0  0
  -24.8753  -32.3194   26.4293 H   0  0  0  0  0  0
  -25.7674  -30.9337   27.0287 H   0  0  0  0  0  0
  -26.3426  -29.6044   24.2479 H   0  0  0  0  0  0
  -27.4226  -29.7531   25.6034 H   0  0  0  0  0  0
  -27.9412  -30.3692   24.0610 H   0  0  0  0  0  0
  -27.2534  -33.3904   26.1680 H   0  0  0  0  0  0
  -28.4040  -32.6773   25.0480 H   0  0  0  0  0  0
  -28.0520  -31.8898   26.5786 H   0  0  0  0  0  0
  -28.2486  -38.0030   24.7525 H   0  0  0  0  0  0
  -28.1130  -36.2544   24.6279 H   0  0  0  0  0  0
  -27.2263  -37.1266   25.8861 H   0  0  0  0  0  0
  -20.9752  -29.8657   21.6411 H   0  0  0  0  0  0
  -26.0023  -38.2542   24.1430 H   0  0  0  0  0  0
  -24.2945  -16.2000   23.0128 H   0  0  0  0  0  0
  -25.7461  -14.4662   17.7441 H   0  0  0  0  0  0
  -24.2846  -12.9630   24.8368 H   0  0  0  0  0  0
  -25.6308  -14.0865   25.0975 H   0  0  0  0  0  0
  -25.9535  -12.3822   24.7615 H   0  0  0  0  0  0
  -25.4830   -9.6805   18.7870 H   0  0  0  0  0  0
  -26.1618   -9.2813   20.3671 H   0  0  0  0  0  0
  -26.9831   -8.7799   18.9070 H   0  0  0  0  0  0
  -24.0214  -18.3783   20.1306 H   0  0  0  0  0  0
  -25.0843  -18.1388   18.8128 H   0  0  0  0  0  0
  -26.9947  -19.9790   20.0204 H   0  0  0  0  0  0
  -25.9807  -20.1553   21.3902 H   0  0  0  0  0  0
  -28.4221   -9.6576   20.6301 H   0  0  0  0  0  0
  -29.3985  -10.2849   19.4759 H   0  0  0  0  0  0
  -29.7470  -10.3681   22.0798 H   0  0  0  0  0  0
  -28.7224  -11.6856   22.2134 H   0  0  0  0  0  0
  -25.1041  -22.7438   20.5267 H   0  0  0  0  0  0
  -25.9082  -22.5789   19.0225 H   0  0  0  0  0  0
  -27.4119  -10.9270   18.2921 H   0  0  0  0  0  0
  -31.5034  -11.7224   22.2013 H   0  0  0  0  0  0
  1 25  1  0  0  0
  1 30  2  0  0  0
  1 85  1  0  0  0
  2  3  1  0  0  0
  2 25  1  0  0  0
  2 86  1  0  0  0
  2 87  1  0  0  0
  3  4  1  0  0  0
  3 88  1  0  0  0
  3 89  1  0  0  0
  4  5  1  0  0  0
  4 90  1  0  0  0
  4 91  1  0  0  0
  5  6  1  0  0  0
  5 26  1  0  0  0
  5 92  1  0  0  0
  6 25  1  0  0  0
  6 93  1  0  0  0
  6 94  1  0  0  0
  7  8  2  0  0  0
  7 26  1  0  0  0
  7 29  1  0  0  0
  8  9  1  0  0  0
  8 22  1  0  0  0
  9 10  1  0  0  0
  9 27  2  0  0  0
 10 11  2  0  0  0
 10 15  1  0  0  0
 11 12  1  0  0  0
 11 95  1  0  0  0
 12 13  2  0  0  0
 12 96  1  0  0  0
 13 14  1  0  0  0
 13 31  1  0  0  0
 14 15  2  0  0  0
 14 97  1  0  0  0
 15 98  1  0  0  0
 16 17  2  0  0  0
 16 21  1  0  0  0
 16 31  1  0  0  0
 17 18  1  0  0  0
 17 99  1  0  0  0
 18 19  2  0  0  0
 18100  1  0  0  0
 19 20  1  0  0  0
 19 24  1  0  0  0
 20 21  2  0  0  0
 20101  1  0  0  0
 21 23  1  0  0  0
 22 28  1  0  0  0
 22 32  2  0  0  0
 26 27  1  0  0  0
 28102  1  0  0  0
 28103  1  0  0  0
 29104  1  0  0  0
 29105  1  0  0  0
 33 34  1  0  0  0
 33 66  1  0  0  0
 33 70  2  0  0  0
 34 36  1  0  0  0
 34 59  1  0  0  0
 34106  1  0  0  0
 35 44  2  0  0  0
 35 45  1  0  0  0
 35 68  1  0  0  0
 36 56  1  0  0  0
 36107  1  0  0  0
 37 39  1  0  0  0
 37 47  1  0  0  0
 37 66  1  0  0  0
 37108  1  0  0  0
 38 43  2  0  0  0
 38 46  1  0  0  0
 38 47  1  0  0  0
 39 64  1  0  0  0
 39 67  2  0  0  0
 40 52  1  0  0  0
 40 53  2  0  0  0
 40 58  1  0  0  0
 41109  1  0  0  0
 41110  1  0  0  0
 41111  1  0  0  0
 41 48  1  0  0  0
 42 43  1  0  0  0
 42 66  1  0  0  0
 42112  1  0  0  0
 42113  1  0  0  0
 43 44  1  0  0  0
 44114  1  0  0  0
 45 46  2  0  0  0
 45115  1  0  0  0
 46116  1  0  0  0
 47117  1  0  0  0
 47118  1  0  0  0
 48 56  1  0  0  0
 48 65  1  0  0  0
 48119  1  0  0  0
 49 50  1  0  0  0
 49 53  1  0  0  0
 49 64  1  0  0  0
 49120  1  0  0  0
 50 51  1  0  0  0
 50121  1  0  0  0
 50122  1  0  0  0
 51 52  1  0  0  0
 51123  1  0  0  0
 51124  1  0  0  0
 52125  1  0  0  0
 52126  1  0  0  0
 53 54  1  0  0  0
 54 55  2  0  0  0
 54127  1  0  0  0
 55 57  1  0  0  0
 55128  1  0  0  0
 56 69  2  0  0  0
 57 58  2  0  0  0
 57129  1  0  0  0
 58130  1  0  0  0
 59 60  1  0  0  0
 59 61  1  0  0  0
 59 62  1  0  0  0
 60131  1  0  0  0
 60132  1  0  0  0
 60133  1  0  0  0
 61134  1  0  0  0
 61135  1  0  0  0
 61136  1  0  0  0
 62137  1  0  0  0
 62138  1  0  0  0
 62139  1  0  0  0
 63 65  1  0  0  0
 63140  1  0  0  0
 63141  1  0  0  0
 63142  1  0  0  0
 64143  1  0  0  0
 65144  1  0  0  0
 68 82  1  0  0  0
 71 73  2  0  0  0
 71 74  1  0  0  0
 71145  1  0  0  0
 72 73  1  0  0  0
 72 75  2  0  0  0
 72146  1  0  0  0
 73 78  1  0  0  0
 74 76  1  0  0  0
 74 84  2  0  0  0
 75 83  1  0  0  0
 75 84  1  0  0  0
 76147  1  0  0  0
 76148  1  0  0  0
 76149  1  0  0  0
 77150  1  0  0  0
 77151  1  0  0  0
 77152  1  0  0  0
 77 83  1  0  0  0
 78 79  1  0  0  0
 78153  1  0  0  0
 78154  1  0  0  0
 79 82  1  0  0  0
 79155  1  0  0  0
 79156  1  0  0  0
 80 81  1  0  0  0
 80 83  1  0  0  0
 80157  1  0  0  0
 80158  1  0  0  0
 81 85  1  0  0  0
 81159  1  0  0  0
 81160  1  0  0  0
 82161  1  0  0  0
 82162  1  0  0  0
 83163  1  0  0  0
 85164  1  0  0  0
M  ISO  4   1 100  68 101  82 101  85 100
M  END
> <chiral flag>
0

> <version>
0

> <s_m_source_file>
/data/baiqing/PycharmProjects/Reinvent-master-3.2/result/LINK_invent/BTK/process_docking_weight1_custom_sum_contain_oxygen_bond_distance_aromatic_linkinvent_7_9_3/rearranged_h_0083.sdf

> <i_m_source_file_index>
62

> <r_mmod_Potential_Energy-OPLS-2005>
24065.990234375

> <r_mmod_Stretch_Energy-OPLS-2005>
13467.6650390625

> <r_mmod_Bend_Energy-OPLS-2005>
2937.97802734375

> <r_mmod_Torsional_Energy-OPLS-2005>
602.872497558594

> <r_mmod_Improper_Torsional_Energy-OPLS-2005>
75.7381362915039

> <r_mmod_Van_der_Waal_Energy-OPLS-2005>
4403.1083984375

> <r_mmod_Electrostatic_Energy-OPLS-2005>
-501.764801025391

> <r_mmod_Solvation_Energy-OPLS-2005>
-215.625335693359

> <b_mmod_Minimization_Converged-OPLS-2005>
0

> <r_mmod_RMS_Derivative-OPLS-2005>
2.79206418991089

$$$$
62
                    3D
 Structure written by MMmdl.
171179  0  0  1  0            999 V2000
  -30.6525  -14.5824   20.5859 C   0  0  0  0  0  0
  -30.4394  -12.3801   19.4271 C   0  0  0  0  0  0
  -29.5013  -12.5239   18.2087 C   0  0  0  0  0  0
  -28.0228  -12.3642   18.6189 C   0  0  0  0  0  0
  -27.6564  -13.2087   19.8669 C   0  0  2  0  0  0
  -28.7033  -13.0144   20.9840 C   0  0  0  0  0  0
  -25.2564  -13.8129   20.5710 C   0  0  0  0  0  0
  -24.1827  -13.0403   20.9194 C   0  0  0  0  0  0
  -24.6401  -11.6880   20.8731 C   0  0  0  0  0  0
  -23.9069  -10.4271   21.0401 C   0  0  0  0  0  0
  -24.3620   -9.4196   21.9188 C   0  0  0  0  0  0
  -23.6293   -8.2235   22.0762 C   0  0  0  0  0  0
  -22.4275   -8.0273   21.3550 C   0  0  0  0  0  0
  -21.9915   -9.0241   20.4644 C   0  0  0  0  0  0
  -22.7245  -10.2116   20.3046 C   0  0  0  0  0  0
  -21.6852   -6.0733   22.5285 C   0  0  0  0  0  0
  -21.4012   -6.5640   23.8216 C   0  0  0  0  0  0
  -21.3653   -5.6801   24.9183 C   0  0  0  0  0  0
  -21.6040   -4.3065   24.7236 C   0  0  0  0  0  0
  -21.8821   -3.8148   23.4361 C   0  0  0  0  0  0
  -21.9195   -4.6960   22.3412 C   0  0  0  0  0  0
  -22.7847  -13.5196   21.1857 C   0  0  0  0  0  0
  -22.1661   -4.2140   21.0992 F   0  0  0  0  0  0
  -21.5633   -3.4553   25.7752 F   0  0  0  0  0  0
  -30.0219  -13.3728   20.4348 N   0  0  0  0  0  0
  -26.3002  -12.9315   20.3333 N   0  0  0  0  0  0
  -25.9325  -11.6473   20.5735 N   0  0  0  0  0  0
  -22.0482  -12.8175   22.0397 N   0  0  0  0  0  0
  -25.4246  -15.1842   20.4176 N   0  0  0  0  0  0
  -31.7771  -14.7657   20.1069 O   0  0  0  0  0  0
  -21.6640   -6.8873   21.4248 O   0  0  0  0  0  0
  -22.3530  -14.5508   20.6713 O   0  0  0  0  0  0
  -24.6240  -31.8630   23.2057 C   0  0  0  0  0  0
  -25.9098  -32.4796   23.8378 C   0  0  1  0  0  0
  -27.2288  -27.3549   20.1030 C   0  0  0  0  0  0
  -25.5924  -33.8595   24.2305 N   0  0  0  0  0  0
  -23.4154  -30.4888   21.5487 C   0  0  2  0  0  0
  -24.8604  -28.9497   20.1152 C   0  0  0  0  0  0
  -22.7457  -29.4650   22.4954 C   0  0  0  0  0  0
  -18.0284  -28.1389   22.8494 C   0  0  0  0  0  0
  -24.1482  -36.7292   23.2641 C   0  0  0  0  0  0
  -25.9542  -30.8060   21.3701 C   0  0  0  0  0  0
  -26.0296  -29.4359   20.7131 C   0  0  0  0  0  0
  -27.2171  -28.6509   20.6965 C   0  0  0  0  0  0
  -26.0310  -26.9128   19.4908 C   0  0  0  0  0  0
  -24.8609  -27.6914   19.4982 C   0  0  0  0  0  0
  -23.6274  -29.8256   20.1638 C   0  0  0  0  0  0
  -25.4108  -36.3095   24.0335 C   0  0  1  0  0  0
  -20.5882  -28.3691   23.1291 C   0  0  2  0  0  0
  -20.6773  -26.9417   22.5409 C   0  0  0  0  0  0
  -19.5746  -26.6393   21.5211 C   0  0  0  0  0  0
  -18.1926  -26.7935   22.1624 C   0  0  0  0  0  0
  -19.1536  -28.8856   23.2890 C   0  0  0  0  0  0
  -18.9460  -30.1460   23.8906 C   0  0  0  0  0  0
  -17.6458  -30.6591   24.0572 C   0  0  0  0  0  0
  -25.9046  -34.9462   23.5117 C   0  0  0  0  0  0
  -16.5350  -29.9091   23.6331 C   0  0  0  0  0  0
  -16.7273  -28.6509   23.0354 C   0  0  0  0  0  0
  -26.4495  -31.6588   25.0729 C   0  0  0  0  0  0
  -25.3731  -31.3660   26.1441 C   0  0  0  0  0  0
  -27.0369  -30.3042   24.6140 C   0  0  0  0  0  0
  -27.6046  -32.4323   25.7521 C   0  0  0  0  0  0
  -27.5575  -37.1809   24.8465 C   0  0  0  0  0  0
  -21.4173  -29.3050   22.3689 N   0  0  0  0  0  0
  -26.4287  -37.3786   23.9412 N   0  0  0  0  0  0
  -24.6838  -31.0676   22.0992 N   0  0  0  0  0  0
  -23.4194  -28.8181   23.3018 O   0  0  0  0  0  0
  -28.3688  -26.5427   20.1237 O   0  0  0  0  0  0
  -26.5610  -34.8925   22.4682 O   0  0  0  0  0  0
  -23.5409  -32.1411   23.7404 O   0  0  0  0  0  0
  -29.7084  -19.2103   19.3591 C   0  0  0  0  0  0
  -30.1829  -20.1014   20.3489 C   0  0  0  0  0  0
  -29.6566  -17.8062   19.5839 C   0  0  0  0  0  0
  -30.6274  -19.4883   21.5489 C   0  0  0  0  0  0
  -30.1179  -17.2736   20.8229 C   0  0  0  0  0  0
  -30.0628  -20.5789   23.7702 C   0  0  0  0  0  0
  -26.9953  -16.2473   17.1808 C   0  0  0  0  0  0
  -30.1015  -15.6319   22.8363 C   0  0  0  0  0  0
  -30.3159  -21.6298   20.0398 C   0  0  0  0  0  0
  -29.0891  -16.9354   18.4706 C   0  0  0  0  0  0
  -31.1558  -20.2848   22.7352 C   0  0  0  0  0  0
  -27.5853  -17.1632   18.2593 C   0  0  0  0  0  0
  -29.1293  -22.6035   20.3854 C   0  0  0  0  0  0
  -29.4186  -24.1494   20.1925 C   0  0  0  0  0  0
  -28.1592  -25.0892   20.1684 C   0  0  0  0  0  0
  -29.9093  -15.7802   21.3066 C   0  0  2  0  0  0
  -30.5913  -18.1442   21.7571 N   0  0  0  0  0  0
  -31.4784  -12.5102   19.1202 H   0  0  0  0  0  0
  -30.3772  -11.3739   19.8435 H   0  0  0  0  0  0
  -29.7575  -11.7866   17.4466 H   0  0  0  0  0  0
  -29.6494  -13.5014   17.7481 H   0  0  0  0  0  0
  -27.8471  -11.3073   18.8233 H   0  0  0  0  0  0
  -27.3710  -12.6239   17.7841 H   0  0  0  0  0  0
  -27.6855  -14.2522   19.5597 H   0  0  0  0  0  0
  -28.7119  -11.9761   21.3184 H   0  0  0  0  0  0
  -28.4334  -13.5929   21.8656 H   0  0  0  0  0  0
  -25.2755   -9.5679   22.4770 H   0  0  0  0  0  0
  -24.0000   -7.4631   22.7492 H   0  0  0  0  0  0
  -21.0850   -8.8754   19.8942 H   0  0  0  0  0  0
  -22.3711  -10.9652   19.6155 H   0  0  0  0  0  0
  -21.2002   -7.6150   23.9713 H   0  0  0  0  0  0
  -21.1476   -6.0539   25.9083 H   0  0  0  0  0  0
  -22.0608   -2.7610   23.2879 H   0  0  0  0  0  0
  -22.4097  -11.9826   22.4764 H   0  0  0  0  0  0
  -21.1086  -13.1177   22.2582 H   0  0  0  0  0  0
  -24.6529  -15.8344   20.5183 H   0  0  0  0  0  0
  -26.2687  -15.6201   20.0742 H   0  0  0  0  0  0
  -26.7168  -32.5487   23.1137 H   0  0  0  0  0  0
  -25.0074  -33.9743   25.0455 H   0  0  0  0  0  0
  -22.7087  -31.3093   21.4079 H   0  0  0  0  0  0
  -23.3755  -35.9613   23.3298 H   0  0  0  0  0  0
  -24.3568  -36.8920   22.2055 H   0  0  0  0  0  0
  -23.7218  -37.6488   23.6663 H   0  0  0  0  0  0
  -26.0776  -31.5700   20.6014 H   0  0  0  0  0  0
  -26.8382  -30.8579   21.9942 H   0  0  0  0  0  0
  -28.1173  -29.0239   21.1649 H   0  0  0  0  0  0
  -25.9616  -25.9607   18.9902 H   0  0  0  0  0  0
  -23.9642  -27.3133   19.0265 H   0  0  0  0  0  0
  -23.7439  -30.6021   19.4070 H   0  0  0  0  0  0
  -22.7482  -29.2528   19.8629 H   0  0  0  0  0  0
  -25.1283  -36.1957   25.0828 H   0  0  0  0  0  0
  -20.9983  -28.3268   24.1407 H   0  0  0  0  0  0
  -20.5687  -26.2298   23.3600 H   0  0  0  0  0  0
  -21.6642  -26.7454   22.1197 H   0  0  0  0  0  0
  -19.6905  -25.6308   21.1233 H   0  0  0  0  0  0
  -19.6681  -27.3211   20.6747 H   0  0  0  0  0  0
  -17.4196  -26.6701   21.4022 H   0  0  0  0  0  0
  -18.0315  -26.0073   22.9013 H   0  0  0  0  0  0
  -19.7932  -30.7276   24.2278 H   0  0  0  0  0  0
  -17.5011  -31.6270   24.5179 H   0  0  0  0  0  0
  -15.5350  -30.2996   23.7648 H   0  0  0  0  0  0
  -15.8675  -28.0830   22.7062 H   0  0  0  0  0  0
  -24.5952  -30.6971   25.7744 H   0  0  0  0  0  0
  -24.8864  -32.2789   26.4880 H   0  0  0  0  0  0
  -25.8071  -30.8833   27.0208 H   0  0  0  0  0  0
  -26.2948  -29.6772   24.1183 H   0  0  0  0  0  0
  -27.4139  -29.7301   25.4617 H   0  0  0  0  0  0
  -27.8774  -30.4380   23.9324 H   0  0  0  0  0  0
  -27.2657  -33.3629   26.2086 H   0  0  0  0  0  0
  -28.3874  -32.6868   25.0365 H   0  0  0  0  0  0
  -28.0692  -31.8450   26.5452 H   0  0  0  0  0  0
  -28.2577  -38.0123   24.7544 H   0  0  0  0  0  0
  -28.1091  -36.2653   24.6266 H   0  0  0  0  0  0
  -27.2288  -37.1431   25.8867 H   0  0  0  0  0  0
  -20.9342  -29.8780   21.6912 H   0  0  0  0  0  0
  -26.0170  -38.2862   24.1427 H   0  0  0  0  0  0
  -29.3756  -19.6081   18.4104 H   0  0  0  0  0  0
  -30.4646  -21.1408   24.6133 H   0  0  0  0  0  0
  -29.6321  -19.6546   24.1568 H   0  0  0  0  0  0
  -29.2544  -21.1640   23.3340 H   0  0  0  0  0  0
  -25.9257  -16.4244   17.0647 H   0  0  0  0  0  0
  -27.1297  -15.1949   17.4298 H   0  0  0  0  0  0
  -27.4669  -16.4238   16.2137 H   0  0  0  0  0  0
  -29.3967  -16.2613   23.3796 H   0  0  0  0  0  0
  -31.1095  -15.9195   23.1375 H   0  0  0  0  0  0
  -29.9502  -14.6090   23.1794 H   0  0  0  0  0  0
  -30.5048  -21.7166   18.9690 H   0  0  0  0  0  0
  -31.2313  -22.0092   20.4892 H   0  0  0  0  0  0
  -29.2795  -15.8816   18.6539 H   0  0  0  0  0  0
  -29.6237  -17.1701   17.5488 H   0  0  0  0  0  0
  -31.6257  -21.2131   22.4187 H   0  0  0  0  0  0
  -31.9541  -19.7141   23.2127 H   0  0  0  0  0  0
  -27.0575  -17.0073   19.1988 H   0  0  0  0  0  0
  -27.4004  -18.2012   17.9798 H   0  0  0  0  0  0
  -28.8211  -22.4447   21.4182 H   0  0  0  0  0  0
  -28.2703  -22.3219   19.7753 H   0  0  0  0  0  0
  -29.9572  -24.2921   19.2551 H   0  0  0  0  0  0
  -30.0981  -24.4810   20.9782 H   0  0  0  0  0  0
  -27.5433  -24.8682   21.0416 H   0  0  0  0  0  0
  -27.5949  -24.7661   19.2962 H   0  0  0  0  0  0
  -28.8482  -15.6341   21.1169 H   0  0  0  0  0  0
  1 25  1  0  0  0
  1 30  2  0  0  0
  1 86  1  0  0  0
  2  3  1  0  0  0
  2 25  1  0  0  0
  2 88  1  0  0  0
  2 89  1  0  0  0
  3  4  1  0  0  0
  3 90  1  0  0  0
  3 91  1  0  0  0
  4  5  1  0  0  0
  4 92  1  0  0  0
  4 93  1  0  0  0
  5  6  1  0  0  0
  5 26  1  0  0  0
  5 94  1  0  0  0
  6 25  1  0  0  0
  6 95  1  0  0  0
  6 96  1  0  0  0
  7  8  2  0  0  0
  7 26  1  0  0  0
  7 29  1  0  0  0
  8  9  1  0  0  0
  8 22  1  0  0  0
  9 10  1  0  0  0
  9 27  2  0  0  0
 10 11  2  0  0  0
 10 15  1  0  0  0
 11 12  1  0  0  0
 11 97  1  0  0  0
 12 13  2  0  0  0
 12 98  1  0  0  0
 13 14  1  0  0  0
 13 31  1  0  0  0
 14 15  2  0  0  0
 14 99  1  0  0  0
 15100  1  0  0  0
 16 17  2  0  0  0
 16 21  1  0  0  0
 16 31  1  0  0  0
 17 18  1  0  0  0
 17101  1  0  0  0
 18 19  2  0  0  0
 18102  1  0  0  0
 19 20  1  0  0  0
 19 24  1  0  0  0
 20 21  2  0  0  0
 20103  1  0  0  0
 21 23  1  0  0  0
 22 28  1  0  0  0
 22 32  2  0  0  0
 26 27  1  0  0  0
 28104  1  0  0  0
 28105  1  0  0  0
 29106  1  0  0  0
 29107  1  0  0  0
 33 34  1  0  0  0
 33 66  1  0  0  0
 33 70  2  0  0  0
 34 36  1  0  0  0
 34 59  1  0  0  0
 34108  1  0  0  0
 35 44  2  0  0  0
 35 45  1  0  0  0
 35 68  1  0  0  0
 36 56  1  0  0  0
 36109  1  0  0  0
 37 39  1  0  0  0
 37 47  1  0  0  0
 37 66  1  0  0  0
 37110  1  0  0  0
 38 43  2  0  0  0
 38 46  1  0  0  0
 38 47  1  0  0  0
 39 64  1  0  0  0
 39 67  2  0  0  0
 40 52  1  0  0  0
 40 53  2  0  0  0
 40 58  1  0  0  0
 41111  1  0  0  0
 41112  1  0  0  0
 41113  1  0  0  0
 41 48  1  0  0  0
 42 43  1  0  0  0
 42 66  1  0  0  0
 42114  1  0  0  0
 42115  1  0  0  0
 43 44  1  0  0  0
 44116  1  0  0  0
 45 46  2  0  0  0
 45117  1  0  0  0
 46118  1  0  0  0
 47119  1  0  0  0
 47120  1  0  0  0
 48 56  1  0  0  0
 48 65  1  0  0  0
 48121  1  0  0  0
 49 50  1  0  0  0
 49 53  1  0  0  0
 49 64  1  0  0  0
 49122  1  0  0  0
 50 51  1  0  0  0
 50123  1  0  0  0
 50124  1  0  0  0
 51 52  1  0  0  0
 51125  1  0  0  0
 51126  1  0  0  0
 52127  1  0  0  0
 52128  1  0  0  0
 53 54  1  0  0  0
 54 55  2  0  0  0
 54129  1  0  0  0
 55 57  1  0  0  0
 55130  1  0  0  0
 56 69  2  0  0  0
 57 58  2  0  0  0
 57131  1  0  0  0
 58132  1  0  0  0
 59 60  1  0  0  0
 59 61  1  0  0  0
 59 62  1  0  0  0
 60133  1  0  0  0
 60134  1  0  0  0
 60135  1  0  0  0
 61136  1  0  0  0
 61137  1  0  0  0
 61138  1  0  0  0
 62139  1  0  0  0
 62140  1  0  0  0
 62141  1  0  0  0
 63 65  1  0  0  0
 63142  1  0  0  0
 63143  1  0  0  0
 63144  1  0  0  0
 64145  1  0  0  0
 65146  1  0  0  0
 68 85  1  0  0  0
 71 72  2  0  0  0
 71 73  1  0  0  0
 71147  1  0  0  0
 72 74  1  0  0  0
 72 79  1  0  0  0
 73 75  2  0  0  0
 73 80  1  0  0  0
 74 81  1  0  0  0
 74 87  2  0  0  0
 75 86  1  0  0  0
 75 87  1  0  0  0
 76 81  1  0  0  0
 76148  1  0  0  0
 76149  1  0  0  0
 76150  1  0  0  0
 77 82  1  0  0  0
 77151  1  0  0  0
 77152  1  0  0  0
 77153  1  0  0  0
 78154  1  0  0  0
 78155  1  0  0  0
 78156  1  0  0  0
 78 86  1  0  0  0
 79 83  1  0  0  0
 79157  1  0  0  0
 79158  1  0  0  0
 80 82  1  0  0  0
 80159  1  0  0  0
 80160  1  0  0  0
 81161  1  0  0  0
 81162  1  0  0  0
 82163  1  0  0  0
 82164  1  0  0  0
 83 84  1  0  0  0
 83165  1  0  0  0
 83166  1  0  0  0
 84 85  1  0  0  0
 84167  1  0  0  0
 84168  1  0  0  0
 85169  1  0  0  0
 85170  1  0  0  0
 86171  1  0  0  0
M  ISO  4   1 100  68 101  85 101  86 100
M  END
> <chiral flag>
0

> <version>
0

> <s_m_source_file>
/data/baiqing/PycharmProjects/Reinvent-master-3.2/result/LINK_invent/BTK/process_docking_weight1_custom_sum_contain_oxygen_bond_distance_aromatic_linkinvent_7_9_3/rearranged_h_0083.sdf

> <i_m_source_file_index>
63

> <r_mmod_Potential_Energy-OPLS-2005>
-56.1306381225586

> <r_mmod_Stretch_Energy-OPLS-2005>
70.6461791992188

> <r_mmod_Bend_Energy-OPLS-2005>
133.79443359375

> <r_mmod_Torsional_Energy-OPLS-2005>
185.313674926758

> <r_mmod_Improper_Torsional_Energy-OPLS-2005>
3.52138710021973

> <r_mmod_Van_der_Waal_Energy-OPLS-2005>
137.71501159668

> <r_mmod_Electrostatic_Energy-OPLS-2005>
-419.953857421875

> <r_mmod_Solvation_Energy-OPLS-2005>
-197.516479492188

> <b_mmod_Minimization_Converged-OPLS-2005>
0

> <r_mmod_RMS_Derivative-OPLS-2005>
0.887759327888489

$$$$
63
                    3D
 Structure written by MMmdl.
167175  0  0  1  0            999 V2000
  -30.7472  -14.4627   20.5412 C   0  0  0  0  0  0
  -30.4130  -12.2917   19.4351 C   0  0  0  0  0  0
  -29.4959  -12.4851   18.2118 C   0  0  0  0  0  0
  -28.0173  -12.3532   18.6217 C   0  0  0  0  0  0
  -27.6632  -13.2031   19.8716 C   0  0  2  0  0  0
  -28.7090  -13.0305   20.9995 C   0  0  0  0  0  0
  -25.2634  -13.8161   20.5686 C   0  0  0  0  0  0
  -24.1878  -13.0453   20.9188 C   0  0  0  0  0  0
  -24.6422  -11.6917   20.8751 C   0  0  0  0  0  0
  -23.9069  -10.4321   21.0406 C   0  0  0  0  0  0
  -24.3622   -9.4240   21.9184 C   0  0  0  0  0  0
  -23.6311   -8.2271   22.0743 C   0  0  0  0  0  0
  -22.4283   -8.0312   21.3554 C   0  0  0  0  0  0
  -21.9926   -9.0279   20.4647 C   0  0  0  0  0  0
  -22.7241  -10.2169   20.3055 C   0  0  0  0  0  0
  -21.6867   -6.0758   22.5285 C   0  0  0  0  0  0
  -21.4027   -6.5654   23.8226 C   0  0  0  0  0  0
  -21.3655   -5.6789   24.9175 C   0  0  0  0  0  0
  -21.6038   -4.3055   24.7217 C   0  0  0  0  0  0
  -21.8820   -3.8164   23.4337 C   0  0  0  0  0  0
  -21.9210   -4.6987   22.3399 C   0  0  0  0  0  0
  -22.7908  -13.5276   21.1840 C   0  0  0  0  0  0
  -22.1670   -4.2175   21.0976 F   0  0  0  0  0  0
  -21.5626   -3.4529   25.7722 F   0  0  0  0  0  0
  -30.0408  -13.3042   20.4369 N   0  0  0  0  0  0
  -26.3050  -12.9321   20.3347 N   0  0  0  0  0  0
  -25.9356  -11.6483   20.5784 N   0  0  0  0  0  0
  -22.0528  -12.8284   22.0386 N   0  0  0  0  0  0
  -25.4379  -15.1872   20.4084 N   0  0  0  0  0  0
  -31.8822  -14.5886   20.0789 O   0  0  0  0  0  0
  -21.6661   -6.8898   21.4246 O   0  0  0  0  0  0
  -22.3610  -14.5586   20.6684 O   0  0  0  0  0  0
  -24.6178  -31.8700   23.2150 C   0  0  0  0  0  0
  -25.9071  -32.4833   23.8422 C   0  0  1  0  0  0
  -27.2181  -27.4195   20.0759 C   0  0  0  0  0  0
  -25.5930  -33.8638   24.2342 N   0  0  0  0  0  0
  -23.4041  -30.5007   21.5581 C   0  0  2  0  0  0
  -24.8428  -28.9787   20.1162 C   0  0  0  0  0  0
  -22.7427  -29.4674   22.4998 C   0  0  0  0  0  0
  -18.0279  -28.1377   22.8489 C   0  0  0  0  0  0
  -24.1491  -36.7312   23.2635 C   0  0  0  0  0  0
  -25.9399  -30.8301   21.3731 C   0  0  0  0  0  0
  -26.0125  -29.4693   20.7096 C   0  0  0  0  0  0
  -27.2041  -28.6999   20.6851 C   0  0  0  0  0  0
  -26.0130  -26.9610   19.4784 C   0  0  0  0  0  0
  -24.8384  -27.7229   19.5010 C   0  0  0  0  0  0
  -23.6098  -29.8477   20.1696 C   0  0  0  0  0  0
  -25.4115  -36.3118   24.0338 C   0  0  1  0  0  0
  -20.5870  -28.3664   23.1315 C   0  0  2  0  0  0
  -20.6771  -26.9402   22.5408 C   0  0  0  0  0  0
  -19.5748  -26.6389   21.5206 C   0  0  0  0  0  0
  -18.1930  -26.7931   22.1615 C   0  0  0  0  0  0
  -19.1528  -28.8838   23.2902 C   0  0  0  0  0  0
  -18.9454  -30.1446   23.8907 C   0  0  0  0  0  0
  -17.6454  -30.6582   24.0565 C   0  0  0  0  0  0
  -25.9042  -34.9481   23.5124 C   0  0  0  0  0  0
  -16.5346  -29.9080   23.6330 C   0  0  0  0  0  0
  -16.7269  -28.6498   23.0355 C   0  0  0  0  0  0
  -26.4491  -31.6616   25.0752 C   0  0  0  0  0  0
  -25.3752  -31.3729   26.1492 C   0  0  0  0  0  0
  -27.0320  -30.3054   24.6144 C   0  0  0  0  0  0
  -27.6069  -32.4343   25.7502 C   0  0  0  0  0  0
  -27.5586  -37.1814   24.8469 C   0  0  0  0  0  0
  -21.4154  -29.3039   22.3729 N   0  0  0  0  0  0
  -26.4302  -37.3801   23.9407 N   0  0  0  0  0  0
  -24.6726  -31.0798   22.1062 N   0  0  0  0  0  0
  -23.4198  -28.8205   23.3032 O   0  0  0  0  0  0
  -28.3745  -26.6431   20.0852 O   0  0  0  0  0  0
  -26.5593  -34.8931   22.4678 O   0  0  0  0  0  0
  -23.5367  -32.1458   23.7530 O   0  0  0  0  0  0
  -29.3647  -20.4682   20.0879 C   0  0  0  0  0  0
  -29.6187  -21.6332   19.3299 C   0  0  0  0  0  0
  -30.5610  -21.5470   18.2723 C   0  0  0  0  0  0
  -30.0092  -19.2598   19.7614 C   0  0  0  0  0  0
  -31.2182  -20.3091   18.0639 C   0  0  0  0  0  0
  -30.8034  -22.7242   17.3269 C   0  0  0  0  0  0
  -31.4827  -19.5663   15.6563 C   0  0  0  0  0  0
  -28.5929  -17.2835   19.1856 C   0  0  0  0  0  0
  -28.7014  -22.8420   19.5244 C   0  0  0  0  0  0
  -32.1952  -20.0748   16.9185 C   0  0  0  0  0  0
  -29.3030  -24.2269   19.8961 C   0  0  0  0  0  0
  -30.5555  -16.9385   20.8403 C   0  0  0  0  0  0
  -28.1773  -25.2668   19.7083 C   0  0  0  0  0  0
  -29.4742  -17.9127   20.2802 C   0  0  1  0  0  0
  -30.9352  -19.2001   18.7803 N   0  0  0  0  0  0
  -30.0903  -15.5374   21.0121 N   0  0  0  0  0  0
  -31.4593  -12.3575   19.1362 H   0  0  0  0  0  0
  -30.2873  -11.2909   19.8526 H   0  0  0  0  0  0
  -29.7376  -11.7485   17.4431 H   0  0  0  0  0  0
  -29.6744  -13.4634   17.7653 H   0  0  0  0  0  0
  -27.8257  -11.2986   18.8211 H   0  0  0  0  0  0
  -27.3704  -12.6267   17.7861 H   0  0  0  0  0  0
  -27.6969  -14.2398   19.5495 H   0  0  0  0  0  0
  -28.6868  -12.0117   21.3898 H   0  0  0  0  0  0
  -28.4794  -13.6800   21.8464 H   0  0  0  0  0  0
  -25.2770   -9.5733   22.4754 H   0  0  0  0  0  0
  -24.0041   -7.4662   22.7455 H   0  0  0  0  0  0
  -21.0854   -8.8789   19.8955 H   0  0  0  0  0  0
  -22.3686  -10.9706   19.6169 H   0  0  0  0  0  0
  -21.2010   -7.6157   23.9736 H   0  0  0  0  0  0
  -21.1470   -6.0512   25.9078 H   0  0  0  0  0  0
  -22.0602   -2.7627   23.2818 H   0  0  0  0  0  0
  -22.4119  -11.9942   22.4784 H   0  0  0  0  0  0
  -21.1152  -13.1332   22.2550 H   0  0  0  0  0  0
  -24.6673  -15.8392   20.5095 H   0  0  0  0  0  0
  -26.2845  -15.6251   20.0715 H   0  0  0  0  0  0
  -26.7136  -32.5527   23.1179 H   0  0  0  0  0  0
  -25.0116  -33.9806   25.0512 H   0  0  0  0  0  0
  -22.6941  -31.3195   21.4265 H   0  0  0  0  0  0
  -23.3753  -35.9642   23.3314 H   0  0  0  0  0  0
  -24.3579  -36.8906   22.2042 H   0  0  0  0  0  0
  -23.7245  -37.6527   23.6634 H   0  0  0  0  0  0
  -26.0628  -31.6028   20.6129 H   0  0  0  0  0  0
  -26.8248  -30.8707   21.9964 H   0  0  0  0  0  0
  -28.1063  -29.0780   21.1456 H   0  0  0  0  0  0
  -25.9265  -26.0061   18.9837 H   0  0  0  0  0  0
  -23.9381  -27.3391   19.0408 H   0  0  0  0  0  0
  -23.7229  -30.6278   19.4162 H   0  0  0  0  0  0
  -22.7317  -29.2739   19.8674 H   0  0  0  0  0  0
  -25.1291  -36.1981   25.0832 H   0  0  0  0  0  0
  -20.9961  -28.3219   24.1436 H   0  0  0  0  0  0
  -20.5683  -26.2269   23.3594 H   0  0  0  0  0  0
  -21.6648  -26.7458   22.1199 H   0  0  0  0  0  0
  -19.6919  -25.6303   21.1235 H   0  0  0  0  0  0
  -19.6699  -27.3202   20.6740 H   0  0  0  0  0  0
  -17.4211  -26.6693   21.4009 H   0  0  0  0  0  0
  -18.0323  -26.0058   22.8991 H   0  0  0  0  0  0
  -19.7928  -30.7264   24.2287 H   0  0  0  0  0  0
  -17.5008  -31.6266   24.5156 H   0  0  0  0  0  0
  -15.5350  -30.2987   23.7654 H   0  0  0  0  0  0
  -15.8669  -28.0823   22.7069 H   0  0  0  0  0  0
  -24.5922  -30.7084   25.7824 H   0  0  0  0  0  0
  -24.8948  -32.2886   26.4947 H   0  0  0  0  0  0
  -25.8093  -30.8889   27.0247 H   0  0  0  0  0  0
  -26.2863  -29.6819   24.1198 H   0  0  0  0  0  0
  -27.4079  -29.7293   25.4609 H   0  0  0  0  0  0
  -27.8710  -30.4365   23.9306 H   0  0  0  0  0  0
  -27.2692  -33.3636   26.2104 H   0  0  0  0  0  0
  -28.3856  -32.6926   25.0314 H   0  0  0  0  0  0
  -28.0767  -31.8463   26.5396 H   0  0  0  0  0  0
  -28.2623  -38.0095   24.7509 H   0  0  0  0  0  0
  -28.1066  -36.2631   24.6307 H   0  0  0  0  0  0
  -27.2303  -37.1476   25.8874 H   0  0  0  0  0  0
  -20.9319  -29.8746   21.6935 H   0  0  0  0  0  0
  -26.0192  -38.2881   24.1406 H   0  0  0  0  0  0
  -28.5808  -20.4640   20.8339 H   0  0  0  0  0  0
  -31.6347  -23.3361   17.6758 H   0  0  0  0  0  0
  -29.9280  -23.3632   17.2298 H   0  0  0  0  0  0
  -31.0293  -22.4010   16.3120 H   0  0  0  0  0  0
  -32.1930  -19.3603   14.8546 H   0  0  0  0  0  0
  -30.7591  -20.2951   15.2910 H   0  0  0  0  0  0
  -30.9387  -18.6440   15.8650 H   0  0  0  0  0  0
  -27.8320  -17.9903   18.8557 H   0  0  0  0  0  0
  -28.0720  -16.3999   19.5392 H   0  0  0  0  0  0
  -29.1836  -17.0060   18.3125 H   0  0  0  0  0  0
  -27.9552  -22.5864   20.2774 H   0  0  0  0  0  0
  -28.1289  -22.9320   18.5998 H   0  0  0  0  0  0
  -32.9347  -19.3368   17.2309 H   0  0  0  0  0  0
  -32.7640  -20.9794   16.7029 H   0  0  0  0  0  0
  -30.1501  -24.4875   19.2646 H   0  0  0  0  0  0
  -29.6658  -24.2153   20.9228 H   0  0  0  0  0  0
  -30.9297  -17.3093   21.7947 H   0  0  0  0  0  0
  -31.4115  -16.9684   20.1660 H   0  0  0  0  0  0
  -27.3275  -24.8820   20.2771 H   0  0  0  0  0  0
  -27.9112  -25.2524   18.6490 H   0  0  0  0  0  0
  -28.8126  -18.1425   21.1176 H   0  0  0  0  0  0
  -29.1687  -15.3869   21.3917 H   0  0  0  0  0  0
  1 25  1  0  0  0
  1 30  2  0  0  0
  1 86  1  0  0  0
  2  3  1  0  0  0
  2 25  1  0  0  0
  2 87  1  0  0  0
  2 88  1  0  0  0
  3  4  1  0  0  0
  3 89  1  0  0  0
  3 90  1  0  0  0
  4  5  1  0  0  0
  4 91  1  0  0  0
  4 92  1  0  0  0
  5  6  1  0  0  0
  5 26  1  0  0  0
  5 93  1  0  0  0
  6 25  1  0  0  0
  6 94  1  0  0  0
  6 95  1  0  0  0
  7  8  2  0  0  0
  7 26  1  0  0  0
  7 29  1  0  0  0
  8  9  1  0  0  0
  8 22  1  0  0  0
  9 10  1  0  0  0
  9 27  2  0  0  0
 10 11  2  0  0  0
 10 15  1  0  0  0
 11 12  1  0  0  0
 11 96  1  0  0  0
 12 13  2  0  0  0
 12 97  1  0  0  0
 13 14  1  0  0  0
 13 31  1  0  0  0
 14 15  2  0  0  0
 14 98  1  0  0  0
 15 99  1  0  0  0
 16 17  2  0  0  0
 16 21  1  0  0  0
 16 31  1  0  0  0
 17 18  1  0  0  0
 17100  1  0  0  0
 18 19  2  0  0  0
 18101  1  0  0  0
 19 20  1  0  0  0
 19 24  1  0  0  0
 20 21  2  0  0  0
 20102  1  0  0  0
 21 23  1  0  0  0
 22 28  1  0  0  0
 22 32  2  0  0  0
 26 27  1  0  0  0
 28103  1  0  0  0
 28104  1  0  0  0
 29105  1  0  0  0
 29106  1  0  0  0
 33 34  1  0  0  0
 33 66  1  0  0  0
 33 70  2  0  0  0
 34 36  1  0  0  0
 34 59  1  0  0  0
 34107  1  0  0  0
 35 44  2  0  0  0
 35 45  1  0  0  0
 35 68  1  0  0  0
 36 56  1  0  0  0
 36108  1  0  0  0
 37 39  1  0  0  0
 37 47  1  0  0  0
 37 66  1  0  0  0
 37109  1  0  0  0
 38 43  2  0  0  0
 38 46  1  0  0  0
 38 47  1  0  0  0
 39 64  1  0  0  0
 39 67  2  0  0  0
 40 52  1  0  0  0
 40 53  2  0  0  0
 40 58  1  0  0  0
 41110  1  0  0  0
 41111  1  0  0  0
 41112  1  0  0  0
 41 48  1  0  0  0
 42 43  1  0  0  0
 42 66  1  0  0  0
 42113  1  0  0  0
 42114  1  0  0  0
 43 44  1  0  0  0
 44115  1  0  0  0
 45 46  2  0  0  0
 45116  1  0  0  0
 46117  1  0  0  0
 47118  1  0  0  0
 47119  1  0  0  0
 48 56  1  0  0  0
 48 65  1  0  0  0
 48120  1  0  0  0
 49 50  1  0  0  0
 49 53  1  0  0  0
 49 64  1  0  0  0
 49121  1  0  0  0
 50 51  1  0  0  0
 50122  1  0  0  0
 50123  1  0  0  0
 51 52  1  0  0  0
 51124  1  0  0  0
 51125  1  0  0  0
 52126  1  0  0  0
 52127  1  0  0  0
 53 54  1  0  0  0
 54 55  2  0  0  0
 54128  1  0  0  0
 55 57  1  0  0  0
 55129  1  0  0  0
 56 69  2  0  0  0
 57 58  2  0  0  0
 57130  1  0  0  0
 58131  1  0  0  0
 59 60  1  0  0  0
 59 61  1  0  0  0
 59 62  1  0  0  0
 60132  1  0  0  0
 60133  1  0  0  0
 60134  1  0  0  0
 61135  1  0  0  0
 61136  1  0  0  0
 61137  1  0  0  0
 62138  1  0  0  0
 62139  1  0  0  0
 62140  1  0  0  0
 63 65  1  0  0  0
 63141  1  0  0  0
 63142  1  0  0  0
 63143  1  0  0  0
 64144  1  0  0  0
 65145  1  0  0  0
 68 83  1  0  0  0
 71 72  2  0  0  0
 71 74  1  0  0  0
 71146  1  0  0  0
 72 73  1  0  0  0
 72 79  1  0  0  0
 73 75  2  0  0  0
 73 76  1  0  0  0
 74 84  1  0  0  0
 74 85  2  0  0  0
 75 80  1  0  0  0
 75 85  1  0  0  0
 76147  1  0  0  0
 76148  1  0  0  0
 76149  1  0  0  0
 77 80  1  0  0  0
 77150  1  0  0  0
 77151  1  0  0  0
 77152  1  0  0  0
 78153  1  0  0  0
 78154  1  0  0  0
 78155  1  0  0  0
 78 84  1  0  0  0
 79 81  1  0  0  0
 79156  1  0  0  0
 79157  1  0  0  0
 80158  1  0  0  0
 80159  1  0  0  0
 81 83  1  0  0  0
 81160  1  0  0  0
 81161  1  0  0  0
 82 84  1  0  0  0
 82 86  1  0  0  0
 82162  1  0  0  0
 82163  1  0  0  0
 83164  1  0  0  0
 83165  1  0  0  0
 84166  1  0  0  0
 86167  1  0  0  0
M  ISO  4   1 100  68 101  83 101  86 100
M  END
> <chiral flag>
0

> <version>
0

> <s_m_source_file>
/data/baiqing/PycharmProjects/Reinvent-master-3.2/result/LINK_invent/BTK/process_docking_weight1_custom_sum_contain_oxygen_bond_distance_aromatic_linkinvent_7_9_3/rearranged_h_0083.sdf

> <i_m_source_file_index>
64

> <r_mmod_Potential_Energy-OPLS-2005>
-246.289108276367

> <r_mmod_Stretch_Energy-OPLS-2005>
41.6577568054199

> <r_mmod_Bend_Energy-OPLS-2005>
115.594825744629

> <r_mmod_Torsional_Energy-OPLS-2005>
191.775695800781

> <r_mmod_Improper_Torsional_Energy-OPLS-2005>
7.70027494430542

> <r_mmod_Van_der_Waal_Energy-OPLS-2005>
173.428298950195

> <r_mmod_Electrostatic_Energy-OPLS-2005>
-570.286254882812

> <r_mmod_Solvation_Energy-OPLS-2005>
-223.489074707031

> <b_mmod_Minimization_Converged-OPLS-2005>
0

> <r_mmod_RMS_Derivative-OPLS-2005>
2.43933367729187

$$$$
64
                    3D
 Structure written by MMmdl.
164172  0  0  1  0            999 V2000
  -30.6262  -14.7338   20.4441 C   0  0  0  0  0  0
  -30.4304  -12.4467   19.4656 C   0  0  0  0  0  0
  -29.5064  -12.4978   18.2301 C   0  0  0  0  0  0
  -28.0302  -12.3336   18.6432 C   0  0  0  0  0  0
  -27.6407  -13.2331   19.8485 C   0  0  2  0  0  0
  -28.6895  -13.1682   20.9792 C   0  0  0  0  0  0
  -25.2496  -13.8207   20.5690 C   0  0  0  0  0  0
  -24.1791  -13.0450   20.9206 C   0  0  0  0  0  0
  -24.6383  -11.6932   20.8745 C   0  0  0  0  0  0
  -23.9062  -10.4301   21.0401 C   0  0  0  0  0  0
  -24.3617   -9.4217   21.9173 C   0  0  0  0  0  0
  -23.6292   -8.2247   22.0751 C   0  0  0  0  0  0
  -22.4274   -8.0278   21.3543 C   0  0  0  0  0  0
  -21.9913   -9.0247   20.4639 C   0  0  0  0  0  0
  -22.7243  -10.2128   20.3044 C   0  0  0  0  0  0
  -21.6858   -6.0729   22.5271 C   0  0  0  0  0  0
  -21.4019   -6.5630   23.8202 C   0  0  0  0  0  0
  -21.3658   -5.6787   24.9164 C   0  0  0  0  0  0
  -21.6054   -4.3048   24.7219 C   0  0  0  0  0  0
  -21.8821   -3.8138   23.4340 C   0  0  0  0  0  0
  -21.9192   -4.6953   22.3398 C   0  0  0  0  0  0
  -22.7816  -13.5219   21.1870 C   0  0  0  0  0  0
  -22.1660   -4.2133   21.0977 F   0  0  0  0  0  0
  -21.5631   -3.4536   25.7733 F   0  0  0  0  0  0
  -29.9874  -13.5153   20.3886 N   0  0  0  0  0  0
  -26.2932  -12.9414   20.3287 N   0  0  0  0  0  0
  -25.9311  -11.6555   20.5759 N   0  0  0  0  0  0
  -22.0472  -12.8189   22.0426 N   0  0  0  0  0  0
  -25.4183  -15.1929   20.4092 N   0  0  0  0  0  0
  -31.8248  -14.8088   20.1610 O   0  0  0  0  0  0
  -21.6646   -6.8872   21.4234 O   0  0  0  0  0  0
  -22.3486  -14.5517   20.6715 O   0  0  0  0  0  0
  -24.6331  -31.8541   23.1960 C   0  0  0  0  0  0
  -25.9156  -32.4735   23.8310 C   0  0  1  0  0  0
  -27.2217  -27.2609   20.1239 C   0  0  0  0  0  0
  -25.5947  -33.8536   24.2243 N   0  0  0  0  0  0
  -23.4287  -30.4781   21.5387 C   0  0  2  0  0  0
  -24.8749  -28.9273   20.1081 C   0  0  0  0  0  0
  -22.7525  -29.4588   22.4878 C   0  0  0  0  0  0
  -18.0298  -28.1391   22.8459 C   0  0  0  0  0  0
  -24.1497  -36.7275   23.2650 C   0  0  0  0  0  0
  -25.9775  -30.7657   21.3786 C   0  0  0  0  0  0
  -26.0480  -29.3896   20.7182 C   0  0  0  0  0  0
  -27.2212  -28.5689   20.7168 C   0  0  0  0  0  0
  -26.0236  -26.8699   19.4808 C   0  0  0  0  0  0
  -24.8690  -27.6736   19.4799 C   0  0  0  0  0  0
  -23.6474  -29.8154   20.1543 C   0  0  0  0  0  0
  -25.4111  -36.3049   24.0341 C   0  0  1  0  0  0
  -20.5906  -28.3688   23.1259 C   0  0  2  0  0  0
  -20.6786  -26.9395   22.5412 C   0  0  0  0  0  0
  -19.5761  -26.6367   21.5223 C   0  0  0  0  0  0
  -18.1935  -26.7928   22.1620 C   0  0  0  0  0  0
  -19.1557  -28.8853   23.2852 C   0  0  0  0  0  0
  -18.9493  -30.1464   23.8857 C   0  0  0  0  0  0
  -17.6490  -30.6579   24.0559 C   0  0  0  0  0  0
  -25.9057  -34.9433   23.5092 C   0  0  0  0  0  0
  -16.5373  -29.9076   23.6334 C   0  0  0  0  0  0
  -16.7289  -28.6512   23.0319 C   0  0  0  0  0  0
  -26.4497  -31.6549   25.0704 C   0  0  0  0  0  0
  -25.3721  -31.3722   26.1432 C   0  0  0  0  0  0
  -27.0350  -30.2963   24.6190 C   0  0  0  0  0  0
  -27.6042  -32.4295   25.7470 C   0  0  0  0  0  0
  -27.5570  -37.1787   24.8469 C   0  0  0  0  0  0
  -21.4227  -29.3036   22.3642 N   0  0  0  0  0  0
  -26.4276  -37.3758   23.9419 N   0  0  0  0  0  0
  -24.6990  -31.0521   22.0928 N   0  0  0  0  0  0
  -23.4234  -28.8127   23.2967 O   0  0  0  0  0  0
  -28.3149  -26.3617   20.1832 O   0  0  0  0  0  0
  -26.5646  -34.8921   22.4675 O   0  0  0  0  0  0
  -23.5478  -32.1361   23.7242 O   0  0  0  0  0  0
  -28.0895  -21.6766   22.3005 C   0  0  0  0  0  0
  -27.7189  -20.8906   23.4041 C   0  0  0  0  0  0
  -28.7230  -21.1154   21.1680 C   0  0  0  0  0  0
  -27.9790  -19.5120   23.3544 C   0  0  0  0  0  0
  -28.9516  -19.6572   21.2161 C   0  0  0  0  0  0
  -27.0570  -21.5455   24.6054 C   0  0  0  0  0  0
  -26.4247  -17.6565   24.1289 C   0  0  0  0  0  0
  -29.0281  -22.1728   20.0274 C   0  0  0  0  0  0
  -27.6242  -18.5468   24.4788 C   0  0  0  0  0  0
  -29.4847  -18.6289   20.1399 C   0  0  0  0  0  0
  -29.1892  -23.7725   20.3613 C   0  0  0  0  0  0
  -30.3787  -17.3430   20.6152 C   0  0  0  0  0  0
  -28.0645  -24.8832   20.0177 C   0  0  0  0  0  0
  -28.5591  -18.9402   22.2901 N   0  0  0  0  0  0
  -29.8776  -15.8909   20.6010 N   0  0  0  0  0  0
  -31.4697  -12.5728   19.1569 H   0  0  0  0  0  0
  -30.3779  -11.4722   19.9533 H   0  0  0  0  0  0
  -29.7845  -11.7189   17.5186 H   0  0  0  0  0  0
  -29.6385  -13.4493   17.7109 H   0  0  0  0  0  0
  -27.8756  -11.2853   18.9009 H   0  0  0  0  0  0
  -27.3765  -12.5364   17.7938 H   0  0  0  0  0  0
  -27.6347  -14.2556   19.4697 H   0  0  0  0  0  0
  -28.7245  -12.1705   21.4206 H   0  0  0  0  0  0
  -28.4309  -13.8530   21.7877 H   0  0  0  0  0  0
  -25.2761   -9.5690   22.4749 H   0  0  0  0  0  0
  -23.9997   -7.4644   22.7475 H   0  0  0  0  0  0
  -21.0847   -8.8770   19.8943 H   0  0  0  0  0  0
  -22.3703  -10.9663   19.6149 H   0  0  0  0  0  0
  -21.2015   -7.6139   23.9700 H   0  0  0  0  0  0
  -21.1483   -6.0517   25.9067 H   0  0  0  0  0  0
  -22.0603   -2.7593   23.2848 H   0  0  0  0  0  0
  -22.4107  -11.9844   22.4794 H   0  0  0  0  0  0
  -21.1081  -13.1188   22.2634 H   0  0  0  0  0  0
  -24.6557  -15.8492   20.5356 H   0  0  0  0  0  0
  -26.2634  -15.6348   20.0733 H   0  0  0  0  0  0
  -26.7221  -32.5353   23.1035 H   0  0  0  0  0  0
  -25.0091  -33.9668   25.0387 H   0  0  0  0  0  0
  -22.7254  -31.3010   21.3927 H   0  0  0  0  0  0
  -23.3761  -35.9610   23.3297 H   0  0  0  0  0  0
  -24.3613  -36.8905   22.2070 H   0  0  0  0  0  0
  -23.7265  -37.6478   23.6678 H   0  0  0  0  0  0
  -26.1294  -31.5262   20.6117 H   0  0  0  0  0  0
  -26.8513  -30.8060   22.0169 H   0  0  0  0  0  0
  -28.1152  -28.9180   21.2151 H   0  0  0  0  0  0
  -25.9485  -25.9149   18.9841 H   0  0  0  0  0  0
  -23.9721  -27.3116   18.9963 H   0  0  0  0  0  0
  -23.7790  -30.5944   19.4036 H   0  0  0  0  0  0
  -22.7639  -29.2556   19.8412 H   0  0  0  0  0  0
  -25.1295  -36.1881   25.0837 H   0  0  0  0  0  0
  -20.9999  -28.3260   24.1375 H   0  0  0  0  0  0
  -20.5706  -26.2285   23.3615 H   0  0  0  0  0  0
  -21.6643  -26.7414   22.1191 H   0  0  0  0  0  0
  -19.6924  -25.6287   21.1223 H   0  0  0  0  0  0
  -19.6704  -27.3201   20.6777 H   0  0  0  0  0  0
  -17.4207  -26.6683   21.4011 H   0  0  0  0  0  0
  -18.0304  -26.0091   22.9034 H   0  0  0  0  0  0
  -19.7978  -30.7286   24.2182 H   0  0  0  0  0  0
  -17.5057  -31.6249   24.5178 H   0  0  0  0  0  0
  -15.5373  -30.2970   23.7693 H   0  0  0  0  0  0
  -15.8692  -28.0849   22.6995 H   0  0  0  0  0  0
  -24.5932  -30.7003   25.7792 H   0  0  0  0  0  0
  -24.8871  -32.2899   26.4766 H   0  0  0  0  0  0
  -25.8061  -30.8990   27.0256 H   0  0  0  0  0  0
  -26.2939  -29.6686   24.1218 H   0  0  0  0  0  0
  -27.4062  -29.7223   25.4691 H   0  0  0  0  0  0
  -27.8795  -30.4241   23.9421 H   0  0  0  0  0  0
  -27.2651  -33.3630   26.1970 H   0  0  0  0  0  0
  -28.3876  -32.6784   25.0302 H   0  0  0  0  0  0
  -28.0674  -31.8469   26.5443 H   0  0  0  0  0  0
  -28.2568  -38.0095   24.7504 H   0  0  0  0  0  0
  -28.1079  -36.2624   24.6281 H   0  0  0  0  0  0
  -27.2315  -37.1434   25.8882 H   0  0  0  0  0  0
  -20.9411  -29.8788   21.6869 H   0  0  0  0  0  0
  -26.0145  -38.2836   24.1399 H   0  0  0  0  0  0
  -27.8644  -22.7317   22.3331 H   0  0  0  0  0  0
  -26.8537  -22.6019   24.4254 H   0  0  0  0  0  0
  -27.7053  -21.4798   25.4799 H   0  0  0  0  0  0
  -26.1094  -21.0604   24.8364 H   0  0  0  0  0  0
  -26.1831  -16.9900   24.9567 H   0  0  0  0  0  0
  -26.6407  -17.0378   23.2573 H   0  0  0  0  0  0
  -25.5420  -18.2547   23.9034 H   0  0  0  0  0  0
  -28.2873  -22.0470   19.2358 H   0  0  0  0  0  0
  -29.9681  -21.8437   19.5825 H   0  0  0  0  0  0
  -27.4312  -19.0770   25.4100 H   0  0  0  0  0  0
  -28.4932  -17.9183   24.6790 H   0  0  0  0  0  0
  -30.0962  -19.2199   19.4584 H   0  0  0  0  0  0
  -28.6411  -18.2872   19.5401 H   0  0  0  0  0  0
  -30.0451  -24.0951   19.7664 H   0  0  0  0  0  0
  -29.5398  -23.9076   21.3852 H   0  0  0  0  0  0
  -30.7980  -17.5471   21.6005 H   0  0  0  0  0  0
  -31.2498  -17.3479   19.9588 H   0  0  0  0  0  0
  -27.1805  -24.6294   20.6050 H   0  0  0  0  0  0
  -27.7924  -24.7236   18.9745 H   0  0  0  0  0  0
  -28.8916  -15.7590   20.7695 H   0  0  0  0  0  0
  1 25  1  0  0  0
  1 30  2  0  0  0
  1 85  1  0  0  0
  2  3  1  0  0  0
  2 25  1  0  0  0
  2 86  1  0  0  0
  2 87  1  0  0  0
  3  4  1  0  0  0
  3 88  1  0  0  0
  3 89  1  0  0  0
  4  5  1  0  0  0
  4 90  1  0  0  0
  4 91  1  0  0  0
  5  6  1  0  0  0
  5 26  1  0  0  0
  5 92  1  0  0  0
  6 25  1  0  0  0
  6 93  1  0  0  0
  6 94  1  0  0  0
  7  8  2  0  0  0
  7 26  1  0  0  0
  7 29  1  0  0  0
  8  9  1  0  0  0
  8 22  1  0  0  0
  9 10  1  0  0  0
  9 27  2  0  0  0
 10 11  2  0  0  0
 10 15  1  0  0  0
 11 12  1  0  0  0
 11 95  1  0  0  0
 12 13  2  0  0  0
 12 96  1  0  0  0
 13 14  1  0  0  0
 13 31  1  0  0  0
 14 15  2  0  0  0
 14 97  1  0  0  0
 15 98  1  0  0  0
 16 17  2  0  0  0
 16 21  1  0  0  0
 16 31  1  0  0  0
 17 18  1  0  0  0
 17 99  1  0  0  0
 18 19  2  0  0  0
 18100  1  0  0  0
 19 20  1  0  0  0
 19 24  1  0  0  0
 20 21  2  0  0  0
 20101  1  0  0  0
 21 23  1  0  0  0
 22 28  1  0  0  0
 22 32  2  0  0  0
 26 27  1  0  0  0
 28102  1  0  0  0
 28103  1  0  0  0
 29104  1  0  0  0
 29105  1  0  0  0
 33 34  1  0  0  0
 33 66  1  0  0  0
 33 70  2  0  0  0
 34 36  1  0  0  0
 34 59  1  0  0  0
 34106  1  0  0  0
 35 44  2  0  0  0
 35 45  1  0  0  0
 35 68  1  0  0  0
 36 56  1  0  0  0
 36107  1  0  0  0
 37 39  1  0  0  0
 37 47  1  0  0  0
 37 66  1  0  0  0
 37108  1  0  0  0
 38 43  2  0  0  0
 38 46  1  0  0  0
 38 47  1  0  0  0
 39 64  1  0  0  0
 39 67  2  0  0  0
 40 52  1  0  0  0
 40 53  2  0  0  0
 40 58  1  0  0  0
 41109  1  0  0  0
 41110  1  0  0  0
 41111  1  0  0  0
 41 48  1  0  0  0
 42 43  1  0  0  0
 42 66  1  0  0  0
 42112  1  0  0  0
 42113  1  0  0  0
 43 44  1  0  0  0
 44114  1  0  0  0
 45 46  2  0  0  0
 45115  1  0  0  0
 46116  1  0  0  0
 47117  1  0  0  0
 47118  1  0  0  0
 48 56  1  0  0  0
 48 65  1  0  0  0
 48119  1  0  0  0
 49 50  1  0  0  0
 49 53  1  0  0  0
 49 64  1  0  0  0
 49120  1  0  0  0
 50 51  1  0  0  0
 50121  1  0  0  0
 50122  1  0  0  0
 51 52  1  0  0  0
 51123  1  0  0  0
 51124  1  0  0  0
 52125  1  0  0  0
 52126  1  0  0  0
 53 54  1  0  0  0
 54 55  2  0  0  0
 54127  1  0  0  0
 55 57  1  0  0  0
 55128  1  0  0  0
 56 69  2  0  0  0
 57 58  2  0  0  0
 57129  1  0  0  0
 58130  1  0  0  0
 59 60  1  0  0  0
 59 61  1  0  0  0
 59 62  1  0  0  0
 60131  1  0  0  0
 60132  1  0  0  0
 60133  1  0  0  0
 61134  1  0  0  0
 61135  1  0  0  0
 61136  1  0  0  0
 62137  1  0  0  0
 62138  1  0  0  0
 62139  1  0  0  0
 63 65  1  0  0  0
 63140  1  0  0  0
 63141  1  0  0  0
 63142  1  0  0  0
 64143  1  0  0  0
 65144  1  0  0  0
 68 83  1  0  0  0
 71 72  2  0  0  0
 71 73  1  0  0  0
 71145  1  0  0  0
 72 74  1  0  0  0
 72 76  1  0  0  0
 73 75  2  0  0  0
 73 78  1  0  0  0
 74 79  1  0  0  0
 74 84  2  0  0  0
 75 80  1  0  0  0
 75 84  1  0  0  0
 76146  1  0  0  0
 76147  1  0  0  0
 76148  1  0  0  0
 77 79  1  0  0  0
 77149  1  0  0  0
 77150  1  0  0  0
 77151  1  0  0  0
 78 81  1  0  0  0
 78152  1  0  0  0
 78153  1  0  0  0
 79154  1  0  0  0
 79155  1  0  0  0
 80 82  1  0  0  0
 80156  1  0  0  0
 80157  1  0  0  0
 81 83  1  0  0  0
 81158  1  0  0  0
 81159  1  0  0  0
 82 85  1  0  0  0
 82160  1  0  0  0
 82161  1  0  0  0
 83162  1  0  0  0
 83163  1  0  0  0
 85164  1  0  0  0
M  ISO  4   1 100  68 101  83 101  85 100
M  END
> <chiral flag>
0

> <version>
0

> <s_m_source_file>
/data/baiqing/PycharmProjects/Reinvent-master-3.2/result/LINK_invent/BTK/process_docking_weight1_custom_sum_contain_oxygen_bond_distance_aromatic_linkinvent_7_9_3/rearranged_h_0083.sdf

> <i_m_source_file_index>
65

> <r_mmod_Potential_Energy-OPLS-2005>
56.1821823120117

> <r_mmod_Stretch_Energy-OPLS-2005>
135.187271118164

> <r_mmod_Bend_Energy-OPLS-2005>
206.212524414062

> <r_mmod_Torsional_Energy-OPLS-2005>
220.847564697266

> <r_mmod_Improper_Torsional_Energy-OPLS-2005>
4.99158763885498

> <r_mmod_Van_der_Waal_Energy-OPLS-2005>
141.398193359375

> <r_mmod_Electrostatic_Energy-OPLS-2005>
-519.790344238281

> <r_mmod_Solvation_Energy-OPLS-2005>
-217.356170654297

> <b_mmod_Minimization_Converged-OPLS-2005>
0

> <r_mmod_RMS_Derivative-OPLS-2005>
2.21138429641724

$$$$
65
                    3D
 Structure written by MMmdl.
156163  0  0  1  0            999 V2000
  -30.4636  -15.1495   20.4288 C   0  0  0  0  0  0
  -30.4457  -12.7197   19.5463 C   0  0  0  0  0  0
  -29.5479  -12.5722   18.2935 C   0  0  0  0  0  0
  -28.0848  -12.3087   18.6999 C   0  0  0  0  0  0
  -27.6225  -13.2629   19.8302 C   0  0  2  0  0  0
  -28.6488  -13.3686   20.9762 C   0  0  0  0  0  0
  -25.2438  -13.8252   20.5757 C   0  0  0  0  0  0
  -24.1731  -13.0441   20.9195 C   0  0  0  0  0  0
  -24.6346  -11.6944   20.8696 C   0  0  0  0  0  0
  -23.9019  -10.4333   21.0375 C   0  0  0  0  0  0
  -24.3592   -9.4300   21.9171 C   0  0  0  0  0  0
  -23.6276   -8.2323   22.0745 C   0  0  0  0  0  0
  -22.4260   -8.0327   21.3550 C   0  0  0  0  0  0
  -21.9879   -9.0280   20.4634 C   0  0  0  0  0  0
  -22.7182  -10.2178   20.3038 C   0  0  0  0  0  0
  -21.6868   -6.0753   22.5263 C   0  0  0  0  0  0
  -21.4029   -6.5618   23.8225 C   0  0  0  0  0  0
  -21.3671   -5.6771   24.9169 C   0  0  0  0  0  0
  -21.6043   -4.3018   24.7232 C   0  0  0  0  0  0
  -21.8819   -3.8143   23.4318 C   0  0  0  0  0  0
  -21.9188   -4.6977   22.3393 C   0  0  0  0  0  0
  -22.7751  -13.5253   21.1822 C   0  0  0  0  0  0
  -22.1634   -4.2164   21.0985 F   0  0  0  0  0  0
  -21.5631   -3.4506   25.7735 F   0  0  0  0  0  0
  -29.9217  -13.8416   20.4011 N   0  0  0  0  0  0
  -26.2845  -12.9474   20.3172 N   0  0  0  0  0  0
  -25.9287  -11.6586   20.5665 N   0  0  0  0  0  0
  -22.0351  -12.8322   22.0389 N   0  0  0  0  0  0
  -25.4050  -15.2007   20.4343 N   0  0  0  0  0  0
  -31.6626  -15.1878   20.1201 O   0  0  0  0  0  0
  -21.6610   -6.8920   21.4255 O   0  0  0  0  0  0
  -22.3492  -14.5531   20.6621 O   0  0  0  0  0  0
  -24.6511  -31.8318   23.1778 C   0  0  0  0  0  0
  -25.9248  -32.4626   23.8203 C   0  0  1  0  0  0
  -27.2431  -27.0353   20.2035 C   0  0  0  0  0  0
  -25.5940  -33.8444   24.2096 N   0  0  0  0  0  0
  -23.4583  -30.4448   21.5244 C   0  0  2  0  0  0
  -24.9188  -28.8387   20.1263 C   0  0  0  0  0  0
  -22.7612  -29.4473   22.4822 C   0  0  0  0  0  0
  -18.0321  -28.1385   22.8485 C   0  0  0  0  0  0
  -24.1485  -36.7244   23.2644 C   0  0  0  0  0  0
  -26.0197  -30.6775   21.3897 C   0  0  0  0  0  0
  -26.0985  -29.2725   20.7468 C   0  0  0  0  0  0
  -27.2584  -28.3926   20.7616 C   0  0  0  0  0  0
  -26.0335  -26.7200   19.5442 C   0  0  0  0  0  0
  -24.9041  -27.5781   19.5041 C   0  0  0  0  0  0
  -23.6991  -29.7567   20.1508 C   0  0  0  0  0  0
  -25.4110  -36.2979   24.0294 C   0  0  1  0  0  0
  -20.5933  -28.3696   23.1228 C   0  0  2  0  0  0
  -20.6776  -26.9393   22.5423 C   0  0  0  0  0  0
  -19.5759  -26.6350   21.5211 C   0  0  0  0  0  0
  -18.1944  -26.7938   22.1615 C   0  0  0  0  0  0
  -19.1576  -28.8861   23.2845 C   0  0  0  0  0  0
  -18.9488  -30.1481   23.8830 C   0  0  0  0  0  0
  -17.6488  -30.6593   24.0537 C   0  0  0  0  0  0
  -25.9076  -34.9371   23.5018 C   0  0  0  0  0  0
  -16.5377  -29.9062   23.6337 C   0  0  0  0  0  0
  -16.7302  -28.6491   23.0361 C   0  0  0  0  0  0
  -26.4537  -31.6534   25.0684 C   0  0  0  0  0  0
  -25.3734  -31.3749   26.1375 C   0  0  0  0  0  0
  -27.0402  -30.2918   24.6321 C   0  0  0  0  0  0
  -27.6026  -32.4331   25.7492 C   0  0  0  0  0  0
  -27.5566  -37.1769   24.8466 C   0  0  0  0  0  0
  -21.4292  -29.3035   22.3616 N   0  0  0  0  0  0
  -26.4264  -37.3719   23.9419 N   0  0  0  0  0  0
  -24.7300  -31.0068   22.0882 N   0  0  0  0  0  0
  -23.4228  -28.8016   23.3003 O   0  0  0  0  0  0
  -28.3230  -26.0436   20.1513 O   0  0  0  0  0  0
  -26.5679  -34.8897   22.4608 O   0  0  0  0  0  0
  -23.5607  -32.1229   23.6950 O   0  0  0  0  0  0
  -31.2582  -18.5502   19.6588 C   0  0  0  0  0  0
  -28.1712  -19.6118   21.8209 C   0  0  0  0  0  0
  -28.1815  -19.6185   19.3113 C   0  0  0  0  0  0
  -29.6176  -16.6394   20.6564 C   0  0  0  0  0  0
  -28.4389  -22.9019   20.2332 C   0  0  0  0  0  0
  -29.4427  -21.5005   20.6070 C   0  0  0  0  0  0
  -28.3969  -24.5723   20.7924 C   0  0  0  0  0  0
  -30.0843  -18.3458   20.6253 C   0  0  2  0  0  0
  -29.0479  -19.7797   20.5690 C   0  0  0  0  0  0
  -31.4757  -12.8985   19.2338 H   0  0  0  0  0  0
  -30.4733  -11.7897   20.1143 H   0  0  0  0  0  0
  -29.9234  -11.7633   17.6638 H   0  0  0  0  0  0
  -29.6031  -13.4768   17.6847 H   0  0  0  0  0  0
  -28.0288  -11.2769   19.0492 H   0  0  0  0  0  0
  -27.4248  -12.3820   17.8339 H   0  0  0  0  0  0
  -27.5686  -14.2511   19.3745 H   0  0  0  0  0  0
  -28.7632  -12.4185   21.4956 H   0  0  0  0  0  0
  -28.2926  -14.0753   21.7267 H   0  0  0  0  0  0
  -25.2772   -9.5800   22.4690 H   0  0  0  0  0  0
  -23.9992   -7.4760   22.7483 H   0  0  0  0  0  0
  -21.0785   -8.8765   19.8953 H   0  0  0  0  0  0
  -22.3620  -10.9671   19.6105 H   0  0  0  0  0  0
  -21.2013   -7.6127   23.9741 H   0  0  0  0  0  0
  -21.1480   -6.0474   25.9090 H   0  0  0  0  0  0
  -22.0583   -2.7593   23.2801 H   0  0  0  0  0  0
  -22.3930  -12.0025   22.4857 H   0  0  0  0  0  0
  -21.0971  -13.1432   22.2539 H   0  0  0  0  0  0
  -24.6436  -15.8450   20.6173 H   0  0  0  0  0  0
  -26.2507  -15.6656   20.1276 H   0  0  0  0  0  0
  -26.7309  -32.5213   23.0910 H   0  0  0  0  0  0
  -25.0021  -33.9533   25.0204 H   0  0  0  0  0  0
  -22.7641  -31.2713   21.3557 H   0  0  0  0  0  0
  -23.3741  -35.9601   23.3274 H   0  0  0  0  0  0
  -24.3559  -36.8927   22.2072 H   0  0  0  0  0  0
  -23.7265  -37.6431   23.6723 H   0  0  0  0  0  0
  -26.1741  -31.4171   20.6010 H   0  0  0  0  0  0
  -26.8919  -30.7487   22.0302 H   0  0  0  0  0  0
  -28.1606  -28.7397   21.2514 H   0  0  0  0  0  0
  -25.9569  -25.7569   19.0591 H   0  0  0  0  0  0
  -24.0116  -27.2382   18.9987 H   0  0  0  0  0  0
  -23.8541  -30.5241   19.3924 H   0  0  0  0  0  0
  -22.8116  -29.2091   19.8288 H   0  0  0  0  0  0
  -25.1321  -36.1756   25.0792 H   0  0  0  0  0  0
  -21.0015  -28.3289   24.1355 H   0  0  0  0  0  0
  -20.5641  -26.2306   23.3650 H   0  0  0  0  0  0
  -21.6634  -26.7368   22.1211 H   0  0  0  0  0  0
  -19.6902  -25.6245   21.1284 H   0  0  0  0  0  0
  -19.6686  -27.3145   20.6724 H   0  0  0  0  0  0
  -17.4227  -26.6730   21.4005 H   0  0  0  0  0  0
  -18.0297  -26.0049   22.8973 H   0  0  0  0  0  0
  -19.7974  -30.7347   24.2139 H   0  0  0  0  0  0
  -17.5036  -31.6286   24.5114 H   0  0  0  0  0  0
  -15.5383  -30.2944   23.7703 H   0  0  0  0  0  0
  -15.8710  -28.0807   22.7067 H   0  0  0  0  0  0
  -24.5902  -30.7076   25.7722 H   0  0  0  0  0  0
  -24.8940  -32.2964   26.4722 H   0  0  0  0  0  0
  -25.8042  -30.8979   27.0195 H   0  0  0  0  0  0
  -26.3036  -29.6605   24.1312 H   0  0  0  0  0  0
  -27.3969  -29.7218   25.4912 H   0  0  0  0  0  0
  -27.8973  -30.4092   23.9674 H   0  0  0  0  0  0
  -27.2552  -33.3646   26.1963 H   0  0  0  0  0  0
  -28.3907  -32.6855   25.0393 H   0  0  0  0  0  0
  -28.0614  -31.8531   26.5499 H   0  0  0  0  0  0
  -28.2556  -38.0085   24.7497 H   0  0  0  0  0  0
  -28.1066  -36.2604   24.6287 H   0  0  0  0  0  0
  -27.2283  -37.1441   25.8868 H   0  0  0  0  0  0
  -20.9494  -29.8813   21.6857 H   0  0  0  0  0  0
  -26.0086  -38.2781   24.1433 H   0  0  0  0  0  0
  -32.0294  -17.7996   19.8322 H   0  0  0  0  0  0
  -31.7345  -19.5224   19.8092 H   0  0  0  0  0  0
  -30.9354  -18.4634   18.6201 H   0  0  0  0  0  0
  -27.3119  -20.2807   21.8098 H   0  0  0  0  0  0
  -28.7515  -19.8498   22.7147 H   0  0  0  0  0  0
  -27.8098  -18.5909   21.9433 H   0  0  0  0  0  0
  -27.4112  -20.3870   19.2481 H   0  0  0  0  0  0
  -27.6757  -18.6530   19.2836 H   0  0  0  0  0  0
  -28.7934  -19.7065   18.4130 H   0  0  0  0  0  0
  -28.7780  -16.5447   19.9692 H   0  0  0  0  0  0
  -29.1533  -16.5109   21.6353 H   0  0  0  0  0  0
  -27.4577  -22.5484   20.5477 H   0  0  0  0  0  0
  -28.3527  -22.9304   19.1486 H   0  0  0  0  0  0
  -29.8423  -21.6867   21.6050 H   0  0  0  0  0  0
  -30.3286  -21.6240   19.9822 H   0  0  0  0  0  0
  -29.2708  -24.6625   21.4407 H   0  0  0  0  0  0
  -27.5640  -24.5919   21.4959 H   0  0  0  0  0  0
  -30.5627  -18.4413   21.6007 H   0  0  0  0  0  0
  1 25  1  0  0  0
  1 30  2  0  0  0
  1 74  1  0  0  0
  2  3  1  0  0  0
  2 25  1  0  0  0
  2 80  1  0  0  0
  2 81  1  0  0  0
  3  4  1  0  0  0
  3 82  1  0  0  0
  3 83  1  0  0  0
  4  5  1  0  0  0
  4 84  1  0  0  0
  4 85  1  0  0  0
  5  6  1  0  0  0
  5 26  1  0  0  0
  5 86  1  0  0  0
  6 25  1  0  0  0
  6 87  1  0  0  0
  6 88  1  0  0  0
  7  8  2  0  0  0
  7 26  1  0  0  0
  7 29  1  0  0  0
  8  9  1  0  0  0
  8 22  1  0  0  0
  9 10  1  0  0  0
  9 27  2  0  0  0
 10 11  2  0  0  0
 10 15  1  0  0  0
 11 12  1  0  0  0
 11 89  1  0  0  0
 12 13  2  0  0  0
 12 90  1  0  0  0
 13 14  1  0  0  0
 13 31  1  0  0  0
 14 15  2  0  0  0
 14 91  1  0  0  0
 15 92  1  0  0  0
 16 17  2  0  0  0
 16 21  1  0  0  0
 16 31  1  0  0  0
 17 18  1  0  0  0
 17 93  1  0  0  0
 18 19  2  0  0  0
 18 94  1  0  0  0
 19 20  1  0  0  0
 19 24  1  0  0  0
 20 21  2  0  0  0
 20 95  1  0  0  0
 21 23  1  0  0  0
 22 28  1  0  0  0
 22 32  2  0  0  0
 26 27  1  0  0  0
 28 96  1  0  0  0
 28 97  1  0  0  0
 29 98  1  0  0  0
 29 99  1  0  0  0
 33 34  1  0  0  0
 33 66  1  0  0  0
 33 70  2  0  0  0
 34 36  1  0  0  0
 34 59  1  0  0  0
 34100  1  0  0  0
 35 44  2  0  0  0
 35 45  1  0  0  0
 35 68  1  0  0  0
 36 56  1  0  0  0
 36101  1  0  0  0
 37 39  1  0  0  0
 37 47  1  0  0  0
 37 66  1  0  0  0
 37102  1  0  0  0
 38 43  2  0  0  0
 38 46  1  0  0  0
 38 47  1  0  0  0
 39 64  1  0  0  0
 39 67  2  0  0  0
 40 52  1  0  0  0
 40 53  2  0  0  0
 40 58  1  0  0  0
 41103  1  0  0  0
 41104  1  0  0  0
 41105  1  0  0  0
 41 48  1  0  0  0
 42 43  1  0  0  0
 42 66  1  0  0  0
 42106  1  0  0  0
 42107  1  0  0  0
 43 44  1  0  0  0
 44108  1  0  0  0
 45 46  2  0  0  0
 45109  1  0  0  0
 46110  1  0  0  0
 47111  1  0  0  0
 47112  1  0  0  0
 48 56  1  0  0  0
 48 65  1  0  0  0
 48113  1  0  0  0
 49 50  1  0  0  0
 49 53  1  0  0  0
 49 64  1  0  0  0
 49114  1  0  0  0
 50 51  1  0  0  0
 50115  1  0  0  0
 50116  1  0  0  0
 51 52  1  0  0  0
 51117  1  0  0  0
 51118  1  0  0  0
 52119  1  0  0  0
 52120  1  0  0  0
 53 54  1  0  0  0
 54 55  2  0  0  0
 54121  1  0  0  0
 55 57  1  0  0  0
 55122  1  0  0  0
 56 69  2  0  0  0
 57 58  2  0  0  0
 57123  1  0  0  0
 58124  1  0  0  0
 59 60  1  0  0  0
 59 61  1  0  0  0
 59 62  1  0  0  0
 60125  1  0  0  0
 60126  1  0  0  0
 60127  1  0  0  0
 61128  1  0  0  0
 61129  1  0  0  0
 61130  1  0  0  0
 62131  1  0  0  0
 62132  1  0  0  0
 62133  1  0  0  0
 63 65  1  0  0  0
 63134  1  0  0  0
 63135  1  0  0  0
 63136  1  0  0  0
 64137  1  0  0  0
 65138  1  0  0  0
 68 77  1  0  0  0
 71139  1  0  0  0
 71140  1  0  0  0
 71141  1  0  0  0
 71 78  1  0  0  0
 72142  1  0  0  0
 72143  1  0  0  0
 72144  1  0  0  0
 72 79  1  0  0  0
 73 79  1  0  0  0
 73145  1  0  0  0
 73146  1  0  0  0
 73147  1  0  0  0
 74 78  1  0  0  0
 74148  1  0  0  0
 74149  1  0  0  0
 75 76  1  0  0  0
 75 77  1  0  0  0
 75150  1  0  0  0
 75151  1  0  0  0
 76 79  1  0  0  0
 76152  1  0  0  0
 76153  1  0  0  0
 77154  1  0  0  0
 77155  1  0  0  0
 78 79  1  0  0  0
 78156  1  0  0  0
M  ISO  4   1 100  68 101  74 100  77 101
M  END
> <chiral flag>
0

> <version>
0

> <s_m_source_file>
/data/baiqing/PycharmProjects/Reinvent-master-3.2/result/LINK_invent/BTK/process_docking_weight1_custom_sum_contain_oxygen_bond_distance_aromatic_linkinvent_7_9_3/rearranged_h_0083.sdf

> <i_m_source_file_index>
66

> <r_mmod_Potential_Energy-OPLS-2005>
1074.7529296875

> <r_mmod_Stretch_Energy-OPLS-2005>
511.041229248047

> <r_mmod_Bend_Energy-OPLS-2005>
428.698638916016

> <r_mmod_Torsional_Energy-OPLS-2005>
231.516525268555

> <r_mmod_Improper_Torsional_Energy-OPLS-2005>
3.43752121925354

> <r_mmod_Van_der_Waal_Energy-OPLS-2005>
100.681396484375

> <r_mmod_Electrostatic_Energy-OPLS-2005>
-336.127014160156

> <r_mmod_Solvation_Energy-OPLS-2005>
-180.106826782227

> <b_mmod_Minimization_Converged-OPLS-2005>
0

> <r_mmod_RMS_Derivative-OPLS-2005>
6.97851848602295

$$$$
66
                    3D
 Structure written by MMmdl.
167175  0  0  1  0            999 V2000
  -30.6561  -14.6638   20.4882 C   0  0  0  0  0  0
  -30.4273  -12.3949   19.5010 C   0  0  0  0  0  0
  -29.5159  -12.4994   18.2614 C   0  0  0  0  0  0
  -28.0383  -12.3322   18.6615 C   0  0  0  0  0  0
  -27.6489  -13.2300   19.8676 C   0  0  2  0  0  0
  -28.6879  -13.1340   21.0066 C   0  0  0  0  0  0
  -25.2486  -13.8161   20.5653 C   0  0  0  0  0  0
  -24.1789  -13.0428   20.9177 C   0  0  0  0  0  0
  -24.6380  -11.6896   20.8763 C   0  0  0  0  0  0
  -23.9064  -10.4288   21.0404 C   0  0  0  0  0  0
  -24.3620   -9.4202   21.9187 C   0  0  0  0  0  0
  -23.6287   -8.2248   22.0746 C   0  0  0  0  0  0
  -22.4267   -8.0277   21.3540 C   0  0  0  0  0  0
  -21.9900   -9.0254   20.4633 C   0  0  0  0  0  0
  -22.7232  -10.2143   20.3036 C   0  0  0  0  0  0
  -21.6858   -6.0716   22.5286 C   0  0  0  0  0  0
  -21.4030   -6.5627   23.8222 C   0  0  0  0  0  0
  -21.3669   -5.6775   24.9178 C   0  0  0  0  0  0
  -21.6073   -4.3042   24.7220 C   0  0  0  0  0  0
  -21.8829   -3.8125   23.4335 C   0  0  0  0  0  0
  -21.9184   -4.6942   22.3391 C   0  0  0  0  0  0
  -22.7815  -13.5211   21.1818 C   0  0  0  0  0  0
  -22.1650   -4.2132   21.0960 F   0  0  0  0  0  0
  -21.5623   -3.4521   25.7729 F   0  0  0  0  0  0
  -30.0035  -13.4579   20.4378 N   0  0  0  0  0  0
  -26.2961  -12.9385   20.3353 N   0  0  0  0  0  0
  -25.9323  -11.6541   20.5832 N   0  0  0  0  0  0
  -22.0452  -12.8232   22.0370 N   0  0  0  0  0  0
  -25.4140  -15.1862   20.3943 N   0  0  0  0  0  0
  -31.8264  -14.7493   20.1075 O   0  0  0  0  0  0
  -21.6636   -6.8859   21.4246 O   0  0  0  0  0  0
  -22.3525  -14.5533   20.6656 O   0  0  0  0  0  0
  -24.6325  -31.8580   23.2103 C   0  0  0  0  0  0
  -25.9151  -32.4780   23.8430 C   0  0  1  0  0  0
  -27.2029  -27.2915   20.1258 C   0  0  0  0  0  0
  -25.5964  -33.8588   24.2342 N   0  0  0  0  0  0
  -23.4242  -30.4920   21.5509 C   0  0  2  0  0  0
  -24.8658  -28.9585   20.1079 C   0  0  0  0  0  0
  -22.7499  -29.4614   22.4898 C   0  0  0  0  0  0
  -18.0275  -28.1386   22.8478 C   0  0  0  0  0  0
  -24.1441  -36.7275   23.2643 C   0  0  0  0  0  0
  -25.9707  -30.7867   21.3816 C   0  0  0  0  0  0
  -26.0402  -29.4147   20.7203 C   0  0  0  0  0  0
  -27.2144  -28.5975   20.7156 C   0  0  0  0  0  0
  -26.0026  -26.9090   19.4722 C   0  0  0  0  0  0
  -24.8510  -27.7127   19.4726 C   0  0  0  0  0  0
  -23.6421  -29.8509   20.1583 C   0  0  0  0  0  0
  -25.4078  -36.3079   24.0335 C   0  0  1  0  0  0
  -20.5895  -28.3693   23.1271 C   0  0  2  0  0  0
  -20.6742  -26.9404   22.5402 C   0  0  0  0  0  0
  -19.5707  -26.6370   21.5204 C   0  0  0  0  0  0
  -18.1895  -26.7922   22.1633 C   0  0  0  0  0  0
  -19.1546  -28.8853   23.2862 C   0  0  0  0  0  0
  -18.9471  -30.1458   23.8862 C   0  0  0  0  0  0
  -17.6468  -30.6573   24.0563 C   0  0  0  0  0  0
  -25.9048  -34.9447   23.5129 C   0  0  0  0  0  0
  -16.5356  -29.9062   23.6332 C   0  0  0  0  0  0
  -16.7269  -28.6490   23.0339 C   0  0  0  0  0  0
  -26.4538  -31.6617   25.0824 C   0  0  0  0  0  0
  -25.3769  -31.3746   26.1557 C   0  0  0  0  0  0
  -27.0385  -30.3026   24.6307 C   0  0  0  0  0  0
  -27.6073  -32.4358   25.7598 C   0  0  0  0  0  0
  -27.5537  -37.1800   24.8481 C   0  0  0  0  0  0
  -21.4210  -29.3042   22.3660 N   0  0  0  0  0  0
  -26.4248  -37.3793   23.9441 N   0  0  0  0  0  0
  -24.6948  -31.0625   22.1030 N   0  0  0  0  0  0
  -23.4227  -28.8119   23.2953 O   0  0  0  0  0  0
  -28.2703  -26.3680   20.2205 O   0  0  0  0  0  0
  -26.5583  -34.8907   22.4677 O   0  0  0  0  0  0
  -23.5476  -32.1370   23.7413 O   0  0  0  0  0  0
  -26.6040  -22.5159   21.5842 C   0  0  0  0  0  0
  -25.6394  -21.5022   21.6453 C   0  0  0  0  0  0
  -27.8963  -22.3038   21.0395 C   0  0  0  0  0  0
  -25.9951  -20.2330   21.1751 C   0  0  0  0  0  0
  -28.2305  -20.8930   20.8083 C   0  0  0  0  0  0
  -24.2456  -21.8182   22.1657 C   0  0  0  0  0  0
  -24.5383  -18.8708   19.6066 C   0  0  0  0  0  0
  -30.7007  -20.9103   21.4314 C   0  0  0  0  0  0
  -28.7238  -23.6430   20.7772 C   0  0  0  0  0  0
  -25.0104  -19.0765   21.0524 C   0  0  0  0  0  0
  -29.5569  -18.5208   20.9340 C   0  0  0  0  0  0
  -30.4174  -17.2246   20.4244 C   0  0  0  0  0  0
  -27.8515  -24.9350   20.3241 C   0  0  0  0  0  0
  -29.6137  -20.1559   20.6263 C   0  0  2  0  0  0
  -27.2521  -19.9576   20.8034 N   0  0  0  0  0  0
  -29.9426  -15.8155   20.7453 N   0  0  0  0  0  0
  -31.4788  -12.4721   19.2153 H   0  0  0  0  0  0
  -30.3237  -11.4199   19.9787 H   0  0  0  0  0  0
  -29.7967  -11.7522   17.5184 H   0  0  0  0  0  0
  -29.6638  -13.4736   17.7932 H   0  0  0  0  0  0
  -27.8933  -11.2825   18.9241 H   0  0  0  0  0  0
  -27.3853  -12.5283   17.8114 H   0  0  0  0  0  0
  -27.6549  -14.2584   19.5065 H   0  0  0  0  0  0
  -28.6948  -12.1290   21.4295 H   0  0  0  0  0  0
  -28.4381  -13.8072   21.8290 H   0  0  0  0  0  0
  -25.2751   -9.5694   22.4785 H   0  0  0  0  0  0
  -23.9984   -7.4633   22.7468 H   0  0  0  0  0  0
  -21.0825   -8.8767   19.8951 H   0  0  0  0  0  0
  -22.3651  -10.9687   19.6151 H   0  0  0  0  0  0
  -21.2060   -7.6143   23.9718 H   0  0  0  0  0  0
  -21.1485   -6.0506   25.9089 H   0  0  0  0  0  0
  -22.0597   -2.7579   23.2836 H   0  0  0  0  0  0
  -22.4028  -11.9917   22.4834 H   0  0  0  0  0  0
  -21.1108  -13.1339   22.2575 H   0  0  0  0  0  0
  -24.6273  -15.8220   20.4594 H   0  0  0  0  0  0
  -26.2618  -15.6326   20.0695 H   0  0  0  0  0  0
  -26.7224  -32.5418   23.1183 H   0  0  0  0  0  0
  -25.0201  -33.9746   25.0548 H   0  0  0  0  0  0
  -22.7197  -31.3161   21.4198 H   0  0  0  0  0  0
  -23.3703  -35.9599   23.3317 H   0  0  0  0  0  0
  -24.3533  -36.8894   22.2057 H   0  0  0  0  0  0
  -23.7180  -37.6479   23.6655 H   0  0  0  0  0  0
  -26.1088  -31.5513   20.6148 H   0  0  0  0  0  0
  -26.8504  -30.8296   22.0138 H   0  0  0  0  0  0
  -28.1072  -28.9398   21.2191 H   0  0  0  0  0  0
  -25.9026  -25.9602   18.9706 H   0  0  0  0  0  0
  -23.9514  -27.3626   18.9831 H   0  0  0  0  0  0
  -23.7825  -30.6450   19.4228 H   0  0  0  0  0  0
  -22.7544  -29.3071   19.8326 H   0  0  0  0  0  0
  -25.1237  -36.1937   25.0821 H   0  0  0  0  0  0
  -20.9993  -28.3223   24.1400 H   0  0  0  0  0  0
  -20.5614  -26.2286   23.3603 H   0  0  0  0  0  0
  -21.6599  -26.7358   22.1226 H   0  0  0  0  0  0
  -19.6840  -25.6275   21.1229 H   0  0  0  0  0  0
  -19.6638  -27.3173   20.6736 H   0  0  0  0  0  0
  -17.4166  -26.6694   21.4028 H   0  0  0  0  0  0
  -18.0273  -26.0064   22.9038 H   0  0  0  0  0  0
  -19.7954  -30.7284   24.2203 H   0  0  0  0  0  0
  -17.5026  -31.6251   24.5173 H   0  0  0  0  0  0
  -15.5361  -30.2962   23.7663 H   0  0  0  0  0  0
  -15.8680  -28.0812   22.7054 H   0  0  0  0  0  0
  -24.5956  -30.7070   25.7943 H   0  0  0  0  0  0
  -24.8952  -32.2903   26.4987 H   0  0  0  0  0  0
  -25.8132  -30.8973   27.0349 H   0  0  0  0  0  0
  -26.2971  -29.6758   24.1353 H   0  0  0  0  0  0
  -27.4096  -29.7324   25.4846 H   0  0  0  0  0  0
  -27.8826  -30.4317   23.9520 H   0  0  0  0  0  0
  -27.2679  -33.3675   26.2133 H   0  0  0  0  0  0
  -28.3914  -32.6916   25.0459 H   0  0  0  0  0  0
  -28.0693  -31.8518   26.5576 H   0  0  0  0  0  0
  -28.2590  -38.0062   24.7512 H   0  0  0  0  0  0
  -28.0982  -36.2614   24.6293 H   0  0  0  0  0  0
  -27.2265  -37.1437   25.8884 H   0  0  0  0  0  0
  -20.9350  -29.8930   21.7035 H   0  0  0  0  0  0
  -26.0103  -38.2839   24.1514 H   0  0  0  0  0  0
  -26.2947  -23.4727   21.9605 H   0  0  0  0  0  0
  -24.1644  -22.8570   22.4937 H   0  0  0  0  0  0
  -23.9985  -21.1766   23.0138 H   0  0  0  0  0  0
  -23.5018  -21.6648   21.3823 H   0  0  0  0  0  0
  -23.8893  -17.9992   19.5287 H   0  0  0  0  0  0
  -25.3859  -18.7108   18.9403 H   0  0  0  0  0  0
  -23.9850  -19.7396   19.2470 H   0  0  0  0  0  0
  -30.7822  -21.9456   21.1129 H   0  0  0  0  0  0
  -31.6913  -20.4782   21.2877 H   0  0  0  0  0  0
  -30.4703  -20.9118   22.4967 H   0  0  0  0  0  0
  -29.4680  -23.4461   20.0043 H   0  0  0  0  0  0
  -29.2757  -23.8834   21.6849 H   0  0  0  0  0  0
  -24.1494  -19.2162   21.7054 H   0  0  0  0  0  0
  -25.4904  -18.1646   21.4028 H   0  0  0  0  0  0
  -29.2270  -18.4915   19.8975 H   0  0  0  0  0  0
  -30.4656  -18.6814   21.4987 H   0  0  0  0  0  0
  -30.5433  -17.2418   19.3361 H   0  0  0  0  0  0
  -31.4615  -17.2658   20.7564 H   0  0  0  0  0  0
  -27.0293  -25.0267   21.0247 H   0  0  0  0  0  0
  -27.4221  -24.6348   19.3702 H   0  0  0  0  0  0
  -29.8848  -20.3239   19.5798 H   0  0  0  0  0  0
  -28.9767  -15.7017   21.0210 H   0  0  0  0  0  0
  1 25  1  0  0  0
  1 30  2  0  0  0
  1 86  1  0  0  0
  2  3  1  0  0  0
  2 25  1  0  0  0
  2 87  1  0  0  0
  2 88  1  0  0  0
  3  4  1  0  0  0
  3 89  1  0  0  0
  3 90  1  0  0  0
  4  5  1  0  0  0
  4 91  1  0  0  0
  4 92  1  0  0  0
  5  6  1  0  0  0
  5 26  1  0  0  0
  5 93  1  0  0  0
  6 25  1  0  0  0
  6 94  1  0  0  0
  6 95  1  0  0  0
  7  8  2  0  0  0
  7 26  1  0  0  0
  7 29  1  0  0  0
  8  9  1  0  0  0
  8 22  1  0  0  0
  9 10  1  0  0  0
  9 27  2  0  0  0
 10 11  2  0  0  0
 10 15  1  0  0  0
 11 12  1  0  0  0
 11 96  1  0  0  0
 12 13  2  0  0  0
 12 97  1  0  0  0
 13 14  1  0  0  0
 13 31  1  0  0  0
 14 15  2  0  0  0
 14 98  1  0  0  0
 15 99  1  0  0  0
 16 17  2  0  0  0
 16 21  1  0  0  0
 16 31  1  0  0  0
 17 18  1  0  0  0
 17100  1  0  0  0
 18 19  2  0  0  0
 18101  1  0  0  0
 19 20  1  0  0  0
 19 24  1  0  0  0
 20 21  2  0  0  0
 20102  1  0  0  0
 21 23  1  0  0  0
 22 28  1  0  0  0
 22 32  2  0  0  0
 26 27  1  0  0  0
 28103  1  0  0  0
 28104  1  0  0  0
 29105  1  0  0  0
 29106  1  0  0  0
 33 34  1  0  0  0
 33 66  1  0  0  0
 33 70  2  0  0  0
 34 36  1  0  0  0
 34 59  1  0  0  0
 34107  1  0  0  0
 35 44  2  0  0  0
 35 45  1  0  0  0
 35 68  1  0  0  0
 36 56  1  0  0  0
 36108  1  0  0  0
 37 39  1  0  0  0
 37 47  1  0  0  0
 37 66  1  0  0  0
 37109  1  0  0  0
 38 43  2  0  0  0
 38 46  1  0  0  0
 38 47  1  0  0  0
 39 64  1  0  0  0
 39 67  2  0  0  0
 40 52  1  0  0  0
 40 53  2  0  0  0
 40 58  1  0  0  0
 41110  1  0  0  0
 41111  1  0  0  0
 41112  1  0  0  0
 41 48  1  0  0  0
 42 43  1  0  0  0
 42 66  1  0  0  0
 42113  1  0  0  0
 42114  1  0  0  0
 43 44  1  0  0  0
 44115  1  0  0  0
 45 46  2  0  0  0
 45116  1  0  0  0
 46117  1  0  0  0
 47118  1  0  0  0
 47119  1  0  0  0
 48 56  1  0  0  0
 48 65  1  0  0  0
 48120  1  0  0  0
 49 50  1  0  0  0
 49 53  1  0  0  0
 49 64  1  0  0  0
 49121  1  0  0  0
 50 51  1  0  0  0
 50122  1  0  0  0
 50123  1  0  0  0
 51 52  1  0  0  0
 51124  1  0  0  0
 51125  1  0  0  0
 52126  1  0  0  0
 52127  1  0  0  0
 53 54  1  0  0  0
 54 55  2  0  0  0
 54128  1  0  0  0
 55 57  1  0  0  0
 55129  1  0  0  0
 56 69  2  0  0  0
 57 58  2  0  0  0
 57130  1  0  0  0
 58131  1  0  0  0
 59 60  1  0  0  0
 59 61  1  0  0  0
 59 62  1  0  0  0
 60132  1  0  0  0
 60133  1  0  0  0
 60134  1  0  0  0
 61135  1  0  0  0
 61136  1  0  0  0
 61137  1  0  0  0
 62138  1  0  0  0
 62139  1  0  0  0
 62140  1  0  0  0
 63 65  1  0  0  0
 63141  1  0  0  0
 63142  1  0  0  0
 63143  1  0  0  0
 64144  1  0  0  0
 65145  1  0  0  0
 68 83  1  0  0  0
 71 72  2  0  0  0
 71 73  1  0  0  0
 71146  1  0  0  0
 72 74  1  0  0  0
 72 76  1  0  0  0
 73 75  2  0  0  0
 73 79  1  0  0  0
 74 80  1  0  0  0
 74 85  2  0  0  0
 75 84  1  0  0  0
 75 85  1  0  0  0
 76147  1  0  0  0
 76148  1  0  0  0
 76149  1  0  0  0
 77 80  1  0  0  0
 77150  1  0  0  0
 77151  1  0  0  0
 77152  1  0  0  0
 78153  1  0  0  0
 78154  1  0  0  0
 78155  1  0  0  0
 78 84  1  0  0  0
 79 83  1  0  0  0
 79156  1  0  0  0
 79157  1  0  0  0
 80158  1  0  0  0
 80159  1  0  0  0
 81 82  1  0  0  0
 81 84  1  0  0  0
 81160  1  0  0  0
 81161  1  0  0  0
 82 86  1  0  0  0
 82162  1  0  0  0
 82163  1  0  0  0
 83164  1  0  0  0
 83165  1  0  0  0
 84166  1  0  0  0
 86167  1  0  0  0
M  ISO  4   1 100  68 101  83 101  86 100
M  END
> <chiral flag>
0

> <version>
0

> <s_m_source_file>
/data/baiqing/PycharmProjects/Reinvent-master-3.2/result/LINK_invent/BTK/process_docking_weight1_custom_sum_contain_oxygen_bond_distance_aromatic_linkinvent_7_9_3/rearranged_h_0083.sdf

> <i_m_source_file_index>
67

> <r_mmod_Potential_Energy-OPLS-2005>
265.453063964844

> <r_mmod_Stretch_Energy-OPLS-2005>
133.441177368164

> <r_mmod_Bend_Energy-OPLS-2005>
419.138397216797

> <r_mmod_Torsional_Energy-OPLS-2005>
240.022262573242

> <r_mmod_Improper_Torsional_Energy-OPLS-2005>
5.69843673706055

> <r_mmod_Van_der_Waal_Energy-OPLS-2005>
187.255935668945

> <r_mmod_Electrostatic_Energy-OPLS-2005>
-576.226806640625

> <r_mmod_Solvation_Energy-OPLS-2005>
-211.500427246094

> <b_mmod_Minimization_Converged-OPLS-2005>
0

> <r_mmod_RMS_Derivative-OPLS-2005>
4.68180418014526

$$$$
67
                    3D
 Structure written by MMmdl.
166174  0  0  1  0            999 V2000
  -30.9000  -13.9813   20.5805 C   0  0  0  0  0  0
  -30.9568  -12.0287   18.8905 C   0  0  0  0  0  0
  -29.6160  -12.7870   17.6602 C   0  0  0  0  0  0
  -28.0528  -13.7408   18.4235 C   0  0  0  0  0  0
  -27.7344  -13.9501   20.3632 C   0  0  2  0  0  0
  -28.9843  -13.2289   21.6398 C   0  0  0  0  0  0
  -25.5279  -14.8188   21.3885 C   0  0  0  0  0  0
  -24.4360  -14.1681   21.8813 C   0  0  0  0  0  0
  -24.9316  -12.9817   21.3259 C   0  0  0  0  0  0
  -23.7586  -10.7141   19.7923 C   0  0  0  0  0  0
  -24.1882   -9.2298   20.1478 C   0  0  0  0  0  0
  -23.6358   -8.3001   21.1197 C   0  0  0  0  0  0
  -22.2649   -8.1488   21.0348 C   0  0  0  0  0  0
  -21.6697   -9.1453   20.2049 C   0  0  0  0  0  0
  -22.3523  -10.3062   19.6396 C   0  0  0  0  0  0
  -21.7190   -6.1704   22.4838 C   0  0  0  0  0  0
  -21.4414   -6.6337   23.7899 C   0  0  0  0  0  0
  -21.3957   -5.7373   24.8837 C   0  0  0  0  0  0
  -21.6205   -4.3610   24.6900 C   0  0  0  0  0  0
  -21.9003   -3.8847   23.3988 C   0  0  0  0  0  0
  -21.9424   -4.7771   22.3056 C   0  0  0  0  0  0
  -22.9847  -14.6755   21.9802 C   0  0  0  0  0  0
  -22.1608   -4.2726   21.0681 F   0  0  0  0  0  0
  -21.5651   -3.4994   25.7374 F   0  0  0  0  0  0
  -30.5421  -12.7725   20.6471 N   0  0  0  0  0  0
  -26.4768  -13.9235   20.9896 N   0  0  0  0  0  0
  -26.1828  -13.0235   21.8273 N   0  0  0  0  0  0
  -22.1312  -14.0115   22.7493 N   0  0  0  0  0  0
  -25.8428  -16.1120   21.2744 N   0  0  0  0  0  0
  -31.8258  -14.6230   20.0819 O   0  0  0  0  0  0
  -21.5558   -6.9913   21.3713 O   0  0  0  0  0  0
  -22.4890  -15.3734   21.0967 O   0  0  0  0  0  0
  -24.7697  -31.6609   23.0768 C   0  0  0  0  0  0
  -25.9853  -32.3715   23.7557 C   0  0  1  0  0  0
  -26.3087  -25.4572   20.0766 C   0  0  0  0  0  0
  -25.6030  -33.7645   24.1282 N   0  0  0  0  0  0
  -23.5741  -30.2910   21.4705 C   0  0  2  0  0  0
  -24.8354  -28.4304   20.0307 C   0  0  0  0  0  0
  -22.7847  -29.3724   22.4431 C   0  0  0  0  0  0
  -18.0332  -28.1430   22.8436 C   0  0  0  0  0  0
  -24.1529  -36.6843   23.2689 C   0  0  0  0  0  0
  -26.1302  -29.8934   21.5210 C   0  0  0  0  0  0
  -25.9858  -28.3780   20.8015 C   0  0  0  0  0  0
  -26.7044  -26.9357   20.7852 C   0  0  0  0  0  0
  -25.3725  -26.0618   19.1837 C   0  0  0  0  0  0
  -24.6627  -27.3252   19.1848 C   0  0  0  0  0  0
  -23.8090  -29.5997   20.0901 C   0  0  0  0  0  0
  -25.4207  -36.2460   24.0204 C   0  0  1  0  0  0
  -20.5959  -28.3774   23.1045 C   0  0  2  0  0  0
  -20.6741  -26.9377   22.5449 C   0  0  0  0  0  0
  -19.5752  -26.6319   21.5235 C   0  0  0  0  0  0
  -18.1930  -26.7953   22.1605 C   0  0  0  0  0  0
  -19.1607  -28.8947   23.2712 C   0  0  0  0  0  0
  -18.9527  -30.1525   23.8775 C   0  0  0  0  0  0
  -17.6516  -30.6607   24.0544 C   0  0  0  0  0  0
  -25.9250  -34.8879   23.4672 C   0  0  0  0  0  0
  -16.5397  -29.9087   23.6363 C   0  0  0  0  0  0
  -16.7317  -28.6507   23.0384 C   0  0  0  0  0  0
  -26.4758  -31.6331   25.0641 C   0  0  0  0  0  0
  -25.3587  -31.3938   26.1098 C   0  0  0  0  0  0
  -27.0868  -30.2605   24.7329 C   0  0  0  0  0  0
  -27.6020  -32.4519   25.7393 C   0  0  0  0  0  0
  -27.5545  -37.1558   24.8458 C   0  0  0  0  0  0
  -21.4460  -29.2859   22.3218 N   0  0  0  0  0  0
  -26.4233  -37.3343   23.9403 N   0  0  0  0  0  0
  -24.8825  -30.6896   22.0642 N   0  0  0  0  0  0
  -23.3990  -28.7431   23.3077 O   0  0  0  0  0  0
  -26.5127  -23.6085   20.0174 O   0  0  0  0  0  0
  -26.6075  -34.8689   22.4421 O   0  0  0  0  0  0
  -23.6616  -32.0381   23.5155 O   0  0  0  0  0  0
  -22.9849  -12.9463   20.0866 C   0  0  0  0  0  0
  -24.3625  -13.8113   19.1904 C   0  0  0  0  0  0
  -23.0814  -11.7613   21.6613 C   0  0  0  0  0  0
  -25.5173  -12.2923   19.2082 C   0  0  0  0  0  0
  -22.3120  -11.2857   24.0749 C   0  0  0  0  0  0
  -25.6075  -10.5331   17.3137 C   0  0  0  0  0  0
  -24.7047  -16.2635   18.9681 C   0  0  0  0  0  0
  -21.9423  -11.2712   22.5784 C   0  0  0  0  0  0
  -25.4245  -18.7612   19.5988 C   0  0  0  0  0  0
  -27.7728  -11.0792   18.5843 C   0  0  0  0  0  0
  -28.7388  -11.7982   19.7278 C   0  0  0  0  0  0
  -25.7502  -21.4120   19.5560 C   0  0  0  0  0  0
  -26.3552  -11.6554   18.0615 C   0  0  2  0  0  0
  -24.6329  -10.8621   21.8901 N   0  0  0  0  0  0
  -25.8352  -11.0724   20.5344 N   0  0  0  0  0  0
  -29.9529  -13.6641   19.7848 N   0  0  0  0  0  0
  -31.9538  -12.3502   18.5847 H   0  0  0  0  0  0
  -31.0067  -10.9380   18.8708 H   0  0  0  0  0  0
  -29.3744  -12.1247   16.8309 H   0  0  0  0  0  0
  -30.1561  -13.5597   17.1104 H   0  0  0  0  0  0
  -27.2096  -13.9826   17.7889 H   0  0  0  0  0  0
  -28.4124  -14.7542   18.2303 H   0  0  0  0  0  0
  -27.9647  -15.0150   20.4356 H   0  0  0  0  0  0
  -28.6427  -12.3958   22.2591 H   0  0  0  0  0  0
  -29.1895  -13.9986   22.3893 H   0  0  0  0  0  0
  -25.2305   -8.9589   20.0545 H   0  0  0  0  0  0
  -24.2378   -7.5015   21.5280 H   0  0  0  0  0  0
  -20.6137   -9.0510   19.9980 H   0  0  0  0  0  0
  -21.6758  -11.0240   19.1985 H   0  0  0  0  0  0
  -21.2218   -7.6799   23.9465 H   0  0  0  0  0  0
  -21.1711   -6.1087   25.8730 H   0  0  0  0  0  0
  -22.0655   -2.8302   23.2400 H   0  0  0  0  0  0
  -21.1638  -14.3015   22.7705 H   0  0  0  0  0  0
  -22.4648  -13.3464   23.4297 H   0  0  0  0  0  0
  -25.2309  -16.8586   21.5772 H   0  0  0  0  0  0
  -26.7515  -16.4401   20.9783 H   0  0  0  0  0  0
  -26.8019  -32.3943   23.0317 H   0  0  0  0  0  0
  -24.9810  -33.8496   24.9184 H   0  0  0  0  0  0
  -22.9632  -31.1764   21.2777 H   0  0  0  0  0  0
  -23.3824  -35.9129   23.3154 H   0  0  0  0  0  0
  -24.3588  -36.8768   22.2149 H   0  0  0  0  0  0
  -23.7276  -37.5912   23.6996 H   0  0  0  0  0  0
  -26.5888  -30.5409   20.7731 H   0  0  0  0  0  0
  -26.8950  -29.7881   22.2723 H   0  0  0  0  0  0
  -27.5285  -26.8682   21.4819 H   0  0  0  0  0  0
  -24.9672  -25.3646   18.4648 H   0  0  0  0  0  0
  -23.8519  -27.3955   18.4724 H   0  0  0  0  0  0
  -24.1357  -30.3541   19.3738 H   0  0  0  0  0  0
  -22.8520  -29.2408   19.7092 H   0  0  0  0  0  0
  -25.1483  -36.1041   25.0688 H   0  0  0  0  0  0
  -21.0049  -28.3489   24.1172 H   0  0  0  0  0  0
  -20.5535  -26.2423   23.3768 H   0  0  0  0  0  0
  -21.6600  -26.7213   22.1316 H   0  0  0  0  0  0
  -19.6890  -25.6200   21.1339 H   0  0  0  0  0  0
  -19.6739  -27.3068   20.6723 H   0  0  0  0  0  0
  -17.4218  -26.6740   21.3984 H   0  0  0  0  0  0
  -18.0260  -26.0112   22.9005 H   0  0  0  0  0  0
  -19.8011  -30.7367   24.2080 H   0  0  0  0  0  0
  -17.5072  -31.6276   24.5171 H   0  0  0  0  0  0
  -15.5394  -30.2961   23.7753 H   0  0  0  0  0  0
  -15.8716  -28.0792   22.7166 H   0  0  0  0  0  0
  -24.5808  -30.7259   25.7372 H   0  0  0  0  0  0
  -24.8750  -32.3251   26.4045 H   0  0  0  0  0  0
  -25.7541  -30.9372   27.0178 H   0  0  0  0  0  0
  -26.3479  -29.5618   24.3401 H   0  0  0  0  0  0
  -27.4843  -29.7862   25.6313 H   0  0  0  0  0  0
  -27.9273  -30.3471   24.0440 H   0  0  0  0  0  0
  -27.2428  -33.4044   26.1295 H   0  0  0  0  0  0
  -28.4059  -32.6719   25.0356 H   0  0  0  0  0  0
  -28.0430  -31.9164   26.5806 H   0  0  0  0  0  0
  -28.2414  -37.9979   24.7514 H   0  0  0  0  0  0
  -28.1184  -36.2479   24.6259 H   0  0  0  0  0  0
  -27.2262  -37.1114   25.8857 H   0  0  0  0  0  0
  -20.9882  -29.8416   21.6126 H   0  0  0  0  0  0
  -25.9948  -38.2338   24.1403 H   0  0  0  0  0  0
  -21.9989  -13.3666   19.9417 H   0  0  0  0  0  0
  -21.4522  -11.0088   24.6853 H   0  0  0  0  0  0
  -22.6801  -12.2432   24.4361 H   0  0  0  0  0  0
  -23.0966  -10.5562   24.2740 H   0  0  0  0  0  0
  -24.6322  -10.8726   16.9623 H   0  0  0  0  0  0
  -25.4552   -9.6452   17.9190 H   0  0  0  0  0  0
  -26.1727  -10.2082   16.4398 H   0  0  0  0  0  0
  -23.6886  -16.4846   18.6438 H   0  0  0  0  0  0
  -25.2682  -16.1964   18.0386 H   0  0  0  0  0  0
  -21.7041  -10.2397   22.3808 H   0  0  0  0  0  0
  -21.0211  -11.8155   22.3733 H   0  0  0  0  0  0
  -26.4770  -18.5271   19.7535 H   0  0  0  0  0  0
  -24.9770  -18.7480   20.5923 H   0  0  0  0  0  0
  -27.5228  -10.1219   19.0437 H   0  0  0  0  0  0
  -28.3327  -10.6666   17.7502 H   0  0  0  0  0  0
  -29.2965  -10.9052   20.0427 H   0  0  0  0  0  0
  -28.0544  -11.5893   20.5243 H   0  0  0  0  0  0
  -24.6934  -21.6698   19.6340 H   0  0  0  0  0  0
  -25.9555  -21.4789   18.4876 H   0  0  0  0  0  0
  -26.4524  -12.3208   17.2139 H   0  0  0  0  0  0
  -29.8711  -14.2461   18.9683 H   0  0  0  0  0  0
  1 25  1  0  0  0
  1 30  2  0  0  0
  1 86  1  0  0  0
  2  3  1  0  0  0
  2 25  1  0  0  0
  2 87  1  0  0  0
  2 88  1  0  0  0
  3  4  1  0  0  0
  3 89  1  0  0  0
  3 90  1  0  0  0
  4  5  1  0  0  0
  4 91  1  0  0  0
  4 92  1  0  0  0
  5  6  1  0  0  0
  5 26  1  0  0  0
  5 93  1  0  0  0
  6 25  1  0  0  0
  6 94  1  0  0  0
  6 95  1  0  0  0
  7  8  2  0  0  0
  7 26  1  0  0  0
  7 29  1  0  0  0
  8  9  1  0  0  0
  8 22  1  0  0  0
  9 10  1  0  0  0
  9 27  2  0  0  0
 10 11  2  0  0  0
 10 15  1  0  0  0
 11 12  1  0  0  0
 11 96  1  0  0  0
 12 13  2  0  0  0
 12 97  1  0  0  0
 13 14  1  0  0  0
 13 31  1  0  0  0
 14 15  2  0  0  0
 14 98  1  0  0  0
 15 99  1  0  0  0
 16 17  2  0  0  0
 16 21  1  0  0  0
 16 31  1  0  0  0
 17 18  1  0  0  0
 17100  1  0  0  0
 18 19  2  0  0  0
 18101  1  0  0  0
 19 20  1  0  0  0
 19 24  1  0  0  0
 20 21  2  0  0  0
 20102  1  0  0  0
 21 23  1  0  0  0
 22 28  1  0  0  0
 22 32  2  0  0  0
 26 27  1  0  0  0
 28103  1  0  0  0
 28104  1  0  0  0
 29105  1  0  0  0
 29106  1  0  0  0
 33 34  1  0  0  0
 33 66  1  0  0  0
 33 70  2  0  0  0
 34 36  1  0  0  0
 34 59  1  0  0  0
 34107  1  0  0  0
 35 44  2  0  0  0
 35 45  1  0  0  0
 35 68  1  0  0  0
 36 56  1  0  0  0
 36108  1  0  0  0
 37 39  1  0  0  0
 37 47  1  0  0  0
 37 66  1  0  0  0
 37109  1  0  0  0
 38 43  2  0  0  0
 38 46  1  0  0  0
 38 47  1  0  0  0
 39 64  1  0  0  0
 39 67  2  0  0  0
 40 52  1  0  0  0
 40 53  2  0  0  0
 40 58  1  0  0  0
 41110  1  0  0  0
 41111  1  0  0  0
 41112  1  0  0  0
 41 48  1  0  0  0
 42 43  1  0  0  0
 42 66  1  0  0  0
 42113  1  0  0  0
 42114  1  0  0  0
 43 44  1  0  0  0
 44115  1  0  0  0
 45 46  2  0  0  0
 45116  1  0  0  0
 46117  1  0  0  0
 47118  1  0  0  0
 47119  1  0  0  0
 48 56  1  0  0  0
 48 65  1  0  0  0
 48120  1  0  0  0
 49 50  1  0  0  0
 49 53  1  0  0  0
 49 64  1  0  0  0
 49121  1  0  0  0
 50 51  1  0  0  0
 50122  1  0  0  0
 50123  1  0  0  0
 51 52  1  0  0  0
 51124  1  0  0  0
 51125  1  0  0  0
 52126  1  0  0  0
 52127  1  0  0  0
 53 54  1  0  0  0
 54 55  2  0  0  0
 54128  1  0  0  0
 55 57  1  0  0  0
 55129  1  0  0  0
 56 69  2  0  0  0
 57 58  2  0  0  0
 57130  1  0  0  0
 58131  1  0  0  0
 59 60  1  0  0  0
 59 61  1  0  0  0
 59 62  1  0  0  0
 60132  1  0  0  0
 60133  1  0  0  0
 60134  1  0  0  0
 61135  1  0  0  0
 61136  1  0  0  0
 61137  1  0  0  0
 62138  1  0  0  0
 62139  1  0  0  0
 62140  1  0  0  0
 63 65  1  0  0  0
 63141  1  0  0  0
 63142  1  0  0  0
 63143  1  0  0  0
 64144  1  0  0  0
 65145  1  0  0  0
 68 82  1  0  0  0
 71 72  2  0  0  0
 71 73  1  0  0  0
 71146  1  0  0  0
 72 74  1  0  0  0
 72 77  1  0  0  0
 73 78  1  0  0  0
 73 84  2  0  0  0
 74 83  1  0  0  0
 74 85  2  0  0  0
 75 78  1  0  0  0
 75147  1  0  0  0
 75148  1  0  0  0
 75149  1  0  0  0
 76150  1  0  0  0
 76151  1  0  0  0
 76152  1  0  0  0
 76 83  1  0  0  0
 77 79  1  0  0  0
 77153  1  0  0  0
 77154  1  0  0  0
 78155  1  0  0  0
 78156  1  0  0  0
 79 82  1  0  0  0
 79157  1  0  0  0
 79158  1  0  0  0
 80 81  1  0  0  0
 80 83  1  0  0  0
 80159  1  0  0  0
 80160  1  0  0  0
 81 86  1  0  0  0
 81161  1  0  0  0
 81162  1  0  0  0
 82163  1  0  0  0
 82164  1  0  0  0
 83165  1  0  0  0
 84 85  1  0  0  0
 86166  1  0  0  0
M  ISO  4   1 100  68 101  82 101  86 100
M  END
> <chiral flag>
0

> <version>
0

> <s_m_source_file>
/data/baiqing/PycharmProjects/Reinvent-master-3.2/result/LINK_invent/BTK/process_docking_weight1_custom_sum_contain_oxygen_bond_distance_aromatic_linkinvent_7_9_3/rearranged_h_0083.sdf

> <i_m_source_file_index>
68

> <r_mmod_Potential_Energy-OPLS-2005>
27840.228515625

> <r_mmod_Stretch_Energy-OPLS-2005>
15013.5673828125

> <r_mmod_Bend_Energy-OPLS-2005>
2188.97241210938

> <r_mmod_Torsional_Energy-OPLS-2005>
835.183959960938

> <r_mmod_Improper_Torsional_Energy-OPLS-2005>
128.085876464844

> <r_mmod_Van_der_Waal_Energy-OPLS-2005>
4665.75390625

> <r_mmod_Electrostatic_Energy-OPLS-2005>
-372.097961425781

> <r_mmod_Solvation_Energy-OPLS-2005>
-233.091094970703

> <b_mmod_Minimization_Converged-OPLS-2005>
0

> <r_mmod_RMS_Derivative-OPLS-2005>
3.85571694374084

$$$$
68
                    3D
 Structure written by MMmdl.
163171  0  0  1  0            999 V2000
  -30.6426  -14.5516   20.5818 C   0  0  0  0  0  0
  -30.4314  -12.3606   19.4388 C   0  0  0  0  0  0
  -29.5029  -12.5152   18.2159 C   0  0  0  0  0  0
  -28.0266  -12.3463   18.6290 C   0  0  0  0  0  0
  -27.6513  -13.2086   19.8643 C   0  0  2  0  0  0
  -28.6869  -13.0122   20.9921 C   0  0  0  0  0  0
  -25.2498  -13.8135   20.5626 C   0  0  0  0  0  0
  -24.1787  -13.0428   20.9185 C   0  0  0  0  0  0
  -24.6348  -11.6896   20.8713 C   0  0  0  0  0  0
  -23.9018  -10.4281   21.0381 C   0  0  0  0  0  0
  -24.3573   -9.4209   21.9178 C   0  0  0  0  0  0
  -23.6269   -8.2234   22.0747 C   0  0  0  0  0  0
  -22.4252   -8.0244   21.3535 C   0  0  0  0  0  0
  -21.9869   -9.0219   20.4644 C   0  0  0  0  0  0
  -22.7172  -10.2112   20.3056 C   0  0  0  0  0  0
  -21.6848   -6.0709   22.5274 C   0  0  0  0  0  0
  -21.4008   -6.5615   23.8205 C   0  0  0  0  0  0
  -21.3672   -5.6766   24.9173 C   0  0  0  0  0  0
  -21.6055   -4.3030   24.7223 C   0  0  0  0  0  0
  -21.8811   -3.8122   23.4345 C   0  0  0  0  0  0
  -21.9192   -4.6943   22.3402 C   0  0  0  0  0  0
  -22.7803  -13.5236   21.1835 C   0  0  0  0  0  0
  -22.1654   -4.2123   21.0982 F   0  0  0  0  0  0
  -21.5651   -3.4518   25.7748 F   0  0  0  0  0  0
  -30.0095  -13.3512   20.4455 N   0  0  0  0  0  0
  -26.2942  -12.9319   20.3273 N   0  0  0  0  0  0
  -25.9265  -11.6480   20.5714 N   0  0  0  0  0  0
  -22.0431  -12.8274   22.0412 N   0  0  0  0  0  0
  -25.4154  -15.1859   20.3976 N   0  0  0  0  0  0
  -31.7861  -14.7424   20.1548 O   0  0  0  0  0  0
  -21.6616   -6.8841   21.4228 O   0  0  0  0  0  0
  -22.3504  -14.5540   20.6656 O   0  0  0  0  0  0
  -24.6210  -31.8647   23.2103 C   0  0  0  0  0  0
  -25.9109  -32.4800   23.8364 C   0  0  1  0  0  0
  -27.2074  -27.3803   20.1018 C   0  0  0  0  0  0
  -25.5964  -33.8595   24.2315 N   0  0  0  0  0  0
  -23.4061  -30.4955   21.5514 C   0  0  2  0  0  0
  -24.8471  -28.9661   20.1026 C   0  0  0  0  0  0
  -22.7425  -29.4657   22.4950 C   0  0  0  0  0  0
  -18.0290  -28.1370   22.8502 C   0  0  0  0  0  0
  -24.1492  -36.7300   23.2630 C   0  0  0  0  0  0
  -25.9413  -30.8176   21.3688 C   0  0  0  0  0  0
  -26.0124  -29.4508   20.7082 C   0  0  0  0  0  0
  -27.1959  -28.6685   20.7027 C   0  0  0  0  0  0
  -26.0256  -26.9416   19.4574 C   0  0  0  0  0  0
  -24.8530  -27.7155   19.4662 C   0  0  0  0  0  0
  -23.6120  -29.8366   20.1608 C   0  0  0  0  0  0
  -25.4114  -36.3091   24.0326 C   0  0  1  0  0  0
  -20.5888  -28.3672   23.1306 C   0  0  2  0  0  0
  -20.6789  -26.9396   22.5429 C   0  0  0  0  0  0
  -19.5762  -26.6377   21.5232 C   0  0  0  0  0  0
  -18.1935  -26.7926   22.1622 C   0  0  0  0  0  0
  -19.1540  -28.8839   23.2900 C   0  0  0  0  0  0
  -18.9467  -30.1449   23.8901 C   0  0  0  0  0  0
  -17.6467  -30.6585   24.0576 C   0  0  0  0  0  0
  -25.9040  -34.9457   23.5113 C   0  0  0  0  0  0
  -16.5355  -29.9084   23.6333 C   0  0  0  0  0  0
  -16.7275  -28.6502   23.0351 C   0  0  0  0  0  0
  -26.4530  -31.6579   25.0689 C   0  0  0  0  0  0
  -25.3831  -31.3716   26.1474 C   0  0  0  0  0  0
  -27.0372  -30.3018   24.6068 C   0  0  0  0  0  0
  -27.6083  -32.4312   25.7474 C   0  0  0  0  0  0
  -27.5574  -37.1801   24.8461 C   0  0  0  0  0  0
  -21.4154  -29.3032   22.3700 N   0  0  0  0  0  0
  -26.4286  -37.3784   23.9412 N   0  0  0  0  0  0
  -24.6747  -31.0752   22.1007 N   0  0  0  0  0  0
  -23.4193  -28.8183   23.2991 O   0  0  0  0  0  0
  -28.3354  -26.5700   20.1678 O   0  0  0  0  0  0
  -26.5564  -34.8914   22.4646 O   0  0  0  0  0  0
  -23.5401  -32.1390   23.7520 O   0  0  0  0  0  0
  -31.1823  -21.3341   18.2339 C   0  0  0  0  0  0
  -30.3493  -22.3467   18.7617 C   0  0  0  0  0  0
  -31.1166  -20.2571   19.0661 C   0  0  0  0  0  0
  -29.7820  -21.8817   19.9154 C   0  0  0  0  0  0
  -31.9412  -19.0106   18.9646 C   0  0  0  0  0  0
  -27.9114  -17.8435   21.0142 C   0  0  0  0  0  0
  -28.9078  -22.6957   20.8525 C   0  0  0  0  0  0
  -29.1473  -24.2558   20.8332 C   0  0  0  0  0  0
  -29.8128  -19.5811   21.1654 C   0  0  0  0  0  0
  -30.2916  -16.9685   21.3884 C   0  0  0  0  0  0
  -28.1329  -25.1303   20.0384 C   0  0  0  0  0  0
  -29.4052  -18.1048   20.7440 C   0  0  1  0  0  0
  -30.1783  -20.5256   20.0731 N   0  0  0  0  0  0
  -29.8934  -15.5625   21.0931 N   0  0  0  0  0  0
  -31.4747  -12.4826   19.1431 H   0  0  0  0  0  0
  -30.3594  -11.3529   19.8495 H   0  0  0  0  0  0
  -29.7642  -11.7775   17.4562 H   0  0  0  0  0  0
  -29.6501  -13.4966   17.7602 H   0  0  0  0  0  0
  -27.8750  -11.2926   18.8650 H   0  0  0  0  0  0
  -27.3678  -12.5657   17.7876 H   0  0  0  0  0  0
  -27.6880  -14.2514   19.5485 H   0  0  0  0  0  0
  -28.6790  -11.9748   21.3325 H   0  0  0  0  0  0
  -28.4349  -13.6067   21.8697 H   0  0  0  0  0  0
  -25.2729   -9.5698   22.4736 H   0  0  0  0  0  0
  -23.9978   -7.4630   22.7471 H   0  0  0  0  0  0
  -21.0799   -8.8739   19.8956 H   0  0  0  0  0  0
  -22.3630  -10.9645   19.6156 H   0  0  0  0  0  0
  -21.1979   -7.6118   23.9713 H   0  0  0  0  0  0
  -21.1509   -6.0493   25.9079 H   0  0  0  0  0  0
  -22.0580   -2.7580   23.2857 H   0  0  0  0  0  0
  -22.3999  -11.9985   22.4919 H   0  0  0  0  0  0
  -21.1044  -13.1332   22.2542 H   0  0  0  0  0  0
  -24.6397  -15.8330   20.4883 H   0  0  0  0  0  0
  -26.2506  -15.6172   20.0260 H   0  0  0  0  0  0
  -26.7154  -32.5510   23.1085 H   0  0  0  0  0  0
  -25.0267  -33.9740   25.0573 H   0  0  0  0  0  0
  -22.6960  -31.3158   21.4197 H   0  0  0  0  0  0
  -23.3742  -35.9643   23.3299 H   0  0  0  0  0  0
  -24.3590  -36.8911   22.2040 H   0  0  0  0  0  0
  -23.7250  -37.6509   23.6641 H   0  0  0  0  0  0
  -26.0607  -31.5868   20.6045 H   0  0  0  0  0  0
  -26.8277  -30.8634   21.9900 H   0  0  0  0  0  0
  -28.0892  -29.0335   21.1898 H   0  0  0  0  0  0
  -25.9817  -25.9914   18.9439 H   0  0  0  0  0  0
  -23.9599  -27.3531   18.9759 H   0  0  0  0  0  0
  -23.7204  -30.6174   19.4070 H   0  0  0  0  0  0
  -22.7327  -29.2634   19.8634 H   0  0  0  0  0  0
  -25.1291  -36.1936   25.0814 H   0  0  0  0  0  0
  -20.9983  -28.3257   24.1429 H   0  0  0  0  0  0
  -20.5746  -26.2258   23.3620 H   0  0  0  0  0  0
  -21.6650  -26.7471   22.1187 H   0  0  0  0  0  0
  -19.6925  -25.6297   21.1244 H   0  0  0  0  0  0
  -19.6712  -27.3209   20.6786 H   0  0  0  0  0  0
  -17.4222  -26.6710   21.4000 H   0  0  0  0  0  0
  -18.0298  -26.0054   22.8995 H   0  0  0  0  0  0
  -19.7944  -30.7279   24.2239 H   0  0  0  0  0  0
  -17.5026  -31.6269   24.5173 H   0  0  0  0  0  0
  -15.5352  -30.2994   23.7666 H   0  0  0  0  0  0
  -15.8674  -28.0844   22.7036 H   0  0  0  0  0  0
  -24.5986  -30.7046   25.7869 H   0  0  0  0  0  0
  -24.9056  -32.2896   26.4914 H   0  0  0  0  0  0
  -25.8245  -30.8927   27.0223 H   0  0  0  0  0  0
  -26.2891  -29.6730   24.1208 H   0  0  0  0  0  0
  -27.4246  -29.7291   25.4503 H   0  0  0  0  0  0
  -27.8689  -30.4329   23.9138 H   0  0  0  0  0  0
  -27.2651  -33.3592   26.2056 H   0  0  0  0  0  0
  -28.3901  -32.6895   25.0324 H   0  0  0  0  0  0
  -28.0722  -31.8435   26.5400 H   0  0  0  0  0  0
  -28.2598  -38.0088   24.7505 H   0  0  0  0  0  0
  -28.1055  -36.2622   24.6294 H   0  0  0  0  0  0
  -27.2289  -37.1468   25.8860 H   0  0  0  0  0  0
  -20.9316  -29.8744   21.6926 H   0  0  0  0  0  0
  -26.0165  -38.2849   24.1450 H   0  0  0  0  0  0
  -31.8122  -21.3995   17.3574 H   0  0  0  0  0  0
  -30.2195  -23.3436   18.3597 H   0  0  0  0  0  0
  -32.7347  -19.1521   18.2305 H   0  0  0  0  0  0
  -31.3671  -18.1501   18.6276 H   0  0  0  0  0  0
  -32.4299  -18.7715   19.9087 H   0  0  0  0  0  0
  -27.6982  -17.7818   22.0816 H   0  0  0  0  0  0
  -27.5910  -16.9100   20.5533 H   0  0  0  0  0  0
  -27.2807  -18.6298   20.5980 H   0  0  0  0  0  0
  -29.0858  -22.3561   21.8729 H   0  0  0  0  0  0
  -27.8583  -22.4782   20.6523 H   0  0  0  0  0  0
  -30.1713  -24.4888   20.5404 H   0  0  0  0  0  0
  -29.0686  -24.5886   21.8676 H   0  0  0  0  0  0
  -30.6510  -19.5568   21.8625 H   0  0  0  0  0  0
  -28.9989  -20.0307   21.7349 H   0  0  0  0  0  0
  -30.2396  -17.0714   22.4729 H   0  0  0  0  0  0
  -31.3419  -17.1218   21.1428 H   0  0  0  0  0  0
  -27.1505  -24.8460   20.4193 H   0  0  0  0  0  0
  -28.1577  -24.8690   18.9787 H   0  0  0  0  0  0
  -29.4967  -18.0360   19.6638 H   0  0  0  0  0  0
  -28.9535  -15.3128   21.3636 H   0  0  0  0  0  0
  1 25  1  0  0  0
  1 30  2  0  0  0
  1 84  1  0  0  0
  2  3  1  0  0  0
  2 25  1  0  0  0
  2 85  1  0  0  0
  2 86  1  0  0  0
  3  4  1  0  0  0
  3 87  1  0  0  0
  3 88  1  0  0  0
  4  5  1  0  0  0
  4 89  1  0  0  0
  4 90  1  0  0  0
  5  6  1  0  0  0
  5 26  1  0  0  0
  5 91  1  0  0  0
  6 25  1  0  0  0
  6 92  1  0  0  0
  6 93  1  0  0  0
  7  8  2  0  0  0
  7 26  1  0  0  0
  7 29  1  0  0  0
  8  9  1  0  0  0
  8 22  1  0  0  0
  9 10  1  0  0  0
  9 27  2  0  0  0
 10 11  2  0  0  0
 10 15  1  0  0  0
 11 12  1  0  0  0
 11 94  1  0  0  0
 12 13  2  0  0  0
 12 95  1  0  0  0
 13 14  1  0  0  0
 13 31  1  0  0  0
 14 15  2  0  0  0
 14 96  1  0  0  0
 15 97  1  0  0  0
 16 17  2  0  0  0
 16 21  1  0  0  0
 16 31  1  0  0  0
 17 18  1  0  0  0
 17 98  1  0  0  0
 18 19  2  0  0  0
 18 99  1  0  0  0
 19 20  1  0  0  0
 19 24  1  0  0  0
 20 21  2  0  0  0
 20100  1  0  0  0
 21 23  1  0  0  0
 22 28  1  0  0  0
 22 32  2  0  0  0
 26 27  1  0  0  0
 28101  1  0  0  0
 28102  1  0  0  0
 29103  1  0  0  0
 29104  1  0  0  0
 33 34  1  0  0  0
 33 66  1  0  0  0
 33 70  2  0  0  0
 34 36  1  0  0  0
 34 59  1  0  0  0
 34105  1  0  0  0
 35 44  2  0  0  0
 35 45  1  0  0  0
 35 68  1  0  0  0
 36 56  1  0  0  0
 36106  1  0  0  0
 37 39  1  0  0  0
 37 47  1  0  0  0
 37 66  1  0  0  0
 37107  1  0  0  0
 38 43  2  0  0  0
 38 46  1  0  0  0
 38 47  1  0  0  0
 39 64  1  0  0  0
 39 67  2  0  0  0
 40 52  1  0  0  0
 40 53  2  0  0  0
 40 58  1  0  0  0
 41108  1  0  0  0
 41109  1  0  0  0
 41110  1  0  0  0
 41 48  1  0  0  0
 42 43  1  0  0  0
 42 66  1  0  0  0
 42111  1  0  0  0
 42112  1  0  0  0
 43 44  1  0  0  0
 44113  1  0  0  0
 45 46  2  0  0  0
 45114  1  0  0  0
 46115  1  0  0  0
 47116  1  0  0  0
 47117  1  0  0  0
 48 56  1  0  0  0
 48 65  1  0  0  0
 48118  1  0  0  0
 49 50  1  0  0  0
 49 53  1  0  0  0
 49 64  1  0  0  0
 49119  1  0  0  0
 50 51  1  0  0  0
 50120  1  0  0  0
 50121  1  0  0  0
 51 52  1  0  0  0
 51122  1  0  0  0
 51123  1  0  0  0
 52124  1  0  0  0
 52125  1  0  0  0
 53 54  1  0  0  0
 54 55  2  0  0  0
 54126  1  0  0  0
 55 57  1  0  0  0
 55127  1  0  0  0
 56 69  2  0  0  0
 57 58  2  0  0  0
 57128  1  0  0  0
 58129  1  0  0  0
 59 60  1  0  0  0
 59 61  1  0  0  0
 59 62  1  0  0  0
 60130  1  0  0  0
 60131  1  0  0  0
 60132  1  0  0  0
 61133  1  0  0  0
 61134  1  0  0  0
 61135  1  0  0  0
 62136  1  0  0  0
 62137  1  0  0  0
 62138  1  0  0  0
 63 65  1  0  0  0
 63139  1  0  0  0
 63140  1  0  0  0
 63141  1  0  0  0
 64142  1  0  0  0
 65143  1  0  0  0
 68 81  1  0  0  0
 71 72  1  0  0  0
 71 73  2  0  0  0
 71144  1  0  0  0
 72 74  2  0  0  0
 72145  1  0  0  0
 73 75  1  0  0  0
 73 83  1  0  0  0
 74 77  1  0  0  0
 74 83  1  0  0  0
 75146  1  0  0  0
 75147  1  0  0  0
 75148  1  0  0  0
 76149  1  0  0  0
 76150  1  0  0  0
 76151  1  0  0  0
 76 82  1  0  0  0
 77 78  1  0  0  0
 77152  1  0  0  0
 77153  1  0  0  0
 78 81  1  0  0  0
 78154  1  0  0  0
 78155  1  0  0  0
 79 82  1  0  0  0
 79 83  1  0  0  0
 79156  1  0  0  0
 79157  1  0  0  0
 80 82  1  0  0  0
 80 84  1  0  0  0
 80158  1  0  0  0
 80159  1  0  0  0
 81160  1  0  0  0
 81161  1  0  0  0
 82162  1  0  0  0
 84163  1  0  0  0
M  ISO  4   1 100  68 101  81 101  84 100
M  END
> <chiral flag>
0

> <version>
0

> <s_m_source_file>
/data/baiqing/PycharmProjects/Reinvent-master-3.2/result/LINK_invent/BTK/process_docking_weight1_custom_sum_contain_oxygen_bond_distance_aromatic_linkinvent_7_9_3/rearranged_h_0083.sdf

> <i_m_source_file_index>
69

> <r_mmod_Potential_Energy-OPLS-2005>
-31.194896697998

> <r_mmod_Stretch_Energy-OPLS-2005>
57.6767501831055

> <r_mmod_Bend_Energy-OPLS-2005>
119.850624084473

> <r_mmod_Torsional_Energy-OPLS-2005>
237.497116088867

> <r_mmod_Improper_Torsional_Energy-OPLS-2005>
3.8810396194458

> <r_mmod_Van_der_Waal_Energy-OPLS-2005>
129.015289306641

> <r_mmod_Electrostatic_Energy-OPLS-2005>
-398.88525390625

> <r_mmod_Solvation_Energy-OPLS-2005>
-208.594833374023

> <b_mmod_Minimization_Converged-OPLS-2005>
0

> <r_mmod_RMS_Derivative-OPLS-2005>
3.61585092544556

$$$$
69
                    3D
 Structure written by MMmdl.
173181  0  0  1  0            999 V2000
  -30.7792  -14.3463   20.6827 C   0  0  0  0  0  0
  -30.4114  -12.2815   19.3837 C   0  0  0  0  0  0
  -29.4782  -12.5320   18.1860 C   0  0  0  0  0  0
  -28.0022  -12.3975   18.6084 C   0  0  0  0  0  0
  -27.6693  -13.2058   19.8924 C   0  0  2  0  0  0
  -28.7121  -12.9153   20.9965 C   0  0  0  0  0  0
  -25.2600  -13.8167   20.5683 C   0  0  0  0  0  0
  -24.1838  -13.0405   20.9131 C   0  0  0  0  0  0
  -24.6409  -11.6896   20.8716 C   0  0  0  0  0  0
  -23.9072  -10.4273   21.0401 C   0  0  0  0  0  0
  -24.3625   -9.4175   21.9176 C   0  0  0  0  0  0
  -23.6252   -8.2237   22.0759 C   0  0  0  0  0  0
  -22.4230   -8.0277   21.3558 C   0  0  0  0  0  0
  -21.9891   -9.0253   20.4649 C   0  0  0  0  0  0
  -22.7239  -10.2127   20.3046 C   0  0  0  0  0  0
  -21.6852   -6.0719   22.5277 C   0  0  0  0  0  0
  -21.4037   -6.5633   23.8216 C   0  0  0  0  0  0
  -21.3649   -5.6784   24.9176 C   0  0  0  0  0  0
  -21.6045   -4.3049   24.7230 C   0  0  0  0  0  0
  -21.8820   -3.8128   23.4359 C   0  0  0  0  0  0
  -21.9188   -4.6936   22.3400 C   0  0  0  0  0  0
  -22.7858  -13.5190   21.1808 C   0  0  0  0  0  0
  -22.1648   -4.2111   21.0982 F   0  0  0  0  0  0
  -21.5598   -3.4540   25.7752 F   0  0  0  0  0  0
  -30.0502  -13.2198   20.4590 N   0  0  0  0  0  0
  -26.3066  -12.9339   20.3466 N   0  0  0  0  0  0
  -25.9346  -11.6482   20.5788 N   0  0  0  0  0  0
  -22.0502  -12.8127   22.0340 N   0  0  0  0  0  0
  -25.4291  -15.1871   20.4108 N   0  0  0  0  0  0
  -31.7860  -14.6416   20.0380 O   0  0  0  0  0  0
  -21.6631   -6.8843   21.4233 O   0  0  0  0  0  0
  -22.3546  -14.5522   20.6718 O   0  0  0  0  0  0
  -24.6089  -31.8708   23.2116 C   0  0  0  0  0  0
  -25.8994  -32.4839   23.8401 C   0  0  1  0  0  0
  -27.2459  -27.4817   20.0776 C   0  0  0  0  0  0
  -25.5873  -33.8644   24.2313 N   0  0  0  0  0  0
  -23.3963  -30.4910   21.5534 C   0  0  2  0  0  0
  -24.8420  -28.9624   20.1169 C   0  0  0  0  0  0
  -22.7382  -29.4662   22.5031 C   0  0  0  0  0  0
  -18.0258  -28.1367   22.8479 C   0  0  0  0  0  0
  -24.1486  -36.7335   23.2641 C   0  0  0  0  0  0
  -25.9206  -30.8476   21.3592 C   0  0  0  0  0  0
  -25.9971  -29.4857   20.7075 C   0  0  0  0  0  0
  -27.1982  -28.7506   20.6862 C   0  0  0  0  0  0
  -26.0693  -26.9583   19.4878 C   0  0  0  0  0  0
  -24.8693  -27.6937   19.5115 C   0  0  0  0  0  0
  -23.5987  -29.8201   20.1687 C   0  0  0  0  0  0
  -25.4110  -36.3125   24.0327 C   0  0  1  0  0  0
  -20.5834  -28.3626   23.1341 C   0  0  2  0  0  0
  -20.6746  -26.9367   22.5424 C   0  0  0  0  0  0
  -19.5728  -26.6377   21.5204 C   0  0  0  0  0  0
  -18.1903  -26.7924   22.1604 C   0  0  0  0  0  0
  -19.1509  -28.8811   23.2904 C   0  0  0  0  0  0
  -18.9449  -30.1425   23.8904 C   0  0  0  0  0  0
  -17.6452  -30.6579   24.0563 C   0  0  0  0  0  0
  -25.9030  -34.9488   23.5112 C   0  0  0  0  0  0
  -16.5333  -29.9078   23.6342 C   0  0  0  0  0  0
  -16.7249  -28.6499   23.0346 C   0  0  0  0  0  0
  -26.4433  -31.6647   25.0748 C   0  0  0  0  0  0
  -25.3720  -31.3765   26.1517 C   0  0  0  0  0  0
  -27.0265  -30.3096   24.6144 C   0  0  0  0  0  0
  -27.6008  -32.4387   25.7501 C   0  0  0  0  0  0
  -27.5576  -37.1815   24.8459 C   0  0  0  0  0  0
  -21.4116  -29.3012   22.3773 N   0  0  0  0  0  0
  -26.4295  -37.3807   23.9403 N   0  0  0  0  0  0
  -24.6601  -31.0833   22.1003 N   0  0  0  0  0  0
  -23.4168  -28.8193   23.3050 O   0  0  0  0  0  0
  -28.4607  -26.8340   20.0733 O   0  0  0  0  0  0
  -26.5600  -34.8914   22.4681 O   0  0  0  0  0  0
  -23.5285  -32.1437   23.7525 O   0  0  0  0  0  0
  -27.8091  -20.1895   22.4812 C   0  0  0  0  0  0
  -26.6347  -18.8206   20.4226 C   0  0  0  0  0  0
  -27.0956  -20.9178   21.5132 C   0  0  0  0  0  0
  -26.5079  -20.2251   20.4260 C   0  0  0  0  0  0
  -27.8740  -18.7840   22.3989 C   0  0  0  0  0  0
  -24.7813  -20.1505   18.4734 C   0  0  0  0  0  0
  -29.0975  -18.7828   24.6591 C   0  0  0  0  0  0
  -27.4387  -17.0359   24.1565 C   0  0  0  0  0  0
  -26.9850  -22.4200   21.6927 C   0  0  0  0  0  0
  -25.8040  -20.9647   19.2773 C   0  0  0  0  0  0
  -28.0772  -23.1740   20.9354 C   0  0  0  0  0  0
  -27.9107  -24.6909   21.0688 C   0  0  0  0  0  0
  -29.7120  -17.0414   23.0013 C   0  0  0  0  0  0
  -29.4462  -16.0499   21.8478 C   0  0  0  0  0  0
  -28.5083  -25.4303   19.8644 C   0  0  0  0  0  0
  -28.5249  -17.9177   23.5071 C   0  0  0  0  0  0
  -27.2800  -18.1229   21.3793 N   0  0  0  0  0  0
  -30.4983  -15.0328   21.7933 N   0  0  0  0  0  0
  -31.4553  -12.3762   19.0751 H   0  0  0  0  0  0
  -30.2994  -11.2532   19.7311 H   0  0  0  0  0  0
  -29.7019  -11.8275   17.3834 H   0  0  0  0  0  0
  -29.6565  -13.5300   17.7798 H   0  0  0  0  0  0
  -27.8025  -11.3401   18.7797 H   0  0  0  0  0  0
  -27.3488  -12.6981   17.7878 H   0  0  0  0  0  0
  -27.7335  -14.2647   19.6411 H   0  0  0  0  0  0
  -28.6726  -11.8595   21.2678 H   0  0  0  0  0  0
  -28.4816  -13.4381   21.9228 H   0  0  0  0  0  0
  -25.2814   -9.5581   22.4716 H   0  0  0  0  0  0
  -23.9964   -7.4609   22.7454 H   0  0  0  0  0  0
  -21.0850   -8.8788   19.8920 H   0  0  0  0  0  0
  -22.3704  -10.9657   19.6137 H   0  0  0  0  0  0
  -21.2064   -7.6147   23.9729 H   0  0  0  0  0  0
  -21.1461   -6.0501   25.9075 H   0  0  0  0  0  0
  -22.0620   -2.7592   23.2872 H   0  0  0  0  0  0
  -22.4150  -11.9791   22.4697 H   0  0  0  0  0  0
  -21.1070  -13.1050   22.2456 H   0  0  0  0  0  0
  -24.6783  -15.8438   20.5898 H   0  0  0  0  0  0
  -26.3118  -15.6391   20.2043 H   0  0  0  0  0  0
  -26.7072  -32.5575   23.1168 H   0  0  0  0  0  0
  -25.0019  -33.9818   25.0446 H   0  0  0  0  0  0
  -22.6846  -31.3060   21.4119 H   0  0  0  0  0  0
  -23.3730  -35.9684   23.3322 H   0  0  0  0  0  0
  -24.3575  -36.8953   22.2054 H   0  0  0  0  0  0
  -23.7226  -37.6540   23.6654 H   0  0  0  0  0  0
  -26.0267  -31.6145   20.5905 H   0  0  0  0  0  0
  -26.8089  -30.8989   21.9764 H   0  0  0  0  0  0
  -28.0970  -29.1546   21.1295 H   0  0  0  0  0  0
  -26.0588  -25.9957   18.9996 H   0  0  0  0  0  0
  -23.9796  -27.2834   19.0551 H   0  0  0  0  0  0
  -23.6925  -30.5910   19.4015 H   0  0  0  0  0  0
  -22.7253  -29.2300   19.8831 H   0  0  0  0  0  0
  -25.1273  -36.2005   25.0816 H   0  0  0  0  0  0
  -20.9905  -28.3167   24.1465 H   0  0  0  0  0  0
  -20.5639  -26.2220   23.3596 H   0  0  0  0  0  0
  -21.6619  -26.7429   22.1207 H   0  0  0  0  0  0
  -19.6902  -25.6298   21.1216 H   0  0  0  0  0  0
  -19.6677  -27.3199   20.6742 H   0  0  0  0  0  0
  -17.4172  -26.6656   21.4010 H   0  0  0  0  0  0
  -18.0306  -26.0072   22.9002 H   0  0  0  0  0  0
  -19.7927  -30.7237   24.2269 H   0  0  0  0  0  0
  -17.5015  -31.6266   24.5142 H   0  0  0  0  0  0
  -15.5338  -30.2970   23.7695 H   0  0  0  0  0  0
  -15.8650  -28.0835   22.7051 H   0  0  0  0  0  0
  -24.5830  -30.7179   25.7866 H   0  0  0  0  0  0
  -24.8975  -32.2938   26.5035 H   0  0  0  0  0  0
  -25.8074  -30.8878   27.0245 H   0  0  0  0  0  0
  -26.2818  -29.6879   24.1163 H   0  0  0  0  0  0
  -27.3977  -29.7321   25.4622 H   0  0  0  0  0  0
  -27.8676  -30.4410   23.9327 H   0  0  0  0  0  0
  -27.2607  -33.3659   26.2123 H   0  0  0  0  0  0
  -28.3786  -32.7018   25.0323 H   0  0  0  0  0  0
  -28.0722  -31.8516   26.5389 H   0  0  0  0  0  0
  -28.2594  -38.0111   24.7513 H   0  0  0  0  0  0
  -28.1052  -36.2639   24.6267 H   0  0  0  0  0  0
  -27.2303  -37.1473   25.8864 H   0  0  0  0  0  0
  -20.9251  -29.8768   21.7045 H   0  0  0  0  0  0
  -26.0186  -38.2886   24.1411 H   0  0  0  0  0  0
  -28.2748  -20.7330   23.2915 H   0  0  0  0  0  0
  -26.2079  -18.2224   19.6333 H   0  0  0  0  0  0
  -25.2503  -19.3728   17.8706 H   0  0  0  0  0  0
  -24.2507  -20.8072   17.7817 H   0  0  0  0  0  0
  -24.0393  -19.6892   19.1267 H   0  0  0  0  0  0
  -28.3260  -19.3979   25.1240 H   0  0  0  0  0  0
  -29.8967  -19.4417   24.3174 H   0  0  0  0  0  0
  -29.5198  -18.1644   25.4536 H   0  0  0  0  0  0
  -27.8581  -16.4015   24.9380 H   0  0  0  0  0  0
  -26.9478  -16.3846   23.4339 H   0  0  0  0  0  0
  -26.6578  -17.6464   24.6105 H   0  0  0  0  0  0
  -27.0480  -22.6582   22.7551 H   0  0  0  0  0  0
  -25.9974  -22.7616   21.3903 H   0  0  0  0  0  0
  -26.5685  -21.3353   18.5933 H   0  0  0  0  0  0
  -25.2743  -21.8415   19.6443 H   0  0  0  0  0  0
  -28.0443  -22.8901   19.8825 H   0  0  0  0  0  0
  -29.0601  -22.8741   21.3014 H   0  0  0  0  0  0
  -28.3725  -25.0336   21.9960 H   0  0  0  0  0  0
  -26.8533  -24.9426   21.1579 H   0  0  0  0  0  0
  -30.5334  -17.6951   22.7081 H   0  0  0  0  0  0
  -30.0857  -16.4759   23.8547 H   0  0  0  0  0  0
  -29.3999  -16.5874   20.8969 H   0  0  0  0  0  0
  -28.4784  -15.5750   21.9781 H   0  0  0  0  0  0
  -28.0287  -25.1356   18.9308 H   0  0  0  0  0  0
  -29.5581  -25.1534   19.7581 H   0  0  0  0  0  0
  -31.3551  -15.3859   22.1932 H   0  0  0  0  0  0
  1 25  1  0  0  0
  1 30  2  0  0  0
  1 88  1  0  0  0
  2  3  1  0  0  0
  2 25  1  0  0  0
  2 89  1  0  0  0
  2 90  1  0  0  0
  3  4  1  0  0  0
  3 91  1  0  0  0
  3 92  1  0  0  0
  4  5  1  0  0  0
  4 93  1  0  0  0
  4 94  1  0  0  0
  5  6  1  0  0  0
  5 26  1  0  0  0
  5 95  1  0  0  0
  6 25  1  0  0  0
  6 96  1  0  0  0
  6 97  1  0  0  0
  7  8  2  0  0  0
  7 26  1  0  0  0
  7 29  1  0  0  0
  8  9  1  0  0  0
  8 22  1  0  0  0
  9 10  1  0  0  0
  9 27  2  0  0  0
 10 11  2  0  0  0
 10 15  1  0  0  0
 11 12  1  0  0  0
 11 98  1  0  0  0
 12 13  2  0  0  0
 12 99  1  0  0  0
 13 14  1  0  0  0
 13 31  1  0  0  0
 14 15  2  0  0  0
 14100  1  0  0  0
 15101  1  0  0  0
 16 17  2  0  0  0
 16 21  1  0  0  0
 16 31  1  0  0  0
 17 18  1  0  0  0
 17102  1  0  0  0
 18 19  2  0  0  0
 18103  1  0  0  0
 19 20  1  0  0  0
 19 24  1  0  0  0
 20 21  2  0  0  0
 20104  1  0  0  0
 21 23  1  0  0  0
 22 28  1  0  0  0
 22 32  2  0  0  0
 26 27  1  0  0  0
 28105  1  0  0  0
 28106  1  0  0  0
 29107  1  0  0  0
 29108  1  0  0  0
 33 34  1  0  0  0
 33 66  1  0  0  0
 33 70  2  0  0  0
 34 36  1  0  0  0
 34 59  1  0  0  0
 34109  1  0  0  0
 35 44  2  0  0  0
 35 45  1  0  0  0
 35 68  1  0  0  0
 36 56  1  0  0  0
 36110  1  0  0  0
 37 39  1  0  0  0
 37 47  1  0  0  0
 37 66  1  0  0  0
 37111  1  0  0  0
 38 43  2  0  0  0
 38 46  1  0  0  0
 38 47  1  0  0  0
 39 64  1  0  0  0
 39 67  2  0  0  0
 40 52  1  0  0  0
 40 53  2  0  0  0
 40 58  1  0  0  0
 41112  1  0  0  0
 41113  1  0  0  0
 41114  1  0  0  0
 41 48  1  0  0  0
 42 43  1  0  0  0
 42 66  1  0  0  0
 42115  1  0  0  0
 42116  1  0  0  0
 43 44  1  0  0  0
 44117  1  0  0  0
 45 46  2  0  0  0
 45118  1  0  0  0
 46119  1  0  0  0
 47120  1  0  0  0
 47121  1  0  0  0
 48 56  1  0  0  0
 48 65  1  0  0  0
 48122  1  0  0  0
 49 50  1  0  0  0
 49 53  1  0  0  0
 49 64  1  0  0  0
 49123  1  0  0  0
 50 51  1  0  0  0
 50124  1  0  0  0
 50125  1  0  0  0
 51 52  1  0  0  0
 51126  1  0  0  0
 51127  1  0  0  0
 52128  1  0  0  0
 52129  1  0  0  0
 53 54  1  0  0  0
 54 55  2  0  0  0
 54130  1  0  0  0
 55 57  1  0  0  0
 55131  1  0  0  0
 56 69  2  0  0  0
 57 58  2  0  0  0
 57132  1  0  0  0
 58133  1  0  0  0
 59 60  1  0  0  0
 59 61  1  0  0  0
 59 62  1  0  0  0
 60134  1  0  0  0
 60135  1  0  0  0
 60136  1  0  0  0
 61137  1  0  0  0
 61138  1  0  0  0
 61139  1  0  0  0
 62140  1  0  0  0
 62141  1  0  0  0
 62142  1  0  0  0
 63 65  1  0  0  0
 63143  1  0  0  0
 63144  1  0  0  0
 63145  1  0  0  0
 64146  1  0  0  0
 65147  1  0  0  0
 68 85  1  0  0  0
 71 73  2  0  0  0
 71 75  1  0  0  0
 71148  1  0  0  0
 72 74  2  0  0  0
 72 87  1  0  0  0
 72149  1  0  0  0
 73 74  1  0  0  0
 73 79  1  0  0  0
 74 80  1  0  0  0
 75 86  1  0  0  0
 75 87  2  0  0  0
 76 80  1  0  0  0
 76150  1  0  0  0
 76151  1  0  0  0
 76152  1  0  0  0
 77153  1  0  0  0
 77154  1  0  0  0
 77155  1  0  0  0
 77 86  1  0  0  0
 78 86  1  0  0  0
 78156  1  0  0  0
 78157  1  0  0  0
 78158  1  0  0  0
 79 81  1  0  0  0
 79159  1  0  0  0
 79160  1  0  0  0
 80161  1  0  0  0
 80162  1  0  0  0
 81 82  1  0  0  0
 81163  1  0  0  0
 81164  1  0  0  0
 82 85  1  0  0  0
 82165  1  0  0  0
 82166  1  0  0  0
 83 84  1  0  0  0
 83 86  1  0  0  0
 83167  1  0  0  0
 83168  1  0  0  0
 84 88  1  0  0  0
 84169  1  0  0  0
 84170  1  0  0  0
 85171  1  0  0  0
 85172  1  0  0  0
 88173  1  0  0  0
M  ISO  4   1 100  68 101  85 101  88 100
M  END
> <chiral flag>
0

> <version>
0

> <s_m_source_file>
/data/baiqing/PycharmProjects/Reinvent-master-3.2/result/LINK_invent/BTK/process_docking_weight1_custom_sum_contain_oxygen_bond_distance_aromatic_linkinvent_7_9_3/rearranged_h_0083.sdf

> <i_m_source_file_index>
70

> <r_mmod_Potential_Energy-OPLS-2005>
-167.057861328125

> <r_mmod_Stretch_Energy-OPLS-2005>
36.2396469116211

> <r_mmod_Bend_Energy-OPLS-2005>
120.669120788574

> <r_mmod_Torsional_Energy-OPLS-2005>
244.768508911133

> <r_mmod_Improper_Torsional_Energy-OPLS-2005>
9.52796077728271

> <r_mmod_Van_der_Waal_Energy-OPLS-2005>
164.063140869141

> <r_mmod_Electrostatic_Energy-OPLS-2005>
-558.125793457031

> <r_mmod_Solvation_Energy-OPLS-2005>
-192.412826538086

> <b_mmod_Minimization_Converged-OPLS-2005>
0

> <r_mmod_RMS_Derivative-OPLS-2005>
3.59913516044617

$$$$
70
                    3D
 Structure written by MMmdl.
163171  0  0  1  0            999 V2000
  -30.7199  -14.4819   20.5764 C   0  0  0  0  0  0
  -30.4227  -12.3135   19.4349 C   0  0  0  0  0  0
  -29.5011  -12.5194   18.2158 C   0  0  0  0  0  0
  -28.0211  -12.3734   18.6216 C   0  0  0  0  0  0
  -27.6646  -13.2104   19.8802 C   0  0  2  0  0  0
  -28.7093  -13.0046   21.0048 C   0  0  0  0  0  0
  -25.2558  -13.8118   20.5612 C   0  0  0  0  0  0
  -24.1837  -13.0398   20.9172 C   0  0  0  0  0  0
  -24.6408  -11.6881   20.8732 C   0  0  0  0  0  0
  -23.9068  -10.4283   21.0392 C   0  0  0  0  0  0
  -24.3621   -9.4209   21.9176 C   0  0  0  0  0  0
  -23.6300   -8.2249   22.0756 C   0  0  0  0  0  0
  -22.4274   -8.0289   21.3543 C   0  0  0  0  0  0
  -21.9911   -9.0255   20.4640 C   0  0  0  0  0  0
  -22.7240  -10.2133   20.3042 C   0  0  0  0  0  0
  -21.6862   -6.0745   22.5275 C   0  0  0  0  0  0
  -21.4024   -6.5643   23.8209 C   0  0  0  0  0  0
  -21.3668   -5.6789   24.9167 C   0  0  0  0  0  0
  -21.6044   -4.3056   24.7204 C   0  0  0  0  0  0
  -21.8831   -3.8149   23.4331 C   0  0  0  0  0  0
  -21.9201   -4.6971   22.3390 C   0  0  0  0  0  0
  -22.7856  -13.5201   21.1829 C   0  0  0  0  0  0
  -22.1652   -4.2154   21.0967 F   0  0  0  0  0  0
  -21.5636   -3.4539   25.7720 F   0  0  0  0  0  0
  -30.0427  -13.3051   20.4553 N   0  0  0  0  0  0
  -26.3044  -12.9323   20.3382 N   0  0  0  0  0  0
  -25.9348  -11.6481   20.5805 N   0  0  0  0  0  0
  -22.0490  -12.8212   22.0396 N   0  0  0  0  0  0
  -25.4158  -15.1816   20.3881 N   0  0  0  0  0  0
  -31.8228  -14.6722   20.0603 O   0  0  0  0  0  0
  -21.6646   -6.8887   21.4238 O   0  0  0  0  0  0
  -22.3549  -14.5510   20.6671 O   0  0  0  0  0  0
  -24.6178  -31.8647   23.2087 C   0  0  0  0  0  0
  -25.9060  -32.4801   23.8363 C   0  0  1  0  0  0
  -27.2314  -27.4053   20.0897 C   0  0  0  0  0  0
  -25.5878  -33.8596   24.2261 N   0  0  0  0  0  0
  -23.4048  -30.4928   21.5512 C   0  0  2  0  0  0
  -24.8490  -28.9659   20.1129 C   0  0  0  0  0  0
  -22.7426  -29.4644   22.4973 C   0  0  0  0  0  0
  -18.0274  -28.1378   22.8482 C   0  0  0  0  0  0
  -24.1485  -36.7313   23.2638 C   0  0  0  0  0  0
  -25.9402  -30.8253   21.3663 C   0  0  0  0  0  0
  -26.0166  -29.4623   20.7045 C   0  0  0  0  0  0
  -27.2122  -28.6947   20.6841 C   0  0  0  0  0  0
  -26.0320  -26.9454   19.4862 C   0  0  0  0  0  0
  -24.8533  -27.7055   19.5015 C   0  0  0  0  0  0
  -23.6112  -29.8315   20.1652 C   0  0  0  0  0  0
  -25.4112  -36.3082   24.0315 C   0  0  1  0  0  0
  -20.5869  -28.3655   23.1294 C   0  0  2  0  0  0
  -20.6761  -26.9388   22.5408 C   0  0  0  0  0  0
  -19.5745  -26.6374   21.5204 C   0  0  0  0  0  0
  -18.1923  -26.7918   22.1620 C   0  0  0  0  0  0
  -19.1529  -28.8835   23.2876 C   0  0  0  0  0  0
  -18.9463  -30.1448   23.8876 C   0  0  0  0  0  0
  -17.6463  -30.6578   24.0568 C   0  0  0  0  0  0
  -25.9046  -34.9462   23.5087 C   0  0  0  0  0  0
  -16.5353  -29.9088   23.6327 C   0  0  0  0  0  0
  -16.7262  -28.6513   23.0331 C   0  0  0  0  0  0
  -26.4466  -31.6615   25.0723 C   0  0  0  0  0  0
  -25.3710  -31.3763   26.1456 C   0  0  0  0  0  0
  -27.0300  -30.3037   24.6167 C   0  0  0  0  0  0
  -27.6018  -32.4356   25.7495 C   0  0  0  0  0  0
  -27.5573  -37.1801   24.8456 C   0  0  0  0  0  0
  -21.4155  -29.3016   22.3697 N   0  0  0  0  0  0
  -26.4285  -37.3777   23.9396 N   0  0  0  0  0  0
  -24.6727  -31.0759   22.0988 N   0  0  0  0  0  0
  -23.4189  -28.8171   23.3010 O   0  0  0  0  0  0
  -28.3797  -26.6109   20.1242 O   0  0  0  0  0  0
  -26.5649  -34.8930   22.4675 O   0  0  0  0  0  0
  -23.5365  -32.1382   23.7496 O   0  0  0  0  0  0
  -29.0344  -20.2542   20.6809 C   0  0  0  0  0  0
  -29.3629  -21.4218   20.0400 C   0  0  0  0  0  0
  -30.4018  -21.0837   19.1158 C   0  0  0  0  0  0
  -30.5718  -19.7145   19.1566 C   0  0  0  0  0  0
  -31.1031  -22.0476   18.1887 C   0  0  0  0  0  0
  -31.4446  -18.8240   18.3187 C   0  0  0  0  0  0
  -27.9457  -17.5515   20.8576 C   0  0  0  0  0  0
  -28.5743  -22.7256   20.2031 C   0  0  0  0  0  0
  -29.2515  -24.1346   20.2319 C   0  0  0  0  0  0
  -30.3985  -16.9306   21.1384 C   0  0  0  0  0  0
  -28.1604  -25.1944   19.8951 C   0  0  0  0  0  0
  -29.3689  -17.7403   20.2983 C   0  0  2  0  0  0
  -29.6767  -19.1795   20.0799 N   0  0  0  0  0  0
  -30.0573  -15.4862   21.1802 N   0  0  0  0  0  0
  -31.4708  -12.3982   19.1420 H   0  0  0  0  0  0
  -30.3075  -11.3053   19.8341 H   0  0  0  0  0  0
  -29.7499  -11.8041   17.4322 H   0  0  0  0  0  0
  -29.6703  -13.5112   17.7931 H   0  0  0  0  0  0
  -27.8358  -11.3159   18.8114 H   0  0  0  0  0  0
  -27.3726  -12.6509   17.7887 H   0  0  0  0  0  0
  -27.7051  -14.2586   19.5843 H   0  0  0  0  0  0
  -28.6878  -11.9723   21.3575 H   0  0  0  0  0  0
  -28.4679  -13.6129   21.8781 H   0  0  0  0  0  0
  -25.2759   -9.5702   22.4750 H   0  0  0  0  0  0
  -24.0014   -7.4653   22.7477 H   0  0  0  0  0  0
  -21.0851   -8.8770   19.8946 H   0  0  0  0  0  0
  -22.3690  -10.9676   19.6161 H   0  0  0  0  0  0
  -21.2007   -7.6147   23.9716 H   0  0  0  0  0  0
  -21.1481   -6.0512   25.9077 H   0  0  0  0  0  0
  -22.0602   -2.7611   23.2814 H   0  0  0  0  0  0
  -22.4061  -11.9850   22.4780 H   0  0  0  0  0  0
  -21.1121  -13.1276   22.2592 H   0  0  0  0  0  0
  -24.6433  -15.8307   20.4862 H   0  0  0  0  0  0
  -26.2553  -15.6165   20.0288 H   0  0  0  0  0  0
  -26.7143  -32.5496   23.1133 H   0  0  0  0  0  0
  -24.9943  -33.9742   25.0338 H   0  0  0  0  0  0
  -22.6939  -31.3104   21.4160 H   0  0  0  0  0  0
  -23.3724  -35.9666   23.3306 H   0  0  0  0  0  0
  -24.3568  -36.8938   22.2052 H   0  0  0  0  0  0
  -23.7283  -37.6529   23.6672 H   0  0  0  0  0  0
  -26.0676  -31.5968   20.6047 H   0  0  0  0  0  0
  -26.8209  -30.8629   21.9957 H   0  0  0  0  0  0
  -28.1103  -29.0840   21.1420 H   0  0  0  0  0  0
  -25.9608  -25.9860   18.9988 H   0  0  0  0  0  0
  -23.9564  -27.3111   19.0436 H   0  0  0  0  0  0
  -23.7150  -30.6066   19.4051 H   0  0  0  0  0  0
  -22.7349  -29.2503   19.8722 H   0  0  0  0  0  0
  -25.1304  -36.1916   25.0808 H   0  0  0  0  0  0
  -20.9972  -28.3229   24.1408 H   0  0  0  0  0  0
  -20.5638  -26.2271   23.3597 H   0  0  0  0  0  0
  -21.6628  -26.7407   22.1206 H   0  0  0  0  0  0
  -19.6905  -25.6287   21.1221 H   0  0  0  0  0  0
  -19.6695  -27.3197   20.6745 H   0  0  0  0  0  0
  -17.4188  -26.6639   21.4032 H   0  0  0  0  0  0
  -18.0346  -26.0062   22.9023 H   0  0  0  0  0  0
  -19.7949  -30.7276   24.2201 H   0  0  0  0  0  0
  -17.5031  -31.6256   24.5186 H   0  0  0  0  0  0
  -15.5358  -30.2998   23.7663 H   0  0  0  0  0  0
  -15.8659  -28.0859   22.7021 H   0  0  0  0  0  0
  -24.5854  -30.7153   25.7785 H   0  0  0  0  0  0
  -24.8944  -32.2949   26.4895 H   0  0  0  0  0  0
  -25.8026  -30.8915   27.0219 H   0  0  0  0  0  0
  -26.2870  -29.6809   24.1176 H   0  0  0  0  0  0
  -27.3969  -29.7283   25.4677 H   0  0  0  0  0  0
  -27.8746  -30.4305   23.9391 H   0  0  0  0  0  0
  -27.2598  -33.3633   26.2095 H   0  0  0  0  0  0
  -28.3820  -32.6965   25.0333 H   0  0  0  0  0  0
  -28.0694  -31.8474   26.5402 H   0  0  0  0  0  0
  -28.2588  -38.0099   24.7490 H   0  0  0  0  0  0
  -28.1058  -36.2625   24.6281 H   0  0  0  0  0  0
  -27.2273  -37.1457   25.8853 H   0  0  0  0  0  0
  -20.9310  -29.8748   21.6937 H   0  0  0  0  0  0
  -26.0155  -38.2833   24.1425 H   0  0  0  0  0  0
  -28.2781  -20.0899   21.4369 H   0  0  0  0  0  0
  -31.8131  -22.6609   18.7426 H   0  0  0  0  0  0
  -30.3763  -22.7023   17.7059 H   0  0  0  0  0  0
  -31.6478  -21.5399   17.3952 H   0  0  0  0  0  0
  -32.0587  -19.3894   17.6196 H   0  0  0  0  0  0
  -30.8457  -18.1367   17.7201 H   0  0  0  0  0  0
  -32.1239  -18.2371   18.9354 H   0  0  0  0  0  0
  -27.6654  -16.5027   20.8572 H   0  0  0  0  0  0
  -27.2061  -18.0814   20.2568 H   0  0  0  0  0  0
  -27.8666  -17.9034   21.8869 H   0  0  0  0  0  0
  -27.9609  -22.6275   21.0999 H   0  0  0  0  0  0
  -27.8627  -22.7089   19.3758 H   0  0  0  0  0  0
  -30.0538  -24.2136   19.5012 H   0  0  0  0  0  0
  -29.6928  -24.3112   21.2139 H   0  0  0  0  0  0
  -30.4242  -17.3140   22.1595 H   0  0  0  0  0  0
  -31.4046  -17.0782   20.7458 H   0  0  0  0  0  0
  -27.2795  -24.8992   20.4673 H   0  0  0  0  0  0
  -27.9173  -25.0590   18.8400 H   0  0  0  0  0  0
  -29.3509  -17.2865   19.3065 H   0  0  0  0  0  0
  -29.1709  -15.2402   21.5944 H   0  0  0  0  0  0
  1 25  1  0  0  0
  1 30  2  0  0  0
  1 84  1  0  0  0
  2  3  1  0  0  0
  2 25  1  0  0  0
  2 85  1  0  0  0
  2 86  1  0  0  0
  3  4  1  0  0  0
  3 87  1  0  0  0
  3 88  1  0  0  0
  4  5  1  0  0  0
  4 89  1  0  0  0
  4 90  1  0  0  0
  5  6  1  0  0  0
  5 26  1  0  0  0
  5 91  1  0  0  0
  6 25  1  0  0  0
  6 92  1  0  0  0
  6 93  1  0  0  0
  7  8  2  0  0  0
  7 26  1  0  0  0
  7 29  1  0  0  0
  8  9  1  0  0  0
  8 22  1  0  0  0
  9 10  1  0  0  0
  9 27  2  0  0  0
 10 11  2  0  0  0
 10 15  1  0  0  0
 11 12  1  0  0  0
 11 94  1  0  0  0
 12 13  2  0  0  0
 12 95  1  0  0  0
 13 14  1  0  0  0
 13 31  1  0  0  0
 14 15  2  0  0  0
 14 96  1  0  0  0
 15 97  1  0  0  0
 16 17  2  0  0  0
 16 21  1  0  0  0
 16 31  1  0  0  0
 17 18  1  0  0  0
 17 98  1  0  0  0
 18 19  2  0  0  0
 18 99  1  0  0  0
 19 20  1  0  0  0
 19 24  1  0  0  0
 20 21  2  0  0  0
 20100  1  0  0  0
 21 23  1  0  0  0
 22 28  1  0  0  0
 22 32  2  0  0  0
 26 27  1  0  0  0
 28101  1  0  0  0
 28102  1  0  0  0
 29103  1  0  0  0
 29104  1  0  0  0
 33 34  1  0  0  0
 33 66  1  0  0  0
 33 70  2  0  0  0
 34 36  1  0  0  0
 34 59  1  0  0  0
 34105  1  0  0  0
 35 44  2  0  0  0
 35 45  1  0  0  0
 35 68  1  0  0  0
 36 56  1  0  0  0
 36106  1  0  0  0
 37 39  1  0  0  0
 37 47  1  0  0  0
 37 66  1  0  0  0
 37107  1  0  0  0
 38 43  2  0  0  0
 38 46  1  0  0  0
 38 47  1  0  0  0
 39 64  1  0  0  0
 39 67  2  0  0  0
 40 52  1  0  0  0
 40 53  2  0  0  0
 40 58  1  0  0  0
 41108  1  0  0  0
 41109  1  0  0  0
 41110  1  0  0  0
 41 48  1  0  0  0
 42 43  1  0  0  0
 42 66  1  0  0  0
 42111  1  0  0  0
 42112  1  0  0  0
 43 44  1  0  0  0
 44113  1  0  0  0
 45 46  2  0  0  0
 45114  1  0  0  0
 46115  1  0  0  0
 47116  1  0  0  0
 47117  1  0  0  0
 48 56  1  0  0  0
 48 65  1  0  0  0
 48118  1  0  0  0
 49 50  1  0  0  0
 49 53  1  0  0  0
 49 64  1  0  0  0
 49119  1  0  0  0
 50 51  1  0  0  0
 50120  1  0  0  0
 50121  1  0  0  0
 51 52  1  0  0  0
 51122  1  0  0  0
 51123  1  0  0  0
 52124  1  0  0  0
 52125  1  0  0  0
 53 54  1  0  0  0
 54 55  2  0  0  0
 54126  1  0  0  0
 55 57  1  0  0  0
 55127  1  0  0  0
 56 69  2  0  0  0
 57 58  2  0  0  0
 57128  1  0  0  0
 58129  1  0  0  0
 59 60  1  0  0  0
 59 61  1  0  0  0
 59 62  1  0  0  0
 60130  1  0  0  0
 60131  1  0  0  0
 60132  1  0  0  0
 61133  1  0  0  0
 61134  1  0  0  0
 61135  1  0  0  0
 62136  1  0  0  0
 62137  1  0  0  0
 62138  1  0  0  0
 63 65  1  0  0  0
 63139  1  0  0  0
 63140  1  0  0  0
 63141  1  0  0  0
 64142  1  0  0  0
 65143  1  0  0  0
 68 81  1  0  0  0
 71 72  2  0  0  0
 71 83  1  0  0  0
 71144  1  0  0  0
 72 73  1  0  0  0
 72 78  1  0  0  0
 73 74  2  0  0  0
 73 75  1  0  0  0
 74 76  1  0  0  0
 74 83  1  0  0  0
 75145  1  0  0  0
 75146  1  0  0  0
 75147  1  0  0  0
 76148  1  0  0  0
 76149  1  0  0  0
 76150  1  0  0  0
 77151  1  0  0  0
 77152  1  0  0  0
 77153  1  0  0  0
 77 82  1  0  0  0
 78 79  1  0  0  0
 78154  1  0  0  0
 78155  1  0  0  0
 79 81  1  0  0  0
 79156  1  0  0  0
 79157  1  0  0  0
 80 82  1  0  0  0
 80 84  1  0  0  0
 80158  1  0  0  0
 80159  1  0  0  0
 81160  1  0  0  0
 81161  1  0  0  0
 82 83  1  0  0  0
 82162  1  0  0  0
 84163  1  0  0  0
M  ISO  4   1 100  68 101  81 101  84 100
M  END
> <chiral flag>
0

> <version>
0

> <s_m_source_file>
/data/baiqing/PycharmProjects/Reinvent-master-3.2/result/LINK_invent/BTK/process_docking_weight1_custom_sum_contain_oxygen_bond_distance_aromatic_linkinvent_7_9_3/rearranged_h_0083.sdf

> <i_m_source_file_index>
71

> <r_mmod_Potential_Energy-OPLS-2005>
-93.812385559082

> <r_mmod_Stretch_Energy-OPLS-2005>
45.3371925354004

> <r_mmod_Bend_Energy-OPLS-2005>
126.357803344727

> <r_mmod_Torsional_Energy-OPLS-2005>
234.712127685547

> <r_mmod_Improper_Torsional_Energy-OPLS-2005>
5.63353824615479

> <r_mmod_Van_der_Waal_Energy-OPLS-2005>
139.926818847656

> <r_mmod_Electrostatic_Energy-OPLS-2005>
-450.942535400391

> <r_mmod_Solvation_Energy-OPLS-2005>
-211.175170898438

> <b_mmod_Minimization_Converged-OPLS-2005>
0

> <r_mmod_RMS_Derivative-OPLS-2005>
2.79920768737793

$$$$
71
                    3D
 Structure written by MMmdl.
159167  0  0  1  0            999 V2000
  -30.6632  -14.5450   20.4959 C   0  0  0  0  0  0
  -30.4266  -12.3327   19.4341 C   0  0  0  0  0  0
  -29.4997  -12.4870   18.2095 C   0  0  0  0  0  0
  -28.0178  -12.3549   18.6175 C   0  0  0  0  0  0
  -27.6538  -13.2124   19.8600 C   0  0  2  0  0  0
  -28.6978  -13.0381   20.9858 C   0  0  0  0  0  0
  -25.2573  -13.8160   20.5667 C   0  0  0  0  0  0
  -24.1835  -13.0427   20.9171 C   0  0  0  0  0  0
  -24.6396  -11.6898   20.8726 C   0  0  0  0  0  0
  -23.9064  -10.4285   21.0391 C   0  0  0  0  0  0
  -24.3620   -9.4199   21.9166 C   0  0  0  0  0  0
  -23.6289   -8.2238   22.0747 C   0  0  0  0  0  0
  -22.4270   -8.0277   21.3544 C   0  0  0  0  0  0
  -21.9905   -9.0247   20.4640 C   0  0  0  0  0  0
  -22.7235  -10.2123   20.3039 C   0  0  0  0  0  0
  -21.6856   -6.0728   22.5278 C   0  0  0  0  0  0
  -21.4014   -6.5636   23.8209 C   0  0  0  0  0  0
  -21.3650   -5.6789   24.9169 C   0  0  0  0  0  0
  -21.6042   -4.3053   24.7220 C   0  0  0  0  0  0
  -21.8822   -3.8141   23.4349 C   0  0  0  0  0  0
  -21.9197   -4.6960   22.3398 C   0  0  0  0  0  0
  -22.7857  -13.5224   21.1824 C   0  0  0  0  0  0
  -22.1669   -4.2145   21.0977 F   0  0  0  0  0  0
  -21.5617   -3.4530   25.7732 F   0  0  0  0  0  0
  -30.0185  -13.3478   20.4183 N   0  0  0  0  0  0
  -26.2994  -12.9339   20.3298 N   0  0  0  0  0  0
  -25.9324  -11.6498   20.5727 N   0  0  0  0  0  0
  -22.0510  -12.8226   22.0395 N   0  0  0  0  0  0
  -25.4300  -15.1878   20.4081 N   0  0  0  0  0  0
  -31.8331  -14.6875   20.1294 O   0  0  0  0  0  0
  -21.6644   -6.8878   21.4239 O   0  0  0  0  0  0
  -22.3531  -14.5516   20.6657 O   0  0  0  0  0  0
  -24.6196  -31.8623   23.2003 C   0  0  0  0  0  0
  -25.9063  -32.4797   23.8319 C   0  0  1  0  0  0
  -27.2378  -27.3721   20.0917 C   0  0  0  0  0  0
  -25.5917  -33.8593   24.2271 N   0  0  0  0  0  0
  -23.4129  -30.4820   21.5408 C   0  0  2  0  0  0
  -24.8598  -28.9347   20.1080 C   0  0  0  0  0  0
  -22.7455  -29.4624   22.4921 C   0  0  0  0  0  0
  -18.0285  -28.1378   22.8505 C   0  0  0  0  0  0
  -24.1496  -36.7268   23.2644 C   0  0  0  0  0  0
  -25.9478  -30.8015   21.3673 C   0  0  0  0  0  0
  -26.0193  -29.4313   20.7129 C   0  0  0  0  0  0
  -27.2060  -28.6534   20.7061 C   0  0  0  0  0  0
  -26.0558  -26.9005   19.4809 C   0  0  0  0  0  0
  -24.8738  -27.6708   19.4908 C   0  0  0  0  0  0
  -23.6256  -29.8098   20.1569 C   0  0  0  0  0  0
  -25.4126  -36.3093   24.0335 C   0  0  1  0  0  0
  -20.5883  -28.3669   23.1300 C   0  0  2  0  0  0
  -20.6786  -26.9397   22.5417 C   0  0  0  0  0  0
  -19.5761  -26.6381   21.5224 C   0  0  0  0  0  0
  -18.1931  -26.7935   22.1627 C   0  0  0  0  0  0
  -19.1541  -28.8835   23.2893 C   0  0  0  0  0  0
  -18.9471  -30.1440   23.8903 C   0  0  0  0  0  0
  -17.6477  -30.6589   24.0564 C   0  0  0  0  0  0
  -25.9056  -34.9473   23.5103 C   0  0  0  0  0  0
  -16.5361  -29.9092   23.6332 C   0  0  0  0  0  0
  -16.7274  -28.6507   23.0366 C   0  0  0  0  0  0
  -26.4470  -31.6599   25.0681 C   0  0  0  0  0  0
  -25.3737  -31.3741   26.1434 C   0  0  0  0  0  0
  -27.0300  -30.3046   24.6078 C   0  0  0  0  0  0
  -27.6031  -32.4337   25.7446 C   0  0  0  0  0  0
  -27.5583  -37.1794   24.8475 C   0  0  0  0  0  0
  -21.4176  -29.3018   22.3685 N   0  0  0  0  0  0
  -26.4301  -37.3788   23.9420 N   0  0  0  0  0  0
  -24.6784  -31.0666   22.0933 N   0  0  0  0  0  0
  -23.4198  -28.8163   23.2981 O   0  0  0  0  0  0
  -28.4054  -26.6193   20.1401 O   0  0  0  0  0  0
  -26.5623  -34.8934   22.4662 O   0  0  0  0  0  0
  -23.5375  -32.1384   23.7376 O   0  0  0  0  0  0
  -28.2331  -21.0910   22.0130 C   0  0  0  0  0  0
  -28.2120  -19.9859   22.9041 C   0  0  0  0  0  0
  -28.6431  -20.5806   20.8095 C   0  0  0  0  0  0
  -27.7677  -19.9301   24.3359 C   0  0  0  0  0  0
  -28.6966  -21.3102   19.4745 C   0  0  0  0  0  0
  -29.1376  -22.8279   19.4185 C   0  0  0  0  0  0
  -28.2360  -24.0066   19.9555 C   0  0  0  0  0  0
  -29.2873  -18.0825   20.1501 C   0  0  0  0  0  0
  -30.3177  -17.0507   20.7602 C   0  0  0  0  0  0
  -28.6066  -25.4147   19.3479 C   0  0  0  0  0  0
  -28.6137  -18.8781   22.3172 N   0  0  0  0  0  0
  -28.9035  -19.2068   21.0366 N   0  0  0  0  0  0
  -29.8955  -15.6228   20.7928 N   0  0  0  0  0  0
  -31.4698  -12.4395   19.1321 H   0  0  0  0  0  0
  -30.3420  -11.3341   19.8644 H   0  0  0  0  0  0
  -29.7477  -11.7377   17.4564 H   0  0  0  0  0  0
  -29.6662  -13.4579   17.7396 H   0  0  0  0  0  0
  -27.8263  -11.3016   18.8261 H   0  0  0  0  0  0
  -27.3738  -12.6179   17.7774 H   0  0  0  0  0  0
  -27.6818  -14.2521   19.5339 H   0  0  0  0  0  0
  -28.6880  -12.0140   21.3615 H   0  0  0  0  0  0
  -28.4638  -13.6740   21.8405 H   0  0  0  0  0  0
  -25.2770   -9.5669   22.4729 H   0  0  0  0  0  0
  -23.9995   -7.4631   22.7466 H   0  0  0  0  0  0
  -21.0836   -8.8755   19.8954 H   0  0  0  0  0  0
  -22.3690  -10.9650   19.6135 H   0  0  0  0  0  0
  -21.2019   -7.6143   23.9708 H   0  0  0  0  0  0
  -21.1463   -6.0518   25.9070 H   0  0  0  0  0  0
  -22.0615   -2.7604   23.2842 H   0  0  0  0  0  0
  -22.4147  -11.9907   22.4805 H   0  0  0  0  0  0
  -21.1108  -13.1218   22.2554 H   0  0  0  0  0  0
  -24.6673  -15.8453   20.5283 H   0  0  0  0  0  0
  -26.2803  -15.6276   20.0795 H   0  0  0  0  0  0
  -26.7124  -32.5462   23.1062 H   0  0  0  0  0  0
  -25.0135  -33.9757   25.0469 H   0  0  0  0  0  0
  -22.7042  -31.2989   21.3914 H   0  0  0  0  0  0
  -23.3786  -35.9572   23.3327 H   0  0  0  0  0  0
  -24.3606  -36.8862   22.2055 H   0  0  0  0  0  0
  -23.7211  -37.6462   23.6652 H   0  0  0  0  0  0
  -26.0788  -31.5638   20.5989 H   0  0  0  0  0  0
  -26.8332  -30.8490   21.9903 H   0  0  0  0  0  0
  -28.1022  -29.0280   21.1826 H   0  0  0  0  0  0
  -26.0277  -25.9280   19.0122 H   0  0  0  0  0  0
  -23.9796  -27.2829   19.0235 H   0  0  0  0  0  0
  -23.7417  -30.5829   19.3957 H   0  0  0  0  0  0
  -22.7499  -29.2319   19.8548 H   0  0  0  0  0  0
  -25.1304  -36.1948   25.0830 H   0  0  0  0  0  0
  -20.9966  -28.3245   24.1421 H   0  0  0  0  0  0
  -20.5714  -26.2269   23.3607 H   0  0  0  0  0  0
  -21.6651  -26.7442   22.1188 H   0  0  0  0  0  0
  -19.6943  -25.6297   21.1241 H   0  0  0  0  0  0
  -19.6730  -27.3213   20.6772 H   0  0  0  0  0  0
  -17.4218  -26.6690   21.4011 H   0  0  0  0  0  0
  -18.0306  -26.0057   22.8993 H   0  0  0  0  0  0
  -19.7948  -30.7245   24.2274 H   0  0  0  0  0  0
  -17.5043  -31.6276   24.5162 H   0  0  0  0  0  0
  -15.5369  -30.3015   23.7652 H   0  0  0  0  0  0
  -15.8667  -28.0831   22.7088 H   0  0  0  0  0  0
  -24.5904  -30.7090   25.7782 H   0  0  0  0  0  0
  -24.8931  -32.2911   26.4853 H   0  0  0  0  0  0
  -25.8086  -30.8935   27.0202 H   0  0  0  0  0  0
  -26.2835  -29.6826   24.1137 H   0  0  0  0  0  0
  -27.4084  -29.7262   25.4505 H   0  0  0  0  0  0
  -27.8666  -30.4373   23.9223 H   0  0  0  0  0  0
  -27.2636  -33.3634   26.2014 H   0  0  0  0  0  0
  -28.3840  -32.6911   25.0283 H   0  0  0  0  0  0
  -28.0704  -31.8481   26.5372 H   0  0  0  0  0  0
  -28.2604  -38.0090   24.7514 H   0  0  0  0  0  0
  -28.1064  -36.2616   24.6300 H   0  0  0  0  0  0
  -27.2292  -37.1411   25.8875 H   0  0  0  0  0  0
  -20.9347  -29.8716   21.6877 H   0  0  0  0  0  0
  -26.0186  -38.2858   24.1446 H   0  0  0  0  0  0
  -27.9278  -22.1053   22.2191 H   0  0  0  0  0  0
  -27.2010  -20.8187   24.6134 H   0  0  0  0  0  0
  -28.6185  -19.8487   25.0118 H   0  0  0  0  0  0
  -27.1215  -19.0679   24.5103 H   0  0  0  0  0  0
  -27.7249  -21.2113   18.9909 H   0  0  0  0  0  0
  -29.3791  -20.7625   18.8234 H   0  0  0  0  0  0
  -29.2893  -23.0344   18.3578 H   0  0  0  0  0  0
  -30.1311  -22.9140   19.8595 H   0  0  0  0  0  0
  -28.3317  -24.0493   21.0393 H   0  0  0  0  0  0
  -27.1850  -23.7990   19.7546 H   0  0  0  0  0  0
  -28.3721  -17.5718   19.8463 H   0  0  0  0  0  0
  -29.7047  -18.4995   19.2338 H   0  0  0  0  0  0
  -30.6010  -17.3308   21.7742 H   0  0  0  0  0  0
  -31.2428  -17.1386   20.1879 H   0  0  0  0  0  0
  -28.1894  -25.5290   18.3463 H   0  0  0  0  0  0
  -29.6858  -25.4041   19.1863 H   0  0  0  0  0  0
  -28.9424  -15.4352   21.0649 H   0  0  0  0  0  0
  1 25  1  0  0  0
  1 30  2  0  0  0
  1 83  1  0  0  0
  2  3  1  0  0  0
  2 25  1  0  0  0
  2 84  1  0  0  0
  2 85  1  0  0  0
  3  4  1  0  0  0
  3 86  1  0  0  0
  3 87  1  0  0  0
  4  5  1  0  0  0
  4 88  1  0  0  0
  4 89  1  0  0  0
  5  6  1  0  0  0
  5 26  1  0  0  0
  5 90  1  0  0  0
  6 25  1  0  0  0
  6 91  1  0  0  0
  6 92  1  0  0  0
  7  8  2  0  0  0
  7 26  1  0  0  0
  7 29  1  0  0  0
  8  9  1  0  0  0
  8 22  1  0  0  0
  9 10  1  0  0  0
  9 27  2  0  0  0
 10 11  2  0  0  0
 10 15  1  0  0  0
 11 12  1  0  0  0
 11 93  1  0  0  0
 12 13  2  0  0  0
 12 94  1  0  0  0
 13 14  1  0  0  0
 13 31  1  0  0  0
 14 15  2  0  0  0
 14 95  1  0  0  0
 15 96  1  0  0  0
 16 17  2  0  0  0
 16 21  1  0  0  0
 16 31  1  0  0  0
 17 18  1  0  0  0
 17 97  1  0  0  0
 18 19  2  0  0  0
 18 98  1  0  0  0
 19 20  1  0  0  0
 19 24  1  0  0  0
 20 21  2  0  0  0
 20 99  1  0  0  0
 21 23  1  0  0  0
 22 28  1  0  0  0
 22 32  2  0  0  0
 26 27  1  0  0  0
 28100  1  0  0  0
 28101  1  0  0  0
 29102  1  0  0  0
 29103  1  0  0  0
 33 34  1  0  0  0
 33 66  1  0  0  0
 33 70  2  0  0  0
 34 36  1  0  0  0
 34 59  1  0  0  0
 34104  1  0  0  0
 35 44  2  0  0  0
 35 45  1  0  0  0
 35 68  1  0  0  0
 36 56  1  0  0  0
 36105  1  0  0  0
 37 39  1  0  0  0
 37 47  1  0  0  0
 37 66  1  0  0  0
 37106  1  0  0  0
 38 43  2  0  0  0
 38 46  1  0  0  0
 38 47  1  0  0  0
 39 64  1  0  0  0
 39 67  2  0  0  0
 40 52  1  0  0  0
 40 53  2  0  0  0
 40 58  1  0  0  0
 41107  1  0  0  0
 41108  1  0  0  0
 41109  1  0  0  0
 41 48  1  0  0  0
 42 43  1  0  0  0
 42 66  1  0  0  0
 42110  1  0  0  0
 42111  1  0  0  0
 43 44  1  0  0  0
 44112  1  0  0  0
 45 46  2  0  0  0
 45113  1  0  0  0
 46114  1  0  0  0
 47115  1  0  0  0
 47116  1  0  0  0
 48 56  1  0  0  0
 48 65  1  0  0  0
 48117  1  0  0  0
 49 50  1  0  0  0
 49 53  1  0  0  0
 49 64  1  0  0  0
 49118  1  0  0  0
 50 51  1  0  0  0
 50119  1  0  0  0
 50120  1  0  0  0
 51 52  1  0  0  0
 51121  1  0  0  0
 51122  1  0  0  0
 52123  1  0  0  0
 52124  1  0  0  0
 53 54  1  0  0  0
 54 55  2  0  0  0
 54125  1  0  0  0
 55 57  1  0  0  0
 55126  1  0  0  0
 56 69  2  0  0  0
 57 58  2  0  0  0
 57127  1  0  0  0
 58128  1  0  0  0
 59 60  1  0  0  0
 59 61  1  0  0  0
 59 62  1  0  0  0
 60129  1  0  0  0
 60130  1  0  0  0
 60131  1  0  0  0
 61132  1  0  0  0
 61133  1  0  0  0
 61134  1  0  0  0
 62135  1  0  0  0
 62136  1  0  0  0
 62137  1  0  0  0
 63 65  1  0  0  0
 63138  1  0  0  0
 63139  1  0  0  0
 63140  1  0  0  0
 64141  1  0  0  0
 65142  1  0  0  0
 68 80  1  0  0  0
 71 72  1  0  0  0
 71 73  2  0  0  0
 71143  1  0  0  0
 72 74  1  0  0  0
 72 81  2  0  0  0
 73 75  1  0  0  0
 73 82  1  0  0  0
 74144  1  0  0  0
 74145  1  0  0  0
 74146  1  0  0  0
 75 76  1  0  0  0
 75147  1  0  0  0
 75148  1  0  0  0
 76 77  1  0  0  0
 76149  1  0  0  0
 76150  1  0  0  0
 77 80  1  0  0  0
 77151  1  0  0  0
 77152  1  0  0  0
 78 79  1  0  0  0
 78 82  1  0  0  0
 78153  1  0  0  0
 78154  1  0  0  0
 79 83  1  0  0  0
 79155  1  0  0  0
 79156  1  0  0  0
 80157  1  0  0  0
 80158  1  0  0  0
 81 82  1  0  0  0
 83159  1  0  0  0
M  ISO  4   1 100  68 101  80 101  83 100
M  END
> <chiral flag>
0

> <version>
0

> <s_m_source_file>
/data/baiqing/PycharmProjects/Reinvent-master-3.2/result/LINK_invent/BTK/process_docking_weight1_custom_sum_contain_oxygen_bond_distance_aromatic_linkinvent_7_9_3/rearranged_h_0083.sdf

> <i_m_source_file_index>
72

> <r_mmod_Potential_Energy-OPLS-2005>
-50.1230964660645

> <r_mmod_Stretch_Energy-OPLS-2005>
55.3631706237793

> <r_mmod_Bend_Energy-OPLS-2005>
138.578598022461

> <r_mmod_Torsional_Energy-OPLS-2005>
223.689056396484

> <r_mmod_Improper_Torsional_Energy-OPLS-2005>
5.25068712234497

> <r_mmod_Van_der_Waal_Energy-OPLS-2005>
120.364135742188

> <r_mmod_Electrostatic_Energy-OPLS-2005>
-404.029968261719

> <r_mmod_Solvation_Energy-OPLS-2005>
-216.167251586914

> <b_mmod_Minimization_Converged-OPLS-2005>
0

> <r_mmod_RMS_Derivative-OPLS-2005>
2.70731353759766

$$$$
72
                    3D
 Structure written by MMmdl.
161169  0  0  1  0            999 V2000
  -30.6573  -14.5417   20.5140 C   0  0  0  0  0  0
  -30.4283  -12.3352   19.4305 C   0  0  0  0  0  0
  -29.4952  -12.5006   18.2106 C   0  0  0  0  0  0
  -28.0174  -12.3613   18.6263 C   0  0  0  0  0  0
  -27.6596  -13.2075   19.8781 C   0  0  2  0  0  0
  -28.7078  -13.0160   20.9995 C   0  0  0  0  0  0
  -25.2598  -13.8154   20.5765 C   0  0  0  0  0  0
  -24.1835  -13.0429   20.9223 C   0  0  0  0  0  0
  -24.6390  -11.6903   20.8777 C   0  0  0  0  0  0
  -23.9054  -10.4274   21.0431 C   0  0  0  0  0  0
  -24.3604   -9.4178   21.9209 C   0  0  0  0  0  0
  -23.6287   -8.2213   22.0759 C   0  0  0  0  0  0
  -22.4264   -8.0264   21.3551 C   0  0  0  0  0  0
  -21.9907   -9.0234   20.4655 C   0  0  0  0  0  0
  -22.7235  -10.2125   20.3077 C   0  0  0  0  0  0
  -21.6842   -6.0723   22.5289 C   0  0  0  0  0  0
  -21.4014   -6.5631   23.8217 C   0  0  0  0  0  0
  -21.3664   -5.6794   24.9177 C   0  0  0  0  0  0
  -21.6042   -4.3052   24.7239 C   0  0  0  0  0  0
  -21.8815   -3.8135   23.4356 C   0  0  0  0  0  0
  -21.9200   -4.6952   22.3409 C   0  0  0  0  0  0
  -22.7866  -13.5232   21.1890 C   0  0  0  0  0  0
  -22.1668   -4.2133   21.0986 F   0  0  0  0  0  0
  -21.5634   -3.4542   25.7747 F   0  0  0  0  0  0
  -30.0284  -13.3342   20.4347 N   0  0  0  0  0  0
  -26.3022  -12.9326   20.3423 N   0  0  0  0  0  0
  -25.9319  -11.6482   20.5798 N   0  0  0  0  0  0
  -22.0490  -12.8210   22.0425 N   0  0  0  0  0  0
  -25.4338  -15.1867   20.4251 N   0  0  0  0  0  0
  -31.8051  -14.7211   20.0982 O   0  0  0  0  0  0
  -21.6631   -6.8865   21.4248 O   0  0  0  0  0  0
  -22.3553  -14.5542   20.6761 O   0  0  0  0  0  0
  -24.6206  -31.8644   23.2079 C   0  0  0  0  0  0
  -25.9096  -32.4795   23.8379 C   0  0  1  0  0  0
  -27.2253  -27.3782   20.1029 C   0  0  0  0  0  0
  -25.5926  -33.8588   24.2316 N   0  0  0  0  0  0
  -23.4082  -30.4874   21.5498 C   0  0  2  0  0  0
  -24.8508  -28.9460   20.1104 C   0  0  0  0  0  0
  -22.7438  -29.4639   22.4985 C   0  0  0  0  0  0
  -18.0271  -28.1367   22.8500 C   0  0  0  0  0  0
  -24.1478  -36.7295   23.2643 C   0  0  0  0  0  0
  -25.9419  -30.8116   21.3686 C   0  0  0  0  0  0
  -26.0129  -29.4426   20.7124 C   0  0  0  0  0  0
  -27.1979  -28.6655   20.7040 C   0  0  0  0  0  0
  -26.0446  -26.9139   19.4806 C   0  0  0  0  0  0
  -24.8650  -27.6846   19.4905 C   0  0  0  0  0  0
  -23.6162  -29.8209   20.1633 C   0  0  0  0  0  0
  -25.4098  -36.3092   24.0349 C   0  0  1  0  0  0
  -20.5870  -28.3662   23.1317 C   0  0  2  0  0  0
  -20.6760  -26.9396   22.5425 C   0  0  0  0  0  0
  -19.5739  -26.6381   21.5217 C   0  0  0  0  0  0
  -18.1912  -26.7920   22.1622 C   0  0  0  0  0  0
  -19.1526  -28.8829   23.2901 C   0  0  0  0  0  0
  -18.9446  -30.1429   23.8924 C   0  0  0  0  0  0
  -17.6449  -30.6582   24.0552 C   0  0  0  0  0  0
  -25.9032  -34.9462   23.5128 C   0  0  0  0  0  0
  -16.5340  -29.9082   23.6321 C   0  0  0  0  0  0
  -16.7257  -28.6485   23.0369 C   0  0  0  0  0  0
  -26.4506  -31.6594   25.0732 C   0  0  0  0  0  0
  -25.3765  -31.3723   26.1485 C   0  0  0  0  0  0
  -27.0354  -30.3030   24.6148 C   0  0  0  0  0  0
  -27.6066  -32.4337   25.7489 C   0  0  0  0  0  0
  -27.5575  -37.1798   24.8468 C   0  0  0  0  0  0
  -21.4161  -29.3024   22.3721 N   0  0  0  0  0  0
  -26.4286  -37.3779   23.9418 N   0  0  0  0  0  0
  -24.6752  -31.0714   22.0994 N   0  0  0  0  0  0
  -23.4189  -28.8179   23.3046 O   0  0  0  0  0  0
  -28.3936  -26.6290   20.1603 O   0  0  0  0  0  0
  -26.5591  -34.8926   22.4689 O   0  0  0  0  0  0
  -23.5404  -32.1414   23.7466 O   0  0  0  0  0  0
  -25.9413  -21.9505   21.3214 C   0  0  0  0  0  0
  -24.9422  -21.0084   21.5941 C   0  0  0  0  0  0
  -27.2092  -21.5436   20.8289 C   0  0  0  0  0  0
  -25.2192  -19.6603   21.3727 C   0  0  0  0  0  0
  -27.4365  -20.1215   20.7473 C   0  0  0  0  0  0
  -24.1579  -18.5998   21.5827 C   0  0  0  0  0  0
  -28.2108  -22.6437   20.3652 C   0  0  0  0  0  0
  -28.7719  -19.4071   20.3930 C   0  0  0  0  0  0
  -27.7563  -24.1554   20.5427 C   0  0  0  0  0  0
  -28.8052  -17.8748   20.7978 C   0  0  0  0  0  0
  -30.1086  -17.0319   20.6185 C   0  0  0  0  0  0
  -28.4750  -25.2530   19.6896 C   0  0  0  0  0  0
  -26.4296  -19.2413   20.9703 N   0  0  0  0  0  0
  -29.8687  -15.5858   20.8639 N   0  0  0  0  0  0
  -31.4715  -12.4446   19.1273 H   0  0  0  0  0  0
  -30.3406  -11.3295   19.8432 H   0  0  0  0  0  0
  -29.7354  -11.7574   17.4480 H   0  0  0  0  0  0
  -29.6595  -13.4756   17.7498 H   0  0  0  0  0  0
  -27.8305  -11.3070   18.8288 H   0  0  0  0  0  0
  -27.3642  -12.6274   17.7942 H   0  0  0  0  0  0
  -27.6945  -14.2520   19.5709 H   0  0  0  0  0  0
  -28.6985  -11.9876   21.3630 H   0  0  0  0  0  0
  -28.4761  -13.6377   21.8668 H   0  0  0  0  0  0
  -25.2732   -9.5649   22.4806 H   0  0  0  0  0  0
  -23.9987   -7.4601   22.7482 H   0  0  0  0  0  0
  -21.0828   -8.8760   19.8977 H   0  0  0  0  0  0
  -22.3685  -10.9666   19.6193 H   0  0  0  0  0  0
  -21.1998   -7.6138   23.9704 H   0  0  0  0  0  0
  -21.1510   -6.0535   25.9085 H   0  0  0  0  0  0
  -22.0600   -2.7592   23.2871 H   0  0  0  0  0  0
  -22.4071  -11.9844   22.4784 H   0  0  0  0  0  0
  -21.1108  -13.1266   22.2588 H   0  0  0  0  0  0
  -24.6781  -15.8439   20.5734 H   0  0  0  0  0  0
  -26.2995  -15.6349   20.1579 H   0  0  0  0  0  0
  -26.7156  -32.5471   23.1119 H   0  0  0  0  0  0
  -25.0109  -33.9724   25.0487 H   0  0  0  0  0  0
  -22.6990  -31.3059   21.4118 H   0  0  0  0  0  0
  -23.3742  -35.9624   23.3317 H   0  0  0  0  0  0
  -24.3566  -36.8900   22.2053 H   0  0  0  0  0  0
  -23.7225  -37.6502   23.6649 H   0  0  0  0  0  0
  -26.0631  -31.5763   20.6008 H   0  0  0  0  0  0
  -26.8279  -30.8608   21.9902 H   0  0  0  0  0  0
  -28.0944  -29.0416   21.1769 H   0  0  0  0  0  0
  -26.0105  -25.9545   18.9880 H   0  0  0  0  0  0
  -23.9723  -27.2995   19.0175 H   0  0  0  0  0  0
  -23.7250  -30.5976   19.4056 H   0  0  0  0  0  0
  -22.7360  -29.2477   19.8676 H   0  0  0  0  0  0
  -25.1264  -36.1954   25.0841 H   0  0  0  0  0  0
  -20.9954  -28.3234   24.1440 H   0  0  0  0  0  0
  -20.5650  -26.2273   23.3612 H   0  0  0  0  0  0
  -21.6628  -26.7429   22.1216 H   0  0  0  0  0  0
  -19.6905  -25.6292   21.1233 H   0  0  0  0  0  0
  -19.6683  -27.3209   20.6756 H   0  0  0  0  0  0
  -17.4188  -26.6692   21.4014 H   0  0  0  0  0  0
  -18.0299  -26.0041   22.8991 H   0  0  0  0  0  0
  -19.7924  -30.7231   24.2335 H   0  0  0  0  0  0
  -17.5002  -31.6276   24.5136 H   0  0  0  0  0  0
  -15.5341  -30.2990   23.7621 H   0  0  0  0  0  0
  -15.8657  -28.0794   22.7112 H   0  0  0  0  0  0
  -24.5915  -30.7092   25.7843 H   0  0  0  0  0  0
  -24.8984  -32.2889   26.4951 H   0  0  0  0  0  0
  -25.8117  -30.8883   27.0235 H   0  0  0  0  0  0
  -26.2933  -29.6763   24.1191 H   0  0  0  0  0  0
  -27.4105  -29.7293   25.4632 H   0  0  0  0  0  0
  -27.8764  -30.4342   23.9333 H   0  0  0  0  0  0
  -27.2679  -33.3629   26.2079 H   0  0  0  0  0  0
  -28.3863  -32.6918   25.0312 H   0  0  0  0  0  0
  -28.0751  -31.8462   26.5393 H   0  0  0  0  0  0
  -28.2595  -38.0088   24.7497 H   0  0  0  0  0  0
  -28.1066  -36.2620   24.6306 H   0  0  0  0  0  0
  -27.2299  -37.1469   25.8873 H   0  0  0  0  0  0
  -20.9351  -29.8741   21.6923 H   0  0  0  0  0  0
  -26.0176  -38.2858   24.1419 H   0  0  0  0  0  0
  -25.6796  -22.9820   21.4862 H   0  0  0  0  0  0
  -23.9697  -21.3240   21.9458 H   0  0  0  0  0  0
  -23.3424  -18.9862   22.1954 H   0  0  0  0  0  0
  -24.5691  -17.7266   22.0881 H   0  0  0  0  0  0
  -23.7415  -18.2849   20.6246 H   0  0  0  0  0  0
  -28.4044  -22.4606   19.3066 H   0  0  0  0  0  0
  -29.1644  -22.4909   20.8740 H   0  0  0  0  0  0
  -29.5876  -19.9277   20.8942 H   0  0  0  0  0  0
  -28.9424  -19.5104   19.3210 H   0  0  0  0  0  0
  -27.8154  -24.4158   21.5998 H   0  0  0  0  0  0
  -26.7131  -24.2560   20.2566 H   0  0  0  0  0  0
  -28.0225  -17.3682   20.2308 H   0  0  0  0  0  0
  -28.5075  -17.8000   21.8443 H   0  0  0  0  0  0
  -30.8868  -17.3888   21.2955 H   0  0  0  0  0  0
  -30.4921  -17.1628   19.6047 H   0  0  0  0  0  0
  -28.1548  -25.1931   18.6491 H   0  0  0  0  0  0
  -29.5387  -25.0178   19.6679 H   0  0  0  0  0  0
  -28.9447  -15.3332   21.1809 H   0  0  0  0  0  0
  1 25  1  0  0  0
  1 30  2  0  0  0
  1 84  1  0  0  0
  2  3  1  0  0  0
  2 25  1  0  0  0
  2 85  1  0  0  0
  2 86  1  0  0  0
  3  4  1  0  0  0
  3 87  1  0  0  0
  3 88  1  0  0  0
  4  5  1  0  0  0
  4 89  1  0  0  0
  4 90  1  0  0  0
  5  6  1  0  0  0
  5 26  1  0  0  0
  5 91  1  0  0  0
  6 25  1  0  0  0
  6 92  1  0  0  0
  6 93  1  0  0  0
  7  8  2  0  0  0
  7 26  1  0  0  0
  7 29  1  0  0  0
  8  9  1  0  0  0
  8 22  1  0  0  0
  9 10  1  0  0  0
  9 27  2  0  0  0
 10 11  2  0  0  0
 10 15  1  0  0  0
 11 12  1  0  0  0
 11 94  1  0  0  0
 12 13  2  0  0  0
 12 95  1  0  0  0
 13 14  1  0  0  0
 13 31  1  0  0  0
 14 15  2  0  0  0
 14 96  1  0  0  0
 15 97  1  0  0  0
 16 17  2  0  0  0
 16 21  1  0  0  0
 16 31  1  0  0  0
 17 18  1  0  0  0
 17 98  1  0  0  0
 18 19  2  0  0  0
 18 99  1  0  0  0
 19 20  1  0  0  0
 19 24  1  0  0  0
 20 21  2  0  0  0
 20100  1  0  0  0
 21 23  1  0  0  0
 22 28  1  0  0  0
 22 32  2  0  0  0
 26 27  1  0  0  0
 28101  1  0  0  0
 28102  1  0  0  0
 29103  1  0  0  0
 29104  1  0  0  0
 33 34  1  0  0  0
 33 66  1  0  0  0
 33 70  2  0  0  0
 34 36  1  0  0  0
 34 59  1  0  0  0
 34105  1  0  0  0
 35 44  2  0  0  0
 35 45  1  0  0  0
 35 68  1  0  0  0
 36 56  1  0  0  0
 36106  1  0  0  0
 37 39  1  0  0  0
 37 47  1  0  0  0
 37 66  1  0  0  0
 37107  1  0  0  0
 38 43  2  0  0  0
 38 46  1  0  0  0
 38 47  1  0  0  0
 39 64  1  0  0  0
 39 67  2  0  0  0
 40 52  1  0  0  0
 40 53  2  0  0  0
 40 58  1  0  0  0
 41108  1  0  0  0
 41109  1  0  0  0
 41110  1  0  0  0
 41 48  1  0  0  0
 42 43  1  0  0  0
 42 66  1  0  0  0
 42111  1  0  0  0
 42112  1  0  0  0
 43 44  1  0  0  0
 44113  1  0  0  0
 45 46  2  0  0  0
 45114  1  0  0  0
 46115  1  0  0  0
 47116  1  0  0  0
 47117  1  0  0  0
 48 56  1  0  0  0
 48 65  1  0  0  0
 48118  1  0  0  0
 49 50  1  0  0  0
 49 53  1  0  0  0
 49 64  1  0  0  0
 49119  1  0  0  0
 50 51  1  0  0  0
 50120  1  0  0  0
 50121  1  0  0  0
 51 52  1  0  0  0
 51122  1  0  0  0
 51123  1  0  0  0
 52124  1  0  0  0
 52125  1  0  0  0
 53 54  1  0  0  0
 54 55  2  0  0  0
 54126  1  0  0  0
 55 57  1  0  0  0
 55127  1  0  0  0
 56 69  2  0  0  0
 57 58  2  0  0  0
 57128  1  0  0  0
 58129  1  0  0  0
 59 60  1  0  0  0
 59 61  1  0  0  0
 59 62  1  0  0  0
 60130  1  0  0  0
 60131  1  0  0  0
 60132  1  0  0  0
 61133  1  0  0  0
 61134  1  0  0  0
 61135  1  0  0  0
 62136  1  0  0  0
 62137  1  0  0  0
 62138  1  0  0  0
 63 65  1  0  0  0
 63139  1  0  0  0
 63140  1  0  0  0
 63141  1  0  0  0
 64142  1  0  0  0
 65143  1  0  0  0
 68 82  1  0  0  0
 71 72  2  0  0  0
 71 73  1  0  0  0
 71144  1  0  0  0
 72 74  1  0  0  0
 72145  1  0  0  0
 73 75  2  0  0  0
 73 77  1  0  0  0
 74 76  1  0  0  0
 74 83  2  0  0  0
 75 78  1  0  0  0
 75 83  1  0  0  0
 76146  1  0  0  0
 76147  1  0  0  0
 76148  1  0  0  0
 77 79  1  0  0  0
 77149  1  0  0  0
 77150  1  0  0  0
 78 80  1  0  0  0
 78151  1  0  0  0
 78152  1  0  0  0
 79 82  1  0  0  0
 79153  1  0  0  0
 79154  1  0  0  0
 80 81  1  0  0  0
 80155  1  0  0  0
 80156  1  0  0  0
 81 84  1  0  0  0
 81157  1  0  0  0
 81158  1  0  0  0
 82159  1  0  0  0
 82160  1  0  0  0
 84161  1  0  0  0
M  ISO  4   1 100  68 101  82 101  84 100
M  END
> <chiral flag>
0

> <version>
0

> <s_m_source_file>
/data/baiqing/PycharmProjects/Reinvent-master-3.2/result/LINK_invent/BTK/process_docking_weight1_custom_sum_contain_oxygen_bond_distance_aromatic_linkinvent_7_9_3/rearranged_h_0083.sdf

> <i_m_source_file_index>
73

> <r_mmod_Potential_Energy-OPLS-2005>
-182.748977661133

> <r_mmod_Stretch_Energy-OPLS-2005>
58.7610549926758

> <r_mmod_Bend_Energy-OPLS-2005>
130.468078613281

> <r_mmod_Torsional_Energy-OPLS-2005>
203.475524902344

> <r_mmod_Improper_Torsional_Energy-OPLS-2005>
5.39250326156616

> <r_mmod_Van_der_Waal_Energy-OPLS-2005>
151.672561645508

> <r_mmod_Electrostatic_Energy-OPLS-2005>
-542.644104003906

> <r_mmod_Solvation_Energy-OPLS-2005>
-214.008590698242

> <b_mmod_Minimization_Converged-OPLS-2005>
0

> <r_mmod_RMS_Derivative-OPLS-2005>
2.43992877006531

$$$$
73
                    3D
 Structure written by MMmdl.
152160  0  0  1  0            999 V2000
  -30.4722  -15.1980   20.3641 C   0  0  0  0  0  0
  -30.4389  -12.7425   19.5403 C   0  0  0  0  0  0
  -29.5394  -12.5763   18.2893 C   0  0  0  0  0  0
  -28.0790  -12.3206   18.6996 C   0  0  0  0  0  0
  -27.6192  -13.2779   19.8267 C   0  0  2  0  0  0
  -28.6521  -13.4237   20.9643 C   0  0  0  0  0  0
  -25.2430  -13.8269   20.5742 C   0  0  0  0  0  0
  -24.1775  -13.0462   20.9234 C   0  0  0  0  0  0
  -24.6425  -11.6955   20.8750 C   0  0  0  0  0  0
  -23.9116  -10.4311   21.0403 C   0  0  0  0  0  0
  -24.3649   -9.4215   21.9182 C   0  0  0  0  0  0
  -23.6322   -8.2250   22.0748 C   0  0  0  0  0  0
  -22.4304   -8.0283   21.3542 C   0  0  0  0  0  0
  -21.9953   -9.0261   20.4641 C   0  0  0  0  0  0
  -22.7283  -10.2148   20.3055 C   0  0  0  0  0  0
  -21.6871   -6.0735   22.5276 C   0  0  0  0  0  0
  -21.4022   -6.5638   23.8207 C   0  0  0  0  0  0
  -21.3668   -5.6796   24.9172 C   0  0  0  0  0  0
  -21.6049   -4.3059   24.7226 C   0  0  0  0  0  0
  -21.8822   -3.8144   23.4348 C   0  0  0  0  0  0
  -21.9202   -4.6960   22.3403 C   0  0  0  0  0  0
  -22.7791  -13.5198   21.1892 C   0  0  0  0  0  0
  -22.1669   -4.2142   21.0985 F   0  0  0  0  0  0
  -21.5636   -3.4545   25.7740 F   0  0  0  0  0  0
  -29.9105  -13.8912   20.3618 N   0  0  0  0  0  0
  -26.2859  -12.9552   20.3205 N   0  0  0  0  0  0
  -25.9368  -11.6653   20.5705 N   0  0  0  0  0  0
  -22.0457  -12.8164   22.0434 N   0  0  0  0  0  0
  -25.4130  -15.2002   20.4218 N   0  0  0  0  0  0
  -31.6871  -15.1447   20.1199 O   0  0  0  0  0  0
  -21.6662   -6.8882   21.4239 O   0  0  0  0  0  0
  -22.3466  -14.5505   20.6751 O   0  0  0  0  0  0
  -24.6579  -31.8272   23.1732 C   0  0  0  0  0  0
  -25.9281  -32.4607   23.8181 C   0  0  1  0  0  0
  -27.2118  -26.9702   20.1780 C   0  0  0  0  0  0
  -25.5969  -33.8423   24.2090 N   0  0  0  0  0  0
  -23.4698  -30.4395   21.5238 C   0  0  2  0  0  0
  -24.9218  -28.8342   20.1137 C   0  0  0  0  0  0
  -22.7636  -29.4454   22.4811 C   0  0  0  0  0  0
  -18.0314  -28.1398   22.8469 C   0  0  0  0  0  0
  -24.1507  -36.7215   23.2642 C   0  0  0  0  0  0
  -26.0365  -30.6479   21.3963 C   0  0  0  0  0  0
  -26.1047  -29.2415   20.7419 C   0  0  0  0  0  0
  -27.2477  -28.3299   20.7488 C   0  0  0  0  0  0
  -26.0003  -26.7036   19.5035 C   0  0  0  0  0  0
  -24.8915  -27.5850   19.4753 C   0  0  0  0  0  0
  -23.7048  -29.7541   20.1500 C   0  0  0  0  0  0
  -25.4146  -36.2976   24.0295 C   0  0  1  0  0  0
  -20.5933  -28.3732   23.1209 C   0  0  2  0  0  0
  -20.6793  -26.9423   22.5404 C   0  0  0  0  0  0
  -19.5773  -26.6376   21.5208 C   0  0  0  0  0  0
  -18.1949  -26.7935   22.1615 C   0  0  0  0  0  0
  -19.1573  -28.8889   23.2825 C   0  0  0  0  0  0
  -18.9478  -30.1475   23.8861 C   0  0  0  0  0  0
  -17.6471  -30.6589   24.0550 C   0  0  0  0  0  0
  -25.9102  -34.9359   23.5011 C   0  0  0  0  0  0
  -16.5363  -29.9067   23.6345 C   0  0  0  0  0  0
  -16.7293  -28.6488   23.0365 C   0  0  0  0  0  0
  -26.4549  -31.6526   25.0689 C   0  0  0  0  0  0
  -25.3685  -31.3759   26.1349 C   0  0  0  0  0  0
  -27.0435  -30.2904   24.6383 C   0  0  0  0  0  0
  -27.6057  -32.4319   25.7485 C   0  0  0  0  0  0
  -27.5582  -37.1764   24.8459 C   0  0  0  0  0  0
  -21.4311  -29.3028   22.3564 N   0  0  0  0  0  0
  -26.4296  -37.3704   23.9394 N   0  0  0  0  0  0
  -24.7427  -30.9971   22.0848 N   0  0  0  0  0  0
  -23.4210  -28.8024   23.3032 O   0  0  0  0  0  0
  -28.2258  -25.8930   20.2412 O   0  0  0  0  0  0
  -26.5703  -34.8884   22.4601 O   0  0  0  0  0  0
  -23.5654  -32.1222   23.6857 O   0  0  0  0  0  0
  -31.2383  -20.6762   20.1466 C   0  0  0  0  0  0
  -30.0590  -19.8951   20.2850 C   0  0  0  0  0  0
  -32.5178  -20.1266   20.0477 C   0  0  0  0  0  0
  -30.3800  -18.3398   20.3326 C   0  0  0  0  0  0
  -33.7369  -21.0143   19.8804 C   0  0  0  0  0  0
  -28.8039  -21.0702   20.3243 C   0  0  0  0  0  0
  -29.6833  -16.7709   20.4918 C   0  0  0  0  0  0
  -29.0133  -22.8588   20.2649 C   0  0  0  0  0  0
  -27.9508  -24.2838   20.1820 C   0  0  0  0  0  0
  -32.7279  -18.8096   20.0942 N   0  0  0  0  0  0
  -31.6931  -17.9930   20.2390 N   0  0  0  0  0  0
  -31.4697  -12.9034   19.2247 H   0  0  0  0  0  0
  -30.4573  -11.8225   20.1281 H   0  0  0  0  0  0
  -29.9027  -11.7635   17.6596 H   0  0  0  0  0  0
  -29.5962  -13.4833   17.6847 H   0  0  0  0  0  0
  -28.0069  -11.2878   19.0399 H   0  0  0  0  0  0
  -27.4182  -12.4047   17.8358 H   0  0  0  0  0  0
  -27.5466  -14.2562   19.3499 H   0  0  0  0  0  0
  -28.7872  -12.4860   21.5044 H   0  0  0  0  0  0
  -28.3053  -14.1541   21.6974 H   0  0  0  0  0  0
  -25.2792   -9.5695   22.4761 H   0  0  0  0  0  0
  -24.0033   -7.4647   22.7475 H   0  0  0  0  0  0
  -21.0884   -8.8787   19.8945 H   0  0  0  0  0  0
  -22.3733  -10.9689   19.6166 H   0  0  0  0  0  0
  -21.2006   -7.6144   23.9704 H   0  0  0  0  0  0
  -21.1495   -6.0527   25.9075 H   0  0  0  0  0  0
  -22.0594   -2.7603   23.2852 H   0  0  0  0  0  0
  -22.4114  -11.9824   22.4801 H   0  0  0  0  0  0
  -21.1061  -13.1152   22.2642 H   0  0  0  0  0  0
  -24.6558  -15.8627   20.5432 H   0  0  0  0  0  0
  -26.2687  -15.6336   20.1031 H   0  0  0  0  0  0
  -26.7342  -32.5167   23.0888 H   0  0  0  0  0  0
  -25.0065  -33.9505   25.0205 H   0  0  0  0  0  0
  -22.7807  -31.2690   21.3541 H   0  0  0  0  0  0
  -23.3779  -35.9534   23.3274 H   0  0  0  0  0  0
  -24.3585  -36.8893   22.2062 H   0  0  0  0  0  0
  -23.7263  -37.6395   23.6715 H   0  0  0  0  0  0
  -26.2092  -31.3905   20.6165 H   0  0  0  0  0  0
  -26.8995  -30.7059   22.0472 H   0  0  0  0  0  0
  -28.1463  -28.6362   21.2659 H   0  0  0  0  0  0
  -25.8755  -25.7503   19.0106 H   0  0  0  0  0  0
  -23.9912  -27.2686   18.9666 H   0  0  0  0  0  0
  -23.8479  -30.5182   19.3859 H   0  0  0  0  0  0
  -22.8181  -29.1968   19.8420 H   0  0  0  0  0  0
  -25.1350  -36.1774   25.0789 H   0  0  0  0  0  0
  -21.0012  -28.3329   24.1336 H   0  0  0  0  0  0
  -20.5672  -26.2339   23.3631 H   0  0  0  0  0  0
  -21.6657  -26.7408   22.1211 H   0  0  0  0  0  0
  -19.6929  -25.6275   21.1261 H   0  0  0  0  0  0
  -19.6719  -27.3165   20.6724 H   0  0  0  0  0  0
  -17.4219  -26.6672   21.4021 H   0  0  0  0  0  0
  -18.0350  -26.0087   22.9026 H   0  0  0  0  0  0
  -19.7946  -30.7300   24.2227 H   0  0  0  0  0  0
  -17.5013  -31.6275   24.5138 H   0  0  0  0  0  0
  -15.5355  -30.2945   23.7695 H   0  0  0  0  0  0
  -15.8696  -28.0780   22.7115 H   0  0  0  0  0  0
  -24.5875  -30.7113   25.7631 H   0  0  0  0  0  0
  -24.8866  -32.2954   26.4681 H   0  0  0  0  0  0
  -25.7919  -30.8967   27.0185 H   0  0  0  0  0  0
  -26.3084  -29.6597   24.1378 H   0  0  0  0  0  0
  -27.3966  -29.7256   25.5015 H   0  0  0  0  0  0
  -27.9027  -30.4096   23.9787 H   0  0  0  0  0  0
  -27.2642  -33.3648   26.1985 H   0  0  0  0  0  0
  -28.3913  -32.6835   25.0346 H   0  0  0  0  0  0
  -28.0682  -31.8499   26.5466 H   0  0  0  0  0  0
  -28.2569  -38.0089   24.7514 H   0  0  0  0  0  0
  -28.1116  -36.2612   24.6288 H   0  0  0  0  0  0
  -27.2292  -37.1408   25.8860 H   0  0  0  0  0  0
  -20.9543  -29.8717   21.6707 H   0  0  0  0  0  0
  -26.0150  -38.2765   24.1398 H   0  0  0  0  0  0
  -31.2117  -21.7500   20.1066 H   0  0  0  0  0  0
  -33.6767  -21.5657   18.9424 H   0  0  0  0  0  0
  -34.6628  -20.4389   19.8715 H   0  0  0  0  0  0
  -33.7981  -21.7382   20.6933 H   0  0  0  0  0  0
  -28.2250  -20.8494   21.2223 H   0  0  0  0  0  0
  -28.1388  -20.8019   19.5025 H   0  0  0  0  0  0
  -28.8591  -16.7404   19.7795 H   0  0  0  0  0  0
  -29.2001  -16.7665   21.4688 H   0  0  0  0  0  0
  -29.6447  -23.0163   19.3919 H   0  0  0  0  0  0
  -29.6537  -23.0787   21.1192 H   0  0  0  0  0  0
  -27.1989  -24.1221   20.9554 H   0  0  0  0  0  0
  -27.4037  -24.1409   19.2505 H   0  0  0  0  0  0
  1 25  1  0  0  0
  1 30  2  0  0  0
  1 77  1  0  0  0
  2  3  1  0  0  0
  2 25  1  0  0  0
  2 82  1  0  0  0
  2 83  1  0  0  0
  3  4  1  0  0  0
  3 84  1  0  0  0
  3 85  1  0  0  0
  4  5  1  0  0  0
  4 86  1  0  0  0
  4 87  1  0  0  0
  5  6  1  0  0  0
  5 26  1  0  0  0
  5 88  1  0  0  0
  6 25  1  0  0  0
  6 89  1  0  0  0
  6 90  1  0  0  0
  7  8  2  0  0  0
  7 26  1  0  0  0
  7 29  1  0  0  0
  8  9  1  0  0  0
  8 22  1  0  0  0
  9 10  1  0  0  0
  9 27  2  0  0  0
 10 11  2  0  0  0
 10 15  1  0  0  0
 11 12  1  0  0  0
 11 91  1  0  0  0
 12 13  2  0  0  0
 12 92  1  0  0  0
 13 14  1  0  0  0
 13 31  1  0  0  0
 14 15  2  0  0  0
 14 93  1  0  0  0
 15 94  1  0  0  0
 16 17  2  0  0  0
 16 21  1  0  0  0
 16 31  1  0  0  0
 17 18  1  0  0  0
 17 95  1  0  0  0
 18 19  2  0  0  0
 18 96  1  0  0  0
 19 20  1  0  0  0
 19 24  1  0  0  0
 20 21  2  0  0  0
 20 97  1  0  0  0
 21 23  1  0  0  0
 22 28  1  0  0  0
 22 32  2  0  0  0
 26 27  1  0  0  0
 28 98  1  0  0  0
 28 99  1  0  0  0
 29100  1  0  0  0
 29101  1  0  0  0
 33 34  1  0  0  0
 33 66  1  0  0  0
 33 70  2  0  0  0
 34 36  1  0  0  0
 34 59  1  0  0  0
 34102  1  0  0  0
 35 44  2  0  0  0
 35 45  1  0  0  0
 35 68  1  0  0  0
 36 56  1  0  0  0
 36103  1  0  0  0
 37 39  1  0  0  0
 37 47  1  0  0  0
 37 66  1  0  0  0
 37104  1  0  0  0
 38 43  2  0  0  0
 38 46  1  0  0  0
 38 47  1  0  0  0
 39 64  1  0  0  0
 39 67  2  0  0  0
 40 52  1  0  0  0
 40 53  2  0  0  0
 40 58  1  0  0  0
 41105  1  0  0  0
 41106  1  0  0  0
 41107  1  0  0  0
 41 48  1  0  0  0
 42 43  1  0  0  0
 42 66  1  0  0  0
 42108  1  0  0  0
 42109  1  0  0  0
 43 44  1  0  0  0
 44110  1  0  0  0
 45 46  2  0  0  0
 45111  1  0  0  0
 46112  1  0  0  0
 47113  1  0  0  0
 47114  1  0  0  0
 48 56  1  0  0  0
 48 65  1  0  0  0
 48115  1  0  0  0
 49 50  1  0  0  0
 49 53  1  0  0  0
 49 64  1  0  0  0
 49116  1  0  0  0
 50 51  1  0  0  0
 50117  1  0  0  0
 50118  1  0  0  0
 51 52  1  0  0  0
 51119  1  0  0  0
 51120  1  0  0  0
 52121  1  0  0  0
 52122  1  0  0  0
 53 54  1  0  0  0
 54 55  2  0  0  0
 54123  1  0  0  0
 55 57  1  0  0  0
 55124  1  0  0  0
 56 69  2  0  0  0
 57 58  2  0  0  0
 57125  1  0  0  0
 58126  1  0  0  0
 59 60  1  0  0  0
 59 61  1  0  0  0
 59 62  1  0  0  0
 60127  1  0  0  0
 60128  1  0  0  0
 60129  1  0  0  0
 61130  1  0  0  0
 61131  1  0  0  0
 61132  1  0  0  0
 62133  1  0  0  0
 62134  1  0  0  0
 62135  1  0  0  0
 63 65  1  0  0  0
 63136  1  0  0  0
 63137  1  0  0  0
 63138  1  0  0  0
 64139  1  0  0  0
 65140  1  0  0  0
 68 79  1  0  0  0
 71 72  2  0  0  0
 71 73  1  0  0  0
 71141  1  0  0  0
 72 74  1  0  0  0
 72 76  1  0  0  0
 73 75  1  0  0  0
 73 80  2  0  0  0
 74 77  1  0  0  0
 74 81  2  0  0  0
 75142  1  0  0  0
 75143  1  0  0  0
 75144  1  0  0  0
 76 78  1  0  0  0
 76145  1  0  0  0
 76146  1  0  0  0
 77147  1  0  0  0
 77148  1  0  0  0
 78 79  1  0  0  0
 78149  1  0  0  0
 78150  1  0  0  0
 79151  1  0  0  0
 79152  1  0  0  0
 80 81  1  0  0  0
M  ISO  4   1 100  68 101  77 100  79 101
M  END
> <chiral flag>
0

> <version>
0

> <s_m_source_file>
/data/baiqing/PycharmProjects/Reinvent-master-3.2/result/LINK_invent/BTK/process_docking_weight1_custom_sum_contain_oxygen_bond_distance_aromatic_linkinvent_7_9_3/rearranged_h_0083.sdf

> <i_m_source_file_index>
74

> <r_mmod_Potential_Energy-OPLS-2005>
1267.93139648438

> <r_mmod_Stretch_Energy-OPLS-2005>
589.616333007812

> <r_mmod_Bend_Energy-OPLS-2005>
498.681457519531

> <r_mmod_Torsional_Energy-OPLS-2005>
181.673797607422

> <r_mmod_Improper_Torsional_Energy-OPLS-2005>
2.93107557296753

> <r_mmod_Van_der_Waal_Energy-OPLS-2005>
140.890991210938

> <r_mmod_Electrostatic_Energy-OPLS-2005>
-284.285247802734

> <r_mmod_Solvation_Energy-OPLS-2005>
-243.480255126953

> <b_mmod_Minimization_Converged-OPLS-2005>
0

> <r_mmod_RMS_Derivative-OPLS-2005>
1.94225335121155

$$$$
74
                    3D
 Structure written by MMmdl.
188196  0  0  1  0            999 V2000
  -30.7265  -14.4069   20.5748 C   0  0  0  0  0  0
  -30.4117  -12.2648   19.4067 C   0  0  0  0  0  0
  -29.4853  -12.4918   18.1960 C   0  0  0  0  0  0
  -28.0070  -12.3670   18.6133 C   0  0  0  0  0  0
  -27.6638  -13.2025   19.8761 C   0  0  2  0  0  0
  -28.7041  -12.9643   20.9928 C   0  0  0  0  0  0
  -25.2580  -13.8148   20.5628 C   0  0  0  0  0  0
  -24.1846  -13.0432   20.9168 C   0  0  0  0  0  0
  -24.6402  -11.6902   20.8731 C   0  0  0  0  0  0
  -23.9063  -10.4290   21.0406 C   0  0  0  0  0  0
  -24.3628   -9.4214   21.9188 C   0  0  0  0  0  0
  -23.6306   -8.2242   22.0746 C   0  0  0  0  0  0
  -22.4282   -8.0280   21.3534 C   0  0  0  0  0  0
  -21.9901   -9.0254   20.4652 C   0  0  0  0  0  0
  -22.7227  -10.2135   20.3053 C   0  0  0  0  0  0
  -21.6861   -6.0734   22.5283 C   0  0  0  0  0  0
  -21.4034   -6.5639   23.8223 C   0  0  0  0  0  0
  -21.3644   -5.6789   24.9173 C   0  0  0  0  0  0
  -21.6037   -4.3051   24.7229 C   0  0  0  0  0  0
  -21.8828   -3.8144   23.4348 C   0  0  0  0  0  0
  -21.9208   -4.6962   22.3410 C   0  0  0  0  0  0
  -22.7873  -13.5260   21.1830 C   0  0  0  0  0  0
  -22.1671   -4.2158   21.0978 F   0  0  0  0  0  0
  -21.5605   -3.4529   25.7729 F   0  0  0  0  0  0
  -30.0382  -13.2433   20.4371 N   0  0  0  0  0  0
  -26.3037  -12.9324   20.3380 N   0  0  0  0  0  0
  -25.9330  -11.6486   20.5794 N   0  0  0  0  0  0
  -22.0533  -12.8246   22.0400 N   0  0  0  0  0  0
  -25.4252  -15.1838   20.3938 N   0  0  0  0  0  0
  -31.8384  -14.5991   20.0728 O   0  0  0  0  0  0
  -21.6640   -6.8872   21.4245 O   0  0  0  0  0  0
  -22.3555  -14.5564   20.6687 O   0  0  0  0  0  0
  -24.6088  -31.8686   23.2114 C   0  0  0  0  0  0
  -25.9010  -32.4819   23.8391 C   0  0  1  0  0  0
  -27.2414  -27.4725   20.0884 C   0  0  0  0  0  0
  -25.5873  -33.8617   24.2312 N   0  0  0  0  0  0
  -23.3955  -30.4929   21.5496 C   0  0  2  0  0  0
  -24.8459  -28.9588   20.1162 C   0  0  0  0  0  0
  -22.7361  -29.4692   22.5012 C   0  0  0  0  0  0
  -18.0273  -28.1375   22.8479 C   0  0  0  0  0  0
  -24.1494  -36.7335   23.2646 C   0  0  0  0  0  0
  -25.9217  -30.8471   21.3597 C   0  0  0  0  0  0
  -26.0027  -29.4842   20.7055 C   0  0  0  0  0  0
  -27.2068  -28.7478   20.6876 C   0  0  0  0  0  0
  -26.0713  -26.9497   19.4988 C   0  0  0  0  0  0
  -24.8716  -27.6881   19.5126 C   0  0  0  0  0  0
  -23.6021  -29.8177   20.1656 C   0  0  0  0  0  0
  -25.4109  -36.3105   24.0339 C   0  0  1  0  0  0
  -20.5837  -28.3660   23.1314 C   0  0  2  0  0  0
  -20.6750  -26.9398   22.5419 C   0  0  0  0  0  0
  -19.5745  -26.6378   21.5203 C   0  0  0  0  0  0
  -18.1919  -26.7932   22.1598 C   0  0  0  0  0  0
  -19.1509  -28.8836   23.2901 C   0  0  0  0  0  0
  -18.9453  -30.1441   23.8929 C   0  0  0  0  0  0
  -17.6454  -30.6598   24.0565 C   0  0  0  0  0  0
  -25.9036  -34.9472   23.5132 C   0  0  0  0  0  0
  -16.5346  -29.9099   23.6319 C   0  0  0  0  0  0
  -16.7258  -28.6501   23.0354 C   0  0  0  0  0  0
  -26.4462  -31.6588   25.0708 C   0  0  0  0  0  0
  -25.3756  -31.3719   26.1478 C   0  0  0  0  0  0
  -27.0261  -30.3020   24.6081 C   0  0  0  0  0  0
  -27.6035  -32.4307   25.7456 C   0  0  0  0  0  0
  -27.5591  -37.1800   24.8449 C   0  0  0  0  0  0
  -21.4096  -29.3041   22.3735 N   0  0  0  0  0  0
  -26.4296  -37.3791   23.9413 N   0  0  0  0  0  0
  -24.6598  -31.0834   22.0990 N   0  0  0  0  0  0
  -23.4162  -28.8233   23.3034 O   0  0  0  0  0  0
  -28.4083  -26.7522   20.0618 O   0  0  0  0  0  0
  -26.5613  -34.8916   22.4704 O   0  0  0  0  0  0
  -23.5298  -32.1394   23.7558 O   0  0  0  0  0  0
  -28.5383  -21.8179   19.7937 C   0  0  0  0  0  0
  -26.4522  -21.4255   18.6409 C   0  0  0  0  0  0
  -27.4331  -20.9817   19.5483 C   0  0  0  0  0  0
  -28.6169  -23.0568   19.1306 C   0  0  0  0  0  0
  -26.6103  -22.6813   18.0218 C   0  0  0  0  0  0
  -31.6916  -17.1949   24.1041 C   0  0  0  0  0  0
  -27.2688  -17.9085   18.4064 C   0  0  0  0  0  0
  -27.0977  -23.6367   15.0292 C   0  0  0  0  0  0
  -25.9718  -21.4130   15.2695 C   0  0  0  0  0  0
  -24.6312  -23.4595   14.7210 C   0  0  0  0  0  0
  -27.2957  -19.6489   20.2696 C   0  0  0  0  0  0
  -29.7721  -24.0089   19.3897 C   0  0  0  0  0  0
  -25.5660  -23.2105   17.0421 C   0  0  0  0  0  0
  -31.4828  -16.7616   22.6505 C   0  0  0  0  0  0
  -29.6578  -24.7629   20.7281 C   0  0  0  0  0  0
  -28.4667  -17.3982   20.6214 C   0  0  0  0  0  0
  -30.2730  -15.8148   22.4890 C   0  0  0  0  0  0
  -29.6492  -16.5201   20.1566 C   0  0  0  0  0  0
  -28.3772  -25.5966   20.8940 C   0  0  0  0  0  0
  -28.0663  -18.4882   19.5940 C   0  0  1  0  0  0
  -25.8272  -22.9260   15.5337 C   0  0  0  0  0  0
  -27.6660  -23.4846   18.2742 N   0  0  0  0  0  0
  -30.0197  -15.4358   21.0896 N   0  0  0  0  0  0
  -31.4579  -12.3439   19.1080 H   0  0  0  0  0  0
  -30.2909  -11.2504   19.7915 H   0  0  0  0  0  0
  -29.7076  -11.7669   17.4120 H   0  0  0  0  0  0
  -29.6650  -13.4765   17.7631 H   0  0  0  0  0  0
  -27.8112  -11.3104   18.8065 H   0  0  0  0  0  0
  -27.3538  -12.6469   17.7851 H   0  0  0  0  0  0
  -27.7160  -14.2527   19.5891 H   0  0  0  0  0  0
  -28.6619  -11.9298   21.3362 H   0  0  0  0  0  0
  -28.4789  -13.5732   21.8697 H   0  0  0  0  0  0
  -25.2781   -9.5695   22.4756 H   0  0  0  0  0  0
  -24.0027   -7.4634   22.7449 H   0  0  0  0  0  0
  -21.0825   -8.8773   19.8982 H   0  0  0  0  0  0
  -22.3686  -10.9670   19.6154 H   0  0  0  0  0  0
  -21.2041   -7.6154   23.9736 H   0  0  0  0  0  0
  -21.1437   -6.0505   25.9081 H   0  0  0  0  0  0
  -22.0618   -2.7608   23.2841 H   0  0  0  0  0  0
  -22.4150  -11.9903   22.4775 H   0  0  0  0  0  0
  -21.1173  -13.1273   22.2658 H   0  0  0  0  0  0
  -24.6521  -15.8342   20.4806 H   0  0  0  0  0  0
  -26.2758  -15.6151   20.0569 H   0  0  0  0  0  0
  -26.7102  -32.5566   23.1169 H   0  0  0  0  0  0
  -24.9934  -33.9772   25.0394 H   0  0  0  0  0  0
  -22.6843  -31.3105   21.4077 H   0  0  0  0  0  0
  -23.3732  -35.9687   23.3289 H   0  0  0  0  0  0
  -24.3608  -36.8974   22.2069 H   0  0  0  0  0  0
  -23.7251  -37.6534   23.6674 H   0  0  0  0  0  0
  -26.0331  -31.6161   20.5935 H   0  0  0  0  0  0
  -26.8085  -30.8987   21.9798 H   0  0  0  0  0  0
  -28.1017  -29.1547   21.1379 H   0  0  0  0  0  0
  -26.0940  -25.9788   19.0248 H   0  0  0  0  0  0
  -23.9833  -27.2742   19.0549 H   0  0  0  0  0  0
  -23.7067  -30.5868   19.3993 H   0  0  0  0  0  0
  -22.7286  -29.2293   19.8752 H   0  0  0  0  0  0
  -25.1289  -36.1960   25.0826 H   0  0  0  0  0  0
  -20.9937  -28.3227   24.1427 H   0  0  0  0  0  0
  -20.5600  -26.2294   23.3616 H   0  0  0  0  0  0
  -21.6632  -26.7422   22.1239 H   0  0  0  0  0  0
  -19.6904  -25.6279   21.1254 H   0  0  0  0  0  0
  -19.6702  -27.3182   20.6725 H   0  0  0  0  0  0
  -17.4181  -26.6674   21.4014 H   0  0  0  0  0  0
  -18.0327  -26.0087   22.9000 H   0  0  0  0  0  0
  -19.7944  -30.7225   24.2330 H   0  0  0  0  0  0
  -17.5033  -31.6290   24.5153 H   0  0  0  0  0  0
  -15.5353  -30.3024   23.7658 H   0  0  0  0  0  0
  -15.8639  -28.0840   22.7078 H   0  0  0  0  0  0
  -24.5874  -30.7136   25.7818 H   0  0  0  0  0  0
  -24.9046  -32.2913   26.4957 H   0  0  0  0  0  0
  -25.8117  -30.8830   27.0193 H   0  0  0  0  0  0
  -26.2783  -29.6795   24.1161 H   0  0  0  0  0  0
  -27.4032  -29.7250   25.4526 H   0  0  0  0  0  0
  -27.8619  -30.4308   23.9206 H   0  0  0  0  0  0
  -27.2603  -33.3538   26.2120 H   0  0  0  0  0  0
  -28.3769  -32.6966   25.0248 H   0  0  0  0  0  0
  -28.0778  -31.8393   26.5284 H   0  0  0  0  0  0
  -28.2558  -38.0138   24.7497 H   0  0  0  0  0  0
  -28.1124  -36.2659   24.6241 H   0  0  0  0  0  0
  -27.2334  -37.1418   25.8858 H   0  0  0  0  0  0
  -20.9254  -29.8774   21.6962 H   0  0  0  0  0  0
  -26.0178  -38.2857   24.1426 H   0  0  0  0  0  0
  -29.3093  -21.5227   20.4922 H   0  0  0  0  0  0
  -25.5891  -20.8120   18.4223 H   0  0  0  0  0  0
  -32.5761  -17.8255   24.1949 H   0  0  0  0  0  0
  -31.8293  -16.3321   24.7563 H   0  0  0  0  0  0
  -30.8372  -17.7643   24.4735 H   0  0  0  0  0  0
  -27.0941  -18.6730   17.6488 H   0  0  0  0  0  0
  -26.2928  -17.5387   18.7211 H   0  0  0  0  0  0
  -27.7919  -17.0872   17.9171 H   0  0  0  0  0  0
  -27.2050  -23.5297   13.9480 H   0  0  0  0  0  0
  -27.9964  -23.2183   15.4832 H   0  0  0  0  0  0
  -27.0803  -24.7042   15.2539 H   0  0  0  0  0  0
  -26.1462  -21.2115   14.2123 H   0  0  0  0  0  0
  -25.0762  -20.8660   15.5654 H   0  0  0  0  0  0
  -26.8150  -20.9874   15.8139 H   0  0  0  0  0  0
  -24.7234  -23.2031   13.6641 H   0  0  0  0  0  0
  -24.5540  -24.5466   14.7842 H   0  0  0  0  0  0
  -23.6837  -23.0477   15.0717 H   0  0  0  0  0  0
  -26.2423  -19.3926   20.3983 H   0  0  0  0  0  0
  -27.6748  -19.8102   21.2795 H   0  0  0  0  0  0
  -29.8399  -24.7246   18.5698 H   0  0  0  0  0  0
  -30.7021  -23.4401   19.3683 H   0  0  0  0  0  0
  -25.4578  -24.2844   17.2008 H   0  0  0  0  0  0
  -24.6027  -22.7857   17.3279 H   0  0  0  0  0  0
  -32.3908  -16.2747   22.2896 H   0  0  0  0  0  0
  -31.3492  -17.6558   22.0406 H   0  0  0  0  0  0
  -30.5308  -25.4003   20.8656 H   0  0  0  0  0  0
  -29.6973  -24.0284   21.5318 H   0  0  0  0  0  0
  -28.7620  -17.8917   21.5475 H   0  0  0  0  0  0
  -27.6069  -16.7802   20.8757 H   0  0  0  0  0  0
  -29.3759  -16.2572   22.9203 H   0  0  0  0  0  0
  -30.4509  -14.9132   23.0814 H   0  0  0  0  0  0
  -30.5238  -17.1424   19.9618 H   0  0  0  0  0  0
  -29.3919  -16.0741   19.1942 H   0  0  0  0  0  0
  -28.3031  -25.9269   21.9313 H   0  0  0  0  0  0
  -27.4973  -24.9810   20.7045 H   0  0  0  0  0  0
  -28.9951  -18.9095   19.2072 H   0  0  0  0  0  0
  1 25  1  0  0  0
  1 30  2  0  0  0
  1 93  1  0  0  0
  2  3  1  0  0  0
  2 25  1  0  0  0
  2 94  1  0  0  0
  2 95  1  0  0  0
  3  4  1  0  0  0
  3 96  1  0  0  0
  3 97  1  0  0  0
  4  5  1  0  0  0
  4 98  1  0  0  0
  4 99  1  0  0  0
  5  6  1  0  0  0
  5 26  1  0  0  0
  5100  1  0  0  0
  6 25  1  0  0  0
  6101  1  0  0  0
  6102  1  0  0  0
  7  8  2  0  0  0
  7 26  1  0  0  0
  7 29  1  0  0  0
  8  9  1  0  0  0
  8 22  1  0  0  0
  9 10  1  0  0  0
  9 27  2  0  0  0
 10 11  2  0  0  0
 10 15  1  0  0  0
 11 12  1  0  0  0
 11103  1  0  0  0
 12 13  2  0  0  0
 12104  1  0  0  0
 13 14  1  0  0  0
 13 31  1  0  0  0
 14 15  2  0  0  0
 14105  1  0  0  0
 15106  1  0  0  0
 16 17  2  0  0  0
 16 21  1  0  0  0
 16 31  1  0  0  0
 17 18  1  0  0  0
 17107  1  0  0  0
 18 19  2  0  0  0
 18108  1  0  0  0
 19 20  1  0  0  0
 19 24  1  0  0  0
 20 21  2  0  0  0
 20109  1  0  0  0
 21 23  1  0  0  0
 22 28  1  0  0  0
 22 32  2  0  0  0
 26 27  1  0  0  0
 28110  1  0  0  0
 28111  1  0  0  0
 29112  1  0  0  0
 29113  1  0  0  0
 33 34  1  0  0  0
 33 66  1  0  0  0
 33 70  2  0  0  0
 34 36  1  0  0  0
 34 59  1  0  0  0
 34114  1  0  0  0
 35 44  2  0  0  0
 35 45  1  0  0  0
 35 68  1  0  0  0
 36 56  1  0  0  0
 36115  1  0  0  0
 37 39  1  0  0  0
 37 47  1  0  0  0
 37 66  1  0  0  0
 37116  1  0  0  0
 38 43  2  0  0  0
 38 46  1  0  0  0
 38 47  1  0  0  0
 39 64  1  0  0  0
 39 67  2  0  0  0
 40 52  1  0  0  0
 40 53  2  0  0  0
 40 58  1  0  0  0
 41117  1  0  0  0
 41118  1  0  0  0
 41119  1  0  0  0
 41 48  1  0  0  0
 42 43  1  0  0  0
 42 66  1  0  0  0
 42120  1  0  0  0
 42121  1  0  0  0
 43 44  1  0  0  0
 44122  1  0  0  0
 45 46  2  0  0  0
 45123  1  0  0  0
 46124  1  0  0  0
 47125  1  0  0  0
 47126  1  0  0  0
 48 56  1  0  0  0
 48 65  1  0  0  0
 48127  1  0  0  0
 49 50  1  0  0  0
 49 53  1  0  0  0
 49 64  1  0  0  0
 49128  1  0  0  0
 50 51  1  0  0  0
 50129  1  0  0  0
 50130  1  0  0  0
 51 52  1  0  0  0
 51131  1  0  0  0
 51132  1  0  0  0
 52133  1  0  0  0
 52134  1  0  0  0
 53 54  1  0  0  0
 54 55  2  0  0  0
 54135  1  0  0  0
 55 57  1  0  0  0
 55136  1  0  0  0
 56 69  2  0  0  0
 57 58  2  0  0  0
 57137  1  0  0  0
 58138  1  0  0  0
 59 60  1  0  0  0
 59 61  1  0  0  0
 59 62  1  0  0  0
 60139  1  0  0  0
 60140  1  0  0  0
 60141  1  0  0  0
 61142  1  0  0  0
 61143  1  0  0  0
 61144  1  0  0  0
 62145  1  0  0  0
 62146  1  0  0  0
 62147  1  0  0  0
 63 65  1  0  0  0
 63148  1  0  0  0
 63149  1  0  0  0
 63150  1  0  0  0
 64151  1  0  0  0
 65152  1  0  0  0
 68 89  1  0  0  0
 71 73  2  0  0  0
 71 74  1  0  0  0
 71153  1  0  0  0
 72 73  1  0  0  0
 72 75  2  0  0  0
 72154  1  0  0  0
 73 81  1  0  0  0
 74 82  1  0  0  0
 74 92  2  0  0  0
 75 83  1  0  0  0
 75 92  1  0  0  0
 76 84  1  0  0  0
 76155  1  0  0  0
 76156  1  0  0  0
 76157  1  0  0  0
 77158  1  0  0  0
 77159  1  0  0  0
 77160  1  0  0  0
 77 90  1  0  0  0
 78161  1  0  0  0
 78162  1  0  0  0
 78163  1  0  0  0
 78 91  1  0  0  0
 79 91  1  0  0  0
 79164  1  0  0  0
 79165  1  0  0  0
 79166  1  0  0  0
 80 91  1  0  0  0
 80167  1  0  0  0
 80168  1  0  0  0
 80169  1  0  0  0
 81 90  1  0  0  0
 81170  1  0  0  0
 81171  1  0  0  0
 82 85  1  0  0  0
 82172  1  0  0  0
 82173  1  0  0  0
 83 91  1  0  0  0
 83174  1  0  0  0
 83175  1  0  0  0
 84 87  1  0  0  0
 84176  1  0  0  0
 84177  1  0  0  0
 85 89  1  0  0  0
 85178  1  0  0  0
 85179  1  0  0  0
 86 88  1  0  0  0
 86 90  1  0  0  0
 86180  1  0  0  0
 86181  1  0  0  0
 87 93  1  0  0  0
 87182  1  0  0  0
 87183  1  0  0  0
 88 93  1  0  0  0
 88184  1  0  0  0
 88185  1  0  0  0
 89186  1  0  0  0
 89187  1  0  0  0
 90188  1  0  0  0
M  ISO  4   1 100  68 101  89 101  93 100
M  END
> <chiral flag>
0

> <version>
0

> <s_m_source_file>
/data/baiqing/PycharmProjects/Reinvent-master-3.2/result/LINK_invent/BTK/process_docking_weight1_custom_sum_contain_oxygen_bond_distance_aromatic_linkinvent_7_9_3/rearranged_h_0083.sdf

> <i_m_source_file_index>
75

> <r_mmod_Potential_Energy-OPLS-2005>
47.2724952697754

> <r_mmod_Stretch_Energy-OPLS-2005>
36.121696472168

> <r_mmod_Bend_Energy-OPLS-2005>
98.9728393554688

> <r_mmod_Torsional_Energy-OPLS-2005>
326.891937255859

> <r_mmod_Improper_Torsional_Energy-OPLS-2005>
7.91097116470337

> <r_mmod_Van_der_Waal_Energy-OPLS-2005>
136.68391418457

> <r_mmod_Electrostatic_Energy-OPLS-2005>
-387.402801513672

> <r_mmod_Solvation_Energy-OPLS-2005>
-180.521545410156

> <b_mmod_Minimization_Converged-OPLS-2005>
0

> <r_mmod_RMS_Derivative-OPLS-2005>
3.04587364196777

$$$$
75
                    3D
 Structure written by MMmdl.
170178  0  0  1  0            999 V2000
  -30.4028  -14.7888   20.6890 C   0  0  0  0  0  0
  -30.4322  -12.5106   19.5537 C   0  0  0  0  0  0
  -29.5279  -12.5386   18.2724 C   0  0  0  0  0  0
  -28.0434  -12.3293   18.6589 C   0  0  0  0  0  0
  -27.6248  -13.2234   19.8581 C   0  0  2  0  0  0
  -28.6118  -13.0980   21.0307 C   0  0  0  0  0  0
  -25.2428  -13.8213   20.5652 C   0  0  0  0  0  0
  -24.1608  -13.0349   20.9171 C   0  0  0  0  0  0
  -24.6217  -11.6920   20.8536 C   0  0  0  0  0  0
  -23.8913  -10.4227   21.0333 C   0  0  0  0  0  0
  -24.3526   -9.4160   21.9079 C   0  0  0  0  0  0
  -23.6225   -8.2163   22.0663 C   0  0  0  0  0  0
  -22.4206   -8.0183   21.3498 C   0  0  0  0  0  0
  -21.9832   -9.0119   20.4600 C   0  0  0  0  0  0
  -22.7121  -10.2018   20.3007 C   0  0  0  0  0  0
  -21.6826   -6.0621   22.5241 C   0  0  0  0  0  0
  -21.4016   -6.5570   23.8168 C   0  0  0  0  0  0
  -21.3692   -5.6743   24.9148 C   0  0  0  0  0  0
  -21.6070   -4.3008   24.7217 C   0  0  0  0  0  0
  -21.8833   -3.8071   23.4357 C   0  0  0  0  0  0
  -21.9190   -4.6850   22.3393 C   0  0  0  0  0  0
  -22.7693  -13.5160   21.1844 C   0  0  0  0  0  0
  -22.1657   -4.2048   21.0966 F   0  0  0  0  0  0
  -21.5646   -3.4527   25.7741 F   0  0  0  0  0  0
  -29.9204  -13.5086   20.5466 N   0  0  0  0  0  0
  -26.2690  -12.9297   20.3107 N   0  0  0  0  0  0
  -25.9117  -11.6486   20.5548 N   0  0  0  0  0  0
  -22.0466  -12.8033   22.0557 N   0  0  0  0  0  0
  -25.4197  -15.1810   20.4071 N   0  0  0  0  0  0
  -31.4998  -15.0547   20.1989 O   0  0  0  0  0  0
  -21.6615   -6.8736   21.4191 O   0  0  0  0  0  0
  -22.3341  -14.5402   20.6795 O   0  0  0  0  0  0
  -24.6309  -31.8677   23.2218 C   0  0  0  0  0  0
  -25.9136  -32.4749   23.8667 C   0  0  1  0  0  0
  -27.1690  -27.3014   20.1641 C   0  0  0  0  0  0
  -25.5895  -33.8652   24.2272 N   0  0  0  0  0  0
  -23.4135  -30.5270   21.5137 C   0  0  2  0  0  0
  -24.8567  -28.9600   20.1063 C   0  0  0  0  0  0
  -22.7568  -29.4962   22.4745 C   0  0  0  0  0  0
  -18.0861  -28.1067   22.8635 C   0  0  0  0  0  0
  -24.1466  -36.7407   23.2649 C   0  0  0  0  0  0
  -25.9399  -30.7905   21.3891 C   0  0  0  0  0  0
  -26.0146  -29.4102   20.7453 C   0  0  0  0  0  0
  -27.1829  -28.5971   20.7649 C   0  0  0  0  0  0
  -26.0035  -26.8977   19.4814 C   0  0  0  0  0  0
  -24.8437  -27.6999   19.4906 C   0  0  0  0  0  0
  -23.6433  -29.8795   20.1348 C   0  0  0  0  0  0
  -25.4075  -36.3184   24.0300 C   0  0  1  0  0  0
  -20.6245  -28.3886   23.1218 C   0  0  2  0  0  0
  -20.7360  -26.9220   22.7048 C   0  0  0  0  0  0
  -19.6866  -26.4837   21.6661 C   0  0  0  0  0  0
  -18.2982  -26.7105   22.2744 C   0  0  0  0  0  0
  -19.1875  -28.8984   23.2630 C   0  0  0  0  0  0
  -18.9469  -30.1741   23.8469 C   0  0  0  0  0  0
  -17.6441  -30.6316   23.9696 C   0  0  0  0  0  0
  -25.8974  -34.9480   23.5026 C   0  0  0  0  0  0
  -16.5370  -29.8618   23.5392 C   0  0  0  0  0  0
  -16.7723  -28.5915   22.9909 C   0  0  0  0  0  0
  -26.4624  -31.6679   25.1141 C   0  0  0  0  0  0
  -25.3944  -31.3927   26.1907 C   0  0  0  0  0  0
  -27.0205  -30.2976   24.6598 C   0  0  0  0  0  0
  -27.6220  -32.4393   25.7967 C   0  0  0  0  0  0
  -27.5546  -37.1862   24.8458 C   0  0  0  0  0  0
  -21.4486  -29.2449   22.2678 N   0  0  0  0  0  0
  -26.4243  -37.3883   23.9456 N   0  0  0  0  0  0
  -24.6681  -31.0717   22.0998 N   0  0  0  0  0  0
  -23.4122  -28.9189   23.3396 O   0  0  0  0  0  0
  -28.2126  -26.3807   20.2776 O   0  0  0  0  0  0
  -26.5789  -34.8953   22.4756 O   0  0  0  0  0  0
  -23.5348  -32.1487   23.7345 O   0  0  0  0  0  0
  -25.8488  -20.7872   22.9084 C   0  0  0  0  0  0
  -26.1395  -20.9052   24.2656 C   0  0  0  0  0  0
  -26.7994  -20.2433   22.0229 C   0  0  0  0  0  0
  -27.3174  -20.2261   24.7010 C   0  0  0  0  0  0
  -27.7229  -19.2356   22.5560 C   0  0  0  0  0  0
  -27.8700  -20.4113   26.1118 C   0  0  0  0  0  0
  -24.6833  -23.0766   24.7073 C   0  0  0  0  0  0
  -25.2787  -23.0593   20.3360 C   0  0  0  0  0  0
  -25.1951  -21.6845   25.2219 C   0  0  0  0  0  0
  -26.9494  -21.1162   20.7248 C   0  0  0  0  0  0
  -27.9581  -17.7242   22.0281 C   0  0  0  0  0  0
  -27.7744  -23.7027   20.3215 C   0  0  0  0  0  0
  -29.3020  -17.2405   21.2870 C   0  0  0  0  0  0
  -27.8259  -25.1409   21.0111 C   0  0  0  0  0  0
  -26.6932  -22.6964   20.8914 C   0  0  1  0  0  0
  -28.0214  -19.3703   23.8756 N   0  0  0  0  0  0
  -29.6170  -15.7324   21.3583 N   0  0  0  0  0  0
  -31.4847  -12.6762   19.2964 H   0  0  0  0  0  0
  -30.4081  -11.5042   19.9913 H   0  0  0  0  0  0
  -29.8328  -11.7482   17.5774 H   0  0  0  0  0  0
  -29.6451  -13.4990   17.7531 H   0  0  0  0  0  0
  -27.9197  -11.2752   18.9249 H   0  0  0  0  0  0
  -27.4025  -12.5240   17.7929 H   0  0  0  0  0  0
  -27.6328  -14.2625   19.5123 H   0  0  0  0  0  0
  -28.6132  -12.0826   21.4383 H   0  0  0  0  0  0
  -28.2720  -13.7415   21.8407 H   0  0  0  0  0  0
  -25.2686   -9.5607   22.4681 H   0  0  0  0  0  0
  -23.9955   -7.4513   22.7375 H   0  0  0  0  0  0
  -21.0768   -8.8582   19.8888 H   0  0  0  0  0  0
  -22.3539  -10.9514   19.6128 H   0  0  0  0  0  0
  -21.2016   -7.6097   23.9644 H   0  0  0  0  0  0
  -21.1539   -6.0485   25.9041 H   0  0  0  0  0  0
  -22.0599   -2.7555   23.2891 H   0  0  0  0  0  0
  -22.4223  -11.9741   22.4927 H   0  0  0  0  0  0
  -21.1044  -13.0884   22.2812 H   0  0  0  0  0  0
  -24.6770  -15.8673   20.5132 H   0  0  0  0  0  0
  -26.3052  -15.5911   20.1529 H   0  0  0  0  0  0
  -26.7437  -32.5430   23.1710 H   0  0  0  0  0  0
  -24.9926  -33.9820   25.0261 H   0  0  0  0  0  0
  -22.7060  -31.3320   21.3119 H   0  0  0  0  0  0
  -23.3670  -35.9810   23.3280 H   0  0  0  0  0  0
  -24.3469  -36.9087   22.2087 H   0  0  0  0  0  0
  -23.7210  -37.6585   23.6646 H   0  0  0  0  0  0
  -26.0395  -31.5356   20.6028 H   0  0  0  0  0  0
  -26.8361  -30.8530   22.0054 H   0  0  0  0  0  0
  -28.0600  -28.9369   21.3079 H   0  0  0  0  0  0
  -25.9643  -25.9294   19.0049 H   0  0  0  0  0  0
  -23.9373  -27.3372   19.0156 H   0  0  0  0  0  0
  -23.8138  -30.7000   19.4294 H   0  0  0  0  0  0
  -22.7517  -29.3595   19.7635 H   0  0  0  0  0  0
  -25.1181  -36.2107   25.0783 H   0  0  0  0  0  0
  -20.9963  -28.4280   24.1523 H   0  0  0  0  0  0
  -20.5383  -26.3654   23.6320 H   0  0  0  0  0  0
  -21.7686  -26.6871   22.3657 H   0  0  0  0  0  0
  -19.8267  -25.4083   21.5191 H   0  0  0  0  0  0
  -19.7962  -27.0121   20.7134 H   0  0  0  0  0  0
  -17.5057  -26.4020   21.6047 H   0  0  0  0  0  0
  -18.2352  -26.0039   23.0778 H   0  0  0  0  0  0
  -19.7733  -30.7590   24.1903 H   0  0  0  0  0  0
  -17.4641  -31.5673   24.4594 H   0  0  0  0  0  0
  -15.5132  -30.2167   23.6362 H   0  0  0  0  0  0
  -15.9738  -27.9716   22.5772 H   0  0  0  0  0  0
  -24.6072  -30.7166   25.8433 H   0  0  0  0  0  0
  -24.9296  -32.3163   26.5417 H   0  0  0  0  0  0
  -25.8540  -30.9276   27.0611 H   0  0  0  0  0  0
  -26.2569  -29.6977   24.1598 H   0  0  0  0  0  0
  -27.3621  -29.7057   25.5104 H   0  0  0  0  0  0
  -27.8732  -30.4003   23.9893 H   0  0  0  0  0  0
  -27.2833  -33.3545   26.2805 H   0  0  0  0  0  0
  -28.4126  -32.7171   25.0982 H   0  0  0  0  0  0
  -28.0942  -31.8543   26.5841 H   0  0  0  0  0  0
  -28.2589  -38.0154   24.7486 H   0  0  0  0  0  0
  -28.1008  -36.2667   24.6220 H   0  0  0  0  0  0
  -27.2310  -37.1467   25.8888 H   0  0  0  0  0  0
  -21.0499  -29.4954   21.3834 H   0  0  0  0  0  0
  -26.0119  -38.2899   24.1644 H   0  0  0  0  0  0
  -24.9956  -21.3210   22.5052 H   0  0  0  0  0  0
  -27.5486  -21.3822   26.4544 H   0  0  0  0  0  0
  -28.9545  -20.3372   26.1761 H   0  0  0  0  0  0
  -27.5946  -19.5716   26.7516 H   0  0  0  0  0  0
  -24.8327  -23.2177   23.6585 H   0  0  0  0  0  0
  -25.1161  -23.9774   25.1670 H   0  0  0  0  0  0
  -23.5985  -23.2010   24.8118 H   0  0  0  0  0  0
  -24.4363  -22.6445   20.8865 H   0  0  0  0  0  0
  -25.2528  -22.7532   19.3041 H   0  0  0  0  0  0
  -25.0440  -24.1397   20.2983 H   0  0  0  0  0  0
  -25.6016  -21.7976   26.2257 H   0  0  0  0  0  0
  -24.2782  -21.1146   25.3877 H   0  0  0  0  0  0
  -26.2098  -20.7382   20.0264 H   0  0  0  0  0  0
  -27.9083  -20.9526   20.2351 H   0  0  0  0  0  0
  -27.0025  -17.3893   21.5676 H   0  0  0  0  0  0
  -27.9837  -17.0991   22.9352 H   0  0  0  0  0  0
  -28.7598  -23.2571   20.4610 H   0  0  0  0  0  0
  -27.6080  -23.8305   19.2643 H   0  0  0  0  0  0
  -30.1215  -17.7820   21.7630 H   0  0  0  0  0  0
  -29.1870  -17.6125   20.2509 H   0  0  0  0  0  0
  -28.4773  -25.1369   21.8949 H   0  0  0  0  0  0
  -26.8470  -25.2924   21.4571 H   0  0  0  0  0  0
  -26.6634  -22.9015   21.9619 H   0  0  0  0  0  0
  -29.5884  -15.4107   22.3048 H   0  0  0  0  0  0
  1 25  1  0  0  0
  1 30  2  0  0  0
  1 87  1  0  0  0
  2  3  1  0  0  0
  2 25  1  0  0  0
  2 88  1  0  0  0
  2 89  1  0  0  0
  3  4  1  0  0  0
  3 90  1  0  0  0
  3 91  1  0  0  0
  4  5  1  0  0  0
  4 92  1  0  0  0
  4 93  1  0  0  0
  5  6  1  0  0  0
  5 26  1  0  0  0
  5 94  1  0  0  0
  6 25  1  0  0  0
  6 95  1  0  0  0
  6 96  1  0  0  0
  7  8  2  0  0  0
  7 26  1  0  0  0
  7 29  1  0  0  0
  8  9  1  0  0  0
  8 22  1  0  0  0
  9 10  1  0  0  0
  9 27  2  0  0  0
 10 11  2  0  0  0
 10 15  1  0  0  0
 11 12  1  0  0  0
 11 97  1  0  0  0
 12 13  2  0  0  0
 12 98  1  0  0  0
 13 14  1  0  0  0
 13 31  1  0  0  0
 14 15  2  0  0  0
 14 99  1  0  0  0
 15100  1  0  0  0
 16 17  2  0  0  0
 16 21  1  0  0  0
 16 31  1  0  0  0
 17 18  1  0  0  0
 17101  1  0  0  0
 18 19  2  0  0  0
 18102  1  0  0  0
 19 20  1  0  0  0
 19 24  1  0  0  0
 20 21  2  0  0  0
 20103  1  0  0  0
 21 23  1  0  0  0
 22 28  1  0  0  0
 22 32  2  0  0  0
 26 27  1  0  0  0
 28104  1  0  0  0
 28105  1  0  0  0
 29106  1  0  0  0
 29107  1  0  0  0
 33 34  1  0  0  0
 33 66  1  0  0  0
 33 70  2  0  0  0
 34 36  1  0  0  0
 34 59  1  0  0  0
 34108  1  0  0  0
 35 44  2  0  0  0
 35 45  1  0  0  0
 35 68  1  0  0  0
 36 56  1  0  0  0
 36109  1  0  0  0
 37 39  1  0  0  0
 37 47  1  0  0  0
 37 66  1  0  0  0
 37110  1  0  0  0
 38 43  2  0  0  0
 38 46  1  0  0  0
 38 47  1  0  0  0
 39 64  1  0  0  0
 39 67  2  0  0  0
 40 52  1  0  0  0
 40 53  2  0  0  0
 40 58  1  0  0  0
 41111  1  0  0  0
 41112  1  0  0  0
 41113  1  0  0  0
 41 48  1  0  0  0
 42 43  1  0  0  0
 42 66  1  0  0  0
 42114  1  0  0  0
 42115  1  0  0  0
 43 44  1  0  0  0
 44116  1  0  0  0
 45 46  2  0  0  0
 45117  1  0  0  0
 46118  1  0  0  0
 47119  1  0  0  0
 47120  1  0  0  0
 48 56  1  0  0  0
 48 65  1  0  0  0
 48121  1  0  0  0
 49 50  1  0  0  0
 49 53  1  0  0  0
 49 64  1  0  0  0
 49122  1  0  0  0
 50 51  1  0  0  0
 50123  1  0  0  0
 50124  1  0  0  0
 51 52  1  0  0  0
 51125  1  0  0  0
 51126  1  0  0  0
 52127  1  0  0  0
 52128  1  0  0  0
 53 54  1  0  0  0
 54 55  2  0  0  0
 54129  1  0  0  0
 55 57  1  0  0  0
 55130  1  0  0  0
 56 69  2  0  0  0
 57 58  2  0  0  0
 57131  1  0  0  0
 58132  1  0  0  0
 59 60  1  0  0  0
 59 61  1  0  0  0
 59 62  1  0  0  0
 60133  1  0  0  0
 60134  1  0  0  0
 60135  1  0  0  0
 61136  1  0  0  0
 61137  1  0  0  0
 61138  1  0  0  0
 62139  1  0  0  0
 62140  1  0  0  0
 62141  1  0  0  0
 63 65  1  0  0  0
 63142  1  0  0  0
 63143  1  0  0  0
 63144  1  0  0  0
 64145  1  0  0  0
 65146  1  0  0  0
 68 84  1  0  0  0
 71 72  2  0  0  0
 71 73  1  0  0  0
 71147  1  0  0  0
 72 74  1  0  0  0
 72 79  1  0  0  0
 73 75  2  0  0  0
 73 80  1  0  0  0
 74 76  1  0  0  0
 74 86  2  0  0  0
 75 81  1  0  0  0
 75 86  1  0  0  0
 76148  1  0  0  0
 76149  1  0  0  0
 76150  1  0  0  0
 77 79  1  0  0  0
 77151  1  0  0  0
 77152  1  0  0  0
 77153  1  0  0  0
 78154  1  0  0  0
 78155  1  0  0  0
 78156  1  0  0  0
 78 85  1  0  0  0
 79157  1  0  0  0
 79158  1  0  0  0
 80 85  1  0  0  0
 80159  1  0  0  0
 80160  1  0  0  0
 81 83  1  0  0  0
 81161  1  0  0  0
 81162  1  0  0  0
 82 84  1  0  0  0
 82 85  1  0  0  0
 82163  1  0  0  0
 82164  1  0  0  0
 83 87  1  0  0  0
 83165  1  0  0  0
 83166  1  0  0  0
 84167  1  0  0  0
 84168  1  0  0  0
 85169  1  0  0  0
 87170  1  0  0  0
M  ISO  4   1 100  68 101  84 101  87 100
M  END
> <chiral flag>
0

> <version>
0

> <s_m_source_file>
/data/baiqing/PycharmProjects/Reinvent-master-3.2/result/LINK_invent/BTK/process_docking_weight1_custom_sum_contain_oxygen_bond_distance_aromatic_linkinvent_7_9_3/rearranged_h_0083.sdf

> <i_m_source_file_index>
76

> <r_mmod_Potential_Energy-OPLS-2005>
389.081359863281

> <r_mmod_Stretch_Energy-OPLS-2005>
142.559783935547

> <r_mmod_Bend_Energy-OPLS-2005>
245.726501464844

> <r_mmod_Torsional_Energy-OPLS-2005>
431.720092773438

> <r_mmod_Improper_Torsional_Energy-OPLS-2005>
14.6183977127075

> <r_mmod_Van_der_Waal_Energy-OPLS-2005>
151.449722290039

> <r_mmod_Electrostatic_Energy-OPLS-2005>
-520.725402832031

> <r_mmod_Solvation_Energy-OPLS-2005>
-222.928894042969

> <b_mmod_Minimization_Converged-OPLS-2005>
0

> <r_mmod_RMS_Derivative-OPLS-2005>
46.3238372802734

$$$$
76
                    3D
 Structure written by MMmdl.
169177  0  0  1  0            999 V2000
  -31.1376  -13.4868   20.5144 C   0  0  0  0  0  0
  -30.2418  -12.2146   18.7688 C   0  0  0  0  0  0
  -29.7998  -13.4505   17.4854 C   0  0  0  0  0  0
  -28.4715  -14.8164   17.8624 C   0  0  0  0  0  0
  -27.6010  -14.3486   20.2634 C   0  0  2  0  0  0
  -28.6892  -13.0253   21.0645 C   0  0  0  0  0  0
  -25.0751  -14.0800   20.8820 C   0  0  0  0  0  0
  -24.0984  -13.1444   21.0372 C   0  0  0  0  0  0
  -24.6790  -11.8524   20.9320 C   0  0  0  0  0  0
  -23.9978  -10.5055   21.0220 C   0  0  0  0  0  0
  -24.4212   -9.4760   21.9033 C   0  0  0  0  0  0
  -23.6780   -8.2754   22.0676 C   0  0  0  0  0  0
  -22.4753   -8.0710   21.3513 C   0  0  0  0  0  0
  -22.0566   -9.0709   20.4547 C   0  0  0  0  0  0
  -22.8052  -10.2576   20.2901 C   0  0  0  0  0  0
  -21.7074   -6.0988   22.5232 C   0  0  0  0  0  0
  -21.4147   -6.5803   23.8183 C   0  0  0  0  0  0
  -21.3694   -5.6902   24.9119 C   0  0  0  0  0  0
  -21.6019   -4.3153   24.7124 C   0  0  0  0  0  0
  -21.8783   -3.8289   23.4221 C   0  0  0  0  0  0
  -21.9258   -4.7167   22.3326 C   0  0  0  0  0  0
  -22.6675  -13.4998   21.2176 C   0  0  0  0  0  0
  -22.1689   -4.2320   21.0901 F   0  0  0  0  0  0
  -21.5620   -3.4614   25.7609 F   0  0  0  0  0  0
  -30.1090  -12.5382   20.3565 N   0  0  0  0  0  0
  -26.2681  -13.4841   20.6713 N   0  0  0  0  0  0
  -25.9950  -12.0719   20.7235 N   0  0  0  0  0  0
  -21.9558  -12.7536   22.0470 N   0  0  0  0  0  0
  -25.0515  -15.4543   20.8524 N   0  0  0  0  0  0
  -31.9900  -13.7083   21.3325 O   0  0  0  0  0  0
  -21.7021   -6.9284   21.4251 O   0  0  0  0  0  0
  -22.2047  -14.5002   20.6727 O   0  0  0  0  0  0
  -24.6828  -31.8088   23.1641 C   0  0  0  0  0  0
  -25.9476  -32.4437   23.8081 C   0  0  1  0  0  0
  -26.9146  -26.6982   20.0620 C   0  0  0  0  0  0
  -25.6094  -33.8279   24.1962 N   0  0  0  0  0  0
  -23.4783  -30.4468   21.5308 C   0  0  2  0  0  0
  -24.8609  -28.8316   20.0754 C   0  0  0  0  0  0
  -22.7661  -29.4415   22.4751 C   0  0  0  0  0  0
  -18.0300  -28.1394   22.8449 C   0  0  0  0  0  0
  -24.1530  -36.7134   23.2643 C   0  0  0  0  0  0
  -26.0655  -30.5150   21.4334 C   0  0  0  0  0  0
  -26.0664  -29.1048   20.7340 C   0  0  0  0  0  0
  -27.1073  -28.0441   20.7162 C   0  0  0  0  0  0
  -25.7520  -26.6829   19.2999 C   0  0  0  0  0  0
  -24.7381  -27.6492   19.3466 C   0  0  0  0  0  0
  -23.6979  -29.8119   20.1397 C   0  0  0  0  0  0
  -25.4185  -36.2865   24.0267 C   0  0  1  0  0  0
  -20.5933  -28.3750   23.1166 C   0  0  2  0  0  0
  -20.6793  -26.9425   22.5404 C   0  0  0  0  0  0
  -19.5785  -26.6367   21.5204 C   0  0  0  0  0  0
  -18.1953  -26.7924   22.1604 C   0  0  0  0  0  0
  -19.1558  -28.8898   23.2794 C   0  0  0  0  0  0
  -18.9479  -30.1478   23.8849 C   0  0  0  0  0  0
  -17.6479  -30.6591   24.0555 C   0  0  0  0  0  0
  -25.9175  -34.9266   23.4929 C   0  0  0  0  0  0
  -16.5364  -29.9093   23.6340 C   0  0  0  0  0  0
  -16.7287  -28.6506   23.0366 C   0  0  0  0  0  0
  -26.4633  -31.6437   25.0688 C   0  0  0  0  0  0
  -25.3697  -31.3760   26.1294 C   0  0  0  0  0  0
  -27.0534  -30.2736   24.6665 C   0  0  0  0  0  0
  -27.6091  -32.4288   25.7473 C   0  0  0  0  0  0
  -27.5584  -37.1720   24.8464 C   0  0  0  0  0  0
  -21.4319  -29.3017   22.3505 N   0  0  0  0  0  0
  -26.4301  -37.3642   23.9386 N   0  0  0  0  0  0
  -24.7687  -30.9593   22.0882 N   0  0  0  0  0  0
  -23.4206  -28.7942   23.2954 O   0  0  0  0  0  0
  -27.6234  -25.3566   19.9894 O   0  0  0  0  0  0
  -26.5810  -34.8853   22.4542 O   0  0  0  0  0  0
  -23.5881  -32.1249   23.6626 O   0  0  0  0  0  0
  -27.0014  -17.2049   18.9838 C   0  0  0  0  0  0
  -26.2265  -16.0560   18.3954 C   0  0  0  0  0  0
  -25.3725  -18.2977   18.1425 C   0  0  0  0  0  0
  -24.3672  -19.3185   17.7446 C   0  0  0  0  0  0
  -25.4906  -23.8279   20.3758 C   0  0  0  0  0  0
  -27.6245  -23.3433   21.4277 C   0  0  0  0  0  0
  -32.1603  -15.4103   19.2955 C   0  0  0  0  0  0
  -26.2256  -14.1568   18.1759 C   0  0  0  0  0  0
  -27.8025  -12.8762   18.6387 C   0  0  0  0  0  0
  -27.0493  -22.0560   19.1369 C   0  0  0  0  0  0
  -26.8480  -20.2216   19.5662 C   0  0  0  0  0  0
  -29.7741  -14.6110   19.6225 C   0  0  0  0  0  0
  -27.0059  -23.7145   20.0720 C   0  0  0  0  0  0
  -26.4932  -18.6130   18.8483 N   0  0  0  0  0  0
  -25.2379  -16.9248   17.9069 N   0  3  0  0  0  0
  -31.1556  -14.3695   19.5755 N   0  0  0  0  0  0
  -31.2664  -11.8989   18.5577 H   0  0  0  0  0  0
  -29.7233  -11.2742   18.5857 H   0  0  0  0  0  0
  -29.5292  -12.9302   16.5652 H   0  0  0  0  0  0
  -30.7042  -13.9583   17.1494 H   0  0  0  0  0  0
  -27.9224  -14.8426   16.9175 H   0  0  0  0  0  0
  -28.8688  -15.8231   17.6877 H   0  0  0  0  0  0
  -27.5917  -15.2473   20.8788 H   0  0  0  0  0  0
  -28.2225  -12.0805   21.3224 H   0  0  0  0  0  0
  -28.9500  -13.3966   22.0577 H   0  0  0  0  0  0
  -25.3219   -9.6220   22.4814 H   0  0  0  0  0  0
  -24.0401   -7.5199   22.7476 H   0  0  0  0  0  0
  -21.1497   -8.9250   19.8852 H   0  0  0  0  0  0
  -22.4420  -11.0081   19.6022 H   0  0  0  0  0  0
  -21.2179   -7.6320   23.9735 H   0  0  0  0  0  0
  -21.1553   -6.0625   25.9032 H   0  0  0  0  0  0
  -22.0517   -2.7764   23.2643 H   0  0  0  0  0  0
  -22.3575  -11.9434   22.4962 H   0  0  0  0  0  0
  -20.9912  -12.9881   22.2362 H   0  0  0  0  0  0
  -25.7965  -16.0283   20.4859 H   0  0  0  0  0  0
  -24.2187  -15.9859   21.0775 H   0  0  0  0  0  0
  -26.7534  -32.4818   23.0746 H   0  0  0  0  0  0
  -25.0081  -33.9340   25.0003 H   0  0  0  0  0  0
  -22.7999  -31.2888   21.3859 H   0  0  0  0  0  0
  -23.3805  -35.9438   23.3232 H   0  0  0  0  0  0
  -24.3617  -36.8875   22.2068 H   0  0  0  0  0  0
  -23.7274  -37.6289   23.6779 H   0  0  0  0  0  0
  -26.3246  -31.2572   20.6789 H   0  0  0  0  0  0
  -26.9046  -30.5131   22.1154 H   0  0  0  0  0  0
  -28.0101  -28.2040   21.2885 H   0  0  0  0  0  0
  -25.5599  -25.8204   18.6827 H   0  0  0  0  0  0
  -23.8270  -27.4580   18.7944 H   0  0  0  0  0  0
  -23.8930  -30.6035   19.4137 H   0  0  0  0  0  0
  -22.7831  -29.3241   19.7970 H   0  0  0  0  0  0
  -25.1387  -36.1612   25.0759 H   0  0  0  0  0  0
  -21.0016  -28.3346   24.1293 H   0  0  0  0  0  0
  -20.5669  -26.2345   23.3627 H   0  0  0  0  0  0
  -21.6654  -26.7399   22.1207 H   0  0  0  0  0  0
  -19.6959  -25.6268   21.1255 H   0  0  0  0  0  0
  -19.6741  -27.3155   20.6716 H   0  0  0  0  0  0
  -17.4217  -26.6623   21.4017 H   0  0  0  0  0  0
  -18.0378  -26.0094   22.9030 H   0  0  0  0  0  0
  -19.7960  -30.7288   24.2216 H   0  0  0  0  0  0
  -17.5040  -31.6275   24.5147 H   0  0  0  0  0  0
  -15.5371  -30.2995   23.7714 H   0  0  0  0  0  0
  -15.8660  -28.0830   22.7135 H   0  0  0  0  0  0
  -24.5970  -30.7009   25.7607 H   0  0  0  0  0  0
  -24.8802  -32.2965   26.4471 H   0  0  0  0  0  0
  -25.7910  -30.9105   27.0212 H   0  0  0  0  0  0
  -26.3228  -29.6312   24.1752 H   0  0  0  0  0  0
  -27.3957  -29.7240   25.5442 H   0  0  0  0  0  0
  -27.9243  -30.3767   24.0194 H   0  0  0  0  0  0
  -27.2667  -33.3704   26.1789 H   0  0  0  0  0  0
  -28.4023  -32.6653   25.0358 H   0  0  0  0  0  0
  -28.0622  -31.8569   26.5588 H   0  0  0  0  0  0
  -28.2533  -38.0079   24.7540 H   0  0  0  0  0  0
  -28.1155  -36.2596   24.6260 H   0  0  0  0  0  0
  -27.2301  -37.1303   25.8870 H   0  0  0  0  0  0
  -20.9568  -29.8741   21.6657 H   0  0  0  0  0  0
  -26.0104  -38.2679   24.1404 H   0  0  0  0  0  0
  -27.9258  -17.1153   19.5362 H   0  0  0  0  0  0
  -24.8937  -20.1738   17.3187 H   0  0  0  0  0  0
  -23.8181  -19.6198   18.6388 H   0  0  0  0  0  0
  -23.6870  -18.8946   17.0050 H   0  0  0  0  0  0
  -25.1150  -22.9156   20.8415 H   0  0  0  0  0  0
  -24.8974  -23.9501   19.4721 H   0  0  0  0  0  0
  -25.2590  -24.6429   21.0624 H   0  0  0  0  0  0
  -27.2081  -22.4070   21.8106 H   0  0  0  0  0  0
  -27.4220  -24.1094   22.1793 H   0  0  0  0  0  0
  -28.7053  -23.2137   21.3599 H   0  0  0  0  0  0
  -33.1164  -14.9410   19.0750 H   0  0  0  0  0  0
  -32.2887  -16.0809   20.1434 H   0  0  0  0  0  0
  -31.8670  -15.9979   18.4245 H   0  0  0  0  0  0
  -26.0636  -14.0150   17.1052 H   0  0  0  0  0  0
  -25.2557  -13.7460   18.4500 H   0  0  0  0  0  0
  -27.8571  -12.3365   17.6901 H   0  0  0  0  0  0
  -27.6366  -11.9463   19.1625 H   0  0  0  0  0  0
  -26.3141  -22.1962   18.3441 H   0  0  0  0  0  0
  -27.9949  -22.0835   18.5956 H   0  0  0  0  0  0
  -26.0685  -20.2624   20.3285 H   0  0  0  0  0  0
  -27.7532  -20.0096   20.1374 H   0  0  0  0  0  0
  -29.6413  -15.1355   20.5998 H   0  0  0  0  0  0
  -29.8379  -15.6651   19.3322 H   0  0  0  0  0  0
  -24.4163  -16.5606   17.4413 H   0  0  0  0  0  0
  1 25  1  0  0  0
  1 30  2  0  0  0
  1 86  1  0  0  0
  2  3  1  0  0  0
  2 25  1  0  0  0
  2 87  1  0  0  0
  2 88  1  0  0  0
  3  4  1  0  0  0
  3 89  1  0  0  0
  3 90  1  0  0  0
  4  5  1  0  0  0
  4 91  1  0  0  0
  4 92  1  0  0  0
  5  6  1  0  0  0
  5 26  1  0  0  0
  5 93  1  0  0  0
  6 25  1  0  0  0
  6 94  1  0  0  0
  6 95  1  0  0  0
  7  8  2  0  0  0
  7 26  1  0  0  0
  7 29  1  0  0  0
  8  9  1  0  0  0
  8 22  1  0  0  0
  9 10  1  0  0  0
  9 27  2  0  0  0
 10 11  2  0  0  0
 10 15  1  0  0  0
 11 12  1  0  0  0
 11 96  1  0  0  0
 12 13  2  0  0  0
 12 97  1  0  0  0
 13 14  1  0  0  0
 13 31  1  0  0  0
 14 15  2  0  0  0
 14 98  1  0  0  0
 15 99  1  0  0  0
 16 17  2  0  0  0
 16 21  1  0  0  0
 16 31  1  0  0  0
 17 18  1  0  0  0
 17100  1  0  0  0
 18 19  2  0  0  0
 18101  1  0  0  0
 19 20  1  0  0  0
 19 24  1  0  0  0
 20 21  2  0  0  0
 20102  1  0  0  0
 21 23  1  0  0  0
 22 28  1  0  0  0
 22 32  2  0  0  0
 26 27  1  0  0  0
 28103  1  0  0  0
 28104  1  0  0  0
 29105  1  0  0  0
 29106  1  0  0  0
 33 34  1  0  0  0
 33 66  1  0  0  0
 33 70  2  0  0  0
 34 36  1  0  0  0
 34 59  1  0  0  0
 34107  1  0  0  0
 35 44  2  0  0  0
 35 45  1  0  0  0
 35 68  1  0  0  0
 36 56  1  0  0  0
 36108  1  0  0  0
 37 39  1  0  0  0
 37 47  1  0  0  0
 37 66  1  0  0  0
 37109  1  0  0  0
 38 43  2  0  0  0
 38 46  1  0  0  0
 38 47  1  0  0  0
 39 64  1  0  0  0
 39 67  2  0  0  0
 40 52  1  0  0  0
 40 53  2  0  0  0
 40 58  1  0  0  0
 41110  1  0  0  0
 41111  1  0  0  0
 41112  1  0  0  0
 41 48  1  0  0  0
 42 43  1  0  0  0
 42 66  1  0  0  0
 42113  1  0  0  0
 42114  1  0  0  0
 43 44  1  0  0  0
 44115  1  0  0  0
 45 46  2  0  0  0
 45116  1  0  0  0
 46117  1  0  0  0
 47118  1  0  0  0
 47119  1  0  0  0
 48 56  1  0  0  0
 48 65  1  0  0  0
 48120  1  0  0  0
 49 50  1  0  0  0
 49 53  1  0  0  0
 49 64  1  0  0  0
 49121  1  0  0  0
 50 51  1  0  0  0
 50122  1  0  0  0
 50123  1  0  0  0
 51 52  1  0  0  0
 51124  1  0  0  0
 51125  1  0  0  0
 52126  1  0  0  0
 52127  1  0  0  0
 53 54  1  0  0  0
 54 55  2  0  0  0
 54128  1  0  0  0
 55 57  1  0  0  0
 55129  1  0  0  0
 56 69  2  0  0  0
 57 58  2  0  0  0
 57130  1  0  0  0
 58131  1  0  0  0
 59 60  1  0  0  0
 59 61  1  0  0  0
 59 62  1  0  0  0
 60132  1  0  0  0
 60133  1  0  0  0
 60134  1  0  0  0
 61135  1  0  0  0
 61136  1  0  0  0
 61137  1  0  0  0
 62138  1  0  0  0
 62139  1  0  0  0
 62140  1  0  0  0
 63 65  1  0  0  0
 63141  1  0  0  0
 63142  1  0  0  0
 63143  1  0  0  0
 64144  1  0  0  0
 65145  1  0  0  0
 68 83  1  0  0  0
 71 72  2  0  0  0
 71 84  1  0  0  0
 71146  1  0  0  0
 72 78  1  0  0  0
 72 85  1  0  0  0
 73 74  1  0  0  0
 73 84  1  0  0  0
 73 85  2  0  0  0
 74147  1  0  0  0
 74148  1  0  0  0
 74149  1  0  0  0
 75150  1  0  0  0
 75151  1  0  0  0
 75152  1  0  0  0
 75 83  1  0  0  0
 76 83  1  0  0  0
 76153  1  0  0  0
 76154  1  0  0  0
 76155  1  0  0  0
 77 86  1  0  0  0
 77156  1  0  0  0
 77157  1  0  0  0
 77158  1  0  0  0
 78 79  1  0  0  0
 78159  1  0  0  0
 78160  1  0  0  0
 79 82  1  0  0  0
 79161  1  0  0  0
 79162  1  0  0  0
 80 81  1  0  0  0
 80 83  1  0  0  0
 80163  1  0  0  0
 80164  1  0  0  0
 81 84  1  0  0  0
 81165  1  0  0  0
 81166  1  0  0  0
 82 86  1  0  0  0
 82167  1  0  0  0
 82168  1  0  0  0
 85169  1  0  0  0
M  CHG  1  85   1
M  ISO  4   1 100  68 101  83 101  86 100
M  END
> <chiral flag>
0

> <version>
0

> <s_m_source_file>
/data/baiqing/PycharmProjects/Reinvent-master-3.2/result/LINK_invent/BTK/process_docking_weight1_custom_sum_contain_oxygen_bond_distance_aromatic_linkinvent_7_9_3/rearranged_h_0083.sdf

> <i_m_source_file_index>
77

> <r_mmod_Potential_Energy-OPLS-2005>
10140.1455078125

> <r_mmod_Stretch_Energy-OPLS-2005>
5137.85498046875

> <r_mmod_Bend_Energy-OPLS-2005>
1003.15380859375

> <r_mmod_Torsional_Energy-OPLS-2005>
399.529144287109

> <r_mmod_Improper_Torsional_Energy-OPLS-2005>
13.0216054916382

> <r_mmod_Van_der_Waal_Energy-OPLS-2005>
2163.96020507812

> <r_mmod_Electrostatic_Energy-OPLS-2005>
-153.876541137695

> <r_mmod_Solvation_Energy-OPLS-2005>
-410.339050292969

> <b_mmod_Minimization_Converged-OPLS-2005>
0

> <r_mmod_RMS_Derivative-OPLS-2005>
7.89952707290649

$$$$
77
                    3D
 Structure written by MMmdl.
164172  0  0  1  0            999 V2000
  -30.5986  -14.7417   20.4807 C   0  0  0  0  0  0
  -30.4378  -12.4585   19.4652 C   0  0  0  0  0  0
  -29.5115  -12.5129   18.2306 C   0  0  0  0  0  0
  -28.0377  -12.3296   18.6451 C   0  0  0  0  0  0
  -27.6432  -13.2243   19.8505 C   0  0  2  0  0  0
  -28.6890  -13.1432   20.9832 C   0  0  0  0  0  0
  -25.2519  -13.8175   20.5684 C   0  0  0  0  0  0
  -24.1804  -13.0431   20.9211 C   0  0  0  0  0  0
  -24.6386  -11.6906   20.8752 C   0  0  0  0  0  0
  -23.9060  -10.4288   21.0397 C   0  0  0  0  0  0
  -24.3614   -9.4206   21.9173 C   0  0  0  0  0  0
  -23.6294   -8.2241   22.0744 C   0  0  0  0  0  0
  -22.4274   -8.0273   21.3534 C   0  0  0  0  0  0
  -21.9911   -9.0247   20.4638 C   0  0  0  0  0  0
  -22.7237  -10.2127   20.3049 C   0  0  0  0  0  0
  -21.6852   -6.0730   22.5275 C   0  0  0  0  0  0
  -21.4014   -6.5634   23.8210 C   0  0  0  0  0  0
  -21.3666   -5.6785   24.9169 C   0  0  0  0  0  0
  -21.6046   -4.3049   24.7217 C   0  0  0  0  0  0
  -21.8818   -3.8141   23.4341 C   0  0  0  0  0  0
  -21.9193   -4.6958   22.3396 C   0  0  0  0  0  0
  -22.7827  -13.5222   21.1865 C   0  0  0  0  0  0
  -22.1658   -4.2148   21.0973 F   0  0  0  0  0  0
  -21.5637   -3.4532   25.7731 F   0  0  0  0  0  0
  -29.9867  -13.5110   20.4015 N   0  0  0  0  0  0
  -26.2936  -12.9369   20.3270 N   0  0  0  0  0  0
  -25.9313  -11.6517   20.5748 N   0  0  0  0  0  0
  -22.0469  -12.8219   22.0420 N   0  0  0  0  0  0
  -25.4199  -15.1905   20.4097 N   0  0  0  0  0  0
  -31.7864  -14.8566   20.1699 O   0  0  0  0  0  0
  -21.6637   -6.8872   21.4234 O   0  0  0  0  0  0
  -22.3521  -14.5527   20.6709 O   0  0  0  0  0  0
  -24.6315  -31.8532   23.1954 C   0  0  0  0  0  0
  -25.9151  -32.4736   23.8292 C   0  0  1  0  0  0
  -27.2258  -27.2667   20.1202 C   0  0  0  0  0  0
  -25.5956  -33.8540   24.2227 N   0  0  0  0  0  0
  -23.4261  -30.4755   21.5390 C   0  0  2  0  0  0
  -24.8704  -28.9151   20.1092 C   0  0  0  0  0  0
  -22.7490  -29.4607   22.4911 C   0  0  0  0  0  0
  -18.0292  -28.1391   22.8479 C   0  0  0  0  0  0
  -24.1497  -36.7265   23.2639 C   0  0  0  0  0  0
  -25.9699  -30.7680   21.3714 C   0  0  0  0  0  0
  -26.0399  -29.3905   20.7124 C   0  0  0  0  0  0
  -27.2151  -28.5785   20.7037 C   0  0  0  0  0  0
  -26.0229  -26.8393   19.5195 C   0  0  0  0  0  0
  -24.8662  -27.6472   19.5037 C   0  0  0  0  0  0
  -23.6412  -29.8024   20.1564 C   0  0  0  0  0  0
  -25.4128  -36.3060   24.0325 C   0  0  1  0  0  0
  -20.5893  -28.3703   23.1266 C   0  0  2  0  0  0
  -20.6781  -26.9421   22.5406 C   0  0  0  0  0  0
  -19.5758  -26.6384   21.5210 C   0  0  0  0  0  0
  -18.1936  -26.7929   22.1618 C   0  0  0  0  0  0
  -19.1543  -28.8864   23.2863 C   0  0  0  0  0  0
  -18.9468  -30.1464   23.8881 C   0  0  0  0  0  0
  -17.6468  -30.6589   24.0566 C   0  0  0  0  0  0
  -25.9072  -34.9436   23.5076 C   0  0  0  0  0  0
  -16.5360  -29.9088   23.6341 C   0  0  0  0  0  0
  -16.7278  -28.6508   23.0352 C   0  0  0  0  0  0
  -26.4516  -31.6571   25.0691 C   0  0  0  0  0  0
  -25.3743  -31.3726   26.1415 C   0  0  0  0  0  0
  -27.0376  -30.2998   24.6178 C   0  0  0  0  0  0
  -27.6056  -32.4328   25.7463 C   0  0  0  0  0  0
  -27.5581  -37.1789   24.8469 C   0  0  0  0  0  0
  -21.4199  -29.3047   22.3650 N   0  0  0  0  0  0
  -26.4294  -37.3771   23.9411 N   0  0  0  0  0  0
  -24.6952  -31.0507   22.0921 N   0  0  0  0  0  0
  -23.4190  -28.8160   23.3019 O   0  0  0  0  0  0
  -28.3758  -26.4497   20.1920 O   0  0  0  0  0  0
  -26.5633  -34.8919   22.4640 O   0  0  0  0  0  0
  -23.5475  -32.1350   23.7268 O   0  0  0  0  0  0
  -30.8034  -22.7671   20.1025 C   0  0  0  0  0  0
  -31.7503  -21.7648   19.8567 C   0  0  0  0  0  0
  -31.3387  -20.4136   19.7888 C   0  0  0  0  0  0
  -29.4447  -22.4529   20.2588 C   0  0  0  0  0  0
  -29.9936  -20.0645   20.1006 C   0  0  0  0  0  0
  -33.2000  -22.1726   19.6415 C   0  0  0  0  0  0
  -32.3670  -19.3834   19.3300 C   0  0  0  0  0  0
  -31.4195  -17.5539   21.7257 C   0  0  0  0  0  0
  -28.1953  -24.9186   18.1582 C   0  0  0  0  0  0
  -28.4306  -23.6760   20.4730 C   0  0  0  0  0  0
  -29.5314  -18.5204   20.0365 C   0  0  0  0  0  0
  -30.0518  -17.3374   21.0500 C   0  0  1  0  0  0
  -28.6045  -25.0670   19.6350 C   0  0  2  0  0  0
  -29.0719  -21.1025   20.3016 N   0  0  0  0  0  0
  -29.7961  -15.8469   20.7404 N   0  0  0  0  0  0
  -31.4783  -12.5937   19.1643 H   0  0  0  0  0  0
  -30.3879  -11.4784   19.9431 H   0  0  0  0  0  0
  -29.7981  -11.7447   17.5116 H   0  0  0  0  0  0
  -29.6333  -13.4700   17.7209 H   0  0  0  0  0  0
  -27.9012  -11.2803   18.9086 H   0  0  0  0  0  0
  -27.3784  -12.5183   17.7966 H   0  0  0  0  0  0
  -27.6407  -14.2488   19.4780 H   0  0  0  0  0  0
  -28.7306  -12.1374   21.4047 H   0  0  0  0  0  0
  -28.4218  -13.8063   21.8071 H   0  0  0  0  0  0
  -25.2756   -9.5691   22.4752 H   0  0  0  0  0  0
  -24.0004   -7.4635   22.7465 H   0  0  0  0  0  0
  -21.0842   -8.8757   19.8951 H   0  0  0  0  0  0
  -22.3678  -10.9663   19.6164 H   0  0  0  0  0  0
  -21.1995   -7.6140   23.9713 H   0  0  0  0  0  0
  -21.1497   -6.0511   25.9076 H   0  0  0  0  0  0
  -22.0595   -2.7603   23.2832 H   0  0  0  0  0  0
  -22.4086  -11.9899   22.4844 H   0  0  0  0  0  0
  -21.1078  -13.1242   22.2603 H   0  0  0  0  0  0
  -24.6446  -15.8367   20.5120 H   0  0  0  0  0  0
  -26.2540  -15.6341   20.0483 H   0  0  0  0  0  0
  -26.7208  -32.5368   23.1016 H   0  0  0  0  0  0
  -25.0161  -33.9669   25.0414 H   0  0  0  0  0  0
  -22.7234  -31.2980   21.3904 H   0  0  0  0  0  0
  -23.3772  -35.9582   23.3304 H   0  0  0  0  0  0
  -24.3584  -36.8883   22.2052 H   0  0  0  0  0  0
  -23.7233  -37.6457   23.6666 H   0  0  0  0  0  0
  -26.1100  -31.5298   20.6036 H   0  0  0  0  0  0
  -26.8483  -30.8132   22.0036 H   0  0  0  0  0  0
  -28.1145  -28.9428   21.1804 H   0  0  0  0  0  0
  -25.9369  -25.8578   19.0885 H   0  0  0  0  0  0
  -23.9653  -27.2692   19.0412 H   0  0  0  0  0  0
  -23.7618  -30.5745   19.3956 H   0  0  0  0  0  0
  -22.7597  -29.2331   19.8566 H   0  0  0  0  0  0
  -25.1317  -36.1896   25.0816 H   0  0  0  0  0  0
  -20.9984  -28.3286   24.1388 H   0  0  0  0  0  0
  -20.5688  -26.2314   23.3609 H   0  0  0  0  0  0
  -21.6647  -26.7447   22.1195 H   0  0  0  0  0  0
  -19.6924  -25.6294   21.1244 H   0  0  0  0  0  0
  -19.6699  -27.3190   20.6737 H   0  0  0  0  0  0
  -17.4208  -26.6679   21.4018 H   0  0  0  0  0  0
  -18.0335  -26.0066   22.9009 H   0  0  0  0  0  0
  -19.7951  -30.7286   24.2219 H   0  0  0  0  0  0
  -17.5035  -31.6264   24.5176 H   0  0  0  0  0  0
  -15.5364  -30.2991   23.7677 H   0  0  0  0  0  0
  -15.8675  -28.0837   22.7062 H   0  0  0  0  0  0
  -24.5917  -30.7079   25.7745 H   0  0  0  0  0  0
  -24.8942  -32.2902   26.4830 H   0  0  0  0  0  0
  -25.8070  -30.8907   27.0190 H   0  0  0  0  0  0
  -26.2963  -29.6718   24.1230 H   0  0  0  0  0  0
  -27.4101  -29.7290   25.4691 H   0  0  0  0  0  0
  -27.8817  -30.4281   23.9398 H   0  0  0  0  0  0
  -27.2653  -33.3638   26.2007 H   0  0  0  0  0  0
  -28.3879  -32.6872   25.0302 H   0  0  0  0  0  0
  -28.0713  -31.8479   26.5400 H   0  0  0  0  0  0
  -28.2600  -38.0087   24.7529 H   0  0  0  0  0  0
  -28.1077  -36.2620   24.6291 H   0  0  0  0  0  0
  -27.2296  -37.1424   25.8870 H   0  0  0  0  0  0
  -20.9389  -29.8743   21.6829 H   0  0  0  0  0  0
  -26.0170  -38.2837   24.1423 H   0  0  0  0  0  0
  -31.1390  -23.7925   20.1521 H   0  0  0  0  0  0
  -33.5036  -21.9963   18.6101 H   0  0  0  0  0  0
  -33.8615  -21.6094   20.2995 H   0  0  0  0  0  0
  -33.3551  -23.2309   19.8545 H   0  0  0  0  0  0
  -32.8485  -19.7164   18.4102 H   0  0  0  0  0  0
  -31.9462  -18.4075   19.1039 H   0  0  0  0  0  0
  -33.1444  -19.2576   20.0843 H   0  0  0  0  0  0
  -31.5347  -18.5817   22.0708 H   0  0  0  0  0  0
  -32.2519  -17.3189   21.0650 H   0  0  0  0  0  0
  -31.5256  -16.9131   22.6020 H   0  0  0  0  0  0
  -28.8465  -24.2048   17.6526 H   0  0  0  0  0  0
  -28.2732  -25.8649   17.6222 H   0  0  0  0  0  0
  -27.1833  -24.5357   18.0419 H   0  0  0  0  0  0
  -28.5092  -23.9291   21.5299 H   0  0  0  0  0  0
  -27.4128  -23.3096   20.3452 H   0  0  0  0  0  0
  -29.7384  -18.1929   19.0179 H   0  0  0  0  0  0
  -28.4417  -18.5243   20.0806 H   0  0  0  0  0  0
  -29.3795  -17.4905   21.8958 H   0  0  0  0  0  0
  -29.6826  -25.1735   19.5653 H   0  0  0  0  0  0
  -28.8294  -15.5824   20.8607 H   0  0  0  0  0  0
  1 25  1  0  0  0
  1 30  2  0  0  0
  1 85  1  0  0  0
  2  3  1  0  0  0
  2 25  1  0  0  0
  2 86  1  0  0  0
  2 87  1  0  0  0
  3  4  1  0  0  0
  3 88  1  0  0  0
  3 89  1  0  0  0
  4  5  1  0  0  0
  4 90  1  0  0  0
  4 91  1  0  0  0
  5  6  1  0  0  0
  5 26  1  0  0  0
  5 92  1  0  0  0
  6 25  1  0  0  0
  6 93  1  0  0  0
  6 94  1  0  0  0
  7  8  2  0  0  0
  7 26  1  0  0  0
  7 29  1  0  0  0
  8  9  1  0  0  0
  8 22  1  0  0  0
  9 10  1  0  0  0
  9 27  2  0  0  0
 10 11  2  0  0  0
 10 15  1  0  0  0
 11 12  1  0  0  0
 11 95  1  0  0  0
 12 13  2  0  0  0
 12 96  1  0  0  0
 13 14  1  0  0  0
 13 31  1  0  0  0
 14 15  2  0  0  0
 14 97  1  0  0  0
 15 98  1  0  0  0
 16 17  2  0  0  0
 16 21  1  0  0  0
 16 31  1  0  0  0
 17 18  1  0  0  0
 17 99  1  0  0  0
 18 19  2  0  0  0
 18100  1  0  0  0
 19 20  1  0  0  0
 19 24  1  0  0  0
 20 21  2  0  0  0
 20101  1  0  0  0
 21 23  1  0  0  0
 22 28  1  0  0  0
 22 32  2  0  0  0
 26 27  1  0  0  0
 28102  1  0  0  0
 28103  1  0  0  0
 29104  1  0  0  0
 29105  1  0  0  0
 33 34  1  0  0  0
 33 66  1  0  0  0
 33 70  2  0  0  0
 34 36  1  0  0  0
 34 59  1  0  0  0
 34106  1  0  0  0
 35 44  2  0  0  0
 35 45  1  0  0  0
 35 68  1  0  0  0
 36 56  1  0  0  0
 36107  1  0  0  0
 37 39  1  0  0  0
 37 47  1  0  0  0
 37 66  1  0  0  0
 37108  1  0  0  0
 38 43  2  0  0  0
 38 46  1  0  0  0
 38 47  1  0  0  0
 39 64  1  0  0  0
 39 67  2  0  0  0
 40 52  1  0  0  0
 40 53  2  0  0  0
 40 58  1  0  0  0
 41109  1  0  0  0
 41110  1  0  0  0
 41111  1  0  0  0
 41 48  1  0  0  0
 42 43  1  0  0  0
 42 66  1  0  0  0
 42112  1  0  0  0
 42113  1  0  0  0
 43 44  1  0  0  0
 44114  1  0  0  0
 45 46  2  0  0  0
 45115  1  0  0  0
 46116  1  0  0  0
 47117  1  0  0  0
 47118  1  0  0  0
 48 56  1  0  0  0
 48 65  1  0  0  0
 48119  1  0  0  0
 49 50  1  0  0  0
 49 53  1  0  0  0
 49 64  1  0  0  0
 49120  1  0  0  0
 50 51  1  0  0  0
 50121  1  0  0  0
 50122  1  0  0  0
 51 52  1  0  0  0
 51123  1  0  0  0
 51124  1  0  0  0
 52125  1  0  0  0
 52126  1  0  0  0
 53 54  1  0  0  0
 54 55  2  0  0  0
 54127  1  0  0  0
 55 57  1  0  0  0
 55128  1  0  0  0
 56 69  2  0  0  0
 57 58  2  0  0  0
 57129  1  0  0  0
 58130  1  0  0  0
 59 60  1  0  0  0
 59 61  1  0  0  0
 59 62  1  0  0  0
 60131  1  0  0  0
 60132  1  0  0  0
 60133  1  0  0  0
 61134  1  0  0  0
 61135  1  0  0  0
 61136  1  0  0  0
 62137  1  0  0  0
 62138  1  0  0  0
 62139  1  0  0  0
 63 65  1  0  0  0
 63140  1  0  0  0
 63141  1  0  0  0
 63142  1  0  0  0
 64143  1  0  0  0
 65144  1  0  0  0
 68 83  1  0  0  0
 71 72  2  0  0  0
 71 74  1  0  0  0
 71145  1  0  0  0
 72 73  1  0  0  0
 72 76  1  0  0  0
 73 75  2  0  0  0
 73 77  1  0  0  0
 74 80  1  0  0  0
 74 84  2  0  0  0
 75 81  1  0  0  0
 75 84  1  0  0  0
 76146  1  0  0  0
 76147  1  0  0  0
 76148  1  0  0  0
 77149  1  0  0  0
 77150  1  0  0  0
 77151  1  0  0  0
 78152  1  0  0  0
 78153  1  0  0  0
 78154  1  0  0  0
 78 82  1  0  0  0
 79155  1  0  0  0
 79156  1  0  0  0
 79157  1  0  0  0
 79 83  1  0  0  0
 80 83  1  0  0  0
 80158  1  0  0  0
 80159  1  0  0  0
 81 82  1  0  0  0
 81160  1  0  0  0
 81161  1  0  0  0
 82 85  1  0  0  0
 82162  1  0  0  0
 83163  1  0  0  0
 85164  1  0  0  0
M  ISO  4   1 100  68 101  83 101  85 100
M  END
> <chiral flag>
0

> <version>
0

> <s_m_source_file>
/data/baiqing/PycharmProjects/Reinvent-master-3.2/result/LINK_invent/BTK/process_docking_weight1_custom_sum_contain_oxygen_bond_distance_aromatic_linkinvent_7_9_3/rearranged_h_0083.sdf

> <i_m_source_file_index>
78

> <r_mmod_Potential_Energy-OPLS-2005>
144.014312744141

> <r_mmod_Stretch_Energy-OPLS-2005>
144.022659301758

> <r_mmod_Bend_Energy-OPLS-2005>
239.409317016602

> <r_mmod_Torsional_Energy-OPLS-2005>
199.453338623047

> <r_mmod_Improper_Torsional_Energy-OPLS-2005>
4.87921094894409

> <r_mmod_Van_der_Waal_Energy-OPLS-2005>
144.972869873047

> <r_mmod_Electrostatic_Energy-OPLS-2005>
-444.260986328125

> <r_mmod_Solvation_Energy-OPLS-2005>
-223.165679931641

> <b_mmod_Minimization_Converged-OPLS-2005>
0

> <r_mmod_RMS_Derivative-OPLS-2005>
1.48187935352325

$$$$
78
                    3D
 Structure written by MMmdl.
168176  0  0  1  0            999 V2000
  -30.6172  -14.7392   20.4697 C   0  0  0  0  0  0
  -30.4299  -12.4567   19.4698 C   0  0  0  0  0  0
  -29.5077  -12.5154   18.2329 C   0  0  0  0  0  0
  -28.0339  -12.3373   18.6463 C   0  0  0  0  0  0
  -27.6407  -13.2337   19.8509 C   0  0  2  0  0  0
  -28.6858  -13.1654   20.9857 C   0  0  0  0  0  0
  -25.2501  -13.8203   20.5690 C   0  0  0  0  0  0
  -24.1797  -13.0445   20.9213 C   0  0  0  0  0  0
  -24.6394  -11.6924   20.8757 C   0  0  0  0  0  0
  -23.9072  -10.4300   21.0410 C   0  0  0  0  0  0
  -24.3622   -9.4214   21.9183 C   0  0  0  0  0  0
  -23.6300   -8.2247   22.0751 C   0  0  0  0  0  0
  -22.4281   -8.0282   21.3542 C   0  0  0  0  0  0
  -21.9919   -9.0255   20.4644 C   0  0  0  0  0  0
  -22.7247  -10.2137   20.3058 C   0  0  0  0  0  0
  -21.6850   -6.0743   22.5282 C   0  0  0  0  0  0
  -21.4010   -6.5642   23.8215 C   0  0  0  0  0  0
  -21.3662   -5.6791   24.9174 C   0  0  0  0  0  0
  -21.6049   -4.3056   24.7222 C   0  0  0  0  0  0
  -21.8820   -3.8153   23.4344 C   0  0  0  0  0  0
  -21.9192   -4.6970   22.3403 C   0  0  0  0  0  0
  -22.7820  -13.5223   21.1871 C   0  0  0  0  0  0
  -22.1659   -4.2160   21.0978 F   0  0  0  0  0  0
  -21.5636   -3.4537   25.7734 F   0  0  0  0  0  0
  -29.9859  -13.5177   20.4030 N   0  0  0  0  0  0
  -26.2931  -12.9415   20.3283 N   0  0  0  0  0  0
  -25.9325  -11.6555   20.5757 N   0  0  0  0  0  0
  -22.0462  -12.8217   22.0429 N   0  0  0  0  0  0
  -25.4188  -15.1927   20.4093 N   0  0  0  0  0  0
  -31.8057  -14.8308   20.1525 O   0  0  0  0  0  0
  -21.6639   -6.8884   21.4242 O   0  0  0  0  0  0
  -22.3505  -14.5526   20.6712 O   0  0  0  0  0  0
  -24.6314  -31.8552   23.1984 C   0  0  0  0  0  0
  -25.9140  -32.4752   23.8329 C   0  0  1  0  0  0
  -27.2138  -27.2558   20.1337 C   0  0  0  0  0  0
  -25.5938  -33.8555   24.2251 N   0  0  0  0  0  0
  -23.4275  -30.4780   21.5429 C   0  0  2  0  0  0
  -24.8737  -28.9235   20.1133 C   0  0  0  0  0  0
  -22.7501  -29.4602   22.4924 C   0  0  0  0  0  0
  -18.0291  -28.1386   22.8484 C   0  0  0  0  0  0
  -24.1492  -36.7279   23.2640 C   0  0  0  0  0  0
  -25.9744  -30.7658   21.3801 C   0  0  0  0  0  0
  -26.0461  -29.3878   20.7231 C   0  0  0  0  0  0
  -27.2209  -28.5674   20.7201 C   0  0  0  0  0  0
  -26.0223  -26.8669   19.4835 C   0  0  0  0  0  0
  -24.8668  -27.6710   19.4823 C   0  0  0  0  0  0
  -23.6455  -29.8114   20.1598 C   0  0  0  0  0  0
  -25.4120  -36.3067   24.0325 C   0  0  1  0  0  0
  -20.5893  -28.3694   23.1272 C   0  0  2  0  0  0
  -20.6781  -26.9411   22.5409 C   0  0  0  0  0  0
  -19.5757  -26.6380   21.5212 C   0  0  0  0  0  0
  -18.1936  -26.7928   22.1623 C   0  0  0  0  0  0
  -19.1544  -28.8858   23.2871 C   0  0  0  0  0  0
  -18.9466  -30.1461   23.8888 C   0  0  0  0  0  0
  -17.6465  -30.6586   24.0560 C   0  0  0  0  0  0
  -25.9062  -34.9437   23.5092 C   0  0  0  0  0  0
  -16.5354  -29.9082   23.6334 C   0  0  0  0  0  0
  -16.7277  -28.6499   23.0353 C   0  0  0  0  0  0
  -26.4504  -31.6580   25.0722 C   0  0  0  0  0  0
  -25.3720  -31.3731   26.1436 C   0  0  0  0  0  0
  -27.0355  -30.2994   24.6221 C   0  0  0  0  0  0
  -27.6055  -32.4323   25.7496 C   0  0  0  0  0  0
  -27.5582  -37.1795   24.8463 C   0  0  0  0  0  0
  -21.4206  -29.3040   22.3661 N   0  0  0  0  0  0
  -26.4294  -37.3767   23.9407 N   0  0  0  0  0  0
  -24.6968  -31.0515   22.0964 N   0  0  0  0  0  0
  -23.4201  -28.8148   23.3027 O   0  0  0  0  0  0
  -28.3087  -26.3601   20.1605 O   0  0  0  0  0  0
  -26.5635  -34.8913   22.4661 O   0  0  0  0  0  0
  -23.5464  -32.1378   23.7279 O   0  0  0  0  0  0
  -31.9072  -21.2880   17.9079 C   0  0  0  0  0  0
  -31.0686  -21.8867   18.8482 C   0  0  0  0  0  0
  -31.6899  -19.9657   17.5168 C   0  0  0  0  0  0
  -30.0398  -21.1866   19.5256 C   0  0  0  0  0  0
  -30.7056  -19.1934   18.1853 C   0  0  0  0  0  0
  -30.0178  -19.7141   19.3382 C   0  0  0  0  0  0
  -33.7934  -18.6773   16.9164 C   0  0  0  0  0  0
  -29.3623  -17.9584   16.4118 C   0  0  0  0  0  0
  -32.5607  -19.4210   16.3873 C   0  0  0  0  0  0
  -29.0418  -22.1671   20.3006 C   0  0  0  0  0  0
  -30.3504  -17.8224   17.5789 C   0  0  0  0  0  0
  -29.3580  -18.5876   20.2455 C   0  0  0  0  0  0
  -29.1448  -23.7813   19.9846 C   0  0  0  0  0  0
  -30.3234  -17.3446   20.7062 C   0  0  0  0  0  0
  -28.0718  -24.8954   20.4481 C   0  0  0  0  0  0
  -29.8607  -15.8812   20.6975 N   0  0  0  0  0  0
  -31.4708  -12.5810   19.1662 H   0  0  0  0  0  0
  -30.3727  -11.4784   19.9496 H   0  0  0  0  0  0
  -29.7903  -11.7470   17.5119 H   0  0  0  0  0  0
  -29.6329  -13.4730   17.7249 H   0  0  0  0  0  0
  -27.8900  -11.2876   18.9036 H   0  0  0  0  0  0
  -27.3758  -12.5337   17.7991 H   0  0  0  0  0  0
  -27.6352  -14.2565   19.4736 H   0  0  0  0  0  0
  -28.7213  -12.1675   21.4248 H   0  0  0  0  0  0
  -28.4217  -13.8466   21.7959 H   0  0  0  0  0  0
  -25.2767   -9.5692   22.4757 H   0  0  0  0  0  0
  -24.0016   -7.4637   22.7464 H   0  0  0  0  0  0
  -21.0853   -8.8775   19.8948 H   0  0  0  0  0  0
  -22.3703  -10.9676   19.6172 H   0  0  0  0  0  0
  -21.1992   -7.6149   23.9727 H   0  0  0  0  0  0
  -21.1485   -6.0513   25.9078 H   0  0  0  0  0  0
  -22.0597   -2.7617   23.2834 H   0  0  0  0  0  0
  -22.4067  -11.9876   22.4821 H   0  0  0  0  0  0
  -21.1080  -13.1248   22.2628 H   0  0  0  0  0  0
  -24.6486  -15.8439   20.5155 H   0  0  0  0  0  0
  -26.2608  -15.6327   20.0620 H   0  0  0  0  0  0
  -26.7203  -32.5399   23.1068 H   0  0  0  0  0  0
  -25.0076  -33.9690   25.0391 H   0  0  0  0  0  0
  -22.7240  -31.3003   21.3968 H   0  0  0  0  0  0
  -23.3759  -35.9607   23.3296 H   0  0  0  0  0  0
  -24.3582  -36.8910   22.2055 H   0  0  0  0  0  0
  -23.7242  -37.6476   23.6671 H   0  0  0  0  0  0
  -26.1162  -31.5264   20.6109 H   0  0  0  0  0  0
  -26.8505  -30.8128   22.0150 H   0  0  0  0  0  0
  -28.1192  -28.9192   21.2078 H   0  0  0  0  0  0
  -25.9615  -25.9233   18.9629 H   0  0  0  0  0  0
  -23.9722  -27.3140   18.9907 H   0  0  0  0  0  0
  -23.7695  -30.5864   19.4025 H   0  0  0  0  0  0
  -22.7636  -29.2445   19.8565 H   0  0  0  0  0  0
  -25.1305  -36.1911   25.0818 H   0  0  0  0  0  0
  -20.9985  -28.3271   24.1393 H   0  0  0  0  0  0
  -20.5680  -26.2304   23.3614 H   0  0  0  0  0  0
  -21.6650  -26.7439   22.1202 H   0  0  0  0  0  0
  -19.6919  -25.6289   21.1248 H   0  0  0  0  0  0
  -19.6697  -27.3187   20.6738 H   0  0  0  0  0  0
  -17.4208  -26.6675   21.4023 H   0  0  0  0  0  0
  -18.0335  -26.0069   22.9018 H   0  0  0  0  0  0
  -19.7943  -30.7279   24.2253 H   0  0  0  0  0  0
  -17.5018  -31.6268   24.5160 H   0  0  0  0  0  0
  -15.5354  -30.2980   23.7664 H   0  0  0  0  0  0
  -15.8677  -28.0815   22.7074 H   0  0  0  0  0  0
  -24.5895  -30.7085   25.7757 H   0  0  0  0  0  0
  -24.8912  -32.2901   26.4852 H   0  0  0  0  0  0
  -25.8026  -30.8908   27.0220 H   0  0  0  0  0  0
  -26.2946  -29.6732   24.1239 H   0  0  0  0  0  0
  -27.4024  -29.7268   25.4749 H   0  0  0  0  0  0
  -27.8829  -30.4263   23.9479 H   0  0  0  0  0  0
  -27.2663  -33.3630   26.2057 H   0  0  0  0  0  0
  -28.3874  -32.6872   25.0330 H   0  0  0  0  0  0
  -28.0714  -31.8458   26.5426 H   0  0  0  0  0  0
  -28.2593  -38.0098   24.7519 H   0  0  0  0  0  0
  -28.1085  -36.2630   24.6282 H   0  0  0  0  0  0
  -27.2300  -37.1432   25.8865 H   0  0  0  0  0  0
  -20.9396  -29.8753   21.6855 H   0  0  0  0  0  0
  -26.0170  -38.2841   24.1408 H   0  0  0  0  0  0
  -32.6687  -21.8840   17.4234 H   0  0  0  0  0  0
  -31.2444  -22.9383   19.0021 H   0  0  0  0  0  0
  -34.4044  -18.3053   16.0937 H   0  0  0  0  0  0
  -33.5145  -17.8226   17.5329 H   0  0  0  0  0  0
  -34.4176  -19.3342   17.5228 H   0  0  0  0  0  0
  -29.1437  -16.9843   15.9733 H   0  0  0  0  0  0
  -29.7460  -18.5988   15.6183 H   0  0  0  0  0  0
  -28.4194  -18.3871   16.7506 H   0  0  0  0  0  0
  -32.8905  -20.2507   15.7604 H   0  0  0  0  0  0
  -31.9941  -18.7788   15.7157 H   0  0  0  0  0  0
  -29.1660  -22.0038   21.3712 H   0  0  0  0  0  0
  -28.0294  -21.8366   20.0663 H   0  0  0  0  0  0
  -29.8930  -17.1264   18.2703 H   0  0  0  0  0  0
  -31.2497  -17.3012   17.2548 H   0  0  0  0  0  0
  -28.4894  -18.2003   19.7118 H   0  0  0  0  0  0
  -28.9471  -19.0650   21.1355 H   0  0  0  0  0  0
  -29.1966  -23.8891   18.9009 H   0  0  0  0  0  0
  -30.1038  -24.1290   20.3681 H   0  0  0  0  0  0
  -30.6614  -17.5587   21.7211 H   0  0  0  0  0  0
  -31.2459  -17.3890   20.1271 H   0  0  0  0  0  0
  -27.9690  -24.8196   21.5309 H   0  0  0  0  0  0
  -27.1105  -24.5664   20.0613 H   0  0  0  0  0  0
  -28.8872  -15.7215   20.9095 H   0  0  0  0  0  0
  1 25  1  0  0  0
  1 30  2  0  0  0
  1 86  1  0  0  0
  2  3  1  0  0  0
  2 25  1  0  0  0
  2 87  1  0  0  0
  2 88  1  0  0  0
  3  4  1  0  0  0
  3 89  1  0  0  0
  3 90  1  0  0  0
  4  5  1  0  0  0
  4 91  1  0  0  0
  4 92  1  0  0  0
  5  6  1  0  0  0
  5 26  1  0  0  0
  5 93  1  0  0  0
  6 25  1  0  0  0
  6 94  1  0  0  0
  6 95  1  0  0  0
  7  8  2  0  0  0
  7 26  1  0  0  0
  7 29  1  0  0  0
  8  9  1  0  0  0
  8 22  1  0  0  0
  9 10  1  0  0  0
  9 27  2  0  0  0
 10 11  2  0  0  0
 10 15  1  0  0  0
 11 12  1  0  0  0
 11 96  1  0  0  0
 12 13  2  0  0  0
 12 97  1  0  0  0
 13 14  1  0  0  0
 13 31  1  0  0  0
 14 15  2  0  0  0
 14 98  1  0  0  0
 15 99  1  0  0  0
 16 17  2  0  0  0
 16 21  1  0  0  0
 16 31  1  0  0  0
 17 18  1  0  0  0
 17100  1  0  0  0
 18 19  2  0  0  0
 18101  1  0  0  0
 19 20  1  0  0  0
 19 24  1  0  0  0
 20 21  2  0  0  0
 20102  1  0  0  0
 21 23  1  0  0  0
 22 28  1  0  0  0
 22 32  2  0  0  0
 26 27  1  0  0  0
 28103  1  0  0  0
 28104  1  0  0  0
 29105  1  0  0  0
 29106  1  0  0  0
 33 34  1  0  0  0
 33 66  1  0  0  0
 33 70  2  0  0  0
 34 36  1  0  0  0
 34 59  1  0  0  0
 34107  1  0  0  0
 35 44  2  0  0  0
 35 45  1  0  0  0
 35 68  1  0  0  0
 36 56  1  0  0  0
 36108  1  0  0  0
 37 39  1  0  0  0
 37 47  1  0  0  0
 37 66  1  0  0  0
 37109  1  0  0  0
 38 43  2  0  0  0
 38 46  1  0  0  0
 38 47  1  0  0  0
 39 64  1  0  0  0
 39 67  2  0  0  0
 40 52  1  0  0  0
 40 53  2  0  0  0
 40 58  1  0  0  0
 41110  1  0  0  0
 41111  1  0  0  0
 41112  1  0  0  0
 41 48  1  0  0  0
 42 43  1  0  0  0
 42 66  1  0  0  0
 42113  1  0  0  0
 42114  1  0  0  0
 43 44  1  0  0  0
 44115  1  0  0  0
 45 46  2  0  0  0
 45116  1  0  0  0
 46117  1  0  0  0
 47118  1  0  0  0
 47119  1  0  0  0
 48 56  1  0  0  0
 48 65  1  0  0  0
 48120  1  0  0  0
 49 50  1  0  0  0
 49 53  1  0  0  0
 49 64  1  0  0  0
 49121  1  0  0  0
 50 51  1  0  0  0
 50122  1  0  0  0
 50123  1  0  0  0
 51 52  1  0  0  0
 51124  1  0  0  0
 51125  1  0  0  0
 52126  1  0  0  0
 52127  1  0  0  0
 53 54  1  0  0  0
 54 55  2  0  0  0
 54128  1  0  0  0
 55 57  1  0  0  0
 55129  1  0  0  0
 56 69  2  0  0  0
 57 58  2  0  0  0
 57130  1  0  0  0
 58131  1  0  0  0
 59 60  1  0  0  0
 59 61  1  0  0  0
 59 62  1  0  0  0
 60132  1  0  0  0
 60133  1  0  0  0
 60134  1  0  0  0
 61135  1  0  0  0
 61136  1  0  0  0
 61137  1  0  0  0
 62138  1  0  0  0
 62139  1  0  0  0
 62140  1  0  0  0
 63 65  1  0  0  0
 63141  1  0  0  0
 63142  1  0  0  0
 63143  1  0  0  0
 64144  1  0  0  0
 65145  1  0  0  0
 68 85  1  0  0  0
 71 72  2  0  0  0
 71 73  1  0  0  0
 71146  1  0  0  0
 72 74  1  0  0  0
 72147  1  0  0  0
 73 75  2  0  0  0
 73 79  1  0  0  0
 74 76  2  0  0  0
 74 80  1  0  0  0
 75 76  1  0  0  0
 75 81  1  0  0  0
 76 82  1  0  0  0
 77 79  1  0  0  0
 77148  1  0  0  0
 77149  1  0  0  0
 77150  1  0  0  0
 78 81  1  0  0  0
 78151  1  0  0  0
 78152  1  0  0  0
 78153  1  0  0  0
 79154  1  0  0  0
 79155  1  0  0  0
 80 83  1  0  0  0
 80156  1  0  0  0
 80157  1  0  0  0
 81158  1  0  0  0
 81159  1  0  0  0
 82 84  1  0  0  0
 82160  1  0  0  0
 82161  1  0  0  0
 83 85  1  0  0  0
 83162  1  0  0  0
 83163  1  0  0  0
 84 86  1  0  0  0
 84164  1  0  0  0
 84165  1  0  0  0
 85166  1  0  0  0
 85167  1  0  0  0
 86168  1  0  0  0
M  ISO  4   1 100  68 101  85 101  86 100
M  END
> <chiral flag>
0

> <version>
0

> <s_m_source_file>
/data/baiqing/PycharmProjects/Reinvent-master-3.2/result/LINK_invent/BTK/process_docking_weight1_custom_sum_contain_oxygen_bond_distance_aromatic_linkinvent_7_9_3/rearranged_h_0083.sdf

> <i_m_source_file_index>
79

> <r_mmod_Potential_Energy-OPLS-2005>
234.991195678711

> <r_mmod_Stretch_Energy-OPLS-2005>
149.739974975586

> <r_mmod_Bend_Energy-OPLS-2005>
188.938735961914

> <r_mmod_Torsional_Energy-OPLS-2005>
268.523590087891

> <r_mmod_Improper_Torsional_Energy-OPLS-2005>
4.65870904922485

> <r_mmod_Van_der_Waal_Energy-OPLS-2005>
155.391815185547

> <r_mmod_Electrostatic_Energy-OPLS-2005>
-410.855712890625

> <r_mmod_Solvation_Energy-OPLS-2005>
-205.959747314453

> <b_mmod_Minimization_Converged-OPLS-2005>
0

> <r_mmod_RMS_Derivative-OPLS-2005>
0.730265617370605

$$$$
79
                    3D
 Structure written by MMmdl.
163171  0  0  1  0            999 V2000
  -30.6104  -14.7206   20.4530 C   0  0  0  0  0  0
  -30.4271  -12.4332   19.4497 C   0  0  0  0  0  0
  -29.4937  -12.4684   18.2190 C   0  0  0  0  0  0
  -28.0262  -12.2958   18.6555 C   0  0  0  0  0  0
  -27.6405  -13.2137   19.8439 C   0  0  2  0  0  0
  -28.6895  -13.1465   20.9732 C   0  0  0  0  0  0
  -25.2545  -13.8159   20.5700 C   0  0  0  0  0  0
  -24.1812  -13.0408   20.9216 C   0  0  0  0  0  0
  -24.6373  -11.6894   20.8750 C   0  0  0  0  0  0
  -23.9035  -10.4271   21.0403 C   0  0  0  0  0  0
  -24.3588   -9.4196   21.9180 C   0  0  0  0  0  0
  -23.6264   -8.2230   22.0756 C   0  0  0  0  0  0
  -22.4262   -8.0253   21.3535 C   0  0  0  0  0  0
  -21.9893   -9.0228   20.4644 C   0  0  0  0  0  0
  -22.7212  -10.2111   20.3052 C   0  0  0  0  0  0
  -21.6849   -6.0707   22.5262 C   0  0  0  0  0  0
  -21.4011   -6.5629   23.8191 C   0  0  0  0  0  0
  -21.3664   -5.6787   24.9161 C   0  0  0  0  0  0
  -21.6046   -4.3054   24.7224 C   0  0  0  0  0  0
  -21.8821   -3.8132   23.4357 C   0  0  0  0  0  0
  -21.9203   -4.6930   22.3401 C   0  0  0  0  0  0
  -22.7855  -13.5222   21.1873 C   0  0  0  0  0  0
  -22.1669   -4.2114   21.0971 F   0  0  0  0  0  0
  -21.5640   -3.4538   25.7743 F   0  0  0  0  0  0
  -29.9862  -13.4969   20.3763 N   0  0  0  0  0  0
  -26.2935  -12.9319   20.3285 N   0  0  0  0  0  0
  -25.9292  -11.6486   20.5768 N   0  0  0  0  0  0
  -22.0517  -12.8176   22.0423 N   0  0  0  0  0  0
  -25.4296  -15.1855   20.4107 N   0  0  0  0  0  0
  -31.8088  -14.8319   20.1844 O   0  0  0  0  0  0
  -21.6649   -6.8844   21.4215 O   0  0  0  0  0  0
  -22.3542  -14.5537   20.6747 O   0  0  0  0  0  0
  -24.6264  -31.8546   23.1906 C   0  0  0  0  0  0
  -25.9075  -32.4773   23.8275 C   0  0  1  0  0  0
  -27.2398  -27.2546   20.1579 C   0  0  0  0  0  0
  -25.5815  -33.8568   24.2189 N   0  0  0  0  0  0
  -23.4295  -30.4715   21.5312 C   0  0  2  0  0  0
  -24.8877  -28.9182   20.1001 C   0  0  0  0  0  0
  -22.7492  -29.4609   22.4860 C   0  0  0  0  0  0
  -18.0260  -28.1387   22.8473 C   0  0  0  0  0  0
  -24.1452  -36.7379   23.2661 C   0  0  0  0  0  0
  -25.9689  -30.7666   21.3698 C   0  0  0  0  0  0
  -26.0522  -29.3851   20.7260 C   0  0  0  0  0  0
  -27.2286  -28.5647   20.7466 C   0  0  0  0  0  0
  -26.0596  -26.8658   19.4794 C   0  0  0  0  0  0
  -24.9030  -27.6711   19.4566 C   0  0  0  0  0  0
  -23.6479  -29.7935   20.1511 C   0  0  0  0  0  0
  -25.4077  -36.3125   24.0330 C   0  0  1  0  0  0
  -20.5871  -28.3738   23.1221 C   0  0  2  0  0  0
  -20.6790  -26.9456   22.5379 C   0  0  0  0  0  0
  -19.5744  -26.6382   21.5200 C   0  0  0  0  0  0
  -18.1908  -26.7910   22.1611 C   0  0  0  0  0  0
  -19.1519  -28.8859   23.2840 C   0  0  0  0  0  0
  -18.9449  -30.1437   23.8898 C   0  0  0  0  0  0
  -17.6461  -30.6610   24.0538 C   0  0  0  0  0  0
  -25.9027  -34.9484   23.5108 C   0  0  0  0  0  0
  -16.5351  -29.9114   23.6315 C   0  0  0  0  0  0
  -16.7256  -28.6509   23.0370 C   0  0  0  0  0  0
  -26.4420  -31.6614   25.0706 C   0  0  0  0  0  0
  -25.3585  -31.3766   26.1394 C   0  0  0  0  0  0
  -27.0324  -30.3062   24.6191 C   0  0  0  0  0  0
  -27.5921  -32.4422   25.7470 C   0  0  0  0  0  0
  -27.5569  -37.1824   24.8452 C   0  0  0  0  0  0
  -21.4189  -29.3112   22.3632 N   0  0  0  0  0  0
  -26.4279  -37.3803   23.9409 N   0  0  0  0  0  0
  -24.6946  -31.0487   22.0893 N   0  0  0  0  0  0
  -23.4181  -28.8124   23.2944 O   0  0  0  0  0  0
  -28.3368  -26.3595   20.2695 O   0  0  0  0  0  0
  -26.5660  -34.8986   22.4715 O   0  0  0  0  0  0
  -23.5404  -32.1357   23.7209 O   0  0  0  0  0  0
  -27.8917  -20.2828   19.5868 C   0  0  0  0  0  0
  -29.7544  -21.0946   20.3983 C   0  0  0  0  0  0
  -29.1990  -19.8758   19.9751 C   0  0  0  0  0  0
  -27.7064  -21.6383   19.7088 C   0  0  0  0  0  0
  -26.4637  -22.3752   19.3193 C   0  0  0  0  0  0
  -30.7781  -18.3613   18.6284 C   0  0  0  0  0  0
  -29.1485  -23.7058   22.1723 C   0  0  0  0  0  0
  -30.5326  -24.1166   20.1224 C   0  0  0  0  0  0
  -30.1035  -17.3146   20.8660 C   0  0  0  0  0  0
  -28.1106  -24.8761   20.1044 C   0  0  0  0  0  0
  -29.7019  -18.3698   19.7199 C   0  0  1  0  0  0
  -29.1321  -23.7045   20.6255 C   0  0  0  0  0  0
  -28.8709  -22.2219   20.2278 N   0  0  0  0  0  0
  -29.8088  -15.8312   20.6350 N   0  0  0  0  0  0
  -31.4690  -12.5533   19.1439 H   0  0  0  0  0  0
  -30.3655  -11.4601   19.9396 H   0  0  0  0  0  0
  -29.7589  -11.6705   17.5253 H   0  0  0  0  0  0
  -29.6139  -13.4044   17.6705 H   0  0  0  0  0  0
  -27.8989  -11.2533   18.9491 H   0  0  0  0  0  0
  -27.3491  -12.4512   17.8154 H   0  0  0  0  0  0
  -27.6348  -14.2303   19.4496 H   0  0  0  0  0  0
  -28.7287  -12.1501   21.4125 H   0  0  0  0  0  0
  -28.4314  -13.8262   21.7859 H   0  0  0  0  0  0
  -25.2722   -9.5686   22.4769 H   0  0  0  0  0  0
  -23.9979   -7.4628   22.7481 H   0  0  0  0  0  0
  -21.0827   -8.8730   19.8933 H   0  0  0  0  0  0
  -22.3649  -10.9651   19.6172 H   0  0  0  0  0  0
  -21.1987   -7.6136   23.9666 H   0  0  0  0  0  0
  -21.1492   -6.0536   25.9059 H   0  0  0  0  0  0
  -22.0603   -2.7587   23.2868 H   0  0  0  0  0  0
  -22.4176  -11.9809   22.4735 H   0  0  0  0  0  0
  -21.1142  -13.1176   22.2691 H   0  0  0  0  0  0
  -24.6630  -15.8421   20.5163 H   0  0  0  0  0  0
  -26.2735  -15.6178   20.0574 H   0  0  0  0  0  0
  -26.7164  -32.5461   23.1036 H   0  0  0  0  0  0
  -24.9734  -33.9627   25.0186 H   0  0  0  0  0  0
  -22.7293  -31.2938   21.3814 H   0  0  0  0  0  0
  -23.3710  -35.9717   23.3283 H   0  0  0  0  0  0
  -24.3501  -36.9080   22.2085 H   0  0  0  0  0  0
  -23.7219  -37.6581   23.6720 H   0  0  0  0  0  0
  -26.0869  -31.5071   20.5778 H   0  0  0  0  0  0
  -26.8532  -30.8415   21.9913 H   0  0  0  0  0  0
  -28.1127  -28.9056   21.2699 H   0  0  0  0  0  0
  -25.9972  -25.9122   18.9776 H   0  0  0  0  0  0
  -24.0215  -27.3138   18.9412 H   0  0  0  0  0  0
  -23.7474  -30.5589   19.3812 H   0  0  0  0  0  0
  -22.7709  -29.2080   19.8685 H   0  0  0  0  0  0
  -25.1246  -36.1996   25.0814 H   0  0  0  0  0  0
  -20.9915  -28.3351   24.1348 H   0  0  0  0  0  0
  -20.5703  -26.2354   23.3597 H   0  0  0  0  0  0
  -21.6646  -26.7503   22.1132 H   0  0  0  0  0  0
  -19.6930  -25.6277   21.1243 H   0  0  0  0  0  0
  -19.6666  -27.3158   20.6688 H   0  0  0  0  0  0
  -17.4179  -26.6599   21.4034 H   0  0  0  0  0  0
  -18.0345  -26.0052   22.8999 H   0  0  0  0  0  0
  -19.7953  -30.7187   24.2318 H   0  0  0  0  0  0
  -17.5073  -31.6283   24.5153 H   0  0  0  0  0  0
  -15.5365  -30.3043   23.7688 H   0  0  0  0  0  0
  -15.8615  -28.0840   22.7148 H   0  0  0  0  0  0
  -24.5670  -30.7275   25.7638 H   0  0  0  0  0  0
  -24.8875  -32.2968   26.4885 H   0  0  0  0  0  0
  -25.7809  -30.8803   27.0139 H   0  0  0  0  0  0
  -26.2950  -29.6778   24.1208 H   0  0  0  0  0  0
  -27.4054  -29.7368   25.4711 H   0  0  0  0  0  0
  -27.8765  -30.4406   23.9424 H   0  0  0  0  0  0
  -27.2453  -33.3695   26.2028 H   0  0  0  0  0  0
  -28.3689  -32.7041   25.0285 H   0  0  0  0  0  0
  -28.0638  -31.8605   26.5404 H   0  0  0  0  0  0
  -28.2560  -38.0145   24.7535 H   0  0  0  0  0  0
  -28.1083  -36.2692   24.6211 H   0  0  0  0  0  0
  -27.2272  -37.1379   25.8843 H   0  0  0  0  0  0
  -20.9398  -29.8934   21.6909 H   0  0  0  0  0  0
  -26.0204  -38.2897   24.1382 H   0  0  0  0  0  0
  -27.1421  -19.6158   19.1819 H   0  0  0  0  0  0
  -30.7470  -21.2773   20.7874 H   0  0  0  0  0  0
  -25.7125  -21.6814   18.9416 H   0  0  0  0  0  0
  -26.6556  -23.0835   18.5153 H   0  0  0  0  0  0
  -26.0124  -22.8871   20.1659 H   0  0  0  0  0  0
  -30.4186  -18.8637   17.7295 H   0  0  0  0  0  0
  -31.0576  -17.3439   18.3522 H   0  0  0  0  0  0
  -31.6784  -18.8779   18.9593 H   0  0  0  0  0  0
  -29.3878  -24.6807   22.5969 H   0  0  0  0  0  0
  -29.8856  -23.0033   22.5672 H   0  0  0  0  0  0
  -28.1832  -23.3991   22.5783 H   0  0  0  0  0  0
  -30.7784  -25.1381   20.4177 H   0  0  0  0  0  0
  -30.5885  -24.0685   19.0352 H   0  0  0  0  0  0
  -31.3179  -23.4787   20.5249 H   0  0  0  0  0  0
  -29.5644  -17.5820   21.7757 H   0  0  0  0  0  0
  -31.1590  -17.4300   21.1155 H   0  0  0  0  0  0
  -27.1514  -24.6807   20.5785 H   0  0  0  0  0  0
  -27.9727  -24.7318   19.0337 H   0  0  0  0  0  0
  -28.8294  -17.9080   19.2542 H   0  0  0  0  0  0
  -28.8286  -15.5983   20.7033 H   0  0  0  0  0  0
  1 25  1  0  0  0
  1 30  2  0  0  0
  1 84  1  0  0  0
  2  3  1  0  0  0
  2 25  1  0  0  0
  2 85  1  0  0  0
  2 86  1  0  0  0
  3  4  1  0  0  0
  3 87  1  0  0  0
  3 88  1  0  0  0
  4  5  1  0  0  0
  4 89  1  0  0  0
  4 90  1  0  0  0
  5  6  1  0  0  0
  5 26  1  0  0  0
  5 91  1  0  0  0
  6 25  1  0  0  0
  6 92  1  0  0  0
  6 93  1  0  0  0
  7  8  2  0  0  0
  7 26  1  0  0  0
  7 29  1  0  0  0
  8  9  1  0  0  0
  8 22  1  0  0  0
  9 10  1  0  0  0
  9 27  2  0  0  0
 10 11  2  0  0  0
 10 15  1  0  0  0
 11 12  1  0  0  0
 11 94  1  0  0  0
 12 13  2  0  0  0
 12 95  1  0  0  0
 13 14  1  0  0  0
 13 31  1  0  0  0
 14 15  2  0  0  0
 14 96  1  0  0  0
 15 97  1  0  0  0
 16 17  2  0  0  0
 16 21  1  0  0  0
 16 31  1  0  0  0
 17 18  1  0  0  0
 17 98  1  0  0  0
 18 19  2  0  0  0
 18 99  1  0  0  0
 19 20  1  0  0  0
 19 24  1  0  0  0
 20 21  2  0  0  0
 20100  1  0  0  0
 21 23  1  0  0  0
 22 28  1  0  0  0
 22 32  2  0  0  0
 26 27  1  0  0  0
 28101  1  0  0  0
 28102  1  0  0  0
 29103  1  0  0  0
 29104  1  0  0  0
 33 34  1  0  0  0
 33 66  1  0  0  0
 33 70  2  0  0  0
 34 36  1  0  0  0
 34 59  1  0  0  0
 34105  1  0  0  0
 35 44  2  0  0  0
 35 45  1  0  0  0
 35 68  1  0  0  0
 36 56  1  0  0  0
 36106  1  0  0  0
 37 39  1  0  0  0
 37 47  1  0  0  0
 37 66  1  0  0  0
 37107  1  0  0  0
 38 43  2  0  0  0
 38 46  1  0  0  0
 38 47  1  0  0  0
 39 64  1  0  0  0
 39 67  2  0  0  0
 40 52  1  0  0  0
 40 53  2  0  0  0
 40 58  1  0  0  0
 41108  1  0  0  0
 41109  1  0  0  0
 41110  1  0  0  0
 41 48  1  0  0  0
 42 43  1  0  0  0
 42 66  1  0  0  0
 42111  1  0  0  0
 42112  1  0  0  0
 43 44  1  0  0  0
 44113  1  0  0  0
 45 46  2  0  0  0
 45114  1  0  0  0
 46115  1  0  0  0
 47116  1  0  0  0
 47117  1  0  0  0
 48 56  1  0  0  0
 48 65  1  0  0  0
 48118  1  0  0  0
 49 50  1  0  0  0
 49 53  1  0  0  0
 49 64  1  0  0  0
 49119  1  0  0  0
 50 51  1  0  0  0
 50120  1  0  0  0
 50121  1  0  0  0
 51 52  1  0  0  0
 51122  1  0  0  0
 51123  1  0  0  0
 52124  1  0  0  0
 52125  1  0  0  0
 53 54  1  0  0  0
 54 55  2  0  0  0
 54126  1  0  0  0
 55 57  1  0  0  0
 55127  1  0  0  0
 56 69  2  0  0  0
 57 58  2  0  0  0
 57128  1  0  0  0
 58129  1  0  0  0
 59 60  1  0  0  0
 59 61  1  0  0  0
 59 62  1  0  0  0
 60130  1  0  0  0
 60131  1  0  0  0
 60132  1  0  0  0
 61133  1  0  0  0
 61134  1  0  0  0
 61135  1  0  0  0
 62136  1  0  0  0
 62137  1  0  0  0
 62138  1  0  0  0
 63 65  1  0  0  0
 63139  1  0  0  0
 63140  1  0  0  0
 63141  1  0  0  0
 64142  1  0  0  0
 65143  1  0  0  0
 68 80  1  0  0  0
 71 73  1  0  0  0
 71 74  2  0  0  0
 71144  1  0  0  0
 72 73  2  0  0  0
 72 83  1  0  0  0
 72145  1  0  0  0
 73 81  1  0  0  0
 74 75  1  0  0  0
 74 83  1  0  0  0
 75146  1  0  0  0
 75147  1  0  0  0
 75148  1  0  0  0
 76149  1  0  0  0
 76150  1  0  0  0
 76151  1  0  0  0
 76 81  1  0  0  0
 77152  1  0  0  0
 77153  1  0  0  0
 77154  1  0  0  0
 77 82  1  0  0  0
 78 82  1  0  0  0
 78155  1  0  0  0
 78156  1  0  0  0
 78157  1  0  0  0
 79 81  1  0  0  0
 79 84  1  0  0  0
 79158  1  0  0  0
 79159  1  0  0  0
 80 82  1  0  0  0
 80160  1  0  0  0
 80161  1  0  0  0
 81162  1  0  0  0
 82 83  1  0  0  0
 84163  1  0  0  0
M  ISO  4   1 100  68 101  80 101  84 100
M  END
> <chiral flag>
0

> <version>
0

> <s_m_source_file>
/data/baiqing/PycharmProjects/Reinvent-master-3.2/result/LINK_invent/BTK/process_docking_weight1_custom_sum_contain_oxygen_bond_distance_aromatic_linkinvent_7_9_3/rearranged_h_0083.sdf

> <i_m_source_file_index>
80

> <r_mmod_Potential_Energy-OPLS-2005>
182.178207397461

> <r_mmod_Stretch_Energy-OPLS-2005>
133.849197387695

> <r_mmod_Bend_Energy-OPLS-2005>
201.915069580078

> <r_mmod_Torsional_Energy-OPLS-2005>
262.623413085938

> <r_mmod_Improper_Torsional_Energy-OPLS-2005>
5.52178716659546

> <r_mmod_Van_der_Waal_Energy-OPLS-2005>
117.013038635254

> <r_mmod_Electrostatic_Energy-OPLS-2005>
-423.859558105469

> <r_mmod_Solvation_Energy-OPLS-2005>
-202.24723815918

> <b_mmod_Minimization_Converged-OPLS-2005>
0

> <r_mmod_RMS_Derivative-OPLS-2005>
5.4179310798645

$$$$
80
                    3D
 Structure written by MMmdl.
166174  0  0  1  0            999 V2000
  -30.6026  -14.7702   20.4570 C   0  0  0  0  0  0
  -30.4438  -12.4815   19.4465 C   0  0  0  0  0  0
  -29.5096  -12.5104   18.2177 C   0  0  0  0  0  0
  -28.0348  -12.3345   18.6380 C   0  0  0  0  0  0
  -27.6379  -13.2348   19.8383 C   0  0  2  0  0  0
  -28.6907  -13.1751   20.9631 C   0  0  0  0  0  0
  -25.2483  -13.8201   20.5661 C   0  0  0  0  0  0
  -24.1781  -13.0444   20.9213 C   0  0  0  0  0  0
  -24.6387  -11.6921   20.8749 C   0  0  0  0  0  0
  -23.9070  -10.4295   21.0412 C   0  0  0  0  0  0
  -24.3614   -9.4211   21.9187 C   0  0  0  0  0  0
  -23.6301   -8.2239   22.0753 C   0  0  0  0  0  0
  -22.4282   -8.0271   21.3541 C   0  0  0  0  0  0
  -21.9918   -9.0252   20.4645 C   0  0  0  0  0  0
  -22.7246  -10.2135   20.3057 C   0  0  0  0  0  0
  -21.6862   -6.0726   22.5269 C   0  0  0  0  0  0
  -21.4010   -6.5630   23.8201 C   0  0  0  0  0  0
  -21.3657   -5.6784   24.9163 C   0  0  0  0  0  0
  -21.6047   -4.3050   24.7216 C   0  0  0  0  0  0
  -21.8821   -3.8140   23.4339 C   0  0  0  0  0  0
  -21.9190   -4.6953   22.3398 C   0  0  0  0  0  0
  -22.7790  -13.5226   21.1863 C   0  0  0  0  0  0
  -22.1660   -4.2138   21.0976 F   0  0  0  0  0  0
  -21.5641   -3.4536   25.7732 F   0  0  0  0  0  0
  -29.9816  -13.5431   20.3647 N   0  0  0  0  0  0
  -26.2921  -12.9416   20.3233 N   0  0  0  0  0  0
  -25.9320  -11.6558   20.5736 N   0  0  0  0  0  0
  -22.0412  -12.8232   22.0415 N   0  0  0  0  0  0
  -25.4154  -15.1922   20.4022 N   0  0  0  0  0  0
  -31.8146  -14.8666   20.2543 O   0  0  0  0  0  0
  -21.6655   -6.8871   21.4231 O   0  0  0  0  0  0
  -22.3472  -14.5523   20.6698 O   0  0  0  0  0  0
  -24.6343  -31.8536   23.1979 C   0  0  0  0  0  0
  -25.9147  -32.4757   23.8343 C   0  0  1  0  0  0
  -27.2248  -27.2450   20.1340 C   0  0  0  0  0  0
  -25.5940  -33.8560   24.2263 N   0  0  0  0  0  0
  -23.4334  -30.4778   21.5400 C   0  0  2  0  0  0
  -24.8818  -28.9198   20.1123 C   0  0  0  0  0  0
  -22.7527  -29.4594   22.4878 C   0  0  0  0  0  0
  -18.0305  -28.1403   22.8467 C   0  0  0  0  0  0
  -24.1490  -36.7278   23.2639 C   0  0  0  0  0  0
  -25.9819  -30.7634   21.3797 C   0  0  0  0  0  0
  -26.0549  -29.3830   20.7228 C   0  0  0  0  0  0
  -27.2304  -28.5612   20.7157 C   0  0  0  0  0  0
  -26.0287  -26.8548   19.4927 C   0  0  0  0  0  0
  -24.8752  -27.6642   19.4847 C   0  0  0  0  0  0
  -23.6561  -29.8141   20.1558 C   0  0  0  0  0  0
  -25.4115  -36.3068   24.0324 C   0  0  1  0  0  0
  -20.5914  -28.3712   23.1249 C   0  0  2  0  0  0
  -20.6793  -26.9423   22.5396 C   0  0  0  0  0  0
  -19.5766  -26.6388   21.5207 C   0  0  0  0  0  0
  -18.1947  -26.7944   22.1615 C   0  0  0  0  0  0
  -19.1555  -28.8866   23.2863 C   0  0  0  0  0  0
  -18.9474  -30.1470   23.8882 C   0  0  0  0  0  0
  -17.6465  -30.6590   24.0559 C   0  0  0  0  0  0
  -25.9052  -34.9438   23.5092 C   0  0  0  0  0  0
  -16.5361  -29.9083   23.6335 C   0  0  0  0  0  0
  -16.7288  -28.6516   23.0330 C   0  0  0  0  0  0
  -26.4515  -31.6585   25.0732 C   0  0  0  0  0  0
  -25.3730  -31.3724   26.1442 C   0  0  0  0  0  0
  -27.0373  -30.3007   24.6225 C   0  0  0  0  0  0
  -27.6075  -32.4320   25.7508 C   0  0  0  0  0  0
  -27.5579  -37.1795   24.8460 C   0  0  0  0  0  0
  -21.4226  -29.3055   22.3623 N   0  0  0  0  0  0
  -26.4287  -37.3769   23.9411 N   0  0  0  0  0  0
  -24.7023  -31.0498   22.0960 N   0  0  0  0  0  0
  -23.4215  -28.8118   23.2974 O   0  0  0  0  0  0
  -28.3246  -26.3493   20.1477 O   0  0  0  0  0  0
  -26.5622  -34.8909   22.4656 O   0  0  0  0  0  0
  -23.5482  -32.1346   23.7268 O   0  0  0  0  0  0
  -28.4340  -18.9767   18.8111 C   0  0  0  0  0  0
  -27.8181  -21.1129   18.8384 C   0  0  0  0  0  0
  -27.6080  -19.9402   18.1729 C   0  0  0  0  0  0
  -29.1621  -19.5545   19.8138 C   0  0  0  0  0  0
  -26.2951  -18.2479   16.8489 C   0  0  0  0  0  0
  -27.4943  -20.1251   15.7044 C   0  0  0  0  0  0
  -25.4427  -20.5931   17.0733 C   0  0  0  0  0  0
  -30.2466  -18.7400   20.5873 C   0  0  0  0  0  0
  -29.1072  -23.7048   19.9749 C   0  0  0  0  0  0
  -29.1624  -22.1992   20.6368 C   0  0  0  0  0  0
  -30.0385  -17.2547   21.2467 C   0  0  0  0  0  0
  -28.1148  -24.8875   20.4920 C   0  0  0  0  0  0
  -26.7110  -19.7263   16.9659 C   0  0  0  0  0  0
  -28.7931  -20.9695   19.8133 N   0  0  0  0  0  0
  -29.8042  -15.9018   20.5631 N   0  0  0  0  0  0
  -31.4787  -12.6333   19.1331 H   0  0  0  0  0  0
  -30.4147  -11.5082   19.9377 H   0  0  0  0  0  0
  -29.7951  -11.7281   17.5132 H   0  0  0  0  0  0
  -29.6268  -13.4574   17.6887 H   0  0  0  0  0  0
  -27.8893  -11.2863   18.9001 H   0  0  0  0  0  0
  -27.3782  -12.5273   17.7899 H   0  0  0  0  0  0
  -27.6291  -14.2549   19.4535 H   0  0  0  0  0  0
  -28.7338  -12.1762   21.4006 H   0  0  0  0  0  0
  -28.4287  -13.8567   21.7740 H   0  0  0  0  0  0
  -25.2747   -9.5698   22.4770 H   0  0  0  0  0  0
  -24.0006   -7.4635   22.7475 H   0  0  0  0  0  0
  -21.0847   -8.8766   19.8954 H   0  0  0  0  0  0
  -22.3691  -10.9672   19.6171 H   0  0  0  0  0  0
  -21.1994   -7.6136   23.9697 H   0  0  0  0  0  0
  -21.1487   -6.0516   25.9067 H   0  0  0  0  0  0
  -22.0606   -2.7601   23.2841 H   0  0  0  0  0  0
  -22.4022  -11.9930   22.4879 H   0  0  0  0  0  0
  -21.0999  -13.1237   22.2561 H   0  0  0  0  0  0
  -24.6426  -15.8425   20.4930 H   0  0  0  0  0  0
  -26.2549  -15.6270   20.0445 H   0  0  0  0  0  0
  -26.7220  -32.5412   23.1093 H   0  0  0  0  0  0
  -25.0103  -33.9711   25.0421 H   0  0  0  0  0  0
  -22.7312  -31.3013   21.3945 H   0  0  0  0  0  0
  -23.3758  -35.9601   23.3282 H   0  0  0  0  0  0
  -24.3586  -36.8914   22.2054 H   0  0  0  0  0  0
  -23.7235  -37.6467   23.6678 H   0  0  0  0  0  0
  -26.1238  -31.5212   20.6077 H   0  0  0  0  0  0
  -26.8587  -30.8145   22.0143 H   0  0  0  0  0  0
  -28.1323  -28.9148   21.1948 H   0  0  0  0  0  0
  -25.9696  -25.9022   18.9877 H   0  0  0  0  0  0
  -23.9800  -27.3093   18.9921 H   0  0  0  0  0  0
  -23.7935  -30.5938   19.4056 H   0  0  0  0  0  0
  -22.7714  -29.2579   19.8410 H   0  0  0  0  0  0
  -25.1303  -36.1908   25.0821 H   0  0  0  0  0  0
  -21.0039  -28.3303   24.1357 H   0  0  0  0  0  0
  -20.5704  -26.2324   23.3606 H   0  0  0  0  0  0
  -21.6660  -26.7444   22.1188 H   0  0  0  0  0  0
  -19.6924  -25.6298   21.1238 H   0  0  0  0  0  0
  -19.6705  -27.3193   20.6735 H   0  0  0  0  0  0
  -17.4221  -26.6689   21.4016 H   0  0  0  0  0  0
  -18.0338  -26.0105   22.9027 H   0  0  0  0  0  0
  -19.7939  -30.7294   24.2252 H   0  0  0  0  0  0
  -17.5010  -31.6264   24.5166 H   0  0  0  0  0  0
  -15.5355  -30.2964   23.7674 H   0  0  0  0  0  0
  -15.8700  -28.0835   22.7023 H   0  0  0  0  0  0
  -24.5912  -30.7082   25.7746 H   0  0  0  0  0  0
  -24.8912  -32.2880   26.4877 H   0  0  0  0  0  0
  -25.8026  -30.8878   27.0215 H   0  0  0  0  0  0
  -26.2957  -29.6737   24.1260 H   0  0  0  0  0  0
  -27.4070  -29.7301   25.4756 H   0  0  0  0  0  0
  -27.8835  -30.4297   23.9469 H   0  0  0  0  0  0
  -27.2709  -33.3632   26.2079 H   0  0  0  0  0  0
  -28.3893  -32.6849   25.0335 H   0  0  0  0  0  0
  -28.0739  -31.8439   26.5423 H   0  0  0  0  0  0
  -28.2582  -38.0107   24.7526 H   0  0  0  0  0  0
  -28.1089  -36.2635   24.6266 H   0  0  0  0  0  0
  -27.2298  -37.1416   25.8863 H   0  0  0  0  0  0
  -20.9412  -29.8781   21.6826 H   0  0  0  0  0  0
  -26.0156  -38.2834   24.1424 H   0  0  0  0  0  0
  -28.5298  -17.9379   18.5286 H   0  0  0  0  0  0
  -27.3633  -22.0797   18.6700 H   0  0  0  0  0  0
  -27.1552  -17.5958   16.6965 H   0  0  0  0  0  0
  -25.6278  -18.0935   16.0009 H   0  0  0  0  0  0
  -25.7742  -17.9058   17.7433 H   0  0  0  0  0  0
  -28.4085  -19.5389   15.6044 H   0  0  0  0  0  0
  -27.7862  -21.1755   15.7289 H   0  0  0  0  0  0
  -26.9037  -19.9700   14.8015 H   0  0  0  0  0  0
  -24.8779  -20.3619   17.9772 H   0  0  0  0  0  0
  -24.7829  -20.4317   16.2202 H   0  0  0  0  0  0
  -25.6772  -21.6577   17.0949 H   0  0  0  0  0  0
  -30.5854  -19.3847   21.3997 H   0  0  0  0  0  0
  -31.1164  -18.6692   19.9334 H   0  0  0  0  0  0
  -29.0127  -23.6206   18.8926 H   0  0  0  0  0  0
  -30.1123  -24.1053   20.1078 H   0  0  0  0  0  0
  -28.5341  -22.1892   21.5271 H   0  0  0  0  0  0
  -30.1723  -22.0327   21.0116 H   0  0  0  0  0  0
  -29.2149  -17.3539   21.9555 H   0  0  0  0  0  0
  -30.9133  -17.0953   21.8791 H   0  0  0  0  0  0
  -28.1346  -24.8561   21.5815 H   0  0  0  0  0  0
  -27.1046  -24.5731   20.2383 H   0  0  0  0  0  0
  -28.8252  -15.6892   20.4556 H   0  0  0  0  0  0
  1 25  1  0  0  0
  1 30  2  0  0  0
  1 85  1  0  0  0
  2  3  1  0  0  0
  2 25  1  0  0  0
  2 86  1  0  0  0
  2 87  1  0  0  0
  3  4  1  0  0  0
  3 88  1  0  0  0
  3 89  1  0  0  0
  4  5  1  0  0  0
  4 90  1  0  0  0
  4 91  1  0  0  0
  5  6  1  0  0  0
  5 26  1  0  0  0
  5 92  1  0  0  0
  6 25  1  0  0  0
  6 93  1  0  0  0
  6 94  1  0  0  0
  7  8  2  0  0  0
  7 26  1  0  0  0
  7 29  1  0  0  0
  8  9  1  0  0  0
  8 22  1  0  0  0
  9 10  1  0  0  0
  9 27  2  0  0  0
 10 11  2  0  0  0
 10 15  1  0  0  0
 11 12  1  0  0  0
 11 95  1  0  0  0
 12 13  2  0  0  0
 12 96  1  0  0  0
 13 14  1  0  0  0
 13 31  1  0  0  0
 14 15  2  0  0  0
 14 97  1  0  0  0
 15 98  1  0  0  0
 16 17  2  0  0  0
 16 21  1  0  0  0
 16 31  1  0  0  0
 17 18  1  0  0  0
 17 99  1  0  0  0
 18 19  2  0  0  0
 18100  1  0  0  0
 19 20  1  0  0  0
 19 24  1  0  0  0
 20 21  2  0  0  0
 20101  1  0  0  0
 21 23  1  0  0  0
 22 28  1  0  0  0
 22 32  2  0  0  0
 26 27  1  0  0  0
 28102  1  0  0  0
 28103  1  0  0  0
 29104  1  0  0  0
 29105  1  0  0  0
 33 34  1  0  0  0
 33 66  1  0  0  0
 33 70  2  0  0  0
 34 36  1  0  0  0
 34 59  1  0  0  0
 34106  1  0  0  0
 35 44  2  0  0  0
 35 45  1  0  0  0
 35 68  1  0  0  0
 36 56  1  0  0  0
 36107  1  0  0  0
 37 39  1  0  0  0
 37 47  1  0  0  0
 37 66  1  0  0  0
 37108  1  0  0  0
 38 43  2  0  0  0
 38 46  1  0  0  0
 38 47  1  0  0  0
 39 64  1  0  0  0
 39 67  2  0  0  0
 40 52  1  0  0  0
 40 53  2  0  0  0
 40 58  1  0  0  0
 41109  1  0  0  0
 41110  1  0  0  0
 41111  1  0  0  0
 41 48  1  0  0  0
 42 43  1  0  0  0
 42 66  1  0  0  0
 42112  1  0  0  0
 42113  1  0  0  0
 43 44  1  0  0  0
 44114  1  0  0  0
 45 46  2  0  0  0
 45115  1  0  0  0
 46116  1  0  0  0
 47117  1  0  0  0
 47118  1  0  0  0
 48 56  1  0  0  0
 48 65  1  0  0  0
 48119  1  0  0  0
 49 50  1  0  0  0
 49 53  1  0  0  0
 49 64  1  0  0  0
 49120  1  0  0  0
 50 51  1  0  0  0
 50121  1  0  0  0
 50122  1  0  0  0
 51 52  1  0  0  0
 51123  1  0  0  0
 51124  1  0  0  0
 52125  1  0  0  0
 52126  1  0  0  0
 53 54  1  0  0  0
 54 55  2  0  0  0
 54127  1  0  0  0
 55 57  1  0  0  0
 55128  1  0  0  0
 56 69  2  0  0  0
 57 58  2  0  0  0
 57129  1  0  0  0
 58130  1  0  0  0
 59 60  1  0  0  0
 59 61  1  0  0  0
 59 62  1  0  0  0
 60131  1  0  0  0
 60132  1  0  0  0
 60133  1  0  0  0
 61134  1  0  0  0
 61135  1  0  0  0
 61136  1  0  0  0
 62137  1  0  0  0
 62138  1  0  0  0
 62139  1  0  0  0
 63 65  1  0  0  0
 63140  1  0  0  0
 63141  1  0  0  0
 63142  1  0  0  0
 64143  1  0  0  0
 65144  1  0  0  0
 68 82  1  0  0  0
 71 73  1  0  0  0
 71 74  2  0  0  0
 71145  1  0  0  0
 72 73  2  0  0  0
 72 84  1  0  0  0
 72146  1  0  0  0
 73 83  1  0  0  0
 74 78  1  0  0  0
 74 84  1  0  0  0
 75147  1  0  0  0
 75148  1  0  0  0
 75149  1  0  0  0
 75 83  1  0  0  0
 76 83  1  0  0  0
 76150  1  0  0  0
 76151  1  0  0  0
 76152  1  0  0  0
 77 83  1  0  0  0
 77153  1  0  0  0
 77154  1  0  0  0
 77155  1  0  0  0
 78 81  1  0  0  0
 78156  1  0  0  0
 78157  1  0  0  0
 79 80  1  0  0  0
 79 82  1  0  0  0
 79158  1  0  0  0
 79159  1  0  0  0
 80 84  1  0  0  0
 80160  1  0  0  0
 80161  1  0  0  0
 81 85  1  0  0  0
 81162  1  0  0  0
 81163  1  0  0  0
 82164  1  0  0  0
 82165  1  0  0  0
 85166  1  0  0  0
M  ISO  4   1 100  68 101  82 101  85 100
M  END
> <chiral flag>
0

> <version>
0

> <s_m_source_file>
/data/baiqing/PycharmProjects/Reinvent-master-3.2/result/LINK_invent/BTK/process_docking_weight1_custom_sum_contain_oxygen_bond_distance_aromatic_linkinvent_7_9_3/rearranged_h_0083.sdf

> <i_m_source_file_index>
81

> <r_mmod_Potential_Energy-OPLS-2005>
225.169250488281

> <r_mmod_Stretch_Energy-OPLS-2005>
143.613311767578

> <r_mmod_Bend_Energy-OPLS-2005>
243.427612304688

> <r_mmod_Torsional_Energy-OPLS-2005>
267.063995361328

> <r_mmod_Improper_Torsional_Energy-OPLS-2005>
6.71233940124512

> <r_mmod_Van_der_Waal_Energy-OPLS-2005>
111.574661254883

> <r_mmod_Electrostatic_Energy-OPLS-2005>
-440.797393798828

> <r_mmod_Solvation_Energy-OPLS-2005>
-204.420516967773

> <b_mmod_Minimization_Converged-OPLS-2005>
0

> <r_mmod_RMS_Derivative-OPLS-2005>
2.1574432849884

$$$$
81
                    3D
 Structure written by MMmdl.
161169  0  0  1  0            999 V2000
  -30.6742  -14.5468   20.5660 C   0  0  0  0  0  0
  -30.4303  -12.3502   19.4328 C   0  0  0  0  0  0
  -29.4998  -12.5079   18.2119 C   0  0  0  0  0  0
  -28.0206  -12.3572   18.6233 C   0  0  0  0  0  0
  -27.6555  -13.2132   19.8669 C   0  0  2  0  0  0
  -28.6984  -13.0274   20.9899 C   0  0  0  0  0  0
  -25.2562  -13.8181   20.5688 C   0  0  0  0  0  0
  -24.1822  -13.0441   20.9190 C   0  0  0  0  0  0
  -24.6385  -11.6908   20.8746 C   0  0  0  0  0  0
  -23.9052  -10.4285   21.0413 C   0  0  0  0  0  0
  -24.3620   -9.4197   21.9187 C   0  0  0  0  0  0
  -23.6299   -8.2235   22.0774 C   0  0  0  0  0  0
  -22.4276   -8.0271   21.3567 C   0  0  0  0  0  0
  -21.9909   -9.0237   20.4658 C   0  0  0  0  0  0
  -22.7231  -10.2117   20.3062 C   0  0  0  0  0  0
  -21.6852   -6.0717   22.5283 C   0  0  0  0  0  0
  -21.3989   -6.5626   23.8207 C   0  0  0  0  0  0
  -21.3681   -5.6792   24.9177 C   0  0  0  0  0  0
  -21.6071   -4.3056   24.7241 C   0  0  0  0  0  0
  -21.8819   -3.8135   23.4360 C   0  0  0  0  0  0
  -21.9193   -4.6947   22.3409 C   0  0  0  0  0  0
  -22.7840  -13.5231   21.1847 C   0  0  0  0  0  0
  -22.1656   -4.2130   21.0988 F   0  0  0  0  0  0
  -21.5656   -3.4535   25.7750 F   0  0  0  0  0  0
  -30.0206  -13.3540   20.4325 N   0  0  0  0  0  0
  -26.2982  -12.9354   20.3331 N   0  0  0  0  0  0
  -25.9309  -11.6515   20.5772 N   0  0  0  0  0  0
  -22.0465  -12.8239   22.0405 N   0  0  0  0  0  0
  -25.4258  -15.1913   20.4091 N   0  0  0  0  0  0
  -31.8186  -14.7175   20.1369 O   0  0  0  0  0  0
  -21.6661   -6.8867   21.4251 O   0  0  0  0  0  0
  -22.3519  -14.5523   20.6664 O   0  0  0  0  0  0
  -24.6155  -31.8660   23.2061 C   0  0  0  0  0  0
  -25.9024  -32.4819   23.8377 C   0  0  1  0  0  0
  -27.2237  -27.3926   20.1318 C   0  0  0  0  0  0
  -25.5855  -33.8606   24.2303 N   0  0  0  0  0  0
  -23.4095  -30.4886   21.5490 C   0  0  2  0  0  0
  -24.8573  -28.9493   20.1161 C   0  0  0  0  0  0
  -22.7426  -29.4647   22.4970 C   0  0  0  0  0  0
  -18.0271  -28.1402   22.8503 C   0  0  0  0  0  0
  -24.1491  -36.7322   23.2650 C   0  0  0  0  0  0
  -25.9393  -30.8218   21.3664 C   0  0  0  0  0  0
  -26.0181  -29.4502   20.7215 C   0  0  0  0  0  0
  -27.2066  -28.6788   20.7292 C   0  0  0  0  0  0
  -26.0554  -26.9198   19.5037 C   0  0  0  0  0  0
  -24.8727  -27.6859   19.5005 C   0  0  0  0  0  0
  -23.6205  -29.8211   20.1640 C   0  0  0  0  0  0
  -25.4112  -36.3110   24.0347 C   0  0  1  0  0  0
  -20.5860  -28.3682   23.1327 C   0  0  2  0  0  0
  -20.6774  -26.9416   22.5438 C   0  0  0  0  0  0
  -19.5751  -26.6402   21.5237 C   0  0  0  0  0  0
  -18.1925  -26.7949   22.1640 C   0  0  0  0  0  0
  -19.1524  -28.8857   23.2908 C   0  0  0  0  0  0
  -18.9448  -30.1455   23.8931 C   0  0  0  0  0  0
  -17.6451  -30.6609   24.0567 C   0  0  0  0  0  0
  -25.9030  -34.9474   23.5139 C   0  0  0  0  0  0
  -16.5338  -29.9112   23.6325 C   0  0  0  0  0  0
  -16.7258  -28.6525   23.0361 C   0  0  0  0  0  0
  -26.4426  -31.6597   25.0719 C   0  0  0  0  0  0
  -25.3657  -31.3730   26.1446 C   0  0  0  0  0  0
  -27.0246  -30.3036   24.6098 C   0  0  0  0  0  0
  -27.6026  -32.4298   25.7458 C   0  0  0  0  0  0
  -27.5585  -37.1814   24.8458 C   0  0  0  0  0  0
  -21.4150  -29.3046   22.3723 N   0  0  0  0  0  0
  -26.4291  -37.3797   23.9406 N   0  0  0  0  0  0
  -24.6739  -31.0739   22.0986 N   0  0  0  0  0  0
  -23.4182  -28.8190   23.3030 O   0  0  0  0  0  0
  -28.3472  -26.5885   20.1144 O   0  0  0  0  0  0
  -26.5627  -34.8915   22.4717 O   0  0  0  0  0  0
  -23.5345  -32.1410   23.7449 O   0  0  0  0  0  0
  -29.3570  -23.3670   19.6060 C   0  0  0  0  0  0
  -28.8897  -21.9216   21.4749 C   0  0  0  0  0  0
  -28.7495  -23.2103   20.8642 C   0  0  0  0  0  0
  -30.0611  -22.2925   19.0316 C   0  0  0  0  0  0
  -29.6224  -20.8806   20.8317 C   0  0  0  0  0  0
  -30.7139  -22.4563   17.6752 C   0  0  0  0  0  0
  -27.6581  -24.1546   22.9881 C   0  0  0  0  0  0
  -29.9848  -19.5449   21.5376 C   0  0  0  0  0  0
  -29.6125  -18.1720   20.8616 C   0  0  0  0  0  0
  -30.4306  -16.9480   21.4305 C   0  0  0  0  0  0
  -28.6148  -25.8383   21.3250 C   0  0  0  0  0  0
  -27.9716  -24.4030   21.4961 C   0  0  1  0  0  0
  -30.1999  -21.0858   19.6276 N   0  0  0  0  0  0
  -29.9571  -15.5767   21.0845 N   0  0  0  0  0  0
  -31.4751  -12.4635   19.1324 H   0  0  0  0  0  0
  -30.3469  -11.3446   19.8475 H   0  0  0  0  0  0
  -29.7535  -11.7700   17.4484 H   0  0  0  0  0  0
  -29.6516  -13.4869   17.7559 H   0  0  0  0  0  0
  -27.8394  -11.3022   18.8328 H   0  0  0  0  0  0
  -27.3729  -12.6100   17.7834 H   0  0  0  0  0  0
  -27.6874  -14.2575   19.5558 H   0  0  0  0  0  0
  -28.6931  -11.9944   21.3390 H   0  0  0  0  0  0
  -28.4510  -13.6338   21.8629 H   0  0  0  0  0  0
  -25.2757   -9.5691   22.4764 H   0  0  0  0  0  0
  -24.0029   -7.4634   22.7482 H   0  0  0  0  0  0
  -21.0869   -8.8747   19.8944 H   0  0  0  0  0  0
  -22.3702  -10.9661   19.6183 H   0  0  0  0  0  0
  -21.1933   -7.6120   23.9700 H   0  0  0  0  0  0
  -21.1528   -6.0516   25.9088 H   0  0  0  0  0  0
  -22.0580   -2.7592   23.2865 H   0  0  0  0  0  0
  -22.4076  -11.9909   22.4839 H   0  0  0  0  0  0
  -21.1080  -13.1265   22.2572 H   0  0  0  0  0  0
  -24.6593  -15.8466   20.5228 H   0  0  0  0  0  0
  -26.2775  -15.6298   20.0798 H   0  0  0  0  0  0
  -26.7108  -32.5534   23.1157 H   0  0  0  0  0  0
  -24.9883  -33.9759   25.0362 H   0  0  0  0  0  0
  -22.7003  -31.3061   21.4088 H   0  0  0  0  0  0
  -23.3735  -35.9676   23.3319 H   0  0  0  0  0  0
  -24.3584  -36.8931   22.2060 H   0  0  0  0  0  0
  -23.7243  -37.6533   23.6654 H   0  0  0  0  0  0
  -26.0517  -31.5826   20.5932 H   0  0  0  0  0  0
  -26.8274  -30.8809   21.9836 H   0  0  0  0  0  0
  -28.1029  -29.0602   21.1981 H   0  0  0  0  0  0
  -26.0574  -25.9489   19.0301 H   0  0  0  0  0  0
  -23.9833  -27.2967   19.0250 H   0  0  0  0  0  0
  -23.7277  -30.5948   19.4029 H   0  0  0  0  0  0
  -22.7467  -29.2397   19.8680 H   0  0  0  0  0  0
  -25.1287  -36.1996   25.0848 H   0  0  0  0  0  0
  -20.9957  -28.3257   24.1445 H   0  0  0  0  0  0
  -20.5708  -26.2277   23.3628 H   0  0  0  0  0  0
  -21.6637  -26.7485   22.1196 H   0  0  0  0  0  0
  -19.6895  -25.6309   21.1271 H   0  0  0  0  0  0
  -19.6704  -27.3222   20.6770 H   0  0  0  0  0  0
  -17.4196  -26.6712   21.4031 H   0  0  0  0  0  0
  -18.0288  -26.0091   22.9036 H   0  0  0  0  0  0
  -19.7914  -30.7262   24.2341 H   0  0  0  0  0  0
  -17.5002  -31.6307   24.5155 H   0  0  0  0  0  0
  -15.5335  -30.3042   23.7636 H   0  0  0  0  0  0
  -15.8647  -28.0862   22.7076 H   0  0  0  0  0  0
  -24.5815  -30.7119   25.7726 H   0  0  0  0  0  0
  -24.8861  -32.2905   26.4865 H   0  0  0  0  0  0
  -25.7951  -30.8864   27.0209 H   0  0  0  0  0  0
  -26.2799  -29.6834   24.1093 H   0  0  0  0  0  0
  -27.3932  -29.7244   25.4564 H   0  0  0  0  0  0
  -27.8669  -30.4345   23.9309 H   0  0  0  0  0  0
  -27.2668  -33.3585   26.2075 H   0  0  0  0  0  0
  -28.3790  -32.6868   25.0243 H   0  0  0  0  0  0
  -28.0726  -31.8378   26.5319 H   0  0  0  0  0  0
  -28.2601  -38.0106   24.7497 H   0  0  0  0  0  0
  -28.1083  -36.2637   24.6299 H   0  0  0  0  0  0
  -27.2308  -37.1482   25.8861 H   0  0  0  0  0  0
  -20.9310  -29.8732   21.6909 H   0  0  0  0  0  0
  -26.0193  -38.2889   24.1387 H   0  0  0  0  0  0
  -29.2843  -24.3134   19.0863 H   0  0  0  0  0  0
  -28.4775  -21.7269   22.4536 H   0  0  0  0  0  0
  -31.0637  -23.4803   17.5361 H   0  0  0  0  0  0
  -29.9950  -22.2387   16.8839 H   0  0  0  0  0  0
  -31.5700  -21.7912   17.5604 H   0  0  0  0  0  0
  -27.0257  -23.2757   23.1258 H   0  0  0  0  0  0
  -27.1178  -24.9916   23.4323 H   0  0  0  0  0  0
  -28.5710  -24.0127   23.5671 H   0  0  0  0  0  0
  -29.5633  -19.5577   22.5433 H   0  0  0  0  0  0
  -31.0651  -19.5655   21.6883 H   0  0  0  0  0  0
  -29.8063  -18.2389   19.7904 H   0  0  0  0  0  0
  -28.5392  -18.0087   20.9660 H   0  0  0  0  0  0
  -30.4342  -17.0050   22.5205 H   0  0  0  0  0  0
  -31.4749  -17.0671   21.1373 H   0  0  0  0  0  0
  -29.6955  -25.7554   21.4402 H   0  0  0  0  0  0
  -28.3036  -26.4666   22.1597 H   0  0  0  0  0  0
  -27.0047  -24.4313   20.9943 H   0  0  0  0  0  0
  -29.0211  -15.3337   21.3725 H   0  0  0  0  0  0
  1 25  1  0  0  0
  1 30  2  0  0  0
  1 84  1  0  0  0
  2  3  1  0  0  0
  2 25  1  0  0  0
  2 85  1  0  0  0
  2 86  1  0  0  0
  3  4  1  0  0  0
  3 87  1  0  0  0
  3 88  1  0  0  0
  4  5  1  0  0  0
  4 89  1  0  0  0
  4 90  1  0  0  0
  5  6  1  0  0  0
  5 26  1  0  0  0
  5 91  1  0  0  0
  6 25  1  0  0  0
  6 92  1  0  0  0
  6 93  1  0  0  0
  7  8  2  0  0  0
  7 26  1  0  0  0
  7 29  1  0  0  0
  8  9  1  0  0  0
  8 22  1  0  0  0
  9 10  1  0  0  0
  9 27  2  0  0  0
 10 11  2  0  0  0
 10 15  1  0  0  0
 11 12  1  0  0  0
 11 94  1  0  0  0
 12 13  2  0  0  0
 12 95  1  0  0  0
 13 14  1  0  0  0
 13 31  1  0  0  0
 14 15  2  0  0  0
 14 96  1  0  0  0
 15 97  1  0  0  0
 16 17  2  0  0  0
 16 21  1  0  0  0
 16 31  1  0  0  0
 17 18  1  0  0  0
 17 98  1  0  0  0
 18 19  2  0  0  0
 18 99  1  0  0  0
 19 20  1  0  0  0
 19 24  1  0  0  0
 20 21  2  0  0  0
 20100  1  0  0  0
 21 23  1  0  0  0
 22 28  1  0  0  0
 22 32  2  0  0  0
 26 27  1  0  0  0
 28101  1  0  0  0
 28102  1  0  0  0
 29103  1  0  0  0
 29104  1  0  0  0
 33 34  1  0  0  0
 33 66  1  0  0  0
 33 70  2  0  0  0
 34 36  1  0  0  0
 34 59  1  0  0  0
 34105  1  0  0  0
 35 44  2  0  0  0
 35 45  1  0  0  0
 35 68  1  0  0  0
 36 56  1  0  0  0
 36106  1  0  0  0
 37 39  1  0  0  0
 37 47  1  0  0  0
 37 66  1  0  0  0
 37107  1  0  0  0
 38 43  2  0  0  0
 38 46  1  0  0  0
 38 47  1  0  0  0
 39 64  1  0  0  0
 39 67  2  0  0  0
 40 52  1  0  0  0
 40 53  2  0  0  0
 40 58  1  0  0  0
 41108  1  0  0  0
 41109  1  0  0  0
 41110  1  0  0  0
 41 48  1  0  0  0
 42 43  1  0  0  0
 42 66  1  0  0  0
 42111  1  0  0  0
 42112  1  0  0  0
 43 44  1  0  0  0
 44113  1  0  0  0
 45 46  2  0  0  0
 45114  1  0  0  0
 46115  1  0  0  0
 47116  1  0  0  0
 47117  1  0  0  0
 48 56  1  0  0  0
 48 65  1  0  0  0
 48118  1  0  0  0
 49 50  1  0  0  0
 49 53  1  0  0  0
 49 64  1  0  0  0
 49119  1  0  0  0
 50 51  1  0  0  0
 50120  1  0  0  0
 50121  1  0  0  0
 51 52  1  0  0  0
 51122  1  0  0  0
 51123  1  0  0  0
 52124  1  0  0  0
 52125  1  0  0  0
 53 54  1  0  0  0
 54 55  2  0  0  0
 54126  1  0  0  0
 55 57  1  0  0  0
 55127  1  0  0  0
 56 69  2  0  0  0
 57 58  2  0  0  0
 57128  1  0  0  0
 58129  1  0  0  0
 59 60  1  0  0  0
 59 61  1  0  0  0
 59 62  1  0  0  0
 60130  1  0  0  0
 60131  1  0  0  0
 60132  1  0  0  0
 61133  1  0  0  0
 61134  1  0  0  0
 61135  1  0  0  0
 62136  1  0  0  0
 62137  1  0  0  0
 62138  1  0  0  0
 63 65  1  0  0  0
 63139  1  0  0  0
 63140  1  0  0  0
 63141  1  0  0  0
 64142  1  0  0  0
 65143  1  0  0  0
 68 81  1  0  0  0
 71 73  2  0  0  0
 71 74  1  0  0  0
 71144  1  0  0  0
 72 73  1  0  0  0
 72 75  2  0  0  0
 72145  1  0  0  0
 73 82  1  0  0  0
 74 76  1  0  0  0
 74 83  2  0  0  0
 75 78  1  0  0  0
 75 83  1  0  0  0
 76146  1  0  0  0
 76147  1  0  0  0
 76148  1  0  0  0
 77149  1  0  0  0
 77150  1  0  0  0
 77151  1  0  0  0
 77 82  1  0  0  0
 78 79  1  0  0  0
 78152  1  0  0  0
 78153  1  0  0  0
 79 80  1  0  0  0
 79154  1  0  0  0
 79155  1  0  0  0
 80 84  1  0  0  0
 80156  1  0  0  0
 80157  1  0  0  0
 81 82  1  0  0  0
 81158  1  0  0  0
 81159  1  0  0  0
 82160  1  0  0  0
 84161  1  0  0  0
M  ISO  4   1 100  68 101  81 101  84 100
M  END
> <chiral flag>
0

> <version>
0

> <s_m_source_file>
/data/baiqing/PycharmProjects/Reinvent-master-3.2/result/LINK_invent/BTK/process_docking_weight1_custom_sum_contain_oxygen_bond_distance_aromatic_linkinvent_7_9_3/rearranged_h_0083.sdf

> <i_m_source_file_index>
82

> <r_mmod_Potential_Energy-OPLS-2005>
-191.322998046875

> <r_mmod_Stretch_Energy-OPLS-2005>
55.0424766540527

> <r_mmod_Bend_Energy-OPLS-2005>
116.23046875

> <r_mmod_Torsional_Energy-OPLS-2005>
219.261047363281

> <r_mmod_Improper_Torsional_Energy-OPLS-2005>
3.66271591186523

> <r_mmod_Van_der_Waal_Energy-OPLS-2005>
145.208282470703

> <r_mmod_Electrostatic_Energy-OPLS-2005>
-535.821228027344

> <r_mmod_Solvation_Energy-OPLS-2005>
-217.999572753906

> <b_mmod_Minimization_Converged-OPLS-2005>
0

> <r_mmod_RMS_Derivative-OPLS-2005>
3.46774435043335

$$$$
82
                    3D
 Structure written by MMmdl.
163171  0  0  1  0            999 V2000
  -30.4548  -15.0273   20.3993 C   0  0  0  0  0  0
  -30.4308  -12.6368   19.4884 C   0  0  0  0  0  0
  -29.5101  -12.5156   18.2515 C   0  0  0  0  0  0
  -28.0523  -12.2736   18.6831 C   0  0  0  0  0  0
  -27.6136  -13.2314   19.8216 C   0  0  2  0  0  0
  -28.6504  -13.2991   20.9585 C   0  0  0  0  0  0
  -25.2407  -13.8160   20.5651 C   0  0  0  0  0  0
  -24.1724  -13.0422   20.9252 C   0  0  0  0  0  0
  -24.6315  -11.6906   20.8763 C   0  0  0  0  0  0
  -23.8988  -10.4296   21.0414 C   0  0  0  0  0  0
  -24.3569   -9.4233   21.9187 C   0  0  0  0  0  0
  -23.6277   -8.2242   22.0758 C   0  0  0  0  0  0
  -22.4260   -8.0271   21.3536 C   0  0  0  0  0  0
  -21.9871   -9.0224   20.4627 C   0  0  0  0  0  0
  -22.7171  -10.2113   20.3049 C   0  0  0  0  0  0
  -21.6842   -6.0717   22.5287 C   0  0  0  0  0  0
  -21.4014   -6.5636   23.8231 C   0  0  0  0  0  0
  -21.3660   -5.6788   24.9185 C   0  0  0  0  0  0
  -21.6059   -4.3048   24.7224 C   0  0  0  0  0  0
  -21.8817   -3.8139   23.4352 C   0  0  0  0  0  0
  -21.9205   -4.6957   22.3408 C   0  0  0  0  0  0
  -22.7774  -13.5221   21.1958 C   0  0  0  0  0  0
  -22.1668   -4.2142   21.0974 F   0  0  0  0  0  0
  -21.5635   -3.4547   25.7736 F   0  0  0  0  0  0
  -29.9053  -13.7412   20.3430 N   0  0  0  0  0  0
  -26.2778  -12.9351   20.3145 N   0  0  0  0  0  0
  -25.9222  -11.6508   20.5683 N   0  0  0  0  0  0
  -22.0429  -12.8159   22.0471 N   0  0  0  0  0  0
  -25.4087  -15.1901   20.4066 N   0  0  0  0  0  0
  -31.6778  -15.1044   20.2335 O   0  0  0  0  0  0
  -21.6649   -6.8849   21.4233 O   0  0  0  0  0  0
  -22.3495  -14.5580   20.6892 O   0  0  0  0  0  0
  -24.6486  -31.8362   23.1754 C   0  0  0  0  0  0
  -25.9221  -32.4642   23.8180 C   0  0  1  0  0  0
  -27.2236  -27.1087   20.1150 C   0  0  0  0  0  0
  -25.5953  -33.8449   24.2113 N   0  0  0  0  0  0
  -23.4523  -30.4641   21.5196 C   0  0  2  0  0  0
  -24.9006  -28.8866   20.0927 C   0  0  0  0  0  0
  -22.7548  -29.4560   22.4710 C   0  0  0  0  0  0
  -18.0327  -28.1421   22.8476 C   0  0  0  0  0  0
  -24.1483  -36.7235   23.2656 C   0  0  0  0  0  0
  -26.0130  -30.7004   21.3778 C   0  0  0  0  0  0
  -26.0775  -29.3110   20.7181 C   0  0  0  0  0  0
  -27.2332  -28.4358   20.7179 C   0  0  0  0  0  0
  -26.0115  -26.7882   19.4599 C   0  0  0  0  0  0
  -24.8838  -27.6401   19.4509 C   0  0  0  0  0  0
  -23.6749  -29.7912   20.1411 C   0  0  0  0  0  0
  -25.4113  -36.3013   24.0343 C   0  0  1  0  0  0
  -20.5941  -28.3736   23.1142 C   0  0  2  0  0  0
  -20.6819  -26.9423   22.5371 C   0  0  0  0  0  0
  -19.5791  -26.6369   21.5191 C   0  0  0  0  0  0
  -18.1962  -26.7965   22.1589 C   0  0  0  0  0  0
  -19.1605  -28.8896   23.2847 C   0  0  0  0  0  0
  -18.9545  -30.1486   23.8834 C   0  0  0  0  0  0
  -17.6539  -30.6597   24.0581 C   0  0  0  0  0  0
  -25.9081  -34.9366   23.5046 C   0  0  0  0  0  0
  -16.5415  -29.9109   23.6361 C   0  0  0  0  0  0
  -16.7335  -28.6547   23.0326 C   0  0  0  0  0  0
  -26.4546  -31.6530   25.0628 C   0  0  0  0  0  0
  -25.3679  -31.3704   26.1284 C   0  0  0  0  0  0
  -27.0501  -30.2922   24.6268 C   0  0  0  0  0  0
  -27.6119  -32.4267   25.7399 C   0  0  0  0  0  0
  -27.5573  -37.1777   24.8490 C   0  0  0  0  0  0
  -21.4221  -29.3077   22.3469 N   0  0  0  0  0  0
  -26.4272  -37.3737   23.9456 N   0  0  0  0  0  0
  -24.7243  -31.0216   22.0801 N   0  0  0  0  0  0
  -23.4187  -28.8016   23.2785 O   0  0  0  0  0  0
  -28.2675  -26.1072   20.2173 O   0  0  0  0  0  0
  -26.5682  -34.8925   22.4633 O   0  0  0  0  0  0
  -23.5564  -32.1239   23.6945 O   0  0  0  0  0  0
  -29.1462  -21.9338   19.5516 C   0  0  0  0  0  0
  -28.4792  -23.1645   20.0700 C   0  0  0  0  0  0
  -28.8579  -20.6936   20.1967 C   0  0  0  0  0  0
  -27.7775  -22.6016   21.1077 C   0  0  0  0  0  0
  -26.7990  -23.3359   21.9757 C   0  0  0  0  0  0
  -28.1729  -20.2981   23.5061 C   0  0  0  0  0  0
  -30.1559  -19.0569   18.6220 C   0  0  0  0  0  0
  -27.8108  -18.5948   19.1469 C   0  0  0  0  0  0
  -28.3571  -24.7267   19.4711 C   0  0  0  0  0  0
  -27.3361  -20.3718   22.2251 C   0  0  0  0  0  0
  -29.6928  -17.7664   20.7498 C   0  0  0  0  0  0
  -29.1313  -19.0711   19.7803 C   0  0  0  0  0  0
  -27.9908  -21.1889   21.2055 N   0  0  0  0  0  0
  -29.6014  -16.1877   20.4367 N   0  0  0  0  0  0
  -31.4557  -12.8299   19.1718 H   0  0  0  0  0  0
  -30.4568  -11.6961   20.0424 H   0  0  0  0  0  0
  -29.8486  -11.7018   17.6089 H   0  0  0  0  0  0
  -29.5652  -13.4265   17.6545 H   0  0  0  0  0  0
  -27.9822  -11.2415   19.0313 H   0  0  0  0  0  0
  -27.3813  -12.3513   17.8270 H   0  0  0  0  0  0
  -27.5663  -14.2194   19.3658 H   0  0  0  0  0  0
  -28.7580  -12.3354   21.4592 H   0  0  0  0  0  0
  -28.3288  -14.0099   21.7228 H   0  0  0  0  0  0
  -25.2690   -9.5780   22.4786 H   0  0  0  0  0  0
  -24.0036   -7.4636   22.7475 H   0  0  0  0  0  0
  -21.0824   -8.8692   19.8905 H   0  0  0  0  0  0
  -22.3593  -10.9657   19.6189 H   0  0  0  0  0  0
  -21.1980   -7.6144   23.9724 H   0  0  0  0  0  0
  -21.1492   -6.0514   25.9088 H   0  0  0  0  0  0
  -22.0591   -2.7604   23.2845 H   0  0  0  0  0  0
  -22.4038  -11.9751   22.4728 H   0  0  0  0  0  0
  -21.1083  -13.1212   22.2796 H   0  0  0  0  0  0
  -24.6284  -15.8283   20.5107 H   0  0  0  0  0  0
  -26.2248  -15.6239   19.9973 H   0  0  0  0  0  0
  -26.7263  -32.5194   23.0874 H   0  0  0  0  0  0
  -25.0193  -33.9476   25.0335 H   0  0  0  0  0  0
  -22.7685  -31.2986   21.3553 H   0  0  0  0  0  0
  -23.3748  -35.9571   23.3279 H   0  0  0  0  0  0
  -24.3583  -36.8866   22.2088 H   0  0  0  0  0  0
  -23.7215  -37.6418   23.6693 H   0  0  0  0  0  0
  -26.1746  -31.4470   20.5961 H   0  0  0  0  0  0
  -26.8815  -30.7409   22.0224 H   0  0  0  0  0  0
  -28.1259  -28.7609   21.2316 H   0  0  0  0  0  0
  -25.8813  -25.8316   18.9841 H   0  0  0  0  0  0
  -23.9839  -27.3002   18.9544 H   0  0  0  0  0  0
  -23.7915  -30.5530   19.3723 H   0  0  0  0  0  0
  -22.7912  -29.2258   19.8392 H   0  0  0  0  0  0
  -25.1296  -36.1842   25.0846 H   0  0  0  0  0  0
  -21.0166  -28.3379   24.1209 H   0  0  0  0  0  0
  -20.5707  -26.2352   23.3612 H   0  0  0  0  0  0
  -21.6691  -26.7433   22.1163 H   0  0  0  0  0  0
  -19.6968  -25.6278   21.1208 H   0  0  0  0  0  0
  -19.6731  -27.3215   20.6745 H   0  0  0  0  0  0
  -17.4247  -26.6726   21.3975 H   0  0  0  0  0  0
  -18.0338  -26.0139   22.9012 H   0  0  0  0  0  0
  -19.8042  -30.7343   24.2106 H   0  0  0  0  0  0
  -17.5116  -31.6251   24.5230 H   0  0  0  0  0  0
  -15.5426  -30.2999   23.7713 H   0  0  0  0  0  0
  -15.8723  -28.0866   22.7008 H   0  0  0  0  0  0
  -24.5950  -30.6947   25.7572 H   0  0  0  0  0  0
  -24.8786  -32.2893   26.4549 H   0  0  0  0  0  0
  -25.7927  -30.8980   27.0154 H   0  0  0  0  0  0
  -26.3147  -29.6531   24.1350 H   0  0  0  0  0  0
  -27.4221  -29.7310   25.4882 H   0  0  0  0  0  0
  -27.8986  -30.4196   23.9504 H   0  0  0  0  0  0
  -27.2777  -33.3669   26.1814 H   0  0  0  0  0  0
  -28.4020  -32.6642   25.0239 H   0  0  0  0  0  0
  -28.0680  -31.8437   26.5445 H   0  0  0  0  0  0
  -28.2602  -38.0054   24.7554 H   0  0  0  0  0  0
  -28.1029  -36.2597   24.6285 H   0  0  0  0  0  0
  -27.2272  -37.1379   25.8871 H   0  0  0  0  0  0
  -20.9364  -29.8818   21.6713 H   0  0  0  0  0  0
  -26.0110  -38.2812   24.1428 H   0  0  0  0  0  0
  -29.7602  -21.9540   18.6576 H   0  0  0  0  0  0
  -27.0665  -24.3902   22.0592 H   0  0  0  0  0  0
  -26.7472  -22.9402   22.9852 H   0  0  0  0  0  0
  -25.8004  -23.2847   21.5428 H   0  0  0  0  0  0
  -29.2056  -20.0336   23.2806 H   0  0  0  0  0  0
  -27.7692  -19.5396   24.1777 H   0  0  0  0  0  0
  -28.1690  -21.2528   24.0375 H   0  0  0  0  0  0
  -29.8127  -19.6321   17.7622 H   0  0  0  0  0  0
  -30.3354  -18.0385   18.2764 H   0  0  0  0  0  0
  -31.1254  -19.4602   18.9182 H   0  0  0  0  0  0
  -27.4620  -19.3066   18.3944 H   0  0  0  0  0  0
  -27.0118  -18.5028   19.8784 H   0  0  0  0  0  0
  -27.9130  -17.6311   18.6473 H   0  0  0  0  0  0
  -27.5477  -24.6464   18.7464 H   0  0  0  0  0  0
  -29.2435  -24.8473   18.8463 H   0  0  0  0  0  0
  -26.3476  -20.7767   22.4589 H   0  0  0  0  0  0
  -27.1437  -19.3786   21.8343 H   0  0  0  0  0  0
  -29.1477  -17.8418   21.6914 H   0  0  0  0  0  0
  -30.7252  -17.9813   21.0220 H   0  0  0  0  0  0
  -28.6393  -15.8910   20.3907 H   0  0  0  0  0  0
  1 25  1  0  0  0
  1 30  2  0  0  0
  1 84  1  0  0  0
  2  3  1  0  0  0
  2 25  1  0  0  0
  2 85  1  0  0  0
  2 86  1  0  0  0
  3  4  1  0  0  0
  3 87  1  0  0  0
  3 88  1  0  0  0
  4  5  1  0  0  0
  4 89  1  0  0  0
  4 90  1  0  0  0
  5  6  1  0  0  0
  5 26  1  0  0  0
  5 91  1  0  0  0
  6 25  1  0  0  0
  6 92  1  0  0  0
  6 93  1  0  0  0
  7  8  2  0  0  0
  7 26  1  0  0  0
  7 29  1  0  0  0
  8  9  1  0  0  0
  8 22  1  0  0  0
  9 10  1  0  0  0
  9 27  2  0  0  0
 10 11  2  0  0  0
 10 15  1  0  0  0
 11 12  1  0  0  0
 11 94  1  0  0  0
 12 13  2  0  0  0
 12 95  1  0  0  0
 13 14  1  0  0  0
 13 31  1  0  0  0
 14 15  2  0  0  0
 14 96  1  0  0  0
 15 97  1  0  0  0
 16 17  2  0  0  0
 16 21  1  0  0  0
 16 31  1  0  0  0
 17 18  1  0  0  0
 17 98  1  0  0  0
 18 19  2  0  0  0
 18 99  1  0  0  0
 19 20  1  0  0  0
 19 24  1  0  0  0
 20 21  2  0  0  0
 20100  1  0  0  0
 21 23  1  0  0  0
 22 28  1  0  0  0
 22 32  2  0  0  0
 26 27  1  0  0  0
 28101  1  0  0  0
 28102  1  0  0  0
 29103  1  0  0  0
 29104  1  0  0  0
 33 34  1  0  0  0
 33 66  1  0  0  0
 33 70  2  0  0  0
 34 36  1  0  0  0
 34 59  1  0  0  0
 34105  1  0  0  0
 35 44  2  0  0  0
 35 45  1  0  0  0
 35 68  1  0  0  0
 36 56  1  0  0  0
 36106  1  0  0  0
 37 39  1  0  0  0
 37 47  1  0  0  0
 37 66  1  0  0  0
 37107  1  0  0  0
 38 43  2  0  0  0
 38 46  1  0  0  0
 38 47  1  0  0  0
 39 64  1  0  0  0
 39 67  2  0  0  0
 40 52  1  0  0  0
 40 53  2  0  0  0
 40 58  1  0  0  0
 41108  1  0  0  0
 41109  1  0  0  0
 41110  1  0  0  0
 41 48  1  0  0  0
 42 43  1  0  0  0
 42 66  1  0  0  0
 42111  1  0  0  0
 42112  1  0  0  0
 43 44  1  0  0  0
 44113  1  0  0  0
 45 46  2  0  0  0
 45114  1  0  0  0
 46115  1  0  0  0
 47116  1  0  0  0
 47117  1  0  0  0
 48 56  1  0  0  0
 48 65  1  0  0  0
 48118  1  0  0  0
 49 50  1  0  0  0
 49 53  1  0  0  0
 49 64  1  0  0  0
 49119  1  0  0  0
 50 51  1  0  0  0
 50120  1  0  0  0
 50121  1  0  0  0
 51 52  1  0  0  0
 51122  1  0  0  0
 51123  1  0  0  0
 52124  1  0  0  0
 52125  1  0  0  0
 53 54  1  0  0  0
 54 55  2  0  0  0
 54126  1  0  0  0
 55 57  1  0  0  0
 55127  1  0  0  0
 56 69  2  0  0  0
 57 58  2  0  0  0
 57128  1  0  0  0
 58129  1  0  0  0
 59 60  1  0  0  0
 59 61  1  0  0  0
 59 62  1  0  0  0
 60130  1  0  0  0
 60131  1  0  0  0
 60132  1  0  0  0
 61133  1  0  0  0
 61134  1  0  0  0
 61135  1  0  0  0
 62136  1  0  0  0
 62137  1  0  0  0
 62138  1  0  0  0
 63 65  1  0  0  0
 63139  1  0  0  0
 63140  1  0  0  0
 63141  1  0  0  0
 64142  1  0  0  0
 65143  1  0  0  0
 68 79  1  0  0  0
 71 72  1  0  0  0
 71 73  2  0  0  0
 71144  1  0  0  0
 72 74  2  0  0  0
 72 79  1  0  0  0
 73 82  1  0  0  0
 73 83  1  0  0  0
 74 75  1  0  0  0
 74 83  1  0  0  0
 75145  1  0  0  0
 75146  1  0  0  0
 75147  1  0  0  0
 76 80  1  0  0  0
 76148  1  0  0  0
 76149  1  0  0  0
 76150  1  0  0  0
 77151  1  0  0  0
 77152  1  0  0  0
 77153  1  0  0  0
 77 82  1  0  0  0
 78 82  1  0  0  0
 78154  1  0  0  0
 78155  1  0  0  0
 78156  1  0  0  0
 79157  1  0  0  0
 79158  1  0  0  0
 80 83  1  0  0  0
 80159  1  0  0  0
 80160  1  0  0  0
 81 82  1  0  0  0
 81 84  1  0  0  0
 81161  1  0  0  0
 81162  1  0  0  0
 84163  1  0  0  0
M  ISO  4   1 100  68 101  79 101  84 100
M  END
> <chiral flag>
0

> <version>
0

> <s_m_source_file>
/data/baiqing/PycharmProjects/Reinvent-master-3.2/result/LINK_invent/BTK/process_docking_weight1_custom_sum_contain_oxygen_bond_distance_aromatic_linkinvent_7_9_3/rearranged_h_0083.sdf

> <i_m_source_file_index>
83

> <r_mmod_Potential_Energy-OPLS-2005>
617.502868652344

> <r_mmod_Stretch_Energy-OPLS-2005>
320.781463623047

> <r_mmod_Bend_Energy-OPLS-2005>
328.960815429688

> <r_mmod_Torsional_Energy-OPLS-2005>
259.152740478516

> <r_mmod_Improper_Torsional_Energy-OPLS-2005>
8.20582580566406

> <r_mmod_Van_der_Waal_Energy-OPLS-2005>
104.264213562012

> <r_mmod_Electrostatic_Energy-OPLS-2005>
-440.328125

> <r_mmod_Solvation_Energy-OPLS-2005>
-208.826126098633

> <b_mmod_Minimization_Converged-OPLS-2005>
0

> <r_mmod_RMS_Derivative-OPLS-2005>
7.27080202102661

$$$$
83
                    3D
 Structure written by MMmdl.
162170  0  0  1  0            999 V2000
  -30.6556  -14.5497   20.5286 C   0  0  0  0  0  0
  -30.4267  -12.3442   19.4355 C   0  0  0  0  0  0
  -29.4984  -12.4998   18.2128 C   0  0  0  0  0  0
  -28.0194  -12.3532   18.6237 C   0  0  0  0  0  0
  -27.6543  -13.2118   19.8644 C   0  0  2  0  0  0
  -28.6956  -13.0333   20.9914 C   0  0  0  0  0  0
  -25.2564  -13.8169   20.5678 C   0  0  0  0  0  0
  -24.1831  -13.0434   20.9179 C   0  0  0  0  0  0
  -24.6390  -11.6902   20.8729 C   0  0  0  0  0  0
  -23.9062  -10.4288   21.0395 C   0  0  0  0  0  0
  -24.3620   -9.4201   21.9175 C   0  0  0  0  0  0
  -23.6293   -8.2240   22.0748 C   0  0  0  0  0  0
  -22.4274   -8.0278   21.3542 C   0  0  0  0  0  0
  -21.9906   -9.0246   20.4643 C   0  0  0  0  0  0
  -22.7229  -10.2123   20.3049 C   0  0  0  0  0  0
  -21.6853   -6.0735   22.5282 C   0  0  0  0  0  0
  -21.4019   -6.5639   23.8211 C   0  0  0  0  0  0
  -21.3657   -5.6788   24.9174 C   0  0  0  0  0  0
  -21.6041   -4.3054   24.7217 C   0  0  0  0  0  0
  -21.8825   -3.8145   23.4340 C   0  0  0  0  0  0
  -21.9195   -4.6968   22.3397 C   0  0  0  0  0  0
  -22.7852  -13.5228   21.1832 C   0  0  0  0  0  0
  -22.1664   -4.2154   21.0977 F   0  0  0  0  0  0
  -21.5617   -3.4533   25.7729 F   0  0  0  0  0  0
  -30.0164  -13.3505   20.4291 N   0  0  0  0  0  0
  -26.2991  -12.9341   20.3313 N   0  0  0  0  0  0
  -25.9318  -11.6499   20.5748 N   0  0  0  0  0  0
  -22.0496  -12.8224   22.0397 N   0  0  0  0  0  0
  -25.4280  -15.1883   20.4105 N   0  0  0  0  0  0
  -31.8145  -14.7101   20.1348 O   0  0  0  0  0  0
  -21.6640   -6.8875   21.4239 O   0  0  0  0  0  0
  -22.3527  -14.5523   20.6667 O   0  0  0  0  0  0
  -24.6178  -31.8628   23.2025 C   0  0  0  0  0  0
  -25.9050  -32.4806   23.8339 C   0  0  1  0  0  0
  -27.2395  -27.3809   20.1045 C   0  0  0  0  0  0
  -25.5897  -33.8601   24.2286 N   0  0  0  0  0  0
  -23.4089  -30.4838   21.5401 C   0  0  2  0  0  0
  -24.8580  -28.9368   20.1099 C   0  0  0  0  0  0
  -22.7424  -29.4636   22.4929 C   0  0  0  0  0  0
  -18.0285  -28.1377   22.8502 C   0  0  0  0  0  0
  -24.1495  -36.7284   23.2634 C   0  0  0  0  0  0
  -25.9410  -30.8113   21.3625 C   0  0  0  0  0  0
  -26.0167  -29.4400   20.7115 C   0  0  0  0  0  0
  -27.2055  -28.6673   20.7067 C   0  0  0  0  0  0
  -26.0584  -26.9000   19.4976 C   0  0  0  0  0  0
  -24.8756  -27.6691   19.4987 C   0  0  0  0  0  0
  -23.6211  -29.8089   20.1572 C   0  0  0  0  0  0
  -25.4116  -36.3098   24.0335 C   0  0  1  0  0  0
  -20.5883  -28.3667   23.1303 C   0  0  2  0  0  0
  -20.6773  -26.9393   22.5420 C   0  0  0  0  0  0
  -19.5756  -26.6385   21.5217 C   0  0  0  0  0  0
  -18.1934  -26.7924   22.1628 C   0  0  0  0  0  0
  -19.1539  -28.8832   23.2910 C   0  0  0  0  0  0
  -18.9467  -30.1442   23.8920 C   0  0  0  0  0  0
  -17.6466  -30.6585   24.0565 C   0  0  0  0  0  0
  -25.9044  -34.9473   23.5111 C   0  0  0  0  0  0
  -16.5354  -29.9092   23.6331 C   0  0  0  0  0  0
  -16.7278  -28.6504   23.0360 C   0  0  0  0  0  0
  -26.4471  -31.6601   25.0686 C   0  0  0  0  0  0
  -25.3739  -31.3733   26.1438 C   0  0  0  0  0  0
  -27.0278  -30.3034   24.6072 C   0  0  0  0  0  0
  -27.6042  -32.4318   25.7456 C   0  0  0  0  0  0
  -27.5584  -37.1792   24.8464 C   0  0  0  0  0  0
  -21.4146  -29.3033   22.3685 N   0  0  0  0  0  0
  -26.4293  -37.3793   23.9415 N   0  0  0  0  0  0
  -24.6740  -31.0695   22.0932 N   0  0  0  0  0  0
  -23.4181  -28.8182   23.2991 O   0  0  0  0  0  0
  -28.4172  -26.6467   20.1599 O   0  0  0  0  0  0
  -26.5603  -34.8938   22.4673 O   0  0  0  0  0  0
  -23.5362  -32.1395   23.7399 O   0  0  0  0  0  0
  -27.8725  -20.8041   22.4488 C   0  0  0  0  0  0
  -27.7500  -19.5775   23.1556 C   0  0  0  0  0  0
  -28.4807  -20.4731   21.2610 C   0  0  0  0  0  0
  -27.3768  -22.1394   22.9267 C   0  0  0  0  0  0
  -27.0847  -19.3266   24.4793 C   0  0  0  0  0  0
  -28.7298  -21.3685   20.0460 C   0  0  0  0  0  0
  -29.2070  -22.8636   20.2358 C   0  0  0  0  0  0
  -28.1713  -24.0591   20.2865 C   0  0  0  0  0  0
  -29.3204  -18.1049   20.3826 C   0  0  0  0  0  0
  -30.3086  -17.0342   20.9943 C   0  0  0  0  0  0
  -28.5865  -25.3607   19.5053 C   0  0  0  0  0  0
  -28.2829  -18.5698   22.4972 N   0  0  0  0  0  0
  -28.7558  -19.0851   21.3395 N   0  0  0  0  0  0
  -29.8923  -15.6050   20.9107 N   0  0  0  0  0  0
  -31.4700  -12.4565   19.1354 H   0  0  0  0  0  0
  -30.3428  -11.3426   19.8601 H   0  0  0  0  0  0
  -29.7492  -11.7582   17.4536 H   0  0  0  0  0  0
  -29.6573  -13.4759   17.7521 H   0  0  0  0  0  0
  -27.8408  -11.2984   18.8366 H   0  0  0  0  0  0
  -27.3678  -12.6069   17.7864 H   0  0  0  0  0  0
  -27.6852  -14.2534   19.5421 H   0  0  0  0  0  0
  -28.6872  -12.0072   21.3617 H   0  0  0  0  0  0
  -28.4537  -13.6611   21.8509 H   0  0  0  0  0  0
  -25.2770   -9.5673   22.4740 H   0  0  0  0  0  0
  -24.0000   -7.4636   22.7468 H   0  0  0  0  0  0
  -21.0831   -8.8758   19.8958 H   0  0  0  0  0  0
  -22.3682  -10.9658   19.6155 H   0  0  0  0  0  0
  -21.2026   -7.6150   23.9713 H   0  0  0  0  0  0
  -21.1467   -6.0521   25.9072 H   0  0  0  0  0  0
  -22.0608   -2.7611   23.2833 H   0  0  0  0  0  0
  -22.4128  -11.9900   22.4802 H   0  0  0  0  0  0
  -21.1114  -13.1236   22.2600 H   0  0  0  0  0  0
  -24.6631  -15.8425   20.5342 H   0  0  0  0  0  0
  -26.2821  -15.6321   20.0986 H   0  0  0  0  0  0
  -26.7101  -32.5500   23.1078 H   0  0  0  0  0  0
  -25.0093  -33.9758   25.0459 H   0  0  0  0  0  0
  -22.7012  -31.3027   21.3951 H   0  0  0  0  0  0
  -23.3769  -35.9604   23.3308 H   0  0  0  0  0  0
  -24.3592  -36.8893   22.2047 H   0  0  0  0  0  0
  -23.7248  -37.6490   23.6641 H   0  0  0  0  0  0
  -26.0631  -31.5736   20.5916 H   0  0  0  0  0  0
  -26.8264  -30.8666   21.9846 H   0  0  0  0  0  0
  -28.0978  -29.0500   21.1821 H   0  0  0  0  0  0
  -26.0296  -25.9237   19.0364 H   0  0  0  0  0  0
  -23.9820  -27.2765   19.0330 H   0  0  0  0  0  0
  -23.7316  -30.5791   19.3940 H   0  0  0  0  0  0
  -22.7450  -29.2288   19.8622 H   0  0  0  0  0  0
  -25.1310  -36.1941   25.0831 H   0  0  0  0  0  0
  -21.0003  -28.3226   24.1417 H   0  0  0  0  0  0
  -20.5664  -26.2271   23.3610 H   0  0  0  0  0  0
  -21.6644  -26.7419   22.1222 H   0  0  0  0  0  0
  -19.6910  -25.6304   21.1238 H   0  0  0  0  0  0
  -19.6703  -27.3200   20.6750 H   0  0  0  0  0  0
  -17.4211  -26.6695   21.4015 H   0  0  0  0  0  0
  -18.0321  -26.0064   22.9023 H   0  0  0  0  0  0
  -19.7938  -30.7259   24.2296 H   0  0  0  0  0  0
  -17.5023  -31.6271   24.5157 H   0  0  0  0  0  0
  -15.5357  -30.3005   23.7627 H   0  0  0  0  0  0
  -15.8683  -28.0821   22.7060 H   0  0  0  0  0  0
  -24.5914  -30.7066   25.7796 H   0  0  0  0  0  0
  -24.8916  -32.2898   26.4839 H   0  0  0  0  0  0
  -25.8097  -30.8950   27.0216 H   0  0  0  0  0  0
  -26.2800  -29.6830   24.1106 H   0  0  0  0  0  0
  -27.4023  -29.7251   25.4525 H   0  0  0  0  0  0
  -27.8672  -30.4352   23.9241 H   0  0  0  0  0  0
  -27.2642  -33.3609   26.2039 H   0  0  0  0  0  0
  -28.3844  -32.6879   25.0280 H   0  0  0  0  0  0
  -28.0708  -31.8436   26.5369 H   0  0  0  0  0  0
  -28.2601  -38.0090   24.7520 H   0  0  0  0  0  0
  -28.1090  -36.2625   24.6281 H   0  0  0  0  0  0
  -27.2307  -37.1430   25.8869 H   0  0  0  0  0  0
  -20.9290  -29.8754   21.6916 H   0  0  0  0  0  0
  -26.0180  -38.2868   24.1424 H   0  0  0  0  0  0
  -28.1859  -22.8659   22.9796 H   0  0  0  0  0  0
  -26.9539  -22.0879   23.9299 H   0  0  0  0  0  0
  -26.5994  -22.5402   22.2762 H   0  0  0  0  0  0
  -26.0962  -19.7863   24.5109 H   0  0  0  0  0  0
  -27.6689  -19.7434   25.2990 H   0  0  0  0  0  0
  -26.9507  -18.2617   24.6709 H   0  0  0  0  0  0
  -27.8370  -21.3651   19.4208 H   0  0  0  0  0  0
  -29.4905  -20.8818   19.4358 H   0  0  0  0  0  0
  -29.8219  -23.0548   19.3556 H   0  0  0  0  0  0
  -29.9082  -22.9301   21.0676 H   0  0  0  0  0  0
  -27.9988  -24.3361   21.3252 H   0  0  0  0  0  0
  -27.2036  -23.7259   19.9100 H   0  0  0  0  0  0
  -28.4863  -17.6083   19.8859 H   0  0  0  0  0  0
  -29.8439  -18.6542   19.6008 H   0  0  0  0  0  0
  -30.5214  -17.2603   22.0397 H   0  0  0  0  0  0
  -31.2678  -17.1571   20.4897 H   0  0  0  0  0  0
  -28.1549  -25.3672   18.5032 H   0  0  0  0  0  0
  -29.6613  -25.3047   19.3315 H   0  0  0  0  0  0
  -28.9459  -15.3905   21.1929 H   0  0  0  0  0  0
  1 25  1  0  0  0
  1 30  2  0  0  0
  1 84  1  0  0  0
  2  3  1  0  0  0
  2 25  1  0  0  0
  2 85  1  0  0  0
  2 86  1  0  0  0
  3  4  1  0  0  0
  3 87  1  0  0  0
  3 88  1  0  0  0
  4  5  1  0  0  0
  4 89  1  0  0  0
  4 90  1  0  0  0
  5  6  1  0  0  0
  5 26  1  0  0  0
  5 91  1  0  0  0
  6 25  1  0  0  0
  6 92  1  0  0  0
  6 93  1  0  0  0
  7  8  2  0  0  0
  7 26  1  0  0  0
  7 29  1  0  0  0
  8  9  1  0  0  0
  8 22  1  0  0  0
  9 10  1  0  0  0
  9 27  2  0  0  0
 10 11  2  0  0  0
 10 15  1  0  0  0
 11 12  1  0  0  0
 11 94  1  0  0  0
 12 13  2  0  0  0
 12 95  1  0  0  0
 13 14  1  0  0  0
 13 31  1  0  0  0
 14 15  2  0  0  0
 14 96  1  0  0  0
 15 97  1  0  0  0
 16 17  2  0  0  0
 16 21  1  0  0  0
 16 31  1  0  0  0
 17 18  1  0  0  0
 17 98  1  0  0  0
 18 19  2  0  0  0
 18 99  1  0  0  0
 19 20  1  0  0  0
 19 24  1  0  0  0
 20 21  2  0  0  0
 20100  1  0  0  0
 21 23  1  0  0  0
 22 28  1  0  0  0
 22 32  2  0  0  0
 26 27  1  0  0  0
 28101  1  0  0  0
 28102  1  0  0  0
 29103  1  0  0  0
 29104  1  0  0  0
 33 34  1  0  0  0
 33 66  1  0  0  0
 33 70  2  0  0  0
 34 36  1  0  0  0
 34 59  1  0  0  0
 34105  1  0  0  0
 35 44  2  0  0  0
 35 45  1  0  0  0
 35 68  1  0  0  0
 36 56  1  0  0  0
 36106  1  0  0  0
 37 39  1  0  0  0
 37 47  1  0  0  0
 37 66  1  0  0  0
 37107  1  0  0  0
 38 43  2  0  0  0
 38 46  1  0  0  0
 38 47  1  0  0  0
 39 64  1  0  0  0
 39 67  2  0  0  0
 40 52  1  0  0  0
 40 53  2  0  0  0
 40 58  1  0  0  0
 41108  1  0  0  0
 41109  1  0  0  0
 41110  1  0  0  0
 41 48  1  0  0  0
 42 43  1  0  0  0
 42 66  1  0  0  0
 42111  1  0  0  0
 42112  1  0  0  0
 43 44  1  0  0  0
 44113  1  0  0  0
 45 46  2  0  0  0
 45114  1  0  0  0
 46115  1  0  0  0
 47116  1  0  0  0
 47117  1  0  0  0
 48 56  1  0  0  0
 48 65  1  0  0  0
 48118  1  0  0  0
 49 50  1  0  0  0
 49 53  1  0  0  0
 49 64  1  0  0  0
 49119  1  0  0  0
 50 51  1  0  0  0
 50120  1  0  0  0
 50121  1  0  0  0
 51 52  1  0  0  0
 51122  1  0  0  0
 51123  1  0  0  0
 52124  1  0  0  0
 52125  1  0  0  0
 53 54  1  0  0  0
 54 55  2  0  0  0
 54126  1  0  0  0
 55 57  1  0  0  0
 55127  1  0  0  0
 56 69  2  0  0  0
 57 58  2  0  0  0
 57128  1  0  0  0
 58129  1  0  0  0
 59 60  1  0  0  0
 59 61  1  0  0  0
 59 62  1  0  0  0
 60130  1  0  0  0
 60131  1  0  0  0
 60132  1  0  0  0
 61133  1  0  0  0
 61134  1  0  0  0
 61135  1  0  0  0
 62136  1  0  0  0
 62137  1  0  0  0
 62138  1  0  0  0
 63 65  1  0  0  0
 63139  1  0  0  0
 63140  1  0  0  0
 63141  1  0  0  0
 64142  1  0  0  0
 65143  1  0  0  0
 68 81  1  0  0  0
 71 72  1  0  0  0
 71 73  2  0  0  0
 71 74  1  0  0  0
 72 75  1  0  0  0
 72 82  2  0  0  0
 73 76  1  0  0  0
 73 83  1  0  0  0
 74144  1  0  0  0
 74145  1  0  0  0
 74146  1  0  0  0
 75147  1  0  0  0
 75148  1  0  0  0
 75149  1  0  0  0
 76 77  1  0  0  0
 76150  1  0  0  0
 76151  1  0  0  0
 77 78  1  0  0  0
 77152  1  0  0  0
 77153  1  0  0  0
 78 81  1  0  0  0
 78154  1  0  0  0
 78155  1  0  0  0
 79 80  1  0  0  0
 79 83  1  0  0  0
 79156  1  0  0  0
 79157  1  0  0  0
 80 84  1  0  0  0
 80158  1  0  0  0
 80159  1  0  0  0
 81160  1  0  0  0
 81161  1  0  0  0
 82 83  1  0  0  0
 84162  1  0  0  0
M  ISO  4   1 100  68 101  81 101  84 100
M  END
> <chiral flag>
0

> <version>
0

> <s_m_source_file>
/data/baiqing/PycharmProjects/Reinvent-master-3.2/result/LINK_invent/BTK/process_docking_weight1_custom_sum_contain_oxygen_bond_distance_aromatic_linkinvent_7_9_3/rearranged_h_0083.sdf

> <i_m_source_file_index>
84

> <r_mmod_Potential_Energy-OPLS-2005>
-41.5269737243652

> <r_mmod_Stretch_Energy-OPLS-2005>
56.0741119384766

> <r_mmod_Bend_Energy-OPLS-2005>
136.883270263672

> <r_mmod_Torsional_Energy-OPLS-2005>
235.015808105469

> <r_mmod_Improper_Torsional_Energy-OPLS-2005>
4.45907735824585

> <r_mmod_Van_der_Waal_Energy-OPLS-2005>
121.724800109863

> <r_mmod_Electrostatic_Energy-OPLS-2005>
-407.150146484375

> <r_mmod_Solvation_Energy-OPLS-2005>
-213.590240478516

> <b_mmod_Minimization_Converged-OPLS-2005>
0

> <r_mmod_RMS_Derivative-OPLS-2005>
1.99356114864349

$$$$
84
                    3D
 Structure written by MMmdl.
167175  0  0  1  0            999 V2000
  -30.6370  -14.5540   20.5613 C   0  0  0  0  0  0
  -30.4399  -12.3609   19.4182 C   0  0  0  0  0  0
  -29.5003  -12.5114   18.2021 C   0  0  0  0  0  0
  -28.0213  -12.3561   18.6147 C   0  0  0  0  0  0
  -27.6550  -13.2046   19.8604 C   0  0  2  0  0  0
  -28.6979  -13.0053   20.9814 C   0  0  0  0  0  0
  -25.2576  -13.8155   20.5649 C   0  0  0  0  0  0
  -24.1827  -13.0442   20.9179 C   0  0  0  0  0  0
  -24.6378  -11.6903   20.8723 C   0  0  0  0  0  0
  -23.9058  -10.4290   21.0410 C   0  0  0  0  0  0
  -24.3612   -9.4208   21.9185 C   0  0  0  0  0  0
  -23.6285   -8.2243   22.0752 C   0  0  0  0  0  0
  -22.4273   -8.0279   21.3547 C   0  0  0  0  0  0
  -21.9902   -9.0254   20.4646 C   0  0  0  0  0  0
  -22.7231  -10.2136   20.3056 C   0  0  0  0  0  0
  -21.6853   -6.0733   22.5278 C   0  0  0  0  0  0
  -21.4011   -6.5639   23.8217 C   0  0  0  0  0  0
  -21.3658   -5.6797   24.9174 C   0  0  0  0  0  0
  -21.6047   -4.3046   24.7226 C   0  0  0  0  0  0
  -21.8821   -3.8151   23.4343 C   0  0  0  0  0  0
  -21.9189   -4.6968   22.3401 C   0  0  0  0  0  0
  -22.7857  -13.5238   21.1846 C   0  0  0  0  0  0
  -22.1662   -4.2150   21.0977 F   0  0  0  0  0  0
  -21.5629   -3.4538   25.7739 F   0  0  0  0  0  0
  -30.0169  -13.3480   20.4231 N   0  0  0  0  0  0
  -26.2985  -12.9311   20.3277 N   0  0  0  0  0  0
  -25.9298  -11.6475   20.5721 N   0  0  0  0  0  0
  -22.0488  -12.8240   22.0401 N   0  0  0  0  0  0
  -25.4294  -15.1876   20.4053 N   0  0  0  0  0  0
  -31.7976  -14.7562   20.1924 O   0  0  0  0  0  0
  -21.6636   -6.8878   21.4241 O   0  0  0  0  0  0
  -22.3545  -14.5546   20.6687 O   0  0  0  0  0  0
  -24.6196  -31.8635   23.2073 C   0  0  0  0  0  0
  -25.9061  -32.4810   23.8393 C   0  0  1  0  0  0
  -27.2216  -27.3670   20.1044 C   0  0  0  0  0  0
  -25.5910  -33.8611   24.2324 N   0  0  0  0  0  0
  -23.4115  -30.4864   21.5503 C   0  0  2  0  0  0
  -24.8564  -28.9509   20.1096 C   0  0  0  0  0  0
  -22.7449  -29.4611   22.4977 C   0  0  0  0  0  0
  -18.0281  -28.1387   22.8487 C   0  0  0  0  0  0
  -24.1487  -36.7305   23.2647 C   0  0  0  0  0  0
  -25.9456  -30.8098   21.3700 C   0  0  0  0  0  0
  -26.0207  -29.4396   20.7139 C   0  0  0  0  0  0
  -27.2057  -28.6562   20.7087 C   0  0  0  0  0  0
  -26.0396  -26.9276   19.4633 C   0  0  0  0  0  0
  -24.8638  -27.6965   19.4807 C   0  0  0  0  0  0
  -23.6237  -29.8265   20.1626 C   0  0  0  0  0  0
  -25.4108  -36.3105   24.0350 C   0  0  1  0  0  0
  -20.5868  -28.3654   23.1328 C   0  0  2  0  0  0
  -20.6763  -26.9396   22.5414 C   0  0  0  0  0  0
  -19.5744  -26.6382   21.5208 C   0  0  0  0  0  0
  -18.1923  -26.7927   22.1621 C   0  0  0  0  0  0
  -19.1527  -28.8840   23.2896 C   0  0  0  0  0  0
  -18.9452  -30.1451   23.8898 C   0  0  0  0  0  0
  -17.6453  -30.6583   24.0569 C   0  0  0  0  0  0
  -25.9039  -34.9471   23.5139 C   0  0  0  0  0  0
  -16.5344  -29.9080   23.6329 C   0  0  0  0  0  0
  -16.7274  -28.6503   23.0343 C   0  0  0  0  0  0
  -26.4462  -31.6600   25.0737 C   0  0  0  0  0  0
  -25.3735  -31.3685   26.1496 C   0  0  0  0  0  0
  -27.0277  -30.3051   24.6105 C   0  0  0  0  0  0
  -27.6047  -32.4316   25.7480 C   0  0  0  0  0  0
  -27.5577  -37.1805   24.8474 C   0  0  0  0  0  0
  -21.4172  -29.3012   22.3736 N   0  0  0  0  0  0
  -26.4293  -37.3789   23.9425 N   0  0  0  0  0  0
  -24.6780  -31.0680   22.1004 N   0  0  0  0  0  0
  -23.4217  -28.8180   23.3040 O   0  0  0  0  0  0
  -28.3565  -26.5597   20.1679 O   0  0  0  0  0  0
  -26.5598  -34.8922   22.4695 O   0  0  0  0  0  0
  -23.5366  -32.1422   23.7408 O   0  0  0  0  0  0
  -30.4045  -19.8227   22.9993 C   0  0  0  0  0  0
  -30.6463  -20.5965   24.1462 C   0  0  0  0  0  0
  -29.8413  -20.3975   21.8385 C   0  0  0  0  0  0
  -30.3244  -21.9611   24.1044 C   0  0  0  0  0  0
  -29.5798  -21.8147   21.8792 C   0  0  0  0  0  0
  -31.2098  -19.9380   25.3946 C   0  0  0  0  0  0
  -29.2260  -23.1460   26.0785 C   0  0  0  0  0  0
  -29.4284  -19.4553   20.6755 C   0  0  0  0  0  0
  -30.5193  -22.8965   25.2904 C   0  0  0  0  0  0
  -28.8912  -22.6636   20.7766 C   0  0  0  0  0  0
  -30.1799  -18.0820   20.4136 C   0  0  0  0  0  0
  -29.1868  -24.2236   20.7880 C   0  0  0  0  0  0
  -30.1198  -16.9238   21.4729 C   0  0  0  0  0  0
  -28.1899  -25.1176   19.9881 C   0  0  0  0  0  0
  -29.8036  -22.5309   23.0040 N   0  0  0  0  0  0
  -29.8281  -15.5502   20.9943 N   0  0  0  0  0  0
  -31.4784  -12.5071   19.1142 H   0  0  0  0  0  0
  -30.3837  -11.3539   19.8326 H   0  0  0  0  0  0
  -29.7548  -11.7755   17.4382 H   0  0  0  0  0  0
  -29.6497  -13.4903   17.7424 H   0  0  0  0  0  0
  -27.8437  -11.3004   18.8224 H   0  0  0  0  0  0
  -27.3705  -12.6140   17.7791 H   0  0  0  0  0  0
  -27.6876  -14.2485   19.5466 H   0  0  0  0  0  0
  -28.6978  -11.9700   21.3229 H   0  0  0  0  0  0
  -28.4467  -13.6014   21.8608 H   0  0  0  0  0  0
  -25.2759   -9.5687   22.4748 H   0  0  0  0  0  0
  -24.0002   -7.4637   22.7469 H   0  0  0  0  0  0
  -21.0835   -8.8774   19.8949 H   0  0  0  0  0  0
  -22.3693  -10.9674   19.6161 H   0  0  0  0  0  0
  -21.2001   -7.6150   23.9719 H   0  0  0  0  0  0
  -21.1479   -6.0520   25.9079 H   0  0  0  0  0  0
  -22.0598   -2.7610   23.2845 H   0  0  0  0  0  0
  -22.4094  -11.9910   22.4814 H   0  0  0  0  0  0
  -21.1102  -13.1274   22.2587 H   0  0  0  0  0  0
  -24.6615  -15.8413   20.5086 H   0  0  0  0  0  0
  -26.2749  -15.6254   20.0609 H   0  0  0  0  0  0
  -26.7132  -32.5482   23.1145 H   0  0  0  0  0  0
  -25.0070  -33.9789   25.0475 H   0  0  0  0  0  0
  -22.7033  -31.3065   21.4108 H   0  0  0  0  0  0
  -23.3755  -35.9624   23.3310 H   0  0  0  0  0  0
  -24.3577  -36.8907   22.2055 H   0  0  0  0  0  0
  -23.7222  -37.6511   23.6642 H   0  0  0  0  0  0
  -26.0656  -31.5777   20.6054 H   0  0  0  0  0  0
  -26.8310  -30.8640   21.9895 H   0  0  0  0  0  0
  -28.0984  -29.0240   21.1922 H   0  0  0  0  0  0
  -25.9959  -25.9806   18.9421 H   0  0  0  0  0  0
  -23.9714  -27.3224   19.0020 H   0  0  0  0  0  0
  -23.7475  -30.6085   19.4125 H   0  0  0  0  0  0
  -22.7452  -29.2569   19.8534 H   0  0  0  0  0  0
  -25.1266  -36.1975   25.0834 H   0  0  0  0  0  0
  -20.9937  -28.3199   24.1455 H   0  0  0  0  0  0
  -20.5646  -26.2261   23.3597 H   0  0  0  0  0  0
  -21.6637  -26.7426   22.1216 H   0  0  0  0  0  0
  -19.6903  -25.6289   21.1245 H   0  0  0  0  0  0
  -19.6695  -27.3192   20.6740 H   0  0  0  0  0  0
  -17.4192  -26.6684   21.4032 H   0  0  0  0  0  0
  -18.0332  -26.0066   22.9010 H   0  0  0  0  0  0
  -19.7932  -30.7273   24.2267 H   0  0  0  0  0  0
  -17.5008  -31.6265   24.5169 H   0  0  0  0  0  0
  -15.5349  -30.2985   23.7646 H   0  0  0  0  0  0
  -15.8677  -28.0832   22.7042 H   0  0  0  0  0  0
  -24.5938  -30.7000   25.7860 H   0  0  0  0  0  0
  -24.8900  -32.2820   26.4977 H   0  0  0  0  0  0
  -25.8125  -30.8867   27.0256 H   0  0  0  0  0  0
  -26.2803  -29.6841   24.1160 H   0  0  0  0  0  0
  -27.4068  -29.7259   25.4533 H   0  0  0  0  0  0
  -27.8636  -30.4391   23.9231 H   0  0  0  0  0  0
  -27.2702  -33.3627   26.2065 H   0  0  0  0  0  0
  -28.3842  -32.6856   25.0296 H   0  0  0  0  0  0
  -28.0732  -31.8443   26.5396 H   0  0  0  0  0  0
  -28.2604  -38.0095   24.7517 H   0  0  0  0  0  0
  -28.1070  -36.2632   24.6296 H   0  0  0  0  0  0
  -27.2315  -37.1454   25.8885 H   0  0  0  0  0  0
  -20.9344  -29.8791   21.6993 H   0  0  0  0  0  0
  -26.0188  -38.2871   24.1429 H   0  0  0  0  0  0
  -30.6334  -18.7753   23.0565 H   0  0  0  0  0  0
  -31.2990  -18.8564   25.2782 H   0  0  0  0  0  0
  -30.5616  -20.1216   26.2526 H   0  0  0  0  0  0
  -32.2022  -20.3298   25.6211 H   0  0  0  0  0  0
  -29.3900  -23.8684   26.8776 H   0  0  0  0  0  0
  -28.8588  -22.2256   26.5306 H   0  0  0  0  0  0
  -28.4438  -23.5403   25.4297 H   0  0  0  0  0  0
  -29.4921  -20.0278   19.7496 H   0  0  0  0  0  0
  -28.3665  -19.2401   20.8070 H   0  0  0  0  0  0
  -30.9034  -23.8467   24.9196 H   0  0  0  0  0  0
  -31.2866  -22.5124   25.9614 H   0  0  0  0  0  0
  -27.8181  -22.5009   20.8833 H   0  0  0  0  0  0
  -29.1624  -22.2684   19.7980 H   0  0  0  0  0  0
  -31.2284  -18.2903   20.1914 H   0  0  0  0  0  0
  -29.7736  -17.6864   19.4831 H   0  0  0  0  0  0
  -30.2077  -24.4088   20.4549 H   0  0  0  0  0  0
  -29.1329  -24.5960   21.8109 H   0  0  0  0  0  0
  -29.3324  -17.1508   22.1919 H   0  0  0  0  0  0
  -31.0502  -16.8898   22.0412 H   0  0  0  0  0  0
  -28.2668  -24.8837   18.9253 H   0  0  0  0  0  0
  -27.1981  -24.8019   20.3107 H   0  0  0  0  0  0
  -28.8758  -15.2500   21.1452 H   0  0  0  0  0  0
  1 25  1  0  0  0
  1 30  2  0  0  0
  1 86  1  0  0  0
  2  3  1  0  0  0
  2 25  1  0  0  0
  2 87  1  0  0  0
  2 88  1  0  0  0
  3  4  1  0  0  0
  3 89  1  0  0  0
  3 90  1  0  0  0
  4  5  1  0  0  0
  4 91  1  0  0  0
  4 92  1  0  0  0
  5  6  1  0  0  0
  5 26  1  0  0  0
  5 93  1  0  0  0
  6 25  1  0  0  0
  6 94  1  0  0  0
  6 95  1  0  0  0
  7  8  2  0  0  0
  7 26  1  0  0  0
  7 29  1  0  0  0
  8  9  1  0  0  0
  8 22  1  0  0  0
  9 10  1  0  0  0
  9 27  2  0  0  0
 10 11  2  0  0  0
 10 15  1  0  0  0
 11 12  1  0  0  0
 11 96  1  0  0  0
 12 13  2  0  0  0
 12 97  1  0  0  0
 13 14  1  0  0  0
 13 31  1  0  0  0
 14 15  2  0  0  0
 14 98  1  0  0  0
 15 99  1  0  0  0
 16 17  2  0  0  0
 16 21  1  0  0  0
 16 31  1  0  0  0
 17 18  1  0  0  0
 17100  1  0  0  0
 18 19  2  0  0  0
 18101  1  0  0  0
 19 20  1  0  0  0
 19 24  1  0  0  0
 20 21  2  0  0  0
 20102  1  0  0  0
 21 23  1  0  0  0
 22 28  1  0  0  0
 22 32  2  0  0  0
 26 27  1  0  0  0
 28103  1  0  0  0
 28104  1  0  0  0
 29105  1  0  0  0
 29106  1  0  0  0
 33 34  1  0  0  0
 33 66  1  0  0  0
 33 70  2  0  0  0
 34 36  1  0  0  0
 34 59  1  0  0  0
 34107  1  0  0  0
 35 44  2  0  0  0
 35 45  1  0  0  0
 35 68  1  0  0  0
 36 56  1  0  0  0
 36108  1  0  0  0
 37 39  1  0  0  0
 37 47  1  0  0  0
 37 66  1  0  0  0
 37109  1  0  0  0
 38 43  2  0  0  0
 38 46  1  0  0  0
 38 47  1  0  0  0
 39 64  1  0  0  0
 39 67  2  0  0  0
 40 52  1  0  0  0
 40 53  2  0  0  0
 40 58  1  0  0  0
 41110  1  0  0  0
 41111  1  0  0  0
 41112  1  0  0  0
 41 48  1  0  0  0
 42 43  1  0  0  0
 42 66  1  0  0  0
 42113  1  0  0  0
 42114  1  0  0  0
 43 44  1  0  0  0
 44115  1  0  0  0
 45 46  2  0  0  0
 45116  1  0  0  0
 46117  1  0  0  0
 47118  1  0  0  0
 47119  1  0  0  0
 48 56  1  0  0  0
 48 65  1  0  0  0
 48120  1  0  0  0
 49 50  1  0  0  0
 49 53  1  0  0  0
 49 64  1  0  0  0
 49121  1  0  0  0
 50 51  1  0  0  0
 50122  1  0  0  0
 50123  1  0  0  0
 51 52  1  0  0  0
 51124  1  0  0  0
 51125  1  0  0  0
 52126  1  0  0  0
 52127  1  0  0  0
 53 54  1  0  0  0
 54 55  2  0  0  0
 54128  1  0  0  0
 55 57  1  0  0  0
 55129  1  0  0  0
 56 69  2  0  0  0
 57 58  2  0  0  0
 57130  1  0  0  0
 58131  1  0  0  0
 59 60  1  0  0  0
 59 61  1  0  0  0
 59 62  1  0  0  0
 60132  1  0  0  0
 60133  1  0  0  0
 60134  1  0  0  0
 61135  1  0  0  0
 61136  1  0  0  0
 61137  1  0  0  0
 62138  1  0  0  0
 62139  1  0  0  0
 62140  1  0  0  0
 63 65  1  0  0  0
 63141  1  0  0  0
 63142  1  0  0  0
 63143  1  0  0  0
 64144  1  0  0  0
 65145  1  0  0  0
 68 84  1  0  0  0
 71 72  2  0  0  0
 71 73  1  0  0  0
 71146  1  0  0  0
 72 74  1  0  0  0
 72 76  1  0  0  0
 73 75  2  0  0  0
 73 78  1  0  0  0
 74 79  1  0  0  0
 74 85  2  0  0  0
 75 80  1  0  0  0
 75 85  1  0  0  0
 76147  1  0  0  0
 76148  1  0  0  0
 76149  1  0  0  0
 77 79  1  0  0  0
 77150  1  0  0  0
 77151  1  0  0  0
 77152  1  0  0  0
 78 81  1  0  0  0
 78153  1  0  0  0
 78154  1  0  0  0
 79155  1  0  0  0
 79156  1  0  0  0
 80 82  1  0  0  0
 80157  1  0  0  0
 80158  1  0  0  0
 81 83  1  0  0  0
 81159  1  0  0  0
 81160  1  0  0  0
 82 84  1  0  0  0
 82161  1  0  0  0
 82162  1  0  0  0
 83 86  1  0  0  0
 83163  1  0  0  0
 83164  1  0  0  0
 84165  1  0  0  0
 84166  1  0  0  0
 86167  1  0  0  0
M  ISO  4   1 100  68 101  84 101  86 100
M  END
> <chiral flag>
0

> <version>
0

> <s_m_source_file>
/data/baiqing/PycharmProjects/Reinvent-master-3.2/result/LINK_invent/BTK/process_docking_weight1_custom_sum_contain_oxygen_bond_distance_aromatic_linkinvent_7_9_3/rearranged_h_0083.sdf

> <i_m_source_file_index>
85

> <r_mmod_Potential_Energy-OPLS-2005>
-182.522171020508

> <r_mmod_Stretch_Energy-OPLS-2005>
58.9262161254883

> <r_mmod_Bend_Energy-OPLS-2005>
137.261444091797

> <r_mmod_Torsional_Energy-OPLS-2005>
210.309494018555

> <r_mmod_Improper_Torsional_Energy-OPLS-2005>
4.36290693283081

> <r_mmod_Van_der_Waal_Energy-OPLS-2005>
159.891250610352

> <r_mmod_Electrostatic_Energy-OPLS-2005>
-557.907653808594

> <r_mmod_Solvation_Energy-OPLS-2005>
-225.481323242188

> <b_mmod_Minimization_Converged-OPLS-2005>
0

> <r_mmod_RMS_Derivative-OPLS-2005>
3.03667426109314

$$$$
85
                    3D
 Structure written by MMmdl.
164172  0  0  1  0            999 V2000
  -30.6995  -14.5570   20.5983 C   0  0  0  0  0  0
  -30.4383  -12.3750   19.4287 C   0  0  0  0  0  0
  -29.5068  -12.5335   18.2063 C   0  0  0  0  0  0
  -28.0230  -12.3827   18.6091 C   0  0  0  0  0  0
  -27.6631  -13.2053   19.8761 C   0  0  2  0  0  0
  -28.7074  -12.9404   20.9777 C   0  0  0  0  0  0
  -25.2622  -13.8144   20.5677 C   0  0  0  0  0  0
  -24.1855  -13.0431   20.9162 C   0  0  0  0  0  0
  -24.6397  -11.6896   20.8719 C   0  0  0  0  0  0
  -23.9059  -10.4288   21.0403 C   0  0  0  0  0  0
  -24.3613   -9.4197   21.9187 C   0  0  0  0  0  0
  -23.6284   -8.2234   22.0761 C   0  0  0  0  0  0
  -22.4269   -8.0275   21.3549 C   0  0  0  0  0  0
  -21.9896   -9.0251   20.4652 C   0  0  0  0  0  0
  -22.7232  -10.2125   20.3056 C   0  0  0  0  0  0
  -21.6844   -6.0738   22.5285 C   0  0  0  0  0  0
  -21.4011   -6.5642   23.8220 C   0  0  0  0  0  0
  -21.3649   -5.6793   24.9181 C   0  0  0  0  0  0
  -21.6033   -4.3053   24.7222 C   0  0  0  0  0  0
  -21.8815   -3.8152   23.4346 C   0  0  0  0  0  0
  -21.9188   -4.6965   22.3404 C   0  0  0  0  0  0
  -22.7876  -13.5249   21.1802 C   0  0  0  0  0  0
  -22.1662   -4.2156   21.0977 F   0  0  0  0  0  0
  -21.5624   -3.4533   25.7733 F   0  0  0  0  0  0
  -30.0167  -13.3650   20.4496 N   0  0  0  0  0  0
  -26.3048  -12.9300   20.3359 N   0  0  0  0  0  0
  -25.9321  -11.6453   20.5731 N   0  0  0  0  0  0
  -22.0489  -12.8291   22.0367 N   0  0  0  0  0  0
  -25.4374  -15.1864   20.4063 N   0  0  0  0  0  0
  -31.8266  -14.6655   20.1052 O   0  0  0  0  0  0
  -21.6631   -6.8877   21.4245 O   0  0  0  0  0  0
  -22.3560  -14.5542   20.6631 O   0  0  0  0  0  0
  -24.6194  -31.8655   23.2091 C   0  0  0  0  0  0
  -25.9071  -32.4813   23.8386 C   0  0  1  0  0  0
  -27.2278  -27.3884   20.0985 C   0  0  0  0  0  0
  -25.5911  -33.8614   24.2311 N   0  0  0  0  0  0
  -23.4076  -30.4906   21.5520 C   0  0  2  0  0  0
  -24.8516  -28.9545   20.1128 C   0  0  0  0  0  0
  -22.7431  -29.4647   22.4993 C   0  0  0  0  0  0
  -18.0273  -28.1394   22.8482 C   0  0  0  0  0  0
  -24.1487  -36.7311   23.2637 C   0  0  0  0  0  0
  -25.9418  -30.8161   21.3685 C   0  0  0  0  0  0
  -26.0166  -29.4491   20.7118 C   0  0  0  0  0  0
  -27.2061  -28.6751   20.6991 C   0  0  0  0  0  0
  -26.0382  -26.9269   19.4838 C   0  0  0  0  0  0
  -24.8604  -27.6956   19.4942 C   0  0  0  0  0  0
  -23.6166  -29.8277   20.1653 C   0  0  0  0  0  0
  -25.4108  -36.3107   24.0333 C   0  0  1  0  0  0
  -20.5866  -28.3676   23.1317 C   0  0  2  0  0  0
  -20.6774  -26.9413   22.5420 C   0  0  0  0  0  0
  -19.5751  -26.6396   21.5215 C   0  0  0  0  0  0
  -18.1923  -26.7940   22.1616 C   0  0  0  0  0  0
  -19.1523  -28.8851   23.2892 C   0  0  0  0  0  0
  -18.9454  -30.1461   23.8904 C   0  0  0  0  0  0
  -17.6455  -30.6596   24.0570 C   0  0  0  0  0  0
  -25.9042  -34.9471   23.5118 C   0  0  0  0  0  0
  -16.5345  -29.9098   23.6338 C   0  0  0  0  0  0
  -16.7261  -28.6517   23.0347 C   0  0  0  0  0  0
  -26.4482  -31.6610   25.0734 C   0  0  0  0  0  0
  -25.3736  -31.3735   26.1479 C   0  0  0  0  0  0
  -27.0320  -30.3047   24.6141 C   0  0  0  0  0  0
  -27.6064  -32.4330   25.7482 C   0  0  0  0  0  0
  -27.5579  -37.1808   24.8462 C   0  0  0  0  0  0
  -21.4150  -29.3032   22.3720 N   0  0  0  0  0  0
  -26.4291  -37.3794   23.9411 N   0  0  0  0  0  0
  -24.6752  -31.0719   22.1012 N   0  0  0  0  0  0
  -23.4181  -28.8186   23.3044 O   0  0  0  0  0  0
  -28.3811  -26.6090   20.1343 O   0  0  0  0  0  0
  -26.5604  -34.8927   22.4682 O   0  0  0  0  0  0
  -23.5380  -32.1424   23.7465 O   0  0  0  0  0  0
  -30.1585  -22.6717   18.1379 C   0  0  0  0  0  0
  -30.8941  -22.0677   17.1097 C   0  0  0  0  0  0
  -29.9392  -21.9802   19.3513 C   0  0  0  0  0  0
  -31.4008  -20.7807   17.3153 C   0  0  0  0  0  0
  -30.4165  -20.6245   19.4318 C   0  0  0  0  0  0
  -32.2685  -20.1166   16.2672 C   0  0  0  0  0  0
  -29.0648  -15.7052   22.1525 C   0  0  0  0  0  0
  -29.2287  -22.7430   20.4919 C   0  0  0  0  0  0
  -30.2761  -19.6696   20.6387 C   0  0  0  0  0  0
  -29.4011  -24.3136   20.5257 C   0  0  0  0  0  0
  -29.8187  -18.1887   20.3312 C   0  0  0  0  0  0
  -30.6942  -17.0617   20.9869 C   0  0  0  0  0  0
  -28.2344  -25.1728   19.9455 C   0  0  0  0  0  0
  -31.1646  -20.0830   18.4421 N   0  0  0  0  0  0
  -30.0732  -15.6942   21.0832 N   0  0  0  0  0  0
  -31.4781  -12.4928   19.1188 H   0  0  0  0  0  0
  -30.3813  -11.3605   19.8275 H   0  0  0  0  0  0
  -29.7643  -11.8043   17.4382 H   0  0  0  0  0  0
  -29.6652  -13.5161   17.7566 H   0  0  0  0  0  0
  -27.8387  -11.3247   18.7970 H   0  0  0  0  0  0
  -27.3749  -12.6601   17.7767 H   0  0  0  0  0  0
  -27.7195  -14.2606   19.6041 H   0  0  0  0  0  0
  -28.7302  -11.8705   21.1910 H   0  0  0  0  0  0
  -28.4314  -13.3529   21.9391 H   0  0  0  0  0  0
  -25.2748   -9.5661   22.4778 H   0  0  0  0  0  0
  -23.9978   -7.4619   22.7484 H   0  0  0  0  0  0
  -21.0825   -8.8767   19.8975 H   0  0  0  0  0  0
  -22.3685  -10.9664   19.6165 H   0  0  0  0  0  0
  -21.2024   -7.6151   23.9724 H   0  0  0  0  0  0
  -21.1467   -6.0528   25.9085 H   0  0  0  0  0  0
  -22.0610   -2.7614   23.2842 H   0  0  0  0  0  0
  -22.4055  -11.9954   22.4786 H   0  0  0  0  0  0
  -21.1102  -13.1341   22.2527 H   0  0  0  0  0  0
  -24.6795  -15.8503   20.5133 H   0  0  0  0  0  0
  -26.3002  -15.6142   20.0925 H   0  0  0  0  0  0
  -26.7132  -32.5502   23.1137 H   0  0  0  0  0  0
  -25.0066  -33.9767   25.0457 H   0  0  0  0  0  0
  -22.6976  -31.3094   21.4172 H   0  0  0  0  0  0
  -23.3746  -35.9647   23.3309 H   0  0  0  0  0  0
  -24.3573  -36.8921   22.2048 H   0  0  0  0  0  0
  -23.7242  -37.6519   23.6649 H   0  0  0  0  0  0
  -26.0597  -31.5804   20.5996 H   0  0  0  0  0  0
  -26.8275  -30.8672   21.9901 H   0  0  0  0  0  0
  -28.1018  -29.0524   21.1726 H   0  0  0  0  0  0
  -25.9941  -25.9673   18.9913 H   0  0  0  0  0  0
  -23.9660  -27.3106   19.0239 H   0  0  0  0  0  0
  -23.7274  -30.6071   19.4107 H   0  0  0  0  0  0
  -22.7368  -29.2552   19.8662 H   0  0  0  0  0  0
  -25.1286  -36.1965   25.0826 H   0  0  0  0  0  0
  -20.9940  -28.3242   24.1443 H   0  0  0  0  0  0
  -20.5691  -26.2275   23.3602 H   0  0  0  0  0  0
  -21.6646  -26.7470   22.1207 H   0  0  0  0  0  0
  -19.6920  -25.6306   21.1246 H   0  0  0  0  0  0
  -19.6708  -27.3209   20.6747 H   0  0  0  0  0  0
  -17.4200  -26.6681   21.4016 H   0  0  0  0  0  0
  -18.0323  -26.0087   22.9016 H   0  0  0  0  0  0
  -19.7931  -30.7278   24.2271 H   0  0  0  0  0  0
  -17.5015  -31.6279   24.5173 H   0  0  0  0  0  0
  -15.5349  -30.3006   23.7680 H   0  0  0  0  0  0
  -15.8652  -28.0857   22.7055 H   0  0  0  0  0  0
  -24.5901  -30.7090   25.7811 H   0  0  0  0  0  0
  -24.8939  -32.2906   26.4917 H   0  0  0  0  0  0
  -25.8079  -30.8905   27.0242 H   0  0  0  0  0  0
  -26.2876  -29.6798   24.1195 H   0  0  0  0  0  0
  -27.4077  -29.7298   25.4615 H   0  0  0  0  0  0
  -27.8716  -30.4358   23.9310 H   0  0  0  0  0  0
  -27.2693  -33.3619   26.2092 H   0  0  0  0  0  0
  -28.3850  -32.6907   25.0290 H   0  0  0  0  0  0
  -28.0762  -31.8438   26.5369 H   0  0  0  0  0  0
  -28.2612  -38.0091   24.7509 H   0  0  0  0  0  0
  -28.1064  -36.2629   24.6293 H   0  0  0  0  0  0
  -27.2302  -37.1463   25.8866 H   0  0  0  0  0  0
  -20.9322  -29.8731   21.6919 H   0  0  0  0  0  0
  -26.0182  -38.2871   24.1422 H   0  0  0  0  0  0
  -29.7954  -23.6770   17.9859 H   0  0  0  0  0  0
  -31.0883  -22.6025   16.1907 H   0  0  0  0  0  0
  -33.1934  -20.6792   16.1369 H   0  0  0  0  0  0
  -31.7526  -20.0853   15.3083 H   0  0  0  0  0  0
  -32.5326  -19.0959   16.5444 H   0  0  0  0  0  0
  -28.9564  -16.6819   22.6256 H   0  0  0  0  0  0
  -29.3348  -15.0197   22.9571 H   0  0  0  0  0  0
  -28.0748  -15.4655   21.7664 H   0  0  0  0  0  0
  -29.6294  -22.3605   21.4308 H   0  0  0  0  0  0
  -28.1702  -22.4794   20.4948 H   0  0  0  0  0  0
  -29.5837  -20.0960   21.3635 H   0  0  0  0  0  0
  -31.2430  -19.6553   21.1422 H   0  0  0  0  0  0
  -30.3560  -24.6098   20.0915 H   0  0  0  0  0  0
  -29.4782  -24.5980   21.5752 H   0  0  0  0  0  0
  -29.8051  -18.0139   19.2549 H   0  0  0  0  0  0
  -28.7795  -18.0903   20.6440 H   0  0  0  0  0  0
  -30.9732  -17.3719   21.9957 H   0  0  0  0  0  0
  -31.6443  -17.0401   20.4498 H   0  0  0  0  0  0
  -27.3239  -24.8319   20.4394 H   0  0  0  0  0  0
  -28.1166  -24.9684   18.8810 H   0  0  0  0  0  0
  1 25  1  0  0  0
  1 30  2  0  0  0
  1 85  1  0  0  0
  2  3  1  0  0  0
  2 25  1  0  0  0
  2 86  1  0  0  0
  2 87  1  0  0  0
  3  4  1  0  0  0
  3 88  1  0  0  0
  3 89  1  0  0  0
  4  5  1  0  0  0
  4 90  1  0  0  0
  4 91  1  0  0  0
  5  6  1  0  0  0
  5 26  1  0  0  0
  5 92  1  0  0  0
  6 25  1  0  0  0
  6 93  1  0  0  0
  6 94  1  0  0  0
  7  8  2  0  0  0
  7 26  1  0  0  0
  7 29  1  0  0  0
  8  9  1  0  0  0
  8 22  1  0  0  0
  9 10  1  0  0  0
  9 27  2  0  0  0
 10 11  2  0  0  0
 10 15  1  0  0  0
 11 12  1  0  0  0
 11 95  1  0  0  0
 12 13  2  0  0  0
 12 96  1  0  0  0
 13 14  1  0  0  0
 13 31  1  0  0  0
 14 15  2  0  0  0
 14 97  1  0  0  0
 15 98  1  0  0  0
 16 17  2  0  0  0
 16 21  1  0  0  0
 16 31  1  0  0  0
 17 18  1  0  0  0
 17 99  1  0  0  0
 18 19  2  0  0  0
 18100  1  0  0  0
 19 20  1  0  0  0
 19 24  1  0  0  0
 20 21  2  0  0  0
 20101  1  0  0  0
 21 23  1  0  0  0
 22 28  1  0  0  0
 22 32  2  0  0  0
 26 27  1  0  0  0
 28102  1  0  0  0
 28103  1  0  0  0
 29104  1  0  0  0
 29105  1  0  0  0
 33 34  1  0  0  0
 33 66  1  0  0  0
 33 70  2  0  0  0
 34 36  1  0  0  0
 34 59  1  0  0  0
 34106  1  0  0  0
 35 44  2  0  0  0
 35 45  1  0  0  0
 35 68  1  0  0  0
 36 56  1  0  0  0
 36107  1  0  0  0
 37 39  1  0  0  0
 37 47  1  0  0  0
 37 66  1  0  0  0
 37108  1  0  0  0
 38 43  2  0  0  0
 38 46  1  0  0  0
 38 47  1  0  0  0
 39 64  1  0  0  0
 39 67  2  0  0  0
 40 52  1  0  0  0
 40 53  2  0  0  0
 40 58  1  0  0  0
 41109  1  0  0  0
 41110  1  0  0  0
 41111  1  0  0  0
 41 48  1  0  0  0
 42 43  1  0  0  0
 42 66  1  0  0  0
 42112  1  0  0  0
 42113  1  0  0  0
 43 44  1  0  0  0
 44114  1  0  0  0
 45 46  2  0  0  0
 45115  1  0  0  0
 46116  1  0  0  0
 47117  1  0  0  0
 47118  1  0  0  0
 48 56  1  0  0  0
 48 65  1  0  0  0
 48119  1  0  0  0
 49 50  1  0  0  0
 49 53  1  0  0  0
 49 64  1  0  0  0
 49120  1  0  0  0
 50 51  1  0  0  0
 50121  1  0  0  0
 50122  1  0  0  0
 51 52  1  0  0  0
 51123  1  0  0  0
 51124  1  0  0  0
 52125  1  0  0  0
 52126  1  0  0  0
 53 54  1  0  0  0
 54 55  2  0  0  0
 54127  1  0  0  0
 55 57  1  0  0  0
 55128  1  0  0  0
 56 69  2  0  0  0
 57 58  2  0  0  0
 57129  1  0  0  0
 58130  1  0  0  0
 59 60  1  0  0  0
 59 61  1  0  0  0
 59 62  1  0  0  0
 60131  1  0  0  0
 60132  1  0  0  0
 60133  1  0  0  0
 61134  1  0  0  0
 61135  1  0  0  0
 61136  1  0  0  0
 62137  1  0  0  0
 62138  1  0  0  0
 62139  1  0  0  0
 63 65  1  0  0  0
 63140  1  0  0  0
 63141  1  0  0  0
 63142  1  0  0  0
 64143  1  0  0  0
 65144  1  0  0  0
 68 83  1  0  0  0
 71 72  2  0  0  0
 71 73  1  0  0  0
 71145  1  0  0  0
 72 74  1  0  0  0
 72146  1  0  0  0
 73 75  2  0  0  0
 73 78  1  0  0  0
 74 76  1  0  0  0
 74 84  2  0  0  0
 75 79  1  0  0  0
 75 84  1  0  0  0
 76147  1  0  0  0
 76148  1  0  0  0
 76149  1  0  0  0
 77 85  1  0  0  0
 77150  1  0  0  0
 77151  1  0  0  0
 77152  1  0  0  0
 78 80  1  0  0  0
 78153  1  0  0  0
 78154  1  0  0  0
 79 81  1  0  0  0
 79155  1  0  0  0
 79156  1  0  0  0
 80 83  1  0  0  0
 80157  1  0  0  0
 80158  1  0  0  0
 81 82  1  0  0  0
 81159  1  0  0  0
 81160  1  0  0  0
 82 85  1  0  0  0
 82161  1  0  0  0
 82162  1  0  0  0
 83163  1  0  0  0
 83164  1  0  0  0
M  ISO  4   1 100  68 101  83 101  85 100
M  END
> <chiral flag>
0

> <version>
0

> <s_m_source_file>
/data/baiqing/PycharmProjects/Reinvent-master-3.2/result/LINK_invent/BTK/process_docking_weight1_custom_sum_contain_oxygen_bond_distance_aromatic_linkinvent_7_9_3/rearranged_h_0083.sdf

> <i_m_source_file_index>
86

> <r_mmod_Potential_Energy-OPLS-2005>
18.5491390228271

> <r_mmod_Stretch_Energy-OPLS-2005>
65.740478515625

> <r_mmod_Bend_Energy-OPLS-2005>
143.923187255859

> <r_mmod_Torsional_Energy-OPLS-2005>
262.847869873047

> <r_mmod_Improper_Torsional_Energy-OPLS-2005>
6.53631019592285

> <r_mmod_Van_der_Waal_Energy-OPLS-2005>
173.977325439453

> <r_mmod_Electrostatic_Energy-OPLS-2005>
-444.447998046875

> <r_mmod_Solvation_Energy-OPLS-2005>
-212.782348632812

> <b_mmod_Minimization_Converged-OPLS-2005>
0

> <r_mmod_RMS_Derivative-OPLS-2005>
2.56980085372925

$$$$
86
                    3D
 Structure written by MMmdl.
157165  0  0  1  0            999 V2000
  -30.5559  -15.0157   20.3787 C   0  0  0  0  0  0
  -30.4244  -12.6229   19.5233 C   0  0  0  0  0  0
  -29.5280  -12.5354   18.2677 C   0  0  0  0  0  0
  -28.0626  -12.3051   18.6824 C   0  0  0  0  0  0
  -27.6194  -13.2590   19.8249 C   0  0  2  0  0  0
  -28.6546  -13.3542   20.9659 C   0  0  0  0  0  0
  -25.2411  -13.8222   20.5676 C   0  0  0  0  0  0
  -24.1745  -13.0442   20.9196 C   0  0  0  0  0  0
  -24.6372  -11.6928   20.8718 C   0  0  0  0  0  0
  -23.9067  -10.4291   21.0394 C   0  0  0  0  0  0
  -24.3625   -9.4215   21.9179 C   0  0  0  0  0  0
  -23.6301   -8.2252   22.0769 C   0  0  0  0  0  0
  -22.4282   -8.0272   21.3550 C   0  0  0  0  0  0
  -21.9899   -9.0248   20.4659 C   0  0  0  0  0  0
  -22.7237  -10.2119   20.3059 C   0  0  0  0  0  0
  -21.6861   -6.0723   22.5285 C   0  0  0  0  0  0
  -21.4017   -6.5631   23.8214 C   0  0  0  0  0  0
  -21.3668   -5.6789   24.9175 C   0  0  0  0  0  0
  -21.6049   -4.3052   24.7231 C   0  0  0  0  0  0
  -21.8824   -3.8134   23.4355 C   0  0  0  0  0  0
  -21.9195   -4.6949   22.3410 C   0  0  0  0  0  0
  -22.7778  -13.5215   21.1862 C   0  0  0  0  0  0
  -22.1668   -4.2139   21.0985 F   0  0  0  0  0  0
  -21.5622   -3.4541   25.7742 F   0  0  0  0  0  0
  -29.9278  -13.7625   20.3584 N   0  0  0  0  0  0
  -26.2830  -12.9483   20.3177 N   0  0  0  0  0  0
  -25.9298  -11.6592   20.5669 N   0  0  0  0  0  0
  -22.0439  -12.8213   22.0425 N   0  0  0  0  0  0
  -25.4040  -15.1971   20.4101 N   0  0  0  0  0  0
  -31.7662  -14.9783   20.1343 O   0  0  0  0  0  0
  -21.6656   -6.8868   21.4247 O   0  0  0  0  0  0
  -22.3470  -14.5527   20.6700 O   0  0  0  0  0  0
  -24.6476  -31.8443   23.1849 C   0  0  0  0  0  0
  -25.9224  -32.4707   23.8278 C   0  0  1  0  0  0
  -27.2024  -27.0826   20.1644 C   0  0  0  0  0  0
  -25.5956  -33.8514   24.2210 N   0  0  0  0  0  0
  -23.4526  -30.4604   21.5347 C   0  0  2  0  0  0
  -24.8989  -28.8770   20.1179 C   0  0  0  0  0  0
  -22.7597  -29.4537   22.4894 C   0  0  0  0  0  0
  -18.0315  -28.1388   22.8485 C   0  0  0  0  0  0
  -24.1471  -36.7219   23.2647 C   0  0  0  0  0  0
  -26.0135  -30.7004   21.3903 C   0  0  0  0  0  0
  -26.0811  -29.3056   20.7333 C   0  0  0  0  0  0
  -27.2356  -28.4260   20.7347 C   0  0  0  0  0  0
  -25.9921  -26.7682   19.5086 C   0  0  0  0  0  0
  -24.8693  -27.6228   19.4921 C   0  0  0  0  0  0
  -23.6794  -29.7882   20.1559 C   0  0  0  0  0  0
  -25.4112  -36.3038   24.0330 C   0  0  1  0  0  0
  -20.5930  -28.3713   23.1253 C   0  0  2  0  0  0
  -20.6799  -26.9430   22.5409 C   0  0  0  0  0  0
  -19.5764  -26.6379   21.5227 C   0  0  0  0  0  0
  -18.1946  -26.7933   22.1631 C   0  0  0  0  0  0
  -19.1575  -28.8868   23.2856 C   0  0  0  0  0  0
  -18.9493  -30.1466   23.8883 C   0  0  0  0  0  0
  -17.6490  -30.6598   24.0542 C   0  0  0  0  0  0
  -25.9083  -34.9422   23.5086 C   0  0  0  0  0  0
  -16.5380  -29.9083   23.6340 C   0  0  0  0  0  0
  -16.7299  -28.6489   23.0386 C   0  0  0  0  0  0
  -26.4539  -31.6588   25.0731 C   0  0  0  0  0  0
  -25.3684  -31.3788   26.1395 C   0  0  0  0  0  0
  -27.0449  -30.2993   24.6342 C   0  0  0  0  0  0
  -27.6086  -32.4362   25.7495 C   0  0  0  0  0  0
  -27.5577  -37.1767   24.8486 C   0  0  0  0  0  0
  -21.4294  -29.3034   22.3622 N   0  0  0  0  0  0
  -26.4281  -37.3747   23.9438 N   0  0  0  0  0  0
  -24.7250  -31.0249   22.0900 N   0  0  0  0  0  0
  -23.4238  -28.8091   23.3058 O   0  0  0  0  0  0
  -28.2423  -26.0704   20.2189 O   0  0  0  0  0  0
  -26.5672  -34.8920   22.4668 O   0  0  0  0  0  0
  -23.5589  -32.1354   23.7028 O   0  0  0  0  0  0
  -29.4936  -20.5318   19.6555 C   0  0  0  0  0  0
  -29.4861  -19.2638   20.3334 C   0  0  0  0  0  0
  -28.5226  -21.0028   21.5419 C   0  0  0  0  0  0
  -27.8520  -21.6832   22.6941 C   0  0  0  0  0  0
  -32.3642  -19.3013   19.6918 C   0  0  0  0  0  0
  -31.7566  -17.9630   20.1370 C   0  0  0  0  0  0
  -29.0985  -23.2474   20.2094 C   0  0  0  0  0  0
  -27.9566  -24.5120   20.2575 C   0  0  0  0  0  0
  -30.2141  -17.7804   20.0101 C   0  0  2  0  0  0
  -28.9655  -21.6251   20.4210 N   0  0  0  0  0  0
  -28.8403  -19.6642   21.4938 N   0  3  0  0  0  0
  -29.8435  -16.2722   20.4505 N   0  0  0  0  0  0
  -31.4700  -12.7408   19.2303 H   0  0  0  0  0  0
  -30.3808  -11.6883   20.0868 H   0  0  0  0  0  0
  -29.8655  -11.7302   17.6128 H   0  0  0  0  0  0
  -29.6144  -13.4595   17.6925 H   0  0  0  0  0  0
  -27.9687  -11.2668   19.0088 H   0  0  0  0  0  0
  -27.4054  -12.4090   17.8183 H   0  0  0  0  0  0
  -27.5602  -14.2485   19.3688 H   0  0  0  0  0  0
  -28.7462  -12.4057   21.4981 H   0  0  0  0  0  0
  -28.3395  -14.0985   21.6989 H   0  0  0  0  0  0
  -25.2777   -9.5697   22.4735 H   0  0  0  0  0  0
  -24.0011   -7.4653   22.7489 H   0  0  0  0  0  0
  -21.0831   -8.8777   19.8966 H   0  0  0  0  0  0
  -22.3708  -10.9655   19.6161 H   0  0  0  0  0  0
  -21.2021   -7.6141   23.9714 H   0  0  0  0  0  0
  -21.1482   -6.0514   25.9076 H   0  0  0  0  0  0
  -22.0589   -2.7593   23.2874 H   0  0  0  0  0  0
  -22.4064  -11.9895   22.4854 H   0  0  0  0  0  0
  -21.1053  -13.1236   22.2618 H   0  0  0  0  0  0
  -24.6235  -15.8380   20.5046 H   0  0  0  0  0  0
  -26.2450  -15.6457   20.0748 H   0  0  0  0  0  0
  -26.7283  -32.5304   23.1014 H   0  0  0  0  0  0
  -25.0075  -33.9650   25.0337 H   0  0  0  0  0  0
  -22.7568  -31.2856   21.3772 H   0  0  0  0  0  0
  -23.3777  -35.9507   23.3307 H   0  0  0  0  0  0
  -24.3536  -36.8845   22.2061 H   0  0  0  0  0  0
  -23.7180  -37.6393   23.6677 H   0  0  0  0  0  0
  -26.1827  -31.4520   20.6190 H   0  0  0  0  0  0
  -26.8792  -30.7485   22.0405 H   0  0  0  0  0  0
  -28.1387  -28.7490   21.2334 H   0  0  0  0  0  0
  -25.8732  -25.8158   19.0180 H   0  0  0  0  0  0
  -23.9634  -27.2892   19.0062 H   0  0  0  0  0  0
  -23.8211  -30.5618   19.4010 H   0  0  0  0  0  0
  -22.7904  -29.2374   19.8424 H   0  0  0  0  0  0
  -25.1296  -36.1873   25.0821 H   0  0  0  0  0  0
  -21.0029  -28.3277   24.1377 H   0  0  0  0  0  0
  -20.5717  -26.2335   23.3621 H   0  0  0  0  0  0
  -21.6661  -26.7449   22.1193 H   0  0  0  0  0  0
  -19.6944  -25.6288   21.1272 H   0  0  0  0  0  0
  -19.6690  -27.3172   20.6744 H   0  0  0  0  0  0
  -17.4232  -26.6714   21.4016 H   0  0  0  0  0  0
  -18.0302  -26.0072   22.9023 H   0  0  0  0  0  0
  -19.7967  -30.7277   24.2270 H   0  0  0  0  0  0
  -17.5040  -31.6281   24.5136 H   0  0  0  0  0  0
  -15.5376  -30.2979   23.7665 H   0  0  0  0  0  0
  -15.8698  -28.0769   22.7167 H   0  0  0  0  0  0
  -24.5861  -30.7156   25.7665 H   0  0  0  0  0  0
  -24.8847  -32.2962   26.4751 H   0  0  0  0  0  0
  -25.7885  -30.8970   27.0227 H   0  0  0  0  0  0
  -26.3105  -29.6691   24.1303 H   0  0  0  0  0  0
  -27.4047  -29.7318   25.4928 H   0  0  0  0  0  0
  -27.8994  -30.4270   23.9692 H   0  0  0  0  0  0
  -27.2727  -33.3716   26.1988 H   0  0  0  0  0  0
  -28.3915  -32.6857   25.0317 H   0  0  0  0  0  0
  -28.0734  -31.8538   26.5474 H   0  0  0  0  0  0
  -28.2611  -38.0052   24.7552 H   0  0  0  0  0  0
  -28.1074  -36.2604   24.6300 H   0  0  0  0  0  0
  -27.2303  -37.1370   25.8887 H   0  0  0  0  0  0
  -20.9542  -29.8698   21.6738 H   0  0  0  0  0  0
  -26.0167  -38.2825   24.1441 H   0  0  0  0  0  0
  -29.9385  -20.7471   18.6941 H   0  0  0  0  0  0
  -27.8089  -21.0012   23.5424 H   0  0  0  0  0  0
  -26.8405  -21.9622   22.3973 H   0  0  0  0  0  0
  -28.4205  -22.5725   22.9646 H   0  0  0  0  0  0
  -32.0709  -19.5515   18.6721 H   0  0  0  0  0  0
  -33.4538  -19.2464   19.7061 H   0  0  0  0  0  0
  -32.0773  -20.1199   20.3508 H   0  0  0  0  0  0
  -32.0590  -17.7864   21.1692 H   0  0  0  0  0  0
  -32.2576  -17.2108   19.5307 H   0  0  0  0  0  0
  -29.8650  -23.5405   20.9267 H   0  0  0  0  0  0
  -29.5900  -23.3497   19.2426 H   0  0  0  0  0  0
  -27.3476  -24.3559   21.1488 H   0  0  0  0  0  0
  -27.2916  -24.2955   19.4258 H   0  0  0  0  0  0
  -30.0533  -17.6978   18.9345 H   0  0  0  0  0  0
  -28.6682  -19.0309   22.2680 H   0  0  0  0  0  0
  -28.8618  -16.1463   20.6401 H   0  0  0  0  0  0
  1 25  1  0  0  0
  1 30  2  0  0  0
  1 82  1  0  0  0
  2  3  1  0  0  0
  2 25  1  0  0  0
  2 83  1  0  0  0
  2 84  1  0  0  0
  3  4  1  0  0  0
  3 85  1  0  0  0
  3 86  1  0  0  0
  4  5  1  0  0  0
  4 87  1  0  0  0
  4 88  1  0  0  0
  5  6  1  0  0  0
  5 26  1  0  0  0
  5 89  1  0  0  0
  6 25  1  0  0  0
  6 90  1  0  0  0
  6 91  1  0  0  0
  7  8  2  0  0  0
  7 26  1  0  0  0
  7 29  1  0  0  0
  8  9  1  0  0  0
  8 22  1  0  0  0
  9 10  1  0  0  0
  9 27  2  0  0  0
 10 11  2  0  0  0
 10 15  1  0  0  0
 11 12  1  0  0  0
 11 92  1  0  0  0
 12 13  2  0  0  0
 12 93  1  0  0  0
 13 14  1  0  0  0
 13 31  1  0  0  0
 14 15  2  0  0  0
 14 94  1  0  0  0
 15 95  1  0  0  0
 16 17  2  0  0  0
 16 21  1  0  0  0
 16 31  1  0  0  0
 17 18  1  0  0  0
 17 96  1  0  0  0
 18 19  2  0  0  0
 18 97  1  0  0  0
 19 20  1  0  0  0
 19 24  1  0  0  0
 20 21  2  0  0  0
 20 98  1  0  0  0
 21 23  1  0  0  0
 22 28  1  0  0  0
 22 32  2  0  0  0
 26 27  1  0  0  0
 28 99  1  0  0  0
 28100  1  0  0  0
 29101  1  0  0  0
 29102  1  0  0  0
 33 34  1  0  0  0
 33 66  1  0  0  0
 33 70  2  0  0  0
 34 36  1  0  0  0
 34 59  1  0  0  0
 34103  1  0  0  0
 35 44  2  0  0  0
 35 45  1  0  0  0
 35 68  1  0  0  0
 36 56  1  0  0  0
 36104  1  0  0  0
 37 39  1  0  0  0
 37 47  1  0  0  0
 37 66  1  0  0  0
 37105  1  0  0  0
 38 43  2  0  0  0
 38 46  1  0  0  0
 38 47  1  0  0  0
 39 64  1  0  0  0
 39 67  2  0  0  0
 40 52  1  0  0  0
 40 53  2  0  0  0
 40 58  1  0  0  0
 41106  1  0  0  0
 41107  1  0  0  0
 41108  1  0  0  0
 41 48  1  0  0  0
 42 43  1  0  0  0
 42 66  1  0  0  0
 42109  1  0  0  0
 42110  1  0  0  0
 43 44  1  0  0  0
 44111  1  0  0  0
 45 46  2  0  0  0
 45112  1  0  0  0
 46113  1  0  0  0
 47114  1  0  0  0
 47115  1  0  0  0
 48 56  1  0  0  0
 48 65  1  0  0  0
 48116  1  0  0  0
 49 50  1  0  0  0
 49 53  1  0  0  0
 49 64  1  0  0  0
 49117  1  0  0  0
 50 51  1  0  0  0
 50118  1  0  0  0
 50119  1  0  0  0
 51 52  1  0  0  0
 51120  1  0  0  0
 51121  1  0  0  0
 52122  1  0  0  0
 52123  1  0  0  0
 53 54  1  0  0  0
 54 55  2  0  0  0
 54124  1  0  0  0
 55 57  1  0  0  0
 55125  1  0  0  0
 56 69  2  0  0  0
 57 58  2  0  0  0
 57126  1  0  0  0
 58127  1  0  0  0
 59 60  1  0  0  0
 59 61  1  0  0  0
 59 62  1  0  0  0
 60128  1  0  0  0
 60129  1  0  0  0
 60130  1  0  0  0
 61131  1  0  0  0
 61132  1  0  0  0
 61133  1  0  0  0
 62134  1  0  0  0
 62135  1  0  0  0
 62136  1  0  0  0
 63 65  1  0  0  0
 63137  1  0  0  0
 63138  1  0  0  0
 63139  1  0  0  0
 64140  1  0  0  0
 65141  1  0  0  0
 68 78  1  0  0  0
 71 72  2  0  0  0
 71 80  1  0  0  0
 71142  1  0  0  0
 72 79  1  0  0  0
 72 81  1  0  0  0
 73 74  1  0  0  0
 73 80  1  0  0  0
 73 81  2  0  0  0
 74143  1  0  0  0
 74144  1  0  0  0
 74145  1  0  0  0
 75 76  1  0  0  0
 75146  1  0  0  0
 75147  1  0  0  0
 75148  1  0  0  0
 76149  1  0  0  0
 76150  1  0  0  0
 76 79  1  0  0  0
 77 78  1  0  0  0
 77 80  1  0  0  0
 77151  1  0  0  0
 77152  1  0  0  0
 78153  1  0  0  0
 78154  1  0  0  0
 79 82  1  0  0  0
 79155  1  0  0  0
 81156  1  0  0  0
 82157  1  0  0  0
M  CHG  1  81   1
M  ISO  4   1 100  68 101  78 101  82 100
M  END
> <chiral flag>
0

> <version>
0

> <s_m_source_file>
/data/baiqing/PycharmProjects/Reinvent-master-3.2/result/LINK_invent/BTK/process_docking_weight1_custom_sum_contain_oxygen_bond_distance_aromatic_linkinvent_7_9_3/rearranged_h_0083.sdf

> <i_m_source_file_index>
87

> <r_mmod_Potential_Energy-OPLS-2005>
513.195678710938

> <r_mmod_Stretch_Energy-OPLS-2005>
325.127899169922

> <r_mmod_Bend_Energy-OPLS-2005>
310.631683349609

> <r_mmod_Torsional_Energy-OPLS-2005>
233.328674316406

> <r_mmod_Improper_Torsional_Energy-OPLS-2005>
7.87382793426514

> <r_mmod_Van_der_Waal_Energy-OPLS-2005>
119.269981384277

> <r_mmod_Electrostatic_Energy-OPLS-2005>
-291.623138427734

> <r_mmod_Solvation_Energy-OPLS-2005>
-432.302947998047

> <b_mmod_Minimization_Converged-OPLS-2005>
0

> <r_mmod_RMS_Derivative-OPLS-2005>
3.13199639320374

$$$$
87
                    3D
 Structure written by MMmdl.
154162  0  0  1  0            999 V2000
  -30.5859  -14.7171   20.4774 C   0  0  0  0  0  0
  -30.4439  -12.4427   19.4523 C   0  0  0  0  0  0
  -29.5035  -12.4807   18.2270 C   0  0  0  0  0  0
  -28.0294  -12.3179   18.6432 C   0  0  0  0  0  0
  -27.6451  -13.2092   19.8514 C   0  0  2  0  0  0
  -28.6905  -13.1071   20.9824 C   0  0  0  0  0  0
  -25.2574  -13.8163   20.5657 C   0  0  0  0  0  0
  -24.1835  -13.0455   20.9208 C   0  0  0  0  0  0
  -24.6380  -11.6912   20.8739 C   0  0  0  0  0  0
  -23.9037  -10.4316   21.0398 C   0  0  0  0  0  0
  -24.3597   -9.4231   21.9166 C   0  0  0  0  0  0
  -23.6301   -8.2250   22.0747 C   0  0  0  0  0  0
  -22.4287   -8.0274   21.3526 C   0  0  0  0  0  0
  -21.9904   -9.0241   20.4637 C   0  0  0  0  0  0
  -22.7206  -10.2143   20.3050 C   0  0  0  0  0  0
  -21.6864   -6.0718   22.5264 C   0  0  0  0  0  0
  -21.4012   -6.5624   23.8196 C   0  0  0  0  0  0
  -21.3663   -5.6784   24.9158 C   0  0  0  0  0  0
  -21.6060   -4.3049   24.7218 C   0  0  0  0  0  0
  -21.8821   -3.8135   23.4340 C   0  0  0  0  0  0
  -21.9212   -4.6945   22.3404 C   0  0  0  0  0  0
  -22.7866  -13.5255   21.1851 C   0  0  0  0  0  0
  -22.1677   -4.2118   21.0969 F   0  0  0  0  0  0
  -21.5639   -3.4546   25.7737 F   0  0  0  0  0  0
  -29.9896  -13.4796   20.4055 N   0  0  0  0  0  0
  -26.2938  -12.9298   20.3230 N   0  0  0  0  0  0
  -25.9290  -11.6475   20.5750 N   0  0  0  0  0  0
  -22.0508  -12.8248   22.0395 N   0  0  0  0  0  0
  -25.4368  -15.1884   20.4086 N   0  0  0  0  0  0
  -31.7662  -14.8660   20.1484 O   0  0  0  0  0  0
  -21.6650   -6.8860   21.4232 O   0  0  0  0  0  0
  -22.3531  -14.5546   20.6674 O   0  0  0  0  0  0
  -24.6333  -31.8518   23.1993 C   0  0  0  0  0  0
  -25.9179  -32.4707   23.8326 C   0  0  1  0  0  0
  -27.2133  -27.2475   20.1582 C   0  0  0  0  0  0
  -25.5951  -33.8504   24.2242 N   0  0  0  0  0  0
  -23.4282  -30.4786   21.5392 C   0  0  2  0  0  0
  -24.8750  -28.9166   20.1170 C   0  0  0  0  0  0
  -22.7480  -29.4613   22.4891 C   0  0  0  0  0  0
  -18.0280  -28.1381   22.8459 C   0  0  0  0  0  0
  -24.1484  -36.7272   23.2636 C   0  0  0  0  0  0
  -25.9752  -30.7646   21.3799 C   0  0  0  0  0  0
  -26.0489  -29.3867   20.7239 C   0  0  0  0  0  0
  -27.2226  -28.5653   20.7260 C   0  0  0  0  0  0
  -26.0185  -26.8480   19.5208 C   0  0  0  0  0  0
  -24.8660  -27.6557   19.5040 C   0  0  0  0  0  0
  -23.6507  -29.8093   20.1562 C   0  0  0  0  0  0
  -25.4101  -36.3026   24.0326 C   0  0  1  0  0  0
  -20.5880  -28.3688   23.1236 C   0  0  2  0  0  0
  -20.6757  -26.9405   22.5368 C   0  0  0  0  0  0
  -19.5756  -26.6370   21.5159 C   0  0  0  0  0  0
  -18.1935  -26.7913   22.1589 C   0  0  0  0  0  0
  -19.1538  -28.8853   23.2839 C   0  0  0  0  0  0
  -18.9465  -30.1440   23.8869 C   0  0  0  0  0  0
  -17.6472  -30.6588   24.0545 C   0  0  0  0  0  0
  -25.9054  -34.9402   23.5090 C   0  0  0  0  0  0
  -16.5361  -29.9082   23.6328 C   0  0  0  0  0  0
  -16.7265  -28.6499   23.0357 C   0  0  0  0  0  0
  -26.4546  -31.6551   25.0740 C   0  0  0  0  0  0
  -25.3771  -31.3737   26.1466 C   0  0  0  0  0  0
  -27.0411  -30.2952   24.6290 C   0  0  0  0  0  0
  -27.6102  -32.4280   25.7511 C   0  0  0  0  0  0
  -27.5565  -37.1770   24.8460 C   0  0  0  0  0  0
  -21.4184  -29.3058   22.3627 N   0  0  0  0  0  0
  -26.4263  -37.3735   23.9422 N   0  0  0  0  0  0
  -24.6971  -31.0497   22.0953 N   0  0  0  0  0  0
  -23.4161  -28.8139   23.2975 O   0  0  0  0  0  0
  -28.3041  -26.3493   20.1961 O   0  0  0  0  0  0
  -26.5628  -34.8892   22.4648 O   0  0  0  0  0  0
  -23.5483  -32.1328   23.7305 O   0  0  0  0  0  0
  -28.9613  -21.0848   19.7742 C   0  0  0  0  0  0
  -29.1831  -19.9415   20.5562 C   0  0  0  0  0  0
  -29.3177  -21.8408   21.8043 C   0  0  0  0  0  0
  -29.5493  -22.6913   23.0114 C   0  0  0  0  0  0
  -29.1046  -18.3905   20.2385 C   0  0  0  0  0  0
  -29.0766  -23.7404   20.0622 C   0  0  0  0  0  0
  -30.0843  -17.2909   20.9102 C   0  0  0  0  0  0
  -28.0732  -24.9035   20.5769 C   0  0  0  0  0  0
  -29.0565  -22.2565   20.5463 N   0  0  0  0  0  0
  -29.3813  -20.4861   21.8063 N   0  3  0  0  0  0
  -29.7709  -15.8012   20.7452 N   0  0  0  0  0  0
  -31.4684  -12.6161   19.1193 H   0  0  0  0  0  0
  -30.4408  -11.4581   19.9244 H   0  0  0  0  0  0
  -29.7815  -11.6932   17.5236 H   0  0  0  0  0  0
  -29.6228  -13.4249   17.6968 H   0  0  0  0  0  0
  -27.8787  -11.2679   18.8982 H   0  0  0  0  0  0
  -27.3730  -12.5230   17.7976 H   0  0  0  0  0  0
  -27.6513  -14.2367   19.4870 H   0  0  0  0  0  0
  -28.7303  -12.0931   21.3821 H   0  0  0  0  0  0
  -28.4171  -13.7522   21.8186 H   0  0  0  0  0  0
  -25.2745   -9.5725   22.4727 H   0  0  0  0  0  0
  -24.0036   -7.4644   22.7465 H   0  0  0  0  0  0
  -21.0836   -8.8751   19.8944 H   0  0  0  0  0  0
  -22.3654  -10.9674   19.6164 H   0  0  0  0  0  0
  -21.1975   -7.6127   23.9683 H   0  0  0  0  0  0
  -21.1488   -6.0511   25.9062 H   0  0  0  0  0  0
  -22.0601   -2.7590   23.2846 H   0  0  0  0  0  0
  -22.4140  -11.9938   22.4826 H   0  0  0  0  0  0
  -21.1094  -13.1226   22.2554 H   0  0  0  0  0  0
  -24.6848  -15.8545   20.5461 H   0  0  0  0  0  0
  -26.2704  -15.6121   20.0251 H   0  0  0  0  0  0
  -26.7246  -32.5367   23.1065 H   0  0  0  0  0  0
  -25.0045  -33.9593   25.0352 H   0  0  0  0  0  0
  -22.7270  -31.3017   21.3890 H   0  0  0  0  0  0
  -23.3734  -35.9620   23.3274 H   0  0  0  0  0  0
  -24.3585  -36.8911   22.2054 H   0  0  0  0  0  0
  -23.7258  -37.6474   23.6678 H   0  0  0  0  0  0
  -26.1162  -31.5247   20.6106 H   0  0  0  0  0  0
  -26.8501  -30.8106   22.0166 H   0  0  0  0  0  0
  -28.1227  -28.9177   21.2114 H   0  0  0  0  0  0
  -25.9552  -25.8833   19.0421 H   0  0  0  0  0  0
  -23.9682  -27.2844   19.0272 H   0  0  0  0  0  0
  -23.7872  -30.5846   19.4008 H   0  0  0  0  0  0
  -22.7681  -29.2473   19.8426 H   0  0  0  0  0  0
  -25.1279  -36.1840   25.0818 H   0  0  0  0  0  0
  -20.9964  -28.3262   24.1366 H   0  0  0  0  0  0
  -20.5576  -26.2311   23.3572 H   0  0  0  0  0  0
  -21.6632  -26.7385   22.1215 H   0  0  0  0  0  0
  -19.6915  -25.6261   21.1225 H   0  0  0  0  0  0
  -19.6714  -27.3141   20.6662 H   0  0  0  0  0  0
  -17.4174  -26.6599   21.4028 H   0  0  0  0  0  0
  -18.0415  -26.0056   22.9004 H   0  0  0  0  0  0
  -19.7949  -30.7240   24.2239 H   0  0  0  0  0  0
  -17.5050  -31.6272   24.5129 H   0  0  0  0  0  0
  -15.5365  -30.2998   23.7683 H   0  0  0  0  0  0
  -15.8652  -28.0815   22.7125 H   0  0  0  0  0  0
  -24.5928  -30.7092   25.7826 H   0  0  0  0  0  0
  -24.9004  -32.2928   26.4883 H   0  0  0  0  0  0
  -25.8095  -30.8921   27.0246 H   0  0  0  0  0  0
  -26.3032  -29.6648   24.1316 H   0  0  0  0  0  0
  -27.4052  -29.7270   25.4864 H   0  0  0  0  0  0
  -27.8928  -30.4189   23.9596 H   0  0  0  0  0  0
  -27.2722  -33.3560   26.2126 H   0  0  0  0  0  0
  -28.3931  -32.6840   25.0364 H   0  0  0  0  0  0
  -28.0774  -31.8374   26.5400 H   0  0  0  0  0  0
  -28.2561  -38.0080   24.7496 H   0  0  0  0  0  0
  -28.1072  -36.2608   24.6279 H   0  0  0  0  0  0
  -27.2289  -37.1409   25.8861 H   0  0  0  0  0  0
  -20.9349  -29.8829   21.6894 H   0  0  0  0  0  0
  -26.0131  -38.2797   24.1449 H   0  0  0  0  0  0
  -28.7476  -21.1395   18.7141 H   0  0  0  0  0  0
  -30.5210  -23.1743   22.9222 H   0  0  0  0  0  0
  -29.5350  -22.0578   23.8959 H   0  0  0  0  0  0
  -28.7573  -23.4291   23.0955 H   0  0  0  0  0  0
  -29.2213  -18.2882   19.1597 H   0  0  0  0  0  0
  -28.0727  -18.0935   20.4286 H   0  0  0  0  0  0
  -30.0934  -24.0883   20.2437 H   0  0  0  0  0  0
  -28.9722  -23.6935   18.9774 H   0  0  0  0  0  0
  -30.0916  -17.4670   21.9846 H   0  0  0  0  0  0
  -31.1087  -17.4700   20.5866 H   0  0  0  0  0  0
  -28.0757  -24.9071   21.6646 H   0  0  0  0  0  0
  -27.0687  -24.5814   20.3109 H   0  0  0  0  0  0
  -29.5478  -19.9387   22.6446 H   0  0  0  0  0  0
  -28.8195  -15.5405   20.9597 H   0  0  0  0  0  0
  1 25  1  0  0  0
  1 30  2  0  0  0
  1 81  1  0  0  0
  2  3  1  0  0  0
  2 25  1  0  0  0
  2 82  1  0  0  0
  2 83  1  0  0  0
  3  4  1  0  0  0
  3 84  1  0  0  0
  3 85  1  0  0  0
  4  5  1  0  0  0
  4 86  1  0  0  0
  4 87  1  0  0  0
  5  6  1  0  0  0
  5 26  1  0  0  0
  5 88  1  0  0  0
  6 25  1  0  0  0
  6 89  1  0  0  0
  6 90  1  0  0  0
  7  8  2  0  0  0
  7 26  1  0  0  0
  7 29  1  0  0  0
  8  9  1  0  0  0
  8 22  1  0  0  0
  9 10  1  0  0  0
  9 27  2  0  0  0
 10 11  2  0  0  0
 10 15  1  0  0  0
 11 12  1  0  0  0
 11 91  1  0  0  0
 12 13  2  0  0  0
 12 92  1  0  0  0
 13 14  1  0  0  0
 13 31  1  0  0  0
 14 15  2  0  0  0
 14 93  1  0  0  0
 15 94  1  0  0  0
 16 17  2  0  0  0
 16 21  1  0  0  0
 16 31  1  0  0  0
 17 18  1  0  0  0
 17 95  1  0  0  0
 18 19  2  0  0  0
 18 96  1  0  0  0
 19 20  1  0  0  0
 19 24  1  0  0  0
 20 21  2  0  0  0
 20 97  1  0  0  0
 21 23  1  0  0  0
 22 28  1  0  0  0
 22 32  2  0  0  0
 26 27  1  0  0  0
 28 98  1  0  0  0
 28 99  1  0  0  0
 29100  1  0  0  0
 29101  1  0  0  0
 33 34  1  0  0  0
 33 66  1  0  0  0
 33 70  2  0  0  0
 34 36  1  0  0  0
 34 59  1  0  0  0
 34102  1  0  0  0
 35 44  2  0  0  0
 35 45  1  0  0  0
 35 68  1  0  0  0
 36 56  1  0  0  0
 36103  1  0  0  0
 37 39  1  0  0  0
 37 47  1  0  0  0
 37 66  1  0  0  0
 37104  1  0  0  0
 38 43  2  0  0  0
 38 46  1  0  0  0
 38 47  1  0  0  0
 39 64  1  0  0  0
 39 67  2  0  0  0
 40 52  1  0  0  0
 40 53  2  0  0  0
 40 58  1  0  0  0
 41105  1  0  0  0
 41106  1  0  0  0
 41107  1  0  0  0
 41 48  1  0  0  0
 42 43  1  0  0  0
 42 66  1  0  0  0
 42108  1  0  0  0
 42109  1  0  0  0
 43 44  1  0  0  0
 44110  1  0  0  0
 45 46  2  0  0  0
 45111  1  0  0  0
 46112  1  0  0  0
 47113  1  0  0  0
 47114  1  0  0  0
 48 56  1  0  0  0
 48 65  1  0  0  0
 48115  1  0  0  0
 49 50  1  0  0  0
 49 53  1  0  0  0
 49 64  1  0  0  0
 49116  1  0  0  0
 50 51  1  0  0  0
 50117  1  0  0  0
 50118  1  0  0  0
 51 52  1  0  0  0
 51119  1  0  0  0
 51120  1  0  0  0
 52121  1  0  0  0
 52122  1  0  0  0
 53 54  1  0  0  0
 54 55  2  0  0  0
 54123  1  0  0  0
 55 57  1  0  0  0
 55124  1  0  0  0
 56 69  2  0  0  0
 57 58  2  0  0  0
 57125  1  0  0  0
 58126  1  0  0  0
 59 60  1  0  0  0
 59 61  1  0  0  0
 59 62  1  0  0  0
 60127  1  0  0  0
 60128  1  0  0  0
 60129  1  0  0  0
 61130  1  0  0  0
 61131  1  0  0  0
 61132  1  0  0  0
 62133  1  0  0  0
 62134  1  0  0  0
 62135  1  0  0  0
 63 65  1  0  0  0
 63136  1  0  0  0
 63137  1  0  0  0
 63138  1  0  0  0
 64139  1  0  0  0
 65140  1  0  0  0
 68 78  1  0  0  0
 71 72  2  0  0  0
 71 79  1  0  0  0
 71141  1  0  0  0
 72 75  1  0  0  0
 72 80  1  0  0  0
 73 74  1  0  0  0
 73 79  1  0  0  0
 73 80  2  0  0  0
 74142  1  0  0  0
 74143  1  0  0  0
 74144  1  0  0  0
 75 77  1  0  0  0
 75145  1  0  0  0
 75146  1  0  0  0
 76 78  1  0  0  0
 76 79  1  0  0  0
 76147  1  0  0  0
 76148  1  0  0  0
 77 81  1  0  0  0
 77149  1  0  0  0
 77150  1  0  0  0
 78151  1  0  0  0
 78152  1  0  0  0
 80153  1  0  0  0
 81154  1  0  0  0
M  CHG  1  80   1
M  ISO  4   1 100  68 101  78 101  81 100
M  END
> <chiral flag>
0

> <version>
0

> <s_m_source_file>
/data/baiqing/PycharmProjects/Reinvent-master-3.2/result/LINK_invent/BTK/process_docking_weight1_custom_sum_contain_oxygen_bond_distance_aromatic_linkinvent_7_9_3/rearranged_h_0083.sdf

> <i_m_source_file_index>
88

> <r_mmod_Potential_Energy-OPLS-2005>
69.6150131225586

> <r_mmod_Stretch_Energy-OPLS-2005>
120.3623046875

> <r_mmod_Bend_Energy-OPLS-2005>
168.925720214844

> <r_mmod_Torsional_Energy-OPLS-2005>
229.90168762207

> <r_mmod_Improper_Torsional_Energy-OPLS-2005>
5.48546361923218

> <r_mmod_Van_der_Waal_Energy-OPLS-2005>
114.679656982422

> <r_mmod_Electrostatic_Energy-OPLS-2005>
-215.234786987305

> <r_mmod_Solvation_Energy-OPLS-2005>
-437.921539306641

> <b_mmod_Minimization_Converged-OPLS-2005>
0

> <r_mmod_RMS_Derivative-OPLS-2005>
4.28953742980957

$$$$
88
                    3D
 Structure written by MMmdl.
151159  0  0  1  0            999 V2000
  -30.6877  -14.6155   20.5233 C   0  0  0  0  0  0
  -30.4268  -12.3899   19.4542 C   0  0  0  0  0  0
  -29.5014  -12.4914   18.2246 C   0  0  0  0  0  0
  -28.0290  -12.3275   18.6445 C   0  0  0  0  0  0
  -27.6493  -13.2201   19.8563 C   0  0  2  0  0  0
  -28.6945  -13.1135   20.9892 C   0  0  0  0  0  0
  -25.2562  -13.8187   20.5696 C   0  0  0  0  0  0
  -24.1838  -13.0443   20.9199 C   0  0  0  0  0  0
  -24.6404  -11.6919   20.8749 C   0  0  0  0  0  0
  -23.9068  -10.4298   21.0413 C   0  0  0  0  0  0
  -24.3629   -9.4213   21.9181 C   0  0  0  0  0  0
  -23.6309   -8.2247   22.0748 C   0  0  0  0  0  0
  -22.4288   -8.0287   21.3544 C   0  0  0  0  0  0
  -21.9918   -9.0259   20.4646 C   0  0  0  0  0  0
  -22.7241  -10.2144   20.3059 C   0  0  0  0  0  0
  -21.6857   -6.0742   22.5283 C   0  0  0  0  0  0
  -21.4013   -6.5639   23.8217 C   0  0  0  0  0  0
  -21.3669   -5.6789   24.9174 C   0  0  0  0  0  0
  -21.6054   -4.3054   24.7219 C   0  0  0  0  0  0
  -21.8820   -3.8151   23.4337 C   0  0  0  0  0  0
  -21.9194   -4.6971   22.3400 C   0  0  0  0  0  0
  -22.7862  -13.5242   21.1853 C   0  0  0  0  0  0
  -22.1666   -4.2164   21.0976 F   0  0  0  0  0  0
  -21.5636   -3.4533   25.7728 F   0  0  0  0  0  0
  -30.0074  -13.4327   20.4122 N   0  0  0  0  0  0
  -26.2981  -12.9368   20.3309 N   0  0  0  0  0  0
  -25.9330  -11.6518   20.5759 N   0  0  0  0  0  0
  -22.0511  -12.8232   22.0418 N   0  0  0  0  0  0
  -25.4257  -15.1908   20.4126 N   0  0  0  0  0  0
  -31.8595  -14.7086   20.1534 O   0  0  0  0  0  0
  -21.6650   -6.8887   21.4247 O   0  0  0  0  0  0
  -22.3545  -14.5545   20.6704 O   0  0  0  0  0  0
  -24.6232  -31.8626   23.2068 C   0  0  0  0  0  0
  -25.9080  -32.4799   23.8384 C   0  0  1  0  0  0
  -27.2155  -27.3275   20.1086 C   0  0  0  0  0  0
  -25.5914  -33.8602   24.2317 N   0  0  0  0  0  0
  -23.4164  -30.4868   21.5517 C   0  0  2  0  0  0
  -24.8613  -28.9547   20.1073 C   0  0  0  0  0  0
  -22.7467  -29.4621   22.4975 C   0  0  0  0  0  0
  -18.0279  -28.1377   22.8484 C   0  0  0  0  0  0
  -24.1489  -36.7300   23.2633 C   0  0  0  0  0  0
  -25.9574  -30.7932   21.3799 C   0  0  0  0  0  0
  -26.0298  -29.4230   20.7210 C   0  0  0  0  0  0
  -27.2076  -28.6181   20.7210 C   0  0  0  0  0  0
  -26.0284  -26.9303   19.4448 C   0  0  0  0  0  0
  -24.8630  -27.7137   19.4591 C   0  0  0  0  0  0
  -23.6282  -29.8307   20.1637 C   0  0  0  0  0  0
  -25.4112  -36.3107   24.0341 C   0  0  1  0  0  0
  -20.5880  -28.3674   23.1307 C   0  0  2  0  0  0
  -20.6788  -26.9410   22.5411 C   0  0  0  0  0  0
  -19.5760  -26.6382   21.5220 C   0  0  0  0  0  0
  -18.1936  -26.7918   22.1628 C   0  0  0  0  0  0
  -19.1527  -28.8847   23.2887 C   0  0  0  0  0  0
  -18.9443  -30.1453   23.8902 C   0  0  0  0  0  0
  -17.6442  -30.6585   24.0557 C   0  0  0  0  0  0
  -25.9044  -34.9468   23.5132 C   0  0  0  0  0  0
  -16.5339  -29.9080   23.6321 C   0  0  0  0  0  0
  -16.7264  -28.6495   23.0347 C   0  0  0  0  0  0
  -26.4471  -31.6585   25.0728 C   0  0  0  0  0  0
  -25.3721  -31.3705   26.1464 C   0  0  0  0  0  0
  -27.0277  -30.3008   24.6144 C   0  0  0  0  0  0
  -27.6049  -32.4304   25.7477 C   0  0  0  0  0  0
  -27.5591  -37.1806   24.8467 C   0  0  0  0  0  0
  -21.4184  -29.3024   22.3710 N   0  0  0  0  0  0
  -26.4299  -37.3791   23.9417 N   0  0  0  0  0  0
  -24.6845  -31.0638   22.1024 N   0  0  0  0  0  0
  -23.4197  -28.8155   23.3042 O   0  0  0  0  0  0
  -28.3196  -26.4593   20.1824 O   0  0  0  0  0  0
  -26.5608  -34.8924   22.4695 O   0  0  0  0  0  0
  -23.5399  -32.1426   23.7398 O   0  0  0  0  0  0
  -30.6135  -19.3282   19.9189 C   0  0  0  0  0  0
  -28.9157  -19.0840   21.5302 C   0  0  0  0  0  0
  -29.9851  -18.4653   20.8466 C   0  0  0  0  0  0
  -29.1584  -21.0823   20.3573 C   0  0  0  0  0  0
  -30.6069  -17.0728   21.2477 C   0  0  0  0  0  0
  -28.5130  -22.4310   19.8904 C   0  0  0  0  0  0
  -29.0101  -23.8557   20.3885 C   0  0  0  0  0  0
  -28.0793  -25.0323   19.8733 C   0  0  0  0  0  0
  -30.2006  -20.6028   19.6765 N   0  0  0  0  0  0
  -28.5167  -20.3644   21.2837 N   0  0  0  0  0  0
  -29.9956  -15.7357   20.9078 N   0  0  0  0  0  0
  -31.4687  -12.4956   19.1471 H   0  0  0  0  0  0
  -30.3534  -11.4036   19.9152 H   0  0  0  0  0  0
  -29.7678  -11.7289   17.4917 H   0  0  0  0  0  0
  -29.6412  -13.4546   17.7313 H   0  0  0  0  0  0
  -27.8796  -11.2771   18.8979 H   0  0  0  0  0  0
  -27.3685  -12.5312   17.8009 H   0  0  0  0  0  0
  -27.6597  -14.2476   19.4930 H   0  0  0  0  0  0
  -28.7055  -12.1089   21.4130 H   0  0  0  0  0  0
  -28.4413  -13.7847   21.8112 H   0  0  0  0  0  0
  -25.2782   -9.5696   22.4734 H   0  0  0  0  0  0
  -24.0043   -7.4632   22.7447 H   0  0  0  0  0  0
  -21.0854   -8.8767   19.8934 H   0  0  0  0  0  0
  -22.3699  -10.9682   19.6167 H   0  0  0  0  0  0
  -21.1999   -7.6145   23.9729 H   0  0  0  0  0  0
  -21.1497   -6.0510   25.9081 H   0  0  0  0  0  0
  -22.0592   -2.7613   23.2827 H   0  0  0  0  0  0
  -22.4150  -11.9913   22.4825 H   0  0  0  0  0  0
  -21.1122  -13.1241   22.2619 H   0  0  0  0  0  0
  -24.6543  -15.8398   20.5215 H   0  0  0  0  0  0
  -26.2713  -15.6341   20.0759 H   0  0  0  0  0  0
  -26.7144  -32.5472   23.1131 H   0  0  0  0  0  0
  -25.0083  -33.9764   25.0477 H   0  0  0  0  0  0
  -22.7083  -31.3068   21.4160 H   0  0  0  0  0  0
  -23.3766  -35.9617   23.3288 H   0  0  0  0  0  0
  -24.3591  -36.8915   22.2048 H   0  0  0  0  0  0
  -23.7222  -37.6497   23.6647 H   0  0  0  0  0  0
  -26.0900  -31.5562   20.6114 H   0  0  0  0  0  0
  -26.8379  -30.8409   22.0087 H   0  0  0  0  0  0
  -28.0972  -28.9664   21.2273 H   0  0  0  0  0  0
  -25.9601  -25.9967   18.9081 H   0  0  0  0  0  0
  -23.9744  -27.3555   18.9575 H   0  0  0  0  0  0
  -23.7429  -30.6123   19.4119 H   0  0  0  0  0  0
  -22.7480  -29.2601   19.8616 H   0  0  0  0  0  0
  -25.1286  -36.1975   25.0836 H   0  0  0  0  0  0
  -20.9954  -28.3237   24.1436 H   0  0  0  0  0  0
  -20.5736  -26.2267   23.3592 H   0  0  0  0  0  0
  -21.6650  -26.7482   22.1175 H   0  0  0  0  0  0
  -19.6934  -25.6296   21.1247 H   0  0  0  0  0  0
  -19.6705  -27.3196   20.6756 H   0  0  0  0  0  0
  -17.4210  -26.6651   21.4032 H   0  0  0  0  0  0
  -18.0344  -26.0065   22.9030 H   0  0  0  0  0  0
  -19.7916  -30.7270   24.2278 H   0  0  0  0  0  0
  -17.4991  -31.6267   24.5148 H   0  0  0  0  0  0
  -15.5338  -30.2981   23.7645 H   0  0  0  0  0  0
  -15.8661  -28.0820   22.7061 H   0  0  0  0  0  0
  -24.5878  -30.7078   25.7792 H   0  0  0  0  0  0
  -24.8922  -32.2855   26.4943 H   0  0  0  0  0  0
  -25.8040  -30.8836   27.0215 H   0  0  0  0  0  0
  -26.2819  -29.6797   24.1161 H   0  0  0  0  0  0
  -27.3972  -29.7222   25.4621 H   0  0  0  0  0  0
  -27.8709  -30.4299   23.9354 H   0  0  0  0  0  0
  -27.2678  -33.3601   26.2076 H   0  0  0  0  0  0
  -28.3822  -32.6865   25.0266 H   0  0  0  0  0  0
  -28.0756  -31.8412   26.5360 H   0  0  0  0  0  0
  -28.2601  -38.0108   24.7527 H   0  0  0  0  0  0
  -28.1089  -36.2640   24.6274 H   0  0  0  0  0  0
  -27.2311  -37.1439   25.8868 H   0  0  0  0  0  0
  -20.9367  -29.8709   21.6890 H   0  0  0  0  0  0
  -26.0190  -38.2873   24.1410 H   0  0  0  0  0  0
  -31.4906  -19.0045   19.3779 H   0  0  0  0  0  0
  -28.3895  -18.5615   22.3154 H   0  0  0  0  0  0
  -30.6943  -17.0847   22.3355 H   0  0  0  0  0  0
  -31.6430  -17.0868   20.9029 H   0  0  0  0  0  0
  -27.4510  -22.3565   20.1264 H   0  0  0  0  0  0
  -28.5444  -22.4313   18.8004 H   0  0  0  0  0  0
  -30.0360  -24.0220   20.0611 H   0  0  0  0  0  0
  -29.0269  -23.8646   21.4783 H   0  0  0  0  0  0
  -27.0940  -24.7594   20.2517 H   0  0  0  0  0  0
  -28.0277  -24.9551   18.7864 H   0  0  0  0  0  0
  -29.0224  -15.5918   21.1320 H   0  0  0  0  0  0
  1 25  1  0  0  0
  1 30  2  0  0  0
  1 81  1  0  0  0
  2  3  1  0  0  0
  2 25  1  0  0  0
  2 82  1  0  0  0
  2 83  1  0  0  0
  3  4  1  0  0  0
  3 84  1  0  0  0
  3 85  1  0  0  0
  4  5  1  0  0  0
  4 86  1  0  0  0
  4 87  1  0  0  0
  5  6  1  0  0  0
  5 26  1  0  0  0
  5 88  1  0  0  0
  6 25  1  0  0  0
  6 89  1  0  0  0
  6 90  1  0  0  0
  7  8  2  0  0  0
  7 26  1  0  0  0
  7 29  1  0  0  0
  8  9  1  0  0  0
  8 22  1  0  0  0
  9 10  1  0  0  0
  9 27  2  0  0  0
 10 11  2  0  0  0
 10 15  1  0  0  0
 11 12  1  0  0  0
 11 91  1  0  0  0
 12 13  2  0  0  0
 12 92  1  0  0  0
 13 14  1  0  0  0
 13 31  1  0  0  0
 14 15  2  0  0  0
 14 93  1  0  0  0
 15 94  1  0  0  0
 16 17  2  0  0  0
 16 21  1  0  0  0
 16 31  1  0  0  0
 17 18  1  0  0  0
 17 95  1  0  0  0
 18 19  2  0  0  0
 18 96  1  0  0  0
 19 20  1  0  0  0
 19 24  1  0  0  0
 20 21  2  0  0  0
 20 97  1  0  0  0
 21 23  1  0  0  0
 22 28  1  0  0  0
 22 32  2  0  0  0
 26 27  1  0  0  0
 28 98  1  0  0  0
 28 99  1  0  0  0
 29100  1  0  0  0
 29101  1  0  0  0
 33 34  1  0  0  0
 33 66  1  0  0  0
 33 70  2  0  0  0
 34 36  1  0  0  0
 34 59  1  0  0  0
 34102  1  0  0  0
 35 44  2  0  0  0
 35 45  1  0  0  0
 35 68  1  0  0  0
 36 56  1  0  0  0
 36103  1  0  0  0
 37 39  1  0  0  0
 37 47  1  0  0  0
 37 66  1  0  0  0
 37104  1  0  0  0
 38 43  2  0  0  0
 38 46  1  0  0  0
 38 47  1  0  0  0
 39 64  1  0  0  0
 39 67  2  0  0  0
 40 52  1  0  0  0
 40 53  2  0  0  0
 40 58  1  0  0  0
 41105  1  0  0  0
 41106  1  0  0  0
 41107  1  0  0  0
 41 48  1  0  0  0
 42 43  1  0  0  0
 42 66  1  0  0  0
 42108  1  0  0  0
 42109  1  0  0  0
 43 44  1  0  0  0
 44110  1  0  0  0
 45 46  2  0  0  0
 45111  1  0  0  0
 46112  1  0  0  0
 47113  1  0  0  0
 47114  1  0  0  0
 48 56  1  0  0  0
 48 65  1  0  0  0
 48115  1  0  0  0
 49 50  1  0  0  0
 49 53  1  0  0  0
 49 64  1  0  0  0
 49116  1  0  0  0
 50 51  1  0  0  0
 50117  1  0  0  0
 50118  1  0  0  0
 51 52  1  0  0  0
 51119  1  0  0  0
 51120  1  0  0  0
 52121  1  0  0  0
 52122  1  0  0  0
 53 54  1  0  0  0
 54 55  2  0  0  0
 54123  1  0  0  0
 55 57  1  0  0  0
 55124  1  0  0  0
 56 69  2  0  0  0
 57 58  2  0  0  0
 57125  1  0  0  0
 58126  1  0  0  0
 59 60  1  0  0  0
 59 61  1  0  0  0
 59 62  1  0  0  0
 60127  1  0  0  0
 60128  1  0  0  0
 60129  1  0  0  0
 61130  1  0  0  0
 61131  1  0  0  0
 61132  1  0  0  0
 62133  1  0  0  0
 62134  1  0  0  0
 62135  1  0  0  0
 63 65  1  0  0  0
 63136  1  0  0  0
 63137  1  0  0  0
 63138  1  0  0  0
 64139  1  0  0  0
 65140  1  0  0  0
 68 78  1  0  0  0
 71 73  2  0  0  0
 71 79  1  0  0  0
 71141  1  0  0  0
 72 73  1  0  0  0
 72 80  2  0  0  0
 72142  1  0  0  0
 73 75  1  0  0  0
 74 76  1  0  0  0
 74 79  2  0  0  0
 74 80  1  0  0  0
 75 81  1  0  0  0
 75143  1  0  0  0
 75144  1  0  0  0
 76 77  1  0  0  0
 76145  1  0  0  0
 76146  1  0  0  0
 77 78  1  0  0  0
 77147  1  0  0  0
 77148  1  0  0  0
 78149  1  0  0  0
 78150  1  0  0  0
 81151  1  0  0  0
M  ISO  4   1 100  68 101  78 101  81 100
M  END
> <chiral flag>
0

> <version>
0

> <s_m_source_file>
/data/baiqing/PycharmProjects/Reinvent-master-3.2/result/LINK_invent/BTK/process_docking_weight1_custom_sum_contain_oxygen_bond_distance_aromatic_linkinvent_7_9_3/rearranged_h_0083.sdf

> <i_m_source_file_index>
89

> <r_mmod_Potential_Energy-OPLS-2005>
-335.02783203125

> <r_mmod_Stretch_Energy-OPLS-2005>
72.2070770263672

> <r_mmod_Bend_Energy-OPLS-2005>
148.577987670898

> <r_mmod_Torsional_Energy-OPLS-2005>
194.002319335938

> <r_mmod_Improper_Torsional_Energy-OPLS-2005>
6.10533428192139

> <r_mmod_Van_der_Waal_Energy-OPLS-2005>
159.482513427734

> <r_mmod_Electrostatic_Energy-OPLS-2005>
-727.747680664062

> <r_mmod_Solvation_Energy-OPLS-2005>
-235.962875366211

> <b_mmod_Minimization_Converged-OPLS-2005>
0

> <r_mmod_RMS_Derivative-OPLS-2005>
1.5909925699234

$$$$
89
                    3D
 Structure written by MMmdl.
157165  0  0  1  0            999 V2000
  -29.1561  -16.4141   20.5751 C   0  0  0  0  0  0
  -30.1281  -13.8218   19.6652 C   0  0  0  0  0  0
  -29.5092  -12.9417   18.4949 C   0  0  0  0  0  0
  -28.1797  -12.3055   18.9050 C   0  0  0  0  0  0
  -27.4719  -13.3049   19.8240 C   0  0  2  0  0  0
  -28.3035  -13.8219   21.0057 C   0  0  0  0  0  0
  -25.1681  -13.8151   20.5669 C   0  0  0  0  0  0
  -24.1232  -13.0310   20.9375 C   0  0  0  0  0  0
  -24.5986  -11.6823   20.8852 C   0  0  0  0  0  0
  -23.8835  -10.4201   21.0505 C   0  0  0  0  0  0
  -24.3494   -9.4143   21.9239 C   0  0  0  0  0  0
  -23.6231   -8.2147   22.0763 C   0  0  0  0  0  0
  -22.4214   -8.0197   21.3545 C   0  0  0  0  0  0
  -21.9803   -9.0142   20.4644 C   0  0  0  0  0  0
  -22.7070  -10.2039   20.3093 C   0  0  0  0  0  0
  -21.6816   -6.0700   22.5291 C   0  0  0  0  0  0
  -21.3992   -6.5622   23.8222 C   0  0  0  0  0  0
  -21.3646   -5.6779   24.9191 C   0  0  0  0  0  0
  -21.6035   -4.3040   24.7239 C   0  0  0  0  0  0
  -21.8827   -3.8127   23.4364 C   0  0  0  0  0  0
  -21.9184   -4.6938   22.3419 C   0  0  0  0  0  0
  -22.7333  -13.5113   21.2049 C   0  0  0  0  0  0
  -22.1661   -4.2140   21.0992 F   0  0  0  0  0  0
  -21.5621   -3.4526   25.7750 F   0  0  0  0  0  0
  -29.1460  -14.8638   20.4003 N   0  0  0  0  0  0
  -26.1860  -12.9323   20.2916 N   0  0  0  0  0  0
  -25.8817  -11.6451   20.5551 N   0  0  0  0  0  0
  -22.0016  -12.8123   22.0615 N   0  0  0  0  0  0
  -25.3390  -15.1909   20.4024 N   0  0  0  0  0  0
  -30.4308  -16.4785   20.3982 O   0  0  0  0  0  0
  -21.6590   -6.8807   21.4241 O   0  0  0  0  0  0
  -22.3094  -14.5434   20.6866 O   0  0  0  0  0  0
  -24.7402  -31.9967   23.0684 C   0  0  0  0  0  0
  -25.9963  -32.5384   23.8084 C   0  0  1  0  0  0
  -26.6892  -27.2363   20.6853 C   0  0  0  0  0  0
  -25.6462  -33.8947   24.2287 N   0  0  0  0  0  0
  -23.7328  -30.4152   21.4626 C   0  0  2  0  0  0
  -25.0536  -29.1872   19.7513 C   0  0  0  0  0  0
  -24.0892  -29.1631   22.2734 C   0  0  0  0  0  0
  -18.1570  -27.5618   22.9110 C   0  0  0  0  0  0
  -24.1472  -36.7460   23.2621 C   0  0  0  0  0  0
  -26.1440  -30.9618   21.2203 C   0  0  0  0  0  0
  -26.1887  -29.5928   20.4995 C   0  0  0  0  0  0
  -27.0529  -28.5778   20.9640 C   0  0  0  0  0  0
  -25.8872  -26.9256   19.5831 C   0  0  0  0  0  0
  -24.9522  -27.8921   19.2080 C   0  0  0  0  0  0
  -23.8069  -30.0245   19.9670 C   0  0  0  0  0  0
  -25.4107  -36.3321   24.0320 C   0  0  1  0  0  0
  -21.1247  -26.6444   23.0523 C   0  0  2  0  0  0
  -20.3041  -25.5874   22.3782 C   0  0  0  0  0  0
  -19.2972  -26.0719   21.3240 C   0  0  0  0  0  0
  -17.9952  -26.4035   22.0113 C   0  0  0  0  0  0
  -19.5194  -27.8569   23.3282 C   0  0  0  0  0  0
  -19.2710  -29.3319   23.6078 C   0  0  0  0  0  0
  -18.0952  -30.1330   23.8767 C   0  0  0  0  0  0
  -25.9181  -34.9809   23.5018 C   0  0  0  0  0  0
  -16.8451  -29.5770   23.6588 C   0  0  0  0  0  0
  -16.9177  -28.2954   23.0991 C   0  0  0  0  0  0
  -26.4909  -31.6942   25.0554 C   0  0  0  0  0  0
  -25.3835  -31.3537   26.0807 C   0  0  0  0  0  0
  -27.2012  -30.3901   24.6202 C   0  0  0  0  0  0
  -27.5889  -32.4868   25.8051 C   0  0  0  0  0  0
  -27.5604  -37.1919   24.8465 C   0  0  0  0  0  0
  -23.5480  -27.9336   22.0221 N   0  0  0  0  0  0
  -26.4258  -37.4032   23.9497 N   0  0  0  0  0  0
  -24.8533  -31.2718   21.9021 N   0  0  0  0  0  0
  -24.5319  -29.2501   23.3972 O   0  0  0  0  0  0
  -26.6249  -26.2554   21.6796 O   0  0  0  0  0  0
  -26.5594  -34.9330   22.4489 O   0  0  0  0  0  0
  -23.6431  -32.2323   23.5952 O   0  0  0  0  0  0
  -23.0383  -27.3488   24.1700 C   0  0  0  0  0  0
  -23.8149  -26.0026   23.2443 C   0  0  0  0  0  0
  -21.9343  -28.6519   23.3894 C   0  0  0  0  0  0
  -23.3620  -25.3668   21.7816 C   0  0  0  0  0  0
  -21.8875  -29.9692   24.2087 C   0  0  0  0  0  0
  -24.3419  -20.5698   21.0314 C   0  0  0  0  0  0
  -25.5591  -26.2019   22.9865 C   0  0  0  0  0  0
  -24.6009  -23.5912   21.1848 C   0  0  0  0  0  0
  -27.2139  -19.7354   20.8923 C   0  0  0  0  0  0
  -25.5776  -21.4141   21.3302 C   0  0  2  0  0  0
  -21.4527  -28.1866   21.5335 N   0  0  0  0  0  0
  -22.1864  -26.5159   20.9573 N   0  0  0  0  0  0
  -27.9580  -17.7395   20.7941 N   0  0  0  0  0  0
  -30.9376  -14.3925   19.2117 H   0  0  0  0  0  0
  -30.6386  -13.1933   20.3976 H   0  0  0  0  0  0
  -30.2196  -12.1861   18.1576 H   0  0  0  0  0  0
  -29.3206  -13.5907   17.6376 H   0  0  0  0  0  0
  -28.3732  -11.3831   19.4540 H   0  0  0  0  0  0
  -27.5725  -12.0441   18.0377 H   0  0  0  0  0  0
  -27.2695  -14.1402   19.1505 H   0  0  0  0  0  0
  -28.8268  -13.0224   21.5338 H   0  0  0  0  0  0
  -27.6763  -14.3053   21.7556 H   0  0  0  0  0  0
  -25.2636   -9.5665   22.4817 H   0  0  0  0  0  0
  -23.9969   -7.4527   22.7458 H   0  0  0  0  0  0
  -21.0746   -8.8634   19.8937 H   0  0  0  0  0  0
  -22.3526  -10.9593   19.6212 H   0  0  0  0  0  0
  -21.1984   -7.6133   23.9730 H   0  0  0  0  0  0
  -21.1457   -6.0507   25.9090 H   0  0  0  0  0  0
  -22.0624   -2.7599   23.2863 H   0  0  0  0  0  0
  -22.3650  -11.9780   22.4991 H   0  0  0  0  0  0
  -21.0648  -13.1175   22.2863 H   0  0  0  0  0  0
  -24.5162  -15.7848   20.4249 H   0  0  0  0  0  0
  -26.0343  -15.5231   19.7468 H   0  0  0  0  0  0
  -26.8397  -32.6197   23.1275 H   0  0  0  0  0  0
  -25.0637  -33.9864   25.0483 H   0  0  0  0  0  0
  -22.7574  -30.8401   21.6909 H   0  0  0  0  0  0
  -23.3800  -35.9722   23.3195 H   0  0  0  0  0  0
  -24.3607  -36.9182   22.2063 H   0  0  0  0  0  0
  -23.7108  -37.6583   23.6695 H   0  0  0  0  0  0
  -26.3346  -31.7422   20.4841 H   0  0  0  0  0  0
  -26.9940  -30.9689   21.8968 H   0  0  0  0  0  0
  -27.6964  -28.7835   21.8081 H   0  0  0  0  0  0
  -25.6684  -25.8973   19.3300 H   0  0  0  0  0  0
  -24.0816  -27.5966   18.6356 H   0  0  0  0  0  0
  -23.8511  -30.9193   19.3461 H   0  0  0  0  0  0
  -22.9116  -29.4798   19.6638 H   0  0  0  0  0  0
  -25.1258  -36.2106   25.0795 H   0  0  0  0  0  0
  -21.2170  -26.0954   23.9993 H   0  0  0  0  0  0
  -19.7293  -25.0734   23.1529 H   0  0  0  0  0  0
  -20.8865  -24.7509   21.9965 H   0  0  0  0  0  0
  -19.1006  -25.2405   20.6467 H   0  0  0  0  0  0
  -19.6180  -26.8793   20.6722 H   0  0  0  0  0  0
  -17.2494  -26.6301   21.2472 H   0  0  0  0  0  0
  -17.6141  -25.5465   22.5689 H   0  0  0  0  0  0
  -19.9402  -30.0443   23.2005 H   0  0  0  0  0  0
  -18.1807  -31.1950   24.0568 H   0  0  0  0  0  0
  -15.9199  -30.1268   23.7628 H   0  0  0  0  0  0
  -15.9954  -27.8588   22.7419 H   0  0  0  0  0  0
  -24.6923  -30.6140   25.6866 H   0  0  0  0  0  0
  -24.8071  -32.2332   26.3690 H   0  0  0  0  0  0
  -25.8014  -30.9276   26.9934 H   0  0  0  0  0  0
  -26.6636  -29.7822   23.9144 H   0  0  0  0  0  0
  -27.4266  -29.7565   25.4790 H   0  0  0  0  0  0
  -28.1523  -30.6103   24.1338 H   0  0  0  0  0  0
  -27.1944  -33.3779   26.2956 H   0  0  0  0  0  0
  -28.3824  -32.8124   25.1300 H   0  0  0  0  0  0
  -28.0565  -31.8852   26.5867 H   0  0  0  0  0  0
  -28.2549  -38.0302   24.7705 H   0  0  0  0  0  0
  -28.1169  -36.2859   24.6010 H   0  0  0  0  0  0
  -27.2388  -37.1257   25.8877 H   0  0  0  0  0  0
  -23.4797  -27.7735   21.0258 H   0  0  0  0  0  0
  -26.0140  -38.3073   24.1647 H   0  0  0  0  0  0
  -23.5085  -27.6461   25.0981 H   0  0  0  0  0  0
  -21.7098  -30.8503   23.5989 H   0  0  0  0  0  0
  -22.8050  -30.1252   24.7609 H   0  0  0  0  0  0
  -21.1643  -29.9284   25.0214 H   0  0  0  0  0  0
  -23.4578  -20.9864   21.5116 H   0  0  0  0  0  0
  -24.4689  -19.5500   21.3943 H   0  0  0  0  0  0
  -24.1619  -20.5233   19.9566 H   0  0  0  0  0  0
  -25.9778  -25.4030   23.5988 H   0  0  0  0  0  0
  -25.8190  -27.0898   23.5612 H   0  0  0  0  0  0
  -25.5292  -24.1389   21.0495 H   0  0  0  0  0  0
  -24.2063  -23.5121   20.1737 H   0  0  0  0  0  0
  -28.0025  -20.1285   21.5347 H   0  0  0  0  0  0
  -27.5396  -20.0536   19.9033 H   0  0  0  0  0  0
  -25.6888  -21.4034   22.4132 H   0  0  0  0  0  0
  -27.1223  -17.1852   20.9416 H   0  0  0  0  0  0
  1 25  1  0  0  0
  1 30  2  0  0  0
  1 83  1  0  0  0
  2  3  1  0  0  0
  2 25  1  0  0  0
  2 84  1  0  0  0
  2 85  1  0  0  0
  3  4  1  0  0  0
  3 86  1  0  0  0
  3 87  1  0  0  0
  4  5  1  0  0  0
  4 88  1  0  0  0
  4 89  1  0  0  0
  5  6  1  0  0  0
  5 26  1  0  0  0
  5 90  1  0  0  0
  6 25  1  0  0  0
  6 91  1  0  0  0
  6 92  1  0  0  0
  7  8  2  0  0  0
  7 26  1  0  0  0
  7 29  1  0  0  0
  8  9  1  0  0  0
  8 22  1  0  0  0
  9 10  1  0  0  0
  9 27  2  0  0  0
 10 11  2  0  0  0
 10 15  1  0  0  0
 11 12  1  0  0  0
 11 93  1  0  0  0
 12 13  2  0  0  0
 12 94  1  0  0  0
 13 14  1  0  0  0
 13 31  1  0  0  0
 14 15  2  0  0  0
 14 95  1  0  0  0
 15 96  1  0  0  0
 16 17  2  0  0  0
 16 21  1  0  0  0
 16 31  1  0  0  0
 17 18  1  0  0  0
 17 97  1  0  0  0
 18 19  2  0  0  0
 18 98  1  0  0  0
 19 20  1  0  0  0
 19 24  1  0  0  0
 20 21  2  0  0  0
 20 99  1  0  0  0
 21 23  1  0  0  0
 22 28  1  0  0  0
 22 32  2  0  0  0
 26 27  1  0  0  0
 28100  1  0  0  0
 28101  1  0  0  0
 29102  1  0  0  0
 29103  1  0  0  0
 33 34  1  0  0  0
 33 66  1  0  0  0
 33 70  2  0  0  0
 34 36  1  0  0  0
 34 59  1  0  0  0
 34104  1  0  0  0
 35 44  2  0  0  0
 35 45  1  0  0  0
 35 68  1  0  0  0
 36 56  1  0  0  0
 36105  1  0  0  0
 37 39  1  0  0  0
 37 47  1  0  0  0
 37 66  1  0  0  0
 37106  1  0  0  0
 38 43  2  0  0  0
 38 46  1  0  0  0
 38 47  1  0  0  0
 39 64  1  0  0  0
 39 67  2  0  0  0
 40 52  1  0  0  0
 40 53  2  0  0  0
 40 58  1  0  0  0
 41107  1  0  0  0
 41108  1  0  0  0
 41109  1  0  0  0
 41 48  1  0  0  0
 42 43  1  0  0  0
 42 66  1  0  0  0
 42110  1  0  0  0
 42111  1  0  0  0
 43 44  1  0  0  0
 44112  1  0  0  0
 45 46  2  0  0  0
 45113  1  0  0  0
 46114  1  0  0  0
 47115  1  0  0  0
 47116  1  0  0  0
 48 56  1  0  0  0
 48 65  1  0  0  0
 48117  1  0  0  0
 49 50  1  0  0  0
 49 53  1  0  0  0
 49 64  1  0  0  0
 49118  1  0  0  0
 50 51  1  0  0  0
 50119  1  0  0  0
 50120  1  0  0  0
 51 52  1  0  0  0
 51121  1  0  0  0
 51122  1  0  0  0
 52123  1  0  0  0
 52124  1  0  0  0
 53 54  1  0  0  0
 54 55  2  0  0  0
 54125  1  0  0  0
 55 57  1  0  0  0
 55126  1  0  0  0
 56 69  2  0  0  0
 57 58  2  0  0  0
 57127  1  0  0  0
 58128  1  0  0  0
 59 60  1  0  0  0
 59 61  1  0  0  0
 59 62  1  0  0  0
 60129  1  0  0  0
 60130  1  0  0  0
 60131  1  0  0  0
 61132  1  0  0  0
 61133  1  0  0  0
 61134  1  0  0  0
 62135  1  0  0  0
 62136  1  0  0  0
 62137  1  0  0  0
 63 65  1  0  0  0
 63138  1  0  0  0
 63139  1  0  0  0
 63140  1  0  0  0
 64141  1  0  0  0
 65142  1  0  0  0
 68 77  1  0  0  0
 71 72  2  0  0  0
 71 73  1  0  0  0
 71143  1  0  0  0
 72 74  1  0  0  0
 72 77  1  0  0  0
 73 75  1  0  0  0
 73 81  2  0  0  0
 74 78  1  0  0  0
 74 82  2  0  0  0
 75144  1  0  0  0
 75145  1  0  0  0
 75146  1  0  0  0
 76147  1  0  0  0
 76148  1  0  0  0
 76149  1  0  0  0
 76 80  1  0  0  0
 77150  1  0  0  0
 77151  1  0  0  0
 78 80  1  0  0  0
 78152  1  0  0  0
 78153  1  0  0  0
 79 80  1  0  0  0
 79 83  1  0  0  0
 79154  1  0  0  0
 79155  1  0  0  0
 80156  1  0  0  0
 81 82  1  0  0  0
 83157  1  0  0  0
M  ISO  4   1 100  68 101  77 101  83 100
M  END
> <chiral flag>
0

> <version>
0

> <s_m_source_file>
/data/baiqing/PycharmProjects/Reinvent-master-3.2/result/LINK_invent/BTK/process_docking_weight1_custom_sum_contain_oxygen_bond_distance_aromatic_linkinvent_7_9_3/rearranged_h_0083.sdf

> <i_m_source_file_index>
90

> <r_mmod_Potential_Energy-OPLS-2005>
19549.58203125

> <r_mmod_Stretch_Energy-OPLS-2005>
10324.8056640625

> <r_mmod_Bend_Energy-OPLS-2005>
1611.1826171875

> <r_mmod_Torsional_Energy-OPLS-2005>
609.89794921875

> <r_mmod_Improper_Torsional_Energy-OPLS-2005>
65.6701431274414

> <r_mmod_Van_der_Waal_Energy-OPLS-2005>
2860.67919921875

> <r_mmod_Electrostatic_Energy-OPLS-2005>
-428.990661621094

> <r_mmod_Solvation_Energy-OPLS-2005>
-194.255340576172

> <b_mmod_Minimization_Converged-OPLS-2005>
0

> <r_mmod_RMS_Derivative-OPLS-2005>
5.41450023651123

$$$$
90
                    3D
 Structure written by MMmdl.
166174  0  0  1  0            999 V2000
  -30.6216  -14.7427   20.4428 C   0  0  0  0  0  0
  -30.4221  -12.4531   19.4656 C   0  0  0  0  0  0
  -29.5039  -12.4925   18.2248 C   0  0  0  0  0  0
  -28.0311  -12.3191   18.6461 C   0  0  0  0  0  0
  -27.6333  -13.2339   19.8376 C   0  0  2  0  0  0
  -28.6782  -13.2007   20.9718 C   0  0  0  0  0  0
  -25.2497  -13.8213   20.5705 C   0  0  0  0  0  0
  -24.1787  -13.0459   20.9208 C   0  0  0  0  0  0
  -24.6373  -11.6935   20.8737 C   0  0  0  0  0  0
  -23.9053  -10.4306   21.0395 C   0  0  0  0  0  0
  -24.3601   -9.4219   21.9174 C   0  0  0  0  0  0
  -23.6275   -8.2250   22.0759 C   0  0  0  0  0  0
  -22.4252   -8.0287   21.3552 C   0  0  0  0  0  0
  -21.9887   -9.0262   20.4650 C   0  0  0  0  0  0
  -22.7220  -10.2141   20.3054 C   0  0  0  0  0  0
  -21.6858   -6.0736   22.5286 C   0  0  0  0  0  0
  -21.4019   -6.5642   23.8222 C   0  0  0  0  0  0
  -21.3658   -5.6790   24.9182 C   0  0  0  0  0  0
  -21.6039   -4.3056   24.7233 C   0  0  0  0  0  0
  -21.8818   -3.8146   23.4359 C   0  0  0  0  0  0
  -21.9188   -4.6961   22.3413 C   0  0  0  0  0  0
  -22.7811  -13.5255   21.1861 C   0  0  0  0  0  0
  -22.1660   -4.2147   21.0992 F   0  0  0  0  0  0
  -21.5610   -3.4538   25.7747 F   0  0  0  0  0  0
  -29.9704  -13.5343   20.3701 N   0  0  0  0  0  0
  -26.2895  -12.9417   20.3228 N   0  0  0  0  0  0
  -25.9291  -11.6563   20.5707 N   0  0  0  0  0  0
  -22.0419  -12.8267   22.0404 N   0  0  0  0  0  0
  -25.4205  -15.1931   20.4159 N   0  0  0  0  0  0
  -31.8321  -14.7908   20.2199 O   0  0  0  0  0  0
  -21.6636   -6.8872   21.4245 O   0  0  0  0  0  0
  -22.3517  -14.5566   20.6697 O   0  0  0  0  0  0
  -24.6312  -31.8560   23.1963 C   0  0  0  0  0  0
  -25.9125  -32.4772   23.8324 C   0  0  1  0  0  0
  -27.2189  -27.2602   20.1236 C   0  0  0  0  0  0
  -25.5900  -33.8562   24.2236 N   0  0  0  0  0  0
  -23.4294  -30.4797   21.5407 C   0  0  2  0  0  0
  -24.8773  -28.9271   20.1098 C   0  0  0  0  0  0
  -22.7508  -29.4616   22.4898 C   0  0  0  0  0  0
  -18.0296  -28.1419   22.8480 C   0  0  0  0  0  0
  -24.1488  -36.7299   23.2647 C   0  0  0  0  0  0
  -25.9779  -30.7659   21.3808 C   0  0  0  0  0  0
  -26.0495  -29.3888   20.7231 C   0  0  0  0  0  0
  -27.2230  -28.5670   20.7200 C   0  0  0  0  0  0
  -26.0243  -26.8704   19.4785 C   0  0  0  0  0  0
  -24.8700  -27.6767   19.4763 C   0  0  0  0  0  0
  -23.6512  -29.8166   20.1571 C   0  0  0  0  0  0
  -25.4113  -36.3061   24.0324 C   0  0  1  0  0  0
  -20.5898  -28.3715   23.1273 C   0  0  2  0  0  0
  -20.6789  -26.9427   22.5420 C   0  0  0  0  0  0
  -19.5762  -26.6389   21.5224 C   0  0  0  0  0  0
  -18.1937  -26.7953   22.1631 C   0  0  0  0  0  0
  -19.1546  -28.8878   23.2878 C   0  0  0  0  0  0
  -18.9471  -30.1484   23.8902 C   0  0  0  0  0  0
  -17.6467  -30.6610   24.0572 C   0  0  0  0  0  0
  -25.9049  -34.9445   23.5082 C   0  0  0  0  0  0
  -16.5362  -29.9116   23.6334 C   0  0  0  0  0  0
  -16.7280  -28.6541   23.0336 C   0  0  0  0  0  0
  -26.4471  -31.6601   25.0724 C   0  0  0  0  0  0
  -25.3692  -31.3767   26.1450 C   0  0  0  0  0  0
  -27.0317  -30.3008   24.6246 C   0  0  0  0  0  0
  -27.6032  -32.4341   25.7484 C   0  0  0  0  0  0
  -27.5572  -37.1798   24.8456 C   0  0  0  0  0  0
  -21.4211  -29.3057   22.3649 N   0  0  0  0  0  0
  -26.4271  -37.3772   23.9408 N   0  0  0  0  0  0
  -24.6990  -31.0531   22.0957 N   0  0  0  0  0  0
  -23.4209  -28.8151   23.2998 O   0  0  0  0  0  0
  -28.3122  -26.3598   20.1825 O   0  0  0  0  0  0
  -26.5639  -34.8915   22.4663 O   0  0  0  0  0  0
  -23.5461  -32.1378   23.7259 O   0  0  0  0  0  0
  -27.4712  -21.7695   21.9105 C   0  0  0  0  0  0
  -28.4129  -21.1518   21.0578 C   0  0  0  0  0  0
  -26.7437  -21.0133   22.8332 C   0  0  0  0  0  0
  -28.5738  -19.6874   21.2443 C   0  0  0  0  0  0
  -23.2094  -22.5352   23.5481 C   0  0  0  0  0  0
  -30.9336  -18.9813   20.4614 C   0  0  0  0  0  0
  -29.0434  -22.1778   20.0391 C   0  0  0  0  0  0
  -25.6317  -21.6677   23.6354 C   0  0  0  0  0  0
  -24.3550  -21.8492   22.7915 C   0  0  0  0  0  0
  -29.1519  -23.7700   20.4158 C   0  0  0  0  0  0
  -29.3530  -17.0256   20.9941 C   0  0  0  0  0  0
  -28.0681  -24.8866   19.9773 C   0  0  0  0  0  0
  -29.4505  -18.5868   20.4745 C   0  0  1  0  0  0
  -26.9371  -19.6879   22.9763 N   0  0  0  0  0  0
  -27.8452  -19.0708   22.2181 N   0  0  0  0  0  0
  -29.9012  -15.8859   20.1429 N   0  0  0  0  0  0
  -31.4647  -12.5698   19.1634 H   0  0  0  0  0  0
  -30.3544  -11.4847   19.9625 H   0  0  0  0  0  0
  -29.7853  -11.7116   17.5161 H   0  0  0  0  0  0
  -29.6285  -13.4428   17.7005 H   0  0  0  0  0  0
  -27.8940  -11.2728   18.9213 H   0  0  0  0  0  0
  -27.3705  -12.4963   17.7968 H   0  0  0  0  0  0
  -27.6161  -14.2482   19.4402 H   0  0  0  0  0  0
  -28.7113  -12.2230   21.4539 H   0  0  0  0  0  0
  -28.4216  -13.9265   21.7453 H   0  0  0  0  0  0
  -25.2740   -9.5712   22.4755 H   0  0  0  0  0  0
  -23.9990   -7.4655   22.7494 H   0  0  0  0  0  0
  -21.0812   -8.8795   19.8962 H   0  0  0  0  0  0
  -22.3678  -10.9682   19.6176 H   0  0  0  0  0  0
  -21.2031   -7.6157   23.9731 H   0  0  0  0  0  0
  -21.1461   -6.0518   25.9084 H   0  0  0  0  0  0
  -22.0588   -2.7604   23.2863 H   0  0  0  0  0  0
  -22.4016  -11.9980   22.4900 H   0  0  0  0  0  0
  -21.1033  -13.1331   22.2548 H   0  0  0  0  0  0
  -24.6584  -15.8499   20.5408 H   0  0  0  0  0  0
  -26.2851  -15.6329   20.1241 H   0  0  0  0  0  0
  -26.7197  -32.5422   23.1069 H   0  0  0  0  0  0
  -24.9959  -33.9705   25.0317 H   0  0  0  0  0  0
  -22.7272  -31.3030   21.3935 H   0  0  0  0  0  0
  -23.3723  -35.9658   23.3306 H   0  0  0  0  0  0
  -24.3582  -36.8940   22.2066 H   0  0  0  0  0  0
  -23.7269  -37.6507   23.6684 H   0  0  0  0  0  0
  -26.1183  -31.5232   20.6085 H   0  0  0  0  0  0
  -26.8547  -30.8182   22.0149 H   0  0  0  0  0  0
  -28.1190  -28.9122   21.2166 H   0  0  0  0  0  0
  -25.9503  -25.9167   18.9778 H   0  0  0  0  0  0
  -23.9736  -27.3237   18.9840 H   0  0  0  0  0  0
  -23.7839  -30.5951   19.4053 H   0  0  0  0  0  0
  -22.7689  -29.2562   19.8430 H   0  0  0  0  0  0
  -25.1287  -36.1902   25.0815 H   0  0  0  0  0  0
  -20.9994  -28.3303   24.1390 H   0  0  0  0  0  0
  -20.5688  -26.2317   23.3623 H   0  0  0  0  0  0
  -21.6660  -26.7456   22.1211 H   0  0  0  0  0  0
  -19.6918  -25.6284   21.1282 H   0  0  0  0  0  0
  -19.6712  -27.3175   20.6733 H   0  0  0  0  0  0
  -17.4200  -26.6679   21.4052 H   0  0  0  0  0  0
  -18.0350  -26.0119   22.9049 H   0  0  0  0  0  0
  -19.7947  -30.7304   24.2268 H   0  0  0  0  0  0
  -17.5027  -31.6286   24.5184 H   0  0  0  0  0  0
  -15.5365  -30.3024   23.7665 H   0  0  0  0  0  0
  -15.8678  -28.0883   22.7029 H   0  0  0  0  0  0
  -24.5844  -30.7150   25.7767 H   0  0  0  0  0  0
  -24.8902  -32.2946   26.4876 H   0  0  0  0  0  0
  -25.8000  -30.8927   27.0225 H   0  0  0  0  0  0
  -26.2911  -29.6765   24.1238 H   0  0  0  0  0  0
  -27.3927  -29.7287   25.4800 H   0  0  0  0  0  0
  -27.8821  -30.4257   23.9544 H   0  0  0  0  0  0
  -27.2642  -33.3634   26.2075 H   0  0  0  0  0  0
  -28.3827  -32.6924   25.0305 H   0  0  0  0  0  0
  -28.0717  -31.8463   26.5388 H   0  0  0  0  0  0
  -28.2567  -38.0107   24.7487 H   0  0  0  0  0  0
  -28.1077  -36.2634   24.6272 H   0  0  0  0  0  0
  -27.2304  -37.1463   25.8862 H   0  0  0  0  0  0
  -20.9375  -29.8822   21.6901 H   0  0  0  0  0  0
  -26.0141  -38.2838   24.1407 H   0  0  0  0  0  0
  -27.2515  -22.8227   21.8431 H   0  0  0  0  0  0
  -22.3472  -22.6810   22.8934 H   0  0  0  0  0  0
  -23.5053  -23.5155   23.9246 H   0  0  0  0  0  0
  -22.8825  -21.9321   24.3957 H   0  0  0  0  0  0
  -31.0958  -19.9262   19.9499 H   0  0  0  0  0  0
  -31.5397  -18.2363   19.9462 H   0  0  0  0  0  0
  -31.3225  -19.0761   21.4753 H   0  0  0  0  0  0
  -28.5220  -22.0692   19.0869 H   0  0  0  0  0  0
  -30.0562  -21.8309   19.8451 H   0  0  0  0  0  0
  -25.9849  -22.6346   23.9951 H   0  0  0  0  0  0
  -25.4173  -21.0709   24.5223 H   0  0  0  0  0  0
  -24.5923  -22.4382   21.9038 H   0  0  0  0  0  0
  -24.0158  -20.8769   22.4324 H   0  0  0  0  0  0
  -30.0720  -24.1054   19.9361 H   0  0  0  0  0  0
  -29.3637  -23.8713   21.4813 H   0  0  0  0  0  0
  -28.3032  -16.7721   21.1409 H   0  0  0  0  0  0
  -29.8055  -16.9581   21.9851 H   0  0  0  0  0  0
  -27.1379  -24.6320   20.4842 H   0  0  0  0  0  0
  -27.8803  -24.7380   18.9131 H   0  0  0  0  0  0
  -29.0927  -18.6057   19.4447 H   0  0  0  0  0  0
  -30.3022  -16.2794   19.3043 H   0  0  0  0  0  0
  1 25  1  0  0  0
  1 30  2  0  0  0
  1 86  1  0  0  0
  2  3  1  0  0  0
  2 25  1  0  0  0
  2 87  1  0  0  0
  2 88  1  0  0  0
  3  4  1  0  0  0
  3 89  1  0  0  0
  3 90  1  0  0  0
  4  5  1  0  0  0
  4 91  1  0  0  0
  4 92  1  0  0  0
  5  6  1  0  0  0
  5 26  1  0  0  0
  5 93  1  0  0  0
  6 25  1  0  0  0
  6 94  1  0  0  0
  6 95  1  0  0  0
  7  8  2  0  0  0
  7 26  1  0  0  0
  7 29  1  0  0  0
  8  9  1  0  0  0
  8 22  1  0  0  0
  9 10  1  0  0  0
  9 27  2  0  0  0
 10 11  2  0  0  0
 10 15  1  0  0  0
 11 12  1  0  0  0
 11 96  1  0  0  0
 12 13  2  0  0  0
 12 97  1  0  0  0
 13 14  1  0  0  0
 13 31  1  0  0  0
 14 15  2  0  0  0
 14 98  1  0  0  0
 15 99  1  0  0  0
 16 17  2  0  0  0
 16 21  1  0  0  0
 16 31  1  0  0  0
 17 18  1  0  0  0
 17100  1  0  0  0
 18 19  2  0  0  0
 18101  1  0  0  0
 19 20  1  0  0  0
 19 24  1  0  0  0
 20 21  2  0  0  0
 20102  1  0  0  0
 21 23  1  0  0  0
 22 28  1  0  0  0
 22 32  2  0  0  0
 26 27  1  0  0  0
 28103  1  0  0  0
 28104  1  0  0  0
 29105  1  0  0  0
 29106  1  0  0  0
 33 34  1  0  0  0
 33 66  1  0  0  0
 33 70  2  0  0  0
 34 36  1  0  0  0
 34 59  1  0  0  0
 34107  1  0  0  0
 35 44  2  0  0  0
 35 45  1  0  0  0
 35 68  1  0  0  0
 36 56  1  0  0  0
 36108  1  0  0  0
 37 39  1  0  0  0
 37 47  1  0  0  0
 37 66  1  0  0  0
 37109  1  0  0  0
 38 43  2  0  0  0
 38 46  1  0  0  0
 38 47  1  0  0  0
 39 64  1  0  0  0
 39 67  2  0  0  0
 40 52  1  0  0  0
 40 53  2  0  0  0
 40 58  1  0  0  0
 41110  1  0  0  0
 41111  1  0  0  0
 41112  1  0  0  0
 41 48  1  0  0  0
 42 43  1  0  0  0
 42 66  1  0  0  0
 42113  1  0  0  0
 42114  1  0  0  0
 43 44  1  0  0  0
 44115  1  0  0  0
 45 46  2  0  0  0
 45116  1  0  0  0
 46117  1  0  0  0
 47118  1  0  0  0
 47119  1  0  0  0
 48 56  1  0  0  0
 48 65  1  0  0  0
 48120  1  0  0  0
 49 50  1  0  0  0
 49 53  1  0  0  0
 49 64  1  0  0  0
 49121  1  0  0  0
 50 51  1  0  0  0
 50122  1  0  0  0
 50123  1  0  0  0
 51 52  1  0  0  0
 51124  1  0  0  0
 51125  1  0  0  0
 52126  1  0  0  0
 52127  1  0  0  0
 53 54  1  0  0  0
 54 55  2  0  0  0
 54128  1  0  0  0
 55 57  1  0  0  0
 55129  1  0  0  0
 56 69  2  0  0  0
 57 58  2  0  0  0
 57130  1  0  0  0
 58131  1  0  0  0
 59 60  1  0  0  0
 59 61  1  0  0  0
 59 62  1  0  0  0
 60132  1  0  0  0
 60133  1  0  0  0
 60134  1  0  0  0
 61135  1  0  0  0
 61136  1  0  0  0
 61137  1  0  0  0
 62138  1  0  0  0
 62139  1  0  0  0
 62140  1  0  0  0
 63 65  1  0  0  0
 63141  1  0  0  0
 63142  1  0  0  0
 63143  1  0  0  0
 64144  1  0  0  0
 65145  1  0  0  0
 68 82  1  0  0  0
 71 72  2  0  0  0
 71 73  1  0  0  0
 71146  1  0  0  0
 72 74  1  0  0  0
 72 77  1  0  0  0
 73 78  1  0  0  0
 73 84  2  0  0  0
 74 83  1  0  0  0
 74 85  2  0  0  0
 75 79  1  0  0  0
 75147  1  0  0  0
 75148  1  0  0  0
 75149  1  0  0  0
 76150  1  0  0  0
 76151  1  0  0  0
 76152  1  0  0  0
 76 83  1  0  0  0
 77 80  1  0  0  0
 77153  1  0  0  0
 77154  1  0  0  0
 78 79  1  0  0  0
 78155  1  0  0  0
 78156  1  0  0  0
 79157  1  0  0  0
 79158  1  0  0  0
 80 82  1  0  0  0
 80159  1  0  0  0
 80160  1  0  0  0
 81 83  1  0  0  0
 81 86  1  0  0  0
 81161  1  0  0  0
 81162  1  0  0  0
 82163  1  0  0  0
 82164  1  0  0  0
 83165  1  0  0  0
 84 85  1  0  0  0
 86166  1  0  0  0
M  ISO  4   1 100  68 101  82 101  86 100
M  END
> <chiral flag>
0

> <version>
0

> <s_m_source_file>
/data/baiqing/PycharmProjects/Reinvent-master-3.2/result/LINK_invent/BTK/process_docking_weight1_custom_sum_contain_oxygen_bond_distance_aromatic_linkinvent_7_9_3/rearranged_h_0083.sdf

> <i_m_source_file_index>
91

> <r_mmod_Potential_Energy-OPLS-2005>
319.155029296875

> <r_mmod_Stretch_Energy-OPLS-2005>
140.707153320312

> <r_mmod_Bend_Energy-OPLS-2005>
220.965774536133

> <r_mmod_Torsional_Energy-OPLS-2005>
284.930999755859

> <r_mmod_Improper_Torsional_Energy-OPLS-2005>
25.7886581420898

> <r_mmod_Van_der_Waal_Energy-OPLS-2005>
137.231903076172

> <r_mmod_Electrostatic_Energy-OPLS-2005>
-361.991912841797

> <r_mmod_Solvation_Energy-OPLS-2005>
-219.607971191406

> <b_mmod_Minimization_Converged-OPLS-2005>
0

> <r_mmod_RMS_Derivative-OPLS-2005>
2.94827508926392

$$$$
91
                    3D
 Structure written by MMmdl.
170178  0  0  1  0            999 V2000
  -30.6636  -14.5163   20.5319 C   0  0  0  0  0  0
  -30.4255  -12.3234   19.4377 C   0  0  0  0  0  0
  -29.4980  -12.5071   18.2159 C   0  0  0  0  0  0
  -28.0182  -12.3578   18.6264 C   0  0  0  0  0  0
  -27.6575  -13.2079   19.8735 C   0  0  2  0  0  0
  -28.6983  -13.0147   21.0012 C   0  0  0  0  0  0
  -25.2572  -13.8155   20.5672 C   0  0  0  0  0  0
  -24.1833  -13.0427   20.9194 C   0  0  0  0  0  0
  -24.6391  -11.6908   20.8752 C   0  0  0  0  0  0
  -23.9054  -10.4291   21.0401 C   0  0  0  0  0  0
  -24.3606   -9.4200   21.9173 C   0  0  0  0  0  0
  -23.6288   -8.2233   22.0746 C   0  0  0  0  0  0
  -22.4268   -8.0281   21.3544 C   0  0  0  0  0  0
  -21.9894   -9.0248   20.4646 C   0  0  0  0  0  0
  -22.7224  -10.2129   20.3054 C   0  0  0  0  0  0
  -21.6851   -6.0736   22.5278 C   0  0  0  0  0  0
  -21.4020   -6.5645   23.8212 C   0  0  0  0  0  0
  -21.3649   -5.6795   24.9170 C   0  0  0  0  0  0
  -21.6041   -4.3060   24.7211 C   0  0  0  0  0  0
  -21.8821   -3.8152   23.4334 C   0  0  0  0  0  0
  -21.9193   -4.6967   22.3393 C   0  0  0  0  0  0
  -22.7862  -13.5222   21.1834 C   0  0  0  0  0  0
  -22.1662   -4.2166   21.0965 F   0  0  0  0  0  0
  -21.5616   -3.4536   25.7713 F   0  0  0  0  0  0
  -30.0260  -13.3182   20.4461 N   0  0  0  0  0  0
  -26.3007  -12.9324   20.3375 N   0  0  0  0  0  0
  -25.9314  -11.6490   20.5787 N   0  0  0  0  0  0
  -22.0497  -12.8245   22.0421 N   0  0  0  0  0  0
  -25.4270  -15.1866   20.4026 N   0  0  0  0  0  0
  -31.8155  -14.6894   20.1232 O   0  0  0  0  0  0
  -21.6634   -6.8880   21.4245 O   0  0  0  0  0  0
  -22.3562  -14.5513   20.6658 O   0  0  0  0  0  0
  -24.6145  -31.8660   23.2081 C   0  0  0  0  0  0
  -25.9033  -32.4820   23.8385 C   0  0  1  0  0  0
  -27.2349  -27.4289   20.1131 C   0  0  0  0  0  0
  -25.5901  -33.8614   24.2328 N   0  0  0  0  0  0
  -23.4062  -30.4866   21.5484 C   0  0  2  0  0  0
  -24.8553  -28.9502   20.1181 C   0  0  0  0  0  0
  -22.7422  -29.4627   22.4979 C   0  0  0  0  0  0
  -18.0281  -28.1374   22.8505 C   0  0  0  0  0  0
  -24.1494  -36.7306   23.2639 C   0  0  0  0  0  0
  -25.9347  -30.8323   21.3623 C   0  0  0  0  0  0
  -26.0158  -29.4658   20.7116 C   0  0  0  0  0  0
  -27.2129  -28.7139   20.7019 C   0  0  0  0  0  0
  -26.0624  -26.9258   19.5149 C   0  0  0  0  0  0
  -24.8724  -27.6793   19.5156 C   0  0  0  0  0  0
  -23.6181  -29.8178   20.1639 C   0  0  0  0  0  0
  -25.4118  -36.3106   24.0341 C   0  0  1  0  0  0
  -20.5870  -28.3659   23.1321 C   0  0  2  0  0  0
  -20.6771  -26.9394   22.5424 C   0  0  0  0  0  0
  -19.5747  -26.6379   21.5226 C   0  0  0  0  0  0
  -18.1926  -26.7928   22.1625 C   0  0  0  0  0  0
  -19.1527  -28.8830   23.2916 C   0  0  0  0  0  0
  -18.9454  -30.1441   23.8929 C   0  0  0  0  0  0
  -17.6453  -30.6590   24.0563 C   0  0  0  0  0  0
  -25.9044  -34.9470   23.5125 C   0  0  0  0  0  0
  -16.5345  -29.9093   23.6319 C   0  0  0  0  0  0
  -16.7269  -28.6498   23.0360 C   0  0  0  0  0  0
  -26.4471  -31.6614   25.0722 C   0  0  0  0  0  0
  -25.3756  -31.3722   26.1492 C   0  0  0  0  0  0
  -27.0309  -30.3061   24.6094 C   0  0  0  0  0  0
  -27.6043  -32.4345   25.7486 C   0  0  0  0  0  0
  -27.5588  -37.1807   24.8466 C   0  0  0  0  0  0
  -21.4147  -29.3019   22.3721 N   0  0  0  0  0  0
  -26.4301  -37.3792   23.9412 N   0  0  0  0  0  0
  -24.6701  -31.0761   22.0977 N   0  0  0  0  0  0
  -23.4185  -28.8164   23.3027 O   0  0  0  0  0  0
  -28.3760  -26.6575   20.1203 O   0  0  0  0  0  0
  -26.5593  -34.8910   22.4677 O   0  0  0  0  0  0
  -23.5333  -32.1399   23.7476 O   0  0  0  0  0  0
  -28.6299  -20.5149   20.4724 C   0  0  0  0  0  0
  -28.6225  -21.7171   19.7155 C   0  0  0  0  0  0
  -29.0820  -21.6488   18.3725 C   0  0  0  0  0  0
  -29.0927  -19.3097   19.8897 C   0  0  0  0  0  0
  -29.5796  -20.4104   17.8899 C   0  0  0  0  0  0
  -29.0230  -22.8694   17.4554 C   0  0  0  0  0  0
  -29.5192  -17.9085   15.6120 C   0  0  0  0  0  0
  -27.8398  -19.8031   15.4629 C   0  0  0  0  0  0
  -28.0323  -23.0095   20.3181 C   0  0  0  0  0  0
  -28.9169  -17.9266   20.5525 C   0  0  0  0  0  0
  -30.1905  -20.2259   16.4977 C   0  0  0  0  0  0
  -28.9822  -24.2415   20.4190 C   0  0  0  0  0  0
  -30.1592  -16.9801   20.5082 C   0  0  0  0  0  0
  -28.3073  -25.5158   20.9959 C   0  0  0  0  0  0
  -29.3340  -19.4315   15.4730 C   0  0  0  0  0  0
  -29.5718  -19.2855   18.6334 N   0  0  0  0  0  0
  -29.8800  -15.5666   20.8644 N   0  0  0  0  0  0
  -31.4705  -12.4277   19.1403 H   0  0  0  0  0  0
  -30.3317  -11.3170   19.8485 H   0  0  0  0  0  0
  -29.7490  -11.7809   17.4420 H   0  0  0  0  0  0
  -29.6569  -13.4928   17.7753 H   0  0  0  0  0  0
  -27.8362  -11.3029   18.8350 H   0  0  0  0  0  0
  -27.3668  -12.6204   17.7912 H   0  0  0  0  0  0
  -27.6913  -14.2518   19.5603 H   0  0  0  0  0  0
  -28.6795  -11.9871   21.3685 H   0  0  0  0  0  0
  -28.4629  -13.6384   21.8654 H   0  0  0  0  0  0
  -25.2740   -9.5684   22.4761 H   0  0  0  0  0  0
  -24.0007   -7.4623   22.7457 H   0  0  0  0  0  0
  -21.0826   -8.8751   19.8949 H   0  0  0  0  0  0
  -22.3665  -10.9665   19.6179 H   0  0  0  0  0  0
  -21.2028   -7.6158   23.9726 H   0  0  0  0  0  0
  -21.1474   -6.0516   25.9076 H   0  0  0  0  0  0
  -22.0618   -2.7619   23.2813 H   0  0  0  0  0  0
  -22.4091  -11.9914   22.4836 H   0  0  0  0  0  0
  -21.1120  -13.1300   22.2594 H   0  0  0  0  0  0
  -24.6498  -15.8327   20.4845 H   0  0  0  0  0  0
  -26.2671  -15.6216   20.0439 H   0  0  0  0  0  0
  -26.7113  -32.5545   23.1159 H   0  0  0  0  0  0
  -25.0107  -33.9782   25.0512 H   0  0  0  0  0  0
  -22.6964  -31.3040   21.4071 H   0  0  0  0  0  0
  -23.3750  -35.9642   23.3305 H   0  0  0  0  0  0
  -24.3598  -36.8912   22.2053 H   0  0  0  0  0  0
  -23.7241  -37.6508   23.6649 H   0  0  0  0  0  0
  -26.0511  -31.5994   20.5949 H   0  0  0  0  0  0
  -26.8173  -30.8820   21.9882 H   0  0  0  0  0  0
  -28.1091  -29.1016   21.1659 H   0  0  0  0  0  0
  -26.0693  -25.9444   19.0619 H   0  0  0  0  0  0
  -23.9791  -27.2711   19.0631 H   0  0  0  0  0  0
  -23.7313  -30.5914   19.4028 H   0  0  0  0  0  0
  -22.7420  -29.2383   19.8661 H   0  0  0  0  0  0
  -25.1296  -36.1970   25.0836 H   0  0  0  0  0  0
  -20.9975  -28.3229   24.1434 H   0  0  0  0  0  0
  -20.5688  -26.2266   23.3608 H   0  0  0  0  0  0
  -21.6641  -26.7450   22.1200 H   0  0  0  0  0  0
  -19.6900  -25.6290   21.1254 H   0  0  0  0  0  0
  -19.6693  -27.3190   20.6756 H   0  0  0  0  0  0
  -17.4202  -26.6695   21.4021 H   0  0  0  0  0  0
  -18.0303  -26.0071   22.9011 H   0  0  0  0  0  0
  -19.7929  -30.7248   24.2321 H   0  0  0  0  0  0
  -17.5010  -31.6283   24.5144 H   0  0  0  0  0  0
  -15.5340  -30.3001   23.7635 H   0  0  0  0  0  0
  -15.8672  -28.0823   22.7069 H   0  0  0  0  0  0
  -24.5882  -30.7129   25.7828 H   0  0  0  0  0  0
  -24.9012  -32.2888   26.5003 H   0  0  0  0  0  0
  -25.8114  -30.8832   27.0215 H   0  0  0  0  0  0
  -26.2849  -29.6823   24.1158 H   0  0  0  0  0  0
  -27.4101  -29.7297   25.4543 H   0  0  0  0  0  0
  -27.8673  -30.4388   23.9230 H   0  0  0  0  0  0
  -27.2638  -33.3605   26.2126 H   0  0  0  0  0  0
  -28.3810  -32.6977   25.0298 H   0  0  0  0  0  0
  -28.0766  -31.8456   26.5355 H   0  0  0  0  0  0
  -28.2601  -38.0107   24.7521 H   0  0  0  0  0  0
  -28.1083  -36.2634   24.6286 H   0  0  0  0  0  0
  -27.2313  -37.1467   25.8871 H   0  0  0  0  0  0
  -20.9302  -29.8752   21.6956 H   0  0  0  0  0  0
  -26.0184  -38.2866   24.1413 H   0  0  0  0  0  0
  -28.2217  -20.5002   21.4743 H   0  0  0  0  0  0
  -28.2120  -23.5456   17.7204 H   0  0  0  0  0  0
  -28.8399  -22.5977   16.4175 H   0  0  0  0  0  0
  -29.9634  -23.4192   17.4978 H   0  0  0  0  0  0
  -29.0213  -17.3744   14.8025 H   0  0  0  0  0  0
  -29.1095  -17.5365   16.5515 H   0  0  0  0  0  0
  -30.5732  -17.6326   15.5819 H   0  0  0  0  0  0
  -27.3108  -19.2671   14.6734 H   0  0  0  0  0  0
  -27.6942  -20.8681   15.2819 H   0  0  0  0  0  0
  -27.3541  -19.5546   16.4078 H   0  0  0  0  0  0
  -27.6525  -22.7857   21.3154 H   0  0  0  0  0  0
  -27.1493  -23.2794   19.7375 H   0  0  0  0  0  0
  -28.0719  -17.4468   20.0558 H   0  0  0  0  0  0
  -28.6094  -18.0683   21.5890 H   0  0  0  0  0  0
  -31.1596  -19.7413   16.6171 H   0  0  0  0  0  0
  -30.4476  -21.1911   16.0659 H   0  0  0  0  0  0
  -29.4158  -24.4959   19.4554 H   0  0  0  0  0  0
  -29.8295  -23.9724   21.0498 H   0  0  0  0  0  0
  -30.9537  -17.3798   21.1382 H   0  0  0  0  0  0
  -30.5489  -16.9786   19.4885 H   0  0  0  0  0  0
  -28.8148  -25.7974   21.9198 H   0  0  0  0  0  0
  -27.2824  -25.2881   21.2934 H   0  0  0  0  0  0
  -29.7338  -19.6804   14.4886 H   0  0  0  0  0  0
  -28.9536  -15.3424   21.1942 H   0  0  0  0  0  0
  1 25  1  0  0  0
  1 30  2  0  0  0
  1 87  1  0  0  0
  2  3  1  0  0  0
  2 25  1  0  0  0
  2 88  1  0  0  0
  2 89  1  0  0  0
  3  4  1  0  0  0
  3 90  1  0  0  0
  3 91  1  0  0  0
  4  5  1  0  0  0
  4 92  1  0  0  0
  4 93  1  0  0  0
  5  6  1  0  0  0
  5 26  1  0  0  0
  5 94  1  0  0  0
  6 25  1  0  0  0
  6 95  1  0  0  0
  6 96  1  0  0  0
  7  8  2  0  0  0
  7 26  1  0  0  0
  7 29  1  0  0  0
  8  9  1  0  0  0
  8 22  1  0  0  0
  9 10  1  0  0  0
  9 27  2  0  0  0
 10 11  2  0  0  0
 10 15  1  0  0  0
 11 12  1  0  0  0
 11 97  1  0  0  0
 12 13  2  0  0  0
 12 98  1  0  0  0
 13 14  1  0  0  0
 13 31  1  0  0  0
 14 15  2  0  0  0
 14 99  1  0  0  0
 15100  1  0  0  0
 16 17  2  0  0  0
 16 21  1  0  0  0
 16 31  1  0  0  0
 17 18  1  0  0  0
 17101  1  0  0  0
 18 19  2  0  0  0
 18102  1  0  0  0
 19 20  1  0  0  0
 19 24  1  0  0  0
 20 21  2  0  0  0
 20103  1  0  0  0
 21 23  1  0  0  0
 22 28  1  0  0  0
 22 32  2  0  0  0
 26 27  1  0  0  0
 28104  1  0  0  0
 28105  1  0  0  0
 29106  1  0  0  0
 29107  1  0  0  0
 33 34  1  0  0  0
 33 66  1  0  0  0
 33 70  2  0  0  0
 34 36  1  0  0  0
 34 59  1  0  0  0
 34108  1  0  0  0
 35 44  2  0  0  0
 35 45  1  0  0  0
 35 68  1  0  0  0
 36 56  1  0  0  0
 36109  1  0  0  0
 37 39  1  0  0  0
 37 47  1  0  0  0
 37 66  1  0  0  0
 37110  1  0  0  0
 38 43  2  0  0  0
 38 46  1  0  0  0
 38 47  1  0  0  0
 39 64  1  0  0  0
 39 67  2  0  0  0
 40 52  1  0  0  0
 40 53  2  0  0  0
 40 58  1  0  0  0
 41111  1  0  0  0
 41112  1  0  0  0
 41113  1  0  0  0
 41 48  1  0  0  0
 42 43  1  0  0  0
 42 66  1  0  0  0
 42114  1  0  0  0
 42115  1  0  0  0
 43 44  1  0  0  0
 44116  1  0  0  0
 45 46  2  0  0  0
 45117  1  0  0  0
 46118  1  0  0  0
 47119  1  0  0  0
 47120  1  0  0  0
 48 56  1  0  0  0
 48 65  1  0  0  0
 48121  1  0  0  0
 49 50  1  0  0  0
 49 53  1  0  0  0
 49 64  1  0  0  0
 49122  1  0  0  0
 50 51  1  0  0  0
 50123  1  0  0  0
 50124  1  0  0  0
 51 52  1  0  0  0
 51125  1  0  0  0
 51126  1  0  0  0
 52127  1  0  0  0
 52128  1  0  0  0
 53 54  1  0  0  0
 54 55  2  0  0  0
 54129  1  0  0  0
 55 57  1  0  0  0
 55130  1  0  0  0
 56 69  2  0  0  0
 57 58  2  0  0  0
 57131  1  0  0  0
 58132  1  0  0  0
 59 60  1  0  0  0
 59 61  1  0  0  0
 59 62  1  0  0  0
 60133  1  0  0  0
 60134  1  0  0  0
 60135  1  0  0  0
 61136  1  0  0  0
 61137  1  0  0  0
 61138  1  0  0  0
 62139  1  0  0  0
 62140  1  0  0  0
 62141  1  0  0  0
 63 65  1  0  0  0
 63142  1  0  0  0
 63143  1  0  0  0
 63144  1  0  0  0
 64145  1  0  0  0
 65146  1  0  0  0
 68 84  1  0  0  0
 71 72  2  0  0  0
 71 74  1  0  0  0
 71147  1  0  0  0
 72 73  1  0  0  0
 72 79  1  0  0  0
 73 75  2  0  0  0
 73 76  1  0  0  0
 74 80  1  0  0  0
 74 86  2  0  0  0
 75 81  1  0  0  0
 75 86  1  0  0  0
 76148  1  0  0  0
 76149  1  0  0  0
 76150  1  0  0  0
 77151  1  0  0  0
 77152  1  0  0  0
 77153  1  0  0  0
 77 85  1  0  0  0
 78 85  1  0  0  0
 78154  1  0  0  0
 78155  1  0  0  0
 78156  1  0  0  0
 79 82  1  0  0  0
 79157  1  0  0  0
 79158  1  0  0  0
 80 83  1  0  0  0
 80159  1  0  0  0
 80160  1  0  0  0
 81 85  1  0  0  0
 81161  1  0  0  0
 81162  1  0  0  0
 82 84  1  0  0  0
 82163  1  0  0  0
 82164  1  0  0  0
 83 87  1  0  0  0
 83165  1  0  0  0
 83166  1  0  0  0
 84167  1  0  0  0
 84168  1  0  0  0
 85169  1  0  0  0
 87170  1  0  0  0
M  ISO  4   1 100  68 101  84 101  87 100
M  END
> <chiral flag>
0

> <version>
0

> <s_m_source_file>
/data/baiqing/PycharmProjects/Reinvent-master-3.2/result/LINK_invent/BTK/process_docking_weight1_custom_sum_contain_oxygen_bond_distance_aromatic_linkinvent_7_9_3/rearranged_h_0083.sdf

> <i_m_source_file_index>
92

> <r_mmod_Potential_Energy-OPLS-2005>
-149.003982543945

> <r_mmod_Stretch_Energy-OPLS-2005>
44.0288848876953

> <r_mmod_Bend_Energy-OPLS-2005>
101.432228088379

> <r_mmod_Torsional_Energy-OPLS-2005>
237.148376464844

> <r_mmod_Improper_Torsional_Energy-OPLS-2005>
7.17983722686768

> <r_mmod_Van_der_Waal_Energy-OPLS-2005>
151.263549804688

> <r_mmod_Electrostatic_Energy-OPLS-2005>
-489.956207275391

> <r_mmod_Solvation_Energy-OPLS-2005>
-217.662567138672

> <b_mmod_Minimization_Converged-OPLS-2005>
0

> <r_mmod_RMS_Derivative-OPLS-2005>
2.36491727828979

$$$$
92
                    3D
 Structure written by MMmdl.
154162  0  0  1  0            999 V2000
  -30.7678  -14.4600   20.5936 C   0  0  0  0  0  0
  -30.3943  -12.3055   19.4394 C   0  0  0  0  0  0
  -29.4858  -12.5117   18.2145 C   0  0  0  0  0  0
  -28.0101  -12.3662   18.6236 C   0  0  0  0  0  0
  -27.6513  -13.2198   19.8687 C   0  0  2  0  0  0
  -28.6931  -13.0547   21.0004 C   0  0  0  0  0  0
  -25.2517  -13.8199   20.5690 C   0  0  0  0  0  0
  -24.1793  -13.0450   20.9171 C   0  0  0  0  0  0
  -24.6369  -11.6913   20.8723 C   0  0  0  0  0  0
  -23.9054  -10.4293   21.0383 C   0  0  0  0  0  0
  -24.3614   -9.4205   21.9167 C   0  0  0  0  0  0
  -23.6284   -8.2242   22.0751 C   0  0  0  0  0  0
  -22.4266   -8.0279   21.3545 C   0  0  0  0  0  0
  -21.9897   -9.0249   20.4639 C   0  0  0  0  0  0
  -22.7220  -10.2135   20.3031 C   0  0  0  0  0  0
  -21.6843   -6.0726   22.5283 C   0  0  0  0  0  0
  -21.4004   -6.5628   23.8214 C   0  0  0  0  0  0
  -21.3647   -5.6790   24.9182 C   0  0  0  0  0  0
  -21.6042   -4.3054   24.7248 C   0  0  0  0  0  0
  -21.8798   -3.8139   23.4368 C   0  0  0  0  0  0
  -21.9185   -4.6952   22.3415 C   0  0  0  0  0  0
  -22.7812  -13.5224   21.1858 C   0  0  0  0  0  0
  -22.1652   -4.2125   21.0997 F   0  0  0  0  0  0
  -21.5628   -3.4537   25.7766 F   0  0  0  0  0  0
  -30.0299  -13.3217   20.4450 N   0  0  0  0  0  0
  -26.2963  -12.9384   20.3376 N   0  0  0  0  0  0
  -25.9300  -11.6530   20.5779 N   0  0  0  0  0  0
  -22.0486  -12.8197   22.0421 N   0  0  0  0  0  0
  -25.4271  -15.1931   20.4048 N   0  0  0  0  0  0
  -31.8548  -14.6058   20.0317 O   0  0  0  0  0  0
  -21.6626   -6.8885   21.4245 O   0  0  0  0  0  0
  -22.3472  -14.5535   20.6733 O   0  0  0  0  0  0
  -24.6348  -31.8741   23.2170 C   0  0  0  0  0  0
  -25.9200  -32.4871   23.8469 C   0  0  1  0  0  0
  -27.2421  -27.4169   20.1007 C   0  0  0  0  0  0
  -25.6030  -33.8661   24.2414 N   0  0  0  0  0  0
  -23.4375  -30.5043   21.5692 C   0  0  2  0  0  0
  -24.8552  -28.9549   20.1268 C   0  0  0  0  0  0
  -22.7742  -29.4946   22.5269 C   0  0  0  0  0  0
  -17.9938  -28.1210   22.8709 C   0  0  0  0  0  0
  -24.1489  -36.7329   23.2641 C   0  0  0  0  0  0
  -25.9523  -30.8318   21.3634 C   0  0  0  0  0  0
  -26.0195  -29.4614   20.7144 C   0  0  0  0  0  0
  -27.2085  -28.6985   20.7021 C   0  0  0  0  0  0
  -26.0565  -26.9350   19.4944 C   0  0  0  0  0  0
  -24.8691  -27.6897   19.5185 C   0  0  0  0  0  0
  -23.6223  -29.8250   20.1841 C   0  0  0  0  0  0
  -25.4102  -36.3147   24.0362 C   0  0  1  0  0  0
  -20.4786  -28.4699   22.7822 C   0  0  2  0  0  0
  -20.6986  -26.9749   22.5327 C   0  0  0  0  0  0
  -19.5634  -26.4615   21.6228 C   0  0  0  0  0  0
  -18.1619  -26.7528   22.2043 C   0  0  0  0  0  0
  -19.1115  -28.9020   23.2534 C   0  0  0  0  0  0
  -18.9284  -30.1489   23.8828 C   0  0  0  0  0  0
  -17.6283  -30.6494   24.0832 C   0  0  0  0  0  0
  -25.9068  -34.9508   23.5159 C   0  0  0  0  0  0
  -16.5146  -29.8926   23.6722 C   0  0  0  0  0  0
  -16.6959  -28.6263   23.0869 C   0  0  0  0  0  0
  -26.4535  -31.6615   25.0803 C   0  0  0  0  0  0
  -25.3759  -31.3724   26.1530 C   0  0  0  0  0  0
  -27.0361  -30.3062   24.6155 C   0  0  0  0  0  0
  -27.6119  -32.4301   25.7579 C   0  0  0  0  0  0
  -27.5578  -37.1841   24.8478 C   0  0  0  0  0  0
  -21.4528  -29.4634   22.4105 N   0  0  0  0  0  0
  -26.4285  -37.3830   23.9428 N   0  0  0  0  0  0
  -24.6970  -31.0844   22.1085 N   0  0  0  0  0  0
  -23.4231  -28.7687   23.2813 O   0  0  0  0  0  0
  -28.4436  -26.7260   20.1175 O   0  0  0  0  0  0
  -26.5588  -34.8978   22.4696 O   0  0  0  0  0  0
  -23.5521  -32.1491   23.7551 O   0  0  0  0  0  0
  -29.2139  -18.4638   21.6351 C   0  0  0  0  0  0
  -31.4766  -19.1246   21.8922 C   0  0  0  0  0  0
  -30.5572  -18.0664   21.7521 C   0  0  0  0  0  0
  -29.7941  -20.6806   21.8926 C   0  0  0  0  0  0
  -31.0776  -16.6123   21.8308 C   0  0  0  0  0  0
  -29.3743  -22.1415   22.1195 C   0  0  0  0  0  0
  -29.2237  -23.0087   20.8424 C   0  0  0  0  0  0
  -28.8967  -24.5068   21.1247 C   0  0  0  0  0  0
  -28.5190  -25.3101   19.8584 C   0  0  0  0  0  0
  -28.8434  -19.7662   21.7028 N   0  0  0  0  0  0
  -31.0941  -20.4162   21.9617 N   0  0  0  0  0  0
  -30.2664  -15.4559   21.3562 N   0  0  0  0  0  0
  -31.4425  -12.3560   19.1417 H   0  0  0  0  0  0
  -30.2536  -11.3041   19.8507 H   0  0  0  0  0  0
  -29.7310  -11.7912   17.4330 H   0  0  0  0  0  0
  -29.6554  -13.5037   17.7882 H   0  0  0  0  0  0
  -27.8242  -11.3120   18.8316 H   0  0  0  0  0  0
  -27.3578  -12.6291   17.7891 H   0  0  0  0  0  0
  -27.6793  -14.2604   19.5459 H   0  0  0  0  0  0
  -28.6571  -12.0413   21.3985 H   0  0  0  0  0  0
  -28.4486  -13.7079   21.8379 H   0  0  0  0  0  0
  -25.2759   -9.5661   22.4750 H   0  0  0  0  0  0
  -23.9971   -7.4609   22.7450 H   0  0  0  0  0  0
  -21.0836   -8.8736   19.8950 H   0  0  0  0  0  0
  -22.3648  -10.9665   19.6139 H   0  0  0  0  0  0
  -21.1984   -7.6134   23.9698 H   0  0  0  0  0  0
  -21.1504   -6.0546   25.9086 H   0  0  0  0  0  0
  -22.0601   -2.7599   23.2889 H   0  0  0  0  0  0
  -22.4109  -11.9838   22.4776 H   0  0  0  0  0  0
  -21.1125  -13.1216   22.2724 H   0  0  0  0  0  0
  -24.6594  -15.8537   20.4576 H   0  0  0  0  0  0
  -26.2872  -15.6162   20.0805 H   0  0  0  0  0  0
  -26.7302  -32.5580   23.1262 H   0  0  0  0  0  0
  -25.0179  -33.9753   25.0564 H   0  0  0  0  0  0
  -22.7364  -31.3292   21.4206 H   0  0  0  0  0  0
  -23.3756  -35.9653   23.3304 H   0  0  0  0  0  0
  -24.3607  -36.8922   22.2059 H   0  0  0  0  0  0
  -23.7230  -37.6550   23.6615 H   0  0  0  0  0  0
  -26.0628  -31.5931   20.5902 H   0  0  0  0  0  0
  -26.8426  -30.8915   21.9778 H   0  0  0  0  0  0
  -28.1059  -29.0858   21.1629 H   0  0  0  0  0  0
  -26.0043  -25.9883   18.9824 H   0  0  0  0  0  0
  -23.9780  -27.2899   19.0567 H   0  0  0  0  0  0
  -23.7224  -30.5878   19.4133 H   0  0  0  0  0  0
  -22.7356  -29.2500   19.9078 H   0  0  0  0  0  0
  -25.1255  -36.2009   25.0850 H   0  0  0  0  0  0
  -20.1676  -28.6887   21.7611 H   0  0  0  0  0  0
  -20.6929  -26.4441   23.4842 H   0  0  0  0  0  0
  -21.6681  -26.7842   22.0706 H   0  0  0  0  0  0
  -19.6746  -25.3905   21.4555 H   0  0  0  0  0  0
  -19.6524  -26.9148   20.6339 H   0  0  0  0  0  0
  -17.4137  -26.6300   21.4212 H   0  0  0  0  0  0
  -17.9314  -26.0040   22.9639 H   0  0  0  0  0  0
  -19.7825  -30.7517   24.1603 H   0  0  0  0  0  0
  -17.4871  -31.6192   24.5403 H   0  0  0  0  0  0
  -15.5168  -30.2805   23.8249 H   0  0  0  0  0  0
  -15.8312  -28.0463   22.7935 H   0  0  0  0  0  0
  -24.5933  -30.7064   25.7860 H   0  0  0  0  0  0
  -24.8954  -32.2890   26.4969 H   0  0  0  0  0  0
  -25.8094  -30.8908   27.0304 H   0  0  0  0  0  0
  -26.2930  -29.6846   24.1156 H   0  0  0  0  0  0
  -27.4097  -29.7260   25.4596 H   0  0  0  0  0  0
  -27.8769  -30.4397   23.9348 H   0  0  0  0  0  0
  -27.2759  -33.3586   26.2190 H   0  0  0  0  0  0
  -28.3935  -32.6862   25.0419 H   0  0  0  0  0  0
  -28.0778  -31.8398   26.5474 H   0  0  0  0  0  0
  -28.2621  -38.0119   24.7515 H   0  0  0  0  0  0
  -28.1057  -36.2659   24.6289 H   0  0  0  0  0  0
  -27.2328  -37.1494   25.8897 H   0  0  0  0  0  0
  -21.0719  -30.1917   21.8222 H   0  0  0  0  0  0
  -26.0184  -38.2920   24.1400 H   0  0  0  0  0  0
  -28.4268  -17.7298   21.5383 H   0  0  0  0  0  0
  -32.5359  -18.9304   21.9859 H   0  0  0  0  0  0
  -32.0487  -16.6218   21.3316 H   0  0  0  0  0  0
  -31.3162  -16.4183   22.8788 H   0  0  0  0  0  0
  -30.1097  -22.6119   22.7753 H   0  0  0  0  0  0
  -28.4358  -22.1588   22.6741 H   0  0  0  0  0  0
  -28.4482  -22.5714   20.2127 H   0  0  0  0  0  0
  -30.1464  -22.9474   20.2636 H   0  0  0  0  0  0
  -29.7606  -24.9776   21.5967 H   0  0  0  0  0  0
  -28.0826  -24.5829   21.8491 H   0  0  0  0  0  0
  -27.6287  -24.8687   19.4231 H   0  0  0  0  0  0
  -29.2964  -25.1738   19.1053 H   0  0  0  0  0  0
  -29.3756  -15.2724   21.7948 H   0  0  0  0  0  0
  1 25  1  0  0  0
  1 30  2  0  0  0
  1 82  1  0  0  0
  2  3  1  0  0  0
  2 25  1  0  0  0
  2 83  1  0  0  0
  2 84  1  0  0  0
  3  4  1  0  0  0
  3 85  1  0  0  0
  3 86  1  0  0  0
  4  5  1  0  0  0
  4 87  1  0  0  0
  4 88  1  0  0  0
  5  6  1  0  0  0
  5 26  1  0  0  0
  5 89  1  0  0  0
  6 25  1  0  0  0
  6 90  1  0  0  0
  6 91  1  0  0  0
  7  8  2  0  0  0
  7 26  1  0  0  0
  7 29  1  0  0  0
  8  9  1  0  0  0
  8 22  1  0  0  0
  9 10  1  0  0  0
  9 27  2  0  0  0
 10 11  2  0  0  0
 10 15  1  0  0  0
 11 12  1  0  0  0
 11 92  1  0  0  0
 12 13  2  0  0  0
 12 93  1  0  0  0
 13 14  1  0  0  0
 13 31  1  0  0  0
 14 15  2  0  0  0
 14 94  1  0  0  0
 15 95  1  0  0  0
 16 17  2  0  0  0
 16 21  1  0  0  0
 16 31  1  0  0  0
 17 18  1  0  0  0
 17 96  1  0  0  0
 18 19  2  0  0  0
 18 97  1  0  0  0
 19 20  1  0  0  0
 19 24  1  0  0  0
 20 21  2  0  0  0
 20 98  1  0  0  0
 21 23  1  0  0  0
 22 28  1  0  0  0
 22 32  2  0  0  0
 26 27  1  0  0  0
 28 99  1  0  0  0
 28100  1  0  0  0
 29101  1  0  0  0
 29102  1  0  0  0
 33 34  1  0  0  0
 33 66  1  0  0  0
 33 70  2  0  0  0
 34 36  1  0  0  0
 34 59  1  0  0  0
 34103  1  0  0  0
 35 44  2  0  0  0
 35 45  1  0  0  0
 35 68  1  0  0  0
 36 56  1  0  0  0
 36104  1  0  0  0
 37 39  1  0  0  0
 37 47  1  0  0  0
 37 66  1  0  0  0
 37105  1  0  0  0
 38 43  2  0  0  0
 38 46  1  0  0  0
 38 47  1  0  0  0
 39 64  1  0  0  0
 39 67  2  0  0  0
 40 52  1  0  0  0
 40 53  2  0  0  0
 40 58  1  0  0  0
 41106  1  0  0  0
 41107  1  0  0  0
 41108  1  0  0  0
 41 48  1  0  0  0
 42 43  1  0  0  0
 42 66  1  0  0  0
 42109  1  0  0  0
 42110  1  0  0  0
 43 44  1  0  0  0
 44111  1  0  0  0
 45 46  2  0  0  0
 45112  1  0  0  0
 46113  1  0  0  0
 47114  1  0  0  0
 47115  1  0  0  0
 48 56  1  0  0  0
 48 65  1  0  0  0
 48116  1  0  0  0
 49 50  1  0  0  0
 49 53  1  0  0  0
 49 64  1  0  0  0
 49117  1  0  0  0
 50 51  1  0  0  0
 50118  1  0  0  0
 50119  1  0  0  0
 51 52  1  0  0  0
 51120  1  0  0  0
 51121  1  0  0  0
 52122  1  0  0  0
 52123  1  0  0  0
 53 54  1  0  0  0
 54 55  2  0  0  0
 54124  1  0  0  0
 55 57  1  0  0  0
 55125  1  0  0  0
 56 69  2  0  0  0
 57 58  2  0  0  0
 57126  1  0  0  0
 58127  1  0  0  0
 59 60  1  0  0  0
 59 61  1  0  0  0
 59 62  1  0  0  0
 60128  1  0  0  0
 60129  1  0  0  0
 60130  1  0  0  0
 61131  1  0  0  0
 61132  1  0  0  0
 61133  1  0  0  0
 62134  1  0  0  0
 62135  1  0  0  0
 62136  1  0  0  0
 63 65  1  0  0  0
 63137  1  0  0  0
 63138  1  0  0  0
 63139  1  0  0  0
 64140  1  0  0  0
 65141  1  0  0  0
 68 79  1  0  0  0
 71 73  2  0  0  0
 71 80  1  0  0  0
 71142  1  0  0  0
 72 73  1  0  0  0
 72 81  2  0  0  0
 72143  1  0  0  0
 73 75  1  0  0  0
 74 76  1  0  0  0
 74 80  2  0  0  0
 74 81  1  0  0  0
 75 82  1  0  0  0
 75144  1  0  0  0
 75145  1  0  0  0
 76 77  1  0  0  0
 76146  1  0  0  0
 76147  1  0  0  0
 77 78  1  0  0  0
 77148  1  0  0  0
 77149  1  0  0  0
 78 79  1  0  0  0
 78150  1  0  0  0
 78151  1  0  0  0
 79152  1  0  0  0
 79153  1  0  0  0
 82154  1  0  0  0
M  ISO  4   1 100  68 101  79 101  82 100
M  END
> <chiral flag>
0

> <version>
0

> <s_m_source_file>
/data/baiqing/PycharmProjects/Reinvent-master-3.2/result/LINK_invent/BTK/process_docking_weight1_custom_sum_contain_oxygen_bond_distance_aromatic_linkinvent_7_9_3/rearranged_h_0083.sdf

> <i_m_source_file_index>
93

> <r_mmod_Potential_Energy-OPLS-2005>
-255.340927124023

> <r_mmod_Stretch_Energy-OPLS-2005>
38.3483467102051

> <r_mmod_Bend_Energy-OPLS-2005>
226.269287109375

> <r_mmod_Torsional_Energy-OPLS-2005>
185.065277099609

> <r_mmod_Improper_Torsional_Energy-OPLS-2005>
4.19258594512939

> <r_mmod_Van_der_Waal_Energy-OPLS-2005>
168.341461181641

> <r_mmod_Electrostatic_Energy-OPLS-2005>
-675.962585449219

> <r_mmod_Solvation_Energy-OPLS-2005>
-237.117950439453

> <b_mmod_Minimization_Converged-OPLS-2005>
0

> <r_mmod_RMS_Derivative-OPLS-2005>
3.83241677284241

$$$$
93
                    3D
 Structure written by MMmdl.
171179  0  0  1  0            999 V2000
  -30.8612  -14.2504   20.7981 C   0  0  0  0  0  0
  -30.4030  -12.2934   19.3677 C   0  0  0  0  0  0
  -29.4712  -12.5502   18.1772 C   0  0  0  0  0  0
  -28.0037  -12.3840   18.6038 C   0  0  0  0  0  0
  -27.6664  -13.2049   19.8751 C   0  0  2  0  0  0
  -28.7060  -12.9706   20.9945 C   0  0  0  0  0  0
  -25.2610  -13.8157   20.5636 C   0  0  0  0  0  0
  -24.1862  -13.0439   20.9169 C   0  0  0  0  0  0
  -24.6421  -11.6907   20.8742 C   0  0  0  0  0  0
  -23.9075  -10.4295   21.0409 C   0  0  0  0  0  0
  -24.3626   -9.4209   21.9186 C   0  0  0  0  0  0
  -23.6301   -8.2245   22.0758 C   0  0  0  0  0  0
  -22.4284   -8.0282   21.3547 C   0  0  0  0  0  0
  -21.9920   -9.0254   20.4647 C   0  0  0  0  0  0
  -22.7247  -10.2135   20.3057 C   0  0  0  0  0  0
  -21.6852   -6.0739   22.5284 C   0  0  0  0  0  0
  -21.4013   -6.5642   23.8217 C   0  0  0  0  0  0
  -21.3664   -5.6794   24.9179 C   0  0  0  0  0  0
  -21.6050   -4.3059   24.7232 C   0  0  0  0  0  0
  -21.8824   -3.8151   23.4351 C   0  0  0  0  0  0
  -21.9193   -4.6966   22.3407 C   0  0  0  0  0  0
  -22.7886  -13.5241   21.1840 C   0  0  0  0  0  0
  -22.1661   -4.2151   21.0984 F   0  0  0  0  0  0
  -21.5631   -3.4544   25.7745 F   0  0  0  0  0  0
  -30.0529  -13.2159   20.4550 N   0  0  0  0  0  0
  -26.3064  -12.9328   20.3381 N   0  0  0  0  0  0
  -25.9347  -11.6490   20.5763 N   0  0  0  0  0  0
  -22.0530  -12.8219   22.0392 N   0  0  0  0  0  0
  -25.4318  -15.1857   20.3936 N   0  0  0  0  0  0
  -31.7499  -14.6579   20.0343 O   0  0  0  0  0  0
  -21.6641   -6.8883   21.4247 O   0  0  0  0  0  0
  -22.3565  -14.5548   20.6699 O   0  0  0  0  0  0
  -24.6089  -31.8712   23.2129 C   0  0  0  0  0  0
  -25.8996  -32.4846   23.8415 C   0  0  1  0  0  0
  -27.2354  -27.4829   20.0878 C   0  0  0  0  0  0
  -25.5865  -33.8644   24.2353 N   0  0  0  0  0  0
  -23.3956  -30.4931   21.5526 C   0  0  2  0  0  0
  -24.8432  -28.9624   20.1157 C   0  0  0  0  0  0
  -22.7378  -29.4672   22.5016 C   0  0  0  0  0  0
  -18.0260  -28.1383   22.8492 C   0  0  0  0  0  0
  -24.1483  -36.7331   23.2641 C   0  0  0  0  0  0
  -25.9175  -30.8511   21.3573 C   0  0  0  0  0  0
  -25.9978  -29.4866   20.7109 C   0  0  0  0  0  0
  -27.1991  -28.7502   20.7010 C   0  0  0  0  0  0
  -26.0735  -26.9583   19.4897 C   0  0  0  0  0  0
  -24.8723  -27.6942   19.5059 C   0  0  0  0  0  0
  -23.6015  -29.8231   20.1673 C   0  0  0  0  0  0
  -25.4099  -36.3135   24.0352 C   0  0  1  0  0  0
  -20.5846  -28.3661   23.1341 C   0  0  2  0  0  0
  -20.6754  -26.9403   22.5428 C   0  0  0  0  0  0
  -19.5739  -26.6392   21.5218 C   0  0  0  0  0  0
  -18.1913  -26.7933   22.1624 C   0  0  0  0  0  0
  -19.1508  -28.8836   23.2915 C   0  0  0  0  0  0
  -18.9441  -30.1441   23.8925 C   0  0  0  0  0  0
  -17.6448  -30.6588   24.0573 C   0  0  0  0  0  0
  -25.9021  -34.9495   23.5155 C   0  0  0  0  0  0
  -16.5338  -29.9096   23.6329 C   0  0  0  0  0  0
  -16.7251  -28.6514   23.0343 C   0  0  0  0  0  0
  -26.4445  -31.6605   25.0715 C   0  0  0  0  0  0
  -25.3728  -31.3673   26.1471 C   0  0  0  0  0  0
  -27.0271  -30.3065   24.6038 C   0  0  0  0  0  0
  -27.6051  -32.4301   25.7458 C   0  0  0  0  0  0
  -27.5583  -37.1812   24.8470 C   0  0  0  0  0  0
  -21.4113  -29.3032   22.3756 N   0  0  0  0  0  0
  -26.4296  -37.3807   23.9414 N   0  0  0  0  0  0
  -24.6588  -31.0851   22.1007 N   0  0  0  0  0  0
  -23.4169  -28.8219   23.3043 O   0  0  0  0  0  0
  -28.3953  -26.7598   20.0696 O   0  0  0  0  0  0
  -26.5593  -34.8937   22.4721 O   0  0  0  0  0  0
  -23.5293  -32.1445   23.7551 O   0  0  0  0  0  0
  -29.6871  -18.4284   22.0962 C   0  0  0  0  0  0
  -30.3986  -17.2578   21.8158 C   0  0  0  0  0  0
  -28.5853  -18.3721   22.9701 C   0  0  0  0  0  0
  -29.9933  -16.0525   22.4146 C   0  0  0  0  0  0
  -28.2145  -17.1134   23.5068 C   0  0  0  0  0  0
  -27.5264  -16.5850   25.8823 C   0  0  0  0  0  0
  -26.0413  -15.8725   23.9330 C   0  0  0  0  0  0
  -27.8976  -19.6895   23.3012 C   0  0  0  0  0  0
  -27.3308  -23.7567   21.7126 C   0  0  0  0  0  0
  -28.4049  -24.4814   20.8805 C   0  0  0  0  0  0
  -26.7430  -20.0256   22.3345 C   0  0  0  0  0  0
  -27.3353  -22.2450   21.4290 C   0  0  0  0  0  0
  -28.5772  -25.9668   21.2368 C   0  0  0  0  0  0
  -27.0380  -16.9164   24.4643 C   0  0  0  0  0  0
  -30.8386  -14.7869   22.2540 C   0  0  0  0  0  0
  -28.9185  -15.9914   23.2372 N   0  0  0  0  0  0
  -26.4422  -21.4733   22.3255 N   0  3  0  0  0  0
  -32.0917  -15.1086   22.5935 F   0  0  0  0  0  0
  -30.4578  -13.8218   23.0988 F   0  0  0  0  0  0
  -31.4455  -12.3875   19.0586 H   0  0  0  0  0  0
  -30.2929  -11.2656   19.7183 H   0  0  0  0  0  0
  -29.7067  -11.8670   17.3603 H   0  0  0  0  0  0
  -29.6342  -13.5592   17.7950 H   0  0  0  0  0  0
  -27.8203  -11.3230   18.7807 H   0  0  0  0  0  0
  -27.3436  -12.6740   17.7854 H   0  0  0  0  0  0
  -27.7214  -14.2576   19.5962 H   0  0  0  0  0  0
  -28.6477  -11.9488   21.3726 H   0  0  0  0  0  0
  -28.4594  -13.6251   21.8295 H   0  0  0  0  0  0
  -25.2772   -9.5681   22.4758 H   0  0  0  0  0  0
  -24.0019   -7.4632   22.7470 H   0  0  0  0  0  0
  -21.0856   -8.8766   19.8942 H   0  0  0  0  0  0
  -22.3712  -10.9671   19.6163 H   0  0  0  0  0  0
  -21.2003   -7.6148   23.9721 H   0  0  0  0  0  0
  -21.1480   -6.0523   25.9080 H   0  0  0  0  0  0
  -22.0602   -2.7612   23.2849 H   0  0  0  0  0  0
  -22.4131  -11.9860   22.4754 H   0  0  0  0  0  0
  -21.1152  -13.1240   22.2604 H   0  0  0  0  0  0
  -24.6679  -15.8431   20.4962 H   0  0  0  0  0  0
  -26.3000  -15.6233   20.1132 H   0  0  0  0  0  0
  -26.7066  -32.5587   23.1188 H   0  0  0  0  0  0
  -25.0004  -33.9820   25.0490 H   0  0  0  0  0  0
  -22.6822  -31.3083   21.4145 H   0  0  0  0  0  0
  -23.3748  -35.9662   23.3317 H   0  0  0  0  0  0
  -24.3581  -36.8928   22.2054 H   0  0  0  0  0  0
  -23.7227  -37.6540   23.6636 H   0  0  0  0  0  0
  -26.0152  -31.6135   20.5834 H   0  0  0  0  0  0
  -26.8111  -30.9142   21.9655 H   0  0  0  0  0  0
  -28.0944  -29.1495   21.1581 H   0  0  0  0  0  0
  -26.1011  -25.9855   19.0185 H   0  0  0  0  0  0
  -23.9835  -27.2853   19.0468 H   0  0  0  0  0  0
  -23.7022  -30.5971   19.4054 H   0  0  0  0  0  0
  -22.7274  -29.2382   19.8768 H   0  0  0  0  0  0
  -25.1263  -36.2021   25.0846 H   0  0  0  0  0  0
  -20.9929  -28.3221   24.1466 H   0  0  0  0  0  0
  -20.5665  -26.2265   23.3605 H   0  0  0  0  0  0
  -21.6626  -26.7459   22.1221 H   0  0  0  0  0  0
  -19.6907  -25.6309   21.1234 H   0  0  0  0  0  0
  -19.6689  -27.3213   20.6759 H   0  0  0  0  0  0
  -17.4184  -26.6684   21.4019 H   0  0  0  0  0  0
  -18.0312  -26.0070   22.9018 H   0  0  0  0  0  0
  -19.7917  -30.7245   24.2316 H   0  0  0  0  0  0
  -17.5005  -31.6273   24.5165 H   0  0  0  0  0  0
  -15.5340  -30.3008   23.7641 H   0  0  0  0  0  0
  -15.8651  -28.0848   22.7044 H   0  0  0  0  0  0
  -24.5914  -30.7007   25.7794 H   0  0  0  0  0  0
  -24.8895  -32.2808   26.4947 H   0  0  0  0  0  0
  -25.8099  -30.8821   27.0209 H   0  0  0  0  0  0
  -26.2796  -29.6819   24.1126 H   0  0  0  0  0  0
  -27.4115  -29.7292   25.4458 H   0  0  0  0  0  0
  -27.8592  -30.4419   23.9123 H   0  0  0  0  0  0
  -27.2710  -33.3596   26.2075 H   0  0  0  0  0  0
  -28.3825  -32.6860   25.0246 H   0  0  0  0  0  0
  -28.0749  -31.8387   26.5325 H   0  0  0  0  0  0
  -28.2610  -38.0101   24.7518 H   0  0  0  0  0  0
  -28.1072  -36.2636   24.6292 H   0  0  0  0  0  0
  -27.2308  -37.1459   25.8875 H   0  0  0  0  0  0
  -20.9266  -29.8761   21.6990 H   0  0  0  0  0  0
  -26.0204  -38.2897   24.1400 H   0  0  0  0  0  0
  -30.0068  -19.3663   21.6638 H   0  0  0  0  0  0
  -31.2709  -17.2909   21.1773 H   0  0  0  0  0  0
  -28.1878  -17.3670   26.2573 H   0  0  0  0  0  0
  -28.0811  -15.6465   25.8999 H   0  0  0  0  0  0
  -26.6924  -16.4934   26.5778 H   0  0  0  0  0  0
  -25.6610  -16.1676   22.9558 H   0  0  0  0  0  0
  -25.1861  -15.7622   24.5993 H   0  0  0  0  0  0
  -26.5061  -14.8919   23.8247 H   0  0  0  0  0  0
  -28.6631  -20.4653   23.2655 H   0  0  0  0  0  0
  -27.5568  -19.7054   24.3368 H   0  0  0  0  0  0
  -26.3494  -24.1811   21.4957 H   0  0  0  0  0  0
  -27.5225  -23.9311   22.7724 H   0  0  0  0  0  0
  -28.1758  -24.3735   19.8195 H   0  0  0  0  0  0
  -29.3676  -23.9884   21.0213 H   0  0  0  0  0  0
  -25.8506  -19.4685   22.6243 H   0  0  0  0  0  0
  -26.9817  -19.7091   21.3175 H   0  0  0  0  0  0
  -28.3579  -21.8809   21.5334 H   0  0  0  0  0  0
  -27.0541  -22.0547   20.3917 H   0  0  0  0  0  0
  -29.5858  -26.1430   21.6141 H   0  0  0  0  0  0
  -27.9029  -26.2554   22.0473 H   0  0  0  0  0  0
  -26.4730  -17.8428   24.5347 H   0  0  0  0  0  0
  -26.5047  -21.8215   23.2681 H   0  0  0  0  0  0
  -25.4919  -21.6033   22.0155 H   0  0  0  0  0  0
  1 25  1  0  0  0
  1 30  2  0  0  0
  1 85  1  0  0  0
  2  3  1  0  0  0
  2 25  1  0  0  0
  2 90  1  0  0  0
  2 91  1  0  0  0
  3  4  1  0  0  0
  3 92  1  0  0  0
  3 93  1  0  0  0
  4  5  1  0  0  0
  4 94  1  0  0  0
  4 95  1  0  0  0
  5  6  1  0  0  0
  5 26  1  0  0  0
  5 96  1  0  0  0
  6 25  1  0  0  0
  6 97  1  0  0  0
  6 98  1  0  0  0
  7  8  2  0  0  0
  7 26  1  0  0  0
  7 29  1  0  0  0
  8  9  1  0  0  0
  8 22  1  0  0  0
  9 10  1  0  0  0
  9 27  2  0  0  0
 10 11  2  0  0  0
 10 15  1  0  0  0
 11 12  1  0  0  0
 11 99  1  0  0  0
 12 13  2  0  0  0
 12100  1  0  0  0
 13 14  1  0  0  0
 13 31  1  0  0  0
 14 15  2  0  0  0
 14101  1  0  0  0
 15102  1  0  0  0
 16 17  2  0  0  0
 16 21  1  0  0  0
 16 31  1  0  0  0
 17 18  1  0  0  0
 17103  1  0  0  0
 18 19  2  0  0  0
 18104  1  0  0  0
 19 20  1  0  0  0
 19 24  1  0  0  0
 20 21  2  0  0  0
 20105  1  0  0  0
 21 23  1  0  0  0
 22 28  1  0  0  0
 22 32  2  0  0  0
 26 27  1  0  0  0
 28106  1  0  0  0
 28107  1  0  0  0
 29108  1  0  0  0
 29109  1  0  0  0
 33 34  1  0  0  0
 33 66  1  0  0  0
 33 70  2  0  0  0
 34 36  1  0  0  0
 34 59  1  0  0  0
 34110  1  0  0  0
 35 44  2  0  0  0
 35 45  1  0  0  0
 35 68  1  0  0  0
 36 56  1  0  0  0
 36111  1  0  0  0
 37 39  1  0  0  0
 37 47  1  0  0  0
 37 66  1  0  0  0
 37112  1  0  0  0
 38 43  2  0  0  0
 38 46  1  0  0  0
 38 47  1  0  0  0
 39 64  1  0  0  0
 39 67  2  0  0  0
 40 52  1  0  0  0
 40 53  2  0  0  0
 40 58  1  0  0  0
 41113  1  0  0  0
 41114  1  0  0  0
 41115  1  0  0  0
 41 48  1  0  0  0
 42 43  1  0  0  0
 42 66  1  0  0  0
 42116  1  0  0  0
 42117  1  0  0  0
 43 44  1  0  0  0
 44118  1  0  0  0
 45 46  2  0  0  0
 45119  1  0  0  0
 46120  1  0  0  0
 47121  1  0  0  0
 47122  1  0  0  0
 48 56  1  0  0  0
 48 65  1  0  0  0
 48123  1  0  0  0
 49 50  1  0  0  0
 49 53  1  0  0  0
 49 64  1  0  0  0
 49124  1  0  0  0
 50 51  1  0  0  0
 50125  1  0  0  0
 50126  1  0  0  0
 51 52  1  0  0  0
 51127  1  0  0  0
 51128  1  0  0  0
 52129  1  0  0  0
 52130  1  0  0  0
 53 54  1  0  0  0
 54 55  2  0  0  0
 54131  1  0  0  0
 55 57  1  0  0  0
 55132  1  0  0  0
 56 69  2  0  0  0
 57 58  2  0  0  0
 57133  1  0  0  0
 58134  1  0  0  0
 59 60  1  0  0  0
 59 61  1  0  0  0
 59 62  1  0  0  0
 60135  1  0  0  0
 60136  1  0  0  0
 60137  1  0  0  0
 61138  1  0  0  0
 61139  1  0  0  0
 61140  1  0  0  0
 62141  1  0  0  0
 62142  1  0  0  0
 62143  1  0  0  0
 63 65  1  0  0  0
 63144  1  0  0  0
 63145  1  0  0  0
 63146  1  0  0  0
 64147  1  0  0  0
 65148  1  0  0  0
 68 83  1  0  0  0
 71 72  2  0  0  0
 71 73  1  0  0  0
 71149  1  0  0  0
 72 74  1  0  0  0
 72150  1  0  0  0
 73 75  2  0  0  0
 73 78  1  0  0  0
 74 85  1  0  0  0
 74 86  2  0  0  0
 75 84  1  0  0  0
 75 86  1  0  0  0
 76151  1  0  0  0
 76152  1  0  0  0
 76153  1  0  0  0
 76 84  1  0  0  0
 77 84  1  0  0  0
 77154  1  0  0  0
 77155  1  0  0  0
 77156  1  0  0  0
 78 81  1  0  0  0
 78157  1  0  0  0
 78158  1  0  0  0
 79 80  1  0  0  0
 79 82  1  0  0  0
 79159  1  0  0  0
 79160  1  0  0  0
 80 83  1  0  0  0
 80161  1  0  0  0
 80162  1  0  0  0
 81 87  1  0  0  0
 81163  1  0  0  0
 81164  1  0  0  0
 82 87  1  0  0  0
 82165  1  0  0  0
 82166  1  0  0  0
 83167  1  0  0  0
 83168  1  0  0  0
 84169  1  0  0  0
 85 88  1  0  0  0
 85 89  1  0  0  0
 87170  1  0  0  0
 87171  1  0  0  0
M  CHG  1  87   1
M  ISO  4   1 100  68 101  83 101  85 100
M  END
> <chiral flag>
0

> <version>
0

> <s_m_source_file>
/data/baiqing/PycharmProjects/Reinvent-master-3.2/result/LINK_invent/BTK/process_docking_weight1_custom_sum_contain_oxygen_bond_distance_aromatic_linkinvent_7_9_3/rearranged_h_0083.sdf

> <i_m_source_file_index>
94

> <r_mmod_Potential_Energy-OPLS-2005>
-193.352630615234

> <r_mmod_Stretch_Energy-OPLS-2005>
32.8017807006836

> <r_mmod_Bend_Energy-OPLS-2005>
90.3958206176758

> <r_mmod_Torsional_Energy-OPLS-2005>
229.263687133789

> <r_mmod_Improper_Torsional_Energy-OPLS-2005>
4.2357964515686

> <r_mmod_Van_der_Waal_Energy-OPLS-2005>
142.706115722656

> <r_mmod_Electrostatic_Energy-OPLS-2005>
-252.989471435547

> <r_mmod_Solvation_Energy-OPLS-2005>
-450.134643554688

> <b_mmod_Minimization_Converged-OPLS-2005>
0

> <r_mmod_RMS_Derivative-OPLS-2005>
1.33034598827362

$$$$
