0
                    3D
 Structure written by MMmdl.
157165  0  0  1  0            999 V2000
  -30.6393  -14.7540   20.5177 C   0  0  0  0  0  0
  -30.4388  -12.4573   19.4999 C   0  0  0  0  0  0
  -29.5199  -12.4919   18.2551 C   0  0  0  0  0  0
  -28.0459  -12.3169   18.6734 C   0  0  0  0  0  0
  -27.6519  -13.2330   19.8638 C   0  0  2  0  0  0
  -28.6966  -13.1830   21.0030 C   0  0  0  0  0  0
  -25.2556  -13.8191   20.5658 C   0  0  0  0  0  0
  -24.1870  -13.0460   20.9181 C   0  0  0  0  0  0
  -24.6484  -11.6915   20.8787 C   0  0  0  0  0  0
  -23.9142  -10.4299   21.0432 C   0  0  0  0  0  0
  -24.3654   -9.4190   21.9218 C   0  0  0  0  0  0
  -23.6300   -8.2241   22.0785 C   0  0  0  0  0  0
  -22.4278   -8.0302   21.3555 C   0  0  0  0  0  0
  -21.9939   -9.0288   20.4639 C   0  0  0  0  0  0
  -22.7317  -10.2149   20.3056 C   0  0  0  0  0  0
  -21.6839   -6.0731   22.5260 C   0  0  0  0  0  0
  -21.4024   -6.5641   23.8193 C   0  0  0  0  0  0
  -21.3663   -5.6801   24.9160 C   0  0  0  0  0  0
  -21.6045   -4.3059   24.7214 C   0  0  0  0  0  0
  -21.8833   -3.8144   23.4336 C   0  0  0  0  0  0
  -21.9203   -4.6961   22.3386 C   0  0  0  0  0  0
  -22.7858  -13.5189   21.1865 C   0  0  0  0  0  0
  -22.1661   -4.2155   21.0956 F   0  0  0  0  0  0
  -21.5638   -3.4547   25.7722 F   0  0  0  0  0  0
  -29.9995  -13.5329   20.4212 N   0  0  0  0  0  0
  -26.3028  -12.9438   20.3378 N   0  0  0  0  0  0
  -25.9435  -11.6578   20.5838 N   0  0  0  0  0  0
  -22.0559  -12.8114   22.0377 N   0  0  0  0  0  0
  -25.4292  -15.1935   20.4008 N   0  0  0  0  0  0
  -31.8191  -14.8558   20.1746 O   0  0  0  0  0  0
  -21.6645   -6.8888   21.4221 O   0  0  0  0  0  0
  -22.3516  -14.5546   20.6781 O   0  0  0  0  0  0
  -24.6244  -31.8589   23.1934 C   0  0  0  0  0  0
  -25.9077  -32.4757   23.8314 C   0  0  1  0  0  0
  -27.2408  -27.2738   20.1315 C   0  0  0  0  0  0
  -25.5896  -33.8562   24.2209 N   0  0  0  0  0  0
  -23.4238  -30.4716   21.5431 C   0  0  2  0  0  0
  -24.8731  -28.9088   20.1155 C   0  0  0  0  0  0
  -22.7477  -29.4621   22.4966 C   0  0  0  0  0  0
  -18.0252  -28.1410   22.8440 C   0  0  0  0  0  0
  -24.1471  -36.7283   23.2631 C   0  0  0  0  0  0
  -25.9695  -30.7651   21.3838 C   0  0  0  0  0  0
  -26.0417  -29.3876   20.7228 C   0  0  0  0  0  0
  -27.2187  -28.5760   20.7308 C   0  0  0  0  0  0
  -26.0570  -26.8660   19.4745 C   0  0  0  0  0  0
  -24.8846  -27.6529   19.4813 C   0  0  0  0  0  0
  -23.6358  -29.7883   20.1633 C   0  0  0  0  0  0
  -25.4116  -36.3083   24.0314 C   0  0  1  0  0  0
  -20.5855  -28.3688   23.1257 C   0  0  2  0  0  0
  -20.6779  -26.9413   22.5393 C   0  0  0  0  0  0
  -19.5750  -26.6393   21.5186 C   0  0  0  0  0  0
  -18.1904  -26.7941   22.1590 C   0  0  0  0  0  0
  -19.1530  -28.8863   23.2819 C   0  0  0  0  0  0
  -18.9507  -30.1481   23.8790 C   0  0  0  0  0  0
  -17.6520  -30.6582   24.0555 C   0  0  0  0  0  0
  -25.9064  -34.9454   23.5084 C   0  0  0  0  0  0
  -16.5379  -29.9081   23.6376 C   0  0  0  0  0  0
  -16.7265  -28.6541   23.0303 C   0  0  0  0  0  0
  -26.4407  -31.6607   25.0742 C   0  0  0  0  0  0
  -25.3550  -31.3856   26.1423 C   0  0  0  0  0  0
  -27.0290  -30.3003   24.6316 C   0  0  0  0  0  0
  -27.5883  -32.4418   25.7552 C   0  0  0  0  0  0
  -27.5564  -37.1806   24.8453 C   0  0  0  0  0  0
  -21.4185  -29.3042   22.3719 N   0  0  0  0  0  0
  -26.4276  -37.3801   23.9404 N   0  0  0  0  0  0
  -24.6912  -31.0508   22.0937 N   0  0  0  0  0  0
  -23.4195  -28.8128   23.3016 O   0  0  0  0  0  0
  -28.3815  -26.4401   20.2165 O   0  0  0  0  0  0
  -26.5663  -34.8952   22.4673 O   0  0  0  0  0  0
  -23.5404  -32.1451   23.7213 O   0  0  0  0  0  0
  -29.3747  -21.3622   20.6648 C   0  0  0  0  0  0
  -28.9685  -22.5256   21.4486 C   0  0  0  0  0  0
  -29.1837  -19.9936   21.1509 C   0  0  0  0  0  0
  -28.4479  -22.1613   22.7331 C   0  0  0  0  0  0
  -27.0954  -23.8639   24.2405 C   0  0  0  0  0  0
  -29.2409  -24.0734   21.0847 C   0  0  0  0  0  0
  -29.5483  -18.6158   20.4007 C   0  0  0  0  0  0
  -28.4125  -23.1152   23.9455 C   0  0  0  0  0  0
  -30.2476  -17.3442   21.1668 C   0  0  0  0  0  0
  -28.3333  -24.9450   20.0609 C   0  0  0  0  0  0
  -28.4810  -19.8261   22.2974 N   0  0  0  0  0  0
  -28.1459  -20.8734   23.0648 N   0  0  0  0  0  0
  -29.8865  -15.8765   20.8462 N   0  0  0  0  0  0
  -31.4868  -12.5597   19.2096 H   0  0  0  0  0  0
  -30.3624  -11.4881   19.9999 H   0  0  0  0  0  0
  -29.7999  -11.6990   17.5609 H   0  0  0  0  0  0
  -29.6519  -13.4349   17.7212 H   0  0  0  0  0  0
  -27.9119  -11.2712   18.9601 H   0  0  0  0  0  0
  -27.3843  -12.4945   17.8240 H   0  0  0  0  0  0
  -27.6469  -14.2515   19.4757 H   0  0  0  0  0  0
  -28.7397  -12.1950   21.4669 H   0  0  0  0  0  0
  -28.4299  -13.8753   21.8031 H   0  0  0  0  0  0
  -25.2812   -9.5639   22.4801 H   0  0  0  0  0  0
  -23.9993   -7.4618   22.7519 H   0  0  0  0  0  0
  -21.0870   -8.8830   19.8923 H   0  0  0  0  0  0
  -22.3826  -10.9693   19.6138 H   0  0  0  0  0  0
  -21.2031   -7.6149   23.9684 H   0  0  0  0  0  0
  -21.1463   -6.0532   25.9055 H   0  0  0  0  0  0
  -22.0620   -2.7607   23.2827 H   0  0  0  0  0  0
  -22.4179  -11.9639   22.4506 H   0  0  0  0  0  0
  -21.1220  -13.1133   22.2800 H   0  0  0  0  0  0
  -24.6642  -15.8522   20.4916 H   0  0  0  0  0  0
  -26.2843  -15.6206   20.0710 H   0  0  0  0  0  0
  -26.7123  -32.5367   23.1038 H   0  0  0  0  0  0
  -25.0013  -33.9702   25.0331 H   0  0  0  0  0  0
  -22.7268  -31.2990   21.3916 H   0  0  0  0  0  0
  -23.3771  -35.9577   23.3308 H   0  0  0  0  0  0
  -24.3488  -36.8947   22.2029 H   0  0  0  0  0  0
  -23.7234  -37.6483   23.6685 H   0  0  0  0  0  0
  -26.1203  -31.5328   20.6228 H   0  0  0  0  0  0
  -26.8391  -30.8052   22.0288 H   0  0  0  0  0  0
  -28.1086  -28.9128   21.2418 H   0  0  0  0  0  0
  -26.0198  -25.9249   18.9466 H   0  0  0  0  0  0
  -23.9871  -27.2901   18.9945 H   0  0  0  0  0  0
  -23.7469  -30.5628   19.4069 H   0  0  0  0  0  0
  -22.7578  -29.2189   19.8569 H   0  0  0  0  0  0
  -25.1319  -36.1927   25.0819 H   0  0  0  0  0  0
  -20.9931  -28.3292   24.1395 H   0  0  0  0  0  0
  -20.5818  -26.2262   23.3581 H   0  0  0  0  0  0
  -21.6628  -26.7547   22.1135 H   0  0  0  0  0  0
  -19.6991  -25.6311   21.1178 H   0  0  0  0  0  0
  -19.6700  -27.3253   20.6730 H   0  0  0  0  0  0
  -17.4223  -26.6648   21.3959 H   0  0  0  0  0  0
  -18.0304  -26.0098   22.8992 H   0  0  0  0  0  0
  -19.8042  -30.7259   24.2119 H   0  0  0  0  0  0
  -17.5124  -31.6240   24.5199 H   0  0  0  0  0  0
  -15.5401  -30.2939   23.7829 H   0  0  0  0  0  0
  -15.8652  -28.0872   22.6998 H   0  0  0  0  0  0
  -24.5675  -30.7294   25.7732 H   0  0  0  0  0  0
  -24.8766  -32.3053   26.4778 H   0  0  0  0  0  0
  -25.7742  -30.9060   27.0257 H   0  0  0  0  0  0
  -26.2989  -29.6772   24.1143 H   0  0  0  0  0  0
  -27.3714  -29.7264   25.4923 H   0  0  0  0  0  0
  -27.8942  -30.4277   23.9804 H   0  0  0  0  0  0
  -27.2445  -33.3767   26.2028 H   0  0  0  0  0  0
  -28.3746  -32.6944   25.0419 H   0  0  0  0  0  0
  -28.0483  -31.8645   26.5581 H   0  0  0  0  0  0
  -28.2571  -38.0111   24.7571 H   0  0  0  0  0  0
  -28.1110  -36.2659   24.6276 H   0  0  0  0  0  0
  -27.2254  -37.1419   25.8842 H   0  0  0  0  0  0
  -20.9439  -29.8770   21.6884 H   0  0  0  0  0  0
  -26.0178  -38.2889   24.1428 H   0  0  0  0  0  0
  -29.8530  -21.5187   19.7135 H   0  0  0  0  0  0
  -27.2307  -24.5265   25.0998 H   0  0  0  0  0  0
  -26.2784  -23.1874   24.4908 H   0  0  0  0  0  0
  -26.7841  -24.4960   23.4093 H   0  0  0  0  0  0
  -30.3124  -24.1936   20.8639 H   0  0  0  0  0  0
  -29.1445  -24.6555   22.0076 H   0  0  0  0  0  0
  -30.2120  -18.8873   19.5813 H   0  0  0  0  0  0
  -28.6416  -18.2629   19.9064 H   0  0  0  0  0  0
  -29.2349  -23.8307   23.9202 H   0  0  0  0  0  0
  -28.6614  -22.5178   24.8254 H   0  0  0  0  0  0
  -29.9805  -17.4484   22.2172 H   0  0  0  0  0  0
  -31.3344  -17.4614   21.1561 H   0  0  0  0  0  0
  -28.6519  -24.7292   19.0306 H   0  0  0  0  0  0
  -27.3076  -24.5836   20.1413 H   0  0  0  0  0  0
  -28.9342  -15.6375   21.0665 H   0  0  0  0  0  0
  1 25  1  0  0  0
  1 30  2  0  0  0
  1 83  1  0  0  0
  2  3  1  0  0  0
  2 25  1  0  0  0
  2 84  1  0  0  0
  2 85  1  0  0  0
  3  4  1  0  0  0
  3 86  1  0  0  0
  3 87  1  0  0  0
  4  5  1  0  0  0
  4 88  1  0  0  0
  4 89  1  0  0  0
  5  6  1  0  0  0
  5 26  1  0  0  0
  5 90  1  0  0  0
  6 25  1  0  0  0
  6 91  1  0  0  0
  6 92  1  0  0  0
  7  8  2  0  0  0
  7 26  1  0  0  0
  7 29  1  0  0  0
  8  9  1  0  0  0
  8 22  1  0  0  0
  9 10  1  0  0  0
  9 27  2  0  0  0
 10 11  2  0  0  0
 10 15  1  0  0  0
 11 12  1  0  0  0
 11 93  1  0  0  0
 12 13  2  0  0  0
 12 94  1  0  0  0
 13 14  1  0  0  0
 13 31  1  0  0  0
 14 15  2  0  0  0
 14 95  1  0  0  0
 15 96  1  0  0  0
 16 17  2  0  0  0
 16 21  1  0  0  0
 16 31  1  0  0  0
 17 18  1  0  0  0
 17 97  1  0  0  0
 18 19  2  0  0  0
 18 98  1  0  0  0
 19 20  1  0  0  0
 19 24  1  0  0  0
 20 21  2  0  0  0
 20 99  1  0  0  0
 21 23  1  0  0  0
 22 28  1  0  0  0
 22 32  2  0  0  0
 26 27  1  0  0  0
 28100  1  0  0  0
 28101  1  0  0  0
 29102  1  0  0  0
 29103  1  0  0  0
 33 34  1  0  0  0
 33 66  1  0  0  0
 33 70  2  0  0  0
 34 36  1  0  0  0
 34 59  1  0  0  0
 34104  1  0  0  0
 35 44  2  0  0  0
 35 45  1  0  0  0
 35 68  1  0  0  0
 36 56  1  0  0  0
 36105  1  0  0  0
 37 39  1  0  0  0
 37 47  1  0  0  0
 37 66  1  0  0  0
 37106  1  0  0  0
 38 43  2  0  0  0
 38 46  1  0  0  0
 38 47  1  0  0  0
 39 64  1  0  0  0
 39 67  2  0  0  0
 40 52  1  0  0  0
 40 53  2  0  0  0
 40 58  1  0  0  0
 41107  1  0  0  0
 41108  1  0  0  0
 41109  1  0  0  0
 41 48  1  0  0  0
 42 43  1  0  0  0
 42 66  1  0  0  0
 42110  1  0  0  0
 42111  1  0  0  0
 43 44  1  0  0  0
 44112  1  0  0  0
 45 46  2  0  0  0
 45113  1  0  0  0
 46114  1  0  0  0
 47115  1  0  0  0
 47116  1  0  0  0
 48 56  1  0  0  0
 48 65  1  0  0  0
 48117  1  0  0  0
 49 50  1  0  0  0
 49 53  1  0  0  0
 49 64  1  0  0  0
 49118  1  0  0  0
 50 51  1  0  0  0
 50119  1  0  0  0
 50120  1  0  0  0
 51 52  1  0  0  0
 51121  1  0  0  0
 51122  1  0  0  0
 52123  1  0  0  0
 52124  1  0  0  0
 53 54  1  0  0  0
 54 55  2  0  0  0
 54125  1  0  0  0
 55 57  1  0  0  0
 55126  1  0  0  0
 56 69  2  0  0  0
 57 58  2  0  0  0
 57127  1  0  0  0
 58128  1  0  0  0
 59 60  1  0  0  0
 59 61  1  0  0  0
 59 62  1  0  0  0
 60129  1  0  0  0
 60130  1  0  0  0
 60131  1  0  0  0
 61132  1  0  0  0
 61133  1  0  0  0
 61134  1  0  0  0
 62135  1  0  0  0
 62136  1  0  0  0
 62137  1  0  0  0
 63 65  1  0  0  0
 63138  1  0  0  0
 63139  1  0  0  0
 63140  1  0  0  0
 64141  1  0  0  0
 65142  1  0  0  0
 68 80  1  0  0  0
 71 72  2  0  0  0
 71 73  1  0  0  0
 71143  1  0  0  0
 72 74  1  0  0  0
 72 76  1  0  0  0
 73 77  1  0  0  0
 73 81  2  0  0  0
 74 78  1  0  0  0
 74 82  2  0  0  0
 75 78  1  0  0  0
 75144  1  0  0  0
 75145  1  0  0  0
 75146  1  0  0  0
 76 80  1  0  0  0
 76147  1  0  0  0
 76148  1  0  0  0
 77 79  1  0  0  0
 77149  1  0  0  0
 77150  1  0  0  0
 78151  1  0  0  0
 78152  1  0  0  0
 79 83  1  0  0  0
 79153  1  0  0  0
 79154  1  0  0  0
 80155  1  0  0  0
 80156  1  0  0  0
 81 82  1  0  0  0
 83157  1  0  0  0
M  ISO  4   1 100  68 101  80 101  83 100
M  END
> <chiral flag>
0

> <version>
0

> <s_m_source_file>
/data/baiqing/PycharmProjects/Reinvent-master-3.2/result/LINK_invent/BTK/process_docking_weight1_custom_sum_contain_oxygen_bond_distance_aromatic_linkinvent_7_9_3/rearranged_h_0089.sdf

> <i_m_source_file_index>
1

> <r_mmod_Potential_Energy-OPLS-2005>
197.772232055664

> <r_mmod_Stretch_Energy-OPLS-2005>
148.959579467773

> <r_mmod_Bend_Energy-OPLS-2005>
197.147277832031

> <r_mmod_Torsional_Energy-OPLS-2005>
218.949035644531

> <r_mmod_Improper_Torsional_Energy-OPLS-2005>
6.21786546707153

> <r_mmod_Van_der_Waal_Energy-OPLS-2005>
135.697189331055

> <r_mmod_Electrostatic_Energy-OPLS-2005>
-358.824523925781

> <r_mmod_Solvation_Energy-OPLS-2005>
-232.959609985352

> <b_mmod_Minimization_Converged-OPLS-2005>
0

> <r_mmod_RMS_Derivative-OPLS-2005>
9.58091926574707

$$$$
1
                    3D
 Structure written by MMmdl.
169177  0  0  1  0            999 V2000
  -30.6837  -14.4740   20.5439 C   0  0  0  0  0  0
  -30.4253  -12.3040   19.3951 C   0  0  0  0  0  0
  -29.4899  -12.5164   18.1861 C   0  0  0  0  0  0
  -28.0122  -12.3776   18.6080 C   0  0  0  0  0  0
  -27.6639  -13.2028   19.8762 C   0  0  2  0  0  0
  -28.7157  -12.9664   20.9842 C   0  0  0  0  0  0
  -25.2603  -13.8154   20.5676 C   0  0  0  0  0  0
  -24.1844  -13.0408   20.9171 C   0  0  0  0  0  0
  -24.6417  -11.6885   20.8731 C   0  0  0  0  0  0
  -23.9084  -10.4273   21.0411 C   0  0  0  0  0  0
  -24.3631   -9.4182   21.9183 C   0  0  0  0  0  0
  -23.6291   -8.2221   22.0768 C   0  0  0  0  0  0
  -22.4271   -8.0284   21.3561 C   0  0  0  0  0  0
  -21.9919   -9.0249   20.4647 C   0  0  0  0  0  0
  -22.7260  -10.2127   20.3058 C   0  0  0  0  0  0
  -21.6843   -6.0729   22.5290 C   0  0  0  0  0  0
  -21.4009   -6.5636   23.8224 C   0  0  0  0  0  0
  -21.3658   -5.6793   24.9182 C   0  0  0  0  0  0
  -21.6045   -4.3058   24.7227 C   0  0  0  0  0  0
  -21.8824   -3.8145   23.4351 C   0  0  0  0  0  0
  -21.9180   -4.6954   22.3406 C   0  0  0  0  0  0
  -22.7879  -13.5229   21.1813 C   0  0  0  0  0  0
  -22.1644   -4.2140   21.0983 F   0  0  0  0  0  0
  -21.5627   -3.4540   25.7735 F   0  0  0  0  0  0
  -30.0394  -13.2826   20.4200 N   0  0  0  0  0  0
  -26.3049  -12.9303   20.3385 N   0  0  0  0  0  0
  -25.9349  -11.6469   20.5790 N   0  0  0  0  0  0
  -22.0503  -12.8195   22.0371 N   0  0  0  0  0  0
  -25.4290  -15.1862   20.4129 N   0  0  0  0  0  0
  -31.8236  -14.6780   20.1167 O   0  0  0  0  0  0
  -21.6629   -6.8877   21.4267 O   0  0  0  0  0  0
  -22.3564  -14.5524   20.6687 O   0  0  0  0  0  0
  -24.6126  -31.8659   23.2099 C   0  0  0  0  0  0
  -25.9016  -32.4797   23.8403 C   0  0  1  0  0  0
  -27.2352  -27.4000   20.1002 C   0  0  0  0  0  0
  -25.5887  -33.8593   24.2354 N   0  0  0  0  0  0
  -23.4022  -30.4946   21.5466 C   0  0  2  0  0  0
  -24.8510  -28.9565   20.1158 C   0  0  0  0  0  0
  -22.7390  -29.4655   22.4916 C   0  0  0  0  0  0
  -18.0243  -28.1412   22.8454 C   0  0  0  0  0  0
  -24.1501  -36.7366   23.2625 C   0  0  0  0  0  0
  -25.9387  -30.8247   21.3656 C   0  0  0  0  0  0
  -26.0149  -29.4572   20.7109 C   0  0  0  0  0  0
  -27.2059  -28.6884   20.6929 C   0  0  0  0  0  0
  -26.0371  -26.9070   19.5267 C   0  0  0  0  0  0
  -24.8589  -27.6817   19.5251 C   0  0  0  0  0  0
  -23.6164  -29.8343   20.1593 C   0  0  0  0  0  0
  -25.4097  -36.3104   24.0345 C   0  0  1  0  0  0
  -20.5840  -28.3679   23.1322 C   0  0  2  0  0  0
  -20.6754  -26.9415   22.5426 C   0  0  0  0  0  0
  -19.5781  -26.6416   21.5173 C   0  0  0  0  0  0
  -18.1930  -26.7962   22.1570 C   0  0  0  0  0  0
  -19.1494  -28.8852   23.2902 C   0  0  0  0  0  0
  -18.9430  -30.1444   23.8941 C   0  0  0  0  0  0
  -17.6438  -30.6612   24.0557 C   0  0  0  0  0  0
  -25.9034  -34.9461   23.5163 C   0  0  0  0  0  0
  -16.5322  -29.9125   23.6320 C   0  0  0  0  0  0
  -16.7233  -28.6556   23.0312 C   0  0  0  0  0  0
  -26.4425  -31.6567   25.0751 C   0  0  0  0  0  0
  -25.3677  -31.3667   26.1498 C   0  0  0  0  0  0
  -27.0232  -30.2996   24.6167 C   0  0  0  0  0  0
  -27.6072  -32.4205   25.7484 C   0  0  0  0  0  0
  -27.5588  -37.1820   24.8448 C   0  0  0  0  0  0
  -21.4119  -29.3051   22.3710 N   0  0  0  0  0  0
  -26.4301  -37.3767   23.9389 N   0  0  0  0  0  0
  -24.6689  -31.0789   22.0974 N   0  0  0  0  0  0
  -23.4177  -28.8105   23.2868 O   0  0  0  0  0  0
  -28.4314  -26.6929   20.1317 O   0  0  0  0  0  0
  -26.5604  -34.8908   22.4720 O   0  0  0  0  0  0
  -23.5326  -32.1379   23.7527 O   0  0  0  0  0  0
  -29.2624  -20.4470   20.0202 C   0  0  0  0  0  0
  -28.4127  -21.5207   20.4057 C   0  0  0  0  0  0
  -29.0592  -19.1729   20.6141 C   0  0  0  0  0  0
  -27.4756  -21.2349   21.4363 C   0  0  0  0  0  0
  -26.4212  -22.2168   21.9084 C   0  0  0  0  0  0
  -27.4690  -17.1314   16.8046 C   0  0  0  0  0  0
  -29.8811  -17.7436   16.7809 C   0  0  0  0  0  0
  -28.4040  -22.8347   19.5942 C   0  0  0  0  0  0
  -28.5835  -24.1729   20.3704 C   0  0  0  0  0  0
  -28.6883  -17.2131   19.0122 C   0  0  0  0  0  0
  -30.2331  -16.9078   21.1477 C   0  0  0  0  0  0
  -28.5926  -25.4297   19.4484 C   0  0  0  0  0  0
  -29.6632  -17.8747   20.0373 C   0  0  2  0  0  0
  -28.5784  -17.8456   17.5973 C   0  0  0  0  0  0
  -28.1477  -19.0013   21.6044 N   0  0  0  0  0  0
  -27.3991  -20.0187   22.0310 N   0  0  0  0  0  0
  -29.9161  -15.4710   21.0127 N   0  0  0  0  0  0
  -31.4713  -12.3985   19.0965 H   0  0  0  0  0  0
  -30.3110  -11.2901   19.7833 H   0  0  0  0  0  0
  -29.7185  -11.8061   17.3906 H   0  0  0  0  0  0
  -29.6565  -13.5074   17.7613 H   0  0  0  0  0  0
  -27.8138  -11.3196   18.7892 H   0  0  0  0  0  0
  -27.3632  -12.6743   17.7843 H   0  0  0  0  0  0
  -27.7059  -14.2527   19.5901 H   0  0  0  0  0  0
  -28.6965  -11.9244   21.3044 H   0  0  0  0  0  0
  -28.4967  -13.5496   21.8793 H   0  0  0  0  0  0
  -25.2777   -9.5612   22.4765 H   0  0  0  0  0  0
  -23.9960   -7.4607   22.7512 H   0  0  0  0  0  0
  -21.0832   -8.8788   19.8955 H   0  0  0  0  0  0
  -22.3726  -10.9676   19.6173 H   0  0  0  0  0  0
  -21.2015   -7.6149   23.9718 H   0  0  0  0  0  0
  -21.1481   -6.0529   25.9083 H   0  0  0  0  0  0
  -22.0603   -2.7604   23.2872 H   0  0  0  0  0  0
  -22.4111  -11.9848   22.4737 H   0  0  0  0  0  0
  -21.1168  -13.1288   22.2634 H   0  0  0  0  0  0
  -24.6694  -15.8457   20.5416 H   0  0  0  0  0  0
  -26.2836  -15.6314   20.1077 H   0  0  0  0  0  0
  -26.7048  -32.5561   23.1130 H   0  0  0  0  0  0
  -24.9954  -33.9727   25.0441 H   0  0  0  0  0  0
  -22.6919  -31.3131   21.4054 H   0  0  0  0  0  0
  -23.3736  -35.9739   23.3279 H   0  0  0  0  0  0
  -24.3605  -36.9016   22.2048 H   0  0  0  0  0  0
  -23.7324  -37.6597   23.6662 H   0  0  0  0  0  0
  -26.0580  -31.5851   20.5933 H   0  0  0  0  0  0
  -26.8262  -30.8807   21.9868 H   0  0  0  0  0  0
  -28.1112  -29.0714   21.1439 H   0  0  0  0  0  0
  -25.9665  -25.9185   19.0970 H   0  0  0  0  0  0
  -23.9560  -27.2815   19.0870 H   0  0  0  0  0  0
  -23.7406  -30.6223   19.4150 H   0  0  0  0  0  0
  -22.7352  -29.2719   19.8437 H   0  0  0  0  0  0
  -25.1235  -36.1984   25.0840 H   0  0  0  0  0  0
  -20.9908  -28.3252   24.1456 H   0  0  0  0  0  0
  -20.5658  -26.2230   23.3568 H   0  0  0  0  0  0
  -21.6620  -26.7492   22.1215 H   0  0  0  0  0  0
  -19.6982  -25.6320   21.1223 H   0  0  0  0  0  0
  -19.6801  -27.3212   20.6693 H   0  0  0  0  0  0
  -17.4177  -26.6639   21.3993 H   0  0  0  0  0  0
  -18.0394  -26.0127   22.9006 H   0  0  0  0  0  0
  -19.7902  -30.7204   24.2420 H   0  0  0  0  0  0
  -17.5005  -31.6311   24.5117 H   0  0  0  0  0  0
  -15.5345  -30.3027   23.7705 H   0  0  0  0  0  0
  -15.8611  -28.0923   22.7007 H   0  0  0  0  0  0
  -24.6061  -30.6720   25.7911 H   0  0  0  0  0  0
  -24.8543  -32.2727   26.4729 H   0  0  0  0  0  0
  -25.8062  -30.9133   27.0402 H   0  0  0  0  0  0
  -26.2799  -29.6785   24.1164 H   0  0  0  0  0  0
  -27.3861  -29.7214   25.4675 H   0  0  0  0  0  0
  -27.8683  -30.4243   23.9407 H   0  0  0  0  0  0
  -27.2862  -33.3557   26.2080 H   0  0  0  0  0  0
  -28.3908  -32.6647   25.0297 H   0  0  0  0  0  0
  -28.0688  -31.8255   26.5378 H   0  0  0  0  0  0
  -28.2566  -38.0134   24.7427 H   0  0  0  0  0  0
  -28.1126  -36.2661   24.6327 H   0  0  0  0  0  0
  -27.2320  -37.1522   25.8854 H   0  0  0  0  0  0
  -20.9239  -29.8846   21.7025 H   0  0  0  0  0  0
  -26.0228  -38.2883   24.1336 H   0  0  0  0  0  0
  -29.9830  -20.5587   19.2212 H   0  0  0  0  0  0
  -25.9826  -22.7544   21.0664 H   0  0  0  0  0  0
  -26.8467  -22.9334   22.6163 H   0  0  0  0  0  0
  -25.6098  -21.6787   22.4059 H   0  0  0  0  0  0
  -27.2756  -17.6135   15.8444 H   0  0  0  0  0  0
  -26.5285  -17.1022   17.3556 H   0  0  0  0  0  0
  -27.7540  -16.0990   16.5948 H   0  0  0  0  0  0
  -29.7787  -18.2492   15.8176 H   0  0  0  0  0  0
  -30.1308  -16.7011   16.5761 H   0  0  0  0  0  0
  -30.7367  -18.1917   17.2831 H   0  0  0  0  0  0
  -27.4612  -22.8573   19.0459 H   0  0  0  0  0  0
  -29.1709  -22.7743   18.8197 H   0  0  0  0  0  0
  -29.5190  -24.1277   20.9308 H   0  0  0  0  0  0
  -27.7889  -24.2912   21.1017 H   0  0  0  0  0  0
  -27.6998  -17.1690   19.4715 H   0  0  0  0  0  0
  -28.9773  -16.1832   18.8286 H   0  0  0  0  0  0
  -29.8459  -17.1824   22.1289 H   0  0  0  0  0  0
  -31.3126  -17.0450   21.2321 H   0  0  0  0  0  0
  -27.8949  -25.3077   18.6261 H   0  0  0  0  0  0
  -29.5635  -25.4731   18.9527 H   0  0  0  0  0  0
  -30.5452  -18.1971   19.4864 H   0  0  0  0  0  0
  -28.3069  -18.8989   17.6883 H   0  0  0  0  0  0
  -28.9806  -15.1948   21.2732 H   0  0  0  0  0  0
  1 25  1  0  0  0
  1 30  2  0  0  0
  1 87  1  0  0  0
  2  3  1  0  0  0
  2 25  1  0  0  0
  2 88  1  0  0  0
  2 89  1  0  0  0
  3  4  1  0  0  0
  3 90  1  0  0  0
  3 91  1  0  0  0
  4  5  1  0  0  0
  4 92  1  0  0  0
  4 93  1  0  0  0
  5  6  1  0  0  0
  5 26  1  0  0  0
  5 94  1  0  0  0
  6 25  1  0  0  0
  6 95  1  0  0  0
  6 96  1  0  0  0
  7  8  2  0  0  0
  7 26  1  0  0  0
  7 29  1  0  0  0
  8  9  1  0  0  0
  8 22  1  0  0  0
  9 10  1  0  0  0
  9 27  2  0  0  0
 10 11  2  0  0  0
 10 15  1  0  0  0
 11 12  1  0  0  0
 11 97  1  0  0  0
 12 13  2  0  0  0
 12 98  1  0  0  0
 13 14  1  0  0  0
 13 31  1  0  0  0
 14 15  2  0  0  0
 14 99  1  0  0  0
 15100  1  0  0  0
 16 17  2  0  0  0
 16 21  1  0  0  0
 16 31  1  0  0  0
 17 18  1  0  0  0
 17101  1  0  0  0
 18 19  2  0  0  0
 18102  1  0  0  0
 19 20  1  0  0  0
 19 24  1  0  0  0
 20 21  2  0  0  0
 20103  1  0  0  0
 21 23  1  0  0  0
 22 28  1  0  0  0
 22 32  2  0  0  0
 26 27  1  0  0  0
 28104  1  0  0  0
 28105  1  0  0  0
 29106  1  0  0  0
 29107  1  0  0  0
 33 34  1  0  0  0
 33 66  1  0  0  0
 33 70  2  0  0  0
 34 36  1  0  0  0
 34 59  1  0  0  0
 34108  1  0  0  0
 35 44  2  0  0  0
 35 45  1  0  0  0
 35 68  1  0  0  0
 36 56  1  0  0  0
 36109  1  0  0  0
 37 39  1  0  0  0
 37 47  1  0  0  0
 37 66  1  0  0  0
 37110  1  0  0  0
 38 43  2  0  0  0
 38 46  1  0  0  0
 38 47  1  0  0  0
 39 64  1  0  0  0
 39 67  2  0  0  0
 40 52  1  0  0  0
 40 53  2  0  0  0
 40 58  1  0  0  0
 41111  1  0  0  0
 41112  1  0  0  0
 41113  1  0  0  0
 41 48  1  0  0  0
 42 43  1  0  0  0
 42 66  1  0  0  0
 42114  1  0  0  0
 42115  1  0  0  0
 43 44  1  0  0  0
 44116  1  0  0  0
 45 46  2  0  0  0
 45117  1  0  0  0
 46118  1  0  0  0
 47119  1  0  0  0
 47120  1  0  0  0
 48 56  1  0  0  0
 48 65  1  0  0  0
 48121  1  0  0  0
 49 50  1  0  0  0
 49 53  1  0  0  0
 49 64  1  0  0  0
 49122  1  0  0  0
 50 51  1  0  0  0
 50123  1  0  0  0
 50124  1  0  0  0
 51 52  1  0  0  0
 51125  1  0  0  0
 51126  1  0  0  0
 52127  1  0  0  0
 52128  1  0  0  0
 53 54  1  0  0  0
 54 55  2  0  0  0
 54129  1  0  0  0
 55 57  1  0  0  0
 55130  1  0  0  0
 56 69  2  0  0  0
 57 58  2  0  0  0
 57131  1  0  0  0
 58132  1  0  0  0
 59 60  1  0  0  0
 59 61  1  0  0  0
 59 62  1  0  0  0
 60133  1  0  0  0
 60134  1  0  0  0
 60135  1  0  0  0
 61136  1  0  0  0
 61137  1  0  0  0
 61138  1  0  0  0
 62139  1  0  0  0
 62140  1  0  0  0
 62141  1  0  0  0
 63 65  1  0  0  0
 63142  1  0  0  0
 63143  1  0  0  0
 63144  1  0  0  0
 64145  1  0  0  0
 65146  1  0  0  0
 68 82  1  0  0  0
 71 72  2  0  0  0
 71 73  1  0  0  0
 71147  1  0  0  0
 72 74  1  0  0  0
 72 78  1  0  0  0
 73 83  1  0  0  0
 73 85  2  0  0  0
 74 75  1  0  0  0
 74 86  2  0  0  0
 75148  1  0  0  0
 75149  1  0  0  0
 75150  1  0  0  0
 76151  1  0  0  0
 76152  1  0  0  0
 76153  1  0  0  0
 76 84  1  0  0  0
 77 84  1  0  0  0
 77154  1  0  0  0
 77155  1  0  0  0
 77156  1  0  0  0
 78 79  1  0  0  0
 78157  1  0  0  0
 78158  1  0  0  0
 79 82  1  0  0  0
 79159  1  0  0  0
 79160  1  0  0  0
 80 84  1  0  0  0
 80161  1  0  0  0
 80162  1  0  0  0
 80 83  1  0  0  0
 81 83  1  0  0  0
 81 87  1  0  0  0
 81163  1  0  0  0
 81164  1  0  0  0
 82165  1  0  0  0
 82166  1  0  0  0
 83167  1  0  0  0
 84168  1  0  0  0
 85 86  1  0  0  0
 87169  1  0  0  0
M  ISO  4   1 100  68 101  82 101  87 100
M  END
> <chiral flag>
0

> <version>
0

> <s_m_source_file>
/data/baiqing/PycharmProjects/Reinvent-master-3.2/result/LINK_invent/BTK/process_docking_weight1_custom_sum_contain_oxygen_bond_distance_aromatic_linkinvent_7_9_3/rearranged_h_0089.sdf

> <i_m_source_file_index>
2

> <r_mmod_Potential_Energy-OPLS-2005>
-23.4836559295654

> <r_mmod_Stretch_Energy-OPLS-2005>
49.4828987121582

> <r_mmod_Bend_Energy-OPLS-2005>
130.612594604492

> <r_mmod_Torsional_Energy-OPLS-2005>
215.455352783203

> <r_mmod_Improper_Torsional_Energy-OPLS-2005>
5.75856828689575

> <r_mmod_Van_der_Waal_Energy-OPLS-2005>
147.869445800781

> <r_mmod_Electrostatic_Energy-OPLS-2005>
-369.591003417969

> <r_mmod_Solvation_Energy-OPLS-2005>
-218.866836547852

> <b_mmod_Minimization_Converged-OPLS-2005>
0

> <r_mmod_RMS_Derivative-OPLS-2005>
6.06836605072021

$$$$
2
                    3D
 Structure written by MMmdl.
176184  0  0  1  0            999 V2000
  -30.7157  -14.4607   20.6463 C   0  0  0  0  0  0
  -30.4335  -12.3400   19.4013 C   0  0  0  0  0  0
  -29.4900  -12.5343   18.1975 C   0  0  0  0  0  0
  -28.0133  -12.3879   18.6172 C   0  0  0  0  0  0
  -27.6677  -13.2076   19.8896 C   0  0  2  0  0  0
  -28.7162  -12.9400   20.9910 C   0  0  0  0  0  0
  -25.2671  -13.8259   20.5838 C   0  0  0  0  0  0
  -24.1898  -13.0510   20.9324 C   0  0  0  0  0  0
  -24.6411  -11.6963   20.8789 C   0  0  0  0  0  0
  -23.9068  -10.4334   21.0411 C   0  0  0  0  0  0
  -24.3610   -9.4254   21.9181 C   0  0  0  0  0  0
  -23.6297   -8.2281   22.0738 C   0  0  0  0  0  0
  -22.4280   -8.0308   21.3516 C   0  0  0  0  0  0
  -21.9914   -9.0292   20.4645 C   0  0  0  0  0  0
  -22.7250  -10.2182   20.3064 C   0  0  0  0  0  0
  -21.6863   -6.0737   22.5278 C   0  0  0  0  0  0
  -21.4053   -6.5648   23.8218 C   0  0  0  0  0  0
  -21.3651   -5.6786   24.9172 C   0  0  0  0  0  0
  -21.6046   -4.3046   24.7222 C   0  0  0  0  0  0
  -21.8825   -3.8153   23.4346 C   0  0  0  0  0  0
  -21.9218   -4.6972   22.3402 C   0  0  0  0  0  0
  -22.7911  -13.5295   21.1908 C   0  0  0  0  0  0
  -22.1667   -4.2160   21.0970 F   0  0  0  0  0  0
  -21.5611   -3.4535   25.7735 F   0  0  0  0  0  0
  -30.0354  -13.2956   20.4530 N   0  0  0  0  0  0
  -26.3059  -12.9388   20.3493 N   0  0  0  0  0  0
  -25.9341  -11.6546   20.5815 N   0  0  0  0  0  0
  -22.0473  -12.8297   22.0412 N   0  0  0  0  0  0
  -25.4503  -15.2011   20.4236 N   0  0  0  0  0  0
  -31.7782  -14.7046   20.0735 O   0  0  0  0  0  0
  -21.6645   -6.8887   21.4228 O   0  0  0  0  0  0
  -22.3671  -14.5595   20.6713 O   0  0  0  0  0  0
  -24.6199  -31.8657   23.2077 C   0  0  0  0  0  0
  -25.9061  -32.4813   23.8395 C   0  0  1  0  0  0
  -27.2359  -27.3849   20.1032 C   0  0  0  0  0  0
  -25.5904  -33.8624   24.2324 N   0  0  0  0  0  0
  -23.4104  -30.4894   21.5477 C   0  0  2  0  0  0
  -24.8553  -28.9534   20.1176 C   0  0  0  0  0  0
  -22.7433  -29.4665   22.4966 C   0  0  0  0  0  0
  -18.0289  -28.1381   22.8481 C   0  0  0  0  0  0
  -24.1486  -36.7312   23.2639 C   0  0  0  0  0  0
  -25.9447  -30.8181   21.3683 C   0  0  0  0  0  0
  -26.0204  -29.4485   20.7154 C   0  0  0  0  0  0
  -27.2072  -28.6705   20.7086 C   0  0  0  0  0  0
  -26.0456  -26.9343   19.4782 C   0  0  0  0  0  0
  -24.8647  -27.6953   19.5000 C   0  0  0  0  0  0
  -23.6190  -29.8217   20.1644 C   0  0  0  0  0  0
  -25.4110  -36.3116   24.0337 C   0  0  1  0  0  0
  -20.5878  -28.3679   23.1295 C   0  0  2  0  0  0
  -20.6776  -26.9408   22.5415 C   0  0  0  0  0  0
  -19.5755  -26.6386   21.5212 C   0  0  0  0  0  0
  -18.1926  -26.7928   22.1616 C   0  0  0  0  0  0
  -19.1532  -28.8844   23.2886 C   0  0  0  0  0  0
  -18.9463  -30.1450   23.8903 C   0  0  0  0  0  0
  -17.6465  -30.6587   24.0557 C   0  0  0  0  0  0
  -25.9048  -34.9483   23.5140 C   0  0  0  0  0  0
  -16.5360  -29.9091   23.6327 C   0  0  0  0  0  0
  -16.7272  -28.6502   23.0347 C   0  0  0  0  0  0
  -26.4466  -31.6593   25.0751 C   0  0  0  0  0  0
  -25.3694  -31.3731   26.1475 C   0  0  0  0  0  0
  -27.0300  -30.3025   24.6155 C   0  0  0  0  0  0
  -27.6040  -32.4322   25.7499 C   0  0  0  0  0  0
  -27.5584  -37.1806   24.8460 C   0  0  0  0  0  0
  -21.4154  -29.3052   22.3691 N   0  0  0  0  0  0
  -26.4295  -37.3793   23.9410 N   0  0  0  0  0  0
  -24.6762  -31.0722   22.0987 N   0  0  0  0  0  0
  -23.4173  -28.8213   23.3030 O   0  0  0  0  0  0
  -28.4067  -26.6288   20.1595 O   0  0  0  0  0  0
  -26.5610  -34.8925   22.4711 O   0  0  0  0  0  0
  -23.5372  -32.1460   23.7422 O   0  0  0  0  0  0
  -28.2238  -21.6315   22.2223 C   0  0  0  0  0  0
  -29.4643  -20.2575   20.6671 C   0  0  0  0  0  0
  -28.9458  -21.5393   21.0140 C   0  0  0  0  0  0
  -28.0496  -20.4766   23.0048 C   0  0  0  0  0  0
  -29.2611  -19.1406   21.5230 C   0  0  0  0  0  0
  -27.0344  -17.9043   28.3834 C   0  0  0  0  0  0
  -29.0933  -22.7501   20.0626 C   0  0  0  0  0  0
  -27.2465  -20.4919   24.2908 C   0  0  0  0  0  0
  -30.0123  -17.7913   21.3570 C   0  0  0  0  0  0
  -27.9692  -18.5832   27.3771 C   0  0  0  0  0  0
  -29.1342  -24.2149   20.6409 C   0  0  0  0  0  0
  -28.1232  -20.3766   25.5506 C   0  0  0  0  0  0
  -27.3354  -19.8398   26.7626 C   0  0  0  0  0  0
  -28.2581  -16.2554   22.6075 C   0  0  0  0  0  0
  -28.4340  -25.2481   19.7008 C   0  0  0  0  0  0
  -29.2680  -16.3920   21.4301 C   0  0  2  0  0  0
  -28.5511  -19.2709   22.6606 N   0  0  0  0  0  0
  -30.2712  -15.3085   21.5968 N   0  0  0  0  0  0
  -26.9872  -16.9608   22.3881 N   0  3  0  0  0  0
  -31.4704  -12.4737   19.0855 H   0  0  0  0  0  0
  -30.3728  -11.3154   19.7726 H   0  0  0  0  0  0
  -29.7281  -11.8157   17.4122 H   0  0  0  0  0  0
  -29.6498  -13.5256   17.7693 H   0  0  0  0  0  0
  -27.8200  -11.3287   18.7962 H   0  0  0  0  0  0
  -27.3638  -12.6845   17.7934 H   0  0  0  0  0  0
  -27.7219  -14.2631   19.6255 H   0  0  0  0  0  0
  -28.7144  -11.8798   21.2549 H   0  0  0  0  0  0
  -28.4848  -13.4453   21.9201 H   0  0  0  0  0  0
  -25.2745   -9.5733   22.4776 H   0  0  0  0  0  0
  -24.0030   -7.4646   22.7417 H   0  0  0  0  0  0
  -21.0868   -8.8815   19.8908 H   0  0  0  0  0  0
  -22.3698  -10.9728   19.6194 H   0  0  0  0  0  0
  -21.2051   -7.6156   23.9740 H   0  0  0  0  0  0
  -21.1449   -6.0501   25.9067 H   0  0  0  0  0  0
  -22.0609   -2.7620   23.2851 H   0  0  0  0  0  0
  -22.4017  -11.9963   22.4867 H   0  0  0  0  0  0
  -21.1068  -13.1342   22.2480 H   0  0  0  0  0  0
  -24.5544  -15.6703   20.3220 H   0  0  0  0  0  0
  -26.0372  -15.4024   19.6211 H   0  0  0  0  0  0
  -26.7131  -32.5481   23.1148 H   0  0  0  0  0  0
  -25.0046  -33.9791   25.0452 H   0  0  0  0  0  0
  -22.7037  -31.3081   21.4036 H   0  0  0  0  0  0
  -23.3764  -35.9631   23.3299 H   0  0  0  0  0  0
  -24.3595  -36.8942   22.2057 H   0  0  0  0  0  0
  -23.7210  -37.6510   23.6659 H   0  0  0  0  0  0
  -26.0686  -31.5815   20.5983 H   0  0  0  0  0  0
  -26.8292  -30.8728   21.9909 H   0  0  0  0  0  0
  -28.1026  -29.0507   21.1809 H   0  0  0  0  0  0
  -25.9679  -25.9950   18.9573 H   0  0  0  0  0  0
  -23.9681  -27.3056   19.0380 H   0  0  0  0  0  0
  -23.7275  -30.5943   19.4025 H   0  0  0  0  0  0
  -22.7417  -29.2411   19.8697 H   0  0  0  0  0  0
  -25.1271  -36.2010   25.0830 H   0  0  0  0  0  0
  -20.9976  -28.3257   24.1413 H   0  0  0  0  0  0
  -20.5677  -26.2290   23.3608 H   0  0  0  0  0  0
  -21.6635  -26.7447   22.1195 H   0  0  0  0  0  0
  -19.6921  -25.6300   21.1239 H   0  0  0  0  0  0
  -19.6688  -27.3190   20.6731 H   0  0  0  0  0  0
  -17.4196  -26.6677   21.4019 H   0  0  0  0  0  0
  -18.0321  -26.0065   22.9003 H   0  0  0  0  0  0
  -19.7943  -30.7259   24.2252 H   0  0  0  0  0  0
  -17.5029  -31.6251   24.5176 H   0  0  0  0  0  0
  -15.5360  -30.2992   23.7650 H   0  0  0  0  0  0
  -15.8673  -28.0827   22.7065 H   0  0  0  0  0  0
  -24.5877  -30.7065   25.7808 H   0  0  0  0  0  0
  -24.8854  -32.2887   26.4885 H   0  0  0  0  0  0
  -25.8013  -30.8931   27.0258 H   0  0  0  0  0  0
  -26.2867  -29.6790   24.1171 H   0  0  0  0  0  0
  -27.4007  -29.7279   25.4651 H   0  0  0  0  0  0
  -27.8719  -30.4334   23.9361 H   0  0  0  0  0  0
  -27.2675  -33.3635   26.2066 H   0  0  0  0  0  0
  -28.3841  -32.6857   25.0312 H   0  0  0  0  0  0
  -28.0694  -31.8439   26.5413 H   0  0  0  0  0  0
  -28.2592  -38.0110   24.7554 H   0  0  0  0  0  0
  -28.1096  -36.2658   24.6238 H   0  0  0  0  0  0
  -27.2322  -37.1402   25.8865 H   0  0  0  0  0  0
  -20.9334  -29.8757   21.6889 H   0  0  0  0  0  0
  -26.0206  -38.2887   24.1408 H   0  0  0  0  0  0
  -27.7791  -22.5583   22.5514 H   0  0  0  0  0  0
  -30.0395  -20.1370   19.7588 H   0  0  0  0  0  0
  -27.5117  -17.0399   28.8476 H   0  0  0  0  0  0
  -26.1271  -17.5539   27.8859 H   0  0  0  0  0  0
  -26.7372  -18.5896   29.1798 H   0  0  0  0  0  0
  -28.2547  -22.6736   19.3701 H   0  0  0  0  0  0
  -29.9798  -22.6003   19.4445 H   0  0  0  0  0  0
  -26.5623  -19.6432   24.2422 H   0  0  0  0  0  0
  -26.6174  -21.3806   24.3466 H   0  0  0  0  0  0
  -30.7658  -17.8136   22.1455 H   0  0  0  0  0  0
  -30.5790  -17.8331   20.4271 H   0  0  0  0  0  0
  -28.2090  -17.8639   26.5910 H   0  0  0  0  0  0
  -28.9146  -18.8433   27.8571 H   0  0  0  0  0  0
  -30.1686  -24.5091   20.8245 H   0  0  0  0  0  0
  -28.6448  -24.2698   21.6119 H   0  0  0  0  0  0
  -28.5844  -21.3399   25.7748 H   0  0  0  0  0  0
  -28.9575  -19.7043   25.3391 H   0  0  0  0  0  0
  -27.2385  -20.6181   27.5202 H   0  0  0  0  0  0
  -26.3142  -19.5997   26.4655 H   0  0  0  0  0  0
  -28.7144  -16.6185   23.5306 H   0  0  0  0  0  0
  -27.9898  -15.2226   22.8115 H   0  0  0  0  0  0
  -27.4481  -24.8255   19.5493 H   0  0  0  0  0  0
  -28.9237  -25.2365   18.7258 H   0  0  0  0  0  0
  -28.7358  -16.2354   20.4918 H   0  0  0  0  0  0
  -31.0693  -15.6767   22.0957 H   0  0  0  0  0  0
  -27.2013  -17.9443   22.2696 H   0  0  0  0  0  0
  -26.4124  -16.8629   23.2054 H   0  0  0  0  0  0
  -26.4841  -16.5839   21.5963 H   0  0  0  0  0  0
  1 25  1  0  0  0
  1 30  2  0  0  0
  1 88  1  0  0  0
  2  3  1  0  0  0
  2 25  1  0  0  0
  2 90  1  0  0  0
  2 91  1  0  0  0
  3  4  1  0  0  0
  3 92  1  0  0  0
  3 93  1  0  0  0
  4  5  1  0  0  0
  4 94  1  0  0  0
  4 95  1  0  0  0
  5  6  1  0  0  0
  5 26  1  0  0  0
  5 96  1  0  0  0
  6 25  1  0  0  0
  6 97  1  0  0  0
  6 98  1  0  0  0
  7  8  2  0  0  0
  7 26  1  0  0  0
  7 29  1  0  0  0
  8  9  1  0  0  0
  8 22  1  0  0  0
  9 10  1  0  0  0
  9 27  2  0  0  0
 10 11  2  0  0  0
 10 15  1  0  0  0
 11 12  1  0  0  0
 11 99  1  0  0  0
 12 13  2  0  0  0
 12100  1  0  0  0
 13 14  1  0  0  0
 13 31  1  0  0  0
 14 15  2  0  0  0
 14101  1  0  0  0
 15102  1  0  0  0
 16 17  2  0  0  0
 16 21  1  0  0  0
 16 31  1  0  0  0
 17 18  1  0  0  0
 17103  1  0  0  0
 18 19  2  0  0  0
 18104  1  0  0  0
 19 20  1  0  0  0
 19 24  1  0  0  0
 20 21  2  0  0  0
 20105  1  0  0  0
 21 23  1  0  0  0
 22 28  1  0  0  0
 22 32  2  0  0  0
 26 27  1  0  0  0
 28106  1  0  0  0
 28107  1  0  0  0
 29108  1  0  0  0
 29109  1  0  0  0
 33 34  1  0  0  0
 33 66  1  0  0  0
 33 70  2  0  0  0
 34 36  1  0  0  0
 34 59  1  0  0  0
 34110  1  0  0  0
 35 44  2  0  0  0
 35 45  1  0  0  0
 35 68  1  0  0  0
 36 56  1  0  0  0
 36111  1  0  0  0
 37 39  1  0  0  0
 37 47  1  0  0  0
 37 66  1  0  0  0
 37112  1  0  0  0
 38 43  2  0  0  0
 38 46  1  0  0  0
 38 47  1  0  0  0
 39 64  1  0  0  0
 39 67  2  0  0  0
 40 52  1  0  0  0
 40 53  2  0  0  0
 40 58  1  0  0  0
 41113  1  0  0  0
 41114  1  0  0  0
 41115  1  0  0  0
 41 48  1  0  0  0
 42 43  1  0  0  0
 42 66  1  0  0  0
 42116  1  0  0  0
 42117  1  0  0  0
 43 44  1  0  0  0
 44118  1  0  0  0
 45 46  2  0  0  0
 45119  1  0  0  0
 46120  1  0  0  0
 47121  1  0  0  0
 47122  1  0  0  0
 48 56  1  0  0  0
 48 65  1  0  0  0
 48123  1  0  0  0
 49 50  1  0  0  0
 49 53  1  0  0  0
 49 64  1  0  0  0
 49124  1  0  0  0
 50 51  1  0  0  0
 50125  1  0  0  0
 50126  1  0  0  0
 51 52  1  0  0  0
 51127  1  0  0  0
 51128  1  0  0  0
 52129  1  0  0  0
 52130  1  0  0  0
 53 54  1  0  0  0
 54 55  2  0  0  0
 54131  1  0  0  0
 55 57  1  0  0  0
 55132  1  0  0  0
 56 69  2  0  0  0
 57 58  2  0  0  0
 57133  1  0  0  0
 58134  1  0  0  0
 59 60  1  0  0  0
 59 61  1  0  0  0
 59 62  1  0  0  0
 60135  1  0  0  0
 60136  1  0  0  0
 60137  1  0  0  0
 61138  1  0  0  0
 61139  1  0  0  0
 61140  1  0  0  0
 62141  1  0  0  0
 62142  1  0  0  0
 62143  1  0  0  0
 63 65  1  0  0  0
 63144  1  0  0  0
 63145  1  0  0  0
 63146  1  0  0  0
 64147  1  0  0  0
 65148  1  0  0  0
 68 85  1  0  0  0
 71 73  2  0  0  0
 71 74  1  0  0  0
 71149  1  0  0  0
 72 73  1  0  0  0
 72 75  2  0  0  0
 72150  1  0  0  0
 73 77  1  0  0  0
 74 78  1  0  0  0
 74 87  2  0  0  0
 75 79  1  0  0  0
 75 87  1  0  0  0
 76 80  1  0  0  0
 76151  1  0  0  0
 76152  1  0  0  0
 76153  1  0  0  0
 77 81  1  0  0  0
 77154  1  0  0  0
 77155  1  0  0  0
 78 82  1  0  0  0
 78156  1  0  0  0
 78157  1  0  0  0
 79158  1  0  0  0
 79159  1  0  0  0
 79 86  1  0  0  0
 80 83  1  0  0  0
 80160  1  0  0  0
 80161  1  0  0  0
 81 85  1  0  0  0
 81162  1  0  0  0
 81163  1  0  0  0
 82 83  1  0  0  0
 82164  1  0  0  0
 82165  1  0  0  0
 83166  1  0  0  0
 83167  1  0  0  0
 84 86  1  0  0  0
 84 89  1  0  0  0
 84168  1  0  0  0
 84169  1  0  0  0
 85170  1  0  0  0
 85171  1  0  0  0
 86 88  1  0  0  0
 86172  1  0  0  0
 88173  1  0  0  0
 89174  1  0  0  0
 89175  1  0  0  0
 89176  1  0  0  0
M  CHG  1  89   1
M  ISO  4   1 100  68 101  85 101  88 100
M  END
> <chiral flag>
0

> <version>
0

> <s_m_source_file>
/data/baiqing/PycharmProjects/Reinvent-master-3.2/result/LINK_invent/BTK/process_docking_weight1_custom_sum_contain_oxygen_bond_distance_aromatic_linkinvent_7_9_3/rearranged_h_0089.sdf

> <i_m_source_file_index>
3

> <r_mmod_Potential_Energy-OPLS-2005>
-404.643981933594

> <r_mmod_Stretch_Energy-OPLS-2005>
54.3311004638672

> <r_mmod_Bend_Energy-OPLS-2005>
140.798767089844

> <r_mmod_Torsional_Energy-OPLS-2005>
285.080780029297

> <r_mmod_Improper_Torsional_Energy-OPLS-2005>
14.4576940536499

> <r_mmod_Van_der_Waal_Energy-OPLS-2005>
162.140045166016

> <r_mmod_Electrostatic_Energy-OPLS-2005>
-639.4814453125

> <r_mmod_Solvation_Energy-OPLS-2005>
-438.209045410156

> <b_mmod_Minimization_Converged-OPLS-2005>
0

> <r_mmod_RMS_Derivative-OPLS-2005>
4.29144477844238

$$$$
3
                    3D
 Structure written by MMmdl.
169177  0  0  1  0            999 V2000
  -30.6386  -14.5375   20.5610 C   0  0  0  0  0  0
  -30.4472  -12.3393   19.4438 C   0  0  0  0  0  0
  -29.5171  -12.5219   18.2227 C   0  0  0  0  0  0
  -28.0336  -12.3679   18.6234 C   0  0  0  0  0  0
  -27.6701  -13.2009   19.8849 C   0  0  2  0  0  0
  -28.7093  -12.9707   21.0075 C   0  0  0  0  0  0
  -25.2631  -13.8134   20.5673 C   0  0  0  0  0  0
  -24.1867  -13.0437   20.9132 C   0  0  0  0  0  0
  -24.6389  -11.6880   20.8701 C   0  0  0  0  0  0
  -23.9055  -10.4273   21.0396 C   0  0  0  0  0  0
  -24.3611   -9.4199   21.9181 C   0  0  0  0  0  0
  -23.6270   -8.2246   22.0761 C   0  0  0  0  0  0
  -22.4265   -8.0277   21.3541 C   0  0  0  0  0  0
  -21.9904   -9.0260   20.4661 C   0  0  0  0  0  0
  -22.7237  -10.2128   20.3052 C   0  0  0  0  0  0
  -21.6866   -6.0734   22.5282 C   0  0  0  0  0  0
  -21.4016   -6.5626   23.8220 C   0  0  0  0  0  0
  -21.3657   -5.6784   24.9168 C   0  0  0  0  0  0
  -21.6029   -4.3049   24.7228 C   0  0  0  0  0  0
  -21.8829   -3.8134   23.4352 C   0  0  0  0  0  0
  -21.9190   -4.6953   22.3394 C   0  0  0  0  0  0
  -22.7901  -13.5245   21.1804 C   0  0  0  0  0  0
  -22.1658   -4.2137   21.0987 F   0  0  0  0  0  0
  -21.5629   -3.4536   25.7739 F   0  0  0  0  0  0
  -30.0418  -13.3138   20.4709 N   0  0  0  0  0  0
  -26.3064  -12.9280   20.3394 N   0  0  0  0  0  0
  -25.9329  -11.6453   20.5748 N   0  0  0  0  0  0
  -22.0522  -12.8267   22.0373 N   0  0  0  0  0  0
  -25.4348  -15.1854   20.4071 N   0  0  0  0  0  0
  -31.7181  -14.7905   20.0173 O   0  0  0  0  0  0
  -21.6646   -6.8872   21.4239 O   0  0  0  0  0  0
  -22.3584  -14.5546   20.6637 O   0  0  0  0  0  0
  -24.6214  -31.8648   23.2075 C   0  0  0  0  0  0
  -25.9093  -32.4799   23.8379 C   0  0  1  0  0  0
  -27.2249  -27.3719   20.1026 C   0  0  0  0  0  0
  -25.5932  -33.8609   24.2305 N   0  0  0  0  0  0
  -23.4122  -30.4894   21.5507 C   0  0  2  0  0  0
  -24.8580  -28.9595   20.1078 C   0  0  0  0  0  0
  -22.7467  -29.4641   22.4980 C   0  0  0  0  0  0
  -18.0299  -28.1390   22.8505 C   0  0  0  0  0  0
  -24.1495  -36.7291   23.2643 C   0  0  0  0  0  0
  -25.9514  -30.8095   21.3766 C   0  0  0  0  0  0
  -26.0228  -29.4440   20.7149 C   0  0  0  0  0  0
  -27.2078  -28.6585   20.7089 C   0  0  0  0  0  0
  -26.0403  -26.9443   19.4481 C   0  0  0  0  0  0
  -24.8637  -27.7123   19.4707 C   0  0  0  0  0  0
  -23.6214  -29.8276   20.1636 C   0  0  0  0  0  0
  -25.4124  -36.3114   24.0342 C   0  0  1  0  0  0
  -20.5896  -28.3685   23.1315 C   0  0  2  0  0  0
  -20.6788  -26.9409   22.5422 C   0  0  0  0  0  0
  -19.5765  -26.6388   21.5235 C   0  0  0  0  0  0
  -18.1942  -26.7936   22.1637 C   0  0  0  0  0  0
  -19.1543  -28.8867   23.2899 C   0  0  0  0  0  0
  -18.9454  -30.1476   23.8889 C   0  0  0  0  0  0
  -17.6441  -30.6577   24.0569 C   0  0  0  0  0  0
  -25.9060  -34.9477   23.5124 C   0  0  0  0  0  0
  -16.5340  -29.9066   23.6341 C   0  0  0  0  0  0
  -16.7282  -28.6503   23.0350 C   0  0  0  0  0  0
  -26.4492  -31.6599   25.0718 C   0  0  0  0  0  0
  -25.3745  -31.3706   26.1455 C   0  0  0  0  0  0
  -27.0343  -30.3031   24.6157 C   0  0  0  0  0  0
  -27.6063  -32.4325   25.7482 C   0  0  0  0  0  0
  -27.5587  -37.1810   24.8476 C   0  0  0  0  0  0
  -21.4190  -29.3033   22.3725 N   0  0  0  0  0  0
  -26.4307  -37.3784   23.9409 N   0  0  0  0  0  0
  -24.6800  -31.0699   22.1013 N   0  0  0  0  0  0
  -23.4208  -28.8212   23.3072 O   0  0  0  0  0  0
  -28.3582  -26.5588   20.1770 O   0  0  0  0  0  0
  -26.5606  -34.8928   22.4679 O   0  0  0  0  0  0
  -23.5393  -32.1450   23.7434 O   0  0  0  0  0  0
  -28.8443  -19.7577   22.4228 C   0  0  0  0  0  0
  -29.9110  -20.4419   20.6135 C   0  0  0  0  0  0
  -29.8125  -19.3652   21.4654 C   0  0  0  0  0  0
  -28.3080  -20.9799   22.1108 C   0  0  0  0  0  0
  -31.9499  -18.1136   20.9243 C   0  0  0  0  0  0
  -26.1974  -22.4479   22.0153 C   0  0  0  0  0  0
  -27.8363  -22.6132   23.9369 C   0  0  0  0  0  0
  -26.3606  -20.6500   23.6875 C   0  0  0  0  0  0
  -29.0943  -24.0754   20.5677 C   0  0  0  0  0  0
  -28.7183  -22.6190   20.1017 C   0  0  0  0  0  0
  -29.6886  -16.9106   20.7384 C   0  0  0  0  0  0
  -28.1858  -25.1405   19.8727 C   0  0  0  0  0  0
  -30.5231  -18.0043   21.4754 C   0  0  1  0  0  0
  -27.2011  -21.6776   22.8927 C   0  0  0  0  0  0
  -28.9887  -21.4384   20.9632 N   0  0  0  0  0  0
  -29.8801  -15.4925   21.1400 N   0  0  0  0  0  0
  -31.4910  -12.4654   19.1494 H   0  0  0  0  0  0
  -30.3724  -11.3257   19.8432 H   0  0  0  0  0  0
  -29.7745  -11.8045   17.4433 H   0  0  0  0  0  0
  -29.6765  -13.5101   17.7857 H   0  0  0  0  0  0
  -27.8434  -11.3110   18.8093 H   0  0  0  0  0  0
  -27.3905  -12.6481   17.7891 H   0  0  0  0  0  0
  -27.7100  -14.2516   19.5993 H   0  0  0  0  0  0
  -28.7032  -11.9224   21.3106 H   0  0  0  0  0  0
  -28.4544  -13.5268   21.9114 H   0  0  0  0  0  0
  -25.2766   -9.5690   22.4763 H   0  0  0  0  0  0
  -23.9983   -7.4651   22.7509 H   0  0  0  0  0  0
  -21.0828   -8.8789   19.8990 H   0  0  0  0  0  0
  -22.3689  -10.9673   19.6171 H   0  0  0  0  0  0
  -21.2017   -7.6147   23.9708 H   0  0  0  0  0  0
  -21.1471   -6.0524   25.9080 H   0  0  0  0  0  0
  -22.0606   -2.7605   23.2863 H   0  0  0  0  0  0
  -22.4113  -11.9900   22.4740 H   0  0  0  0  0  0
  -21.1162  -13.1360   22.2600 H   0  0  0  0  0  0
  -24.6698  -15.8420   20.5183 H   0  0  0  0  0  0
  -26.2889  -15.6270   20.0894 H   0  0  0  0  0  0
  -26.7173  -32.5491   23.1151 H   0  0  0  0  0  0
  -25.0115  -33.9761   25.0476 H   0  0  0  0  0  0
  -22.7023  -31.3075   21.4112 H   0  0  0  0  0  0
  -23.3760  -35.9610   23.3335 H   0  0  0  0  0  0
  -24.3591  -36.8869   22.2046 H   0  0  0  0  0  0
  -23.7238  -37.6507   23.6633 H   0  0  0  0  0  0
  -26.0868  -31.5785   20.6150 H   0  0  0  0  0  0
  -26.8321  -30.8485   22.0054 H   0  0  0  0  0  0
  -28.1013  -29.0187   21.1958 H   0  0  0  0  0  0
  -25.9853  -26.0056   18.9178 H   0  0  0  0  0  0
  -23.9709  -27.3448   18.9839 H   0  0  0  0  0  0
  -23.7296  -30.6035   19.4046 H   0  0  0  0  0  0
  -22.7448  -29.2463   19.8720 H   0  0  0  0  0  0
  -25.1305  -36.1975   25.0826 H   0  0  0  0  0  0
  -20.9988  -28.3253   24.1441 H   0  0  0  0  0  0
  -20.5759  -26.2270   23.3614 H   0  0  0  0  0  0
  -21.6652  -26.7480   22.1177 H   0  0  0  0  0  0
  -19.6912  -25.6317   21.1249 H   0  0  0  0  0  0
  -19.6697  -27.3225   20.6799 H   0  0  0  0  0  0
  -17.4216  -26.6731   21.4021 H   0  0  0  0  0  0
  -18.0293  -26.0073   22.9027 H   0  0  0  0  0  0
  -19.7923  -30.7322   24.2220 H   0  0  0  0  0  0
  -17.4984  -31.6268   24.5171 H   0  0  0  0  0  0
  -15.5338  -30.2943   23.7679 H   0  0  0  0  0  0
  -15.8695  -28.0819   22.7026 H   0  0  0  0  0  0
  -24.5899  -30.7080   25.7775 H   0  0  0  0  0  0
  -24.8948  -32.2859   26.4944 H   0  0  0  0  0  0
  -25.8076  -30.8828   27.0202 H   0  0  0  0  0  0
  -26.2903  -29.6764   24.1200 H   0  0  0  0  0  0
  -27.4097  -29.7293   25.4654 H   0  0  0  0  0  0
  -27.8766  -30.4343   23.9342 H   0  0  0  0  0  0
  -27.2681  -33.3618   26.2095 H   0  0  0  0  0  0
  -28.3845  -32.6911   25.0277 H   0  0  0  0  0  0
  -28.0778  -31.8429   26.5366 H   0  0  0  0  0  0
  -28.2637  -38.0080   24.7509 H   0  0  0  0  0  0
  -28.1056  -36.2617   24.6333 H   0  0  0  0  0  0
  -27.2306  -37.1497   25.8880 H   0  0  0  0  0  0
  -20.9372  -29.8706   21.6887 H   0  0  0  0  0  0
  -26.0209  -38.2870   24.1367 H   0  0  0  0  0  0
  -28.5400  -19.1471   23.2625 H   0  0  0  0  0  0
  -30.5379  -20.5708   19.7406 H   0  0  0  0  0  0
  -31.9364  -18.3502   19.8605 H   0  0  0  0  0  0
  -32.5036  -17.1850   21.0515 H   0  0  0  0  0  0
  -32.5116  -18.8956   21.4344 H   0  0  0  0  0  0
  -26.6258  -23.3746   21.6546 H   0  0  0  0  0  0
  -25.3052  -22.7362   22.5718 H   0  0  0  0  0  0
  -25.8717  -21.8605   21.1561 H   0  0  0  0  0  0
  -28.4527  -23.3842   23.4877 H   0  0  0  0  0  0
  -28.4865  -22.0525   24.6101 H   0  0  0  0  0  0
  -27.0914  -23.1134   24.5538 H   0  0  0  0  0  0
  -25.9103  -19.9063   23.0273 H   0  0  0  0  0  0
  -25.5504  -21.1351   24.2348 H   0  0  0  0  0  0
  -26.9489  -20.1182   24.4351 H   0  0  0  0  0  0
  -29.0029  -24.1830   21.6421 H   0  0  0  0  0  0
  -30.1371  -24.2802   20.3301 H   0  0  0  0  0  0
  -29.2087  -22.4464   19.1426 H   0  0  0  0  0  0
  -27.6652  -22.5742   19.8405 H   0  0  0  0  0  0
  -29.7517  -17.0318   19.6539 H   0  0  0  0  0  0
  -28.6384  -17.1028   20.9673 H   0  0  0  0  0  0
  -27.1817  -24.8347   20.1531 H   0  0  0  0  0  0
  -28.2593  -25.0098   18.7914 H   0  0  0  0  0  0
  -30.5934  -17.7265   22.5288 H   0  0  0  0  0  0
  -29.0882  -15.1104   21.6312 H   0  0  0  0  0  0
  1 25  1  0  0  0
  1 30  2  0  0  0
  1 86  1  0  0  0
  2  3  1  0  0  0
  2 25  1  0  0  0
  2 87  1  0  0  0
  2 88  1  0  0  0
  3  4  1  0  0  0
  3 89  1  0  0  0
  3 90  1  0  0  0
  4  5  1  0  0  0
  4 91  1  0  0  0
  4 92  1  0  0  0
  5  6  1  0  0  0
  5 26  1  0  0  0
  5 93  1  0  0  0
  6 25  1  0  0  0
  6 94  1  0  0  0
  6 95  1  0  0  0
  7  8  2  0  0  0
  7 26  1  0  0  0
  7 29  1  0  0  0
  8  9  1  0  0  0
  8 22  1  0  0  0
  9 10  1  0  0  0
  9 27  2  0  0  0
 10 11  2  0  0  0
 10 15  1  0  0  0
 11 12  1  0  0  0
 11 96  1  0  0  0
 12 13  2  0  0  0
 12 97  1  0  0  0
 13 14  1  0  0  0
 13 31  1  0  0  0
 14 15  2  0  0  0
 14 98  1  0  0  0
 15 99  1  0  0  0
 16 17  2  0  0  0
 16 21  1  0  0  0
 16 31  1  0  0  0
 17 18  1  0  0  0
 17100  1  0  0  0
 18 19  2  0  0  0
 18101  1  0  0  0
 19 20  1  0  0  0
 19 24  1  0  0  0
 20 21  2  0  0  0
 20102  1  0  0  0
 21 23  1  0  0  0
 22 28  1  0  0  0
 22 32  2  0  0  0
 26 27  1  0  0  0
 28103  1  0  0  0
 28104  1  0  0  0
 29105  1  0  0  0
 29106  1  0  0  0
 33 34  1  0  0  0
 33 66  1  0  0  0
 33 70  2  0  0  0
 34 36  1  0  0  0
 34 59  1  0  0  0
 34107  1  0  0  0
 35 44  2  0  0  0
 35 45  1  0  0  0
 35 68  1  0  0  0
 36 56  1  0  0  0
 36108  1  0  0  0
 37 39  1  0  0  0
 37 47  1  0  0  0
 37 66  1  0  0  0
 37109  1  0  0  0
 38 43  2  0  0  0
 38 46  1  0  0  0
 38 47  1  0  0  0
 39 64  1  0  0  0
 39 67  2  0  0  0
 40 52  1  0  0  0
 40 53  2  0  0  0
 40 58  1  0  0  0
 41110  1  0  0  0
 41111  1  0  0  0
 41112  1  0  0  0
 41 48  1  0  0  0
 42 43  1  0  0  0
 42 66  1  0  0  0
 42113  1  0  0  0
 42114  1  0  0  0
 43 44  1  0  0  0
 44115  1  0  0  0
 45 46  2  0  0  0
 45116  1  0  0  0
 46117  1  0  0  0
 47118  1  0  0  0
 47119  1  0  0  0
 48 56  1  0  0  0
 48 65  1  0  0  0
 48120  1  0  0  0
 49 50  1  0  0  0
 49 53  1  0  0  0
 49 64  1  0  0  0
 49121  1  0  0  0
 50 51  1  0  0  0
 50122  1  0  0  0
 50123  1  0  0  0
 51 52  1  0  0  0
 51124  1  0  0  0
 51125  1  0  0  0
 52126  1  0  0  0
 52127  1  0  0  0
 53 54  1  0  0  0
 54 55  2  0  0  0
 54128  1  0  0  0
 55 57  1  0  0  0
 55129  1  0  0  0
 56 69  2  0  0  0
 57 58  2  0  0  0
 57130  1  0  0  0
 58131  1  0  0  0
 59 60  1  0  0  0
 59 61  1  0  0  0
 59 62  1  0  0  0
 60132  1  0  0  0
 60133  1  0  0  0
 60134  1  0  0  0
 61135  1  0  0  0
 61136  1  0  0  0
 61137  1  0  0  0
 62138  1  0  0  0
 62139  1  0  0  0
 62140  1  0  0  0
 63 65  1  0  0  0
 63141  1  0  0  0
 63142  1  0  0  0
 63143  1  0  0  0
 64144  1  0  0  0
 65145  1  0  0  0
 68 82  1  0  0  0
 71 73  1  0  0  0
 71 74  2  0  0  0
 71146  1  0  0  0
 72 73  2  0  0  0
 72 85  1  0  0  0
 72147  1  0  0  0
 73 83  1  0  0  0
 74 84  1  0  0  0
 74 85  1  0  0  0
 75148  1  0  0  0
 75149  1  0  0  0
 75150  1  0  0  0
 75 83  1  0  0  0
 76151  1  0  0  0
 76152  1  0  0  0
 76153  1  0  0  0
 76 84  1  0  0  0
 77 84  1  0  0  0
 77154  1  0  0  0
 77155  1  0  0  0
 77156  1  0  0  0
 78 84  1  0  0  0
 78157  1  0  0  0
 78158  1  0  0  0
 78159  1  0  0  0
 79 80  1  0  0  0
 79 82  1  0  0  0
 79160  1  0  0  0
 79161  1  0  0  0
 80 85  1  0  0  0
 80162  1  0  0  0
 80163  1  0  0  0
 81 83  1  0  0  0
 81 86  1  0  0  0
 81164  1  0  0  0
 81165  1  0  0  0
 82166  1  0  0  0
 82167  1  0  0  0
 83168  1  0  0  0
 86169  1  0  0  0
M  ISO  4   1 100  68 101  82 101  86 100
M  END
> <chiral flag>
0

> <version>
0

> <s_m_source_file>
/data/baiqing/PycharmProjects/Reinvent-master-3.2/result/LINK_invent/BTK/process_docking_weight1_custom_sum_contain_oxygen_bond_distance_aromatic_linkinvent_7_9_3/rearranged_h_0089.sdf

> <i_m_source_file_index>
4

> <r_mmod_Potential_Energy-OPLS-2005>
-44.424560546875

> <r_mmod_Stretch_Energy-OPLS-2005>
53.9307174682617

> <r_mmod_Bend_Energy-OPLS-2005>
148.328277587891

> <r_mmod_Torsional_Energy-OPLS-2005>
247.210754394531

> <r_mmod_Improper_Torsional_Energy-OPLS-2005>
6.90559864044189

> <r_mmod_Van_der_Waal_Energy-OPLS-2005>
138.138793945312

> <r_mmod_Electrostatic_Energy-OPLS-2005>
-464.783325195312

> <r_mmod_Solvation_Energy-OPLS-2005>
-202.006408691406

> <b_mmod_Minimization_Converged-OPLS-2005>
0

> <r_mmod_RMS_Derivative-OPLS-2005>
4.484375

$$$$
4
                    3D
 Structure written by MMmdl.
167175  0  0  1  0            999 V2000
  -30.5802  -14.7534   20.4640 C   0  0  0  0  0  0
  -30.4335  -12.4662   19.4540 C   0  0  0  0  0  0
  -29.5016  -12.5104   18.2228 C   0  0  0  0  0  0
  -28.0285  -12.3339   18.6421 C   0  0  0  0  0  0
  -27.6352  -13.2274   19.8486 C   0  0  2  0  0  0
  -28.6822  -13.1541   20.9790 C   0  0  0  0  0  0
  -25.2493  -13.8171   20.5716 C   0  0  0  0  0  0
  -24.1776  -13.0431   20.9229 C   0  0  0  0  0  0
  -24.6360  -11.6907   20.8753 C   0  0  0  0  0  0
  -23.9034  -10.4290   21.0413 C   0  0  0  0  0  0
  -24.3606   -9.4206   21.9176 C   0  0  0  0  0  0
  -23.6304   -8.2227   22.0728 C   0  0  0  0  0  0
  -22.4276   -8.0259   21.3532 C   0  0  0  0  0  0
  -21.9898   -9.0238   20.4652 C   0  0  0  0  0  0
  -22.7208  -10.2131   20.3072 C   0  0  0  0  0  0
  -21.6855   -6.0740   22.5282 C   0  0  0  0  0  0
  -21.4010   -6.5645   23.8217 C   0  0  0  0  0  0
  -21.3663   -5.6795   24.9178 C   0  0  0  0  0  0
  -21.6045   -4.3059   24.7222 C   0  0  0  0  0  0
  -21.8810   -3.8154   23.4343 C   0  0  0  0  0  0
  -21.9192   -4.6970   22.3404 C   0  0  0  0  0  0
  -22.7808  -13.5227   21.1901 C   0  0  0  0  0  0
  -22.1674   -4.2166   21.0982 F   0  0  0  0  0  0
  -21.5625   -3.4542   25.7731 F   0  0  0  0  0  0
  -29.9771  -13.5187   20.3868 N   0  0  0  0  0  0
  -26.2892  -12.9367   20.3277 N   0  0  0  0  0  0
  -25.9282  -11.6518   20.5742 N   0  0  0  0  0  0
  -22.0471  -12.8204   22.0452 N   0  0  0  0  0  0
  -25.4156  -15.1899   20.4139 N   0  0  0  0  0  0
  -31.7837  -14.8764   20.2194 O   0  0  0  0  0  0
  -21.6640   -6.8861   21.4237 O   0  0  0  0  0  0
  -22.3497  -14.5552   20.6774 O   0  0  0  0  0  0
  -24.6318  -31.8555   23.2013 C   0  0  0  0  0  0
  -25.9158  -32.4762   23.8333 C   0  0  1  0  0  0
  -27.2171  -27.2604   20.1131 C   0  0  0  0  0  0
  -25.5961  -33.8559   24.2267 N   0  0  0  0  0  0
  -23.4271  -30.4825   21.5424 C   0  0  2  0  0  0
  -24.8711  -28.9294   20.1090 C   0  0  0  0  0  0
  -22.7492  -29.4610   22.4879 C   0  0  0  0  0  0
  -18.0300  -28.1413   22.8487 C   0  0  0  0  0  0
  -24.1482  -36.7275   23.2630 C   0  0  0  0  0  0
  -25.9730  -30.7673   21.3803 C   0  0  0  0  0  0
  -26.0435  -29.3913   20.7174 C   0  0  0  0  0  0
  -27.2153  -28.5685   20.7088 C   0  0  0  0  0  0
  -26.0096  -26.8588   19.4963 C   0  0  0  0  0  0
  -24.8594  -27.6705   19.4908 C   0  0  0  0  0  0
  -23.6471  -29.8236   20.1550 C   0  0  0  0  0  0
  -25.4109  -36.3068   24.0323 C   0  0  1  0  0  0
  -20.5896  -28.3725   23.1259 C   0  0  2  0  0  0
  -20.6780  -26.9442   22.5409 C   0  0  0  0  0  0
  -19.5760  -26.6409   21.5203 C   0  0  0  0  0  0
  -18.1942  -26.7960   22.1617 C   0  0  0  0  0  0
  -19.1552  -28.8880   23.2874 C   0  0  0  0  0  0
  -18.9468  -30.1473   23.8909 C   0  0  0  0  0  0
  -17.6470  -30.6606   24.0576 C   0  0  0  0  0  0
  -25.9053  -34.9445   23.5081 C   0  0  0  0  0  0
  -16.5361  -29.9111   23.6338 C   0  0  0  0  0  0
  -16.7286  -28.6529   23.0355 C   0  0  0  0  0  0
  -26.4524  -31.6583   25.0724 C   0  0  0  0  0  0
  -25.3751  -31.3743   26.1447 C   0  0  0  0  0  0
  -27.0349  -30.2993   24.6213 C   0  0  0  0  0  0
  -27.6077  -32.4307   25.7515 C   0  0  0  0  0  0
  -27.5574  -37.1800   24.8465 C   0  0  0  0  0  0
  -21.4196  -29.3067   22.3624 N   0  0  0  0  0  0
  -26.4282  -37.3772   23.9412 N   0  0  0  0  0  0
  -24.6967  -31.0525   22.0982 N   0  0  0  0  0  0
  -23.4192  -28.8148   23.2974 O   0  0  0  0  0  0
  -28.3334  -26.3907   20.1909 O   0  0  0  0  0  0
  -26.5605  -34.8923   22.4644 O   0  0  0  0  0  0
  -23.5477  -32.1367   23.7329 O   0  0  0  0  0  0
  -28.8569  -22.3933   19.7409 C   0  0  0  0  0  0
  -28.5058  -23.6473   20.3823 C   0  0  0  0  0  0
  -28.1783  -23.5288   21.7594 C   0  0  0  0  0  0
  -28.9100  -21.1277   20.4425 C   0  0  0  0  0  0
  -28.2848  -22.2554   22.3946 C   0  0  0  0  0  0
  -27.6546  -24.7453   22.5199 C   0  0  0  0  0  0
  -25.8415  -21.5368   25.3558 C   0  0  0  0  0  0
  -27.5819  -19.0311   19.7375 C   0  0  0  0  0  0
  -28.3916  -25.0213   19.5605 C   0  0  0  0  0  0
  -27.8537  -22.0188   23.8365 C   0  0  0  0  0  0
  -26.3386  -21.7577   23.9232 C   0  0  0  0  0  0
  -30.1150  -18.5673   20.0507 C   0  0  0  0  0  0
  -29.9954  -17.3038   21.0584 C   0  0  0  0  0  0
  -28.9727  -19.6836   19.7578 C   0  0  2  0  0  0
  -28.6469  -21.1147   21.7602 N   0  0  0  0  0  0
  -29.7536  -15.8553   20.6207 N   0  0  0  0  0  0
  -31.4700  -12.6178   19.1462 H   0  0  0  0  0  0
  -30.3968  -11.4863   19.9339 H   0  0  0  0  0  0
  -29.7818  -11.7363   17.5077 H   0  0  0  0  0  0
  -29.6231  -13.4636   17.7066 H   0  0  0  0  0  0
  -27.8840  -11.2834   18.8977 H   0  0  0  0  0  0
  -27.3684  -12.5361   17.7970 H   0  0  0  0  0  0
  -27.6279  -14.2514   19.4750 H   0  0  0  0  0  0
  -28.7181  -12.1548   21.4163 H   0  0  0  0  0  0
  -28.4158  -13.8319   21.7923 H   0  0  0  0  0  0
  -25.2748   -9.5698   22.4758 H   0  0  0  0  0  0
  -24.0050   -7.4599   22.7425 H   0  0  0  0  0  0
  -21.0822   -8.8741   19.8963 H   0  0  0  0  0  0
  -22.3635  -10.9674   19.6203 H   0  0  0  0  0  0
  -21.2005   -7.6154   23.9726 H   0  0  0  0  0  0
  -21.1500   -6.0528   25.9085 H   0  0  0  0  0  0
  -22.0587   -2.7618   23.2833 H   0  0  0  0  0  0
  -22.4124  -11.9884   22.4850 H   0  0  0  0  0  0
  -21.1061  -13.1151   22.2631 H   0  0  0  0  0  0
  -24.6359  -15.8281   20.5233 H   0  0  0  0  0  0
  -26.2458  -15.6427   20.0558 H   0  0  0  0  0  0
  -26.7223  -32.5408   23.1063 H   0  0  0  0  0  0
  -25.0147  -33.9691   25.0441 H   0  0  0  0  0  0
  -22.7244  -31.3058   21.3999 H   0  0  0  0  0  0
  -23.3752  -35.9599   23.3294 H   0  0  0  0  0  0
  -24.3564  -36.8897   22.2043 H   0  0  0  0  0  0
  -23.7232  -37.6476   23.6650 H   0  0  0  0  0  0
  -26.1128  -31.5303   20.6132 H   0  0  0  0  0  0
  -26.8483  -30.8150   22.0160 H   0  0  0  0  0  0
  -28.1153  -28.9168   21.1963 H   0  0  0  0  0  0
  -25.8952  -25.8912   19.0381 H   0  0  0  0  0  0
  -23.9554  -27.3050   19.0230 H   0  0  0  0  0  0
  -23.7888  -30.6062   19.4070 H   0  0  0  0  0  0
  -22.7606  -29.2716   19.8376 H   0  0  0  0  0  0
  -25.1297  -36.1902   25.0817 H   0  0  0  0  0  0
  -21.0019  -28.3323   24.1367 H   0  0  0  0  0  0
  -20.5656  -26.2343   23.3618 H   0  0  0  0  0  0
  -21.6651  -26.7452   22.1218 H   0  0  0  0  0  0
  -19.6912  -25.6309   21.1257 H   0  0  0  0  0  0
  -19.6707  -27.3188   20.6708 H   0  0  0  0  0  0
  -17.4211  -26.6710   21.4023 H   0  0  0  0  0  0
  -18.0355  -26.0091   22.9003 H   0  0  0  0  0  0
  -19.7933  -30.7286   24.2299 H   0  0  0  0  0  0
  -17.5024  -31.6293   24.5165 H   0  0  0  0  0  0
  -15.5363  -30.3028   23.7648 H   0  0  0  0  0  0
  -15.8684  -28.0860   22.7071 H   0  0  0  0  0  0
  -24.5976  -30.7022   25.7804 H   0  0  0  0  0  0
  -24.8884  -32.2904   26.4802 H   0  0  0  0  0  0
  -25.8088  -30.9011   27.0264 H   0  0  0  0  0  0
  -26.2938  -29.6769   24.1189 H   0  0  0  0  0  0
  -27.3951  -29.7240   25.4746 H   0  0  0  0  0  0
  -27.8854  -30.4237   23.9505 H   0  0  0  0  0  0
  -27.2707  -33.3628   26.2059 H   0  0  0  0  0  0
  -28.3933  -32.6819   25.0378 H   0  0  0  0  0  0
  -28.0687  -31.8435   26.5468 H   0  0  0  0  0  0
  -28.2595  -38.0094   24.7516 H   0  0  0  0  0  0
  -28.1072  -36.2631   24.6294 H   0  0  0  0  0  0
  -27.2293  -37.1458   25.8868 H   0  0  0  0  0  0
  -20.9372  -29.8825   21.6856 H   0  0  0  0  0  0
  -26.0159  -38.2836   24.1444 H   0  0  0  0  0  0
  -29.0280  -22.3968   18.6722 H   0  0  0  0  0  0
  -28.4546  -25.4642   22.6978 H   0  0  0  0  0  0
  -27.2060  -24.5067   23.4812 H   0  0  0  0  0  0
  -26.8632  -25.2325   21.9521 H   0  0  0  0  0  0
  -24.7615  -21.3805   25.3703 H   0  0  0  0  0  0
  -26.0604  -22.3997   25.9851 H   0  0  0  0  0  0
  -26.3116  -20.6604   25.8036 H   0  0  0  0  0  0
  -26.8404  -19.7094   19.3153 H   0  0  0  0  0  0
  -27.2564  -18.7719   20.7450 H   0  0  0  0  0  0
  -27.5739  -18.1197   19.1391 H   0  0  0  0  0  0
  -27.6316  -24.8780   18.7984 H   0  0  0  0  0  0
  -29.3110  -25.0546   18.9754 H   0  0  0  0  0  0
  -28.1627  -22.8456   24.4752 H   0  0  0  0  0  0
  -28.3871  -21.1518   24.2302 H   0  0  0  0  0  0
  -25.7988  -22.5961   23.4805 H   0  0  0  0  0  0
  -26.0883  -20.8851   23.3162 H   0  0  0  0  0  0
  -30.3803  -18.1359   19.0848 H   0  0  0  0  0  0
  -31.0099  -19.1260   20.3272 H   0  0  0  0  0  0
  -29.2319  -17.5431   21.8002 H   0  0  0  0  0  0
  -30.9225  -17.2741   21.6328 H   0  0  0  0  0  0
  -29.1641  -19.9544   18.7184 H   0  0  0  0  0  0
  -28.7794  -15.5970   20.6570 H   0  0  0  0  0  0
  1 25  1  0  0  0
  1 30  2  0  0  0
  1 86  1  0  0  0
  2  3  1  0  0  0
  2 25  1  0  0  0
  2 87  1  0  0  0
  2 88  1  0  0  0
  3  4  1  0  0  0
  3 89  1  0  0  0
  3 90  1  0  0  0
  4  5  1  0  0  0
  4 91  1  0  0  0
  4 92  1  0  0  0
  5  6  1  0  0  0
  5 26  1  0  0  0
  5 93  1  0  0  0
  6 25  1  0  0  0
  6 94  1  0  0  0
  6 95  1  0  0  0
  7  8  2  0  0  0
  7 26  1  0  0  0
  7 29  1  0  0  0
  8  9  1  0  0  0
  8 22  1  0  0  0
  9 10  1  0  0  0
  9 27  2  0  0  0
 10 11  2  0  0  0
 10 15  1  0  0  0
 11 12  1  0  0  0
 11 96  1  0  0  0
 12 13  2  0  0  0
 12 97  1  0  0  0
 13 14  1  0  0  0
 13 31  1  0  0  0
 14 15  2  0  0  0
 14 98  1  0  0  0
 15 99  1  0  0  0
 16 17  2  0  0  0
 16 21  1  0  0  0
 16 31  1  0  0  0
 17 18  1  0  0  0
 17100  1  0  0  0
 18 19  2  0  0  0
 18101  1  0  0  0
 19 20  1  0  0  0
 19 24  1  0  0  0
 20 21  2  0  0  0
 20102  1  0  0  0
 21 23  1  0  0  0
 22 28  1  0  0  0
 22 32  2  0  0  0
 26 27  1  0  0  0
 28103  1  0  0  0
 28104  1  0  0  0
 29105  1  0  0  0
 29106  1  0  0  0
 33 34  1  0  0  0
 33 66  1  0  0  0
 33 70  2  0  0  0
 34 36  1  0  0  0
 34 59  1  0  0  0
 34107  1  0  0  0
 35 44  2  0  0  0
 35 45  1  0  0  0
 35 68  1  0  0  0
 36 56  1  0  0  0
 36108  1  0  0  0
 37 39  1  0  0  0
 37 47  1  0  0  0
 37 66  1  0  0  0
 37109  1  0  0  0
 38 43  2  0  0  0
 38 46  1  0  0  0
 38 47  1  0  0  0
 39 64  1  0  0  0
 39 67  2  0  0  0
 40 52  1  0  0  0
 40 53  2  0  0  0
 40 58  1  0  0  0
 41110  1  0  0  0
 41111  1  0  0  0
 41112  1  0  0  0
 41 48  1  0  0  0
 42 43  1  0  0  0
 42 66  1  0  0  0
 42113  1  0  0  0
 42114  1  0  0  0
 43 44  1  0  0  0
 44115  1  0  0  0
 45 46  2  0  0  0
 45116  1  0  0  0
 46117  1  0  0  0
 47118  1  0  0  0
 47119  1  0  0  0
 48 56  1  0  0  0
 48 65  1  0  0  0
 48120  1  0  0  0
 49 50  1  0  0  0
 49 53  1  0  0  0
 49 64  1  0  0  0
 49121  1  0  0  0
 50 51  1  0  0  0
 50122  1  0  0  0
 50123  1  0  0  0
 51 52  1  0  0  0
 51124  1  0  0  0
 51125  1  0  0  0
 52126  1  0  0  0
 52127  1  0  0  0
 53 54  1  0  0  0
 54 55  2  0  0  0
 54128  1  0  0  0
 55 57  1  0  0  0
 55129  1  0  0  0
 56 69  2  0  0  0
 57 58  2  0  0  0
 57130  1  0  0  0
 58131  1  0  0  0
 59 60  1  0  0  0
 59 61  1  0  0  0
 59 62  1  0  0  0
 60132  1  0  0  0
 60133  1  0  0  0
 60134  1  0  0  0
 61135  1  0  0  0
 61136  1  0  0  0
 61137  1  0  0  0
 62138  1  0  0  0
 62139  1  0  0  0
 62140  1  0  0  0
 63 65  1  0  0  0
 63141  1  0  0  0
 63142  1  0  0  0
 63143  1  0  0  0
 64144  1  0  0  0
 65145  1  0  0  0
 68 79  1  0  0  0
 71 72  2  0  0  0
 71 74  1  0  0  0
 71146  1  0  0  0
 72 73  1  0  0  0
 72 79  1  0  0  0
 73 75  2  0  0  0
 73 76  1  0  0  0
 74 84  1  0  0  0
 74 85  2  0  0  0
 75 80  1  0  0  0
 75 85  1  0  0  0
 76147  1  0  0  0
 76148  1  0  0  0
 76149  1  0  0  0
 77 81  1  0  0  0
 77150  1  0  0  0
 77151  1  0  0  0
 77152  1  0  0  0
 78153  1  0  0  0
 78154  1  0  0  0
 78155  1  0  0  0
 78 84  1  0  0  0
 79156  1  0  0  0
 79157  1  0  0  0
 80 81  1  0  0  0
 80158  1  0  0  0
 80159  1  0  0  0
 81160  1  0  0  0
 81161  1  0  0  0
 82 83  1  0  0  0
 82 84  1  0  0  0
 82162  1  0  0  0
 82163  1  0  0  0
 83 86  1  0  0  0
 83164  1  0  0  0
 83165  1  0  0  0
 84166  1  0  0  0
 86167  1  0  0  0
M  ISO  4   1 100  68 101  79 101  86 100
M  END
> <chiral flag>
0

> <version>
0

> <s_m_source_file>
/data/baiqing/PycharmProjects/Reinvent-master-3.2/result/LINK_invent/BTK/process_docking_weight1_custom_sum_contain_oxygen_bond_distance_aromatic_linkinvent_7_9_3/rearranged_h_0089.sdf

> <i_m_source_file_index>
5

> <r_mmod_Potential_Energy-OPLS-2005>
63.9395027160645

> <r_mmod_Stretch_Energy-OPLS-2005>
126.456809997559

> <r_mmod_Bend_Energy-OPLS-2005>
215.37141418457

> <r_mmod_Torsional_Energy-OPLS-2005>
225.551513671875

> <r_mmod_Improper_Torsional_Energy-OPLS-2005>
7.12859916687012

> <r_mmod_Van_der_Waal_Energy-OPLS-2005>
136.694610595703

> <r_mmod_Electrostatic_Energy-OPLS-2005>
-522.453002929688

> <r_mmod_Solvation_Energy-OPLS-2005>
-213.677124023438

> <b_mmod_Minimization_Converged-OPLS-2005>
0

> <r_mmod_RMS_Derivative-OPLS-2005>
2.30318522453308

$$$$
5
                    3D
 Structure written by MMmdl.
161169  0  0  1  0            999 V2000
  -30.5253  -15.0376   20.3356 C   0  0  0  0  0  0
  -30.4335  -12.6257   19.5112 C   0  0  0  0  0  0
  -29.5232  -12.5290   18.2677 C   0  0  0  0  0  0
  -28.0586  -12.3023   18.6917 C   0  0  0  0  0  0
  -27.6183  -13.2587   19.8307 C   0  0  2  0  0  0
  -28.6673  -13.3414   20.9583 C   0  0  0  0  0  0
  -25.2385  -13.8238   20.5755 C   0  0  0  0  0  0
  -24.1715  -13.0386   20.9262 C   0  0  0  0  0  0
  -24.6380  -11.6914   20.8760 C   0  0  0  0  0  0
  -23.9085  -10.4253   21.0407 C   0  0  0  0  0  0
  -24.3611   -9.4171   21.9179 C   0  0  0  0  0  0
  -23.6271   -8.2208   22.0752 C   0  0  0  0  0  0
  -22.4270   -8.0268   21.3520 C   0  0  0  0  0  0
  -21.9897   -9.0233   20.4629 C   0  0  0  0  0  0
  -22.7255  -10.2103   20.3056 C   0  0  0  0  0  0
  -21.6819   -6.0734   22.5278 C   0  0  0  0  0  0
  -21.4031   -6.5635   23.8218 C   0  0  0  0  0  0
  -21.3665   -5.6789   24.9164 C   0  0  0  0  0  0
  -21.6044   -4.3049   24.7223 C   0  0  0  0  0  0
  -21.8802   -3.8152   23.4329 C   0  0  0  0  0  0
  -21.9188   -4.6971   22.3400 C   0  0  0  0  0  0
  -22.7736  -13.5170   21.1871 C   0  0  0  0  0  0
  -22.1638   -4.2178   21.0961 F   0  0  0  0  0  0
  -21.5624   -3.4523   25.7714 F   0  0  0  0  0  0
  -29.9283  -13.7669   20.3311 N   0  0  0  0  0  0
  -26.2829  -12.9479   20.3239 N   0  0  0  0  0  0
  -25.9313  -11.6597   20.5731 N   0  0  0  0  0  0
  -22.0371  -12.8181   22.0473 N   0  0  0  0  0  0
  -25.3896  -15.1977   20.4242 N   0  0  0  0  0  0
  -31.7448  -15.0654   20.1359 O   0  0  0  0  0  0
  -21.6622   -6.8874   21.4231 O   0  0  0  0  0  0
  -22.3424  -14.5444   20.6698 O   0  0  0  0  0  0
  -24.6619  -31.8479   23.1816 C   0  0  0  0  0  0
  -25.9376  -32.4727   23.8146 C   0  0  1  0  0  0
  -27.1639  -27.1094   20.0641 C   0  0  0  0  0  0
  -25.6136  -33.8507   24.2131 N   0  0  0  0  0  0
  -23.4516  -30.4796   21.5375 C   0  0  2  0  0  0
  -24.8672  -28.9063   20.1023 C   0  0  0  0  0  0
  -22.7602  -29.4667   22.4872 C   0  0  0  0  0  0
  -18.0354  -28.1465   22.8519 C   0  0  0  0  0  0
  -24.1473  -36.7231   23.2644 C   0  0  0  0  0  0
  -26.0140  -30.7076   21.3714 C   0  0  0  0  0  0
  -26.0661  -29.3222   20.6981 C   0  0  0  0  0  0
  -27.2202  -28.4442   20.6527 C   0  0  0  0  0  0
  -25.9187  -26.7924   19.4778 C   0  0  0  0  0  0
  -24.8071  -27.6539   19.4850 C   0  0  0  0  0  0
  -23.6642  -29.8268   20.1533 C   0  0  0  0  0  0
  -25.4126  -36.3084   24.0323 C   0  0  1  0  0  0
  -20.5971  -28.3787   23.1217 C   0  0  2  0  0  0
  -20.6899  -26.9490   22.5396 C   0  0  0  0  0  0
  -19.5840  -26.6419   21.5251 C   0  0  0  0  0  0
  -18.2000  -26.8006   22.1640 C   0  0  0  0  0  0
  -19.1629  -28.8927   23.2869 C   0  0  0  0  0  0
  -18.9564  -30.1523   23.8883 C   0  0  0  0  0  0
  -17.6585  -30.6647   24.0580 C   0  0  0  0  0  0
  -25.9111  -34.9462   23.5003 C   0  0  0  0  0  0
  -16.5452  -29.9161   23.6379 C   0  0  0  0  0  0
  -16.7348  -28.6582   23.0372 C   0  0  0  0  0  0
  -26.4568  -31.6617   25.0633 C   0  0  0  0  0  0
  -25.3607  -31.3942   26.1234 C   0  0  0  0  0  0
  -27.0453  -30.3059   24.6171 C   0  0  0  0  0  0
  -27.6109  -32.4318   25.7445 C   0  0  0  0  0  0
  -27.5574  -37.1769   24.8468 C   0  0  0  0  0  0
  -21.4315  -29.3115   22.3561 N   0  0  0  0  0  0
  -26.4279  -37.3822   23.9446 N   0  0  0  0  0  0
  -24.7311  -31.0275   22.0884 N   0  0  0  0  0  0
  -23.4221  -28.8203   23.3009 O   0  0  0  0  0  0
  -28.2057  -26.1037   20.0641 O   0  0  0  0  0  0
  -26.5643  -34.8998   22.4540 O   0  0  0  0  0  0
  -23.5744  -32.1408   23.7045 O   0  0  0  0  0  0
  -31.2911  -22.4629   20.3201 C   0  0  0  0  0  0
  -30.8803  -21.1253   20.1273 C   0  0  0  0  0  0
  -30.3814  -23.5529   20.3430 C   0  0  0  0  0  0
  -29.5219  -20.7978   19.9985 C   0  0  0  0  0  0
  -29.0252  -23.3148   19.9966 C   0  0  0  0  0  0
  -30.1244  -25.4144   22.0951 C   0  0  0  0  0  0
  -31.2227  -25.9573   19.7632 C   0  0  0  0  0  0
  -27.9525  -24.6137   18.0748 C   0  0  0  0  0  0
  -29.0945  -19.1824   20.1445 C   0  0  0  0  0  0
  -30.1219  -17.8079   20.0368 C   0  0  0  0  0  0
  -30.8961  -24.9119   20.8475 C   0  0  0  0  0  0
  -28.0182  -24.5963   19.6207 C   0  0  1  0  0  0
  -28.6412  -21.9291   19.8747 N   0  0  0  0  0  0
  -29.7593  -16.2606   20.3188 N   0  0  0  0  0  0
  -31.4737  -12.7658   19.2231 H   0  0  0  0  0  0
  -30.4021  -11.6923   20.0809 H   0  0  0  0  0  0
  -29.8496  -11.7178   17.6190 H   0  0  0  0  0  0
  -29.5992  -13.4469   17.6835 H   0  0  0  0  0  0
  -27.9695  -11.2677   19.0309 H   0  0  0  0  0  0
  -27.3927  -12.3935   17.8350 H   0  0  0  0  0  0
  -27.5578  -14.2447   19.3739 H   0  0  0  0  0  0
  -28.7734  -12.3758   21.4521 H   0  0  0  0  0  0
  -28.3620  -14.0469   21.7318 H   0  0  0  0  0  0
  -25.2719   -9.5662   22.4789 H   0  0  0  0  0  0
  -23.9954   -7.4618   22.7482 H   0  0  0  0  0  0
  -21.0810   -8.8760   19.8947 H   0  0  0  0  0  0
  -22.3677  -10.9645   19.6199 H   0  0  0  0  0  0
  -21.2037   -7.6148   23.9745 H   0  0  0  0  0  0
  -21.1504   -6.0501   25.9083 H   0  0  0  0  0  0
  -22.0592   -2.7617   23.2812 H   0  0  0  0  0  0
  -22.3950  -11.9885   22.4919 H   0  0  0  0  0  0
  -21.1010  -13.1262   22.2647 H   0  0  0  0  0  0
  -24.5987  -15.8239   20.5479 H   0  0  0  0  0  0
  -26.2197  -15.6699   20.0836 H   0  0  0  0  0  0
  -26.7420  -32.5264   23.0815 H   0  0  0  0  0  0
  -25.0470  -33.9489   25.0424 H   0  0  0  0  0  0
  -22.7637  -31.3169   21.3886 H   0  0  0  0  0  0
  -23.3816  -35.9502   23.3367 H   0  0  0  0  0  0
  -24.3578  -36.8766   22.2059 H   0  0  0  0  0  0
  -23.7078  -37.6400   23.6576 H   0  0  0  0  0  0
  -26.1739  -31.4581   20.5971 H   0  0  0  0  0  0
  -26.8908  -30.7441   22.0079 H   0  0  0  0  0  0
  -28.1435  -28.7711   21.1074 H   0  0  0  0  0  0
  -25.7329  -25.8335   19.0235 H   0  0  0  0  0  0
  -23.8747  -27.3240   19.0413 H   0  0  0  0  0  0
  -23.8215  -30.6058   19.4049 H   0  0  0  0  0  0
  -22.7605  -29.3025   19.8406 H   0  0  0  0  0  0
  -25.1288  -36.1930   25.0821 H   0  0  0  0  0  0
  -21.0095  -28.3416   24.1324 H   0  0  0  0  0  0
  -20.5966  -26.2398   23.3635 H   0  0  0  0  0  0
  -21.6744  -26.7618   22.1068 H   0  0  0  0  0  0
  -19.7038  -25.6327   21.1304 H   0  0  0  0  0  0
  -19.6789  -27.3223   20.6771 H   0  0  0  0  0  0
  -17.4310  -26.6831   21.3993 H   0  0  0  0  0  0
  -18.0323  -26.0136   22.9010 H   0  0  0  0  0  0
  -19.8046  -30.7341   24.2237 H   0  0  0  0  0  0
  -17.5152  -31.6317   24.5189 H   0  0  0  0  0  0
  -15.5468  -30.3071   23.7714 H   0  0  0  0  0  0
  -15.8752  -28.0897   22.7093 H   0  0  0  0  0  0
  -24.5721  -30.7391   25.7479 H   0  0  0  0  0  0
  -24.8849  -32.3206   26.4485 H   0  0  0  0  0  0
  -25.7697  -30.9147   27.0120 H   0  0  0  0  0  0
  -26.3081  -29.6793   24.1122 H   0  0  0  0  0  0
  -27.4187  -29.7347   25.4684 H   0  0  0  0  0  0
  -27.8910  -30.4528   23.9442 H   0  0  0  0  0  0
  -27.2736  -33.3610   26.2060 H   0  0  0  0  0  0
  -28.3899  -32.6869   25.0236 H   0  0  0  0  0  0
  -28.0771  -31.8366   26.5323 H   0  0  0  0  0  0
  -28.2599  -38.0076   24.7626 H   0  0  0  0  0  0
  -28.1052  -36.2615   24.6160 H   0  0  0  0  0  0
  -27.2292  -37.1239   25.8866 H   0  0  0  0  0  0
  -20.9587  -29.8841   21.6735 H   0  0  0  0  0  0
  -26.0191  -38.2900   24.1538 H   0  0  0  0  0  0
  -32.3413  -22.6429   20.5103 H   0  0  0  0  0  0
  -31.6267  -20.3435   20.1779 H   0  0  0  0  0  0
  -30.4034  -24.8430   22.9821 H   0  0  0  0  0  0
  -29.0450  -25.2813   22.0251 H   0  0  0  0  0  0
  -30.3176  -26.4689   22.2982 H   0  0  0  0  0  0
  -31.9702  -25.5580   19.0733 H   0  0  0  0  0  0
  -31.6597  -26.8489   20.2138 H   0  0  0  0  0  0
  -30.3815  -26.3003   19.1701 H   0  0  0  0  0  0
  -27.0744  -25.1001   17.6588 H   0  0  0  0  0  0
  -28.8226  -25.1292   17.6753 H   0  0  0  0  0  0
  -27.9562  -23.6035   17.6628 H   0  0  0  0  0  0
  -28.2428  -19.0203   19.4779 H   0  0  0  0  0  0
  -28.6752  -19.1310   21.1494 H   0  0  0  0  0  0
  -30.9784  -18.0300   20.6720 H   0  0  0  0  0  0
  -30.5087  -17.8304   19.0155 H   0  0  0  0  0  0
  -31.8893  -24.7190   21.2480 H   0  0  0  0  0  0
  -27.0499  -24.2730   19.9947 H   0  0  0  0  0  0
  -28.7673  -16.0982   20.4035 H   0  0  0  0  0  0
  1 25  1  0  0  0
  1 30  2  0  0  0
  1 84  1  0  0  0
  2  3  1  0  0  0
  2 25  1  0  0  0
  2 85  1  0  0  0
  2 86  1  0  0  0
  3  4  1  0  0  0
  3 87  1  0  0  0
  3 88  1  0  0  0
  4  5  1  0  0  0
  4 89  1  0  0  0
  4 90  1  0  0  0
  5  6  1  0  0  0
  5 26  1  0  0  0
  5 91  1  0  0  0
  6 25  1  0  0  0
  6 92  1  0  0  0
  6 93  1  0  0  0
  7  8  2  0  0  0
  7 26  1  0  0  0
  7 29  1  0  0  0
  8  9  1  0  0  0
  8 22  1  0  0  0
  9 10  1  0  0  0
  9 27  2  0  0  0
 10 11  2  0  0  0
 10 15  1  0  0  0
 11 12  1  0  0  0
 11 94  1  0  0  0
 12 13  2  0  0  0
 12 95  1  0  0  0
 13 14  1  0  0  0
 13 31  1  0  0  0
 14 15  2  0  0  0
 14 96  1  0  0  0
 15 97  1  0  0  0
 16 17  2  0  0  0
 16 21  1  0  0  0
 16 31  1  0  0  0
 17 18  1  0  0  0
 17 98  1  0  0  0
 18 19  2  0  0  0
 18 99  1  0  0  0
 19 20  1  0  0  0
 19 24  1  0  0  0
 20 21  2  0  0  0
 20100  1  0  0  0
 21 23  1  0  0  0
 22 28  1  0  0  0
 22 32  2  0  0  0
 26 27  1  0  0  0
 28101  1  0  0  0
 28102  1  0  0  0
 29103  1  0  0  0
 29104  1  0  0  0
 33 34  1  0  0  0
 33 66  1  0  0  0
 33 70  2  0  0  0
 34 36  1  0  0  0
 34 59  1  0  0  0
 34105  1  0  0  0
 35 44  2  0  0  0
 35 45  1  0  0  0
 35 68  1  0  0  0
 36 56  1  0  0  0
 36106  1  0  0  0
 37 39  1  0  0  0
 37 47  1  0  0  0
 37 66  1  0  0  0
 37107  1  0  0  0
 38 43  2  0  0  0
 38 46  1  0  0  0
 38 47  1  0  0  0
 39 64  1  0  0  0
 39 67  2  0  0  0
 40 52  1  0  0  0
 40 53  2  0  0  0
 40 58  1  0  0  0
 41108  1  0  0  0
 41109  1  0  0  0
 41110  1  0  0  0
 41 48  1  0  0  0
 42 43  1  0  0  0
 42 66  1  0  0  0
 42111  1  0  0  0
 42112  1  0  0  0
 43 44  1  0  0  0
 44113  1  0  0  0
 45 46  2  0  0  0
 45114  1  0  0  0
 46115  1  0  0  0
 47116  1  0  0  0
 47117  1  0  0  0
 48 56  1  0  0  0
 48 65  1  0  0  0
 48118  1  0  0  0
 49 50  1  0  0  0
 49 53  1  0  0  0
 49 64  1  0  0  0
 49119  1  0  0  0
 50 51  1  0  0  0
 50120  1  0  0  0
 50121  1  0  0  0
 51 52  1  0  0  0
 51122  1  0  0  0
 51123  1  0  0  0
 52124  1  0  0  0
 52125  1  0  0  0
 53 54  1  0  0  0
 54 55  2  0  0  0
 54126  1  0  0  0
 55 57  1  0  0  0
 55127  1  0  0  0
 56 69  2  0  0  0
 57 58  2  0  0  0
 57128  1  0  0  0
 58129  1  0  0  0
 59 60  1  0  0  0
 59 61  1  0  0  0
 59 62  1  0  0  0
 60130  1  0  0  0
 60131  1  0  0  0
 60132  1  0  0  0
 61133  1  0  0  0
 61134  1  0  0  0
 61135  1  0  0  0
 62136  1  0  0  0
 62137  1  0  0  0
 62138  1  0  0  0
 63 65  1  0  0  0
 63139  1  0  0  0
 63140  1  0  0  0
 63141  1  0  0  0
 64142  1  0  0  0
 65143  1  0  0  0
 68 82  1  0  0  0
 71 72  2  0  0  0
 71 73  1  0  0  0
 71144  1  0  0  0
 72 74  1  0  0  0
 72145  1  0  0  0
 73 75  2  0  0  0
 73 81  1  0  0  0
 74 79  1  0  0  0
 74 83  2  0  0  0
 75 82  1  0  0  0
 75 83  1  0  0  0
 76146  1  0  0  0
 76147  1  0  0  0
 76148  1  0  0  0
 76 81  1  0  0  0
 77 81  1  0  0  0
 77149  1  0  0  0
 77150  1  0  0  0
 77151  1  0  0  0
 78152  1  0  0  0
 78153  1  0  0  0
 78154  1  0  0  0
 78 82  1  0  0  0
 79 80  1  0  0  0
 79155  1  0  0  0
 79156  1  0  0  0
 80 84  1  0  0  0
 80157  1  0  0  0
 80158  1  0  0  0
 81159  1  0  0  0
 82160  1  0  0  0
 84161  1  0  0  0
M  ISO  4   1 100  68 101  82 101  84 100
M  END
> <chiral flag>
0

> <version>
0

> <s_m_source_file>
/data/baiqing/PycharmProjects/Reinvent-master-3.2/result/LINK_invent/BTK/process_docking_weight1_custom_sum_contain_oxygen_bond_distance_aromatic_linkinvent_7_9_3/rearranged_h_0089.sdf

> <i_m_source_file_index>
6

> <r_mmod_Potential_Energy-OPLS-2005>
536.543212890625

> <r_mmod_Stretch_Energy-OPLS-2005>
329.517608642578

> <r_mmod_Bend_Energy-OPLS-2005>
295.930694580078

> <r_mmod_Torsional_Energy-OPLS-2005>
222.725769042969

> <r_mmod_Improper_Torsional_Energy-OPLS-2005>
6.46340274810791

> <r_mmod_Van_der_Waal_Energy-OPLS-2005>
141.850128173828

> <r_mmod_Electrostatic_Energy-OPLS-2005>
-482.762542724609

> <r_mmod_Solvation_Energy-OPLS-2005>
-222.942764282227

> <b_mmod_Minimization_Converged-OPLS-2005>
0

> <r_mmod_RMS_Derivative-OPLS-2005>
9.03212642669678

$$$$
6
                    3D
 Structure written by MMmdl.
175183  0  0  1  0            999 V2000
  -30.7671  -14.6122   20.5302 C   0  0  0  0  0  0
  -30.4077  -12.3812   19.4886 C   0  0  0  0  0  0
  -29.5078  -12.5183   18.2472 C   0  0  0  0  0  0
  -28.0326  -12.3610   18.6557 C   0  0  0  0  0  0
  -27.6563  -13.2422   19.8776 C   0  0  2  0  0  0
  -28.7032  -13.1566   21.0159 C   0  0  0  0  0  0
  -25.2560  -13.8255   20.5776 C   0  0  0  0  0  0
  -24.1833  -13.0458   20.9229 C   0  0  0  0  0  0
  -24.6435  -11.6956   20.8747 C   0  0  0  0  0  0
  -23.9106  -10.4306   21.0404 C   0  0  0  0  0  0
  -24.3646   -9.4214   21.9187 C   0  0  0  0  0  0
  -23.6308   -8.2256   22.0752 C   0  0  0  0  0  0
  -22.4290   -8.0303   21.3543 C   0  0  0  0  0  0
  -21.9937   -9.0275   20.4642 C   0  0  0  0  0  0
  -22.7271  -10.2157   20.3051 C   0  0  0  0  0  0
  -21.6861   -6.0762   22.5285 C   0  0  0  0  0  0
  -21.4016   -6.5660   23.8216 C   0  0  0  0  0  0
  -21.3660   -5.6802   24.9173 C   0  0  0  0  0  0
  -21.6043   -4.3067   24.7218 C   0  0  0  0  0  0
  -21.8811   -3.8154   23.4338 C   0  0  0  0  0  0
  -21.9191   -4.6984   22.3400 C   0  0  0  0  0  0
  -22.7837  -13.5232   21.1854 C   0  0  0  0  0  0
  -22.1663   -4.2160   21.0982 F   0  0  0  0  0  0
  -21.5627   -3.4543   25.7731 F   0  0  0  0  0  0
  -30.0309  -13.4478   20.4509 N   0  0  0  0  0  0
  -26.3012  -12.9480   20.3435 N   0  0  0  0  0  0
  -25.9386  -11.6607   20.5834 N   0  0  0  0  0  0
  -22.0484  -12.8197   22.0412 N   0  0  0  0  0  0
  -25.4232  -15.1967   20.4245 N   0  0  0  0  0  0
  -31.8553  -14.6290   19.9582 O   0  0  0  0  0  0
  -21.6651   -6.8902   21.4244 O   0  0  0  0  0  0
  -22.3523  -14.5537   20.6718 O   0  0  0  0  0  0
  -24.6190  -31.8626   23.2116 C   0  0  0  0  0  0
  -25.9046  -32.4792   23.8433 C   0  0  1  0  0  0
  -27.2131  -27.3335   20.1123 C   0  0  0  0  0  0
  -25.5855  -33.8568   24.2368 N   0  0  0  0  0  0
  -23.4125  -30.4905   21.5508 C   0  0  2  0  0  0
  -24.8606  -28.9571   20.1052 C   0  0  0  0  0  0
  -22.7424  -29.4665   22.4944 C   0  0  0  0  0  0
  -18.0253  -28.1373   22.8473 C   0  0  0  0  0  0
  -24.1473  -36.7375   23.2643 C   0  0  0  0  0  0
  -25.9484  -30.7976   21.3772 C   0  0  0  0  0  0
  -26.0248  -29.4242   20.7268 C   0  0  0  0  0  0
  -27.2020  -28.6199   20.7352 C   0  0  0  0  0  0
  -26.0394  -26.9466   19.4234 C   0  0  0  0  0  0
  -24.8709  -27.7235   19.4414 C   0  0  0  0  0  0
  -23.6216  -29.8258   20.1653 C   0  0  0  0  0  0
  -25.4082  -36.3097   24.0342 C   0  0  1  0  0  0
  -20.5833  -28.3691   23.1249 C   0  0  2  0  0  0
  -20.6721  -26.9413   22.5377 C   0  0  0  0  0  0
  -19.5722  -26.6372   21.5155 C   0  0  0  0  0  0
  -18.1921  -26.7914   22.1594 C   0  0  0  0  0  0
  -19.1500  -28.8834   23.2882 C   0  0  0  0  0  0
  -18.9435  -30.1405   23.8932 C   0  0  0  0  0  0
  -17.6448  -30.6586   24.0503 C   0  0  0  0  0  0
  -25.8989  -34.9431   23.5161 C   0  0  0  0  0  0
  -16.5330  -29.9066   23.6307 C   0  0  0  0  0  0
  -16.7235  -28.6460   23.0369 C   0  0  0  0  0  0
  -26.4456  -31.6561   25.0780 C   0  0  0  0  0  0
  -25.3693  -31.3621   26.1506 C   0  0  0  0  0  0
  -27.0331  -30.2991   24.6200 C   0  0  0  0  0  0
  -27.6054  -32.4250   25.7527 C   0  0  0  0  0  0
  -27.5589  -37.1794   24.8446 C   0  0  0  0  0  0
  -21.4137  -29.3082   22.3686 N   0  0  0  0  0  0
  -26.4283  -37.3787   23.9416 N   0  0  0  0  0  0
  -24.6802  -31.0669   22.1047 N   0  0  0  0  0  0
  -23.4170  -28.8182   23.2989 O   0  0  0  0  0  0
  -28.3105  -26.4630   20.2015 O   0  0  0  0  0  0
  -26.5602  -34.8896   22.4751 O   0  0  0  0  0  0
  -23.5360  -32.1411   23.7436 O   0  0  0  0  0  0
  -32.6611  -16.4073   24.4220 C   0  0  0  0  0  0
  -33.8310  -17.3738   22.5415 C   0  0  0  0  0  0
  -33.7945  -17.0561   23.9073 C   0  0  0  0  0  0
  -31.5761  -16.0589   23.5839 C   0  0  0  0  0  0
  -32.7532  -17.0600   21.6826 C   0  0  0  0  0  0
  -31.5891  -16.3797   22.1889 C   0  0  0  0  0  0
  -34.9754  -17.4007   24.8021 C   0  0  0  0  0  0
  -30.4185  -15.3149   24.2343 C   0  0  0  0  0  0
  -32.9507  -17.5093   20.2348 C   0  0  0  0  0  0
  -29.2589  -22.3396   18.5127 C   0  0  0  0  0  0
  -29.8347  -17.1951   20.4073 C   0  0  0  0  0  0
  -28.9681  -23.8864   20.5389 C   0  0  0  0  0  0
  -29.6775  -18.6228   21.1144 C   0  0  0  0  0  0
  -29.3863  -21.2010   20.8337 C   0  0  0  0  0  0
  -28.0928  -25.0374   19.8756 C   0  0  0  0  0  0
  -30.3777  -15.9642   21.2859 C   0  0  1  0  0  0
  -28.7653  -22.4031   19.9737 C   0  0  2  0  0  0
  -29.3264  -19.8060   20.2281 N   0  3  0  0  0  0
  -31.4561  -12.4121   19.1916 H   0  0  0  0  0  0
  -30.2761  -11.4041   19.9516 H   0  0  0  0  0  0
  -29.7739  -11.7669   17.5013 H   0  0  0  0  0  0
  -29.6603  -13.4932   17.7775 H   0  0  0  0  0  0
  -27.8710  -11.3076   18.8957 H   0  0  0  0  0  0
  -27.3767  -12.5833   17.8117 H   0  0  0  0  0  0
  -27.6636  -14.2725   19.5225 H   0  0  0  0  0  0
  -28.7018  -12.1617   21.4640 H   0  0  0  0  0  0
  -28.4408  -13.8418   21.8194 H   0  0  0  0  0  0
  -25.2798   -9.5701   22.4764 H   0  0  0  0  0  0
  -24.0017   -7.4655   22.7469 H   0  0  0  0  0  0
  -21.0874   -8.8815   19.8938 H   0  0  0  0  0  0
  -22.3742  -10.9709   19.6163 H   0  0  0  0  0  0
  -21.2019   -7.6171   23.9721 H   0  0  0  0  0  0
  -21.1496   -6.0539   25.9081 H   0  0  0  0  0  0
  -22.0592   -2.7615   23.2836 H   0  0  0  0  0  0
  -22.4132  -11.9871   22.4786 H   0  0  0  0  0  0
  -21.1087  -13.1200   22.2602 H   0  0  0  0  0  0
  -24.6610  -15.8530   20.5513 H   0  0  0  0  0  0
  -26.2818  -15.6398   20.1240 H   0  0  0  0  0  0
  -26.7133  -32.5484   23.1194 H   0  0  0  0  0  0
  -24.9790  -33.9692   25.0362 H   0  0  0  0  0  0
  -22.7059  -31.3118   21.4153 H   0  0  0  0  0  0
  -23.3681  -35.9762   23.3231 H   0  0  0  0  0  0
  -24.3568  -36.9081   22.2073 H   0  0  0  0  0  0
  -23.7284  -37.6574   23.6716 H   0  0  0  0  0  0
  -26.0518  -31.5508   20.5952 H   0  0  0  0  0  0
  -26.8402  -30.8693   21.9908 H   0  0  0  0  0  0
  -28.0822  -28.9611   21.2588 H   0  0  0  0  0  0
  -25.9911  -26.0324   18.8524 H   0  0  0  0  0  0
  -23.9904  -27.3737   18.9201 H   0  0  0  0  0  0
  -23.7104  -30.5948   19.3965 H   0  0  0  0  0  0
  -22.7469  -29.2365   19.8885 H   0  0  0  0  0  0
  -25.1239  -36.1947   25.0832 H   0  0  0  0  0  0
  -20.9925  -28.3267   24.1363 H   0  0  0  0  0  0
  -20.5533  -26.2356   23.3600 H   0  0  0  0  0  0
  -21.6616  -26.7415   22.1257 H   0  0  0  0  0  0
  -19.6879  -25.6268   21.1215 H   0  0  0  0  0  0
  -19.6622  -27.3133   20.6623 H   0  0  0  0  0  0
  -17.4178  -26.6581   21.4008 H   0  0  0  0  0  0
  -18.0357  -26.0072   22.8996 H   0  0  0  0  0  0
  -19.7920  -30.7141   24.2428 H   0  0  0  0  0  0
  -17.5010  -31.6281   24.5073 H   0  0  0  0  0  0
  -15.5320  -30.2947   23.7656 H   0  0  0  0  0  0
  -15.8630  -28.0730   22.7141 H   0  0  0  0  0  0
  -24.5988  -30.6842   25.7831 H   0  0  0  0  0  0
  -24.8738  -32.2725   26.4876 H   0  0  0  0  0  0
  -25.8070  -30.8885   27.0307 H   0  0  0  0  0  0
  -26.2937  -29.6675   24.1277 H   0  0  0  0  0  0
  -27.4110  -29.7294   25.4699 H   0  0  0  0  0  0
  -27.8761  -30.4331   23.9428 H   0  0  0  0  0  0
  -27.2799  -33.3639   26.2026 H   0  0  0  0  0  0
  -28.3937  -32.6613   25.0364 H   0  0  0  0  0  0
  -28.0655  -31.8380   26.5501 H   0  0  0  0  0  0
  -28.2508  -38.0173   24.7565 H   0  0  0  0  0  0
  -28.1174  -36.2697   24.6152 H   0  0  0  0  0  0
  -27.2312  -37.1314   25.8844 H   0  0  0  0  0  0
  -20.9311  -29.8877   21.6959 H   0  0  0  0  0  0
  -26.0137  -38.2848   24.1399 H   0  0  0  0  0  0
  -32.6346  -16.1630   25.4762 H   0  0  0  0  0  0
  -34.7078  -17.8702   22.1442 H   0  0  0  0  0  0
  -34.7345  -17.2836   25.8592 H   0  0  0  0  0  0
  -35.2947  -18.4322   24.6469 H   0  0  0  0  0  0
  -35.8230  -16.7507   24.5783 H   0  0  0  0  0  0
  -30.6280  -15.0860   25.2801 H   0  0  0  0  0  0
  -30.2361  -14.3646   23.7306 H   0  0  0  0  0  0
  -29.5093  -15.9161   24.2138 H   0  0  0  0  0  0
  -34.0130  -17.5757   19.9937 H   0  0  0  0  0  0
  -32.5259  -18.4992   20.0815 H   0  0  0  0  0  0
  -32.5380  -16.8443   19.4838 H   0  0  0  0  0  0
  -28.8744  -23.1534   17.9009 H   0  0  0  0  0  0
  -28.9334  -21.4214   18.0222 H   0  0  0  0  0  0
  -30.3482  -22.3817   18.4630 H   0  0  0  0  0  0
  -30.4540  -17.3218   19.5261 H   0  0  0  0  0  0
  -28.8708  -16.9074   19.9885 H   0  0  0  0  0  0
  -28.7370  -23.8850   21.6072 H   0  0  0  0  0  0
  -30.0253  -24.1467   20.4702 H   0  0  0  0  0  0
  -30.5923  -18.8713   21.6528 H   0  0  0  0  0  0
  -28.9056  -18.5406   21.8832 H   0  0  0  0  0  0
  -28.8804  -21.1693   21.7993 H   0  0  0  0  0  0
  -30.4283  -21.4249   21.0580 H   0  0  0  0  0  0
  -27.0729  -24.7493   20.1267 H   0  0  0  0  0  0
  -28.1710  -24.9816   18.7910 H   0  0  0  0  0  0
  -29.5366  -15.7260   21.9262 H   0  0  0  0  0  0
  -27.6870  -22.2334   19.9456 H   0  0  0  0  0  0
  -28.3998  -19.6548   19.8635 H   0  0  0  0  0  0
  -29.9541  -19.8055   19.4411 H   0  0  0  0  0  0
  1 25  1  0  0  0
  1 30  2  0  0  0
  1 86  1  0  0  0
  2  3  1  0  0  0
  2 25  1  0  0  0
  2 89  1  0  0  0
  2 90  1  0  0  0
  3  4  1  0  0  0
  3 91  1  0  0  0
  3 92  1  0  0  0
  4  5  1  0  0  0
  4 93  1  0  0  0
  4 94  1  0  0  0
  5  6  1  0  0  0
  5 26  1  0  0  0
  5 95  1  0  0  0
  6 25  1  0  0  0
  6 96  1  0  0  0
  6 97  1  0  0  0
  7  8  2  0  0  0
  7 26  1  0  0  0
  7 29  1  0  0  0
  8  9  1  0  0  0
  8 22  1  0  0  0
  9 10  1  0  0  0
  9 27  2  0  0  0
 10 11  2  0  0  0
 10 15  1  0  0  0
 11 12  1  0  0  0
 11 98  1  0  0  0
 12 13  2  0  0  0
 12 99  1  0  0  0
 13 14  1  0  0  0
 13 31  1  0  0  0
 14 15  2  0  0  0
 14100  1  0  0  0
 15101  1  0  0  0
 16 17  2  0  0  0
 16 21  1  0  0  0
 16 31  1  0  0  0
 17 18  1  0  0  0
 17102  1  0  0  0
 18 19  2  0  0  0
 18103  1  0  0  0
 19 20  1  0  0  0
 19 24  1  0  0  0
 20 21  2  0  0  0
 20104  1  0  0  0
 21 23  1  0  0  0
 22 28  1  0  0  0
 22 32  2  0  0  0
 26 27  1  0  0  0
 28105  1  0  0  0
 28106  1  0  0  0
 29107  1  0  0  0
 29108  1  0  0  0
 33 34  1  0  0  0
 33 66  1  0  0  0
 33 70  2  0  0  0
 34 36  1  0  0  0
 34 59  1  0  0  0
 34109  1  0  0  0
 35 44  2  0  0  0
 35 45  1  0  0  0
 35 68  1  0  0  0
 36 56  1  0  0  0
 36110  1  0  0  0
 37 39  1  0  0  0
 37 47  1  0  0  0
 37 66  1  0  0  0
 37111  1  0  0  0
 38 43  2  0  0  0
 38 46  1  0  0  0
 38 47  1  0  0  0
 39 64  1  0  0  0
 39 67  2  0  0  0
 40 52  1  0  0  0
 40 53  2  0  0  0
 40 58  1  0  0  0
 41112  1  0  0  0
 41113  1  0  0  0
 41114  1  0  0  0
 41 48  1  0  0  0
 42 43  1  0  0  0
 42 66  1  0  0  0
 42115  1  0  0  0
 42116  1  0  0  0
 43 44  1  0  0  0
 44117  1  0  0  0
 45 46  2  0  0  0
 45118  1  0  0  0
 46119  1  0  0  0
 47120  1  0  0  0
 47121  1  0  0  0
 48 56  1  0  0  0
 48 65  1  0  0  0
 48122  1  0  0  0
 49 50  1  0  0  0
 49 53  1  0  0  0
 49 64  1  0  0  0
 49123  1  0  0  0
 50 51  1  0  0  0
 50124  1  0  0  0
 50125  1  0  0  0
 51 52  1  0  0  0
 51126  1  0  0  0
 51127  1  0  0  0
 52128  1  0  0  0
 52129  1  0  0  0
 53 54  1  0  0  0
 54 55  2  0  0  0
 54130  1  0  0  0
 55 57  1  0  0  0
 55131  1  0  0  0
 56 69  2  0  0  0
 57 58  2  0  0  0
 57132  1  0  0  0
 58133  1  0  0  0
 59 60  1  0  0  0
 59 61  1  0  0  0
 59 62  1  0  0  0
 60134  1  0  0  0
 60135  1  0  0  0
 60136  1  0  0  0
 61137  1  0  0  0
 61138  1  0  0  0
 61139  1  0  0  0
 62140  1  0  0  0
 62141  1  0  0  0
 62142  1  0  0  0
 63 65  1  0  0  0
 63143  1  0  0  0
 63144  1  0  0  0
 63145  1  0  0  0
 64146  1  0  0  0
 65147  1  0  0  0
 68 85  1  0  0  0
 71 73  2  0  0  0
 71 74  1  0  0  0
 71148  1  0  0  0
 72 73  1  0  0  0
 72 75  2  0  0  0
 72149  1  0  0  0
 73 77  1  0  0  0
 74 76  2  0  0  0
 74 78  1  0  0  0
 75 76  1  0  0  0
 75 79  1  0  0  0
 76 86  1  0  0  0
 77150  1  0  0  0
 77151  1  0  0  0
 77152  1  0  0  0
 78153  1  0  0  0
 78154  1  0  0  0
 78155  1  0  0  0
 79156  1  0  0  0
 79157  1  0  0  0
 79158  1  0  0  0
 80159  1  0  0  0
 80160  1  0  0  0
 80161  1  0  0  0
 80 87  1  0  0  0
 81 83  1  0  0  0
 81162  1  0  0  0
 81163  1  0  0  0
 81 86  1  0  0  0
 82 85  1  0  0  0
 82 87  1  0  0  0
 82164  1  0  0  0
 82165  1  0  0  0
 83 88  1  0  0  0
 83166  1  0  0  0
 83167  1  0  0  0
 84 87  1  0  0  0
 84 88  1  0  0  0
 84168  1  0  0  0
 84169  1  0  0  0
 85170  1  0  0  0
 85171  1  0  0  0
 86172  1  0  0  0
 87173  1  0  0  0
 88174  1  0  0  0
 88175  1  0  0  0
M  CHG  1  88   1
M  ISO  4   1 100  68 101  85 101  86 100
M  END
> <chiral flag>
0

> <version>
0

> <s_m_source_file>
/data/baiqing/PycharmProjects/Reinvent-master-3.2/result/LINK_invent/BTK/process_docking_weight1_custom_sum_contain_oxygen_bond_distance_aromatic_linkinvent_7_9_3/rearranged_h_0089.sdf

> <i_m_source_file_index>
7

> <r_mmod_Potential_Energy-OPLS-2005>
-4.36019515991211

> <r_mmod_Stretch_Energy-OPLS-2005>
100.724250793457

> <r_mmod_Bend_Energy-OPLS-2005>
161.620483398438

> <r_mmod_Torsional_Energy-OPLS-2005>
190.631362915039

> <r_mmod_Improper_Torsional_Energy-OPLS-2005>
1.755854845047

> <r_mmod_Van_der_Waal_Energy-OPLS-2005>
158.612045288086

> <r_mmod_Electrostatic_Energy-OPLS-2005>
-217.177200317383

> <r_mmod_Solvation_Energy-OPLS-2005>
-450.277374267578

> <b_mmod_Minimization_Converged-OPLS-2005>
0

> <r_mmod_RMS_Derivative-OPLS-2005>
4.83594560623169

$$$$
7
                    3D
 Structure written by MMmdl.
173181  0  0  1  0            999 V2000
  -31.0530  -14.3836   21.3119 C   0  0  0  0  0  0
  -30.7662  -13.3826   19.1620 C   0  0  0  0  0  0
  -29.5019  -13.2194   17.8312 C   0  0  0  0  0  0
  -27.7699  -12.6661   18.1789 C   0  0  0  0  0  0
  -27.2228  -12.5293   20.0391 C   0  0  2  0  0  0
  -28.7164  -12.8240   21.4955 C   0  0  0  0  0  0
  -24.9040  -14.7911   21.0953 C   0  0  0  0  0  0
  -24.2363  -14.3538   21.1906 C   0  0  0  0  0  0
  -24.9788  -12.5217   20.1595 C   0  0  0  0  0  0
  -24.3472  -10.7789   20.4046 C   0  0  0  0  0  0
  -24.6099   -9.8025   21.5148 C   0  0  0  0  0  0
  -23.8306   -8.6188   21.9304 C   0  0  0  0  0  0
  -22.6285   -8.2411   21.2745 C   0  0  0  0  0  0
  -22.3071   -9.1297   20.2217 C   0  0  0  0  0  0
  -23.1416  -10.2382   19.8100 C   0  0  0  0  0  0
  -21.8144   -6.1985   22.5206 C   0  0  0  0  0  0
  -21.4921   -6.6424   23.8239 C   0  0  0  0  0  0
  -21.3916   -5.7295   24.9010 C   0  0  0  0  0  0
  -21.6003   -4.3538   24.6904 C   0  0  0  0  0  0
  -21.8779   -3.8873   23.3936 C   0  0  0  0  0  0
  -21.9638   -4.7964   22.3164 C   0  0  0  0  0  0
  -22.7637  -14.7442   21.8816 C   0  0  0  0  0  0
  -22.1840   -4.3012   21.0746 F   0  0  0  0  0  0
  -21.5365   -3.4825   25.7282 F   0  0  0  0  0  0
  -30.3404  -13.3551   20.8500 N   0  0  0  0  0  0
  -25.7421  -13.4044   19.9651 N   0  0  0  0  0  0
  -25.3721  -12.5833   19.0695 N   0  0  0  0  0  0
  -21.9813  -13.8247   22.5261 N   0  0  0  0  0  0
  -25.1051  -15.9671   21.8972 N   0  0  0  0  0  0
  -32.1301  -14.7523   20.8280 O   0  0  0  0  0  0
  -21.8338   -7.0807   21.4359 O   0  0  0  0  0  0
  -22.1232  -15.5700   21.2630 O   0  0  0  0  0  0
  -24.7791  -31.6493   23.0720 C   0  0  0  0  0  0
  -25.9868  -32.3720   23.7588 C   0  0  1  0  0  0
  -26.5501  -25.3993   20.1480 C   0  0  0  0  0  0
  -25.5996  -33.7641   24.1302 N   0  0  0  0  0  0
  -23.6053  -30.2524   21.4636 C   0  0  2  0  0  0
  -24.9100  -28.3553   20.0816 C   0  0  0  0  0  0
  -22.7965  -29.3626   22.4485 C   0  0  0  0  0  0
  -18.0352  -28.1431   22.8439 C   0  0  0  0  0  0
  -24.1493  -36.6805   23.2673 C   0  0  0  0  0  0
  -26.1763  -29.8979   21.5149 C   0  0  0  0  0  0
  -26.0819  -28.3513   20.8270 C   0  0  0  0  0  0
  -26.8749  -26.9322   20.8062 C   0  0  0  0  0  0
  -25.5183  -25.9583   19.3080 C   0  0  0  0  0  0
  -24.7551  -27.2038   19.2899 C   0  0  0  0  0  0
  -23.8612  -29.5147   20.1062 C   0  0  0  0  0  0
  -25.4170  -36.2460   24.0216 C   0  0  1  0  0  0
  -20.5980  -28.3764   23.1066 C   0  0  2  0  0  0
  -20.6731  -26.9360   22.5471 C   0  0  0  0  0  0
  -19.5740  -26.6318   21.5244 C   0  0  0  0  0  0
  -18.1926  -26.7960   22.1605 C   0  0  0  0  0  0
  -19.1629  -28.8947   23.2706 C   0  0  0  0  0  0
  -18.9536  -30.1520   23.8773 C   0  0  0  0  0  0
  -17.6519  -30.6600   24.0536 C   0  0  0  0  0  0
  -25.9234  -34.8883   23.4708 C   0  0  0  0  0  0
  -16.5401  -29.9080   23.6356 C   0  0  0  0  0  0
  -16.7336  -28.6500   23.0384 C   0  0  0  0  0  0
  -26.4760  -31.6322   25.0659 C   0  0  0  0  0  0
  -25.3595  -31.3873   26.1101 C   0  0  0  0  0  0
  -27.0860  -30.2605   24.7319 C   0  0  0  0  0  0
  -27.6005  -32.4478   25.7451 C   0  0  0  0  0  0
  -27.5563  -37.1490   24.8434 C   0  0  0  0  0  0
  -21.4558  -29.2828   22.3258 N   0  0  0  0  0  0
  -26.4170  -37.3389   23.9501 N   0  0  0  0  0  0
  -24.9084  -30.6704   22.0643 N   0  0  0  0  0  0
  -23.4023  -28.7368   23.3205 O   0  0  0  0  0  0
  -26.9329  -23.5508   20.0505 O   0  0  0  0  0  0
  -26.6061  -34.8709   22.4460 O   0  0  0  0  0  0
  -23.6660  -32.0227   23.5031 O   0  0  0  0  0  0
  -24.0909  -14.9269   18.9594 C   0  0  0  0  0  0
  -24.1307  -12.4643   22.1499 C   0  0  0  0  0  0
  -22.9239  -13.2168   19.9491 C   0  0  0  0  0  0
  -25.9185  -16.1012   19.5615 C   0  0  0  0  0  0
  -27.1162  -14.8952   20.9152 C   0  0  0  0  0  0
  -20.9097  -11.8898   16.8793 C   0  0  0  0  0  0
  -20.4001  -13.6738   19.5042 C   0  0  0  0  0  0
  -26.2550  -18.7238   17.9214 C   0  0  0  0  0  0
  -29.2983  -11.6357   19.6028 C   0  0  0  0  0  0
  -21.8650  -12.7527   17.7296 C   0  0  0  0  0  0
  -29.2695  -15.7517   19.7313 C   0  0  0  0  0  0
  -29.6574  -16.2850   21.1563 C   0  0  0  0  0  0
  -26.3615  -21.2210   19.9624 C   0  0  0  0  0  0
  -21.6088  -12.7678   19.2615 C   0  0  1  0  0  0
  -26.3501  -18.5722   19.4478 C   0  0  1  0  0  0
  -28.4825  -14.3738   19.7794 C   0  0  2  0  0  0
  -26.1305  -13.3278   22.2402 N   0  0  0  0  0  0
  -30.2857  -15.2434   21.9670 N   0  0  0  0  0  0
  -31.3855  -14.2013   18.8033 H   0  0  0  0  0  0
  -31.5231  -12.5953   19.0671 H   0  0  0  0  0  0
  -29.9370  -12.5521   17.0855 H   0  0  0  0  0  0
  -29.4700  -14.1787   17.3098 H   0  0  0  0  0  0
  -27.6121  -11.7032   17.6888 H   0  0  0  0  0  0
  -27.1284  -13.3196   17.5889 H   0  0  0  0  0  0
  -26.9821  -11.4844   20.3006 H   0  0  0  0  0  0
  -28.8299  -11.8877   22.0530 H   0  0  0  0  0  0
  -28.4910  -13.4749   22.3385 H   0  0  0  0  0  0
  -25.4519  -10.0319   22.1524 H   0  0  0  0  0  0
  -24.1730   -8.0355   22.7762 H   0  0  0  0  0  0
  -21.4357   -8.9094   19.6178 H   0  0  0  0  0  0
  -22.8557  -10.6774   18.8747 H   0  0  0  0  0  0
  -21.3242   -7.6952   24.0035 H   0  0  0  0  0  0
  -21.1598   -6.0894   25.8936 H   0  0  0  0  0  0
  -22.0150   -2.8298   23.2243 H   0  0  0  0  0  0
  -22.2836  -12.8912   22.7195 H   0  0  0  0  0  0
  -21.0176  -14.0618   22.7121 H   0  0  0  0  0  0
  -24.2663  -16.5062   22.0724 H   0  0  0  0  0  0
  -25.6699  -16.5011   21.2428 H   0  0  0  0  0  0
  -26.8032  -32.3997   23.0356 H   0  0  0  0  0  0
  -24.9846  -33.8513   24.9255 H   0  0  0  0  0  0
  -23.0000  -31.1321   21.2375 H   0  0  0  0  0  0
  -23.3893  -35.8985   23.2997 H   0  0  0  0  0  0
  -24.3598  -36.8877   22.2173 H   0  0  0  0  0  0
  -23.7087  -37.5756   23.7069 H   0  0  0  0  0  0
  -26.5844  -30.5492   20.7396 H   0  0  0  0  0  0
  -26.9692  -29.8681   22.2467 H   0  0  0  0  0  0
  -27.7425  -26.9335   21.4540 H   0  0  0  0  0  0
  -25.1199  -25.2234   18.6223 H   0  0  0  0  0  0
  -23.9139  -27.2083   18.6108 H   0  0  0  0  0  0
  -24.1797  -30.2509   19.3652 H   0  0  0  0  0  0
  -22.9157  -29.1176   19.7322 H   0  0  0  0  0  0
  -25.1416  -36.1034   25.0690 H   0  0  0  0  0  0
  -21.0036  -28.3440   24.1198 H   0  0  0  0  0  0
  -20.5486  -26.2397   23.3777 H   0  0  0  0  0  0
  -21.6592  -26.7155   22.1349 H   0  0  0  0  0  0
  -19.6858  -25.6203   21.1325 H   0  0  0  0  0  0
  -19.6728  -27.3084   20.6745 H   0  0  0  0  0  0
  -17.4213  -26.6772   21.3979 H   0  0  0  0  0  0
  -18.0233  -26.0114   22.8994 H   0  0  0  0  0  0
  -19.8022  -30.7367   24.2080 H   0  0  0  0  0  0
  -17.5076  -31.6274   24.5161 H   0  0  0  0  0  0
  -15.5398  -30.2940   23.7755 H   0  0  0  0  0  0
  -15.8735  -28.0777   22.7160 H   0  0  0  0  0  0
  -24.6030  -30.6905   25.7463 H   0  0  0  0  0  0
  -24.8478  -32.3103   26.3845 H   0  0  0  0  0  0
  -25.7622  -30.9587   27.0296 H   0  0  0  0  0  0
  -26.3511  -29.5686   24.3197 H   0  0  0  0  0  0
  -27.4719  -29.7760   25.6307 H   0  0  0  0  0  0
  -27.9368  -30.3526   24.0568 H   0  0  0  0  0  0
  -27.2443  -33.4029   26.1346 H   0  0  0  0  0  0
  -28.4116  -32.6632   25.0468 H   0  0  0  0  0  0
  -28.0352  -31.9098   26.5897 H   0  0  0  0  0  0
  -28.2271  -38.0065   24.7802 H   0  0  0  0  0  0
  -28.1351  -36.2617   24.5840 H   0  0  0  0  0  0
  -27.2357  -37.0573   25.8822 H   0  0  0  0  0  0
  -21.0040  -29.8353   21.6099 H   0  0  0  0  0  0
  -25.9870  -38.2326   24.1740 H   0  0  0  0  0  0
  -23.5332  -15.3932   18.1569 H   0  0  0  0  0  0
  -23.7958  -11.7472   22.8942 H   0  0  0  0  0  0
  -21.2247  -11.9200   15.8364 H   0  0  0  0  0  0
  -19.8822  -12.2616   16.9058 H   0  0  0  0  0  0
  -20.9060  -10.8358   17.1683 H   0  0  0  0  0  0
  -20.0121  -13.5497   20.5154 H   0  0  0  0  0  0
  -19.5972  -13.4288   18.7999 H   0  0  0  0  0  0
  -20.6869  -14.7168   19.3579 H   0  0  0  0  0  0
  -26.7357  -17.9015   17.3912 H   0  0  0  0  0  0
  -26.7497  -19.6398   17.5984 H   0  0  0  0  0  0
  -25.2184  -18.7722   17.5848 H   0  0  0  0  0  0
  -28.5993  -10.8005   19.5236 H   0  0  0  0  0  0
  -29.9224  -11.1628   20.3707 H   0  0  0  0  0  0
  -29.8691  -11.2265   18.7547 H   0  0  0  0  0  0
  -21.8395  -13.7765   17.3461 H   0  0  0  0  0  0
  -22.8827  -12.4104   17.5338 H   0  0  0  0  0  0
  -28.5933  -16.5050   19.3266 H   0  0  0  0  0  0
  -30.0798  -15.8024   19.0016 H   0  0  0  0  0  0
  -28.7858  -16.6289   21.7179 H   0  0  0  0  0  0
  -30.2962  -17.1632   21.0851 H   0  0  0  0  0  0
  -26.6523  -21.0739   21.0013 H   0  0  0  0  0  0
  -25.2837  -21.3696   19.9640 H   0  0  0  0  0  0
  -21.2819  -11.7941   19.6247 H   0  0  0  0  0  0
  -27.4145  -18.4675   19.6680 H   0  0  0  0  0  0
  -27.9306  -14.7145   18.9096 H   0  0  0  0  0  0
  -30.5649  -15.4746   22.9135 H   0  0  0  0  0  0
  1 25  1  0  0  0
  1 30  2  0  0  0
  1 88  1  0  0  0
  2  3  1  0  0  0
  2 25  1  0  0  0
  2 89  1  0  0  0
  2 90  1  0  0  0
  3  4  1  0  0  0
  3 91  1  0  0  0
  3 92  1  0  0  0
  4  5  1  0  0  0
  4 93  1  0  0  0
  4 94  1  0  0  0
  5  6  1  0  0  0
  5 26  1  0  0  0
  5 95  1  0  0  0
  6 25  1  0  0  0
  6 96  1  0  0  0
  6 97  1  0  0  0
  7  8  2  0  0  0
  7 26  1  0  0  0
  7 29  1  0  0  0
  8  9  1  0  0  0
  8 22  1  0  0  0
  9 10  1  0  0  0
  9 27  2  0  0  0
 10 11  2  0  0  0
 10 15  1  0  0  0
 11 12  1  0  0  0
 11 98  1  0  0  0
 12 13  2  0  0  0
 12 99  1  0  0  0
 13 14  1  0  0  0
 13 31  1  0  0  0
 14 15  2  0  0  0
 14100  1  0  0  0
 15101  1  0  0  0
 16 17  2  0  0  0
 16 21  1  0  0  0
 16 31  1  0  0  0
 17 18  1  0  0  0
 17102  1  0  0  0
 18 19  2  0  0  0
 18103  1  0  0  0
 19 20  1  0  0  0
 19 24  1  0  0  0
 20 21  2  0  0  0
 20104  1  0  0  0
 21 23  1  0  0  0
 22 28  1  0  0  0
 22 32  2  0  0  0
 26 27  1  0  0  0
 28105  1  0  0  0
 28106  1  0  0  0
 29107  1  0  0  0
 29108  1  0  0  0
 33 34  1  0  0  0
 33 66  1  0  0  0
 33 70  2  0  0  0
 34 36  1  0  0  0
 34 59  1  0  0  0
 34109  1  0  0  0
 35 44  2  0  0  0
 35 45  1  0  0  0
 35 68  1  0  0  0
 36 56  1  0  0  0
 36110  1  0  0  0
 37 39  1  0  0  0
 37 47  1  0  0  0
 37 66  1  0  0  0
 37111  1  0  0  0
 38 43  2  0  0  0
 38 46  1  0  0  0
 38 47  1  0  0  0
 39 64  1  0  0  0
 39 67  2  0  0  0
 40 52  1  0  0  0
 40 53  2  0  0  0
 40 58  1  0  0  0
 41112  1  0  0  0
 41113  1  0  0  0
 41114  1  0  0  0
 41 48  1  0  0  0
 42 43  1  0  0  0
 42 66  1  0  0  0
 42115  1  0  0  0
 42116  1  0  0  0
 43 44  1  0  0  0
 44117  1  0  0  0
 45 46  2  0  0  0
 45118  1  0  0  0
 46119  1  0  0  0
 47120  1  0  0  0
 47121  1  0  0  0
 48 56  1  0  0  0
 48 65  1  0  0  0
 48122  1  0  0  0
 49 50  1  0  0  0
 49 53  1  0  0  0
 49 64  1  0  0  0
 49123  1  0  0  0
 50 51  1  0  0  0
 50124  1  0  0  0
 50125  1  0  0  0
 51 52  1  0  0  0
 51126  1  0  0  0
 51127  1  0  0  0
 52128  1  0  0  0
 52129  1  0  0  0
 53 54  1  0  0  0
 54 55  2  0  0  0
 54130  1  0  0  0
 55 57  1  0  0  0
 55131  1  0  0  0
 56 69  2  0  0  0
 57 58  2  0  0  0
 57132  1  0  0  0
 58133  1  0  0  0
 59 60  1  0  0  0
 59 61  1  0  0  0
 59 62  1  0  0  0
 60134  1  0  0  0
 60135  1  0  0  0
 60136  1  0  0  0
 61137  1  0  0  0
 61138  1  0  0  0
 61139  1  0  0  0
 62140  1  0  0  0
 62141  1  0  0  0
 62142  1  0  0  0
 63 65  1  0  0  0
 63143  1  0  0  0
 63144  1  0  0  0
 63145  1  0  0  0
 64146  1  0  0  0
 65147  1  0  0  0
 68 83  1  0  0  0
 71 73  2  0  0  0
 71 74  1  0  0  0
 71148  1  0  0  0
 72 73  1  0  0  0
 72 87  2  0  0  0
 72149  1  0  0  0
 73 84  1  0  0  0
 74 75  2  0  0  0
 74 85  1  0  0  0
 75 86  1  0  0  0
 75 87  1  0  0  0
 76 80  1  0  0  0
 76150  1  0  0  0
 76151  1  0  0  0
 76152  1  0  0  0
 77153  1  0  0  0
 77154  1  0  0  0
 77155  1  0  0  0
 77 84  1  0  0  0
 78156  1  0  0  0
 78157  1  0  0  0
 78158  1  0  0  0
 78 85  1  0  0  0
 79159  1  0  0  0
 79160  1  0  0  0
 79161  1  0  0  0
 79 86  1  0  0  0
 80 84  1  0  0  0
 80162  1  0  0  0
 80163  1  0  0  0
 81 82  1  0  0  0
 81 86  1  0  0  0
 81164  1  0  0  0
 81165  1  0  0  0
 82 88  1  0  0  0
 82166  1  0  0  0
 82167  1  0  0  0
 83 85  1  0  0  0
 83168  1  0  0  0
 83169  1  0  0  0
 84170  1  0  0  0
 85171  1  0  0  0
 86172  1  0  0  0
 88173  1  0  0  0
M  ISO  4   1 100  68 101  83 101  88 100
M  END
> <chiral flag>
0

> <version>
0

> <s_m_source_file>
/data/baiqing/PycharmProjects/Reinvent-master-3.2/result/LINK_invent/BTK/process_docking_weight1_custom_sum_contain_oxygen_bond_distance_aromatic_linkinvent_7_9_3/rearranged_h_0089.sdf

> <i_m_source_file_index>
8

> <r_mmod_Potential_Energy-OPLS-2005>
35454.19140625

> <r_mmod_Stretch_Energy-OPLS-2005>
21823.95703125

> <r_mmod_Bend_Energy-OPLS-2005>
2087.18725585938

> <r_mmod_Torsional_Energy-OPLS-2005>
787.54736328125

> <r_mmod_Improper_Torsional_Energy-OPLS-2005>
100.62833404541

> <r_mmod_Van_der_Waal_Energy-OPLS-2005>
6451.22802734375

> <r_mmod_Electrostatic_Energy-OPLS-2005>
-494.325408935547

> <r_mmod_Solvation_Energy-OPLS-2005>
-221.70817565918

> <b_mmod_Minimization_Converged-OPLS-2005>
0

> <r_mmod_RMS_Derivative-OPLS-2005>
21.5286998748779

$$$$
8
                    3D
 Structure written by MMmdl.
162170  0  0  1  0            999 V2000
  -30.5271  -14.8087   20.4512 C   0  0  0  0  0  0
  -30.4350  -12.5074   19.4568 C   0  0  0  0  0  0
  -29.5152  -12.5359   18.2172 C   0  0  0  0  0  0
  -28.0312  -12.3629   18.6139 C   0  0  0  0  0  0
  -27.6256  -13.2279   19.8364 C   0  0  2  0  0  0
  -28.6724  -13.1676   20.9592 C   0  0  0  0  0  0
  -25.2502  -13.8062   20.5463 C   0  0  0  0  0  0
  -24.1753  -13.0340   20.9067 C   0  0  0  0  0  0
  -24.6367  -11.6842   20.8763 C   0  0  0  0  0  0
  -23.9001  -10.4268   21.0427 C   0  0  0  0  0  0
  -24.3587   -9.4219   21.9193 C   0  0  0  0  0  0
  -23.6304   -8.2237   22.0751 C   0  0  0  0  0  0
  -22.4284   -8.0258   21.3517 C   0  0  0  0  0  0
  -21.9884   -9.0222   20.4618 C   0  0  0  0  0  0
  -22.7177  -10.2126   20.3044 C   0  0  0  0  0  0
  -21.6818   -6.0733   22.5267 C   0  0  0  0  0  0
  -21.4038   -6.5637   23.8211 C   0  0  0  0  0  0
  -21.3673   -5.6781   24.9155 C   0  0  0  0  0  0
  -21.6015   -4.3040   24.7208 C   0  0  0  0  0  0
  -21.8829   -3.8145   23.4337 C   0  0  0  0  0  0
  -21.9225   -4.6963   22.3394 C   0  0  0  0  0  0
  -22.7818  -13.5196   21.1781 C   0  0  0  0  0  0
  -22.1661   -4.2139   21.0975 F   0  0  0  0  0  0
  -21.5605   -3.4541   25.7742 F   0  0  0  0  0  0
  -29.9424  -13.5633   20.3630 N   0  0  0  0  0  0
  -26.2867  -12.9217   20.3201 N   0  0  0  0  0  0
  -25.9301  -11.6404   20.5748 N   0  0  0  0  0  0
  -22.0492  -12.8135   22.0326 N   0  0  0  0  0  0
  -25.4278  -15.1695   20.3552 N   0  0  0  0  0  0
  -31.7544  -14.8893   20.2871 O   0  0  0  0  0  0
  -21.6613   -6.8884   21.4231 O   0  0  0  0  0  0
  -22.3517  -14.5528   20.6748 O   0  0  0  0  0  0
  -24.6231  -31.8598   23.2006 C   0  0  0  0  0  0
  -25.9067  -32.4775   23.8381 C   0  0  1  0  0  0
  -27.2367  -27.3066   20.1573 C   0  0  0  0  0  0
  -25.5906  -33.8573   24.2314 N   0  0  0  0  0  0
  -23.4134  -30.4711   21.5563 C   0  0  2  0  0  0
  -24.8635  -28.9373   20.1041 C   0  0  0  0  0  0
  -22.7514  -29.4589   22.5089 C   0  0  0  0  0  0
  -18.0384  -28.1439   22.8790 C   0  0  0  0  0  0
  -24.1461  -36.7298   23.2646 C   0  0  0  0  0  0
  -25.9507  -30.7977   21.3702 C   0  0  0  0  0  0
  -26.0264  -29.4184   20.7273 C   0  0  0  0  0  0
  -27.2108  -28.6162   20.7372 C   0  0  0  0  0  0
  -26.0478  -26.8869   19.5014 C   0  0  0  0  0  0
  -24.8794  -27.6769   19.4885 C   0  0  0  0  0  0
  -23.6174  -29.7963   20.1740 C   0  0  0  0  0  0
  -25.4094  -36.3099   24.0337 C   0  0  1  0  0  0
  -20.5962  -28.3794   23.1502 C   0  0  2  0  0  0
  -20.6862  -26.9441   22.5799 C   0  0  0  0  0  0
  -19.5836  -26.6245   21.5641 C   0  0  0  0  0  0
  -18.2036  -26.7836   22.2228 C   0  0  0  0  0  0
  -19.1621  -28.8930   23.3035 C   0  0  0  0  0  0
  -18.9599  -30.1779   23.8576 C   0  0  0  0  0  0
  -17.6622  -30.6906   24.0324 C   0  0  0  0  0  0
  -25.9028  -34.9451   23.5114 C   0  0  0  0  0  0
  -16.5542  -29.9266   23.6456 C   0  0  0  0  0  0
  -16.7346  -28.6480   23.0805 C   0  0  0  0  0  0
  -26.4463  -31.6573   25.0738 C   0  0  0  0  0  0
  -25.3701  -31.3725   26.1508 C   0  0  0  0  0  0
  -27.0302  -30.3003   24.6134 C   0  0  0  0  0  0
  -27.6019  -32.4286   25.7548 C   0  0  0  0  0  0
  -27.5559  -37.1807   24.8464 C   0  0  0  0  0  0
  -21.4267  -29.3030   22.3838 N   0  0  0  0  0  0
  -26.4277  -37.3784   23.9394 N   0  0  0  0  0  0
  -24.6823  -31.0537   22.0970 N   0  0  0  0  0  0
  -23.4232  -28.8127   23.3156 O   0  0  0  0  0  0
  -28.3830  -26.4924   20.2737 O   0  0  0  0  0  0
  -26.5603  -34.8929   22.4658 O   0  0  0  0  0  0
  -23.5400  -32.1391   23.7405 O   0  0  0  0  0  0
  -27.3718  -20.9456   21.3916 C   0  0  0  0  0  0
  -26.9275  -19.7195   21.9064 C   0  0  0  0  0  0
  -29.4291  -19.8542   20.7092 C   0  0  0  0  0  0
  -28.6259  -21.0585   20.7667 C   0  0  0  0  0  0
  -27.7052  -18.5377   21.8328 C   0  0  0  0  0  0
  -29.0029  -18.5587   21.2221 C   0  0  0  0  0  0
  -25.5938  -17.2352   22.6530 C   0  0  0  0  0  0
  -31.4732  -17.7168   21.3522 C   0  0  0  0  0  0
  -28.9395  -22.4198   20.0223 C   0  0  0  0  0  0
  -27.1307  -17.2742   22.5012 C   0  0  0  0  0  0
  -28.8973  -23.8587   20.7411 C   0  0  0  0  0  0
  -28.4612  -25.0873   19.7965 C   0  0  0  0  0  0
  -29.9763  -17.2754   21.2971 C   0  0  2  0  0  0
  -29.7126  -15.9332   20.6051 N   0  0  0  0  0  0
  -31.4715  -12.6751   19.1590 H   0  0  0  0  0  0
  -30.4094  -11.5458   19.9459 H   0  0  0  0  0  0
  -29.8067  -11.7724   17.4984 H   0  0  0  0  0  0
  -29.6348  -13.4957   17.7037 H   0  0  0  0  0  0
  -27.8513  -11.3086   18.8335 H   0  0  0  0  0  0
  -27.3920  -12.6100   17.7622 H   0  0  0  0  0  0
  -27.6119  -14.2512   19.4686 H   0  0  0  0  0  0
  -28.7444  -12.1577   21.3836 H   0  0  0  0  0  0
  -28.4163  -13.8305   21.7833 H   0  0  0  0  0  0
  -25.2744   -9.5707   22.4739 H   0  0  0  0  0  0
  -23.9969   -7.4649   22.7506 H   0  0  0  0  0  0
  -21.0784   -8.8733   19.8985 H   0  0  0  0  0  0
  -22.3597  -10.9644   19.6155 H   0  0  0  0  0  0
  -21.2053   -7.6150   23.9674 H   0  0  0  0  0  0
  -21.1453   -6.0542   25.9048 H   0  0  0  0  0  0
  -22.0631   -2.7605   23.2835 H   0  0  0  0  0  0
  -22.4168  -11.9779   22.4669 H   0  0  0  0  0  0
  -21.1247  -13.1331   22.2764 H   0  0  0  0  0  0
  -24.7069  -15.8542   20.5438 H   0  0  0  0  0  0
  -26.3202  -15.5938   20.1574 H   0  0  0  0  0  0
  -26.7114  -32.5491   23.1162 H   0  0  0  0  0  0
  -25.0041  -33.9743   25.0471 H   0  0  0  0  0  0
  -22.6926  -31.2825   21.4157 H   0  0  0  0  0  0
  -23.3736  -35.9610   23.3314 H   0  0  0  0  0  0
  -24.3533  -36.8898   22.2041 H   0  0  0  0  0  0
  -23.7196  -37.6491   23.6647 H   0  0  0  0  0  0
  -26.0479  -31.5409   20.5779 H   0  0  0  0  0  0
  -26.8479  -30.8722   21.9791 H   0  0  0  0  0  0
  -28.0940  -28.9774   21.2453 H   0  0  0  0  0  0
  -25.9551  -25.9247   19.0215 H   0  0  0  0  0  0
  -23.9931  -27.3017   19.0003 H   0  0  0  0  0  0
  -23.6804  -30.5549   19.3944 H   0  0  0  0  0  0
  -22.7524  -29.1882   19.9217 H   0  0  0  0  0  0
  -25.1267  -36.1965   25.0821 H   0  0  0  0  0  0
  -21.0037  -28.3393   24.1587 H   0  0  0  0  0  0
  -20.5688  -26.2472   23.4095 H   0  0  0  0  0  0
  -21.6742  -26.7426   22.1739 H   0  0  0  0  0  0
  -19.6834  -27.2936   20.7121 H   0  0  0  0  0  0
  -19.7089  -25.6064   21.1939 H   0  0  0  0  0  0
  -17.4124  -26.6108   21.4957 H   0  0  0  0  0  0
  -18.0888  -26.0167   23.0035 H   0  0  0  0  0  0
  -19.8124  -30.7703   24.1552 H   0  0  0  0  0  0
  -17.5270  -31.6824   24.4436 H   0  0  0  0  0  0
  -15.5553  -30.3205   23.7852 H   0  0  0  0  0  0
  -15.8719  -28.0663   22.7918 H   0  0  0  0  0  0
  -24.5922  -30.6994   25.7920 H   0  0  0  0  0  0
  -24.8890  -32.2886   26.4887 H   0  0  0  0  0  0
  -25.8105  -30.8994   27.0318 H   0  0  0  0  0  0
  -26.2887  -29.6819   24.1091 H   0  0  0  0  0  0
  -27.3922  -29.7174   25.4633 H   0  0  0  0  0  0
  -27.8764  -30.4305   23.9407 H   0  0  0  0  0  0
  -27.2599  -33.3604   26.2108 H   0  0  0  0  0  0
  -28.3897  -32.6826   25.0419 H   0  0  0  0  0  0
  -28.0613  -31.8398   26.5522 H   0  0  0  0  0  0
  -28.2624  -38.0084   24.7516 H   0  0  0  0  0  0
  -28.1025  -36.2608   24.6299 H   0  0  0  0  0  0
  -27.2263  -37.1464   25.8875 H   0  0  0  0  0  0
  -20.9357  -29.8761   21.7040 H   0  0  0  0  0  0
  -26.0180  -38.2860   24.1379 H   0  0  0  0  0  0
  -26.7095  -21.7980   21.4418 H   0  0  0  0  0  0
  -25.9492  -19.7267   22.3686 H   0  0  0  0  0  0
  -30.4060  -19.9265   20.2524 H   0  0  0  0  0  0
  -25.0892  -17.5610   21.7366 H   0  0  0  0  0  0
  -25.2293  -17.8596   23.4654 H   0  0  0  0  0  0
  -25.2556  -16.2289   22.8740 H   0  0  0  0  0  0
  -31.6345  -18.5437   22.0485 H   0  0  0  0  0  0
  -31.8585  -18.0127   20.3798 H   0  0  0  0  0  0
  -32.1118  -16.9278   21.7238 H   0  0  0  0  0  0
  -28.1640  -22.4702   19.2568 H   0  0  0  0  0  0
  -29.8585  -22.3259   19.4560 H   0  0  0  0  0  0
  -27.4298  -16.3964   21.9347 H   0  0  0  0  0  0
  -27.5693  -17.1724   23.4953 H   0  0  0  0  0  0
  -29.8942  -24.0504   21.1442 H   0  0  0  0  0  0
  -28.2546  -23.8221   21.6162 H   0  0  0  0  0  0
  -27.5622  -24.7601   19.2860 H   0  0  0  0  0  0
  -29.2074  -25.1232   18.9989 H   0  0  0  0  0  0
  -29.8121  -16.9605   22.3301 H   0  0  0  0  0  0
  -28.7386  -15.7644   20.3872 H   0  0  0  0  0  0
  1 25  1  0  0  0
  1 30  2  0  0  0
  1 84  1  0  0  0
  2  3  1  0  0  0
  2 25  1  0  0  0
  2 85  1  0  0  0
  2 86  1  0  0  0
  3  4  1  0  0  0
  3 87  1  0  0  0
  3 88  1  0  0  0
  4  5  1  0  0  0
  4 89  1  0  0  0
  4 90  1  0  0  0
  5  6  1  0  0  0
  5 26  1  0  0  0
  5 91  1  0  0  0
  6 25  1  0  0  0
  6 92  1  0  0  0
  6 93  1  0  0  0
  7  8  2  0  0  0
  7 26  1  0  0  0
  7 29  1  0  0  0
  8  9  1  0  0  0
  8 22  1  0  0  0
  9 10  1  0  0  0
  9 27  2  0  0  0
 10 11  2  0  0  0
 10 15  1  0  0  0
 11 12  1  0  0  0
 11 94  1  0  0  0
 12 13  2  0  0  0
 12 95  1  0  0  0
 13 14  1  0  0  0
 13 31  1  0  0  0
 14 15  2  0  0  0
 14 96  1  0  0  0
 15 97  1  0  0  0
 16 17  2  0  0  0
 16 21  1  0  0  0
 16 31  1  0  0  0
 17 18  1  0  0  0
 17 98  1  0  0  0
 18 19  2  0  0  0
 18 99  1  0  0  0
 19 20  1  0  0  0
 19 24  1  0  0  0
 20 21  2  0  0  0
 20100  1  0  0  0
 21 23  1  0  0  0
 22 28  1  0  0  0
 22 32  2  0  0  0
 26 27  1  0  0  0
 28101  1  0  0  0
 28102  1  0  0  0
 29103  1  0  0  0
 29104  1  0  0  0
 33 34  1  0  0  0
 33 66  1  0  0  0
 33 70  2  0  0  0
 34 36  1  0  0  0
 34 59  1  0  0  0
 34105  1  0  0  0
 35 44  2  0  0  0
 35 45  1  0  0  0
 35 68  1  0  0  0
 36 56  1  0  0  0
 36106  1  0  0  0
 37 39  1  0  0  0
 37 47  1  0  0  0
 37 66  1  0  0  0
 37107  1  0  0  0
 38 43  2  0  0  0
 38 46  1  0  0  0
 38 47  1  0  0  0
 39 64  1  0  0  0
 39 67  2  0  0  0
 40 52  1  0  0  0
 40 53  2  0  0  0
 40 58  1  0  0  0
 41108  1  0  0  0
 41109  1  0  0  0
 41110  1  0  0  0
 41 48  1  0  0  0
 42 43  1  0  0  0
 42 66  1  0  0  0
 42111  1  0  0  0
 42112  1  0  0  0
 43 44  1  0  0  0
 44113  1  0  0  0
 45 46  2  0  0  0
 45114  1  0  0  0
 46115  1  0  0  0
 47116  1  0  0  0
 47117  1  0  0  0
 48 56  1  0  0  0
 48 65  1  0  0  0
 48118  1  0  0  0
 49 50  1  0  0  0
 49 53  1  0  0  0
 49 64  1  0  0  0
 49119  1  0  0  0
 50 51  1  0  0  0
 50120  1  0  0  0
 50121  1  0  0  0
 51 52  1  0  0  0
 51122  1  0  0  0
 51123  1  0  0  0
 52124  1  0  0  0
 52125  1  0  0  0
 53 54  1  0  0  0
 54 55  2  0  0  0
 54126  1  0  0  0
 55 57  1  0  0  0
 55127  1  0  0  0
 56 69  2  0  0  0
 57 58  2  0  0  0
 57128  1  0  0  0
 58129  1  0  0  0
 59 60  1  0  0  0
 59 61  1  0  0  0
 59 62  1  0  0  0
 60130  1  0  0  0
 60131  1  0  0  0
 60132  1  0  0  0
 61133  1  0  0  0
 61134  1  0  0  0
 61135  1  0  0  0
 62136  1  0  0  0
 62137  1  0  0  0
 62138  1  0  0  0
 63 65  1  0  0  0
 63139  1  0  0  0
 63140  1  0  0  0
 63141  1  0  0  0
 64142  1  0  0  0
 65143  1  0  0  0
 68 82  1  0  0  0
 71 72  2  0  0  0
 71 74  1  0  0  0
 71144  1  0  0  0
 72 75  1  0  0  0
 72145  1  0  0  0
 73 74  2  0  0  0
 73 76  1  0  0  0
 73146  1  0  0  0
 74 79  1  0  0  0
 75 76  2  0  0  0
 75 80  1  0  0  0
 76 83  1  0  0  0
 77 80  1  0  0  0
 77147  1  0  0  0
 77148  1  0  0  0
 77149  1  0  0  0
 78150  1  0  0  0
 78151  1  0  0  0
 78152  1  0  0  0
 78 83  1  0  0  0
 79 81  1  0  0  0
 79153  1  0  0  0
 79154  1  0  0  0
 80155  1  0  0  0
 80156  1  0  0  0
 81 82  1  0  0  0
 81157  1  0  0  0
 81158  1  0  0  0
 82159  1  0  0  0
 82160  1  0  0  0
 83 84  1  0  0  0
 83161  1  0  0  0
 84162  1  0  0  0
M  ISO  4   1 100  68 101  82 101  84 100
M  END
> <chiral flag>
0

> <version>
0

> <s_m_source_file>
/data/baiqing/PycharmProjects/Reinvent-master-3.2/result/LINK_invent/BTK/process_docking_weight1_custom_sum_contain_oxygen_bond_distance_aromatic_linkinvent_7_9_3/rearranged_h_0089.sdf

> <i_m_source_file_index>
9

> <r_mmod_Potential_Energy-OPLS-2005>
195.937561035156

> <r_mmod_Stretch_Energy-OPLS-2005>
118.247848510742

> <r_mmod_Bend_Energy-OPLS-2005>
197.098510742188

> <r_mmod_Torsional_Energy-OPLS-2005>
234.55827331543

> <r_mmod_Improper_Torsional_Energy-OPLS-2005>
4.85154819488525

> <r_mmod_Van_der_Waal_Energy-OPLS-2005>
146.20036315918

> <r_mmod_Electrostatic_Energy-OPLS-2005>
-404.153381347656

> <r_mmod_Solvation_Energy-OPLS-2005>
-199.064819335938

> <b_mmod_Minimization_Converged-OPLS-2005>
0

> <r_mmod_RMS_Derivative-OPLS-2005>
18.9821643829346

$$$$
9
                    3D
 Structure written by MMmdl.
177185  0  0  1  0            999 V2000
  -30.7405  -14.3964   20.6061 C   0  0  0  0  0  0
  -30.4059  -12.2684   19.4147 C   0  0  0  0  0  0
  -29.4833  -12.4947   18.2011 C   0  0  0  0  0  0
  -28.0049  -12.3666   18.6163 C   0  0  0  0  0  0
  -27.6586  -13.2047   19.8758 C   0  0  2  0  0  0
  -28.6972  -12.9687   20.9939 C   0  0  0  0  0  0
  -25.2557  -13.8172   20.5686 C   0  0  0  0  0  0
  -24.1811  -13.0443   20.9180 C   0  0  0  0  0  0
  -24.6367  -11.6914   20.8743 C   0  0  0  0  0  0
  -23.9044  -10.4294   21.0415 C   0  0  0  0  0  0
  -24.3603   -9.4208   21.9185 C   0  0  0  0  0  0
  -23.6290   -8.2235   22.0752 C   0  0  0  0  0  0
  -22.4268   -8.0277   21.3541 C   0  0  0  0  0  0
  -21.9905   -9.0248   20.4636 C   0  0  0  0  0  0
  -22.7229  -10.2129   20.3050 C   0  0  0  0  0  0
  -21.6840   -6.0730   22.5284 C   0  0  0  0  0  0
  -21.4021   -6.5640   23.8219 C   0  0  0  0  0  0
  -21.3659   -5.6791   24.9177 C   0  0  0  0  0  0
  -21.6042   -4.3057   24.7228 C   0  0  0  0  0  0
  -21.8825   -3.8143   23.4355 C   0  0  0  0  0  0
  -21.9192   -4.6959   22.3410 C   0  0  0  0  0  0
  -22.7831  -13.5235   21.1848 C   0  0  0  0  0  0
  -22.1663   -4.2144   21.0985 F   0  0  0  0  0  0
  -21.5623   -3.4546   25.7743 F   0  0  0  0  0  0
  -30.0324  -13.2517   20.4419 N   0  0  0  0  0  0
  -26.2993  -12.9344   20.3378 N   0  0  0  0  0  0
  -25.9296  -11.6503   20.5783 N   0  0  0  0  0  0
  -22.0490  -12.8210   22.0410 N   0  0  0  0  0  0
  -25.4302  -15.1884   20.4094 N   0  0  0  0  0  0
  -31.8681  -14.5509   20.1342 O   0  0  0  0  0  0
  -21.6630   -6.8878   21.4246 O   0  0  0  0  0  0
  -22.3513  -14.5541   20.6713 O   0  0  0  0  0  0
  -24.6107  -31.8706   23.2137 C   0  0  0  0  0  0
  -25.9018  -32.4837   23.8415 C   0  0  1  0  0  0
  -27.2343  -27.4679   20.0779 C   0  0  0  0  0  0
  -25.5900  -33.8637   24.2345 N   0  0  0  0  0  0
  -23.3957  -30.4943   21.5551 C   0  0  2  0  0  0
  -24.8393  -28.9629   20.1161 C   0  0  0  0  0  0
  -22.7382  -29.4666   22.5028 C   0  0  0  0  0  0
  -18.0261  -28.1366   22.8500 C   0  0  0  0  0  0
  -24.1484  -36.7317   23.2630 C   0  0  0  0  0  0
  -25.9210  -30.8426   21.3639 C   0  0  0  0  0  0
  -25.9962  -29.4787   20.7127 C   0  0  0  0  0  0
  -27.1921  -28.7315   20.7027 C   0  0  0  0  0  0
  -26.0543  -26.9459   19.5015 C   0  0  0  0  0  0
  -24.8596  -27.6916   19.5150 C   0  0  0  0  0  0
  -23.6004  -29.8273   20.1684 C   0  0  0  0  0  0
  -25.4103  -36.3120   24.0337 C   0  0  1  0  0  0
  -20.5846  -28.3645   23.1340 C   0  0  2  0  0  0
  -20.6755  -26.9391   22.5425 C   0  0  0  0  0  0
  -19.5736  -26.6380   21.5217 C   0  0  0  0  0  0
  -18.1910  -26.7916   22.1621 C   0  0  0  0  0  0
  -19.1509  -28.8822   23.2913 C   0  0  0  0  0  0
  -18.9440  -30.1433   23.8916 C   0  0  0  0  0  0
  -17.6442  -30.6576   24.0566 C   0  0  0  0  0  0
  -25.9037  -34.9485   23.5137 C   0  0  0  0  0  0
  -16.5335  -29.9080   23.6325 C   0  0  0  0  0  0
  -16.7252  -28.6494   23.0355 C   0  0  0  0  0  0
  -26.4462  -31.6613   25.0736 C   0  0  0  0  0  0
  -25.3745  -31.3711   26.1500 C   0  0  0  0  0  0
  -27.0281  -30.3056   24.6095 C   0  0  0  0  0  0
  -27.6053  -32.4323   25.7480 C   0  0  0  0  0  0
  -27.5596  -37.1790   24.8446 C   0  0  0  0  0  0
  -21.4115  -29.3018   22.3756 N   0  0  0  0  0  0
  -26.4281  -37.3815   23.9435 N   0  0  0  0  0  0
  -24.6605  -31.0832   22.1028 N   0  0  0  0  0  0
  -23.4172  -28.8215   23.3058 O   0  0  0  0  0  0
  -28.4178  -26.7702   20.0932 O   0  0  0  0  0  0
  -26.5594  -34.8931   22.4694 O   0  0  0  0  0  0
  -23.5313  -32.1451   23.7555 O   0  0  0  0  0  0
  -28.2364  -23.6621   19.6050 C   0  0  0  0  0  0
  -30.2806  -24.1400   18.2021 C   0  0  0  0  0  0
  -28.7929  -22.2638   19.9461 C   0  0  0  0  0  0
  -30.8616  -22.7716   18.5775 C   0  0  0  0  0  0
  -29.3571  -24.6815   19.3049 C   0  0  1  0  0  0
  -29.7431  -21.7346   18.8455 C   0  0  1  0  0  0
  -31.1791  -19.8498   17.9252 C   0  0  0  0  0  0
  -33.8517  -17.8798   21.9883 C   0  0  0  0  0  0
  -33.3069  -20.2917   22.3476 C   0  0  0  0  0  0
  -28.8020  -26.0642   18.9172 C   0  0  0  0  0  0
  -31.2287  -17.5100   20.3878 C   0  0  0  0  0  0
  -30.9091  -20.0882   20.5038 C   0  0  0  0  0  0
  -30.6164  -16.7217   21.5796 C   0  0  0  0  0  0
  -30.2673  -20.2868   19.0957 C   0  0  1  0  0  0
  -32.7055  -18.9135   22.0145 C   0  0  0  0  0  0
  -31.8874  -18.8906   20.6849 C   0  0  1  0  0  0
  -30.0940  -15.3924   21.2329 N   0  0  0  0  0  0
  -31.4536  -12.3431   19.1176 H   0  0  0  0  0  0
  -30.2795  -11.2572   19.8053 H   0  0  0  0  0  0
  -29.7123  -11.7780   17.4117 H   0  0  0  0  0  0
  -29.6619  -13.4832   17.7767 H   0  0  0  0  0  0
  -27.8091  -11.3119   18.8132 H   0  0  0  0  0  0
  -27.3532  -12.6451   17.7877 H   0  0  0  0  0  0
  -27.7109  -14.2540   19.5851 H   0  0  0  0  0  0
  -28.6574  -11.9313   21.3272 H   0  0  0  0  0  0
  -28.4660  -13.5640   21.8781 H   0  0  0  0  0  0
  -25.2756   -9.5679   22.4750 H   0  0  0  0  0  0
  -23.9999   -7.4623   22.7468 H   0  0  0  0  0  0
  -21.0842   -8.8776   19.8934 H   0  0  0  0  0  0
  -22.3706  -10.9668   19.6158 H   0  0  0  0  0  0
  -21.2017   -7.6147   23.9727 H   0  0  0  0  0  0
  -21.1476   -6.0518   25.9082 H   0  0  0  0  0  0
  -22.0594   -2.7605   23.2861 H   0  0  0  0  0  0
  -22.4125  -11.9863   22.4761 H   0  0  0  0  0  0
  -21.1107  -13.1217   22.2646 H   0  0  0  0  0  0
  -24.6670  -15.8493   20.5098 H   0  0  0  0  0  0
  -26.2888  -15.6207   20.0914 H   0  0  0  0  0  0
  -26.7091  -32.5554   23.1184 H   0  0  0  0  0  0
  -25.0072  -33.9815   25.0504 H   0  0  0  0  0  0
  -22.6824  -31.3097   21.4199 H   0  0  0  0  0  0
  -23.3771  -35.9620   23.3243 H   0  0  0  0  0  0
  -24.3594  -36.8986   22.2056 H   0  0  0  0  0  0
  -23.7195  -37.6489   23.6676 H   0  0  0  0  0  0
  -26.0311  -31.6097   20.5961 H   0  0  0  0  0  0
  -26.8098  -30.8947   21.9808 H   0  0  0  0  0  0
  -28.0872  -29.1272   21.1626 H   0  0  0  0  0  0
  -26.0413  -25.9601   19.0594 H   0  0  0  0  0  0
  -23.9639  -27.2806   19.0697 H   0  0  0  0  0  0
  -23.7040  -30.6031   19.4088 H   0  0  0  0  0  0
  -22.7246  -29.2452   19.8758 H   0  0  0  0  0  0
  -25.1269  -36.1979   25.0826 H   0  0  0  0  0  0
  -20.9928  -28.3202   24.1463 H   0  0  0  0  0  0
  -20.5667  -26.2252   23.3604 H   0  0  0  0  0  0
  -21.6628  -26.7443   22.1216 H   0  0  0  0  0  0
  -19.6903  -25.6295   21.1235 H   0  0  0  0  0  0
  -19.6679  -27.3204   20.6757 H   0  0  0  0  0  0
  -17.4189  -26.6679   21.4011 H   0  0  0  0  0  0
  -18.0298  -26.0044   22.8998 H   0  0  0  0  0  0
  -19.7919  -30.7244   24.2299 H   0  0  0  0  0  0
  -17.5000  -31.6260   24.5160 H   0  0  0  0  0  0
  -15.5341  -30.2990   23.7633 H   0  0  0  0  0  0
  -15.8652  -28.0816   22.7069 H   0  0  0  0  0  0
  -24.5897  -30.7080   25.7843 H   0  0  0  0  0  0
  -24.8959  -32.2864   26.4987 H   0  0  0  0  0  0
  -25.8110  -30.8850   27.0231 H   0  0  0  0  0  0
  -26.2807  -29.6824   24.1165 H   0  0  0  0  0  0
  -27.4074  -29.7286   25.4540 H   0  0  0  0  0  0
  -27.8635  -30.4380   23.9215 H   0  0  0  0  0  0
  -27.2695  -33.3626   26.2068 H   0  0  0  0  0  0
  -28.3844  -32.6875   25.0287 H   0  0  0  0  0  0
  -28.0734  -31.8438   26.5380 H   0  0  0  0  0  0
  -28.2549  -38.0153   24.7613 H   0  0  0  0  0  0
  -28.1157  -36.2697   24.6113 H   0  0  0  0  0  0
  -27.2337  -37.1250   25.8848 H   0  0  0  0  0  0
  -20.9275  -29.8742   21.6981 H   0  0  0  0  0  0
  -26.0167  -38.2875   24.1514 H   0  0  0  0  0  0
  -27.6210  -24.0229   20.4302 H   0  0  0  0  0  0
  -27.5725  -23.5852   18.7428 H   0  0  0  0  0  0
  -29.7334  -24.0624   17.2616 H   0  0  0  0  0  0
  -31.0985  -24.8389   18.0223 H   0  0  0  0  0  0
  -27.9637  -21.5690   20.0858 H   0  0  0  0  0  0
  -29.3134  -22.3155   20.9031 H   0  0  0  0  0  0
  -31.5075  -22.8774   19.4492 H   0  0  0  0  0  0
  -31.5039  -22.4542   17.7576 H   0  0  0  0  0  0
  -29.9630  -24.8051   20.2045 H   0  0  0  0  0  0
  -29.1487  -21.6815   17.9317 H   0  0  0  0  0  0
  -30.7446  -20.1139   16.9608 H   0  0  0  0  0  0
  -31.3423  -18.7741   17.9049 H   0  0  0  0  0  0
  -32.1617  -20.3191   17.9841 H   0  0  0  0  0  0
  -34.4008  -17.8737   22.9298 H   0  0  0  0  0  0
  -34.5671  -18.1041   21.1962 H   0  0  0  0  0  0
  -33.5011  -16.8617   21.8261 H   0  0  0  0  0  0
  -34.0008  -20.2286   23.1867 H   0  0  0  0  0  0
  -32.5395  -21.0083   22.6410 H   0  0  0  0  0  0
  -33.8521  -20.7041   21.4982 H   0  0  0  0  0  0
  -28.0255  -25.9683   18.1580 H   0  0  0  0  0  0
  -29.5888  -26.6591   18.4527 H   0  0  0  0  0  0
  -30.4651  -17.6080   19.6186 H   0  0  0  0  0  0
  -32.0113  -16.9172   19.9209 H   0  0  0  0  0  0
  -30.1221  -20.0255   21.2560 H   0  0  0  0  0  0
  -31.4469  -21.0061   20.7239 H   0  0  0  0  0  0
  -29.8011  -17.2997   22.0143 H   0  0  0  0  0  0
  -31.3412  -16.5699   22.3778 H   0  0  0  0  0  0
  -29.3921  -19.6356   19.0583 H   0  0  0  0  0  0
  -32.0408  -18.6652   22.8418 H   0  0  0  0  0  0
  -32.6451  -19.0311   19.9140 H   0  0  0  0  0  0
  -29.1626  -15.1753   21.5561 H   0  0  0  0  0  0
  1 25  1  0  0  0
  1 30  2  0  0  0
  1 87  1  0  0  0
  2  3  1  0  0  0
  2 25  1  0  0  0
  2 88  1  0  0  0
  2 89  1  0  0  0
  3  4  1  0  0  0
  3 90  1  0  0  0
  3 91  1  0  0  0
  4  5  1  0  0  0
  4 92  1  0  0  0
  4 93  1  0  0  0
  5  6  1  0  0  0
  5 26  1  0  0  0
  5 94  1  0  0  0
  6 25  1  0  0  0
  6 95  1  0  0  0
  6 96  1  0  0  0
  7  8  2  0  0  0
  7 26  1  0  0  0
  7 29  1  0  0  0
  8  9  1  0  0  0
  8 22  1  0  0  0
  9 10  1  0  0  0
  9 27  2  0  0  0
 10 11  2  0  0  0
 10 15  1  0  0  0
 11 12  1  0  0  0
 11 97  1  0  0  0
 12 13  2  0  0  0
 12 98  1  0  0  0
 13 14  1  0  0  0
 13 31  1  0  0  0
 14 15  2  0  0  0
 14 99  1  0  0  0
 15100  1  0  0  0
 16 17  2  0  0  0
 16 21  1  0  0  0
 16 31  1  0  0  0
 17 18  1  0  0  0
 17101  1  0  0  0
 18 19  2  0  0  0
 18102  1  0  0  0
 19 20  1  0  0  0
 19 24  1  0  0  0
 20 21  2  0  0  0
 20103  1  0  0  0
 21 23  1  0  0  0
 22 28  1  0  0  0
 22 32  2  0  0  0
 26 27  1  0  0  0
 28104  1  0  0  0
 28105  1  0  0  0
 29106  1  0  0  0
 29107  1  0  0  0
 33 34  1  0  0  0
 33 66  1  0  0  0
 33 70  2  0  0  0
 34 36  1  0  0  0
 34 59  1  0  0  0
 34108  1  0  0  0
 35 44  2  0  0  0
 35 45  1  0  0  0
 35 68  1  0  0  0
 36 56  1  0  0  0
 36109  1  0  0  0
 37 39  1  0  0  0
 37 47  1  0  0  0
 37 66  1  0  0  0
 37110  1  0  0  0
 38 43  2  0  0  0
 38 46  1  0  0  0
 38 47  1  0  0  0
 39 64  1  0  0  0
 39 67  2  0  0  0
 40 52  1  0  0  0
 40 53  2  0  0  0
 40 58  1  0  0  0
 41111  1  0  0  0
 41112  1  0  0  0
 41113  1  0  0  0
 41 48  1  0  0  0
 42 43  1  0  0  0
 42 66  1  0  0  0
 42114  1  0  0  0
 42115  1  0  0  0
 43 44  1  0  0  0
 44116  1  0  0  0
 45 46  2  0  0  0
 45117  1  0  0  0
 46118  1  0  0  0
 47119  1  0  0  0
 47120  1  0  0  0
 48 56  1  0  0  0
 48 65  1  0  0  0
 48121  1  0  0  0
 49 50  1  0  0  0
 49 53  1  0  0  0
 49 64  1  0  0  0
 49122  1  0  0  0
 50 51  1  0  0  0
 50123  1  0  0  0
 50124  1  0  0  0
 51 52  1  0  0  0
 51125  1  0  0  0
 51126  1  0  0  0
 52127  1  0  0  0
 52128  1  0  0  0
 53 54  1  0  0  0
 54 55  2  0  0  0
 54129  1  0  0  0
 55 57  1  0  0  0
 55130  1  0  0  0
 56 69  2  0  0  0
 57 58  2  0  0  0
 57131  1  0  0  0
 58132  1  0  0  0
 59 60  1  0  0  0
 59 61  1  0  0  0
 59 62  1  0  0  0
 60133  1  0  0  0
 60134  1  0  0  0
 60135  1  0  0  0
 61136  1  0  0  0
 61137  1  0  0  0
 61138  1  0  0  0
 62139  1  0  0  0
 62140  1  0  0  0
 62141  1  0  0  0
 63 65  1  0  0  0
 63142  1  0  0  0
 63143  1  0  0  0
 63144  1  0  0  0
 64145  1  0  0  0
 65146  1  0  0  0
 68 80  1  0  0  0
 71 73  1  0  0  0
 71 75  1  0  0  0
 71147  1  0  0  0
 71148  1  0  0  0
 72 74  1  0  0  0
 72 75  1  0  0  0
 72149  1  0  0  0
 72150  1  0  0  0
 73151  1  0  0  0
 73152  1  0  0  0
 73 76  1  0  0  0
 74 76  1  0  0  0
 74153  1  0  0  0
 74154  1  0  0  0
 75 80  1  0  0  0
 75155  1  0  0  0
 76 84  1  0  0  0
 76156  1  0  0  0
 77157  1  0  0  0
 77158  1  0  0  0
 77159  1  0  0  0
 77 84  1  0  0  0
 78160  1  0  0  0
 78161  1  0  0  0
 78162  1  0  0  0
 78 85  1  0  0  0
 79 85  1  0  0  0
 79163  1  0  0  0
 79164  1  0  0  0
 79165  1  0  0  0
 80166  1  0  0  0
 80167  1  0  0  0
 81 83  1  0  0  0
 81168  1  0  0  0
 81169  1  0  0  0
 81 86  1  0  0  0
 82 84  1  0  0  0
 82 86  1  0  0  0
 82170  1  0  0  0
 82171  1  0  0  0
 83 87  1  0  0  0
 83172  1  0  0  0
 83173  1  0  0  0
 84174  1  0  0  0
 85 86  1  0  0  0
 85175  1  0  0  0
 86176  1  0  0  0
 87177  1  0  0  0
M  ISO  4   1 100  68 101  80 101  87 100
M  END
> <chiral flag>
0

> <version>
0

> <s_m_source_file>
/data/baiqing/PycharmProjects/Reinvent-master-3.2/result/LINK_invent/BTK/process_docking_weight1_custom_sum_contain_oxygen_bond_distance_aromatic_linkinvent_7_9_3/rearranged_h_0089.sdf

> <i_m_source_file_index>
10

> <r_mmod_Potential_Energy-OPLS-2005>
26.0917072296143

> <r_mmod_Stretch_Energy-OPLS-2005>
37.0515480041504

> <r_mmod_Bend_Energy-OPLS-2005>
118.45841217041

> <r_mmod_Torsional_Energy-OPLS-2005>
261.957641601562

> <r_mmod_Improper_Torsional_Energy-OPLS-2005>
2.41553688049316

> <r_mmod_Van_der_Waal_Energy-OPLS-2005>
155.295196533203

> <r_mmod_Electrostatic_Energy-OPLS-2005>
-376.597503662109

> <r_mmod_Solvation_Energy-OPLS-2005>
-183.536972045898

> <b_mmod_Minimization_Converged-OPLS-2005>
0

> <r_mmod_RMS_Derivative-OPLS-2005>
1.57924008369446

$$$$
10
                    3D
 Structure written by MMmdl.
170178  0  0  1  0            999 V2000
  -30.7076  -14.4174   20.5335 C   0  0  0  0  0  0
  -30.4354  -12.2501   19.4349 C   0  0  0  0  0  0
  -29.5153  -12.4928   18.2217 C   0  0  0  0  0  0
  -28.0336  -12.3783   18.6339 C   0  0  0  0  0  0
  -27.6812  -13.2066   19.9014 C   0  0  2  0  0  0
  -28.7196  -12.9573   21.0218 C   0  0  0  0  0  0
  -25.2667  -13.8171   20.5703 C   0  0  0  0  0  0
  -24.1886  -13.0422   20.9167 C   0  0  0  0  0  0
  -24.6462  -11.6914   20.8763 C   0  0  0  0  0  0
  -23.9107  -10.4300   21.0429 C   0  0  0  0  0  0
  -24.3657   -9.4211   21.9203 C   0  0  0  0  0  0
  -23.6301   -8.2273   22.0764 C   0  0  0  0  0  0
  -22.4301   -8.0311   21.3549 C   0  0  0  0  0  0
  -21.9935   -9.0277   20.4653 C   0  0  0  0  0  0
  -22.7277  -10.2137   20.3071 C   0  0  0  0  0  0
  -21.6851   -6.0759   22.5292 C   0  0  0  0  0  0
  -21.4002   -6.5641   23.8240 C   0  0  0  0  0  0
  -21.3653   -5.6799   24.9190 C   0  0  0  0  0  0
  -21.6049   -4.3073   24.7235 C   0  0  0  0  0  0
  -21.8808   -3.8160   23.4367 C   0  0  0  0  0  0
  -21.9186   -4.6984   22.3416 C   0  0  0  0  0  0
  -22.7881  -13.5209   21.1755 C   0  0  0  0  0  0
  -22.1654   -4.2151   21.1006 F   0  0  0  0  0  0
  -21.5636   -3.4558   25.7762 F   0  0  0  0  0  0
  -30.0626  -13.2264   20.4697 N   0  0  0  0  0  0
  -26.3152  -12.9360   20.3505 N   0  0  0  0  0  0
  -25.9397  -11.6496   20.5825 N   0  0  0  0  0  0
  -22.0506  -12.8225   22.0334 N   0  0  0  0  0  0
  -25.4371  -15.1888   20.4156 N   0  0  0  0  0  0
  -31.8079  -14.6376   20.0194 O   0  0  0  0  0  0
  -21.6659   -6.8900   21.4260 O   0  0  0  0  0  0
  -22.3577  -14.5526   20.6638 O   0  0  0  0  0  0
  -24.6037  -31.8725   23.2152 C   0  0  0  0  0  0
  -25.8974  -32.4837   23.8408 C   0  0  1  0  0  0
  -27.2680  -27.5067   20.0683 C   0  0  0  0  0  0
  -25.5876  -33.8653   24.2372 N   0  0  0  0  0  0
  -23.3891  -30.4944   21.5497 C   0  0  2  0  0  0
  -24.8430  -28.9634   20.1163 C   0  0  0  0  0  0
  -22.7357  -29.4657   22.4984 C   0  0  0  0  0  0
  -18.0273  -28.1353   22.8481 C   0  0  0  0  0  0
  -24.1489  -36.7307   23.2638 C   0  0  0  0  0  0
  -25.9112  -30.8468   21.3709 C   0  0  0  0  0  0
  -25.9895  -29.4846   20.7231 C   0  0  0  0  0  0
  -27.1919  -28.7535   20.7127 C   0  0  0  0  0  0
  -26.1052  -26.9868   19.4500 C   0  0  0  0  0  0
  -24.8912  -27.7047   19.4861 C   0  0  0  0  0  0
  -23.5979  -29.8207   20.1653 C   0  0  0  0  0  0
  -25.4119  -36.3131   24.0349 C   0  0  1  0  0  0
  -20.5838  -28.3639   23.1330 C   0  0  2  0  0  0
  -20.6765  -26.9373   22.5423 C   0  0  0  0  0  0
  -19.5750  -26.6358   21.5215 C   0  0  0  0  0  0
  -18.1924  -26.7903   22.1617 C   0  0  0  0  0  0
  -19.1507  -28.8811   23.2908 C   0  0  0  0  0  0
  -18.9460  -30.1429   23.8910 C   0  0  0  0  0  0
  -17.6460  -30.6569   24.0557 C   0  0  0  0  0  0
  -25.9035  -34.9478   23.5151 C   0  0  0  0  0  0
  -16.5351  -29.9074   23.6312 C   0  0  0  0  0  0
  -16.7269  -28.6485   23.0345 C   0  0  0  0  0  0
  -26.4447  -31.6615   25.0706 C   0  0  0  0  0  0
  -25.3751  -31.3684   26.1482 C   0  0  0  0  0  0
  -27.0289  -30.3067   24.6049 C   0  0  0  0  0  0
  -27.6046  -32.4335   25.7457 C   0  0  0  0  0  0
  -27.5596  -37.1806   24.8470 C   0  0  0  0  0  0
  -21.4092  -29.3014   22.3718 N   0  0  0  0  0  0
  -26.4317  -37.3809   23.9409 N   0  0  0  0  0  0
  -24.6495  -31.0855   22.1030 N   0  0  0  0  0  0
  -23.4151  -28.8223   23.3024 O   0  0  0  0  0  0
  -28.5157  -26.9266   20.0567 O   0  0  0  0  0  0
  -26.5568  -34.8927   22.4699 O   0  0  0  0  0  0
  -23.5259  -32.1475   23.7603 O   0  0  0  0  0  0
  -26.5215  -23.8993   20.8276 C   0  0  0  0  0  0
  -28.1995  -22.1633   20.6742 C   0  0  0  0  0  0
  -27.8795  -23.5427   20.7386 C   0  0  0  0  0  0
  -25.5461  -22.8994   20.7535 C   0  0  0  0  0  0
  -27.1581  -21.2096   20.7191 C   0  0  0  0  0  0
  -24.0742  -23.2478   20.7595 C   0  0  0  0  0  0
  -30.3791  -24.1520   20.8769 C   0  0  0  0  0  0
  -26.4430  -19.1197   21.9482 C   0  0  0  0  0  0
  -29.6193  -19.5689   22.1443 C   0  0  0  0  0  0
  -28.7708  -17.5438   20.9112 C   0  0  0  0  0  0
  -30.0940  -16.8111   20.6073 C   0  0  0  0  0  0
  -28.7643  -25.6229   19.5599 C   0  0  0  0  0  0
  -28.9286  -24.6503   20.7519 C   0  0  1  0  0  0
  -27.3434  -19.6789   20.8150 C   0  0  2  0  0  0
  -28.8041  -19.1010   20.9103 C   0  0  1  0  0  0
  -25.8611  -21.5943   20.6751 N   0  0  0  0  0  0
  -29.9566  -15.4154   20.9994 N   0  0  0  0  0  0
  -31.4822  -12.3454   19.1418 H   0  0  0  0  0  0
  -30.3314  -11.2298   19.8087 H   0  0  0  0  0  0
  -29.7372  -11.7836   17.4241 H   0  0  0  0  0  0
  -29.7194  -13.4802   17.8124 H   0  0  0  0  0  0
  -27.8328  -11.3228   18.8223 H   0  0  0  0  0  0
  -27.3915  -12.6813   17.8066 H   0  0  0  0  0  0
  -27.7399  -14.2584   19.6245 H   0  0  0  0  0  0
  -28.6548  -11.9250   21.3744 H   0  0  0  0  0  0
  -28.4974  -13.5654   21.9009 H   0  0  0  0  0  0
  -25.2814   -9.5628   22.4770 H   0  0  0  0  0  0
  -23.9953   -7.4648   22.7490 H   0  0  0  0  0  0
  -21.0847   -8.8811   19.8965 H   0  0  0  0  0  0
  -22.3771  -10.9679   19.6171 H   0  0  0  0  0  0
  -21.1990   -7.6146   23.9751 H   0  0  0  0  0  0
  -21.1482   -6.0529   25.9096 H   0  0  0  0  0  0
  -22.0592   -2.7626   23.2875 H   0  0  0  0  0  0
  -22.4051  -11.9907   22.4823 H   0  0  0  0  0  0
  -21.1155  -13.1313   22.2518 H   0  0  0  0  0  0
  -24.6656  -15.8403   20.5113 H   0  0  0  0  0  0
  -26.2909  -15.6265   20.0901 H   0  0  0  0  0  0
  -26.7015  -32.5595   23.1167 H   0  0  0  0  0  0
  -25.0103  -33.9832   25.0559 H   0  0  0  0  0  0
  -22.6733  -31.3092   21.4125 H   0  0  0  0  0  0
  -23.3761  -35.9623   23.3326 H   0  0  0  0  0  0
  -24.3564  -36.8896   22.2039 H   0  0  0  0  0  0
  -23.7235  -37.6522   23.6632 H   0  0  0  0  0  0
  -26.0263  -31.6135   20.6039 H   0  0  0  0  0  0
  -26.7958  -30.8962   21.9933 H   0  0  0  0  0  0
  -28.0762  -29.1582   21.1868 H   0  0  0  0  0  0
  -26.1172  -26.0463   18.9221 H   0  0  0  0  0  0
  -24.0122  -27.2991   19.0013 H   0  0  0  0  0  0
  -23.6958  -30.5945   19.4028 H   0  0  0  0  0  0
  -22.7247  -29.2330   19.8741 H   0  0  0  0  0  0
  -25.1292  -36.1994   25.0840 H   0  0  0  0  0  0
  -20.9958  -28.3220   24.1448 H   0  0  0  0  0  0
  -20.5686  -26.2241   23.3603 H   0  0  0  0  0  0
  -21.6646  -26.7439   22.1215 H   0  0  0  0  0  0
  -19.6922  -25.6276   21.1229 H   0  0  0  0  0  0
  -19.6705  -27.3184   20.6750 H   0  0  0  0  0  0
  -17.4204  -26.6662   21.4009 H   0  0  0  0  0  0
  -18.0333  -26.0042   22.9006 H   0  0  0  0  0  0
  -19.7949  -30.7235   24.2287 H   0  0  0  0  0  0
  -17.5040  -31.6262   24.5147 H   0  0  0  0  0  0
  -15.5365  -30.3003   23.7649 H   0  0  0  0  0  0
  -15.8667  -28.0843   22.7058 H   0  0  0  0  0  0
  -24.5933  -30.7011   25.7841 H   0  0  0  0  0  0
  -24.8918  -32.2820   26.4963 H   0  0  0  0  0  0
  -25.8146  -30.8848   27.0225 H   0  0  0  0  0  0
  -26.2813  -29.6809   24.1154 H   0  0  0  0  0  0
  -27.4147  -29.7313   25.4488 H   0  0  0  0  0  0
  -27.8622  -30.4422   23.9142 H   0  0  0  0  0  0
  -27.2682  -33.3651   26.2053 H   0  0  0  0  0  0
  -28.3844  -32.6895   25.0255 H   0  0  0  0  0  0
  -28.0727  -31.8433   26.5356 H   0  0  0  0  0  0
  -28.2629  -38.0094   24.7527 H   0  0  0  0  0  0
  -28.1076  -36.2618   24.6299 H   0  0  0  0  0  0
  -27.2278  -37.1474   25.8866 H   0  0  0  0  0  0
  -20.9219  -29.8729   21.6949 H   0  0  0  0  0  0
  -26.0196  -38.2888   24.1415 H   0  0  0  0  0  0
  -26.2309  -24.9321   20.9397 H   0  0  0  0  0  0
  -29.2294  -21.8551   20.6216 H   0  0  0  0  0  0
  -23.7430  -23.4932   19.7510 H   0  0  0  0  0  0
  -23.8803  -24.1104   21.3991 H   0  0  0  0  0  0
  -23.4705  -22.4141   21.1228 H   0  0  0  0  0  0
  -30.5009  -23.4758   21.7234 H   0  0  0  0  0  0
  -31.0556  -24.9906   21.0358 H   0  0  0  0  0  0
  -30.6999  -23.6336   19.9719 H   0  0  0  0  0  0
  -25.4096  -19.4520   21.8555 H   0  0  0  0  0  0
  -26.7965  -19.4370   22.9298 H   0  0  0  0  0  0
  -26.3780  -18.0349   21.9326 H   0  0  0  0  0  0
  -30.6535  -19.2260   22.0783 H   0  0  0  0  0  0
  -29.2067  -19.1670   23.0707 H   0  0  0  0  0  0
  -29.6692  -20.6464   22.2643 H   0  0  0  0  0  0
  -28.4294  -17.2186   21.8971 H   0  0  0  0  0  0
  -28.0237  -17.1795   20.2031 H   0  0  0  0  0  0
  -30.9481  -17.2374   21.1282 H   0  0  0  0  0  0
  -30.3136  -16.8674   19.5368 H   0  0  0  0  0  0
  -28.0671  -25.2746   18.8012 H   0  0  0  0  0  0
  -29.7162  -25.7112   19.0329 H   0  0  0  0  0  0
  -28.7312  -25.2118   21.6679 H   0  0  0  0  0  0
  -26.9310  -19.3050   19.8746 H   0  0  0  0  0  0
  -29.3344  -19.4210   20.0116 H   0  0  0  0  0  0
  -29.0876  -15.1468   21.4375 H   0  0  0  0  0  0
  1 25  1  0  0  0
  1 30  2  0  0  0
  1 87  1  0  0  0
  2  3  1  0  0  0
  2 25  1  0  0  0
  2 88  1  0  0  0
  2 89  1  0  0  0
  3  4  1  0  0  0
  3 90  1  0  0  0
  3 91  1  0  0  0
  4  5  1  0  0  0
  4 92  1  0  0  0
  4 93  1  0  0  0
  5  6  1  0  0  0
  5 26  1  0  0  0
  5 94  1  0  0  0
  6 25  1  0  0  0
  6 95  1  0  0  0
  6 96  1  0  0  0
  7  8  2  0  0  0
  7 26  1  0  0  0
  7 29  1  0  0  0
  8  9  1  0  0  0
  8 22  1  0  0  0
  9 10  1  0  0  0
  9 27  2  0  0  0
 10 11  2  0  0  0
 10 15  1  0  0  0
 11 12  1  0  0  0
 11 97  1  0  0  0
 12 13  2  0  0  0
 12 98  1  0  0  0
 13 14  1  0  0  0
 13 31  1  0  0  0
 14 15  2  0  0  0
 14 99  1  0  0  0
 15100  1  0  0  0
 16 17  2  0  0  0
 16 21  1  0  0  0
 16 31  1  0  0  0
 17 18  1  0  0  0
 17101  1  0  0  0
 18 19  2  0  0  0
 18102  1  0  0  0
 19 20  1  0  0  0
 19 24  1  0  0  0
 20 21  2  0  0  0
 20103  1  0  0  0
 21 23  1  0  0  0
 22 28  1  0  0  0
 22 32  2  0  0  0
 26 27  1  0  0  0
 28104  1  0  0  0
 28105  1  0  0  0
 29106  1  0  0  0
 29107  1  0  0  0
 33 34  1  0  0  0
 33 66  1  0  0  0
 33 70  2  0  0  0
 34 36  1  0  0  0
 34 59  1  0  0  0
 34108  1  0  0  0
 35 44  2  0  0  0
 35 45  1  0  0  0
 35 68  1  0  0  0
 36 56  1  0  0  0
 36109  1  0  0  0
 37 39  1  0  0  0
 37 47  1  0  0  0
 37 66  1  0  0  0
 37110  1  0  0  0
 38 43  2  0  0  0
 38 46  1  0  0  0
 38 47  1  0  0  0
 39 64  1  0  0  0
 39 67  2  0  0  0
 40 52  1  0  0  0
 40 53  2  0  0  0
 40 58  1  0  0  0
 41111  1  0  0  0
 41112  1  0  0  0
 41113  1  0  0  0
 41 48  1  0  0  0
 42 43  1  0  0  0
 42 66  1  0  0  0
 42114  1  0  0  0
 42115  1  0  0  0
 43 44  1  0  0  0
 44116  1  0  0  0
 45 46  2  0  0  0
 45117  1  0  0  0
 46118  1  0  0  0
 47119  1  0  0  0
 47120  1  0  0  0
 48 56  1  0  0  0
 48 65  1  0  0  0
 48121  1  0  0  0
 49 50  1  0  0  0
 49 53  1  0  0  0
 49 64  1  0  0  0
 49122  1  0  0  0
 50 51  1  0  0  0
 50123  1  0  0  0
 50124  1  0  0  0
 51 52  1  0  0  0
 51125  1  0  0  0
 51126  1  0  0  0
 52127  1  0  0  0
 52128  1  0  0  0
 53 54  1  0  0  0
 54 55  2  0  0  0
 54129  1  0  0  0
 55 57  1  0  0  0
 55130  1  0  0  0
 56 69  2  0  0  0
 57 58  2  0  0  0
 57131  1  0  0  0
 58132  1  0  0  0
 59 60  1  0  0  0
 59 61  1  0  0  0
 59 62  1  0  0  0
 60133  1  0  0  0
 60134  1  0  0  0
 60135  1  0  0  0
 61136  1  0  0  0
 61137  1  0  0  0
 61138  1  0  0  0
 62139  1  0  0  0
 62140  1  0  0  0
 62141  1  0  0  0
 63 65  1  0  0  0
 63142  1  0  0  0
 63143  1  0  0  0
 63144  1  0  0  0
 64145  1  0  0  0
 65146  1  0  0  0
 68 82  1  0  0  0
 71 73  2  0  0  0
 71 74  1  0  0  0
 71147  1  0  0  0
 72 73  1  0  0  0
 72 75  2  0  0  0
 72148  1  0  0  0
 73 83  1  0  0  0
 74 76  1  0  0  0
 74 86  2  0  0  0
 75 84  1  0  0  0
 75 86  1  0  0  0
 76149  1  0  0  0
 76150  1  0  0  0
 76151  1  0  0  0
 77152  1  0  0  0
 77153  1  0  0  0
 77154  1  0  0  0
 77 83  1  0  0  0
 78155  1  0  0  0
 78156  1  0  0  0
 78157  1  0  0  0
 78 84  1  0  0  0
 79158  1  0  0  0
 79159  1  0  0  0
 79160  1  0  0  0
 79 85  1  0  0  0
 80 81  1  0  0  0
 80 85  1  0  0  0
 80161  1  0  0  0
 80162  1  0  0  0
 81 87  1  0  0  0
 81163  1  0  0  0
 81164  1  0  0  0
 82 83  1  0  0  0
 82165  1  0  0  0
 82166  1  0  0  0
 83167  1  0  0  0
 84 85  1  0  0  0
 84168  1  0  0  0
 85169  1  0  0  0
 87170  1  0  0  0
M  ISO  4   1 100  68 101  82 101  87 100
M  END
> <chiral flag>
0

> <version>
0

> <s_m_source_file>
/data/baiqing/PycharmProjects/Reinvent-master-3.2/result/LINK_invent/BTK/process_docking_weight1_custom_sum_contain_oxygen_bond_distance_aromatic_linkinvent_7_9_3/rearranged_h_0089.sdf

> <i_m_source_file_index>
11

> <r_mmod_Potential_Energy-OPLS-2005>
-148.654525756836

> <r_mmod_Stretch_Energy-OPLS-2005>
37.7279167175293

> <r_mmod_Bend_Energy-OPLS-2005>
127.977828979492

> <r_mmod_Torsional_Energy-OPLS-2005>
225.406188964844

> <r_mmod_Improper_Torsional_Energy-OPLS-2005>
6.51949644088745

> <r_mmod_Van_der_Waal_Energy-OPLS-2005>
170.182006835938

> <r_mmod_Electrostatic_Energy-OPLS-2005>
-524.746459960938

> <r_mmod_Solvation_Energy-OPLS-2005>
-206.651550292969

> <b_mmod_Minimization_Converged-OPLS-2005>
0

> <r_mmod_RMS_Derivative-OPLS-2005>
6.18446731567383

$$$$
11
                    3D
 Structure written by MMmdl.
167174  0  0  1  0            999 V2000
  -30.6282  -14.7041   20.4636 C   0  0  0  0  0  0
  -30.4559  -12.4324   19.4715 C   0  0  0  0  0  0
  -29.5146  -12.4440   18.2490 C   0  0  0  0  0  0
  -28.0458  -12.2710   18.6786 C   0  0  0  0  0  0
  -27.6467  -13.2139   19.8450 C   0  0  2  0  0  0
  -28.6965  -13.1423   20.9772 C   0  0  0  0  0  0
  -25.2476  -13.8145   20.5610 C   0  0  0  0  0  0
  -24.1789  -13.0443   20.9182 C   0  0  0  0  0  0
  -24.6349  -11.6909   20.8774 C   0  0  0  0  0  0
  -23.9040  -10.4317   21.0449 C   0  0  0  0  0  0
  -24.3561   -9.4199   21.9189 C   0  0  0  0  0  0
  -23.6236   -8.2264   22.0732 C   0  0  0  0  0  0
  -22.4246   -8.0262   21.3565 C   0  0  0  0  0  0
  -21.9907   -9.0245   20.4659 C   0  0  0  0  0  0
  -22.7211  -10.2136   20.3089 C   0  0  0  0  0  0
  -21.6834   -6.0734   22.5284 C   0  0  0  0  0  0
  -21.3987   -6.5640   23.8203 C   0  0  0  0  0  0
  -21.3675   -5.6787   24.9193 C   0  0  0  0  0  0
  -21.6067   -4.3054   24.7249 C   0  0  0  0  0  0
  -21.8814   -3.8151   23.4379 C   0  0  0  0  0  0
  -21.9163   -4.6956   22.3426 C   0  0  0  0  0  0
  -22.7788  -13.5219   21.1847 C   0  0  0  0  0  0
  -22.1633   -4.2136   21.1001 F   0  0  0  0  0  0
  -21.5657   -3.4541   25.7780 F   0  0  0  0  0  0
  -30.0047  -13.4850   20.3980 N   0  0  0  0  0  0
  -26.2943  -12.9342   20.3291 N   0  0  0  0  0  0
  -25.9276  -11.6511   20.5826 N   0  0  0  0  0  0
  -22.0453  -12.8225   22.0426 N   0  0  0  0  0  0
  -25.4269  -15.1877   20.3946 N   0  0  0  0  0  0
  -31.8151  -14.8269   20.1509 O   0  0  0  0  0  0
  -21.6606   -6.8872   21.4246 O   0  0  0  0  0  0
  -22.3442  -14.5537   20.6654 O   0  0  0  0  0  0
  -24.6242  -31.8600   23.1963 C   0  0  0  0  0  0
  -25.9047  -32.4827   23.8298 C   0  0  1  0  0  0
  -27.2363  -27.2833   20.1178 C   0  0  0  0  0  0
  -25.5857  -33.8628   24.2324 N   0  0  0  0  0  0
  -23.4204  -30.4787   21.5359 C   0  0  2  0  0  0
  -24.8671  -28.9151   20.1024 C   0  0  0  0  0  0
  -22.7472  -29.4637   22.4909 C   0  0  0  0  0  0
  -18.0307  -28.1402   22.8461 C   0  0  0  0  0  0
  -24.1468  -36.7298   23.2642 C   0  0  0  0  0  0
  -25.9603  -30.7717   21.3712 C   0  0  0  0  0  0
  -26.0306  -29.3930   20.7160 C   0  0  0  0  0  0
  -27.2056  -28.5835   20.7191 C   0  0  0  0  0  0
  -26.0511  -26.8651   19.4680 C   0  0  0  0  0  0
  -24.8784  -27.6589   19.4728 C   0  0  0  0  0  0
  -23.6348  -29.7964   20.1535 C   0  0  0  0  0  0
  -25.4107  -36.3200   24.0370 C   0  0  1  0  0  0
  -20.5888  -28.3732   23.1242 C   0  0  2  0  0  0
  -20.6781  -26.9442   22.5419 C   0  0  0  0  0  0
  -19.5766  -26.6391   21.5191 C   0  0  0  0  0  0
  -18.1945  -26.7935   22.1600 C   0  0  0  0  0  0
  -19.1559  -28.8867   23.2844 C   0  0  0  0  0  0
  -18.9480  -30.1445   23.8888 C   0  0  0  0  0  0
  -17.6485  -30.6599   24.0554 C   0  0  0  0  0  0
  -25.9046  -34.9521   23.5206 C   0  0  0  0  0  0
  -16.5371  -29.9104   23.6320 C   0  0  0  0  0  0
  -16.7279  -28.6518   23.0340 C   0  0  0  0  0  0
  -26.4405  -31.6640   25.0700 C   0  0  0  0  0  0
  -25.3616  -31.3697   26.1425 C   0  0  0  0  0  0
  -27.0253  -30.3083   24.6140 C   0  0  0  0  0  0
  -27.6049  -32.4292   25.7427 C   0  0  0  0  0  0
  -27.5607  -37.1825   24.8484 C   0  0  0  0  0  0
  -21.4186  -29.3064   22.3624 N   0  0  0  0  0  0
  -26.4343  -37.3869   23.9416 N   0  0  0  0  0  0
  -24.6877  -31.0556   22.0918 N   0  0  0  0  0  0
  -23.4181  -28.8188   23.3009 O   0  0  0  0  0  0
  -28.3866  -26.4731   20.2204 O   0  0  0  0  0  0
  -26.5627  -34.8984   22.4802 O   0  0  0  0  0  0
  -23.5375  -32.1371   23.7283 O   0  0  0  0  0  0
  -26.0493  -24.4063   22.0037 C   0  0  0  0  0  0
  -26.3370  -22.0359   21.2519 C   0  0  0  0  0  0
  -30.6931  -23.0006   21.2926 C   0  0  0  0  0  0
  -28.4459  -18.0752   19.2434 C   0  0  0  0  0  0
  -30.1481  -17.2587   21.0394 C   0  0  0  0  0  0
  -29.3024  -21.1790   20.0640 C   0  0  0  0  0  0
  -28.5133  -25.0400   19.7991 C   0  0  0  0  0  0
  -26.7210  -23.5020   20.9514 C   0  0  0  0  0  0
  -29.2578  -22.5171   20.9907 C   0  0  2  0  0  0
  -28.2523  -23.8107   20.8215 C   0  0  2  0  0  0
  -29.6846  -18.4789   20.0755 C   0  0  2  0  0  0
  -29.8368  -15.7993   20.7317 N   0  0  0  0  0  0
  -29.5135  -19.8363   20.7979 N   0  3  0  0  0  0
  -31.4835  -12.5775   19.1397 H   0  0  0  0  0  0
  -30.4461  -11.4640   19.9748 H   0  0  0  0  0  0
  -29.7978  -11.6512   17.5482 H   0  0  0  0  0  0
  -29.6232  -13.3776   17.6975 H   0  0  0  0  0  0
  -27.9321  -11.2336   18.9894 H   0  0  0  0  0  0
  -27.3822  -12.4001   17.8249 H   0  0  0  0  0  0
  -27.6414  -14.2233   19.4308 H   0  0  0  0  0  0
  -28.7147  -12.1414   21.4150 H   0  0  0  0  0  0
  -28.4299  -13.8217   21.7879 H   0  0  0  0  0  0
  -25.2775   -9.5636   22.4674 H   0  0  0  0  0  0
  -23.9941   -7.4693   22.7465 H   0  0  0  0  0  0
  -21.0856   -8.8765   19.8997 H   0  0  0  0  0  0
  -22.3700  -10.9609   19.6143 H   0  0  0  0  0  0
  -21.1940   -7.6137   23.9692 H   0  0  0  0  0  0
  -21.1505   -6.0546   25.9081 H   0  0  0  0  0  0
  -22.0575   -2.7599   23.2886 H   0  0  0  0  0  0
  -22.4064  -11.9873   22.4819 H   0  0  0  0  0  0
  -21.1081  -13.1234   22.2707 H   0  0  0  0  0  0
  -24.6764  -15.8522   20.5307 H   0  0  0  0  0  0
  -26.2681  -15.6234   20.0437 H   0  0  0  0  0  0
  -26.7126  -32.5505   23.1037 H   0  0  0  0  0  0
  -24.9989  -33.9760   25.0459 H   0  0  0  0  0  0
  -22.7173  -31.3014   21.3831 H   0  0  0  0  0  0
  -23.3842  -35.9544   23.3344 H   0  0  0  0  0  0
  -24.3550  -36.8847   22.2064 H   0  0  0  0  0  0
  -23.7080  -37.6454   23.6591 H   0  0  0  0  0  0
  -26.0946  -31.5257   20.5943 H   0  0  0  0  0  0
  -26.8403  -30.8295   21.9992 H   0  0  0  0  0  0
  -28.0902  -28.9357   21.2240 H   0  0  0  0  0  0
  -26.0000  -25.9017   18.9769 H   0  0  0  0  0  0
  -23.9809  -27.2927   18.9929 H   0  0  0  0  0  0
  -23.7410  -30.5638   19.3865 H   0  0  0  0  0  0
  -22.7550  -29.2182   19.8677 H   0  0  0  0  0  0
  -25.1267  -36.2139   25.0869 H   0  0  0  0  0  0
  -20.9990  -28.3347   24.1343 H   0  0  0  0  0  0
  -20.5667  -26.2334   23.3628 H   0  0  0  0  0  0
  -21.6658  -26.7454   22.1220 H   0  0  0  0  0  0
  -19.6948  -25.6288   21.1242 H   0  0  0  0  0  0
  -19.6727  -27.3190   20.6700 H   0  0  0  0  0  0
  -17.4227  -26.6675   21.4013 H   0  0  0  0  0  0
  -18.0359  -26.0097   22.9006 H   0  0  0  0  0  0
  -19.7983  -30.7242   24.2296 H   0  0  0  0  0  0
  -17.5076  -31.6278   24.5165 H   0  0  0  0  0  0
  -15.5395  -30.3016   23.7641 H   0  0  0  0  0  0
  -15.8682  -28.0830   22.7058 H   0  0  0  0  0  0
  -24.5889  -30.6956   25.7656 H   0  0  0  0  0  0
  -24.8661  -32.2801   26.4813 H   0  0  0  0  0  0
  -25.7915  -30.8877   27.0220 H   0  0  0  0  0  0
  -26.2836  -29.6833   24.1185 H   0  0  0  0  0  0
  -27.3949  -29.7330   25.4622 H   0  0  0  0  0  0
  -27.8668  -30.4352   23.9341 H   0  0  0  0  0  0
  -27.2835  -33.3653   26.1970 H   0  0  0  0  0  0
  -28.3856  -32.6719   25.0212 H   0  0  0  0  0  0
  -28.0726  -31.8413   26.5324 H   0  0  0  0  0  0
  -28.2688  -38.0071   24.7613 H   0  0  0  0  0  0
  -28.1072  -36.2645   24.6293 H   0  0  0  0  0  0
  -27.2323  -37.1437   25.8880 H   0  0  0  0  0  0
  -20.9389  -29.8780   21.6802 H   0  0  0  0  0  0
  -26.0294  -38.2984   24.1399 H   0  0  0  0  0  0
  -26.4756  -24.2412   22.9956 H   0  0  0  0  0  0
  -24.9741  -24.2186   22.0669 H   0  0  0  0  0  0
  -26.1570  -25.4642   21.7680 H   0  0  0  0  0  0
  -26.8702  -21.6334   22.1128 H   0  0  0  0  0  0
  -26.5041  -21.3849   20.3944 H   0  0  0  0  0  0
  -25.2780  -21.9330   21.4919 H   0  0  0  0  0  0
  -31.2543  -22.2616   21.8696 H   0  0  0  0  0  0
  -30.6943  -23.9178   21.8853 H   0  0  0  0  0  0
  -31.2515  -23.2099   20.3822 H   0  0  0  0  0  0
  -27.6075  -17.7886   19.8867 H   0  0  0  0  0  0
  -28.6713  -17.2252   18.5938 H   0  0  0  0  0  0
  -28.1114  -18.8744   18.5825 H   0  0  0  0  0  0
  -29.6736  -17.4245   22.0050 H   0  0  0  0  0  0
  -31.2160  -17.3497   21.2434 H   0  0  0  0  0  0
  -30.1227  -21.3027   19.3574 H   0  0  0  0  0  0
  -28.4140  -21.1093   19.4345 H   0  0  0  0  0  0
  -27.9883  -24.8684   18.8594 H   0  0  0  0  0  0
  -29.5669  -24.9725   19.5258 H   0  0  0  0  0  0
  -26.2574  -23.7329   19.9920 H   0  0  0  0  0  0
  -28.9504  -22.1274   21.9595 H   0  0  0  0  0  0
  -28.4859  -24.3096   21.7628 H   0  0  0  0  0  0
  -30.4911  -18.6330   19.3503 H   0  0  0  0  0  0
  -28.8878  -15.5378   20.9562 H   0  0  0  0  0  0
  -28.7183  -19.7198   21.4058 H   0  0  0  0  0  0
  -30.3051  -19.9568   21.4138 H   0  0  0  0  0  0
  1 25  1  0  0  0
  1 30  2  0  0  0
  1 82  1  0  0  0
  2  3  1  0  0  0
  2 25  1  0  0  0
  2 84  1  0  0  0
  2 85  1  0  0  0
  3  4  1  0  0  0
  3 86  1  0  0  0
  3 87  1  0  0  0
  4  5  1  0  0  0
  4 88  1  0  0  0
  4 89  1  0  0  0
  5  6  1  0  0  0
  5 26  1  0  0  0
  5 90  1  0  0  0
  6 25  1  0  0  0
  6 91  1  0  0  0
  6 92  1  0  0  0
  7  8  2  0  0  0
  7 26  1  0  0  0
  7 29  1  0  0  0
  8  9  1  0  0  0
  8 22  1  0  0  0
  9 10  1  0  0  0
  9 27  2  0  0  0
 10 11  2  0  0  0
 10 15  1  0  0  0
 11 12  1  0  0  0
 11 93  1  0  0  0
 12 13  2  0  0  0
 12 94  1  0  0  0
 13 14  1  0  0  0
 13 31  1  0  0  0
 14 15  2  0  0  0
 14 95  1  0  0  0
 15 96  1  0  0  0
 16 17  2  0  0  0
 16 21  1  0  0  0
 16 31  1  0  0  0
 17 18  1  0  0  0
 17 97  1  0  0  0
 18 19  2  0  0  0
 18 98  1  0  0  0
 19 20  1  0  0  0
 19 24  1  0  0  0
 20 21  2  0  0  0
 20 99  1  0  0  0
 21 23  1  0  0  0
 22 28  1  0  0  0
 22 32  2  0  0  0
 26 27  1  0  0  0
 28100  1  0  0  0
 28101  1  0  0  0
 29102  1  0  0  0
 29103  1  0  0  0
 33 34  1  0  0  0
 33 66  1  0  0  0
 33 70  2  0  0  0
 34 36  1  0  0  0
 34 59  1  0  0  0
 34104  1  0  0  0
 35 44  2  0  0  0
 35 45  1  0  0  0
 35 68  1  0  0  0
 36 56  1  0  0  0
 36105  1  0  0  0
 37 39  1  0  0  0
 37 47  1  0  0  0
 37 66  1  0  0  0
 37106  1  0  0  0
 38 43  2  0  0  0
 38 46  1  0  0  0
 38 47  1  0  0  0
 39 64  1  0  0  0
 39 67  2  0  0  0
 40 52  1  0  0  0
 40 53  2  0  0  0
 40 58  1  0  0  0
 41107  1  0  0  0
 41108  1  0  0  0
 41109  1  0  0  0
 41 48  1  0  0  0
 42 43  1  0  0  0
 42 66  1  0  0  0
 42110  1  0  0  0
 42111  1  0  0  0
 43 44  1  0  0  0
 44112  1  0  0  0
 45 46  2  0  0  0
 45113  1  0  0  0
 46114  1  0  0  0
 47115  1  0  0  0
 47116  1  0  0  0
 48 56  1  0  0  0
 48 65  1  0  0  0
 48117  1  0  0  0
 49 50  1  0  0  0
 49 53  1  0  0  0
 49 64  1  0  0  0
 49118  1  0  0  0
 50 51  1  0  0  0
 50119  1  0  0  0
 50120  1  0  0  0
 51 52  1  0  0  0
 51121  1  0  0  0
 51122  1  0  0  0
 52123  1  0  0  0
 52124  1  0  0  0
 53 54  1  0  0  0
 54 55  2  0  0  0
 54125  1  0  0  0
 55 57  1  0  0  0
 55126  1  0  0  0
 56 69  2  0  0  0
 57 58  2  0  0  0
 57127  1  0  0  0
 58128  1  0  0  0
 59 60  1  0  0  0
 59 61  1  0  0  0
 59 62  1  0  0  0
 60129  1  0  0  0
 60130  1  0  0  0
 60131  1  0  0  0
 61132  1  0  0  0
 61133  1  0  0  0
 61134  1  0  0  0
 62135  1  0  0  0
 62136  1  0  0  0
 62137  1  0  0  0
 63 65  1  0  0  0
 63138  1  0  0  0
 63139  1  0  0  0
 63140  1  0  0  0
 64141  1  0  0  0
 65142  1  0  0  0
 68 77  1  0  0  0
 71143  1  0  0  0
 71144  1  0  0  0
 71145  1  0  0  0
 71 78  1  0  0  0
 72 78  1  0  0  0
 72146  1  0  0  0
 72147  1  0  0  0
 72148  1  0  0  0
 73149  1  0  0  0
 73150  1  0  0  0
 73151  1  0  0  0
 73 79  1  0  0  0
 74152  1  0  0  0
 74153  1  0  0  0
 74154  1  0  0  0
 74 81  1  0  0  0
 75 81  1  0  0  0
 75 82  1  0  0  0
 75155  1  0  0  0
 75156  1  0  0  0
 76 79  1  0  0  0
 76 83  1  0  0  0
 76157  1  0  0  0
 76158  1  0  0  0
 77159  1  0  0  0
 77160  1  0  0  0
 77 80  1  0  0  0
 78 80  1  0  0  0
 78161  1  0  0  0
 79 80  1  0  0  0
 79162  1  0  0  0
 80163  1  0  0  0
 81 83  1  0  0  0
 81164  1  0  0  0
 82165  1  0  0  0
 83166  1  0  0  0
 83167  1  0  0  0
M  CHG  1  83   1
M  ISO  4   1 100  68 101  77 101  82 100
M  END
> <chiral flag>
0

> <version>
0

> <s_m_source_file>
/data/baiqing/PycharmProjects/Reinvent-master-3.2/result/LINK_invent/BTK/process_docking_weight1_custom_sum_contain_oxygen_bond_distance_aromatic_linkinvent_7_9_3/rearranged_h_0089.sdf

> <i_m_source_file_index>
12

> <r_mmod_Potential_Energy-OPLS-2005>
48.7536544799805

> <r_mmod_Stretch_Energy-OPLS-2005>
128.594299316406

> <r_mmod_Bend_Energy-OPLS-2005>
232.510131835938

> <r_mmod_Torsional_Energy-OPLS-2005>
261.636108398438

> <r_mmod_Improper_Torsional_Energy-OPLS-2005>
3.93361711502075

> <r_mmod_Van_der_Waal_Energy-OPLS-2005>
115.464263916016

> <r_mmod_Electrostatic_Energy-OPLS-2005>
-295.885314941406

> <r_mmod_Solvation_Energy-OPLS-2005>
-469.536407470703

> <b_mmod_Minimization_Converged-OPLS-2005>
0

> <r_mmod_RMS_Derivative-OPLS-2005>
8.92681121826172

$$$$
12
                    3D
 Structure written by MMmdl.
160168  0  0  1  0            999 V2000
  -30.6679  -14.5429   20.5244 C   0  0  0  0  0  0
  -30.4248  -12.3345   19.4418 C   0  0  0  0  0  0
  -29.5009  -12.5055   18.2170 C   0  0  0  0  0  0
  -28.0229  -12.3531   18.6282 C   0  0  0  0  0  0
  -27.6581  -13.2095   19.8709 C   0  0  2  0  0  0
  -28.7013  -13.0310   20.9988 C   0  0  0  0  0  0
  -25.2583  -13.8163   20.5680 C   0  0  0  0  0  0
  -24.1840  -13.0439   20.9187 C   0  0  0  0  0  0
  -24.6395  -11.6909   20.8740 C   0  0  0  0  0  0
  -23.9060  -10.4294   21.0397 C   0  0  0  0  0  0
  -24.3618   -9.4208   21.9170 C   0  0  0  0  0  0
  -23.6300   -8.2239   22.0741 C   0  0  0  0  0  0
  -22.4279   -8.0277   21.3539 C   0  0  0  0  0  0
  -21.9911   -9.0244   20.4638 C   0  0  0  0  0  0
  -22.7234  -10.2127   20.3047 C   0  0  0  0  0  0
  -21.6851   -6.0738   22.5277 C   0  0  0  0  0  0
  -21.4008   -6.5639   23.8212 C   0  0  0  0  0  0
  -21.3665   -5.6788   24.9173 C   0  0  0  0  0  0
  -21.6049   -4.3053   24.7216 C   0  0  0  0  0  0
  -21.8820   -3.8149   23.4334 C   0  0  0  0  0  0
  -21.9192   -4.6967   22.3397 C   0  0  0  0  0  0
  -22.7865  -13.5239   21.1848 C   0  0  0  0  0  0
  -22.1665   -4.2161   21.0971 F   0  0  0  0  0  0
  -21.5632   -3.4529   25.7724 F   0  0  0  0  0  0
  -30.0260  -13.3423   20.4394 N   0  0  0  0  0  0
  -26.3011  -12.9335   20.3348 N   0  0  0  0  0  0
  -25.9325  -11.6496   20.5778 N   0  0  0  0  0  0
  -22.0513  -12.8230   22.0411 N   0  0  0  0  0  0
  -25.4297  -15.1881   20.4067 N   0  0  0  0  0  0
  -31.8152  -14.7120   20.1035 O   0  0  0  0  0  0
  -21.6640   -6.8877   21.4238 O   0  0  0  0  0  0
  -22.3548  -14.5542   20.6693 O   0  0  0  0  0  0
  -24.6196  -31.8626   23.2053 C   0  0  0  0  0  0
  -25.9070  -32.4796   23.8369 C   0  0  1  0  0  0
  -27.2371  -27.3919   20.1181 C   0  0  0  0  0  0
  -25.5903  -33.8597   24.2299 N   0  0  0  0  0  0
  -23.4104  -30.4850   21.5451 C   0  0  2  0  0  0
  -24.8587  -28.9378   20.1188 C   0  0  0  0  0  0
  -22.7433  -29.4649   22.4965 C   0  0  0  0  0  0
  -18.0272  -28.1394   22.8479 C   0  0  0  0  0  0
  -24.1479  -36.7307   23.2646 C   0  0  0  0  0  0
  -25.9428  -30.8171   21.3632 C   0  0  0  0  0  0
  -26.0210  -29.4466   20.7144 C   0  0  0  0  0  0
  -27.2163  -28.6844   20.7028 C   0  0  0  0  0  0
  -26.0582  -26.9002   19.5229 C   0  0  0  0  0  0
  -24.8743  -27.6647   19.5188 C   0  0  0  0  0  0
  -23.6226  -29.8110   20.1624 C   0  0  0  0  0  0
  -25.4102  -36.3102   24.0340 C   0  0  1  0  0  0
  -20.5867  -28.3686   23.1303 C   0  0  2  0  0  0
  -20.6773  -26.9416   22.5417 C   0  0  0  0  0  0
  -19.5752  -26.6389   21.5211 C   0  0  0  0  0  0
  -18.1925  -26.7939   22.1612 C   0  0  0  0  0  0
  -19.1524  -28.8851   23.2886 C   0  0  0  0  0  0
  -18.9452  -30.1456   23.8901 C   0  0  0  0  0  0
  -17.6459  -30.6590   24.0573 C   0  0  0  0  0  0
  -25.9033  -34.9467   23.5117 C   0  0  0  0  0  0
  -16.5346  -29.9093   23.6333 C   0  0  0  0  0  0
  -16.7262  -28.6519   23.0339 C   0  0  0  0  0  0
  -26.4481  -31.6596   25.0717 C   0  0  0  0  0  0
  -25.3755  -31.3711   26.1478 C   0  0  0  0  0  0
  -27.0322  -30.3034   24.6130 C   0  0  0  0  0  0
  -27.6041  -32.4336   25.7478 C   0  0  0  0  0  0
  -27.5575  -37.1809   24.8469 C   0  0  0  0  0  0
  -21.4155  -29.3046   22.3704 N   0  0  0  0  0  0
  -26.4283  -37.3791   23.9416 N   0  0  0  0  0  0
  -24.6761  -31.0711   22.0962 N   0  0  0  0  0  0
  -23.4180  -28.8201   23.3036 O   0  0  0  0  0  0
  -28.3920  -26.6315   20.0759 O   0  0  0  0  0  0
  -26.5595  -34.8935   22.4679 O   0  0  0  0  0  0
  -23.5377  -32.1390   23.7435 O   0  0  0  0  0  0
  -25.9241  -20.8605   22.1497 C   0  0  0  0  0  0
  -26.7718  -19.8147   21.7238 C   0  0  0  0  0  0
  -26.5959  -22.0339   21.9877 C   0  0  0  0  0  0
  -27.9603  -20.3488   21.3036 C   0  0  0  0  0  0
  -26.1345  -23.3932   22.4059 C   0  0  0  0  0  0
  -29.1830  -19.5419   20.8634 C   0  0  0  0  0  0
  -29.0175  -17.9824   21.0449 C   0  0  0  0  0  0
  -28.3523  -24.0557   20.2110 C   0  0  0  0  0  0
  -28.8395  -22.7988   21.0420 C   0  0  0  0  0  0
  -30.2253  -17.0389   20.7278 C   0  0  0  0  0  0
  -28.4487  -25.4542   20.9222 C   0  0  0  0  0  0
  -27.8319  -21.7628   21.3858 N   0  0  0  0  0  0
  -29.9042  -15.5963   20.9034 N   0  0  0  0  0  0
  -31.4713  -12.4284   19.1477 H   0  0  0  0  0  0
  -30.3225  -11.3321   19.8602 H   0  0  0  0  0  0
  -29.7548  -11.7752   17.4477 H   0  0  0  0  0  0
  -29.6566  -13.4884   17.7696 H   0  0  0  0  0  0
  -27.8497  -11.2977   18.8411 H   0  0  0  0  0  0
  -27.3687  -12.6035   17.7924 H   0  0  0  0  0  0
  -27.6887  -14.2515   19.5515 H   0  0  0  0  0  0
  -28.6901  -12.0057   21.3721 H   0  0  0  0  0  0
  -28.4627  -13.6582   21.8588 H   0  0  0  0  0  0
  -25.2767   -9.5686   22.4741 H   0  0  0  0  0  0
  -24.0022   -7.4622   22.7446 H   0  0  0  0  0  0
  -21.0849   -8.8748   19.8936 H   0  0  0  0  0  0
  -22.3686  -10.9659   19.6153 H   0  0  0  0  0  0
  -21.1995   -7.6145   23.9721 H   0  0  0  0  0  0
  -21.1495   -6.0512   25.9078 H   0  0  0  0  0  0
  -22.0599   -2.7614   23.2820 H   0  0  0  0  0  0
  -22.4150  -11.9900   22.4802 H   0  0  0  0  0  0
  -21.1114  -13.1215   22.2600 H   0  0  0  0  0  0
  -24.6566  -15.8376   20.5013 H   0  0  0  0  0  0
  -26.2750  -15.6259   20.0640 H   0  0  0  0  0  0
  -26.7150  -32.5488   23.1135 H   0  0  0  0  0  0
  -25.0064  -33.9750   25.0452 H   0  0  0  0  0  0
  -22.7030  -31.3034   21.3998 H   0  0  0  0  0  0
  -23.3733  -35.9646   23.3311 H   0  0  0  0  0  0
  -24.3580  -36.8912   22.2061 H   0  0  0  0  0  0
  -23.7231  -37.6514   23.6651 H   0  0  0  0  0  0
  -26.0628  -31.5794   20.5926 H   0  0  0  0  0  0
  -26.8291  -30.8702   21.9837 H   0  0  0  0  0  0
  -28.1172  -29.0797   21.1507 H   0  0  0  0  0  0
  -26.0598  -25.9242   19.0583 H   0  0  0  0  0  0
  -23.9817  -27.2652   19.0565 H   0  0  0  0  0  0
  -23.7390  -30.5828   19.4008 H   0  0  0  0  0  0
  -22.7453  -29.2342   19.8642 H   0  0  0  0  0  0
  -25.1282  -36.1960   25.0833 H   0  0  0  0  0  0
  -20.9959  -28.3260   24.1423 H   0  0  0  0  0  0
  -20.5679  -26.2293   23.3611 H   0  0  0  0  0  0
  -21.6646  -26.7460   22.1211 H   0  0  0  0  0  0
  -19.6920  -25.6300   21.1235 H   0  0  0  0  0  0
  -19.6704  -27.3210   20.6753 H   0  0  0  0  0  0
  -17.4206  -26.6682   21.4004 H   0  0  0  0  0  0
  -18.0319  -26.0088   22.9016 H   0  0  0  0  0  0
  -19.7931  -30.7273   24.2270 H   0  0  0  0  0  0
  -17.5013  -31.6272   24.5179 H   0  0  0  0  0  0
  -15.5349  -30.3002   23.7662 H   0  0  0  0  0  0
  -15.8659  -28.0854   22.7036 H   0  0  0  0  0  0
  -24.5913  -30.7067   25.7830 H   0  0  0  0  0  0
  -24.8966  -32.2872   26.4946 H   0  0  0  0  0  0
  -25.8128  -30.8871   27.0222 H   0  0  0  0  0  0
  -26.2874  -29.6775   24.1201 H   0  0  0  0  0  0
  -27.4093  -29.7300   25.4606 H   0  0  0  0  0  0
  -27.8709  -30.4331   23.9285 H   0  0  0  0  0  0
  -27.2630  -33.3615   26.2078 H   0  0  0  0  0  0
  -28.3831  -32.6935   25.0299 H   0  0  0  0  0  0
  -28.0736  -31.8458   26.5375 H   0  0  0  0  0  0
  -28.2610  -38.0091   24.7513 H   0  0  0  0  0  0
  -28.1048  -36.2628   24.6281 H   0  0  0  0  0  0
  -27.2309  -37.1463   25.8878 H   0  0  0  0  0  0
  -20.9326  -29.8753   21.6909 H   0  0  0  0  0  0
  -26.0167  -38.2866   24.1406 H   0  0  0  0  0  0
  -24.9324  -20.7589   22.5712 H   0  0  0  0  0  0
  -26.5351  -18.7603   21.7640 H   0  0  0  0  0  0
  -25.2353  -23.3210   23.0186 H   0  0  0  0  0  0
  -25.8836  -24.0187   21.5510 H   0  0  0  0  0  0
  -26.8876  -23.8931   23.0132 H   0  0  0  0  0  0
  -30.0537  -19.8773   21.4276 H   0  0  0  0  0  0
  -29.3998  -19.7600   19.8175 H   0  0  0  0  0  0
  -28.1740  -17.6634   20.4317 H   0  0  0  0  0  0
  -28.7270  -17.7896   22.0789 H   0  0  0  0  0  0
  -27.3510  -23.8948   19.8129 H   0  0  0  0  0  0
  -28.9895  -24.1117   19.3281 H   0  0  0  0  0  0
  -29.3063  -23.1257   21.9714 H   0  0  0  0  0  0
  -29.6361  -22.3063   20.4833 H   0  0  0  0  0  0
  -31.0753  -17.2920   21.3633 H   0  0  0  0  0  0
  -30.5504  -17.2035   19.6986 H   0  0  0  0  0  0
  -29.4176  -25.5062   21.4198 H   0  0  0  0  0  0
  -27.7178  -25.5399   21.7243 H   0  0  0  0  0  0
  -28.9781  -15.3679   21.2317 H   0  0  0  0  0  0
  1 25  1  0  0  0
  1 30  2  0  0  0
  1 83  1  0  0  0
  2  3  1  0  0  0
  2 25  1  0  0  0
  2 84  1  0  0  0
  2 85  1  0  0  0
  3  4  1  0  0  0
  3 86  1  0  0  0
  3 87  1  0  0  0
  4  5  1  0  0  0
  4 88  1  0  0  0
  4 89  1  0  0  0
  5  6  1  0  0  0
  5 26  1  0  0  0
  5 90  1  0  0  0
  6 25  1  0  0  0
  6 91  1  0  0  0
  6 92  1  0  0  0
  7  8  2  0  0  0
  7 26  1  0  0  0
  7 29  1  0  0  0
  8  9  1  0  0  0
  8 22  1  0  0  0
  9 10  1  0  0  0
  9 27  2  0  0  0
 10 11  2  0  0  0
 10 15  1  0  0  0
 11 12  1  0  0  0
 11 93  1  0  0  0
 12 13  2  0  0  0
 12 94  1  0  0  0
 13 14  1  0  0  0
 13 31  1  0  0  0
 14 15  2  0  0  0
 14 95  1  0  0  0
 15 96  1  0  0  0
 16 17  2  0  0  0
 16 21  1  0  0  0
 16 31  1  0  0  0
 17 18  1  0  0  0
 17 97  1  0  0  0
 18 19  2  0  0  0
 18 98  1  0  0  0
 19 20  1  0  0  0
 19 24  1  0  0  0
 20 21  2  0  0  0
 20 99  1  0  0  0
 21 23  1  0  0  0
 22 28  1  0  0  0
 22 32  2  0  0  0
 26 27  1  0  0  0
 28100  1  0  0  0
 28101  1  0  0  0
 29102  1  0  0  0
 29103  1  0  0  0
 33 34  1  0  0  0
 33 66  1  0  0  0
 33 70  2  0  0  0
 34 36  1  0  0  0
 34 59  1  0  0  0
 34104  1  0  0  0
 35 44  2  0  0  0
 35 45  1  0  0  0
 35 68  1  0  0  0
 36 56  1  0  0  0
 36105  1  0  0  0
 37 39  1  0  0  0
 37 47  1  0  0  0
 37 66  1  0  0  0
 37106  1  0  0  0
 38 43  2  0  0  0
 38 46  1  0  0  0
 38 47  1  0  0  0
 39 64  1  0  0  0
 39 67  2  0  0  0
 40 52  1  0  0  0
 40 53  2  0  0  0
 40 58  1  0  0  0
 41107  1  0  0  0
 41108  1  0  0  0
 41109  1  0  0  0
 41 48  1  0  0  0
 42 43  1  0  0  0
 42 66  1  0  0  0
 42110  1  0  0  0
 42111  1  0  0  0
 43 44  1  0  0  0
 44112  1  0  0  0
 45 46  2  0  0  0
 45113  1  0  0  0
 46114  1  0  0  0
 47115  1  0  0  0
 47116  1  0  0  0
 48 56  1  0  0  0
 48 65  1  0  0  0
 48117  1  0  0  0
 49 50  1  0  0  0
 49 53  1  0  0  0
 49 64  1  0  0  0
 49118  1  0  0  0
 50 51  1  0  0  0
 50119  1  0  0  0
 50120  1  0  0  0
 51 52  1  0  0  0
 51121  1  0  0  0
 51122  1  0  0  0
 52123  1  0  0  0
 52124  1  0  0  0
 53 54  1  0  0  0
 54 55  2  0  0  0
 54125  1  0  0  0
 55 57  1  0  0  0
 55126  1  0  0  0
 56 69  2  0  0  0
 57 58  2  0  0  0
 57127  1  0  0  0
 58128  1  0  0  0
 59 60  1  0  0  0
 59 61  1  0  0  0
 59 62  1  0  0  0
 60129  1  0  0  0
 60130  1  0  0  0
 60131  1  0  0  0
 61132  1  0  0  0
 61133  1  0  0  0
 61134  1  0  0  0
 62135  1  0  0  0
 62136  1  0  0  0
 62137  1  0  0  0
 63 65  1  0  0  0
 63138  1  0  0  0
 63139  1  0  0  0
 63140  1  0  0  0
 64141  1  0  0  0
 65142  1  0  0  0
 68 81  1  0  0  0
 71 72  1  0  0  0
 71 73  2  0  0  0
 71143  1  0  0  0
 72 74  2  0  0  0
 72144  1  0  0  0
 73 75  1  0  0  0
 73 82  1  0  0  0
 74 76  1  0  0  0
 74 82  1  0  0  0
 75145  1  0  0  0
 75146  1  0  0  0
 75147  1  0  0  0
 76 77  1  0  0  0
 76148  1  0  0  0
 76149  1  0  0  0
 77 80  1  0  0  0
 77150  1  0  0  0
 77151  1  0  0  0
 78 79  1  0  0  0
 78 81  1  0  0  0
 78152  1  0  0  0
 78153  1  0  0  0
 79 82  1  0  0  0
 79154  1  0  0  0
 79155  1  0  0  0
 80 83  1  0  0  0
 80156  1  0  0  0
 80157  1  0  0  0
 81158  1  0  0  0
 81159  1  0  0  0
 83160  1  0  0  0
M  ISO  4   1 100  68 101  81 101  83 100
M  END
> <chiral flag>
0

> <version>
0

> <s_m_source_file>
/data/baiqing/PycharmProjects/Reinvent-master-3.2/result/LINK_invent/BTK/process_docking_weight1_custom_sum_contain_oxygen_bond_distance_aromatic_linkinvent_7_9_3/rearranged_h_0089.sdf

> <i_m_source_file_index>
13

> <r_mmod_Potential_Energy-OPLS-2005>
-42.623046875

> <r_mmod_Stretch_Energy-OPLS-2005>
54.9697189331055

> <r_mmod_Bend_Energy-OPLS-2005>
116.327018737793

> <r_mmod_Torsional_Energy-OPLS-2005>
246.452987670898

> <r_mmod_Improper_Torsional_Energy-OPLS-2005>
5.43651533126831

> <r_mmod_Van_der_Waal_Energy-OPLS-2005>
118.094429016113

> <r_mmod_Electrostatic_Energy-OPLS-2005>
-395.837371826172

> <r_mmod_Solvation_Energy-OPLS-2005>
-209.540771484375

> <b_mmod_Minimization_Converged-OPLS-2005>
0

> <r_mmod_RMS_Derivative-OPLS-2005>
1.4828382730484

$$$$
13
                    3D
 Structure written by MMmdl.
181189  0  0  1  0            999 V2000
  -30.6215  -14.7128   20.4657 C   0  0  0  0  0  0
  -30.4316  -12.4058   19.4898 C   0  0  0  0  0  0
  -29.5179  -12.5077   18.2475 C   0  0  0  0  0  0
  -28.0368  -12.3465   18.6453 C   0  0  0  0  0  0
  -27.6420  -13.2357   19.8567 C   0  0  2  0  0  0
  -28.6716  -13.1419   21.0001 C   0  0  0  0  0  0
  -25.2489  -13.8213   20.5696 C   0  0  0  0  0  0
  -24.1786  -13.0455   20.9189 C   0  0  0  0  0  0
  -24.6384  -11.6930   20.8739 C   0  0  0  0  0  0
  -23.9071  -10.4308   21.0403 C   0  0  0  0  0  0
  -24.3618   -9.4224   21.9183 C   0  0  0  0  0  0
  -23.6299   -8.2253   22.0757 C   0  0  0  0  0  0
  -22.4281   -8.0283   21.3541 C   0  0  0  0  0  0
  -21.9915   -9.0254   20.4639 C   0  0  0  0  0  0
  -22.7246  -10.2135   20.3055 C   0  0  0  0  0  0
  -21.6852   -6.0743   22.5280 C   0  0  0  0  0  0
  -21.4018   -6.5647   23.8216 C   0  0  0  0  0  0
  -21.3665   -5.6796   24.9175 C   0  0  0  0  0  0
  -21.6040   -4.3056   24.7226 C   0  0  0  0  0  0
  -21.8818   -3.8152   23.4345 C   0  0  0  0  0  0
  -21.9192   -4.6971   22.3402 C   0  0  0  0  0  0
  -22.7806  -13.5222   21.1862 C   0  0  0  0  0  0
  -22.1654   -4.2161   21.0979 F   0  0  0  0  0  0
  -21.5635   -3.4537   25.7738 F   0  0  0  0  0  0
  -29.9909  -13.4427   20.4413 N   0  0  0  0  0  0
  -26.2919  -12.9434   20.3264 N   0  0  0  0  0  0
  -25.9309  -11.6566   20.5728 N   0  0  0  0  0  0
  -22.0453  -12.8201   22.0418 N   0  0  0  0  0  0
  -25.4197  -15.1937   20.4163 N   0  0  0  0  0  0
  -31.7894  -14.8791   20.1070 O   0  0  0  0  0  0
  -21.6638   -6.8883   21.4242 O   0  0  0  0  0  0
  -22.3483  -14.5534   20.6731 O   0  0  0  0  0  0
  -24.6274  -31.8563   23.1956 C   0  0  0  0  0  0
  -25.9111  -32.4749   23.8295 C   0  0  1  0  0  0
  -27.2292  -27.2821   20.1285 C   0  0  0  0  0  0
  -25.5915  -33.8555   24.2221 N   0  0  0  0  0  0
  -23.4228  -30.4738   21.5386 C   0  0  2  0  0  0
  -24.8701  -28.9146   20.1083 C   0  0  0  0  0  0
  -22.7480  -29.4595   22.4919 C   0  0  0  0  0  0
  -18.0285  -28.1387   22.8481 C   0  0  0  0  0  0
  -24.1493  -36.7283   23.2634 C   0  0  0  0  0  0
  -25.9640  -30.7728   21.3734 C   0  0  0  0  0  0
  -26.0369  -29.3961   20.7141 C   0  0  0  0  0  0
  -27.2140  -28.5891   20.7149 C   0  0  0  0  0  0
  -26.0401  -26.8503   19.5026 C   0  0  0  0  0  0
  -24.8748  -27.6490   19.4947 C   0  0  0  0  0  0
  -23.6392  -29.8004   20.1556 C   0  0  0  0  0  0
  -25.4121  -36.3071   24.0322 C   0  0  1  0  0  0
  -20.5882  -28.3689   23.1283 C   0  0  2  0  0  0
  -20.6783  -26.9416   22.5404 C   0  0  0  0  0  0
  -19.5770  -26.6386   21.5209 C   0  0  0  0  0  0
  -18.1942  -26.7929   22.1619 C   0  0  0  0  0  0
  -19.1539  -28.8852   23.2866 C   0  0  0  0  0  0
  -18.9470  -30.1452   23.8884 C   0  0  0  0  0  0
  -17.6479  -30.6593   24.0557 C   0  0  0  0  0  0
  -25.9061  -34.9442   23.5085 C   0  0  0  0  0  0
  -16.5367  -29.9088   23.6333 C   0  0  0  0  0  0
  -16.7274  -28.6510   23.0342 C   0  0  0  0  0  0
  -26.4475  -31.6593   25.0703 C   0  0  0  0  0  0
  -25.3678  -31.3753   26.1407 C   0  0  0  0  0  0
  -27.0338  -30.3014   24.6206 C   0  0  0  0  0  0
  -27.5992  -32.4356   25.7509 C   0  0  0  0  0  0
  -27.5576  -37.1800   24.8454 C   0  0  0  0  0  0
  -21.4191  -29.3032   22.3665 N   0  0  0  0  0  0
  -26.4292  -37.3770   23.9402 N   0  0  0  0  0  0
  -24.6897  -31.0537   22.0923 N   0  0  0  0  0  0
  -23.4188  -28.8152   23.3022 O   0  0  0  0  0  0
  -28.3690  -26.4619   20.2135 O   0  0  0  0  0  0
  -26.5644  -34.8921   22.4658 O   0  0  0  0  0  0
  -23.5435  -32.1389   23.7279 O   0  0  0  0  0  0
  -30.3919  -22.5749   21.0062 C   0  0  0  0  0  0
  -28.5925  -21.0880   20.4450 C   0  0  0  0  0  0
  -29.0455  -22.4550   20.6131 C   0  0  0  0  0  0
  -31.1791  -21.4254   21.2360 C   0  0  0  0  0  0
  -29.4642  -19.9404   20.6542 C   0  0  0  0  0  0
  -28.5709  -18.4228   18.0977 C   0  0  0  0  0  0
  -29.0188  -18.3556   23.3127 C   0  0  0  0  0  0
  -37.4215  -22.9787   21.5410 C   0  0  0  0  0  0
  -35.7519  -24.4915   20.4159 C   0  0  0  0  0  0
  -28.1393  -23.7675   20.6199 C   0  0  0  0  0  0
  -32.5640  -21.5598   21.8489 C   0  0  0  0  0  0
  -28.0122  -18.1472   19.5071 C   0  0  0  0  0  0
  -28.2153  -18.1677   22.0112 C   0  0  0  0  0  0
  -33.6074  -22.2200   20.9327 C   0  0  0  0  0  0
  -34.9589  -22.3998   21.6537 C   0  0  0  0  0  0
  -28.4841  -25.0555   19.7127 C   0  0  0  0  0  0
  -30.1317  -17.2394   20.5947 C   0  0  0  0  0  0
  -36.0747  -23.0389   20.8013 C   0  0  0  0  0  0
  -28.9948  -18.4023   20.6851 C   0  0  0  0  0  0
  -30.7398  -20.1604   21.0447 N   0  0  0  0  0  0
  -29.7402  -15.8084   20.7546 O   0  0  0  0  0  0
  -31.4798  -12.5282   19.2087 H   0  0  0  0  0  0
  -30.3524  -11.4198   19.9500 H   0  0  0  0  0  0
  -29.7934  -11.7499   17.5133 H   0  0  0  0  0  0
  -29.6620  -13.4735   17.7622 H   0  0  0  0  0  0
  -27.8738  -11.2963   18.8884 H   0  0  0  0  0  0
  -27.3908  -12.5645   17.7941 H   0  0  0  0  0  0
  -27.6489  -14.2653   19.4976 H   0  0  0  0  0  0
  -28.6722  -12.1439   21.4410 H   0  0  0  0  0  0
  -28.4201  -13.8348   21.8063 H   0  0  0  0  0  0
  -25.2757   -9.5708   22.4756 H   0  0  0  0  0  0
  -24.0009   -7.4652   22.7478 H   0  0  0  0  0  0
  -21.0848   -8.8769   19.8937 H   0  0  0  0  0  0
  -22.3699  -10.9672   19.6160 H   0  0  0  0  0  0
  -21.2007   -7.6152   23.9728 H   0  0  0  0  0  0
  -21.1489   -6.0521   25.9082 H   0  0  0  0  0  0
  -22.0591   -2.7615   23.2840 H   0  0  0  0  0  0
  -22.4073  -11.9849   22.4778 H   0  0  0  0  0  0
  -21.1077  -13.1224   22.2642 H   0  0  0  0  0  0
  -24.6584  -15.8527   20.5377 H   0  0  0  0  0  0
  -26.2826  -15.6292   20.1182 H   0  0  0  0  0  0
  -26.7178  -32.5406   23.1025 H   0  0  0  0  0  0
  -25.0011  -33.9681   25.0332 H   0  0  0  0  0  0
  -22.7202  -31.2953   21.3888 H   0  0  0  0  0  0
  -23.3767  -35.9604   23.3293 H   0  0  0  0  0  0
  -24.3559  -36.8921   22.2042 H   0  0  0  0  0  0
  -23.7247  -37.6475   23.6685 H   0  0  0  0  0  0
  -26.1008  -31.5387   20.6091 H   0  0  0  0  0  0
  -26.8418  -30.8178   22.0079 H   0  0  0  0  0  0
  -28.1081  -28.9503   21.2044 H   0  0  0  0  0  0
  -25.9889  -25.8760   19.0411 H   0  0  0  0  0  0
  -23.9764  -27.2712   19.0249 H   0  0  0  0  0  0
  -23.7567  -30.5752   19.3970 H   0  0  0  0  0  0
  -22.7596  -29.2281   19.8564 H   0  0  0  0  0  0
  -25.1306  -36.1900   25.0818 H   0  0  0  0  0  0
  -20.9957  -28.3279   24.1413 H   0  0  0  0  0  0
  -20.5715  -26.2301   23.3601 H   0  0  0  0  0  0
  -21.6649  -26.7460   22.1186 H   0  0  0  0  0  0
  -19.6943  -25.6297   21.1239 H   0  0  0  0  0  0
  -19.6717  -27.3200   20.6740 H   0  0  0  0  0  0
  -17.4205  -26.6662   21.4026 H   0  0  0  0  0  0
  -18.0333  -26.0086   22.9021 H   0  0  0  0  0  0
  -19.7950  -30.7248   24.2279 H   0  0  0  0  0  0
  -17.5037  -31.6272   24.5145 H   0  0  0  0  0  0
  -15.5371  -30.2975   23.7685 H   0  0  0  0  0  0
  -15.8677  -28.0835   22.7054 H   0  0  0  0  0  0
  -24.5842  -30.7124   25.7712 H   0  0  0  0  0  0
  -24.8867  -32.2931   26.4808 H   0  0  0  0  0  0
  -25.7948  -30.8922   27.0202 H   0  0  0  0  0  0
  -26.2938  -29.6767   24.1182 H   0  0  0  0  0  0
  -27.3954  -29.7273   25.4745 H   0  0  0  0  0  0
  -27.8845  -30.4282   23.9503 H   0  0  0  0  0  0
  -27.2554  -33.3651   26.2062 H   0  0  0  0  0  0
  -28.3830  -32.6928   25.0377 H   0  0  0  0  0  0
  -28.0639  -31.8505   26.5459 H   0  0  0  0  0  0
  -28.2561  -38.0119   24.7510 H   0  0  0  0  0  0
  -28.1101  -36.2644   24.6282 H   0  0  0  0  0  0
  -27.2279  -37.1437   25.8848 H   0  0  0  0  0  0
  -20.9383  -29.8730   21.6847 H   0  0  0  0  0  0
  -26.0176  -38.2843   24.1402 H   0  0  0  0  0  0
  -30.8057  -23.5521   21.2175 H   0  0  0  0  0  0
  -27.5502  -20.9171   20.2147 H   0  0  0  0  0  0
  -27.8007  -18.2568   17.3436 H   0  0  0  0  0  0
  -29.4052  -17.7658   17.8518 H   0  0  0  0  0  0
  -28.9086  -19.4542   17.9898 H   0  0  0  0  0  0
  -28.3983  -18.1372   24.1826 H   0  0  0  0  0  0
  -29.3767  -19.3800   23.4215 H   0  0  0  0  0  0
  -29.8826  -17.6921   23.3616 H   0  0  0  0  0  0
  -38.2234  -23.4077   20.9385 H   0  0  0  0  0  0
  -37.7056  -21.9512   21.7714 H   0  0  0  0  0  0
  -37.3841  -23.5305   22.4816 H   0  0  0  0  0  0
  -36.5695  -24.9392   19.8499 H   0  0  0  0  0  0
  -35.5853  -25.1092   21.2999 H   0  0  0  0  0  0
  -34.8607  -24.5555   19.7912 H   0  0  0  0  0  0
  -28.1384  -24.1059   21.6568 H   0  0  0  0  0  0
  -27.1071  -23.4770   20.4270 H   0  0  0  0  0  0
  -32.9242  -20.5754   22.1549 H   0  0  0  0  0  0
  -32.4625  -22.1381   22.7678 H   0  0  0  0  0  0
  -27.6652  -17.1143   19.5433 H   0  0  0  0  0  0
  -27.1161  -18.7536   19.6425 H   0  0  0  0  0  0
  -27.3572  -18.8406   22.0458 H   0  0  0  0  0  0
  -27.7976  -17.1599   22.0127 H   0  0  0  0  0  0
  -33.2261  -23.1893   20.6111 H   0  0  0  0  0  0
  -33.7353  -21.6184   20.0322 H   0  0  0  0  0  0
  -35.2935  -21.4179   21.9935 H   0  0  0  0  0  0
  -34.8123  -22.9908   22.5593 H   0  0  0  0  0  0
  -28.0091  -24.9570   18.7364 H   0  0  0  0  0  0
  -29.5461  -24.9762   19.4828 H   0  0  0  0  0  0
  -30.8891  -17.4343   21.3536 H   0  0  0  0  0  0
  -30.6576  -17.3377   19.6448 H   0  0  0  0  0  0
  -36.1834  -22.4590   19.8834 H   0  0  0  0  0  0
  1 25  1  0  0  0
  1 30  2  0  0  0
  1 91  1  0  0  0
  2  3  1  0  0  0
  2 25  1  0  0  0
  2 92  1  0  0  0
  2 93  1  0  0  0
  3  4  1  0  0  0
  3 94  1  0  0  0
  3 95  1  0  0  0
  4  5  1  0  0  0
  4 96  1  0  0  0
  4 97  1  0  0  0
  5  6  1  0  0  0
  5 26  1  0  0  0
  5 98  1  0  0  0
  6 25  1  0  0  0
  6 99  1  0  0  0
  6100  1  0  0  0
  7  8  2  0  0  0
  7 26  1  0  0  0
  7 29  1  0  0  0
  8  9  1  0  0  0
  8 22  1  0  0  0
  9 10  1  0  0  0
  9 27  2  0  0  0
 10 11  2  0  0  0
 10 15  1  0  0  0
 11 12  1  0  0  0
 11101  1  0  0  0
 12 13  2  0  0  0
 12102  1  0  0  0
 13 14  1  0  0  0
 13 31  1  0  0  0
 14 15  2  0  0  0
 14103  1  0  0  0
 15104  1  0  0  0
 16 17  2  0  0  0
 16 21  1  0  0  0
 16 31  1  0  0  0
 17 18  1  0  0  0
 17105  1  0  0  0
 18 19  2  0  0  0
 18106  1  0  0  0
 19 20  1  0  0  0
 19 24  1  0  0  0
 20 21  2  0  0  0
 20107  1  0  0  0
 21 23  1  0  0  0
 22 28  1  0  0  0
 22 32  2  0  0  0
 26 27  1  0  0  0
 28108  1  0  0  0
 28109  1  0  0  0
 29110  1  0  0  0
 29111  1  0  0  0
 33 34  1  0  0  0
 33 66  1  0  0  0
 33 70  2  0  0  0
 34 36  1  0  0  0
 34 59  1  0  0  0
 34112  1  0  0  0
 35 44  2  0  0  0
 35 45  1  0  0  0
 35 68  1  0  0  0
 36 56  1  0  0  0
 36113  1  0  0  0
 37 39  1  0  0  0
 37 47  1  0  0  0
 37 66  1  0  0  0
 37114  1  0  0  0
 38 43  2  0  0  0
 38 46  1  0  0  0
 38 47  1  0  0  0
 39 64  1  0  0  0
 39 67  2  0  0  0
 40 52  1  0  0  0
 40 53  2  0  0  0
 40 58  1  0  0  0
 41115  1  0  0  0
 41116  1  0  0  0
 41117  1  0  0  0
 41 48  1  0  0  0
 42 43  1  0  0  0
 42 66  1  0  0  0
 42118  1  0  0  0
 42119  1  0  0  0
 43 44  1  0  0  0
 44120  1  0  0  0
 45 46  2  0  0  0
 45121  1  0  0  0
 46122  1  0  0  0
 47123  1  0  0  0
 47124  1  0  0  0
 48 56  1  0  0  0
 48 65  1  0  0  0
 48125  1  0  0  0
 49 50  1  0  0  0
 49 53  1  0  0  0
 49 64  1  0  0  0
 49126  1  0  0  0
 50 51  1  0  0  0
 50127  1  0  0  0
 50128  1  0  0  0
 51 52  1  0  0  0
 51129  1  0  0  0
 51130  1  0  0  0
 52131  1  0  0  0
 52132  1  0  0  0
 53 54  1  0  0  0
 54 55  2  0  0  0
 54133  1  0  0  0
 55 57  1  0  0  0
 55134  1  0  0  0
 56 69  2  0  0  0
 57 58  2  0  0  0
 57135  1  0  0  0
 58136  1  0  0  0
 59 60  1  0  0  0
 59 61  1  0  0  0
 59 62  1  0  0  0
 60137  1  0  0  0
 60138  1  0  0  0
 60139  1  0  0  0
 61140  1  0  0  0
 61141  1  0  0  0
 61142  1  0  0  0
 62143  1  0  0  0
 62144  1  0  0  0
 62145  1  0  0  0
 63 65  1  0  0  0
 63146  1  0  0  0
 63147  1  0  0  0
 63148  1  0  0  0
 64149  1  0  0  0
 65150  1  0  0  0
 68 86  1  0  0  0
 71 73  2  0  0  0
 71 74  1  0  0  0
 71151  1  0  0  0
 72 73  1  0  0  0
 72 75  2  0  0  0
 72152  1  0  0  0
 73 80  1  0  0  0
 74 81  1  0  0  0
 74 90  2  0  0  0
 75 89  1  0  0  0
 75 90  1  0  0  0
 76 82  1  0  0  0
 76153  1  0  0  0
 76154  1  0  0  0
 76155  1  0  0  0
 77 83  1  0  0  0
 77156  1  0  0  0
 77157  1  0  0  0
 77158  1  0  0  0
 78159  1  0  0  0
 78160  1  0  0  0
 78161  1  0  0  0
 78 88  1  0  0  0
 79 88  1  0  0  0
 79162  1  0  0  0
 79163  1  0  0  0
 79164  1  0  0  0
 80 86  1  0  0  0
 80165  1  0  0  0
 80166  1  0  0  0
 81 84  1  0  0  0
 81167  1  0  0  0
 81168  1  0  0  0
 82169  1  0  0  0
 82170  1  0  0  0
 82 89  1  0  0  0
 83 89  1  0  0  0
 83171  1  0  0  0
 83172  1  0  0  0
 84 85  1  0  0  0
 84173  1  0  0  0
 84174  1  0  0  0
 85 88  1  0  0  0
 85175  1  0  0  0
 85176  1  0  0  0
 86177  1  0  0  0
 86178  1  0  0  0
 87 89  1  0  0  0
 87 91  1  0  0  0
 87179  1  0  0  0
 87180  1  0  0  0
 88181  1  0  0  0
M  ISO  4   1 100  68 101  86 101  91 100
M  END
> <chiral flag>
0

> <version>
0

> <s_m_source_file>
/data/baiqing/PycharmProjects/Reinvent-master-3.2/result/LINK_invent/BTK/process_docking_weight1_custom_sum_contain_oxygen_bond_distance_aromatic_linkinvent_7_9_3/rearranged_h_0089.sdf

> <i_m_source_file_index>
14

> <r_mmod_Potential_Energy-OPLS-2005>
88.0216751098633

> <r_mmod_Stretch_Energy-OPLS-2005>
124.532997131348

> <r_mmod_Bend_Energy-OPLS-2005>
181.134826660156

> <r_mmod_Torsional_Energy-OPLS-2005>
187.785598754883

> <r_mmod_Improper_Torsional_Energy-OPLS-2005>
6.35570049285889

> <r_mmod_Van_der_Waal_Energy-OPLS-2005>
125.381393432617

> <r_mmod_Electrostatic_Energy-OPLS-2005>
-420.596527099609

> <r_mmod_Solvation_Energy-OPLS-2005>
-185.219970703125

> <b_mmod_Minimization_Converged-OPLS-2005>
0

> <r_mmod_RMS_Derivative-OPLS-2005>
2.10565853118896

$$$$
14
                    3D
 Structure written by MMmdl.
175183  0  0  1  0            999 V2000
  -30.7008  -14.5816   20.4704 C   0  0  0  0  0  0
  -30.4141  -12.3524   19.4522 C   0  0  0  0  0  0
  -29.5058  -12.4937   18.2161 C   0  0  0  0  0  0
  -28.0249  -12.3645   18.6196 C   0  0  0  0  0  0
  -27.6565  -13.2308   19.8552 C   0  0  2  0  0  0
  -28.7017  -13.1138   20.9877 C   0  0  0  0  0  0
  -25.2559  -13.8199   20.5585 C   0  0  0  0  0  0
  -24.1867  -13.0469   20.9163 C   0  0  0  0  0  0
  -24.6458  -11.6951   20.8752 C   0  0  0  0  0  0
  -23.9161  -10.4315   21.0404 C   0  0  0  0  0  0
  -24.3685   -9.4227   21.9171 C   0  0  0  0  0  0
  -23.6332   -8.2273   22.0784 C   0  0  0  0  0  0
  -22.4286   -8.0339   21.3577 C   0  0  0  0  0  0
  -21.9945   -9.0319   20.4676 C   0  0  0  0  0  0
  -22.7325  -10.2164   20.3065 C   0  0  0  0  0  0
  -21.6864   -6.0775   22.5273 C   0  0  0  0  0  0
  -21.4024   -6.5666   23.8207 C   0  0  0  0  0  0
  -21.3659   -5.6794   24.9155 C   0  0  0  0  0  0
  -21.6030   -4.3061   24.7189 C   0  0  0  0  0  0
  -21.8830   -3.8182   23.4308 C   0  0  0  0  0  0
  -21.9200   -4.7014   22.3375 C   0  0  0  0  0  0
  -22.7876  -13.5277   21.1806 C   0  0  0  0  0  0
  -22.1677   -4.2222   21.0944 F   0  0  0  0  0  0
  -21.5623   -3.4532   25.7700 F   0  0  0  0  0  0
  -30.0176  -13.4032   20.4092 N   0  0  0  0  0  0
  -26.3024  -12.9426   20.3286 N   0  0  0  0  0  0
  -25.9398  -11.6577   20.5761 N   0  0  0  0  0  0
  -22.0495  -12.8256   22.0318 N   0  0  0  0  0  0
  -25.4240  -15.1876   20.3835 N   0  0  0  0  0  0
  -31.8856  -14.6457   20.1364 O   0  0  0  0  0  0
  -21.6658   -6.8939   21.4244 O   0  0  0  0  0  0
  -22.3574  -14.5580   20.6656 O   0  0  0  0  0  0
  -24.6211  -31.8630   23.2014 C   0  0  0  0  0  0
  -25.9064  -32.4795   23.8361 C   0  0  1  0  0  0
  -27.2300  -27.3541   20.1283 C   0  0  0  0  0  0
  -25.5902  -33.8596   24.2295 N   0  0  0  0  0  0
  -23.4163  -30.4827   21.5411 C   0  0  2  0  0  0
  -24.8639  -28.9279   20.1279 C   0  0  0  0  0  0
  -22.7466  -29.4631   22.4915 C   0  0  0  0  0  0
  -18.0297  -28.1418   22.8467 C   0  0  0  0  0  0
  -24.1486  -36.7307   23.2629 C   0  0  0  0  0  0
  -25.9520  -30.8008   21.3698 C   0  0  0  0  0  0
  -26.0277  -29.4222   20.7321 C   0  0  0  0  0  0
  -27.2162  -28.6430   20.7289 C   0  0  0  0  0  0
  -26.0505  -26.8914   19.5128 C   0  0  0  0  0  0
  -24.8722  -27.6643   19.5136 C   0  0  0  0  0  0
  -23.6337  -29.8079   20.1611 C   0  0  0  0  0  0
  -25.4104  -36.3094   24.0328 C   0  0  1  0  0  0
  -20.5885  -28.3719   23.1281 C   0  0  2  0  0  0
  -20.6788  -26.9444   22.5410 C   0  0  0  0  0  0
  -19.5766  -26.6409   21.5207 C   0  0  0  0  0  0
  -18.1941  -26.7958   22.1610 C   0  0  0  0  0  0
  -19.1544  -28.8883   23.2876 C   0  0  0  0  0  0
  -18.9465  -30.1470   23.8915 C   0  0  0  0  0  0
  -17.6468  -30.6603   24.0576 C   0  0  0  0  0  0
  -25.9040  -34.9462   23.5113 C   0  0  0  0  0  0
  -16.5360  -29.9111   23.6319 C   0  0  0  0  0  0
  -16.7281  -28.6534   23.0325 C   0  0  0  0  0  0
  -26.4481  -31.6590   25.0714 C   0  0  0  0  0  0
  -25.3734  -31.3717   26.1459 C   0  0  0  0  0  0
  -27.0330  -30.3023   24.6128 C   0  0  0  0  0  0
  -27.6047  -32.4327   25.7493 C   0  0  0  0  0  0
  -27.5585  -37.1810   24.8451 C   0  0  0  0  0  0
  -21.4181  -29.3075   22.3685 N   0  0  0  0  0  0
  -26.4280  -37.3788   23.9415 N   0  0  0  0  0  0
  -24.6819  -31.0660   22.0954 N   0  0  0  0  0  0
  -23.4193  -28.8179   23.2996 O   0  0  0  0  0  0
  -28.3760  -26.5840   19.9981 O   0  0  0  0  0  0
  -26.5611  -34.8920   22.4682 O   0  0  0  0  0  0
  -23.5381  -32.1417   23.7356 O   0  0  0  0  0  0
  -29.6787  -19.5512   19.9820 C   0  0  0  0  0  0
  -29.6121  -20.6795   20.8724 C   0  0  0  0  0  0
  -29.9936  -18.3949   20.6726 C   0  0  0  0  0  0
  -29.7741  -20.1350   22.1247 C   0  0  0  0  0  0
  -29.8090  -20.8464   23.4479 C   0  0  0  0  0  0
  -30.4897  -22.5479   19.3777 C   0  0  0  0  0  0
  -27.1393  -17.3241   22.7610 C   0  0  0  0  0  0
  -27.3533  -16.2022   25.0029 C   0  0  0  0  0  0
  -30.4781  -17.0450   20.1113 C   0  0  0  0  0  0
  -27.7883  -24.2209   21.0477 C   0  0  0  0  0  0
  -28.1434  -22.8615   20.3188 C   0  0  0  0  0  0
  -29.2555  -17.6580   24.1830 C   0  0  0  0  0  0
  -30.3814  -17.8867   23.1431 C   0  0  0  0  0  0
  -28.6667  -25.5258   20.9515 C   0  0  0  0  0  0
  -29.5493  -22.2046   20.5457 C   0  0  1  0  0  0
  -28.1217  -16.6954   23.7650 C   0  0  0  0  0  0
  -30.0190  -18.7591   22.0185 N   0  0  0  0  0  0
  -29.9822  -15.7320   20.6276 N   0  0  0  0  0  0
  -31.4655  -12.4177   19.1664 H   0  0  0  0  0  0
  -30.2961  -11.3700   19.9126 H   0  0  0  0  0  0
  -29.7640  -11.7395   17.4726 H   0  0  0  0  0  0
  -29.6757  -13.4576   17.7316 H   0  0  0  0  0  0
  -27.8292  -11.3116   18.8233 H   0  0  0  0  0  0
  -27.3874  -12.6360   17.7789 H   0  0  0  0  0  0
  -27.6692  -14.2634   19.5050 H   0  0  0  0  0  0
  -28.6978  -12.1147   21.4254 H   0  0  0  0  0  0
  -28.4709  -13.8043   21.7994 H   0  0  0  0  0  0
  -25.2850   -9.5691   22.4717 H   0  0  0  0  0  0
  -24.0064   -7.4660   22.7479 H   0  0  0  0  0  0
  -21.0893   -8.8857   19.8956 H   0  0  0  0  0  0
  -22.3843  -10.9695   19.6158 H   0  0  0  0  0  0
  -21.2035   -7.6170   23.9737 H   0  0  0  0  0  0
  -21.1458   -6.0506   25.9054 H   0  0  0  0  0  0
  -22.0616   -2.7644   23.2749 H   0  0  0  0  0  0
  -22.4128  -11.9951   22.4748 H   0  0  0  0  0  0
  -21.1121  -13.1307   22.2530 H   0  0  0  0  0  0
  -24.6567  -15.8415   20.4906 H   0  0  0  0  0  0
  -26.2713  -15.6237   20.0423 H   0  0  0  0  0  0
  -26.7139  -32.5492   23.1129 H   0  0  0  0  0  0
  -25.0080  -33.9766   25.0458 H   0  0  0  0  0  0
  -22.7074  -31.2993   21.3900 H   0  0  0  0  0  0
  -23.3751  -35.9637   23.3279 H   0  0  0  0  0  0
  -24.3582  -36.8944   22.2047 H   0  0  0  0  0  0
  -23.7237  -37.6502   23.6663 H   0  0  0  0  0  0
  -26.0717  -31.5534   20.5894 H   0  0  0  0  0  0
  -26.8370  -30.8645   21.9907 H   0  0  0  0  0  0
  -28.1201  -29.0247   21.1838 H   0  0  0  0  0  0
  -26.0467  -25.9291   19.0210 H   0  0  0  0  0  0
  -23.9823  -27.2811   19.0340 H   0  0  0  0  0  0
  -23.7627  -30.5763   19.3979 H   0  0  0  0  0  0
  -22.7575  -29.2339   19.8544 H   0  0  0  0  0  0
  -25.1277  -36.1955   25.0818 H   0  0  0  0  0  0
  -20.9975  -28.3316   24.1398 H   0  0  0  0  0  0
  -20.5699  -26.2339   23.3616 H   0  0  0  0  0  0
  -21.6665  -26.7490   22.1207 H   0  0  0  0  0  0
  -19.6941  -25.6317   21.1251 H   0  0  0  0  0  0
  -19.6703  -27.3214   20.6730 H   0  0  0  0  0  0
  -17.4209  -26.6687   21.4010 H   0  0  0  0  0  0
  -18.0342  -26.0110   22.9019 H   0  0  0  0  0  0
  -19.7944  -30.7275   24.2290 H   0  0  0  0  0  0
  -17.5030  -31.6272   24.5211 H   0  0  0  0  0  0
  -15.5364  -30.3033   23.7627 H   0  0  0  0  0  0
  -15.8677  -28.0872   22.7017 H   0  0  0  0  0  0
  -24.5880  -30.7097   25.7792 H   0  0  0  0  0  0
  -24.8960  -32.2886   26.4931 H   0  0  0  0  0  0
  -25.8070  -30.8859   27.0210 H   0  0  0  0  0  0
  -26.2897  -29.6782   24.1150 H   0  0  0  0  0  0
  -27.4060  -29.7258   25.4606 H   0  0  0  0  0  0
  -27.8751  -30.4333   23.9326 H   0  0  0  0  0  0
  -27.2648  -33.3619   26.2088 H   0  0  0  0  0  0
  -28.3856  -32.6907   25.0322 H   0  0  0  0  0  0
  -28.0725  -31.8445   26.5404 H   0  0  0  0  0  0
  -28.2572  -38.0137   24.7534 H   0  0  0  0  0  0
  -28.1113  -36.2672   24.6223 H   0  0  0  0  0  0
  -27.2320  -37.1403   25.8857 H   0  0  0  0  0  0
  -20.9368  -29.8791   21.6888 H   0  0  0  0  0  0
  -26.0165  -38.2860   24.1432 H   0  0  0  0  0  0
  -29.6292  -19.6081   18.9022 H   0  0  0  0  0  0
  -30.2615  -21.8333   23.3608 H   0  0  0  0  0  0
  -30.4005  -20.3263   24.1984 H   0  0  0  0  0  0
  -28.8000  -20.9727   23.8381 H   0  0  0  0  0  0
  -31.4939  -22.1561   19.5450 H   0  0  0  0  0  0
  -30.5754  -23.6280   19.2509 H   0  0  0  0  0  0
  -30.1225  -22.1369   18.4375 H   0  0  0  0  0  0
  -26.3291  -16.6314   22.5227 H   0  0  0  0  0  0
  -27.6214  -17.5746   21.8168 H   0  0  0  0  0  0
  -26.6911  -18.2361   23.1590 H   0  0  0  0  0  0
  -26.5429  -15.5323   24.7168 H   0  0  0  0  0  0
  -26.9133  -17.0269   25.5639 H   0  0  0  0  0  0
  -28.0045  -15.6561   25.6906 H   0  0  0  0  0  0
  -31.5682  -17.0679   20.1917 H   0  0  0  0  0  0
  -30.2892  -17.0339   19.0354 H   0  0  0  0  0  0
  -27.7628  -23.9656   22.1076 H   0  0  0  0  0  0
  -26.7531  -24.4765   20.8222 H   0  0  0  0  0  0
  -27.9413  -22.9515   19.2511 H   0  0  0  0  0  0
  -27.4031  -22.1418   20.6743 H   0  0  0  0  0  0
  -28.8308  -18.6037   24.5152 H   0  0  0  0  0  0
  -29.7401  -17.2489   25.0689 H   0  0  0  0  0  0
  -30.7557  -16.9338   22.7804 H   0  0  0  0  0  0
  -31.2431  -18.3349   23.6412 H   0  0  0  0  0  0
  -29.7045  -25.2338   20.8004 H   0  0  0  0  0  0
  -28.6650  -25.9990   21.9342 H   0  0  0  0  0  0
  -29.9791  -22.7061   21.4092 H   0  0  0  0  0  0
  -28.5703  -15.8172   23.2989 H   0  0  0  0  0  0
  -28.9982  -15.6505   20.8191 H   0  0  0  0  0  0
  1 25  1  0  0  0
  1 30  2  0  0  0
  1 88  1  0  0  0
  2  3  1  0  0  0
  2 25  1  0  0  0
  2 89  1  0  0  0
  2 90  1  0  0  0
  3  4  1  0  0  0
  3 91  1  0  0  0
  3 92  1  0  0  0
  4  5  1  0  0  0
  4 93  1  0  0  0
  4 94  1  0  0  0
  5  6  1  0  0  0
  5 26  1  0  0  0
  5 95  1  0  0  0
  6 25  1  0  0  0
  6 96  1  0  0  0
  6 97  1  0  0  0
  7  8  2  0  0  0
  7 26  1  0  0  0
  7 29  1  0  0  0
  8  9  1  0  0  0
  8 22  1  0  0  0
  9 10  1  0  0  0
  9 27  2  0  0  0
 10 11  2  0  0  0
 10 15  1  0  0  0
 11 12  1  0  0  0
 11 98  1  0  0  0
 12 13  2  0  0  0
 12 99  1  0  0  0
 13 14  1  0  0  0
 13 31  1  0  0  0
 14 15  2  0  0  0
 14100  1  0  0  0
 15101  1  0  0  0
 16 17  2  0  0  0
 16 21  1  0  0  0
 16 31  1  0  0  0
 17 18  1  0  0  0
 17102  1  0  0  0
 18 19  2  0  0  0
 18103  1  0  0  0
 19 20  1  0  0  0
 19 24  1  0  0  0
 20 21  2  0  0  0
 20104  1  0  0  0
 21 23  1  0  0  0
 22 28  1  0  0  0
 22 32  2  0  0  0
 26 27  1  0  0  0
 28105  1  0  0  0
 28106  1  0  0  0
 29107  1  0  0  0
 29108  1  0  0  0
 33 34  1  0  0  0
 33 66  1  0  0  0
 33 70  2  0  0  0
 34 36  1  0  0  0
 34 59  1  0  0  0
 34109  1  0  0  0
 35 44  2  0  0  0
 35 45  1  0  0  0
 35 68  1  0  0  0
 36 56  1  0  0  0
 36110  1  0  0  0
 37 39  1  0  0  0
 37 47  1  0  0  0
 37 66  1  0  0  0
 37111  1  0  0  0
 38 43  2  0  0  0
 38 46  1  0  0  0
 38 47  1  0  0  0
 39 64  1  0  0  0
 39 67  2  0  0  0
 40 52  1  0  0  0
 40 53  2  0  0  0
 40 58  1  0  0  0
 41112  1  0  0  0
 41113  1  0  0  0
 41114  1  0  0  0
 41 48  1  0  0  0
 42 43  1  0  0  0
 42 66  1  0  0  0
 42115  1  0  0  0
 42116  1  0  0  0
 43 44  1  0  0  0
 44117  1  0  0  0
 45 46  2  0  0  0
 45118  1  0  0  0
 46119  1  0  0  0
 47120  1  0  0  0
 47121  1  0  0  0
 48 56  1  0  0  0
 48 65  1  0  0  0
 48122  1  0  0  0
 49 50  1  0  0  0
 49 53  1  0  0  0
 49 64  1  0  0  0
 49123  1  0  0  0
 50 51  1  0  0  0
 50124  1  0  0  0
 50125  1  0  0  0
 51 52  1  0  0  0
 51126  1  0  0  0
 51127  1  0  0  0
 52128  1  0  0  0
 52129  1  0  0  0
 53 54  1  0  0  0
 54 55  2  0  0  0
 54130  1  0  0  0
 55 57  1  0  0  0
 55131  1  0  0  0
 56 69  2  0  0  0
 57 58  2  0  0  0
 57132  1  0  0  0
 58133  1  0  0  0
 59 60  1  0  0  0
 59 61  1  0  0  0
 59 62  1  0  0  0
 60134  1  0  0  0
 60135  1  0  0  0
 60136  1  0  0  0
 61137  1  0  0  0
 61138  1  0  0  0
 61139  1  0  0  0
 62140  1  0  0  0
 62141  1  0  0  0
 62142  1  0  0  0
 63 65  1  0  0  0
 63143  1  0  0  0
 63144  1  0  0  0
 63145  1  0  0  0
 64146  1  0  0  0
 65147  1  0  0  0
 68 84  1  0  0  0
 71 72  1  0  0  0
 71 73  2  0  0  0
 71148  1  0  0  0
 72 74  2  0  0  0
 72 85  1  0  0  0
 73 79  1  0  0  0
 73 87  1  0  0  0
 74 75  1  0  0  0
 74 87  1  0  0  0
 75149  1  0  0  0
 75150  1  0  0  0
 75151  1  0  0  0
 76152  1  0  0  0
 76153  1  0  0  0
 76154  1  0  0  0
 76 85  1  0  0  0
 77155  1  0  0  0
 77156  1  0  0  0
 77157  1  0  0  0
 77 86  1  0  0  0
 78 86  1  0  0  0
 78158  1  0  0  0
 78159  1  0  0  0
 78160  1  0  0  0
 79 88  1  0  0  0
 79161  1  0  0  0
 79162  1  0  0  0
 80 81  1  0  0  0
 80 84  1  0  0  0
 80163  1  0  0  0
 80164  1  0  0  0
 81 85  1  0  0  0
 81165  1  0  0  0
 81166  1  0  0  0
 82 83  1  0  0  0
 82 86  1  0  0  0
 82167  1  0  0  0
 82168  1  0  0  0
 83 87  1  0  0  0
 83169  1  0  0  0
 83170  1  0  0  0
 84171  1  0  0  0
 84172  1  0  0  0
 85173  1  0  0  0
 86174  1  0  0  0
 88175  1  0  0  0
M  ISO  4   1 100  68 101  84 101  88 100
M  END
> <chiral flag>
0

> <version>
0

> <s_m_source_file>
/data/baiqing/PycharmProjects/Reinvent-master-3.2/result/LINK_invent/BTK/process_docking_weight1_custom_sum_contain_oxygen_bond_distance_aromatic_linkinvent_7_9_3/rearranged_h_0089.sdf

> <i_m_source_file_index>
15

> <r_mmod_Potential_Energy-OPLS-2005>
12.4110383987427

> <r_mmod_Stretch_Energy-OPLS-2005>
59.2358474731445

> <r_mmod_Bend_Energy-OPLS-2005>
164.499496459961

> <r_mmod_Torsional_Energy-OPLS-2005>
278.174041748047

> <r_mmod_Improper_Torsional_Energy-OPLS-2005>
10.7329740524292

> <r_mmod_Van_der_Waal_Energy-OPLS-2005>
107.390487670898

> <r_mmod_Electrostatic_Energy-OPLS-2005>
-451.91162109375

> <r_mmod_Solvation_Energy-OPLS-2005>
-190.096862792969

> <b_mmod_Minimization_Converged-OPLS-2005>
0

> <r_mmod_RMS_Derivative-OPLS-2005>
4.83561134338379

$$$$
15
                    3D
 Structure written by MMmdl.
178186  0  0  1  0            999 V2000
  -30.7090  -14.4629   20.5451 C   0  0  0  0  0  0
  -30.4147  -12.2905   19.4321 C   0  0  0  0  0  0
  -29.4968  -12.5044   18.2116 C   0  0  0  0  0  0
  -28.0169  -12.3669   18.6217 C   0  0  0  0  0  0
  -27.6589  -13.2127   19.8749 C   0  0  2  0  0  0
  -28.7000  -13.0048   21.0001 C   0  0  0  0  0  0
  -25.2544  -13.8168   20.5676 C   0  0  0  0  0  0
  -24.1810  -13.0431   20.9178 C   0  0  0  0  0  0
  -24.6383  -11.6908   20.8738 C   0  0  0  0  0  0
  -23.9069  -10.4295   21.0407 C   0  0  0  0  0  0
  -24.3635   -9.4212   21.9181 C   0  0  0  0  0  0
  -23.6300   -8.2252   22.0748 C   0  0  0  0  0  0
  -22.4275   -8.0296   21.3549 C   0  0  0  0  0  0
  -21.9924   -9.0263   20.4637 C   0  0  0  0  0  0
  -22.7248  -10.2142   20.3050 C   0  0  0  0  0  0
  -21.6864   -6.0746   22.5284 C   0  0  0  0  0  0
  -21.4005   -6.5640   23.8219 C   0  0  0  0  0  0
  -21.3666   -5.6785   24.9174 C   0  0  0  0  0  0
  -21.6052   -4.3051   24.7230 C   0  0  0  0  0  0
  -21.8809   -3.8160   23.4345 C   0  0  0  0  0  0
  -21.9194   -4.6976   22.3403 C   0  0  0  0  0  0
  -22.7839  -13.5217   21.1862 C   0  0  0  0  0  0
  -22.1654   -4.2171   21.0979 F   0  0  0  0  0  0
  -21.5650   -3.4522   25.7737 F   0  0  0  0  0  0
  -30.0341  -13.2882   20.4436 N   0  0  0  0  0  0
  -26.2995  -12.9355   20.3367 N   0  0  0  0  0  0
  -25.9310  -11.6510   20.5772 N   0  0  0  0  0  0
  -22.0477  -12.8205   22.0421 N   0  0  0  0  0  0
  -25.4230  -15.1886   20.4084 N   0  0  0  0  0  0
  -31.8469  -14.6265   20.0986 O   0  0  0  0  0  0
  -21.6637   -6.8891   21.4247 O   0  0  0  0  0  0
  -22.3530  -14.5532   20.6706 O   0  0  0  0  0  0
  -24.6151  -31.8677   23.2099 C   0  0  0  0  0  0
  -25.9040  -32.4817   23.8400 C   0  0  1  0  0  0
  -27.2411  -27.4313   20.1107 C   0  0  0  0  0  0
  -25.5895  -33.8613   24.2322 N   0  0  0  0  0  0
  -23.4057  -30.4898   21.5489 C   0  0  2  0  0  0
  -24.8557  -28.9477   20.1248 C   0  0  0  0  0  0
  -22.7415  -29.4662   22.4983 C   0  0  0  0  0  0
  -18.0281  -28.1383   22.8489 C   0  0  0  0  0  0
  -24.1486  -36.7325   23.2640 C   0  0  0  0  0  0
  -25.9341  -30.8281   21.3672 C   0  0  0  0  0  0
  -26.0125  -29.4556   20.7313 C   0  0  0  0  0  0
  -27.2088  -28.7003   20.7337 C   0  0  0  0  0  0
  -26.0756  -26.9433   19.4868 C   0  0  0  0  0  0
  -24.8792  -27.6858   19.5068 C   0  0  0  0  0  0
  -23.6185  -29.8163   20.1665 C   0  0  0  0  0  0
  -25.4099  -36.3110   24.0346 C   0  0  1  0  0  0
  -20.5867  -28.3665   23.1314 C   0  0  2  0  0  0
  -20.6767  -26.9396   22.5421 C   0  0  0  0  0  0
  -19.5740  -26.6384   21.5221 C   0  0  0  0  0  0
  -18.1919  -26.7924   22.1625 C   0  0  0  0  0  0
  -19.1531  -28.8840   23.2899 C   0  0  0  0  0  0
  -18.9453  -30.1441   23.8904 C   0  0  0  0  0  0
  -17.6457  -30.6581   24.0566 C   0  0  0  0  0  0
  -25.9030  -34.9469   23.5143 C   0  0  0  0  0  0
  -16.5351  -29.9085   23.6326 C   0  0  0  0  0  0
  -16.7269  -28.6510   23.0336 C   0  0  0  0  0  0
  -26.4461  -31.6594   25.0726 C   0  0  0  0  0  0
  -25.3744  -31.3694   26.1489 C   0  0  0  0  0  0
  -27.0283  -30.3034   24.6093 C   0  0  0  0  0  0
  -27.6039  -32.4304   25.7486 C   0  0  0  0  0  0
  -27.5579  -37.1800   24.8463 C   0  0  0  0  0  0
  -21.4142  -29.3040   22.3727 N   0  0  0  0  0  0
  -26.4287  -37.3792   23.9417 N   0  0  0  0  0  0
  -24.6693  -31.0781   22.0997 N   0  0  0  0  0  0
  -23.4173  -28.8203   23.3034 O   0  0  0  0  0  0
  -28.3977  -26.6940   19.9986 O   0  0  0  0  0  0
  -26.5597  -34.8918   22.4699 O   0  0  0  0  0  0
  -23.5339  -32.1431   23.7474 O   0  0  0  0  0  0
  -31.0107  -23.8663   21.8031 C   0  0  0  0  0  0
  -31.7451  -22.8028   22.3843 C   0  0  0  0  0  0
  -29.7044  -23.5031   21.5998 C   0  0  0  0  0  0
  -30.8682  -21.7664   22.5324 C   0  0  0  0  0  0
  -31.1432  -20.4232   23.1577 C   0  0  0  0  0  0
  -33.7473  -24.2158   23.1121 C   0  0  0  0  0  0
  -27.1680  -24.1109   21.4371 C   0  0  0  0  0  0
  -28.3154  -17.7634   22.0077 C   0  0  0  0  0  0
  -30.4373  -19.5535   19.2871 C   0  0  0  0  0  0
  -33.2152  -22.8215   22.7545 C   0  0  0  0  0  0
  -28.5010  -21.2009   21.8708 C   0  0  0  0  0  0
  -30.3869  -16.9258   20.8009 C   0  0  0  0  0  0
  -28.5151  -20.3754   20.5610 C   0  0  0  0  0  0
  -28.8483  -25.9462   21.1382 C   0  0  0  0  0  0
  -28.6088  -24.4004   20.9823 C   0  0  1  0  0  0
  -29.1878  -17.9277   20.7394 C   0  0  2  0  0  0
  -29.6315  -22.1396   21.9835 N   0  0  0  0  0  0
  -29.9883  -15.5146   20.9730 N   0  0  0  0  0  0
  -29.6146  -19.3610   20.5121 N   0  3  1  0  0  0
  -31.4633  -12.3640   19.1366 H   0  0  0  0  0  0
  -30.2905  -11.2835   19.8331 H   0  0  0  0  0  0
  -29.7402  -11.7878   17.4258 H   0  0  0  0  0  0
  -29.6747  -13.4935   17.7870 H   0  0  0  0  0  0
  -27.8255  -11.3122   18.8228 H   0  0  0  0  0  0
  -27.3668  -12.6364   17.7889 H   0  0  0  0  0  0
  -27.6966  -14.2591   19.5742 H   0  0  0  0  0  0
  -28.6667  -11.9751   21.3590 H   0  0  0  0  0  0
  -28.4701  -13.6266   21.8663 H   0  0  0  0  0  0
  -25.2798   -9.5687   22.4741 H   0  0  0  0  0  0
  -24.0023   -7.4643   22.7456 H   0  0  0  0  0  0
  -21.0869   -8.8791   19.8936 H   0  0  0  0  0  0
  -22.3726  -10.9682   19.6158 H   0  0  0  0  0  0
  -21.1972   -7.6144   23.9723 H   0  0  0  0  0  0
  -21.1504   -6.0521   25.9079 H   0  0  0  0  0  0
  -22.0586   -2.7622   23.2835 H   0  0  0  0  0  0
  -22.4092  -11.9884   22.4841 H   0  0  0  0  0  0
  -21.1088  -13.1231   22.2600 H   0  0  0  0  0  0
  -24.6473  -15.8369   20.4961 H   0  0  0  0  0  0
  -26.2695  -15.6296   20.0754 H   0  0  0  0  0  0
  -26.7118  -32.5540   23.1174 H   0  0  0  0  0  0
  -25.0035  -33.9764   25.0462 H   0  0  0  0  0  0
  -22.6966  -31.3073   21.4030 H   0  0  0  0  0  0
  -23.3735  -35.9672   23.3304 H   0  0  0  0  0  0
  -24.3599  -36.8938   22.2059 H   0  0  0  0  0  0
  -23.7247  -37.6535   23.6652 H   0  0  0  0  0  0
  -26.0467  -31.5810   20.5860 H   0  0  0  0  0  0
  -26.8226  -30.8909   21.9825 H   0  0  0  0  0  0
  -28.1052  -29.0930   21.1929 H   0  0  0  0  0  0
  -26.0985  -25.9851   18.9877 H   0  0  0  0  0  0
  -23.9924  -27.2865   19.0331 H   0  0  0  0  0  0
  -23.7321  -30.5871   19.4031 H   0  0  0  0  0  0
  -22.7422  -29.2370   19.8688 H   0  0  0  0  0  0
  -25.1260  -36.1977   25.0841 H   0  0  0  0  0  0
  -20.9964  -28.3231   24.1429 H   0  0  0  0  0  0
  -20.5672  -26.2267   23.3608 H   0  0  0  0  0  0
  -21.6633  -26.7436   22.1199 H   0  0  0  0  0  0
  -19.6903  -25.6302   21.1227 H   0  0  0  0  0  0
  -19.6683  -27.3212   20.6768 H   0  0  0  0  0  0
  -17.4190  -26.6687   21.4030 H   0  0  0  0  0  0
  -18.0308  -26.0068   22.9020 H   0  0  0  0  0  0
  -19.7935  -30.7264   24.2263 H   0  0  0  0  0  0
  -17.5014  -31.6253   24.5175 H   0  0  0  0  0  0
  -15.5346  -30.2987   23.7650 H   0  0  0  0  0  0
  -15.8671  -28.0841   22.7025 H   0  0  0  0  0  0
  -24.5917  -30.7025   25.7852 H   0  0  0  0  0  0
  -24.8930  -32.2844   26.4948 H   0  0  0  0  0  0
  -25.8120  -30.8870   27.0242 H   0  0  0  0  0  0
  -26.2814  -29.6798   24.1149 H   0  0  0  0  0  0
  -27.4070  -29.7253   25.4539 H   0  0  0  0  0  0
  -27.8653  -30.4359   23.9225 H   0  0  0  0  0  0
  -27.2661  -33.3601   26.2074 H   0  0  0  0  0  0
  -28.3839  -32.6861   25.0304 H   0  0  0  0  0  0
  -28.0714  -31.8419   26.5391 H   0  0  0  0  0  0
  -28.2573  -38.0113   24.7509 H   0  0  0  0  0  0
  -28.1080  -36.2636   24.6262 H   0  0  0  0  0  0
  -27.2304  -37.1434   25.8867 H   0  0  0  0  0  0
  -20.9310  -29.8771   21.6951 H   0  0  0  0  0  0
  -26.0174  -38.2871   24.1411 H   0  0  0  0  0  0
  -31.4388  -24.8252   21.5554 H   0  0  0  0  0  0
  -31.9510  -20.4916   23.8856 H   0  0  0  0  0  0
  -31.4590  -19.6864   22.4209 H   0  0  0  0  0  0
  -30.2946  -20.0324   23.7152 H   0  0  0  0  0  0
  -34.7904  -24.1573   23.4220 H   0  0  0  0  0  0
  -33.1839  -24.6542   23.9364 H   0  0  0  0  0  0
  -33.6974  -24.9010   22.2653 H   0  0  0  0  0  0
  -26.7318  -23.2829   20.8806 H   0  0  0  0  0  0
  -26.5071  -24.9535   21.2495 H   0  0  0  0  0  0
  -27.1178  -23.9103   22.5083 H   0  0  0  0  0  0
  -28.0167  -16.7273   22.1628 H   0  0  0  0  0  0
  -27.3863  -18.3293   21.9535 H   0  0  0  0  0  0
  -28.8496  -18.0782   22.9032 H   0  0  0  0  0  0
  -31.4006  -19.0510   19.3513 H   0  0  0  0  0  0
  -30.6683  -20.6091   19.1329 H   0  0  0  0  0  0
  -29.9176  -19.1937   18.3986 H   0  0  0  0  0  0
  -33.7885  -22.4129   21.9206 H   0  0  0  0  0  0
  -33.3883  -22.1594   23.6019 H   0  0  0  0  0  0
  -28.4726  -20.5462   22.7381 H   0  0  0  0  0  0
  -27.5610  -21.7217   21.9612 H   0  0  0  0  0  0
  -31.0695  -17.1947   21.6083 H   0  0  0  0  0  0
  -30.9647  -16.9933   19.8782 H   0  0  0  0  0  0
  -28.5929  -21.0840   19.7346 H   0  0  0  0  0  0
  -27.5486  -19.8986   20.4033 H   0  0  0  0  0  0
  -29.9079  -26.1781   21.1787 H   0  0  0  0  0  0
  -28.4428  -26.3224   22.0802 H   0  0  0  0  0  0
  -28.6432  -24.2081   19.9092 H   0  0  0  0  0  0
  -28.5700  -17.6466   19.8832 H   0  0  0  0  0  0
  -29.0633  -15.3199   21.3239 H   0  0  0  0  0  0
  -30.2305  -19.6236   21.2695 H   0  0  0  0  0  0
  1 25  1  0  0  0
  1 30  2  0  0  0
  1 88  1  0  0  0
  2  3  1  0  0  0
  2 25  1  0  0  0
  2 90  1  0  0  0
  2 91  1  0  0  0
  3  4  1  0  0  0
  3 92  1  0  0  0
  3 93  1  0  0  0
  4  5  1  0  0  0
  4 94  1  0  0  0
  4 95  1  0  0  0
  5  6  1  0  0  0
  5 26  1  0  0  0
  5 96  1  0  0  0
  6 25  1  0  0  0
  6 97  1  0  0  0
  6 98  1  0  0  0
  7  8  2  0  0  0
  7 26  1  0  0  0
  7 29  1  0  0  0
  8  9  1  0  0  0
  8 22  1  0  0  0
  9 10  1  0  0  0
  9 27  2  0  0  0
 10 11  2  0  0  0
 10 15  1  0  0  0
 11 12  1  0  0  0
 11 99  1  0  0  0
 12 13  2  0  0  0
 12100  1  0  0  0
 13 14  1  0  0  0
 13 31  1  0  0  0
 14 15  2  0  0  0
 14101  1  0  0  0
 15102  1  0  0  0
 16 17  2  0  0  0
 16 21  1  0  0  0
 16 31  1  0  0  0
 17 18  1  0  0  0
 17103  1  0  0  0
 18 19  2  0  0  0
 18104  1  0  0  0
 19 20  1  0  0  0
 19 24  1  0  0  0
 20 21  2  0  0  0
 20105  1  0  0  0
 21 23  1  0  0  0
 22 28  1  0  0  0
 22 32  2  0  0  0
 26 27  1  0  0  0
 28106  1  0  0  0
 28107  1  0  0  0
 29108  1  0  0  0
 29109  1  0  0  0
 33 34  1  0  0  0
 33 66  1  0  0  0
 33 70  2  0  0  0
 34 36  1  0  0  0
 34 59  1  0  0  0
 34110  1  0  0  0
 35 44  2  0  0  0
 35 45  1  0  0  0
 35 68  1  0  0  0
 36 56  1  0  0  0
 36111  1  0  0  0
 37 39  1  0  0  0
 37 47  1  0  0  0
 37 66  1  0  0  0
 37112  1  0  0  0
 38 43  2  0  0  0
 38 46  1  0  0  0
 38 47  1  0  0  0
 39 64  1  0  0  0
 39 67  2  0  0  0
 40 52  1  0  0  0
 40 53  2  0  0  0
 40 58  1  0  0  0
 41113  1  0  0  0
 41114  1  0  0  0
 41115  1  0  0  0
 41 48  1  0  0  0
 42 43  1  0  0  0
 42 66  1  0  0  0
 42116  1  0  0  0
 42117  1  0  0  0
 43 44  1  0  0  0
 44118  1  0  0  0
 45 46  2  0  0  0
 45119  1  0  0  0
 46120  1  0  0  0
 47121  1  0  0  0
 47122  1  0  0  0
 48 56  1  0  0  0
 48 65  1  0  0  0
 48123  1  0  0  0
 49 50  1  0  0  0
 49 53  1  0  0  0
 49 64  1  0  0  0
 49124  1  0  0  0
 50 51  1  0  0  0
 50125  1  0  0  0
 50126  1  0  0  0
 51 52  1  0  0  0
 51127  1  0  0  0
 51128  1  0  0  0
 52129  1  0  0  0
 52130  1  0  0  0
 53 54  1  0  0  0
 54 55  2  0  0  0
 54131  1  0  0  0
 55 57  1  0  0  0
 55132  1  0  0  0
 56 69  2  0  0  0
 57 58  2  0  0  0
 57133  1  0  0  0
 58134  1  0  0  0
 59 60  1  0  0  0
 59 61  1  0  0  0
 59 62  1  0  0  0
 60135  1  0  0  0
 60136  1  0  0  0
 60137  1  0  0  0
 61138  1  0  0  0
 61139  1  0  0  0
 61140  1  0  0  0
 62141  1  0  0  0
 62142  1  0  0  0
 62143  1  0  0  0
 63 65  1  0  0  0
 63144  1  0  0  0
 63145  1  0  0  0
 63146  1  0  0  0
 64147  1  0  0  0
 65148  1  0  0  0
 68 84  1  0  0  0
 71 72  1  0  0  0
 71 73  2  0  0  0
 71149  1  0  0  0
 72 74  2  0  0  0
 72 80  1  0  0  0
 73 85  1  0  0  0
 73 87  1  0  0  0
 74 75  1  0  0  0
 74 87  1  0  0  0
 75150  1  0  0  0
 75151  1  0  0  0
 75152  1  0  0  0
 76 80  1  0  0  0
 76153  1  0  0  0
 76154  1  0  0  0
 76155  1  0  0  0
 77156  1  0  0  0
 77157  1  0  0  0
 77158  1  0  0  0
 77 85  1  0  0  0
 78159  1  0  0  0
 78160  1  0  0  0
 78161  1  0  0  0
 78 86  1  0  0  0
 79162  1  0  0  0
 79163  1  0  0  0
 79164  1  0  0  0
 79 89  1  0  0  0
 80165  1  0  0  0
 80166  1  0  0  0
 81 83  1  0  0  0
 81 87  1  0  0  0
 81167  1  0  0  0
 81168  1  0  0  0
 82 86  1  0  0  0
 82 88  1  0  0  0
 82169  1  0  0  0
 82170  1  0  0  0
 83 89  1  0  0  0
 83171  1  0  0  0
 83172  1  0  0  0
 84 85  1  0  0  0
 84173  1  0  0  0
 84174  1  0  0  0
 85175  1  0  0  0
 86 89  1  0  0  0
 86176  1  0  0  0
 88177  1  0  0  0
 89178  1  0  0  0
M  CHG  1  89   1
M  ISO  4   1 100  68 101  84 101  88 100
M  END
> <chiral flag>
0

> <version>
0

> <s_m_source_file>
/data/baiqing/PycharmProjects/Reinvent-master-3.2/result/LINK_invent/BTK/process_docking_weight1_custom_sum_contain_oxygen_bond_distance_aromatic_linkinvent_7_9_3/rearranged_h_0089.sdf

> <i_m_source_file_index>
16

> <r_mmod_Potential_Energy-OPLS-2005>
-183.767761230469

> <r_mmod_Stretch_Energy-OPLS-2005>
49.2501220703125

> <r_mmod_Bend_Energy-OPLS-2005>
127.19612121582

> <r_mmod_Torsional_Energy-OPLS-2005>
280.098236083984

> <r_mmod_Improper_Torsional_Energy-OPLS-2005>
5.32090330123901

> <r_mmod_Van_der_Waal_Energy-OPLS-2005>
137.042175292969

> <r_mmod_Electrostatic_Energy-OPLS-2005>
-350.567230224609

> <r_mmod_Solvation_Energy-OPLS-2005>
-444.441619873047

> <b_mmod_Minimization_Converged-OPLS-2005>
0

> <r_mmod_RMS_Derivative-OPLS-2005>
2.27455854415894

$$$$
16
                    3D
 Structure written by MMmdl.
160168  0  0  1  0            999 V2000
  -30.6607  -14.5314   20.4965 C   0  0  0  0  0  0
  -30.4370  -12.3296   19.4123 C   0  0  0  0  0  0
  -29.4935  -12.4800   18.2016 C   0  0  0  0  0  0
  -28.0232  -12.3276   18.6334 C   0  0  0  0  0  0
  -27.6628  -13.1972   19.8667 C   0  0  2  0  0  0
  -28.7082  -13.0176   20.9912 C   0  0  0  0  0  0
  -25.2658  -13.8159   20.5689 C   0  0  0  0  0  0
  -24.1906  -13.0463   20.9191 C   0  0  0  0  0  0
  -24.6430  -11.6932   20.8774 C   0  0  0  0  0  0
  -23.9089  -10.4331   21.0452 C   0  0  0  0  0  0
  -24.3648   -9.4233   21.9211 C   0  0  0  0  0  0
  -23.6313   -8.2268   22.0775 C   0  0  0  0  0  0
  -22.4288   -8.0328   21.3559 C   0  0  0  0  0  0
  -21.9943   -9.0303   20.4653 C   0  0  0  0  0  0
  -22.7282  -10.2178   20.3064 C   0  0  0  0  0  0
  -21.6872   -6.0780   22.5288 C   0  0  0  0  0  0
  -21.4027   -6.5665   23.8230 C   0  0  0  0  0  0
  -21.3639   -5.6791   24.9166 C   0  0  0  0  0  0
  -21.6025   -4.3059   24.7198 C   0  0  0  0  0  0
  -21.8821   -3.8182   23.4315 C   0  0  0  0  0  0
  -21.9206   -4.7010   22.3392 C   0  0  0  0  0  0
  -22.7927  -13.5294   21.1824 C   0  0  0  0  0  0
  -22.1685   -4.2208   21.0966 F   0  0  0  0  0  0
  -21.5604   -3.4532   25.7703 F   0  0  0  0  0  0
  -30.0323  -13.3262   20.4190 N   0  0  0  0  0  0
  -26.3057  -12.9288   20.3340 N   0  0  0  0  0  0
  -25.9338  -11.6475   20.5793 N   0  0  0  0  0  0
  -22.0545  -12.8300   22.0362 N   0  0  0  0  0  0
  -25.4407  -15.1887   20.4115 N   0  0  0  0  0  0
  -31.8212  -14.6921   20.1104 O   0  0  0  0  0  0
  -21.6646   -6.8928   21.4254 O   0  0  0  0  0  0
  -22.3634  -14.5600   20.6676 O   0  0  0  0  0  0
  -24.6169  -31.8663   23.2092 C   0  0  0  0  0  0
  -25.9062  -32.4809   23.8407 C   0  0  1  0  0  0
  -27.2152  -27.3972   20.1120 C   0  0  0  0  0  0
  -25.5912  -33.8618   24.2334 N   0  0  0  0  0  0
  -23.4074  -30.4941   21.5497 C   0  0  2  0  0  0
  -24.8549  -28.9634   20.1040 C   0  0  0  0  0  0
  -22.7434  -29.4685   22.4973 C   0  0  0  0  0  0
  -18.0279  -28.1390   22.8481 C   0  0  0  0  0  0
  -24.1481  -36.7285   23.2639 C   0  0  0  0  0  0
  -25.9404  -30.8272   21.3637 C   0  0  0  0  0  0
  -26.0181  -29.4612   20.7063 C   0  0  0  0  0  0
  -27.2072  -28.6877   20.7038 C   0  0  0  0  0  0
  -26.0408  -26.9305   19.4879 C   0  0  0  0  0  0
  -24.8652  -27.7037   19.4830 C   0  0  0  0  0  0
  -23.6154  -29.8308   20.1636 C   0  0  0  0  0  0
  -25.4095  -36.3096   24.0339 C   0  0  1  0  0  0
  -20.5875  -28.3713   23.1292 C   0  0  2  0  0  0
  -20.6738  -26.9434   22.5429 C   0  0  0  0  0  0
  -19.5754  -26.6419   21.5198 C   0  0  0  0  0  0
  -18.1956  -26.7930   22.1647 C   0  0  0  0  0  0
  -19.1525  -28.8868   23.2891 C   0  0  0  0  0  0
  -18.9447  -30.1467   23.8895 C   0  0  0  0  0  0
  -17.6446  -30.6586   24.0564 C   0  0  0  0  0  0
  -25.9026  -34.9468   23.5130 C   0  0  0  0  0  0
  -16.5332  -29.9068   23.6331 C   0  0  0  0  0  0
  -16.7264  -28.6504   23.0329 C   0  0  0  0  0  0
  -26.4485  -31.6598   25.0742 C   0  0  0  0  0  0
  -25.3752  -31.3674   26.1477 C   0  0  0  0  0  0
  -27.0321  -30.3045   24.6104 C   0  0  0  0  0  0
  -27.6040  -32.4332   25.7511 C   0  0  0  0  0  0
  -27.5564  -37.1806   24.8472 C   0  0  0  0  0  0
  -21.4147  -29.3099   22.3727 N   0  0  0  0  0  0
  -26.4274  -37.3778   23.9423 N   0  0  0  0  0  0
  -24.6733  -31.0778   22.0986 N   0  0  0  0  0  0
  -23.4214  -28.8203   23.2998 O   0  0  0  0  0  0
  -28.3175  -26.5624   20.1459 O   0  0  0  0  0  0
  -26.5585  -34.8910   22.4689 O   0  0  0  0  0  0
  -23.5362  -32.1417   23.7484 O   0  0  0  0  0  0
  -28.8751  -20.4712   19.7702 C   0  0  0  0  0  0
  -28.2061  -21.6170   20.2724 C   0  0  0  0  0  0
  -28.5530  -19.2065   20.3301 C   0  0  0  0  0  0
  -27.0260  -20.2511   21.6926 C   0  0  0  0  0  0
  -25.9706  -20.1191   22.7671 C   0  0  0  0  0  0
  -31.4897  -17.5230   20.7756 C   0  0  0  0  0  0
  -28.3692  -23.0479   19.7105 C   0  0  0  0  0  0
  -29.1228  -17.8398   19.8574 C   0  0  0  0  0  0
  -28.9723  -24.1156   20.6802 C   0  0  0  0  0  0
  -28.1213  -25.3919   20.9873 C   0  0  0  0  0  0
  -30.0269  -17.0549   20.8811 C   0  0  1  0  0  0
  -27.2752  -21.4739   21.2373 N   0  0  0  0  0  0
  -27.6078  -19.1281   21.2854 N   0  0  0  0  0  0
  -29.8545  -15.5663   20.8384 N   0  0  0  0  0  0
  -31.4746  -12.4594   19.0927 H   0  0  0  0  0  0
  -30.3812  -11.3204   19.8246 H   0  0  0  0  0  0
  -29.7359  -11.7385   17.4382 H   0  0  0  0  0  0
  -29.6404  -13.4537   17.7333 H   0  0  0  0  0  0
  -27.8639  -11.2750   18.8685 H   0  0  0  0  0  0
  -27.3535  -12.5512   17.8017 H   0  0  0  0  0  0
  -27.6978  -14.2368   19.5397 H   0  0  0  0  0  0
  -28.6950  -11.9944   21.3722 H   0  0  0  0  0  0
  -28.4666  -13.6465   21.8519 H   0  0  0  0  0  0
  -25.2813   -9.5699   22.4761 H   0  0  0  0  0  0
  -24.0026   -7.4667   22.7508 H   0  0  0  0  0  0
  -21.0871   -8.8849   19.8956 H   0  0  0  0  0  0
  -22.3796  -10.9717   19.6155 H   0  0  0  0  0  0
  -21.2049   -7.6181   23.9749 H   0  0  0  0  0  0
  -21.1435   -6.0514   25.9067 H   0  0  0  0  0  0
  -22.0622   -2.7652   23.2785 H   0  0  0  0  0  0
  -22.4156  -11.9946   22.4714 H   0  0  0  0  0  0
  -21.1155  -13.1346   22.2520 H   0  0  0  0  0  0
  -24.6750  -15.8408   20.5415 H   0  0  0  0  0  0
  -26.2837  -15.6378   20.0784 H   0  0  0  0  0  0
  -26.7120  -32.5511   23.1160 H   0  0  0  0  0  0
  -25.0105  -33.9778   25.0502 H   0  0  0  0  0  0
  -22.6976  -31.3101   21.4094 H   0  0  0  0  0  0
  -23.3742  -35.9624   23.3314 H   0  0  0  0  0  0
  -24.3558  -36.8889   22.2052 H   0  0  0  0  0  0
  -23.7248  -37.6488   23.6649 H   0  0  0  0  0  0
  -26.0531  -31.5959   20.5970 H   0  0  0  0  0  0
  -26.8265  -30.8801   21.9867 H   0  0  0  0  0  0
  -28.0999  -29.0623   21.1847 H   0  0  0  0  0  0
  -26.0296  -25.9554   19.0209 H   0  0  0  0  0  0
  -23.9719  -27.3193   19.0082 H   0  0  0  0  0  0
  -23.7127  -30.6041   19.4010 H   0  0  0  0  0  0
  -22.7391  -29.2493   19.8719 H   0  0  0  0  0  0
  -25.1283  -36.1933   25.0830 H   0  0  0  0  0  0
  -20.9957  -28.3288   24.1416 H   0  0  0  0  0  0
  -20.5638  -26.2329   23.3631 H   0  0  0  0  0  0
  -21.6580  -26.7419   22.1185 H   0  0  0  0  0  0
  -19.6959  -25.6360   21.1182 H   0  0  0  0  0  0
  -19.6738  -27.3302   20.6787 H   0  0  0  0  0  0
  -17.4180  -26.6616   21.4099 H   0  0  0  0  0  0
  -18.0489  -26.0089   22.9084 H   0  0  0  0  0  0
  -19.7929  -30.7278   24.2275 H   0  0  0  0  0  0
  -17.4965  -31.6257   24.5175 H   0  0  0  0  0  0
  -15.5321  -30.2947   23.7663 H   0  0  0  0  0  0
  -15.8647  -28.0829   22.7047 H   0  0  0  0  0  0
  -24.5934  -30.6999   25.7825 H   0  0  0  0  0  0
  -24.8908  -32.2809   26.4943 H   0  0  0  0  0  0
  -25.8100  -30.8849   27.0241 H   0  0  0  0  0  0
  -26.2862  -29.6793   24.1166 H   0  0  0  0  0  0
  -27.4117  -29.7278   25.4554 H   0  0  0  0  0  0
  -27.8687  -30.4369   23.9229 H   0  0  0  0  0  0
  -27.2641  -33.3627   26.2083 H   0  0  0  0  0  0
  -28.3842  -32.6909   25.0344 H   0  0  0  0  0  0
  -28.0714  -31.8474   26.5432 H   0  0  0  0  0  0
  -28.2604  -38.0088   24.7499 H   0  0  0  0  0  0
  -28.1042  -36.2616   24.6316 H   0  0  0  0  0  0
  -27.2283  -37.1480   25.8879 H   0  0  0  0  0  0
  -20.9332  -29.8945   21.7043 H   0  0  0  0  0  0
  -26.0150  -38.2851   24.1423 H   0  0  0  0  0  0
  -29.5847  -20.5612   18.9579 H   0  0  0  0  0  0
  -26.1336  -19.2150   23.3555 H   0  0  0  0  0  0
  -24.9706  -20.0721   22.3331 H   0  0  0  0  0  0
  -26.0110  -20.9714   23.4431 H   0  0  0  0  0  0
  -32.1398  -16.9916   21.4709 H   0  0  0  0  0  0
  -31.8802  -17.3716   19.7688 H   0  0  0  0  0  0
  -31.5675  -18.5883   20.9868 H   0  0  0  0  0  0
  -27.3877  -23.3745   19.3666 H   0  0  0  0  0  0
  -28.9843  -23.0002   18.8132 H   0  0  0  0  0  0
  -29.6458  -17.9771   18.9099 H   0  0  0  0  0  0
  -28.2639  -17.2162   19.6069 H   0  0  0  0  0  0
  -29.1564  -23.6146   21.6326 H   0  0  0  0  0  0
  -29.9623  -24.4098   20.3384 H   0  0  0  0  0  0
  -27.0721  -25.1081   21.0824 H   0  0  0  0  0  0
  -28.4043  -25.7249   21.9858 H   0  0  0  0  0  0
  -29.6726  -17.3105   21.8805 H   0  0  0  0  0  0
  -28.9299  -15.2611   21.1111 H   0  0  0  0  0  0
  1 25  1  0  0  0
  1 30  2  0  0  0
  1 84  1  0  0  0
  2  3  1  0  0  0
  2 25  1  0  0  0
  2 85  1  0  0  0
  2 86  1  0  0  0
  3  4  1  0  0  0
  3 87  1  0  0  0
  3 88  1  0  0  0
  4  5  1  0  0  0
  4 89  1  0  0  0
  4 90  1  0  0  0
  5  6  1  0  0  0
  5 26  1  0  0  0
  5 91  1  0  0  0
  6 25  1  0  0  0
  6 92  1  0  0  0
  6 93  1  0  0  0
  7  8  2  0  0  0
  7 26  1  0  0  0
  7 29  1  0  0  0
  8  9  1  0  0  0
  8 22  1  0  0  0
  9 10  1  0  0  0
  9 27  2  0  0  0
 10 11  2  0  0  0
 10 15  1  0  0  0
 11 12  1  0  0  0
 11 94  1  0  0  0
 12 13  2  0  0  0
 12 95  1  0  0  0
 13 14  1  0  0  0
 13 31  1  0  0  0
 14 15  2  0  0  0
 14 96  1  0  0  0
 15 97  1  0  0  0
 16 17  2  0  0  0
 16 21  1  0  0  0
 16 31  1  0  0  0
 17 18  1  0  0  0
 17 98  1  0  0  0
 18 19  2  0  0  0
 18 99  1  0  0  0
 19 20  1  0  0  0
 19 24  1  0  0  0
 20 21  2  0  0  0
 20100  1  0  0  0
 21 23  1  0  0  0
 22 28  1  0  0  0
 22 32  2  0  0  0
 26 27  1  0  0  0
 28101  1  0  0  0
 28102  1  0  0  0
 29103  1  0  0  0
 29104  1  0  0  0
 33 34  1  0  0  0
 33 66  1  0  0  0
 33 70  2  0  0  0
 34 36  1  0  0  0
 34 59  1  0  0  0
 34105  1  0  0  0
 35 44  2  0  0  0
 35 45  1  0  0  0
 35 68  1  0  0  0
 36 56  1  0  0  0
 36106  1  0  0  0
 37 39  1  0  0  0
 37 47  1  0  0  0
 37 66  1  0  0  0
 37107  1  0  0  0
 38 43  2  0  0  0
 38 46  1  0  0  0
 38 47  1  0  0  0
 39 64  1  0  0  0
 39 67  2  0  0  0
 40 52  1  0  0  0
 40 53  2  0  0  0
 40 58  1  0  0  0
 41108  1  0  0  0
 41109  1  0  0  0
 41110  1  0  0  0
 41 48  1  0  0  0
 42 43  1  0  0  0
 42 66  1  0  0  0
 42111  1  0  0  0
 42112  1  0  0  0
 43 44  1  0  0  0
 44113  1  0  0  0
 45 46  2  0  0  0
 45114  1  0  0  0
 46115  1  0  0  0
 47116  1  0  0  0
 47117  1  0  0  0
 48 56  1  0  0  0
 48 65  1  0  0  0
 48118  1  0  0  0
 49 50  1  0  0  0
 49 53  1  0  0  0
 49 64  1  0  0  0
 49119  1  0  0  0
 50 51  1  0  0  0
 50120  1  0  0  0
 50121  1  0  0  0
 51 52  1  0  0  0
 51122  1  0  0  0
 51123  1  0  0  0
 52124  1  0  0  0
 52125  1  0  0  0
 53 54  1  0  0  0
 54 55  2  0  0  0
 54126  1  0  0  0
 55 57  1  0  0  0
 55127  1  0  0  0
 56 69  2  0  0  0
 57 58  2  0  0  0
 57128  1  0  0  0
 58129  1  0  0  0
 59 60  1  0  0  0
 59 61  1  0  0  0
 59 62  1  0  0  0
 60130  1  0  0  0
 60131  1  0  0  0
 60132  1  0  0  0
 61133  1  0  0  0
 61134  1  0  0  0
 61135  1  0  0  0
 62136  1  0  0  0
 62137  1  0  0  0
 62138  1  0  0  0
 63 65  1  0  0  0
 63139  1  0  0  0
 63140  1  0  0  0
 63141  1  0  0  0
 64142  1  0  0  0
 65143  1  0  0  0
 68 80  1  0  0  0
 71 72  2  0  0  0
 71 73  1  0  0  0
 71144  1  0  0  0
 72 77  1  0  0  0
 72 82  1  0  0  0
 73 78  1  0  0  0
 73 83  2  0  0  0
 74 75  1  0  0  0
 74 82  2  0  0  0
 74 83  1  0  0  0
 75145  1  0  0  0
 75146  1  0  0  0
 75147  1  0  0  0
 76148  1  0  0  0
 76149  1  0  0  0
 76150  1  0  0  0
 76 81  1  0  0  0
 77 79  1  0  0  0
 77151  1  0  0  0
 77152  1  0  0  0
 78 81  1  0  0  0
 78153  1  0  0  0
 78154  1  0  0  0
 79 80  1  0  0  0
 79155  1  0  0  0
 79156  1  0  0  0
 80157  1  0  0  0
 80158  1  0  0  0
 81 84  1  0  0  0
 81159  1  0  0  0
 84160  1  0  0  0
M  ISO  4   1 100  68 101  80 101  84 100
M  END
> <chiral flag>
0

> <version>
0

> <s_m_source_file>
/data/baiqing/PycharmProjects/Reinvent-master-3.2/result/LINK_invent/BTK/process_docking_weight1_custom_sum_contain_oxygen_bond_distance_aromatic_linkinvent_7_9_3/rearranged_h_0089.sdf

> <i_m_source_file_index>
17

> <r_mmod_Potential_Energy-OPLS-2005>
-389.9912109375

> <r_mmod_Stretch_Energy-OPLS-2005>
49.3474731445312

> <r_mmod_Bend_Energy-OPLS-2005>
122.425468444824

> <r_mmod_Torsional_Energy-OPLS-2005>
229.887451171875

> <r_mmod_Improper_Torsional_Energy-OPLS-2005>
4.95715522766113

> <r_mmod_Van_der_Waal_Energy-OPLS-2005>
151.977569580078

> <r_mmod_Electrostatic_Energy-OPLS-2005>
-750.155700683594

> <r_mmod_Solvation_Energy-OPLS-2005>
-223.567138671875

> <b_mmod_Minimization_Converged-OPLS-2005>
0

> <r_mmod_RMS_Derivative-OPLS-2005>
4.83761405944824

$$$$
17
                    3D
 Structure written by MMmdl.
167175  0  0  1  0            999 V2000
  -30.6078  -14.7315   20.4459 C   0  0  0  0  0  0
  -30.4356  -12.4485   19.4537 C   0  0  0  0  0  0
  -29.5038  -12.4943   18.2230 C   0  0  0  0  0  0
  -28.0299  -12.3260   18.6429 C   0  0  0  0  0  0
  -27.6410  -13.2276   19.8450 C   0  0  2  0  0  0
  -28.6904  -13.1584   20.9748 C   0  0  0  0  0  0
  -25.2522  -13.8194   20.5699 C   0  0  0  0  0  0
  -24.1811  -13.0446   20.9226 C   0  0  0  0  0  0
  -24.6395  -11.6923   20.8768 C   0  0  0  0  0  0
  -23.9068  -10.4297   21.0418 C   0  0  0  0  0  0
  -24.3621   -9.4214   21.9190 C   0  0  0  0  0  0
  -23.6302   -8.2244   22.0750 C   0  0  0  0  0  0
  -22.4284   -8.0280   21.3538 C   0  0  0  0  0  0
  -21.9923   -9.0258   20.4644 C   0  0  0  0  0  0
  -22.7249  -10.2138   20.3059 C   0  0  0  0  0  0
  -21.6854   -6.0742   22.5280 C   0  0  0  0  0  0
  -21.4009   -6.5642   23.8215 C   0  0  0  0  0  0
  -21.3653   -5.6795   24.9177 C   0  0  0  0  0  0
  -21.6045   -4.3061   24.7229 C   0  0  0  0  0  0
  -21.8820   -3.8150   23.4351 C   0  0  0  0  0  0
  -21.9196   -4.6968   22.3405 C   0  0  0  0  0  0
  -22.7832  -13.5226   21.1885 C   0  0  0  0  0  0
  -22.1668   -4.2155   21.0987 F   0  0  0  0  0  0
  -21.5627   -3.4544   25.7741 F   0  0  0  0  0  0
  -29.9872  -13.5071   20.3829 N   0  0  0  0  0  0
  -26.2938  -12.9388   20.3274 N   0  0  0  0  0  0
  -25.9315  -11.6536   20.5755 N   0  0  0  0  0  0
  -22.0479  -12.8193   22.0429 N   0  0  0  0  0  0
  -25.4233  -15.1913   20.4095 N   0  0  0  0  0  0
  -31.8071  -14.8340   20.1764 O   0  0  0  0  0  0
  -21.6642   -6.8883   21.4240 O   0  0  0  0  0  0
  -22.3516  -14.5540   20.6750 O   0  0  0  0  0  0
  -24.6324  -31.8534   23.1996 C   0  0  0  0  0  0
  -25.9155  -32.4739   23.8333 C   0  0  1  0  0  0
  -27.2143  -27.2647   20.1035 C   0  0  0  0  0  0
  -25.5955  -33.8541   24.2253 N   0  0  0  0  0  0
  -23.4274  -30.4797   21.5432 C   0  0  2  0  0  0
  -24.8713  -28.9301   20.1086 C   0  0  0  0  0  0
  -22.7503  -29.4594   22.4908 C   0  0  0  0  0  0
  -18.0284  -28.1384   22.8451 C   0  0  0  0  0  0
  -24.1494  -36.7284   23.2638 C   0  0  0  0  0  0
  -25.9747  -30.7666   21.3794 C   0  0  0  0  0  0
  -26.0457  -29.3912   20.7161 C   0  0  0  0  0  0
  -27.2204  -28.5704   20.7038 C   0  0  0  0  0  0
  -26.0098  -26.8728   19.4736 C   0  0  0  0  0  0
  -24.8584  -27.6784   19.4785 C   0  0  0  0  0  0
  -23.6446  -29.8193   20.1571 C   0  0  0  0  0  0
  -25.4118  -36.3058   24.0321 C   0  0  1  0  0  0
  -20.5888  -28.3695   23.1256 C   0  0  2  0  0  0
  -20.6782  -26.9413   22.5400 C   0  0  0  0  0  0
  -19.5771  -26.6377   21.5197 C   0  0  0  0  0  0
  -18.1937  -26.7913   22.1594 C   0  0  0  0  0  0
  -19.1537  -28.8851   23.2843 C   0  0  0  0  0  0
  -18.9467  -30.1443   23.8881 C   0  0  0  0  0  0
  -17.6472  -30.6582   24.0546 C   0  0  0  0  0  0
  -25.9069  -34.9427   23.5081 C   0  0  0  0  0  0
  -16.5363  -29.9077   23.6333 C   0  0  0  0  0  0
  -16.7267  -28.6498   23.0338 C   0  0  0  0  0  0
  -26.4525  -31.6568   25.0731 C   0  0  0  0  0  0
  -25.3741  -31.3721   26.1449 C   0  0  0  0  0  0
  -27.0361  -30.2975   24.6212 C   0  0  0  0  0  0
  -27.6081  -32.4317   25.7491 C   0  0  0  0  0  0
  -27.5573  -37.1795   24.8458 C   0  0  0  0  0  0
  -21.4210  -29.3047   22.3651 N   0  0  0  0  0  0
  -26.4285  -37.3759   23.9402 N   0  0  0  0  0  0
  -24.6976  -31.0506   22.0978 N   0  0  0  0  0  0
  -23.4202  -28.8127   23.2992 O   0  0  0  0  0  0
  -28.3091  -26.3685   20.1415 O   0  0  0  0  0  0
  -26.5623  -34.8903   22.4643 O   0  0  0  0  0  0
  -23.5483  -32.1360   23.7304 O   0  0  0  0  0  0
  -28.2022  -21.8495   22.2655 C   0  0  0  0  0  0
  -27.8910  -21.1582   23.4381 C   0  0  0  0  0  0
  -28.7345  -21.1895   21.1312 C   0  0  0  0  0  0
  -28.0931  -19.7811   23.4659 C   0  0  0  0  0  0
  -28.9260  -19.7239   21.2587 C   0  0  0  0  0  0
  -28.6249  -17.8561   26.8205 C   0  0  0  0  0  0
  -29.8326  -19.0822   18.9024 C   0  0  0  0  0  0
  -28.9599  -22.1850   19.9209 C   0  0  0  0  0  0
  -27.7554  -18.9595   24.6954 C   0  0  0  0  0  0
  -28.9779  -18.7001   25.5889 C   0  0  0  0  0  0
  -29.1925  -23.7857   20.1876 C   0  0  0  0  0  0
  -30.2276  -17.3222   20.7758 C   0  0  0  0  0  0
  -28.0583  -24.9001   19.9183 C   0  0  0  0  0  0
  -29.2895  -18.5530   20.2358 C   0  0  1  0  0  0
  -28.5799  -19.1096   22.4131 N   0  0  0  0  0  0
  -29.8188  -15.8569   20.6065 N   0  0  0  0  0  0
  -31.4720  -12.5873   19.1404 H   0  0  0  0  0  0
  -30.3956  -11.4730   19.9385 H   0  0  0  0  0  0
  -29.7801  -11.7144   17.5117 H   0  0  0  0  0  0
  -29.6283  -13.4433   17.6990 H   0  0  0  0  0  0
  -27.8823  -11.2780   18.9059 H   0  0  0  0  0  0
  -27.3717  -12.5214   17.7957 H   0  0  0  0  0  0
  -27.6345  -14.2481   19.4613 H   0  0  0  0  0  0
  -28.7255  -12.1624   21.4182 H   0  0  0  0  0  0
  -28.4326  -13.8448   21.7828 H   0  0  0  0  0  0
  -25.2762   -9.5687   22.4772 H   0  0  0  0  0  0
  -24.0017   -7.4626   22.7459 H   0  0  0  0  0  0
  -21.0860   -8.8776   19.8939 H   0  0  0  0  0  0
  -22.3716  -10.9680   19.6169 H   0  0  0  0  0  0
  -21.1992   -7.6148   23.9718 H   0  0  0  0  0  0
  -21.1474   -6.0528   25.9082 H   0  0  0  0  0  0
  -22.0603   -2.7614   23.2853 H   0  0  0  0  0  0
  -22.4107  -11.9848   22.4794 H   0  0  0  0  0  0
  -21.1087  -13.1188   22.2630 H   0  0  0  0  0  0
  -24.6577  -15.8470   20.5206 H   0  0  0  0  0  0
  -26.2674  -15.6277   20.0621 H   0  0  0  0  0  0
  -26.7206  -32.5385   23.1057 H   0  0  0  0  0  0
  -25.0149  -33.9685   25.0431 H   0  0  0  0  0  0
  -22.7250  -31.3029   21.3976 H   0  0  0  0  0  0
  -23.3754  -35.9614   23.3284 H   0  0  0  0  0  0
  -24.3596  -36.8933   22.2055 H   0  0  0  0  0  0
  -23.7253  -37.6484   23.6682 H   0  0  0  0  0  0
  -26.1124  -31.5289   20.6121 H   0  0  0  0  0  0
  -26.8549  -30.8136   22.0104 H   0  0  0  0  0  0
  -28.1201  -28.9151   21.1942 H   0  0  0  0  0  0
  -25.9186  -25.9203   18.9757 H   0  0  0  0  0  0
  -23.9595  -27.3213   18.9957 H   0  0  0  0  0  0
  -23.7735  -30.5980   19.4058 H   0  0  0  0  0  0
  -22.7614  -29.2569   19.8475 H   0  0  0  0  0  0
  -25.1292  -36.1893   25.0812 H   0  0  0  0  0  0
  -20.9962  -28.3276   24.1384 H   0  0  0  0  0  0
  -20.5683  -26.2301   23.3603 H   0  0  0  0  0  0
  -21.6654  -26.7441   22.1198 H   0  0  0  0  0  0
  -19.6957  -25.6286   21.1238 H   0  0  0  0  0  0
  -19.6729  -27.3169   20.6713 H   0  0  0  0  0  0
  -17.4213  -26.6640   21.3991 H   0  0  0  0  0  0
  -18.0345  -26.0051   22.8990 H   0  0  0  0  0  0
  -19.7955  -30.7236   24.2265 H   0  0  0  0  0  0
  -17.5040  -31.6266   24.5142 H   0  0  0  0  0  0
  -15.5369  -30.2978   23.7679 H   0  0  0  0  0  0
  -15.8659  -28.0826   22.7067 H   0  0  0  0  0  0
  -24.5937  -30.7042   25.7795 H   0  0  0  0  0  0
  -24.8919  -32.2892   26.4858 H   0  0  0  0  0  0
  -25.8070  -30.8928   27.0241 H   0  0  0  0  0  0
  -26.2935  -29.6718   24.1252 H   0  0  0  0  0  0
  -27.4045  -29.7251   25.4739 H   0  0  0  0  0  0
  -27.8808  -30.4242   23.9432 H   0  0  0  0  0  0
  -27.2714  -33.3659   26.1989 H   0  0  0  0  0  0
  -28.3929  -32.6801   25.0337 H   0  0  0  0  0  0
  -28.0680  -31.8477   26.5475 H   0  0  0  0  0  0
  -28.2566  -38.0113   24.7516 H   0  0  0  0  0  0
  -28.1093  -36.2642   24.6262 H   0  0  0  0  0  0
  -27.2297  -37.1414   25.8863 H   0  0  0  0  0  0
  -20.9400  -29.8792   21.6872 H   0  0  0  0  0  0
  -26.0153  -38.2824   24.1441 H   0  0  0  0  0  0
  -27.9932  -22.9082   22.2541 H   0  0  0  0  0  0
  -27.4873  -21.6830   24.2934 H   0  0  0  0  0  0
  -29.5072  -17.6653   27.4326 H   0  0  0  0  0  0
  -28.2101  -16.8905   26.5277 H   0  0  0  0  0  0
  -27.8864  -18.3595   27.4452 H   0  0  0  0  0  0
  -29.1122  -19.7419   18.4191 H   0  0  0  0  0  0
  -30.0331  -18.2643   18.2097 H   0  0  0  0  0  0
  -30.7630  -19.6307   19.0476 H   0  0  0  0  0  0
  -28.1369  -22.0558   19.2163 H   0  0  0  0  0  0
  -29.8441  -21.8221   19.4005 H   0  0  0  0  0  0
  -27.3284  -18.0086   24.3731 H   0  0  0  0  0  0
  -26.9716  -19.4666   25.2601 H   0  0  0  0  0  0
  -29.7496  -18.1913   25.0094 H   0  0  0  0  0  0
  -29.4094  -19.6505   25.9085 H   0  0  0  0  0  0
  -30.0015  -24.0720   19.5135 H   0  0  0  0  0  0
  -29.6309  -23.9406   21.1726 H   0  0  0  0  0  0
  -30.3850  -17.4395   21.8468 H   0  0  0  0  0  0
  -31.2284  -17.4481   20.3624 H   0  0  0  0  0  0
  -27.1873  -24.6164   20.5105 H   0  0  0  0  0  0
  -27.7643  -24.7817   18.8740 H   0  0  0  0  0  0
  -28.3219  -18.1068   20.0018 H   0  0  0  0  0  0
  -28.8357  -15.6669   20.7282 H   0  0  0  0  0  0
  1 25  1  0  0  0
  1 30  2  0  0  0
  1 86  1  0  0  0
  2  3  1  0  0  0
  2 25  1  0  0  0
  2 87  1  0  0  0
  2 88  1  0  0  0
  3  4  1  0  0  0
  3 89  1  0  0  0
  3 90  1  0  0  0
  4  5  1  0  0  0
  4 91  1  0  0  0
  4 92  1  0  0  0
  5  6  1  0  0  0
  5 26  1  0  0  0
  5 93  1  0  0  0
  6 25  1  0  0  0
  6 94  1  0  0  0
  6 95  1  0  0  0
  7  8  2  0  0  0
  7 26  1  0  0  0
  7 29  1  0  0  0
  8  9  1  0  0  0
  8 22  1  0  0  0
  9 10  1  0  0  0
  9 27  2  0  0  0
 10 11  2  0  0  0
 10 15  1  0  0  0
 11 12  1  0  0  0
 11 96  1  0  0  0
 12 13  2  0  0  0
 12 97  1  0  0  0
 13 14  1  0  0  0
 13 31  1  0  0  0
 14 15  2  0  0  0
 14 98  1  0  0  0
 15 99  1  0  0  0
 16 17  2  0  0  0
 16 21  1  0  0  0
 16 31  1  0  0  0
 17 18  1  0  0  0
 17100  1  0  0  0
 18 19  2  0  0  0
 18101  1  0  0  0
 19 20  1  0  0  0
 19 24  1  0  0  0
 20 21  2  0  0  0
 20102  1  0  0  0
 21 23  1  0  0  0
 22 28  1  0  0  0
 22 32  2  0  0  0
 26 27  1  0  0  0
 28103  1  0  0  0
 28104  1  0  0  0
 29105  1  0  0  0
 29106  1  0  0  0
 33 34  1  0  0  0
 33 66  1  0  0  0
 33 70  2  0  0  0
 34 36  1  0  0  0
 34 59  1  0  0  0
 34107  1  0  0  0
 35 44  2  0  0  0
 35 45  1  0  0  0
 35 68  1  0  0  0
 36 56  1  0  0  0
 36108  1  0  0  0
 37 39  1  0  0  0
 37 47  1  0  0  0
 37 66  1  0  0  0
 37109  1  0  0  0
 38 43  2  0  0  0
 38 46  1  0  0  0
 38 47  1  0  0  0
 39 64  1  0  0  0
 39 67  2  0  0  0
 40 52  1  0  0  0
 40 53  2  0  0  0
 40 58  1  0  0  0
 41110  1  0  0  0
 41111  1  0  0  0
 41112  1  0  0  0
 41 48  1  0  0  0
 42 43  1  0  0  0
 42 66  1  0  0  0
 42113  1  0  0  0
 42114  1  0  0  0
 43 44  1  0  0  0
 44115  1  0  0  0
 45 46  2  0  0  0
 45116  1  0  0  0
 46117  1  0  0  0
 47118  1  0  0  0
 47119  1  0  0  0
 48 56  1  0  0  0
 48 65  1  0  0  0
 48120  1  0  0  0
 49 50  1  0  0  0
 49 53  1  0  0  0
 49 64  1  0  0  0
 49121  1  0  0  0
 50 51  1  0  0  0
 50122  1  0  0  0
 50123  1  0  0  0
 51 52  1  0  0  0
 51124  1  0  0  0
 51125  1  0  0  0
 52126  1  0  0  0
 52127  1  0  0  0
 53 54  1  0  0  0
 54 55  2  0  0  0
 54128  1  0  0  0
 55 57  1  0  0  0
 55129  1  0  0  0
 56 69  2  0  0  0
 57 58  2  0  0  0
 57130  1  0  0  0
 58131  1  0  0  0
 59 60  1  0  0  0
 59 61  1  0  0  0
 59 62  1  0  0  0
 60132  1  0  0  0
 60133  1  0  0  0
 60134  1  0  0  0
 61135  1  0  0  0
 61136  1  0  0  0
 61137  1  0  0  0
 62138  1  0  0  0
 62139  1  0  0  0
 62140  1  0  0  0
 63 65  1  0  0  0
 63141  1  0  0  0
 63142  1  0  0  0
 63143  1  0  0  0
 64144  1  0  0  0
 65145  1  0  0  0
 68 83  1  0  0  0
 71 72  2  0  0  0
 71 73  1  0  0  0
 71146  1  0  0  0
 72 74  1  0  0  0
 72147  1  0  0  0
 73 75  2  0  0  0
 73 78  1  0  0  0
 74 79  1  0  0  0
 74 85  2  0  0  0
 75 84  1  0  0  0
 75 85  1  0  0  0
 76 80  1  0  0  0
 76148  1  0  0  0
 76149  1  0  0  0
 76150  1  0  0  0
 77151  1  0  0  0
 77152  1  0  0  0
 77153  1  0  0  0
 77 84  1  0  0  0
 78 81  1  0  0  0
 78154  1  0  0  0
 78155  1  0  0  0
 79 80  1  0  0  0
 79156  1  0  0  0
 79157  1  0  0  0
 80158  1  0  0  0
 80159  1  0  0  0
 81 83  1  0  0  0
 81160  1  0  0  0
 81161  1  0  0  0
 82 84  1  0  0  0
 82 86  1  0  0  0
 82162  1  0  0  0
 82163  1  0  0  0
 83164  1  0  0  0
 83165  1  0  0  0
 84166  1  0  0  0
 86167  1  0  0  0
M  ISO  4   1 100  68 101  83 101  86 100
M  END
> <chiral flag>
0

> <version>
0

> <s_m_source_file>
/data/baiqing/PycharmProjects/Reinvent-master-3.2/result/LINK_invent/BTK/process_docking_weight1_custom_sum_contain_oxygen_bond_distance_aromatic_linkinvent_7_9_3/rearranged_h_0089.sdf

> <i_m_source_file_index>
18

> <r_mmod_Potential_Energy-OPLS-2005>
79.376953125

> <r_mmod_Stretch_Energy-OPLS-2005>
135.954879760742

> <r_mmod_Bend_Energy-OPLS-2005>
207.076446533203

> <r_mmod_Torsional_Energy-OPLS-2005>
226.057067871094

> <r_mmod_Improper_Torsional_Energy-OPLS-2005>
5.31153964996338

> <r_mmod_Van_der_Waal_Energy-OPLS-2005>
144.564987182617

> <r_mmod_Electrostatic_Energy-OPLS-2005>
-510.996734619141

> <r_mmod_Solvation_Energy-OPLS-2005>
-211.817260742188

> <b_mmod_Minimization_Converged-OPLS-2005>
0

> <r_mmod_RMS_Derivative-OPLS-2005>
1.94806170463562

$$$$
18
                    3D
 Structure written by MMmdl.
185193  0  0  1  0            999 V2000
  -30.5763  -14.8969   20.3947 C   0  0  0  0  0  0
  -30.4024  -12.5369   19.4889 C   0  0  0  0  0  0
  -29.4977  -12.5358   18.2407 C   0  0  0  0  0  0
  -28.0282  -12.3513   18.6489 C   0  0  0  0  0  0
  -27.6252  -13.2572   19.8416 C   0  0  2  0  0  0
  -28.6698  -13.2550   20.9770 C   0  0  0  0  0  0
  -25.2424  -13.8223   20.5664 C   0  0  0  0  0  0
  -24.1748  -13.0391   20.9190 C   0  0  0  0  0  0
  -24.6374  -11.6905   20.8711 C   0  0  0  0  0  0
  -23.9041  -10.4273   21.0390 C   0  0  0  0  0  0
  -24.3598   -9.4197   21.9142 C   0  0  0  0  0  0
  -23.6306   -8.2230   22.0731 C   0  0  0  0  0  0
  -22.4285   -8.0248   21.3538 C   0  0  0  0  0  0
  -21.9902   -9.0197   20.4604 C   0  0  0  0  0  0
  -22.7231  -10.2097   20.3029 C   0  0  0  0  0  0
  -21.6860   -6.0694   22.5267 C   0  0  0  0  0  0
  -21.4028   -6.5616   23.8188 C   0  0  0  0  0  0
  -21.3669   -5.6790   24.9163 C   0  0  0  0  0  0
  -21.6066   -4.3050   24.7223 C   0  0  0  0  0  0
  -21.8829   -3.8117   23.4347 C   0  0  0  0  0  0
  -21.9202   -4.6922   22.3398 C   0  0  0  0  0  0
  -22.7778  -13.5144   21.1904 C   0  0  0  0  0  0
  -22.1670   -4.2083   21.0985 F   0  0  0  0  0  0
  -21.5616   -3.4555   25.7745 F   0  0  0  0  0  0
  -29.9555  -13.6462   20.3829 N   0  0  0  0  0  0
  -26.2848  -12.9485   20.3251 N   0  0  0  0  0  0
  -25.9318  -11.6592   20.5731 N   0  0  0  0  0  0
  -22.0481  -12.8044   22.0442 N   0  0  0  0  0  0
  -25.4080  -15.1939   20.4099 N   0  0  0  0  0  0
  -31.7439  -14.8993   20.0018 O   0  0  0  0  0  0
  -21.6653   -6.8848   21.4243 O   0  0  0  0  0  0
  -22.3388  -14.5434   20.6811 O   0  0  0  0  0  0
  -24.6466  -31.8424   23.1819 C   0  0  0  0  0  0
  -25.9242  -32.4677   23.8232 C   0  0  1  0  0  0
  -27.2184  -27.1277   20.1370 C   0  0  0  0  0  0
  -25.5924  -33.8479   24.2120 N   0  0  0  0  0  0
  -23.4495  -30.4522   21.5345 C   0  0  2  0  0  0
  -24.8977  -28.8877   20.0930 C   0  0  0  0  0  0
  -22.7620  -29.4437   22.4887 C   0  0  0  0  0  0
  -18.0288  -28.1304   22.8483 C   0  0  0  0  0  0
  -24.1517  -36.7354   23.2641 C   0  0  0  0  0  0
  -26.0042  -30.7142   21.3787 C   0  0  0  0  0  0
  -26.0757  -29.3236   20.7180 C   0  0  0  0  0  0
  -27.2352  -28.4559   20.7239 C   0  0  0  0  0  0
  -26.0079  -26.7891   19.4838 C   0  0  0  0  0  0
  -24.8790  -27.6378   19.4561 C   0  0  0  0  0  0
  -23.6719  -29.7879   20.1495 C   0  0  0  0  0  0
  -25.4119  -36.3050   24.0286 C   0  0  1  0  0  0
  -20.5901  -28.3635   23.1269 C   0  0  2  0  0  0
  -20.6769  -26.9338   22.5424 C   0  0  0  0  0  0
  -19.5739  -26.6311   21.5241 C   0  0  0  0  0  0
  -18.1907  -26.7830   22.1618 C   0  0  0  0  0  0
  -19.1547  -28.8802   23.2830 C   0  0  0  0  0  0
  -18.9471  -30.1415   23.8837 C   0  0  0  0  0  0
  -17.6459  -30.6535   24.0545 C   0  0  0  0  0  0
  -25.9050  -34.9414   23.5027 C   0  0  0  0  0  0
  -16.5345  -29.9018   23.6296 C   0  0  0  0  0  0
  -16.7283  -28.6423   23.0334 C   0  0  0  0  0  0
  -26.4480  -31.6584   25.0732 C   0  0  0  0  0  0
  -25.3611  -31.3771   26.1400 C   0  0  0  0  0  0
  -27.0317  -30.2946   24.6338 C   0  0  0  0  0  0
  -27.5948  -32.4414   25.7556 C   0  0  0  0  0  0
  -27.5584  -37.1813   24.8423 C   0  0  0  0  0  0
  -21.4301  -29.2988   22.3707 N   0  0  0  0  0  0
  -26.4296  -37.3741   23.9370 N   0  0  0  0  0  0
  -24.7200  -31.0249   22.0874 N   0  0  0  0  0  0
  -23.4296  -28.7985   23.3001 O   0  0  0  0  0  0
  -28.2781  -26.1462   20.2116 O   0  0  0  0  0  0
  -26.5760  -34.8957   22.4673 O   0  0  0  0  0  0
  -23.5573  -32.1357   23.7031 O   0  0  0  0  0  0
  -31.0994  -21.1202   21.2323 C   0  0  0  0  0  0
  -32.1261  -20.2202   21.2790 C   0  0  0  0  0  0
  -31.7457  -19.1674   20.3899 C   0  0  0  0  0  0
  -30.3625  -19.1758   20.3340 C   0  0  0  0  0  0
  -33.9759  -17.4140   16.1064 C   0  0  0  0  0  0
  -35.5069  -18.4886   17.8046 C   0  0  0  0  0  0
  -33.3218  -21.4929   23.1288 C   0  0  0  0  0  0
  -34.6064  -20.7247   21.1534 C   0  0  0  0  0  0
  -33.6893  -19.0681   22.8822 C   0  0  0  0  0  0
  -28.0880  -18.1185   20.4656 C   0  0  0  0  0  0
  -29.4769  -17.4821   18.5590 C   0  0  0  0  0  0
  -32.7002  -18.1716   19.7191 C   0  0  0  0  0  0
  -29.9577  -16.3568   20.8995 C   0  0  0  0  0  0
  -32.9793  -18.4983   18.2295 C   0  0  0  0  0  0
  -29.1014  -23.3474   20.3681 C   0  0  0  0  0  0
  -28.8550  -21.6614   20.2430 C   0  0  0  0  0  0
  -28.0423  -24.6156   20.0105 C   0  0  0  0  0  0
  -34.1790  -17.7273   17.6049 C   0  0  0  0  0  0
  -33.4277  -20.3663   22.0790 C   0  0  0  0  0  0
  -29.5404  -17.7947   20.0635 C   0  0  0  0  0  0
  -30.0199  -20.6286   20.5137 N   0  0  0  0  0  0
  -31.4457  -12.6332   19.1927 H   0  0  0  0  0  0
  -30.3339  -11.5819   20.0100 H   0  0  0  0  0  0
  -29.7905  -11.7425   17.5494 H   0  0  0  0  0  0
  -29.6124  -13.4741   17.6968 H   0  0  0  0  0  0
  -27.8840  -11.3010   18.9114 H   0  0  0  0  0  0
  -27.3770  -12.5483   17.7956 H   0  0  0  0  0  0
  -27.5994  -14.2736   19.4439 H   0  0  0  0  0  0
  -28.7282  -12.2698   21.4437 H   0  0  0  0  0  0
  -28.3718  -13.9459   21.7635 H   0  0  0  0  0  0
  -25.2747   -9.5639   22.4678 H   0  0  0  0  0  0
  -23.9986   -7.4613   22.7461 H   0  0  0  0  0  0
  -21.0824   -8.8718   19.8878 H   0  0  0  0  0  0
  -22.3697  -10.9610   19.6099 H   0  0  0  0  0  0
  -21.2043   -7.6129   23.9661 H   0  0  0  0  0  0
  -21.1485   -6.0538   25.9068 H   0  0  0  0  0  0
  -22.0604   -2.7560   23.2902 H   0  0  0  0  0  0
  -22.4249  -11.9756   22.4775 H   0  0  0  0  0  0
  -21.1055  -13.0929   22.2682 H   0  0  0  0  0  0
  -24.6441  -15.8544   20.5014 H   0  0  0  0  0  0
  -26.2633  -15.6202   20.0787 H   0  0  0  0  0  0
  -26.7382  -32.5269   23.1028 H   0  0  0  0  0  0
  -24.9813  -33.9532   25.0093 H   0  0  0  0  0  0
  -22.7516  -31.2756   21.3859 H   0  0  0  0  0  0
  -23.3746  -35.9724   23.3248 H   0  0  0  0  0  0
  -24.3611  -36.9099   22.2083 H   0  0  0  0  0  0
  -23.7359  -37.6522   23.6785 H   0  0  0  0  0  0
  -26.1432  -31.4685   20.6031 H   0  0  0  0  0  0
  -26.8786  -30.7733   22.0122 H   0  0  0  0  0  0
  -28.1350  -28.7724   21.2349 H   0  0  0  0  0  0
  -25.9030  -25.8275   19.0052 H   0  0  0  0  0  0
  -23.9826  -27.3106   18.9490 H   0  0  0  0  0  0
  -23.7934  -30.5667   19.3942 H   0  0  0  0  0  0
  -22.7848  -29.2182   19.8571 H   0  0  0  0  0  0
  -25.1313  -36.1867   25.0768 H   0  0  0  0  0  0
  -20.9924  -28.3274   24.1416 H   0  0  0  0  0  0
  -20.5667  -26.2262   23.3645 H   0  0  0  0  0  0
  -21.6632  -26.7351   22.1214 H   0  0  0  0  0  0
  -19.6895  -25.6223   21.1266 H   0  0  0  0  0  0
  -19.6673  -27.3154   20.6805 H   0  0  0  0  0  0
  -17.4169  -26.6641   21.4008 H   0  0  0  0  0  0
  -18.0236  -25.9961   22.8999 H   0  0  0  0  0  0
  -19.7975  -30.7221   24.2199 H   0  0  0  0  0  0
  -17.5023  -31.6207   24.5182 H   0  0  0  0  0  0
  -15.5329  -30.2897   23.7630 H   0  0  0  0  0  0
  -15.8687  -28.0755   22.7006 H   0  0  0  0  0  0
  -24.5783  -30.7132   25.7716 H   0  0  0  0  0  0
  -24.8776  -32.2926   26.4787 H   0  0  0  0  0  0
  -25.7816  -30.8947   27.0236 H   0  0  0  0  0  0
  -26.2921  -29.6667   24.1334 H   0  0  0  0  0  0
  -27.3833  -29.7231   25.4940 H   0  0  0  0  0  0
  -27.8886  -30.4071   23.9694 H   0  0  0  0  0  0
  -27.2433  -33.3723   26.2006 H   0  0  0  0  0  0
  -28.3781  -32.7007   25.0437 H   0  0  0  0  0  0
  -28.0606  -31.8694   26.5562 H   0  0  0  0  0  0
  -28.2507  -38.0202   24.7498 H   0  0  0  0  0  0
  -28.1165  -36.2709   24.6178 H   0  0  0  0  0  0
  -27.2318  -37.1392   25.8830 H   0  0  0  0  0  0
  -20.9534  -29.8815   21.6972 H   0  0  0  0  0  0
  -26.0172  -38.2809   24.1343 H   0  0  0  0  0  0
  -31.0622  -22.1095   21.6630 H   0  0  0  0  0  0
  -34.8401  -16.8927   15.6846 H   0  0  0  0  0  0
  -33.8198  -18.3170   15.5114 H   0  0  0  0  0  0
  -33.1165  -16.7591   15.9516 H   0  0  0  0  0  0
  -36.3419  -17.9777   17.3209 H   0  0  0  0  0  0
  -35.7649  -18.5781   18.8579 H   0  0  0  0  0  0
  -35.4697  -19.4999   17.3927 H   0  0  0  0  0  0
  -33.1869  -22.4709   22.6683 H   0  0  0  0  0  0
  -34.2350  -21.5432   23.7253 H   0  0  0  0  0  0
  -32.4926  -21.3331   23.8194 H   0  0  0  0  0  0
  -34.4764  -21.7248   20.7379 H   0  0  0  0  0  0
  -34.7181  -20.0459   20.3124 H   0  0  0  0  0  0
  -35.5529  -20.7263   21.6940 H   0  0  0  0  0  0
  -32.8575  -18.8581   23.5567 H   0  0  0  0  0  0
  -34.5810  -19.1434   23.5033 H   0  0  0  0  0  0
  -33.8140  -18.1766   22.2745 H   0  0  0  0  0  0
  -27.6731  -18.9114   19.8442 H   0  0  0  0  0  0
  -28.0323  -18.4671   21.4958 H   0  0  0  0  0  0
  -27.4288  -17.2592   20.3573 H   0  0  0  0  0  0
  -29.1788  -18.3562   17.9787 H   0  0  0  0  0  0
  -28.7474  -16.6942   18.3636 H   0  0  0  0  0  0
  -30.4212  -17.1113   18.1738 H   0  0  0  0  0  0
  -32.3128  -17.1741   19.8057 H   0  0  0  0  0  0
  -33.6605  -18.1279   20.2195 H   0  0  0  0  0  0
  -29.0888  -16.0745   21.4847 H   0  0  0  0  0  0
  -30.6537  -16.6738   21.6774 H   0  0  0  0  0  0
  -33.1590  -19.5668   18.1259 H   0  0  0  0  0  0
  -32.0794  -18.3148   17.6467 H   0  0  0  0  0  0
  -29.9937  -23.5622   19.7858 H   0  0  0  0  0  0
  -29.3989  -23.5253   21.3970 H   0  0  0  0  0  0
  -28.4721  -21.4456   19.2455 H   0  0  0  0  0  0
  -28.0420  -21.3919   20.9165 H   0  0  0  0  0  0
  -27.1162  -24.3804   20.5375 H   0  0  0  0  0  0
  -27.8032  -24.5107   18.9485 H   0  0  0  0  0  0
  -34.2688  -16.7629   18.1121 H   0  0  0  0  0  0
  1 25  1  0  0  0
  1 30  2  0  0  0
  1 83  1  0  0  0
  2  3  1  0  0  0
  2 25  1  0  0  0
  2 92  1  0  0  0
  2 93  1  0  0  0
  3  4  1  0  0  0
  3 94  1  0  0  0
  3 95  1  0  0  0
  4  5  1  0  0  0
  4 96  1  0  0  0
  4 97  1  0  0  0
  5  6  1  0  0  0
  5 26  1  0  0  0
  5 98  1  0  0  0
  6 25  1  0  0  0
  6 99  1  0  0  0
  6100  1  0  0  0
  7  8  2  0  0  0
  7 26  1  0  0  0
  7 29  1  0  0  0
  8  9  1  0  0  0
  8 22  1  0  0  0
  9 10  1  0  0  0
  9 27  2  0  0  0
 10 11  2  0  0  0
 10 15  1  0  0  0
 11 12  1  0  0  0
 11101  1  0  0  0
 12 13  2  0  0  0
 12102  1  0  0  0
 13 14  1  0  0  0
 13 31  1  0  0  0
 14 15  2  0  0  0
 14103  1  0  0  0
 15104  1  0  0  0
 16 17  2  0  0  0
 16 21  1  0  0  0
 16 31  1  0  0  0
 17 18  1  0  0  0
 17105  1  0  0  0
 18 19  2  0  0  0
 18106  1  0  0  0
 19 20  1  0  0  0
 19 24  1  0  0  0
 20 21  2  0  0  0
 20107  1  0  0  0
 21 23  1  0  0  0
 22 28  1  0  0  0
 22 32  2  0  0  0
 26 27  1  0  0  0
 28108  1  0  0  0
 28109  1  0  0  0
 29110  1  0  0  0
 29111  1  0  0  0
 33 34  1  0  0  0
 33 66  1  0  0  0
 33 70  2  0  0  0
 34 36  1  0  0  0
 34 59  1  0  0  0
 34112  1  0  0  0
 35 44  2  0  0  0
 35 45  1  0  0  0
 35 68  1  0  0  0
 36 56  1  0  0  0
 36113  1  0  0  0
 37 39  1  0  0  0
 37 47  1  0  0  0
 37 66  1  0  0  0
 37114  1  0  0  0
 38 43  2  0  0  0
 38 46  1  0  0  0
 38 47  1  0  0  0
 39 64  1  0  0  0
 39 67  2  0  0  0
 40 52  1  0  0  0
 40 53  2  0  0  0
 40 58  1  0  0  0
 41115  1  0  0  0
 41116  1  0  0  0
 41117  1  0  0  0
 41 48  1  0  0  0
 42 43  1  0  0  0
 42 66  1  0  0  0
 42118  1  0  0  0
 42119  1  0  0  0
 43 44  1  0  0  0
 44120  1  0  0  0
 45 46  2  0  0  0
 45121  1  0  0  0
 46122  1  0  0  0
 47123  1  0  0  0
 47124  1  0  0  0
 48 56  1  0  0  0
 48 65  1  0  0  0
 48125  1  0  0  0
 49 50  1  0  0  0
 49 53  1  0  0  0
 49 64  1  0  0  0
 49126  1  0  0  0
 50 51  1  0  0  0
 50127  1  0  0  0
 50128  1  0  0  0
 51 52  1  0  0  0
 51129  1  0  0  0
 51130  1  0  0  0
 52131  1  0  0  0
 52132  1  0  0  0
 53 54  1  0  0  0
 54 55  2  0  0  0
 54133  1  0  0  0
 55 57  1  0  0  0
 55134  1  0  0  0
 56 69  2  0  0  0
 57 58  2  0  0  0
 57135  1  0  0  0
 58136  1  0  0  0
 59 60  1  0  0  0
 59 61  1  0  0  0
 59 62  1  0  0  0
 60137  1  0  0  0
 60138  1  0  0  0
 60139  1  0  0  0
 61140  1  0  0  0
 61141  1  0  0  0
 61142  1  0  0  0
 62143  1  0  0  0
 62144  1  0  0  0
 62145  1  0  0  0
 63 65  1  0  0  0
 63146  1  0  0  0
 63147  1  0  0  0
 63148  1  0  0  0
 64149  1  0  0  0
 65150  1  0  0  0
 68 87  1  0  0  0
 71 72  2  0  0  0
 71 91  1  0  0  0
 71151  1  0  0  0
 72 73  1  0  0  0
 72 89  1  0  0  0
 73 74  2  0  0  0
 73 82  1  0  0  0
 74 90  1  0  0  0
 74 91  1  0  0  0
 75152  1  0  0  0
 75153  1  0  0  0
 75154  1  0  0  0
 75 88  1  0  0  0
 76 88  1  0  0  0
 76155  1  0  0  0
 76156  1  0  0  0
 76157  1  0  0  0
 77158  1  0  0  0
 77159  1  0  0  0
 77160  1  0  0  0
 77 89  1  0  0  0
 78 89  1  0  0  0
 78161  1  0  0  0
 78162  1  0  0  0
 78163  1  0  0  0
 79 89  1  0  0  0
 79164  1  0  0  0
 79165  1  0  0  0
 79166  1  0  0  0
 80167  1  0  0  0
 80168  1  0  0  0
 80169  1  0  0  0
 80 90  1  0  0  0
 81 90  1  0  0  0
 81170  1  0  0  0
 81171  1  0  0  0
 81172  1  0  0  0
 82 84  1  0  0  0
 82173  1  0  0  0
 82174  1  0  0  0
 83 90  1  0  0  0
 83175  1  0  0  0
 83176  1  0  0  0
 84 88  1  0  0  0
 84177  1  0  0  0
 84178  1  0  0  0
 85 86  1  0  0  0
 85 87  1  0  0  0
 85179  1  0  0  0
 85180  1  0  0  0
 86 91  1  0  0  0
 86181  1  0  0  0
 86182  1  0  0  0
 87183  1  0  0  0
 87184  1  0  0  0
 88185  1  0  0  0
M  ISO  4   1 100  68 101  83 100  87 101
M  END
> <chiral flag>
0

> <version>
0

> <s_m_source_file>
/data/baiqing/PycharmProjects/Reinvent-master-3.2/result/LINK_invent/BTK/process_docking_weight1_custom_sum_contain_oxygen_bond_distance_aromatic_linkinvent_7_9_3/rearranged_h_0089.sdf

> <i_m_source_file_index>
19

> <r_mmod_Potential_Energy-OPLS-2005>
641.00244140625

> <r_mmod_Stretch_Energy-OPLS-2005>
309.498687744141

> <r_mmod_Bend_Energy-OPLS-2005>
338.202667236328

> <r_mmod_Torsional_Energy-OPLS-2005>
289.678894042969

> <r_mmod_Improper_Torsional_Energy-OPLS-2005>
2.60694432258606

> <r_mmod_Van_der_Waal_Energy-OPLS-2005>
107.937721252441

> <r_mmod_Electrostatic_Energy-OPLS-2005>
-400.634002685547

> <r_mmod_Solvation_Energy-OPLS-2005>
-179.315643310547

> <b_mmod_Minimization_Converged-OPLS-2005>
0

> <r_mmod_RMS_Derivative-OPLS-2005>
7.20151424407959

$$$$
19
                    3D
 Structure written by MMmdl.
167175  0  0  1  0            999 V2000
  -30.6285  -14.7000   20.4696 C   0  0  0  0  0  0
  -30.4283  -12.4280   19.4683 C   0  0  0  0  0  0
  -29.5064  -12.5054   18.2327 C   0  0  0  0  0  0
  -28.0316  -12.3356   18.6462 C   0  0  0  0  0  0
  -27.6435  -13.2294   19.8544 C   0  0  2  0  0  0
  -28.6878  -13.1455   20.9893 C   0  0  0  0  0  0
  -25.2499  -13.8195   20.5686 C   0  0  0  0  0  0
  -24.1798  -13.0441   20.9207 C   0  0  0  0  0  0
  -24.6388  -11.6920   20.8754 C   0  0  0  0  0  0
  -23.9065  -10.4294   21.0408 C   0  0  0  0  0  0
  -24.3614   -9.4209   21.9185 C   0  0  0  0  0  0
  -23.6294   -8.2240   22.0748 C   0  0  0  0  0  0
  -22.4278   -8.0280   21.3538 C   0  0  0  0  0  0
  -21.9912   -9.0254   20.4640 C   0  0  0  0  0  0
  -22.7239  -10.2134   20.3056 C   0  0  0  0  0  0
  -21.6850   -6.0741   22.5281 C   0  0  0  0  0  0
  -21.4015   -6.5640   23.8216 C   0  0  0  0  0  0
  -21.3657   -5.6788   24.9175 C   0  0  0  0  0  0
  -21.6043   -4.3050   24.7221 C   0  0  0  0  0  0
  -21.8821   -3.8147   23.4341 C   0  0  0  0  0  0
  -21.9192   -4.6969   22.3400 C   0  0  0  0  0  0
  -22.7817  -13.5219   21.1867 C   0  0  0  0  0  0
  -22.1658   -4.2157   21.0977 F   0  0  0  0  0  0
  -21.5628   -3.4532   25.7730 F   0  0  0  0  0  0
  -29.9934  -13.4832   20.4104 N   0  0  0  0  0  0
  -26.2937  -12.9408   20.3293 N   0  0  0  0  0  0
  -25.9318  -11.6549   20.5765 N   0  0  0  0  0  0
  -22.0466  -12.8216   22.0428 N   0  0  0  0  0  0
  -25.4157  -15.1920   20.4075 N   0  0  0  0  0  0
  -31.8119  -14.8003   20.1366 O   0  0  0  0  0  0
  -21.6632   -6.8885   21.4243 O   0  0  0  0  0  0
  -22.3504  -14.5522   20.6706 O   0  0  0  0  0  0
  -24.6292  -31.8568   23.1993 C   0  0  0  0  0  0
  -25.9128  -32.4759   23.8329 C   0  0  1  0  0  0
  -27.2221  -27.2825   20.1136 C   0  0  0  0  0  0
  -25.5933  -33.8560   24.2256 N   0  0  0  0  0  0
  -23.4239  -30.4804   21.5426 C   0  0  2  0  0  0
  -24.8681  -28.9300   20.1080 C   0  0  0  0  0  0
  -22.7490  -29.4613   22.4919 C   0  0  0  0  0  0
  -18.0291  -28.1391   22.8492 C   0  0  0  0  0  0
  -24.1486  -36.7284   23.2641 C   0  0  0  0  0  0
  -25.9676  -30.7758   21.3745 C   0  0  0  0  0  0
  -26.0380  -29.4004   20.7150 C   0  0  0  0  0  0
  -27.2125  -28.5870   20.7100 C   0  0  0  0  0  0
  -26.0198  -26.8664   19.4955 C   0  0  0  0  0  0
  -24.8631  -27.6700   19.4913 C   0  0  0  0  0  0
  -23.6387  -29.8153   20.1576 C   0  0  0  0  0  0
  -25.4114  -36.3071   24.0327 C   0  0  1  0  0  0
  -20.5894  -28.3696   23.1279 C   0  0  2  0  0  0
  -20.6777  -26.9415   22.5414 C   0  0  0  0  0  0
  -19.5750  -26.6386   21.5220 C   0  0  0  0  0  0
  -18.1931  -26.7933   22.1632 C   0  0  0  0  0  0
  -19.1545  -28.8860   23.2881 C   0  0  0  0  0  0
  -18.9466  -30.1462   23.8898 C   0  0  0  0  0  0
  -17.6465  -30.6591   24.0566 C   0  0  0  0  0  0
  -25.9056  -34.9443   23.5094 C   0  0  0  0  0  0
  -16.5356  -29.9091   23.6331 C   0  0  0  0  0  0
  -16.7277  -28.6509   23.0353 C   0  0  0  0  0  0
  -26.4501  -31.6582   25.0715 C   0  0  0  0  0  0
  -25.3725  -31.3737   26.1439 C   0  0  0  0  0  0
  -27.0343  -30.2999   24.6193 C   0  0  0  0  0  0
  -27.6050  -32.4325   25.7489 C   0  0  0  0  0  0
  -27.5575  -37.1798   24.8468 C   0  0  0  0  0  0
  -21.4200  -29.3044   22.3665 N   0  0  0  0  0  0
  -26.4288  -37.3770   23.9410 N   0  0  0  0  0  0
  -24.6926  -31.0556   22.0953 N   0  0  0  0  0  0
  -23.4202  -28.8158   23.3011 O   0  0  0  0  0  0
  -28.3516  -26.4405   20.2009 O   0  0  0  0  0  0
  -26.5630  -34.8918   22.4664 O   0  0  0  0  0  0
  -23.5451  -32.1380   23.7308 O   0  0  0  0  0  0
  -29.0644  -22.5109   19.8639 C   0  0  0  0  0  0
  -28.1491  -23.7640   21.7013 C   0  0  0  0  0  0
  -28.5816  -23.7821   20.3637 C   0  0  0  0  0  0
  -29.1212  -21.3258   20.6860 C   0  0  0  0  0  0
  -28.2231  -22.5720   22.4550 C   0  0  0  0  0  0
  -29.7446  -25.3024   18.6505 C   0  0  0  0  0  0
  -28.9068  -22.2498   24.8785 C   0  0  0  0  0  0
  -26.5526  -21.6241   24.1120 C   0  0  0  0  0  0
  -28.0536  -18.2251   19.6954 C   0  0  0  0  0  0
  -29.8613  -19.9786   20.2831 C   0  0  0  0  0  0
  -30.3198  -17.2792   20.4970 C   0  0  0  0  0  0
  -28.4880  -25.1205   19.5109 C   0  0  2  0  0  0
  -27.7558  -22.5578   23.9070 C   0  0  0  0  0  0
  -29.2698  -18.5047   20.5905 C   0  0  2  0  0  0
  -28.7072  -21.4001   21.9686 N   0  0  0  0  0  0
  -29.8719  -15.8351   20.6852 N   0  0  0  0  0  0
  -31.4705  -12.5453   19.1660 H   0  0  0  0  0  0
  -30.3628  -11.4459   19.9391 H   0  0  0  0  0  0
  -29.7817  -11.7407   17.5052 H   0  0  0  0  0  0
  -29.6400  -13.4665   17.7334 H   0  0  0  0  0  0
  -27.8813  -11.2856   18.9000 H   0  0  0  0  0  0
  -27.3743  -12.5386   17.7999 H   0  0  0  0  0  0
  -27.6448  -14.2548   19.4839 H   0  0  0  0  0  0
  -28.7131  -12.1446   21.4220 H   0  0  0  0  0  0
  -28.4310  -13.8252   21.8037 H   0  0  0  0  0  0
  -25.2754   -9.5682   22.4769 H   0  0  0  0  0  0
  -24.0005   -7.4627   22.7462 H   0  0  0  0  0  0
  -21.0845   -8.8768   19.8943 H   0  0  0  0  0  0
  -22.3692  -10.9675   19.6168 H   0  0  0  0  0  0
  -21.2008   -7.6147   23.9724 H   0  0  0  0  0  0
  -21.1476   -6.0514   25.9079 H   0  0  0  0  0  0
  -22.0602   -2.7609   23.2835 H   0  0  0  0  0  0
  -22.4084  -11.9886   22.4828 H   0  0  0  0  0  0
  -21.1073  -13.1229   22.2615 H   0  0  0  0  0  0
  -24.6427  -15.8405   20.5128 H   0  0  0  0  0  0
  -26.2508  -15.6306   20.0435 H   0  0  0  0  0  0
  -26.7193  -32.5410   23.1069 H   0  0  0  0  0  0
  -25.0066  -33.9695   25.0393 H   0  0  0  0  0  0
  -22.7191  -31.3024   21.3989 H   0  0  0  0  0  0
  -23.3747  -35.9619   23.3309 H   0  0  0  0  0  0
  -24.3576  -36.8901   22.2054 H   0  0  0  0  0  0
  -23.7242  -37.6487   23.6662 H   0  0  0  0  0  0
  -26.1048  -31.5378   20.6061 H   0  0  0  0  0  0
  -26.8464  -30.8229   22.0059 H   0  0  0  0  0  0
  -28.1088  -28.9431   21.1978 H   0  0  0  0  0  0
  -25.9144  -25.8965   19.0388 H   0  0  0  0  0  0
  -23.9617  -27.2985   19.0229 H   0  0  0  0  0  0
  -23.7620  -30.5924   19.4023 H   0  0  0  0  0  0
  -22.7567  -29.2494   19.8529 H   0  0  0  0  0  0
  -25.1296  -36.1917   25.0819 H   0  0  0  0  0  0
  -20.9992  -28.3275   24.1398 H   0  0  0  0  0  0
  -20.5683  -26.2306   23.3618 H   0  0  0  0  0  0
  -21.6643  -26.7443   22.1203 H   0  0  0  0  0  0
  -19.6911  -25.6298   21.1247 H   0  0  0  0  0  0
  -19.6685  -27.3200   20.6752 H   0  0  0  0  0  0
  -17.4201  -26.6687   21.4032 H   0  0  0  0  0  0
  -18.0327  -26.0077   22.9027 H   0  0  0  0  0  0
  -19.7940  -30.7280   24.2265 H   0  0  0  0  0  0
  -17.5019  -31.6271   24.5169 H   0  0  0  0  0  0
  -15.5357  -30.2994   23.7653 H   0  0  0  0  0  0
  -15.8678  -28.0829   22.7065 H   0  0  0  0  0  0
  -24.5903  -30.7082   25.7773 H   0  0  0  0  0  0
  -24.8915  -32.2910   26.4842 H   0  0  0  0  0  0
  -25.8044  -30.8932   27.0226 H   0  0  0  0  0  0
  -26.2923  -29.6749   24.1210 H   0  0  0  0  0  0
  -27.4020  -29.7259   25.4707 H   0  0  0  0  0  0
  -27.8802  -30.4273   23.9434 H   0  0  0  0  0  0
  -27.2652  -33.3628   26.2052 H   0  0  0  0  0  0
  -28.3868  -32.6881   25.0325 H   0  0  0  0  0  0
  -28.0710  -31.8462   26.5419 H   0  0  0  0  0  0
  -28.2599  -38.0088   24.7503 H   0  0  0  0  0  0
  -28.1062  -36.2619   24.6305 H   0  0  0  0  0  0
  -27.2296  -37.1464   25.8872 H   0  0  0  0  0  0
  -20.9382  -29.8762   21.6870 H   0  0  0  0  0  0
  -26.0166  -38.2844   24.1405 H   0  0  0  0  0  0
  -29.4309  -22.4469   18.8495 H   0  0  0  0  0  0
  -27.7619  -24.6712   22.1459 H   0  0  0  0  0  0
  -29.8871  -24.4717   17.9608 H   0  0  0  0  0  0
  -30.6361  -25.3822   19.2722 H   0  0  0  0  0  0
  -29.6740  -26.2090   18.0497 H   0  0  0  0  0  0
  -29.7168  -22.9697   24.7594 H   0  0  0  0  0  0
  -29.3197  -21.2556   24.7056 H   0  0  0  0  0  0
  -28.5715  -22.2958   25.9149 H   0  0  0  0  0  0
  -25.7274  -21.9087   23.4592 H   0  0  0  0  0  0
  -26.1910  -21.6648   25.1394 H   0  0  0  0  0  0
  -26.8101  -20.5885   23.8888 H   0  0  0  0  0  0
  -28.3446  -18.1659   18.6462 H   0  0  0  0  0  0
  -27.3081  -19.0151   19.7889 H   0  0  0  0  0  0
  -27.5683  -17.2865   19.9589 H   0  0  0  0  0  0
  -30.8351  -20.0386   20.7693 H   0  0  0  0  0  0
  -30.0852  -20.0385   19.2177 H   0  0  0  0  0  0
  -31.1173  -17.4608   21.2191 H   0  0  0  0  0  0
  -30.8029  -17.3321   19.5201 H   0  0  0  0  0  0
  -27.6834  -24.9532   18.8020 H   0  0  0  0  0  0
  -27.4109  -23.5654   24.1438 H   0  0  0  0  0  0
  -28.9204  -18.5256   21.6233 H   0  0  0  0  0  0
  -28.9036  -15.6874   20.9246 H   0  0  0  0  0  0
  1 25  1  0  0  0
  1 30  2  0  0  0
  1 86  1  0  0  0
  2  3  1  0  0  0
  2 25  1  0  0  0
  2 87  1  0  0  0
  2 88  1  0  0  0
  3  4  1  0  0  0
  3 89  1  0  0  0
  3 90  1  0  0  0
  4  5  1  0  0  0
  4 91  1  0  0  0
  4 92  1  0  0  0
  5  6  1  0  0  0
  5 26  1  0  0  0
  5 93  1  0  0  0
  6 25  1  0  0  0
  6 94  1  0  0  0
  6 95  1  0  0  0
  7  8  2  0  0  0
  7 26  1  0  0  0
  7 29  1  0  0  0
  8  9  1  0  0  0
  8 22  1  0  0  0
  9 10  1  0  0  0
  9 27  2  0  0  0
 10 11  2  0  0  0
 10 15  1  0  0  0
 11 12  1  0  0  0
 11 96  1  0  0  0
 12 13  2  0  0  0
 12 97  1  0  0  0
 13 14  1  0  0  0
 13 31  1  0  0  0
 14 15  2  0  0  0
 14 98  1  0  0  0
 15 99  1  0  0  0
 16 17  2  0  0  0
 16 21  1  0  0  0
 16 31  1  0  0  0
 17 18  1  0  0  0
 17100  1  0  0  0
 18 19  2  0  0  0
 18101  1  0  0  0
 19 20  1  0  0  0
 19 24  1  0  0  0
 20 21  2  0  0  0
 20102  1  0  0  0
 21 23  1  0  0  0
 22 28  1  0  0  0
 22 32  2  0  0  0
 26 27  1  0  0  0
 28103  1  0  0  0
 28104  1  0  0  0
 29105  1  0  0  0
 29106  1  0  0  0
 33 34  1  0  0  0
 33 66  1  0  0  0
 33 70  2  0  0  0
 34 36  1  0  0  0
 34 59  1  0  0  0
 34107  1  0  0  0
 35 44  2  0  0  0
 35 45  1  0  0  0
 35 68  1  0  0  0
 36 56  1  0  0  0
 36108  1  0  0  0
 37 39  1  0  0  0
 37 47  1  0  0  0
 37 66  1  0  0  0
 37109  1  0  0  0
 38 43  2  0  0  0
 38 46  1  0  0  0
 38 47  1  0  0  0
 39 64  1  0  0  0
 39 67  2  0  0  0
 40 52  1  0  0  0
 40 53  2  0  0  0
 40 58  1  0  0  0
 41110  1  0  0  0
 41111  1  0  0  0
 41112  1  0  0  0
 41 48  1  0  0  0
 42 43  1  0  0  0
 42 66  1  0  0  0
 42113  1  0  0  0
 42114  1  0  0  0
 43 44  1  0  0  0
 44115  1  0  0  0
 45 46  2  0  0  0
 45116  1  0  0  0
 46117  1  0  0  0
 47118  1  0  0  0
 47119  1  0  0  0
 48 56  1  0  0  0
 48 65  1  0  0  0
 48120  1  0  0  0
 49 50  1  0  0  0
 49 53  1  0  0  0
 49 64  1  0  0  0
 49121  1  0  0  0
 50 51  1  0  0  0
 50122  1  0  0  0
 50123  1  0  0  0
 51 52  1  0  0  0
 51124  1  0  0  0
 51125  1  0  0  0
 52126  1  0  0  0
 52127  1  0  0  0
 53 54  1  0  0  0
 54 55  2  0  0  0
 54128  1  0  0  0
 55 57  1  0  0  0
 55129  1  0  0  0
 56 69  2  0  0  0
 57 58  2  0  0  0
 57130  1  0  0  0
 58131  1  0  0  0
 59 60  1  0  0  0
 59 61  1  0  0  0
 59 62  1  0  0  0
 60132  1  0  0  0
 60133  1  0  0  0
 60134  1  0  0  0
 61135  1  0  0  0
 61136  1  0  0  0
 61137  1  0  0  0
 62138  1  0  0  0
 62139  1  0  0  0
 62140  1  0  0  0
 63 65  1  0  0  0
 63141  1  0  0  0
 63142  1  0  0  0
 63143  1  0  0  0
 64144  1  0  0  0
 65145  1  0  0  0
 68 82  1  0  0  0
 71 73  2  0  0  0
 71 74  1  0  0  0
 71146  1  0  0  0
 72 73  1  0  0  0
 72 75  2  0  0  0
 72147  1  0  0  0
 73 82  1  0  0  0
 74 80  1  0  0  0
 74 85  2  0  0  0
 75 83  1  0  0  0
 75 85  1  0  0  0
 76148  1  0  0  0
 76149  1  0  0  0
 76150  1  0  0  0
 76 82  1  0  0  0
 77151  1  0  0  0
 77152  1  0  0  0
 77153  1  0  0  0
 77 83  1  0  0  0
 78 83  1  0  0  0
 78154  1  0  0  0
 78155  1  0  0  0
 78156  1  0  0  0
 79157  1  0  0  0
 79158  1  0  0  0
 79159  1  0  0  0
 79 84  1  0  0  0
 80 84  1  0  0  0
 80160  1  0  0  0
 80161  1  0  0  0
 81 84  1  0  0  0
 81 86  1  0  0  0
 81162  1  0  0  0
 81163  1  0  0  0
 82164  1  0  0  0
 83165  1  0  0  0
 84166  1  0  0  0
 86167  1  0  0  0
M  ISO  4   1 100  68 101  82 101  86 100
M  END
> <chiral flag>
0

> <version>
0

> <s_m_source_file>
/data/baiqing/PycharmProjects/Reinvent-master-3.2/result/LINK_invent/BTK/process_docking_weight1_custom_sum_contain_oxygen_bond_distance_aromatic_linkinvent_7_9_3/rearranged_h_0089.sdf

> <i_m_source_file_index>
20

> <r_mmod_Potential_Energy-OPLS-2005>
-107.478034973145

> <r_mmod_Stretch_Energy-OPLS-2005>
106.809921264648

> <r_mmod_Bend_Energy-OPLS-2005>
161.891494750977

> <r_mmod_Torsional_Energy-OPLS-2005>
200.416519165039

> <r_mmod_Improper_Torsional_Energy-OPLS-2005>
6.18827104568481

> <r_mmod_Van_der_Waal_Energy-OPLS-2005>
134.350204467773

> <r_mmod_Electrostatic_Energy-OPLS-2005>
-580.081176757812

> <r_mmod_Solvation_Energy-OPLS-2005>
-205.477203369141

> <b_mmod_Minimization_Converged-OPLS-2005>
0

> <r_mmod_RMS_Derivative-OPLS-2005>
0.705670714378357

$$$$
20
                    3D
 Structure written by MMmdl.
167175  0  0  1  0            999 V2000
  -30.6358  -14.6331   20.4948 C   0  0  0  0  0  0
  -30.4342  -12.3893   19.4458 C   0  0  0  0  0  0
  -29.5051  -12.5022   18.2173 C   0  0  0  0  0  0
  -28.0278  -12.3398   18.6307 C   0  0  0  0  0  0
  -27.6508  -13.2158   19.8556 C   0  0  2  0  0  0
  -28.6964  -13.0823   20.9846 C   0  0  0  0  0  0
  -25.2551  -13.8164   20.5661 C   0  0  0  0  0  0
  -24.1827  -13.0433   20.9186 C   0  0  0  0  0  0
  -24.6397  -11.6907   20.8735 C   0  0  0  0  0  0
  -23.9064  -10.4293   21.0400 C   0  0  0  0  0  0
  -24.3624   -9.4205   21.9172 C   0  0  0  0  0  0
  -23.6303   -8.2237   22.0747 C   0  0  0  0  0  0
  -22.4283   -8.0276   21.3535 C   0  0  0  0  0  0
  -21.9912   -9.0247   20.4637 C   0  0  0  0  0  0
  -22.7238  -10.2129   20.3044 C   0  0  0  0  0  0
  -21.6854   -6.0733   22.5275 C   0  0  0  0  0  0
  -21.4021   -6.5638   23.8208 C   0  0  0  0  0  0
  -21.3661   -5.6790   24.9171 C   0  0  0  0  0  0
  -21.6039   -4.3050   24.7220 C   0  0  0  0  0  0
  -21.8823   -3.8142   23.4341 C   0  0  0  0  0  0
  -21.9200   -4.6963   22.3399 C   0  0  0  0  0  0
  -22.7853  -13.5225   21.1849 C   0  0  0  0  0  0
  -22.1658   -4.2147   21.0978 F   0  0  0  0  0  0
  -21.5629   -3.4536   25.7732 F   0  0  0  0  0  0
  -30.0104  -13.4172   20.4147 N   0  0  0  0  0  0
  -26.2975  -12.9347   20.3277 N   0  0  0  0  0  0
  -25.9323  -11.6505   20.5743 N   0  0  0  0  0  0
  -22.0495  -12.8221   22.0414 N   0  0  0  0  0  0
  -25.4251  -15.1888   20.4067 N   0  0  0  0  0  0
  -31.8076  -14.7807   20.1392 O   0  0  0  0  0  0
  -21.6644   -6.8874   21.4236 O   0  0  0  0  0  0
  -22.3536  -14.5528   20.6691 O   0  0  0  0  0  0
  -24.6263  -31.8602   23.2036 C   0  0  0  0  0  0
  -25.9111  -32.4787   23.8364 C   0  0  1  0  0  0
  -27.2285  -27.3259   20.1084 C   0  0  0  0  0  0
  -25.5924  -33.8587   24.2288 N   0  0  0  0  0  0
  -23.4196  -30.4846   21.5463 C   0  0  2  0  0  0
  -24.8653  -28.9384   20.1155 C   0  0  0  0  0  0
  -22.7463  -29.4632   22.4938 C   0  0  0  0  0  0
  -18.0278  -28.1394   22.8493 C   0  0  0  0  0  0
  -24.1494  -36.7290   23.2639 C   0  0  0  0  0  0
  -25.9608  -30.7925   21.3730 C   0  0  0  0  0  0
  -26.0359  -29.4209   20.7146 C   0  0  0  0  0  0
  -27.2208  -28.6281   20.6962 C   0  0  0  0  0  0
  -26.0283  -26.8890   19.5008 C   0  0  0  0  0  0
  -24.8639  -27.6773   19.5022 C   0  0  0  0  0  0
  -23.6340  -29.8189   20.1627 C   0  0  0  0  0  0
  -25.4121  -36.3088   24.0329 C   0  0  1  0  0  0
  -20.5879  -28.3700   23.1286 C   0  0  2  0  0  0
  -20.6768  -26.9422   22.5418 C   0  0  0  0  0  0
  -19.5747  -26.6394   21.5218 C   0  0  0  0  0  0
  -18.1925  -26.7941   22.1628 C   0  0  0  0  0  0
  -19.1531  -28.8866   23.2893 C   0  0  0  0  0  0
  -18.9449  -30.1463   23.8916 C   0  0  0  0  0  0
  -17.6448  -30.6601   24.0564 C   0  0  0  0  0  0
  -25.9056  -34.9455   23.5105 C   0  0  0  0  0  0
  -16.5339  -29.9096   23.6332 C   0  0  0  0  0  0
  -16.7265  -28.6514   23.0356 C   0  0  0  0  0  0
  -26.4495  -31.6594   25.0734 C   0  0  0  0  0  0
  -25.3727  -31.3732   26.1458 C   0  0  0  0  0  0
  -27.0330  -30.3011   24.6188 C   0  0  0  0  0  0
  -27.6064  -32.4316   25.7501 C   0  0  0  0  0  0
  -27.5581  -37.1803   24.8458 C   0  0  0  0  0  0
  -21.4174  -29.3052   22.3680 N   0  0  0  0  0  0
  -26.4293  -37.3779   23.9403 N   0  0  0  0  0  0
  -24.6881  -31.0612   22.0986 N   0  0  0  0  0  0
  -23.4184  -28.8173   23.3021 O   0  0  0  0  0  0
  -28.3663  -26.5055   20.1307 O   0  0  0  0  0  0
  -26.5620  -34.8918   22.4668 O   0  0  0  0  0  0
  -23.5426  -32.1406   23.7360 O   0  0  0  0  0  0
  -28.2624  -21.8981   19.9107 C   0  0  0  0  0  0
  -28.2161  -20.4796   19.9146 C   0  0  0  0  0  0
  -29.4669  -22.5899   20.1849 C   0  0  0  0  0  0
  -29.3732  -19.7122   20.1789 C   0  0  0  0  0  0
  -30.5878  -21.7348   20.4991 C   0  0  0  0  0  0
  -30.3349  -24.5728   18.8252 C   0  0  0  0  0  0
  -29.8095  -17.8822   18.4691 C   0  0  0  0  0  0
  -32.2828  -21.8342   22.3913 C   0  0  0  0  0  0
  -33.0808  -21.7120   19.9770 C   0  0  0  0  0  0
  -30.1676  -17.1784   20.9057 C   0  0  0  0  0  0
  -28.2038  -25.0348   20.0611 C   0  0  0  0  0  0
  -29.5389  -24.1732   20.0843 C   0  0  1  0  0  0
  -29.3871  -18.1543   19.9210 C   0  0  1  0  0  0
  -31.9900  -22.2268   20.9339 C   0  0  0  0  0  0
  -30.5237  -20.3626   20.4605 N   0  0  0  0  0  0
  -29.8444  -15.7041   20.8020 N   0  0  0  0  0  0
  -32.1243  -23.5508   20.9277 F   0  0  0  0  0  0
  -31.4755  -12.5094   19.1424 H   0  0  0  0  0  0
  -30.3646  -11.3956   19.8916 H   0  0  0  0  0  0
  -29.7710  -11.7487   17.4743 H   0  0  0  0  0  0
  -29.6470  -13.4708   17.7359 H   0  0  0  0  0  0
  -27.8687  -11.2877   18.8674 H   0  0  0  0  0  0
  -27.3731  -12.5619   17.7866 H   0  0  0  0  0  0
  -27.6671  -14.2493   19.5092 H   0  0  0  0  0  0
  -28.7070  -12.0648   21.3792 H   0  0  0  0  0  0
  -28.4465  -13.7291   21.8271 H   0  0  0  0  0  0
  -25.2773   -9.5690   22.4743 H   0  0  0  0  0  0
  -24.0011   -7.4639   22.7479 H   0  0  0  0  0  0
  -21.0828   -8.8762   19.8963 H   0  0  0  0  0  0
  -22.3679  -10.9666   19.6153 H   0  0  0  0  0  0
  -21.2009   -7.6146   23.9708 H   0  0  0  0  0  0
  -21.1480   -6.0520   25.9073 H   0  0  0  0  0  0
  -22.0604   -2.7604   23.2839 H   0  0  0  0  0  0
  -22.4124  -11.9899   22.4813 H   0  0  0  0  0  0
  -21.1108  -13.1234   22.2617 H   0  0  0  0  0  0
  -24.6532  -15.8389   20.5089 H   0  0  0  0  0  0
  -26.2652  -15.6264   20.0506 H   0  0  0  0  0  0
  -26.7173  -32.5460   23.1113 H   0  0  0  0  0  0
  -25.0044  -33.9749   25.0409 H   0  0  0  0  0  0
  -22.7145  -31.3064   21.4038 H   0  0  0  0  0  0
  -23.3766  -35.9615   23.3309 H   0  0  0  0  0  0
  -24.3574  -36.8907   22.2048 H   0  0  0  0  0  0
  -23.7242  -37.6491   23.6659 H   0  0  0  0  0  0
  -26.0905  -31.5565   20.6057 H   0  0  0  0  0  0
  -26.8423  -30.8402   22.0015 H   0  0  0  0  0  0
  -28.1240  -28.9974   21.1626 H   0  0  0  0  0  0
  -25.9555  -25.9288   19.0151 H   0  0  0  0  0  0
  -23.9657  -27.2999   19.0339 H   0  0  0  0  0  0
  -23.7553  -30.5964   19.4081 H   0  0  0  0  0  0
  -22.7542  -29.2485   19.8594 H   0  0  0  0  0  0
  -25.1303  -36.1942   25.0823 H   0  0  0  0  0  0
  -20.9976  -28.3278   24.1403 H   0  0  0  0  0  0
  -20.5666  -26.2308   23.3617 H   0  0  0  0  0  0
  -21.6635  -26.7451   22.1208 H   0  0  0  0  0  0
  -19.6895  -25.6303   21.1252 H   0  0  0  0  0  0
  -19.6684  -27.3200   20.6744 H   0  0  0  0  0  0
  -17.4189  -26.6699   21.4030 H   0  0  0  0  0  0
  -18.0323  -26.0078   22.9024 H   0  0  0  0  0  0
  -19.7922  -30.7281   24.2293 H   0  0  0  0  0  0
  -17.5000  -31.6280   24.5165 H   0  0  0  0  0  0
  -15.5344  -30.2999   23.7655 H   0  0  0  0  0  0
  -15.8663  -28.0839   22.7060 H   0  0  0  0  0  0
  -24.5899  -30.7092   25.7771 H   0  0  0  0  0  0
  -24.8922  -32.2894   26.4893 H   0  0  0  0  0  0
  -25.8043  -30.8891   27.0226 H   0  0  0  0  0  0
  -26.2902  -29.6781   24.1193 H   0  0  0  0  0  0
  -27.3981  -29.7257   25.4703 H   0  0  0  0  0  0
  -27.8792  -30.4284   23.9439 H   0  0  0  0  0  0
  -27.2688  -33.3602   26.2113 H   0  0  0  0  0  0
  -28.3864  -32.6896   25.0328 H   0  0  0  0  0  0
  -28.0748  -31.8416   26.5392 H   0  0  0  0  0  0
  -28.2606  -38.0093   24.7507 H   0  0  0  0  0  0
  -28.1080  -36.2628   24.6295 H   0  0  0  0  0  0
  -27.2297  -37.1449   25.8861 H   0  0  0  0  0  0
  -20.9344  -29.8767   21.6887 H   0  0  0  0  0  0
  -26.0186  -38.2861   24.1409 H   0  0  0  0  0  0
  -27.3654  -22.4467   19.6621 H   0  0  0  0  0  0
  -27.2932  -19.9813   19.6501 H   0  0  0  0  0  0
  -31.3120  -24.0979   18.7611 H   0  0  0  0  0  0
  -30.5007  -25.6501   18.7933 H   0  0  0  0  0  0
  -29.7918  -24.3035   17.9192 H   0  0  0  0  0  0
  -29.1775  -18.4307   17.7709 H   0  0  0  0  0  0
  -29.7372  -16.8243   18.2200 H   0  0  0  0  0  0
  -30.8380  -18.1976   18.2955 H   0  0  0  0  0  0
  -32.2692  -20.7525   22.5245 H   0  0  0  0  0  0
  -31.5382  -22.2594   23.0647 H   0  0  0  0  0  0
  -33.2615  -22.1948   22.7077 H   0  0  0  0  0  0
  -33.1514  -20.6246   19.9987 H   0  0  0  0  0  0
  -34.0607  -22.1100   20.2400 H   0  0  0  0  0  0
  -32.8657  -22.0038   18.9492 H   0  0  0  0  0  0
  -29.9409  -17.4760   21.9297 H   0  0  0  0  0  0
  -31.2413  -17.3329   20.7887 H   0  0  0  0  0  0
  -27.6794  -24.7686   19.1445 H   0  0  0  0  0  0
  -27.5640  -24.7272   20.8889 H   0  0  0  0  0  0
  -30.0614  -24.5210   20.9743 H   0  0  0  0  0  0
  -28.3397  -17.8611   20.0008 H   0  0  0  0  0  0
  -28.8936  -15.4582   21.0330 H   0  0  0  0  0  0
  1 25  1  0  0  0
  1 30  2  0  0  0
  1 86  1  0  0  0
  2  3  1  0  0  0
  2 25  1  0  0  0
  2 88  1  0  0  0
  2 89  1  0  0  0
  3  4  1  0  0  0
  3 90  1  0  0  0
  3 91  1  0  0  0
  4  5  1  0  0  0
  4 92  1  0  0  0
  4 93  1  0  0  0
  5  6  1  0  0  0
  5 26  1  0  0  0
  5 94  1  0  0  0
  6 25  1  0  0  0
  6 95  1  0  0  0
  6 96  1  0  0  0
  7  8  2  0  0  0
  7 26  1  0  0  0
  7 29  1  0  0  0
  8  9  1  0  0  0
  8 22  1  0  0  0
  9 10  1  0  0  0
  9 27  2  0  0  0
 10 11  2  0  0  0
 10 15  1  0  0  0
 11 12  1  0  0  0
 11 97  1  0  0  0
 12 13  2  0  0  0
 12 98  1  0  0  0
 13 14  1  0  0  0
 13 31  1  0  0  0
 14 15  2  0  0  0
 14 99  1  0  0  0
 15100  1  0  0  0
 16 17  2  0  0  0
 16 21  1  0  0  0
 16 31  1  0  0  0
 17 18  1  0  0  0
 17101  1  0  0  0
 18 19  2  0  0  0
 18102  1  0  0  0
 19 20  1  0  0  0
 19 24  1  0  0  0
 20 21  2  0  0  0
 20103  1  0  0  0
 21 23  1  0  0  0
 22 28  1  0  0  0
 22 32  2  0  0  0
 26 27  1  0  0  0
 28104  1  0  0  0
 28105  1  0  0  0
 29106  1  0  0  0
 29107  1  0  0  0
 33 34  1  0  0  0
 33 66  1  0  0  0
 33 70  2  0  0  0
 34 36  1  0  0  0
 34 59  1  0  0  0
 34108  1  0  0  0
 35 44  2  0  0  0
 35 45  1  0  0  0
 35 68  1  0  0  0
 36 56  1  0  0  0
 36109  1  0  0  0
 37 39  1  0  0  0
 37 47  1  0  0  0
 37 66  1  0  0  0
 37110  1  0  0  0
 38 43  2  0  0  0
 38 46  1  0  0  0
 38 47  1  0  0  0
 39 64  1  0  0  0
 39 67  2  0  0  0
 40 52  1  0  0  0
 40 53  2  0  0  0
 40 58  1  0  0  0
 41111  1  0  0  0
 41112  1  0  0  0
 41113  1  0  0  0
 41 48  1  0  0  0
 42 43  1  0  0  0
 42 66  1  0  0  0
 42114  1  0  0  0
 42115  1  0  0  0
 43 44  1  0  0  0
 44116  1  0  0  0
 45 46  2  0  0  0
 45117  1  0  0  0
 46118  1  0  0  0
 47119  1  0  0  0
 47120  1  0  0  0
 48 56  1  0  0  0
 48 65  1  0  0  0
 48121  1  0  0  0
 49 50  1  0  0  0
 49 53  1  0  0  0
 49 64  1  0  0  0
 49122  1  0  0  0
 50 51  1  0  0  0
 50123  1  0  0  0
 50124  1  0  0  0
 51 52  1  0  0  0
 51125  1  0  0  0
 51126  1  0  0  0
 52127  1  0  0  0
 52128  1  0  0  0
 53 54  1  0  0  0
 54 55  2  0  0  0
 54129  1  0  0  0
 55 57  1  0  0  0
 55130  1  0  0  0
 56 69  2  0  0  0
 57 58  2  0  0  0
 57131  1  0  0  0
 58132  1  0  0  0
 59 60  1  0  0  0
 59 61  1  0  0  0
 59 62  1  0  0  0
 60133  1  0  0  0
 60134  1  0  0  0
 60135  1  0  0  0
 61136  1  0  0  0
 61137  1  0  0  0
 61138  1  0  0  0
 62139  1  0  0  0
 62140  1  0  0  0
 62141  1  0  0  0
 63 65  1  0  0  0
 63142  1  0  0  0
 63143  1  0  0  0
 63144  1  0  0  0
 64145  1  0  0  0
 65146  1  0  0  0
 68 81  1  0  0  0
 71 72  2  0  0  0
 71 73  1  0  0  0
 71147  1  0  0  0
 72 74  1  0  0  0
 72148  1  0  0  0
 73 75  2  0  0  0
 73 82  1  0  0  0
 74 83  1  0  0  0
 74 85  2  0  0  0
 75 84  1  0  0  0
 75 85  1  0  0  0
 76149  1  0  0  0
 76150  1  0  0  0
 76151  1  0  0  0
 76 82  1  0  0  0
 77152  1  0  0  0
 77153  1  0  0  0
 77154  1  0  0  0
 77 83  1  0  0  0
 78155  1  0  0  0
 78156  1  0  0  0
 78157  1  0  0  0
 78 84  1  0  0  0
 79 84  1  0  0  0
 79158  1  0  0  0
 79159  1  0  0  0
 79160  1  0  0  0
 80 83  1  0  0  0
 80 86  1  0  0  0
 80161  1  0  0  0
 80162  1  0  0  0
 81 82  1  0  0  0
 81163  1  0  0  0
 81164  1  0  0  0
 82165  1  0  0  0
 83166  1  0  0  0
 84 87  1  0  0  0
 86167  1  0  0  0
M  ISO  4   1 100  68 101  81 101  86 100
M  END
> <chiral flag>
0

> <version>
0

> <s_m_source_file>
/data/baiqing/PycharmProjects/Reinvent-master-3.2/result/LINK_invent/BTK/process_docking_weight1_custom_sum_contain_oxygen_bond_distance_aromatic_linkinvent_7_9_3/rearranged_h_0089.sdf

> <i_m_source_file_index>
21

> <r_mmod_Potential_Energy-OPLS-2005>
-137.705154418945

> <r_mmod_Stretch_Energy-OPLS-2005>
84.7789916992188

> <r_mmod_Bend_Energy-OPLS-2005>
146.570816040039

> <r_mmod_Torsional_Energy-OPLS-2005>
190.155151367188

> <r_mmod_Improper_Torsional_Energy-OPLS-2005>
5.30844974517822

> <r_mmod_Van_der_Waal_Energy-OPLS-2005>
148.311218261719

> <r_mmod_Electrostatic_Energy-OPLS-2005>
-549.171020507812

> <r_mmod_Solvation_Energy-OPLS-2005>
-208.582656860352

> <b_mmod_Minimization_Converged-OPLS-2005>
0

> <r_mmod_RMS_Derivative-OPLS-2005>
1.83771932125092

$$$$
21
                    3D
 Structure written by MMmdl.
164172  0  0  1  0            999 V2000
  -30.6633  -14.6719   20.5230 C   0  0  0  0  0  0
  -30.4360  -12.4133   19.5079 C   0  0  0  0  0  0
  -29.5276  -12.4856   18.2650 C   0  0  0  0  0  0
  -28.0553  -12.3186   18.6796 C   0  0  0  0  0  0
  -27.6562  -13.2272   19.8737 C   0  0  2  0  0  0
  -28.6867  -13.1495   21.0174 C   0  0  0  0  0  0
  -25.2540  -13.8216   20.5627 C   0  0  0  0  0  0
  -24.1796  -13.0468   20.9181 C   0  0  0  0  0  0
  -24.6413  -11.6974   20.8726 C   0  0  0  0  0  0
  -23.9108  -10.4318   21.0377 C   0  0  0  0  0  0
  -24.3657   -9.4228   21.9146 C   0  0  0  0  0  0
  -23.6312   -8.2281   22.0734 C   0  0  0  0  0  0
  -22.4286   -8.0309   21.3524 C   0  0  0  0  0  0
  -21.9935   -9.0295   20.4626 C   0  0  0  0  0  0
  -22.7295  -10.2175   20.3029 C   0  0  0  0  0  0
  -21.6870   -6.0745   22.5274 C   0  0  0  0  0  0
  -21.4016   -6.5636   23.8204 C   0  0  0  0  0  0
  -21.3629   -5.6799   24.9164 C   0  0  0  0  0  0
  -21.6050   -4.3060   24.7223 C   0  0  0  0  0  0
  -21.8824   -3.8148   23.4335 C   0  0  0  0  0  0
  -21.9216   -4.6971   22.3389 C   0  0  0  0  0  0
  -22.7817  -13.5230   21.1839 C   0  0  0  0  0  0
  -22.1677   -4.2157   21.0975 F   0  0  0  0  0  0
  -21.5638   -3.4543   25.7721 F   0  0  0  0  0  0
  -30.0007  -13.4734   20.4440 N   0  0  0  0  0  0
  -26.2994  -12.9423   20.3360 N   0  0  0  0  0  0
  -25.9347  -11.6571   20.5783 N   0  0  0  0  0  0
  -22.0508  -12.8169   22.0401 N   0  0  0  0  0  0
  -25.4232  -15.1909   20.3936 N   0  0  0  0  0  0
  -31.8396  -14.7269   20.1639 O   0  0  0  0  0  0
  -21.6655   -6.8901   21.4228 O   0  0  0  0  0  0
  -22.3490  -14.5554   20.6774 O   0  0  0  0  0  0
  -24.6235  -31.8566   23.1985 C   0  0  0  0  0  0
  -25.9075  -32.4767   23.8319 C   0  0  1  0  0  0
  -27.2282  -27.3059   20.1397 C   0  0  0  0  0  0
  -25.5859  -33.8562   24.2233 N   0  0  0  0  0  0
  -23.4209  -30.4773   21.5449 C   0  0  2  0  0  0
  -24.8716  -28.9192   20.1214 C   0  0  0  0  0  0
  -22.7482  -29.4614   22.4992 C   0  0  0  0  0  0
  -18.0299  -28.1346   22.8489 C   0  0  0  0  0  0
  -24.1494  -36.7311   23.2640 C   0  0  0  0  0  0
  -25.9602  -30.7873   21.3695 C   0  0  0  0  0  0
  -26.0386  -29.4096   20.7189 C   0  0  0  0  0  0
  -27.2254  -28.6183   20.7101 C   0  0  0  0  0  0
  -26.0409  -26.8580   19.5253 C   0  0  0  0  0  0
  -24.8759  -27.6529   19.5087 C   0  0  0  0  0  0
  -23.6396  -29.8026   20.1627 C   0  0  0  0  0  0
  -25.4116  -36.3074   24.0314 C   0  0  1  0  0  0
  -20.5889  -28.3704   23.1339 C   0  0  2  0  0  0
  -20.6842  -26.9427   22.5501 C   0  0  0  0  0  0
  -19.5857  -26.6306   21.5312 C   0  0  0  0  0  0
  -18.1985  -26.7891   22.1616 C   0  0  0  0  0  0
  -19.1518  -28.8839   23.2907 C   0  0  0  0  0  0
  -18.9422  -30.1461   23.8844 C   0  0  0  0  0  0
  -17.6393  -30.6528   24.0570 C   0  0  0  0  0  0
  -25.9042  -34.9445   23.5088 C   0  0  0  0  0  0
  -16.5284  -29.8983   23.6368 C   0  0  0  0  0  0
  -16.7272  -28.6416   23.0363 C   0  0  0  0  0  0
  -26.4491  -31.6579   25.0680 C   0  0  0  0  0  0
  -25.3750  -31.3683   26.1419 C   0  0  0  0  0  0
  -27.0328  -30.2998   24.6127 C   0  0  0  0  0  0
  -27.6029  -32.4362   25.7464 C   0  0  0  0  0  0
  -27.5585  -37.1811   24.8460 C   0  0  0  0  0  0
  -21.4199  -29.3054   22.3748 N   0  0  0  0  0  0
  -26.4297  -37.3772   23.9391 N   0  0  0  0  0  0
  -24.6889  -31.0583   22.0941 N   0  0  0  0  0  0
  -23.4215  -28.8084   23.3021 O   0  0  0  0  0  0
  -28.3555  -26.4727   20.1254 O   0  0  0  0  0  0
  -26.5666  -34.8927   22.4689 O   0  0  0  0  0  0
  -23.5411  -32.1371   23.7299 O   0  0  0  0  0  0
  -29.7603  -19.9162   20.7564 C   0  0  0  0  0  0
  -28.0443  -18.2664   20.4699 C   0  0  0  0  0  0
  -29.4058  -18.5064   20.7147 C   0  0  0  0  0  0
  -28.7892  -20.9861   20.6004 C   0  0  0  0  0  0
  -27.4498  -20.5413   20.4524 C   0  0  0  0  0  0
  -24.0146  -22.3587   19.9753 C   0  0  0  0  0  0
  -31.8274  -17.5777   20.6019 C   0  0  0  0  0  0
  -29.1396  -22.5243   20.8464 C   0  0  0  0  0  0
  -26.2489  -21.4485   20.6939 C   0  0  0  0  0  0
  -25.2411  -21.5448   19.5345 C   0  0  0  0  0  0
  -28.5836  -23.7743   19.9753 C   0  0  0  0  0  0
  -28.2829  -25.1339   20.7686 C   0  0  0  0  0  0
  -30.3799  -17.2813   21.0508 C   0  0  2  0  0  0
  -27.1142  -19.2354   20.3489 N   0  0  0  0  0  0
  -29.9433  -15.8162   20.8212 N   0  0  0  0  0  0
  -31.4868  -12.5080   19.2287 H   0  0  0  0  0  0
  -30.3468  -11.4419   19.9944 H   0  0  0  0  0  0
  -29.8144  -11.7103   17.5548 H   0  0  0  0  0  0
  -29.6658  -13.4461   17.7667 H   0  0  0  0  0  0
  -27.9244  -11.2734   18.9660 H   0  0  0  0  0  0
  -27.3961  -12.4961   17.8304 H   0  0  0  0  0  0
  -27.6657  -14.2499   19.4991 H   0  0  0  0  0  0
  -28.6967  -12.1555   21.4650 H   0  0  0  0  0  0
  -28.4187  -13.8277   21.8299 H   0  0  0  0  0  0
  -25.2798   -9.5729   22.4710 H   0  0  0  0  0  0
  -24.0052   -7.4682   22.7444 H   0  0  0  0  0  0
  -21.0879   -8.8845   19.8891 H   0  0  0  0  0  0
  -22.3762  -10.9756   19.6165 H   0  0  0  0  0  0
  -21.1985   -7.6149   23.9691 H   0  0  0  0  0  0
  -21.1426   -6.0536   25.9076 H   0  0  0  0  0  0
  -22.0615   -2.7612   23.2872 H   0  0  0  0  0  0
  -22.4197  -11.9847   22.4748 H   0  0  0  0  0  0
  -21.1084  -13.1093   22.2560 H   0  0  0  0  0  0
  -24.6295  -15.8217   20.3817 H   0  0  0  0  0  0
  -26.2626  -15.6130   20.0214 H   0  0  0  0  0  0
  -26.7120  -32.5470   23.1051 H   0  0  0  0  0  0
  -24.9872  -33.9708   25.0278 H   0  0  0  0  0  0
  -22.7116  -31.2953   21.4009 H   0  0  0  0  0  0
  -23.3744  -35.9669   23.3319 H   0  0  0  0  0  0
  -24.3544  -36.8929   22.2052 H   0  0  0  0  0  0
  -23.7299  -37.6520   23.6684 H   0  0  0  0  0  0
  -26.0919  -31.5490   20.6005 H   0  0  0  0  0  0
  -26.8378  -30.8387   22.0023 H   0  0  0  0  0  0
  -28.1293  -28.9955   21.1713 H   0  0  0  0  0  0
  -26.0170  -25.8835   19.0558 H   0  0  0  0  0  0
  -23.9843  -27.2776   19.0273 H   0  0  0  0  0  0
  -23.7643  -30.5754   19.4048 H   0  0  0  0  0  0
  -22.7580  -29.2364   19.8599 H   0  0  0  0  0  0
  -25.1326  -36.1911   25.0816 H   0  0  0  0  0  0
  -20.9959  -28.3301   24.1487 H   0  0  0  0  0  0
  -20.5873  -26.2328   23.3711 H   0  0  0  0  0  0
  -21.6665  -26.7495   22.1201 H   0  0  0  0  0  0
  -19.7021  -25.6140   21.1514 H   0  0  0  0  0  0
  -19.6912  -27.2995   20.6766 H   0  0  0  0  0  0
  -17.4373  -26.6721   21.3891 H   0  0  0  0  0  0
  -18.0267  -26.0026   22.8966 H   0  0  0  0  0  0
  -19.7934  -30.7319   24.2043 H   0  0  0  0  0  0
  -17.4904  -31.6214   24.5140 H   0  0  0  0  0  0
  -15.5257  -30.2839   23.7615 H   0  0  0  0  0  0
  -15.8678  -28.0742   22.7026 H   0  0  0  0  0  0
  -24.5898  -30.7073   25.7730 H   0  0  0  0  0  0
  -24.8997  -32.2840   26.4951 H   0  0  0  0  0  0
  -25.8094  -30.8766   27.0133 H   0  0  0  0  0  0
  -26.2833  -29.6709   24.1303 H   0  0  0  0  0  0
  -27.4146  -29.7315   25.4624 H   0  0  0  0  0  0
  -27.8681  -30.4248   23.9228 H   0  0  0  0  0  0
  -27.2547  -33.3618   26.2081 H   0  0  0  0  0  0
  -28.3798  -32.7008   25.0270 H   0  0  0  0  0  0
  -28.0750  -31.8493   26.5354 H   0  0  0  0  0  0
  -28.2619  -38.0100   24.7472 H   0  0  0  0  0  0
  -28.1067  -36.2618   24.6336 H   0  0  0  0  0  0
  -27.2283  -37.1522   25.8861 H   0  0  0  0  0  0
  -20.9387  -29.8748   21.6922 H   0  0  0  0  0  0
  -26.0177  -38.2851   24.1390 H   0  0  0  0  0  0
  -30.7779  -20.1849   20.9973 H   0  0  0  0  0  0
  -27.6714  -17.2537   20.4484 H   0  0  0  0  0  0
  -23.2455  -22.3863   19.2059 H   0  0  0  0  0  0
  -24.3009  -23.3843   20.2089 H   0  0  0  0  0  0
  -23.5665  -21.9254   20.8741 H   0  0  0  0  0  0
  -32.1967  -18.5340   20.9752 H   0  0  0  0  0  0
  -31.9195  -17.5643   19.5158 H   0  0  0  0  0  0
  -32.5401  -16.8656   21.0121 H   0  0  0  0  0  0
  -30.2262  -22.6183   20.8661 H   0  0  0  0  0  0
  -28.8348  -22.7193   21.8758 H   0  0  0  0  0  0
  -26.5518  -22.4465   20.9996 H   0  0  0  0  0  0
  -25.7441  -21.0472   21.5741 H   0  0  0  0  0  0
  -25.6974  -21.9997   18.6531 H   0  0  0  0  0  0
  -24.9227  -20.5459   19.2340 H   0  0  0  0  0  0
  -29.2986  -23.9937   19.1787 H   0  0  0  0  0  0
  -27.6688  -23.5108   19.4457 H   0  0  0  0  0  0
  -29.0092  -25.1728   21.5830 H   0  0  0  0  0  0
  -27.3235  -25.0300   21.2749 H   0  0  0  0  0  0
  -30.4346  -17.3212   22.1406 H   0  0  0  0  0  0
  -28.9723  -15.6167   21.0125 H   0  0  0  0  0  0
  1 25  1  0  0  0
  1 30  2  0  0  0
  1 85  1  0  0  0
  2  3  1  0  0  0
  2 25  1  0  0  0
  2 86  1  0  0  0
  2 87  1  0  0  0
  3  4  1  0  0  0
  3 88  1  0  0  0
  3 89  1  0  0  0
  4  5  1  0  0  0
  4 90  1  0  0  0
  4 91  1  0  0  0
  5  6  1  0  0  0
  5 26  1  0  0  0
  5 92  1  0  0  0
  6 25  1  0  0  0
  6 93  1  0  0  0
  6 94  1  0  0  0
  7  8  2  0  0  0
  7 26  1  0  0  0
  7 29  1  0  0  0
  8  9  1  0  0  0
  8 22  1  0  0  0
  9 10  1  0  0  0
  9 27  2  0  0  0
 10 11  2  0  0  0
 10 15  1  0  0  0
 11 12  1  0  0  0
 11 95  1  0  0  0
 12 13  2  0  0  0
 12 96  1  0  0  0
 13 14  1  0  0  0
 13 31  1  0  0  0
 14 15  2  0  0  0
 14 97  1  0  0  0
 15 98  1  0  0  0
 16 17  2  0  0  0
 16 21  1  0  0  0
 16 31  1  0  0  0
 17 18  1  0  0  0
 17 99  1  0  0  0
 18 19  2  0  0  0
 18100  1  0  0  0
 19 20  1  0  0  0
 19 24  1  0  0  0
 20 21  2  0  0  0
 20101  1  0  0  0
 21 23  1  0  0  0
 22 28  1  0  0  0
 22 32  2  0  0  0
 26 27  1  0  0  0
 28102  1  0  0  0
 28103  1  0  0  0
 29104  1  0  0  0
 29105  1  0  0  0
 33 34  1  0  0  0
 33 66  1  0  0  0
 33 70  2  0  0  0
 34 36  1  0  0  0
 34 59  1  0  0  0
 34106  1  0  0  0
 35 44  2  0  0  0
 35 45  1  0  0  0
 35 68  1  0  0  0
 36 56  1  0  0  0
 36107  1  0  0  0
 37 39  1  0  0  0
 37 47  1  0  0  0
 37 66  1  0  0  0
 37108  1  0  0  0
 38 43  2  0  0  0
 38 46  1  0  0  0
 38 47  1  0  0  0
 39 64  1  0  0  0
 39 67  2  0  0  0
 40 52  1  0  0  0
 40 53  2  0  0  0
 40 58  1  0  0  0
 41109  1  0  0  0
 41110  1  0  0  0
 41111  1  0  0  0
 41 48  1  0  0  0
 42 43  1  0  0  0
 42 66  1  0  0  0
 42112  1  0  0  0
 42113  1  0  0  0
 43 44  1  0  0  0
 44114  1  0  0  0
 45 46  2  0  0  0
 45115  1  0  0  0
 46116  1  0  0  0
 47117  1  0  0  0
 47118  1  0  0  0
 48 56  1  0  0  0
 48 65  1  0  0  0
 48119  1  0  0  0
 49 50  1  0  0  0
 49 53  1  0  0  0
 49 64  1  0  0  0
 49120  1  0  0  0
 50 51  1  0  0  0
 50121  1  0  0  0
 50122  1  0  0  0
 51 52  1  0  0  0
 51123  1  0  0  0
 51124  1  0  0  0
 52125  1  0  0  0
 52126  1  0  0  0
 53 54  1  0  0  0
 54 55  2  0  0  0
 54127  1  0  0  0
 55 57  1  0  0  0
 55128  1  0  0  0
 56 69  2  0  0  0
 57 58  2  0  0  0
 57129  1  0  0  0
 58130  1  0  0  0
 59 60  1  0  0  0
 59 61  1  0  0  0
 59 62  1  0  0  0
 60131  1  0  0  0
 60132  1  0  0  0
 60133  1  0  0  0
 61134  1  0  0  0
 61135  1  0  0  0
 61136  1  0  0  0
 62137  1  0  0  0
 62138  1  0  0  0
 62139  1  0  0  0
 63 65  1  0  0  0
 63140  1  0  0  0
 63141  1  0  0  0
 63142  1  0  0  0
 64143  1  0  0  0
 65144  1  0  0  0
 68 82  1  0  0  0
 71 73  2  0  0  0
 71 74  1  0  0  0
 71145  1  0  0  0
 72 73  1  0  0  0
 72 84  2  0  0  0
 72146  1  0  0  0
 73 83  1  0  0  0
 74 75  2  0  0  0
 74 78  1  0  0  0
 75 79  1  0  0  0
 75 84  1  0  0  0
 76 80  1  0  0  0
 76147  1  0  0  0
 76148  1  0  0  0
 76149  1  0  0  0
 77150  1  0  0  0
 77151  1  0  0  0
 77152  1  0  0  0
 77 83  1  0  0  0
 78 81  1  0  0  0
 78153  1  0  0  0
 78154  1  0  0  0
 79 80  1  0  0  0
 79155  1  0  0  0
 79156  1  0  0  0
 80157  1  0  0  0
 80158  1  0  0  0
 81 82  1  0  0  0
 81159  1  0  0  0
 81160  1  0  0  0
 82161  1  0  0  0
 82162  1  0  0  0
 83 85  1  0  0  0
 83163  1  0  0  0
 85164  1  0  0  0
M  ISO  4   1 100  68 101  82 101  85 100
M  END
> <chiral flag>
0

> <version>
0

> <s_m_source_file>
/data/baiqing/PycharmProjects/Reinvent-master-3.2/result/LINK_invent/BTK/process_docking_weight1_custom_sum_contain_oxygen_bond_distance_aromatic_linkinvent_7_9_3/rearranged_h_0089.sdf

> <i_m_source_file_index>
22

> <r_mmod_Potential_Energy-OPLS-2005>
65.2830123901367

> <r_mmod_Stretch_Energy-OPLS-2005>
113.72868347168

> <r_mmod_Bend_Energy-OPLS-2005>
174.27522277832

> <r_mmod_Torsional_Energy-OPLS-2005>
228.729385375977

> <r_mmod_Improper_Torsional_Energy-OPLS-2005>
8.41173458099365

> <r_mmod_Van_der_Waal_Energy-OPLS-2005>
142.406661987305

> <r_mmod_Electrostatic_Energy-OPLS-2005>
-448.994018554688

> <r_mmod_Solvation_Energy-OPLS-2005>
-210.75032043457

> <b_mmod_Minimization_Converged-OPLS-2005>
0

> <r_mmod_RMS_Derivative-OPLS-2005>
7.95432901382446

$$$$
22
                    3D
 Structure written by MMmdl.
163171  0  0  1  0            999 V2000
  -30.7074  -14.4708   20.5491 C   0  0  0  0  0  0
  -30.4178  -12.2972   19.4376 C   0  0  0  0  0  0
  -29.5006  -12.4981   18.2140 C   0  0  0  0  0  0
  -28.0198  -12.3475   18.6206 C   0  0  0  0  0  0
  -27.6581  -13.2004   19.8710 C   0  0  2  0  0  0
  -28.6972  -12.9978   20.9979 C   0  0  0  0  0  0
  -25.2625  -13.8164   20.5721 C   0  0  0  0  0  0
  -24.1864  -13.0441   20.9234 C   0  0  0  0  0  0
  -24.6416  -11.6917   20.8790 C   0  0  0  0  0  0
  -23.9091  -10.4300   21.0463 C   0  0  0  0  0  0
  -24.3632   -9.4201   21.9237 C   0  0  0  0  0  0
  -23.6296   -8.2234   22.0755 C   0  0  0  0  0  0
  -22.4272   -8.0306   21.3553 C   0  0  0  0  0  0
  -21.9943   -9.0286   20.4650 C   0  0  0  0  0  0
  -22.7283  -10.2162   20.3084 C   0  0  0  0  0  0
  -21.6826   -6.0784   22.5329 C   0  0  0  0  0  0
  -21.3995   -6.5672   23.8274 C   0  0  0  0  0  0
  -21.3661   -5.6809   24.9227 C   0  0  0  0  0  0
  -21.6039   -4.3072   24.7261 C   0  0  0  0  0  0
  -21.8803   -3.8184   23.4369 C   0  0  0  0  0  0
  -21.9179   -4.7016   22.3430 C   0  0  0  0  0  0
  -22.7894  -13.5244   21.1879 C   0  0  0  0  0  0
  -22.1638   -4.2206   21.0998 F   0  0  0  0  0  0
  -21.5643   -3.4533   25.7759 F   0  0  0  0  0  0
  -30.0267  -13.2982   20.4428 N   0  0  0  0  0  0
  -26.3020  -12.9303   20.3356 N   0  0  0  0  0  0
  -25.9322  -11.6471   20.5766 N   0  0  0  0  0  0
  -22.0518  -12.8221   22.0429 N   0  0  0  0  0  0
  -25.4349  -15.1876   20.4121 N   0  0  0  0  0  0
  -31.8552  -14.6198   20.1270 O   0  0  0  0  0  0
  -21.6597   -6.8926   21.4291 O   0  0  0  0  0  0
  -22.3568  -14.5548   20.6745 O   0  0  0  0  0  0
  -24.6155  -31.8685   23.2104 C   0  0  0  0  0  0
  -25.9047  -32.4820   23.8403 C   0  0  1  0  0  0
  -27.2387  -27.4369   20.0837 C   0  0  0  0  0  0
  -25.5908  -33.8622   24.2336 N   0  0  0  0  0  0
  -23.4037  -30.4910   21.5543 C   0  0  2  0  0  0
  -24.8441  -28.9548   20.1198 C   0  0  0  0  0  0
  -22.7420  -29.4662   22.5025 C   0  0  0  0  0  0
  -18.0271  -28.1375   22.8504 C   0  0  0  0  0  0
  -24.1507  -36.7332   23.2636 C   0  0  0  0  0  0
  -25.9329  -30.8326   21.3614 C   0  0  0  0  0  0
  -26.0072  -29.4680   20.7057 C   0  0  0  0  0  0
  -27.2041  -28.7179   20.6821 C   0  0  0  0  0  0
  -26.0453  -26.9259   19.5183 C   0  0  0  0  0  0
  -24.8574  -27.6795   19.5308 C   0  0  0  0  0  0
  -23.6093  -29.8248   20.1679 C   0  0  0  0  0  0
  -25.4119  -36.3115   24.0333 C   0  0  1  0  0  0
  -20.5872  -28.3647   23.1341 C   0  0  2  0  0  0
  -20.6774  -26.9393   22.5421 C   0  0  0  0  0  0
  -19.5751  -26.6384   21.5217 C   0  0  0  0  0  0
  -18.1928  -26.7932   22.1631 C   0  0  0  0  0  0
  -19.1527  -28.8825   23.2912 C   0  0  0  0  0  0
  -18.9452  -30.1442   23.8911 C   0  0  0  0  0  0
  -17.6452  -30.6579   24.0568 C   0  0  0  0  0  0
  -25.9030  -34.9475   23.5123 C   0  0  0  0  0  0
  -16.5340  -29.9083   23.6327 C   0  0  0  0  0  0
  -16.7261  -28.6503   23.0338 C   0  0  0  0  0  0
  -26.4471  -31.6604   25.0738 C   0  0  0  0  0  0
  -25.3752  -31.3697   26.1494 C   0  0  0  0  0  0
  -27.0282  -30.3049   24.6101 C   0  0  0  0  0  0
  -27.6056  -32.4316   25.7499 C   0  0  0  0  0  0
  -27.5589  -37.1827   24.8458 C   0  0  0  0  0  0
  -21.4149  -29.3022   22.3749 N   0  0  0  0  0  0
  -26.4305  -37.3795   23.9395 N   0  0  0  0  0  0
  -24.6696  -31.0786   22.1001 N   0  0  0  0  0  0
  -23.4183  -28.8188   23.3054 O   0  0  0  0  0  0
  -28.4410  -26.7520   20.0832 O   0  0  0  0  0  0
  -26.5599  -34.8932   22.4691 O   0  0  0  0  0  0
  -23.5347  -32.1435   23.7495 O   0  0  0  0  0  0
  -29.4395  -21.1895   21.9273 C   0  0  0  0  0  0
  -29.5625  -22.1421   20.8877 C   0  0  0  0  0  0
  -29.5678  -19.8102   21.6147 C   0  0  0  0  0  0
  -29.8600  -21.6290   19.6011 C   0  0  0  0  0  0
  -30.1547  -22.5249   18.4143 C   0  0  0  0  0  0
  -29.7780  -19.1871   24.0942 C   0  0  0  0  0  0
  -29.3939  -23.6430   21.1696 C   0  0  0  0  0  0
  -28.1816  -24.3023   20.4583 C   0  0  0  0  0  0
  -30.2833  -17.4099   22.3463 C   0  0  0  0  0  0
  -29.4672  -16.1505   21.9398 C   0  0  0  0  0  0
  -28.5390  -25.4533   19.4839 C   0  0  0  0  0  0
  -29.4393  -18.6883   22.6711 C   0  0  2  0  0  0
  -29.7369  -19.4070   20.3298 N   0  0  0  0  0  0
  -29.9128  -20.2980   19.3490 N   0  0  0  0  0  0
  -29.9493  -15.5698   20.6859 N   0  0  0  0  0  0
  -31.4661  -12.3704   19.1482 H   0  0  0  0  0  0
  -30.2938  -11.2938   19.8506 H   0  0  0  0  0  0
  -29.7524  -11.7768   17.4349 H   0  0  0  0  0  0
  -29.6695  -13.4887   17.7861 H   0  0  0  0  0  0
  -27.8429  -11.2898   18.8243 H   0  0  0  0  0  0
  -27.3657  -12.5995   17.7857 H   0  0  0  0  0  0
  -27.7024  -14.2434   19.5619 H   0  0  0  0  0  0
  -28.6824  -11.9650   21.3490 H   0  0  0  0  0  0
  -28.4544  -13.6057   21.8695 H   0  0  0  0  0  0
  -25.2819   -9.5644   22.4762 H   0  0  0  0  0  0
  -24.0045   -7.4606   22.7418 H   0  0  0  0  0  0
  -21.0912   -8.8811   19.8889 H   0  0  0  0  0  0
  -22.3819  -10.9700   19.6142 H   0  0  0  0  0  0
  -21.1947   -7.6171   23.9812 H   0  0  0  0  0  0
  -21.1498   -6.0516   25.9133 H   0  0  0  0  0  0
  -22.0563   -2.7647   23.2850 H   0  0  0  0  0  0
  -22.4057  -11.9857   22.4802 H   0  0  0  0  0  0
  -21.1122  -13.1204   22.2573 H   0  0  0  0  0  0
  -24.6726  -15.8437   20.5350 H   0  0  0  0  0  0
  -26.2858  -15.6295   20.0815 H   0  0  0  0  0  0
  -26.7128  -32.5526   23.1169 H   0  0  0  0  0  0
  -25.0073  -33.9786   25.0486 H   0  0  0  0  0  0
  -22.6919  -31.3076   21.4160 H   0  0  0  0  0  0
  -23.3751  -35.9684   23.3303 H   0  0  0  0  0  0
  -24.3596  -36.8937   22.2048 H   0  0  0  0  0  0
  -23.7279  -37.6550   23.6641 H   0  0  0  0  0  0
  -26.0511  -31.6010   20.5971 H   0  0  0  0  0  0
  -26.8175  -30.8791   21.9836 H   0  0  0  0  0  0
  -28.1071  -29.1219   21.1157 H   0  0  0  0  0  0
  -25.9987  -25.9465   19.0703 H   0  0  0  0  0  0
  -23.9579  -27.2668   19.0929 H   0  0  0  0  0  0
  -23.7269  -30.6026   19.4119 H   0  0  0  0  0  0
  -22.7312  -29.2512   19.8685 H   0  0  0  0  0  0
  -25.1300  -36.1989   25.0827 H   0  0  0  0  0  0
  -20.9954  -28.3201   24.1463 H   0  0  0  0  0  0
  -20.5698  -26.2247   23.3589 H   0  0  0  0  0  0
  -21.6640  -26.7458   22.1199 H   0  0  0  0  0  0
  -19.6905  -25.6295   21.1237 H   0  0  0  0  0  0
  -19.6695  -27.3205   20.6758 H   0  0  0  0  0  0
  -17.4203  -26.6685   21.4023 H   0  0  0  0  0  0
  -18.0318  -26.0062   22.9018 H   0  0  0  0  0  0
  -19.7911  -30.7266   24.2286 H   0  0  0  0  0  0
  -17.4988  -31.6260   24.5162 H   0  0  0  0  0  0
  -15.5339  -30.2972   23.7628 H   0  0  0  0  0  0
  -15.8676  -28.0816   22.7032 H   0  0  0  0  0  0
  -24.5920  -30.7042   25.7842 H   0  0  0  0  0  0
  -24.8940  -32.2840   26.4988 H   0  0  0  0  0  0
  -25.8119  -30.8849   27.0232 H   0  0  0  0  0  0
  -26.2806  -29.6834   24.1159 H   0  0  0  0  0  0
  -27.4049  -29.7268   25.4546 H   0  0  0  0  0  0
  -27.8652  -30.4362   23.9239 H   0  0  0  0  0  0
  -27.2682  -33.3593   26.2138 H   0  0  0  0  0  0
  -28.3845  -32.6916   25.0317 H   0  0  0  0  0  0
  -28.0760  -31.8408   26.5371 H   0  0  0  0  0  0
  -28.2623  -38.0115   24.7493 H   0  0  0  0  0  0
  -28.1082  -36.2644   24.6308 H   0  0  0  0  0  0
  -27.2304  -37.1502   25.8865 H   0  0  0  0  0  0
  -20.9292  -29.8751   21.6995 H   0  0  0  0  0  0
  -26.0204  -38.2885   24.1363 H   0  0  0  0  0  0
  -29.2473  -21.5231   22.9350 H   0  0  0  0  0  0
  -29.2280  -22.9193   18.0001 H   0  0  0  0  0  0
  -30.6693  -21.9755   17.6235 H   0  0  0  0  0  0
  -30.7950  -23.3609   18.6948 H   0  0  0  0  0  0
  -29.0833  -19.9503   24.4387 H   0  0  0  0  0  0
  -30.7851  -19.6073   24.1397 H   0  0  0  0  0  0
  -29.7262  -18.3809   24.8248 H   0  0  0  0  0  0
  -30.3205  -24.1594   20.9205 H   0  0  0  0  0  0
  -29.2805  -23.7866   22.2458 H   0  0  0  0  0  0
  -27.4769  -24.6715   21.2062 H   0  0  0  0  0  0
  -27.6282  -23.5362   19.9113 H   0  0  0  0  0  0
  -31.0527  -17.6422   21.6090 H   0  0  0  0  0  0
  -30.8677  -17.1185   23.2222 H   0  0  0  0  0  0
  -28.4135  -16.3918   21.7954 H   0  0  0  0  0  0
  -29.5017  -15.4191   22.7473 H   0  0  0  0  0  0
  -27.9621  -25.3841   18.5625 H   0  0  0  0  0  0
  -29.5681  -25.3436   19.1463 H   0  0  0  0  0  0
  -28.3820  -18.4179   22.6833 H   0  0  0  0  0  0
  -30.2577  -16.2967   20.0561 H   0  0  0  0  0  0
  1 25  1  0  0  0
  1 30  2  0  0  0
  1 85  1  0  0  0
  2  3  1  0  0  0
  2 25  1  0  0  0
  2 86  1  0  0  0
  2 87  1  0  0  0
  3  4  1  0  0  0
  3 88  1  0  0  0
  3 89  1  0  0  0
  4  5  1  0  0  0
  4 90  1  0  0  0
  4 91  1  0  0  0
  5  6  1  0  0  0
  5 26  1  0  0  0
  5 92  1  0  0  0
  6 25  1  0  0  0
  6 93  1  0  0  0
  6 94  1  0  0  0
  7  8  2  0  0  0
  7 26  1  0  0  0
  7 29  1  0  0  0
  8  9  1  0  0  0
  8 22  1  0  0  0
  9 10  1  0  0  0
  9 27  2  0  0  0
 10 11  2  0  0  0
 10 15  1  0  0  0
 11 12  1  0  0  0
 11 95  1  0  0  0
 12 13  2  0  0  0
 12 96  1  0  0  0
 13 14  1  0  0  0
 13 31  1  0  0  0
 14 15  2  0  0  0
 14 97  1  0  0  0
 15 98  1  0  0  0
 16 17  2  0  0  0
 16 21  1  0  0  0
 16 31  1  0  0  0
 17 18  1  0  0  0
 17 99  1  0  0  0
 18 19  2  0  0  0
 18100  1  0  0  0
 19 20  1  0  0  0
 19 24  1  0  0  0
 20 21  2  0  0  0
 20101  1  0  0  0
 21 23  1  0  0  0
 22 28  1  0  0  0
 22 32  2  0  0  0
 26 27  1  0  0  0
 28102  1  0  0  0
 28103  1  0  0  0
 29104  1  0  0  0
 29105  1  0  0  0
 33 34  1  0  0  0
 33 66  1  0  0  0
 33 70  2  0  0  0
 34 36  1  0  0  0
 34 59  1  0  0  0
 34106  1  0  0  0
 35 44  2  0  0  0
 35 45  1  0  0  0
 35 68  1  0  0  0
 36 56  1  0  0  0
 36107  1  0  0  0
 37 39  1  0  0  0
 37 47  1  0  0  0
 37 66  1  0  0  0
 37108  1  0  0  0
 38 43  2  0  0  0
 38 46  1  0  0  0
 38 47  1  0  0  0
 39 64  1  0  0  0
 39 67  2  0  0  0
 40 52  1  0  0  0
 40 53  2  0  0  0
 40 58  1  0  0  0
 41109  1  0  0  0
 41110  1  0  0  0
 41111  1  0  0  0
 41 48  1  0  0  0
 42 43  1  0  0  0
 42 66  1  0  0  0
 42112  1  0  0  0
 42113  1  0  0  0
 43 44  1  0  0  0
 44114  1  0  0  0
 45 46  2  0  0  0
 45115  1  0  0  0
 46116  1  0  0  0
 47117  1  0  0  0
 47118  1  0  0  0
 48 56  1  0  0  0
 48 65  1  0  0  0
 48119  1  0  0  0
 49 50  1  0  0  0
 49 53  1  0  0  0
 49 64  1  0  0  0
 49120  1  0  0  0
 50 51  1  0  0  0
 50121  1  0  0  0
 50122  1  0  0  0
 51 52  1  0  0  0
 51123  1  0  0  0
 51124  1  0  0  0
 52125  1  0  0  0
 52126  1  0  0  0
 53 54  1  0  0  0
 54 55  2  0  0  0
 54127  1  0  0  0
 55 57  1  0  0  0
 55128  1  0  0  0
 56 69  2  0  0  0
 57 58  2  0  0  0
 57129  1  0  0  0
 58130  1  0  0  0
 59 60  1  0  0  0
 59 61  1  0  0  0
 59 62  1  0  0  0
 60131  1  0  0  0
 60132  1  0  0  0
 60133  1  0  0  0
 61134  1  0  0  0
 61135  1  0  0  0
 61136  1  0  0  0
 62137  1  0  0  0
 62138  1  0  0  0
 62139  1  0  0  0
 63 65  1  0  0  0
 63140  1  0  0  0
 63141  1  0  0  0
 63142  1  0  0  0
 64143  1  0  0  0
 65144  1  0  0  0
 68 81  1  0  0  0
 71 72  2  0  0  0
 71 73  1  0  0  0
 71145  1  0  0  0
 72 74  1  0  0  0
 72 77  1  0  0  0
 73 82  1  0  0  0
 73 83  2  0  0  0
 74 75  1  0  0  0
 74 84  2  0  0  0
 75146  1  0  0  0
 75147  1  0  0  0
 75148  1  0  0  0
 76149  1  0  0  0
 76150  1  0  0  0
 76151  1  0  0  0
 76 82  1  0  0  0
 77 78  1  0  0  0
 77152  1  0  0  0
 77153  1  0  0  0
 78 81  1  0  0  0
 78154  1  0  0  0
 78155  1  0  0  0
 79 80  1  0  0  0
 79 82  1  0  0  0
 79156  1  0  0  0
 79157  1  0  0  0
 80 85  1  0  0  0
 80158  1  0  0  0
 80159  1  0  0  0
 81160  1  0  0  0
 81161  1  0  0  0
 82162  1  0  0  0
 83 84  1  0  0  0
 85163  1  0  0  0
M  ISO  4   1 100  68 101  81 101  85 100
M  END
> <chiral flag>
0

> <version>
0

> <s_m_source_file>
/data/baiqing/PycharmProjects/Reinvent-master-3.2/result/LINK_invent/BTK/process_docking_weight1_custom_sum_contain_oxygen_bond_distance_aromatic_linkinvent_7_9_3/rearranged_h_0089.sdf

> <i_m_source_file_index>
23

> <r_mmod_Potential_Energy-OPLS-2005>
50.2086982727051

> <r_mmod_Stretch_Energy-OPLS-2005>
41.2041206359863

> <r_mmod_Bend_Energy-OPLS-2005>
119.30290222168

> <r_mmod_Torsional_Energy-OPLS-2005>
297.820159912109

> <r_mmod_Improper_Torsional_Energy-OPLS-2005>
17.7911415100098

> <r_mmod_Van_der_Waal_Energy-OPLS-2005>
160.0615234375

> <r_mmod_Electrostatic_Energy-OPLS-2005>
-379.838897705078

> <r_mmod_Solvation_Energy-OPLS-2005>
-220.474227905273

> <b_mmod_Minimization_Converged-OPLS-2005>
0

> <r_mmod_RMS_Derivative-OPLS-2005>
4.42405891418457

$$$$
23
                    3D
 Structure written by MMmdl.
158165  0  0  1  0            999 V2000
  -30.4609  -15.1837   20.3815 C   0  0  0  0  0  0
  -30.4379  -12.7493   19.5147 C   0  0  0  0  0  0
  -29.5289  -12.5604   18.2757 C   0  0  0  0  0  0
  -28.0721  -12.3029   18.7021 C   0  0  0  0  0  0
  -27.6135  -13.2686   19.8241 C   0  0  2  0  0  0
  -28.6527  -13.4073   20.9560 C   0  0  0  0  0  0
  -25.2399  -13.8213   20.5776 C   0  0  0  0  0  0
  -24.1751  -13.0410   20.9269 C   0  0  0  0  0  0
  -24.6394  -11.6905   20.8767 C   0  0  0  0  0  0
  -23.9097  -10.4275   21.0412 C   0  0  0  0  0  0
  -24.3639   -9.4191   21.9190 C   0  0  0  0  0  0
  -23.6309   -8.2237   22.0762 C   0  0  0  0  0  0
  -22.4291   -8.0287   21.3558 C   0  0  0  0  0  0
  -21.9929   -9.0256   20.4654 C   0  0  0  0  0  0
  -22.7264  -10.2130   20.3060 C   0  0  0  0  0  0
  -21.6853   -6.0746   22.5282 C   0  0  0  0  0  0
  -21.4014   -6.5647   23.8218 C   0  0  0  0  0  0
  -21.3654   -5.6802   24.9177 C   0  0  0  0  0  0
  -21.6047   -4.3064   24.7227 C   0  0  0  0  0  0
  -21.8820   -3.8155   23.4349 C   0  0  0  0  0  0
  -21.9189   -4.6974   22.3407 C   0  0  0  0  0  0
  -22.7762  -13.5170   21.1903 C   0  0  0  0  0  0
  -22.1653   -4.2158   21.0983 F   0  0  0  0  0  0
  -21.5629   -3.4546   25.7739 F   0  0  0  0  0  0
  -29.8933  -13.8883   20.3309 N   0  0  0  0  0  0
  -26.2827  -12.9490   20.3226 N   0  0  0  0  0  0
  -25.9333  -11.6597   20.5725 N   0  0  0  0  0  0
  -22.0418  -12.8168   22.0459 N   0  0  0  0  0  0
  -25.4002  -15.1945   20.4244 N   0  0  0  0  0  0
  -31.6846  -15.2036   20.1895 O   0  0  0  0  0  0
  -21.6647   -6.8889   21.4247 O   0  0  0  0  0  0
  -22.3447  -14.5469   20.6730 O   0  0  0  0  0  0
  -24.6576  -31.8291   23.1740 C   0  0  0  0  0  0
  -25.9279  -32.4620   23.8188 C   0  0  1  0  0  0
  -27.2203  -26.9734   20.1930 C   0  0  0  0  0  0
  -25.5964  -33.8433   24.2094 N   0  0  0  0  0  0
  -23.4691  -30.4412   21.5232 C   0  0  2  0  0  0
  -24.9210  -28.8281   20.1229 C   0  0  0  0  0  0
  -22.7635  -29.4473   22.4821 C   0  0  0  0  0  0
  -18.0326  -28.1402   22.8477 C   0  0  0  0  0  0
  -24.1487  -36.7216   23.2646 C   0  0  0  0  0  0
  -26.0348  -30.6518   21.3945 C   0  0  0  0  0  0
  -26.1051  -29.2426   20.7470 C   0  0  0  0  0  0
  -27.2540  -28.3383   20.7509 C   0  0  0  0  0  0
  -26.0054  -26.6931   19.5318 C   0  0  0  0  0  0
  -24.8923  -27.5711   19.4967 C   0  0  0  0  0  0
  -23.7072  -29.7534   20.1512 C   0  0  0  0  0  0
  -25.4127  -36.2986   24.0306 C   0  0  1  0  0  0
  -20.5940  -28.3739   23.1208 C   0  0  2  0  0  0
  -20.6800  -26.9431   22.5401 C   0  0  0  0  0  0
  -19.5766  -26.6376   21.5219 C   0  0  0  0  0  0
  -18.1953  -26.7936   22.1627 C   0  0  0  0  0  0
  -19.1586  -28.8897   23.2833 C   0  0  0  0  0  0
  -18.9491  -30.1491   23.8857 C   0  0  0  0  0  0
  -17.6477  -30.6597   24.0552 C   0  0  0  0  0  0
  -25.9086  -34.9372   23.5016 C   0  0  0  0  0  0
  -16.5374  -29.9085   23.6337 C   0  0  0  0  0  0
  -16.7307  -28.6501   23.0358 C   0  0  0  0  0  0
  -26.4547  -31.6549   25.0698 C   0  0  0  0  0  0
  -25.3677  -31.3788   26.1356 C   0  0  0  0  0  0
  -27.0433  -30.2925   24.6380 C   0  0  0  0  0  0
  -27.6039  -32.4352   25.7494 C   0  0  0  0  0  0
  -27.5566  -37.1767   24.8465 C   0  0  0  0  0  0
  -21.4311  -29.3046   22.3570 N   0  0  0  0  0  0
  -26.4272  -37.3721   23.9413 N   0  0  0  0  0  0
  -24.7417  -31.0003   22.0852 N   0  0  0  0  0  0
  -23.4208  -28.8053   23.3053 O   0  0  0  0  0  0
  -28.2599  -25.9203   20.1867 O   0  0  0  0  0  0
  -26.5695  -34.8901   22.4612 O   0  0  0  0  0  0
  -23.5655  -32.1227   23.6866 O   0  0  0  0  0  0
  -27.0635  -18.6027   21.6014 C   0  0  0  0  0  0
  -27.0574  -18.0134   19.1453 C   0  0  0  0  0  0
  -26.4790  -20.2914   19.8557 C   0  0  0  0  0  0
  -28.7046  -22.7928   19.9264 C   0  0  0  0  0  0
  -29.1034  -21.1959   20.6367 C   0  0  0  0  0  0
  -29.9291  -18.0625   20.5420 C   0  0  0  0  0  0
  -28.1079  -24.3422   20.5773 C   0  0  0  0  0  0
  -28.9344  -19.4917   20.1071 C   0  0  1  0  0  0
  -27.4121  -19.1017   20.1845 C   0  0  0  0  0  0
  -29.6767  -16.4250   20.4494 N   0  0  0  0  0  0
  -31.4627  -12.9388   19.1926 H   0  0  0  0  0  0
  -30.4800  -11.8340   20.1062 H   0  0  0  0  0  0
  -29.8916  -11.7369   17.6584 H   0  0  0  0  0  0
  -29.5726  -13.4548   17.6529 H   0  0  0  0  0  0
  -28.0097  -11.2735   19.0580 H   0  0  0  0  0  0
  -27.4048  -12.3679   17.8415 H   0  0  0  0  0  0
  -27.5360  -14.2443   19.3423 H   0  0  0  0  0  0
  -28.8031  -12.4610   21.4776 H   0  0  0  0  0  0
  -28.3111  -14.1263   21.7026 H   0  0  0  0  0  0
  -25.2777   -9.5671   22.4777 H   0  0  0  0  0  0
  -24.0015   -7.4627   22.7487 H   0  0  0  0  0  0
  -21.0857   -8.8773   19.8970 H   0  0  0  0  0  0
  -22.3709  -10.9674   19.6183 H   0  0  0  0  0  0
  -21.2000   -7.6152   23.9717 H   0  0  0  0  0  0
  -21.1482   -6.0534   25.9083 H   0  0  0  0  0  0
  -22.0602   -2.7614   23.2844 H   0  0  0  0  0  0
  -22.4021  -11.9836   22.4863 H   0  0  0  0  0  0
  -21.1039  -13.1202   22.2651 H   0  0  0  0  0  0
  -24.6259  -15.8373   20.5506 H   0  0  0  0  0  0
  -26.2341  -15.6430   20.0734 H   0  0  0  0  0  0
  -26.7343  -32.5185   23.0906 H   0  0  0  0  0  0
  -25.0075  -33.9515   25.0218 H   0  0  0  0  0  0
  -22.7797  -31.2712   21.3525 H   0  0  0  0  0  0
  -23.3764  -35.9532   23.3281 H   0  0  0  0  0  0
  -24.3553  -36.8884   22.2061 H   0  0  0  0  0  0
  -23.7225  -37.6394   23.6714 H   0  0  0  0  0  0
  -26.2032  -31.3918   20.6106 H   0  0  0  0  0  0
  -26.8996  -30.7119   22.0438 H   0  0  0  0  0  0
  -28.1594  -28.6603   21.2459 H   0  0  0  0  0  0
  -25.9004  -25.7335   19.0464 H   0  0  0  0  0  0
  -23.9919  -27.2453   18.9944 H   0  0  0  0  0  0
  -23.8654  -30.5171   19.3897 H   0  0  0  0  0  0
  -22.8172  -29.2072   19.8342 H   0  0  0  0  0  0
  -25.1326  -36.1779   25.0797 H   0  0  0  0  0  0
  -21.0034  -28.3334   24.1327 H   0  0  0  0  0  0
  -20.5684  -26.2360   23.3637 H   0  0  0  0  0  0
  -21.6665  -26.7419   22.1200 H   0  0  0  0  0  0
  -19.6917  -25.6279   21.1273 H   0  0  0  0  0  0
  -19.6690  -27.3166   20.6735 H   0  0  0  0  0  0
  -17.4218  -26.6694   21.4032 H   0  0  0  0  0  0
  -18.0344  -26.0090   22.9032 H   0  0  0  0  0  0
  -19.7966  -30.7334   24.2188 H   0  0  0  0  0  0
  -17.5029  -31.6269   24.5171 H   0  0  0  0  0  0
  -15.5367  -30.2965   23.7691 H   0  0  0  0  0  0
  -15.8706  -28.0810   22.7083 H   0  0  0  0  0  0
  -24.5877  -30.7119   25.7663 H   0  0  0  0  0  0
  -24.8848  -32.2987   26.4659 H   0  0  0  0  0  0
  -25.7910  -30.9033   27.0208 H   0  0  0  0  0  0
  -26.3086  -29.6616   24.1359 H   0  0  0  0  0  0
  -27.3963  -29.7272   25.5013 H   0  0  0  0  0  0
  -27.9027  -30.4136   23.9783 H   0  0  0  0  0  0
  -27.2614  -33.3697   26.1952 H   0  0  0  0  0  0
  -28.3912  -32.6833   25.0366 H   0  0  0  0  0  0
  -28.0636  -31.8551   26.5505 H   0  0  0  0  0  0
  -28.2571  -38.0077   24.7523 H   0  0  0  0  0  0
  -28.1074  -36.2601   24.6283 H   0  0  0  0  0  0
  -27.2283  -37.1410   25.8870 H   0  0  0  0  0  0
  -20.9565  -29.8738   21.6702 H   0  0  0  0  0  0
  -26.0117  -38.2778   24.1430 H   0  0  0  0  0  0
  -25.9961  -18.4022   21.6993 H   0  0  0  0  0  0
  -27.3263  -19.3400   22.3602 H   0  0  0  0  0  0
  -27.5810  -17.6782   21.8555 H   0  0  0  0  0  0
  -25.9920  -17.7801   19.1700 H   0  0  0  0  0  0
  -27.5723  -17.0728   19.3024 H   0  0  0  0  0  0
  -27.2876  -18.3411   18.1300 H   0  0  0  0  0  0
  -25.4346  -19.9791   19.8052 H   0  0  0  0  0  0
  -26.7207  -20.7306   18.8878 H   0  0  0  0  0  0
  -26.5156  -21.0783   20.6093 H   0  0  0  0  0  0
  -28.0579  -22.5874   19.0753 H   0  0  0  0  0  0
  -29.6404  -23.0744   19.4441 H   0  0  0  0  0  0
  -30.1717  -21.2820   20.8391 H   0  0  0  0  0  0
  -28.6779  -21.2204   21.6396 H   0  0  0  0  0  0
  -30.1731  -18.2063   21.5945 H   0  0  0  0  0  0
  -30.8838  -18.2154   20.0379 H   0  0  0  0  0  0
  -28.4888  -24.3403   21.5994 H   0  0  0  0  0  0
  -27.0372  -24.1929   20.7156 H   0  0  0  0  0  0
  -29.1431  -19.5847   19.0409 H   0  0  0  0  0  0
  -28.6947  -16.2034   20.5165 H   0  0  0  0  0  0
  1 25  1  0  0  0
  1 30  2  0  0  0
  1 80  1  0  0  0
  2  3  1  0  0  0
  2 25  1  0  0  0
  2 81  1  0  0  0
  2 82  1  0  0  0
  3  4  1  0  0  0
  3 83  1  0  0  0
  3 84  1  0  0  0
  4  5  1  0  0  0
  4 85  1  0  0  0
  4 86  1  0  0  0
  5  6  1  0  0  0
  5 26  1  0  0  0
  5 87  1  0  0  0
  6 25  1  0  0  0
  6 88  1  0  0  0
  6 89  1  0  0  0
  7  8  2  0  0  0
  7 26  1  0  0  0
  7 29  1  0  0  0
  8  9  1  0  0  0
  8 22  1  0  0  0
  9 10  1  0  0  0
  9 27  2  0  0  0
 10 11  2  0  0  0
 10 15  1  0  0  0
 11 12  1  0  0  0
 11 90  1  0  0  0
 12 13  2  0  0  0
 12 91  1  0  0  0
 13 14  1  0  0  0
 13 31  1  0  0  0
 14 15  2  0  0  0
 14 92  1  0  0  0
 15 93  1  0  0  0
 16 17  2  0  0  0
 16 21  1  0  0  0
 16 31  1  0  0  0
 17 18  1  0  0  0
 17 94  1  0  0  0
 18 19  2  0  0  0
 18 95  1  0  0  0
 19 20  1  0  0  0
 19 24  1  0  0  0
 20 21  2  0  0  0
 20 96  1  0  0  0
 21 23  1  0  0  0
 22 28  1  0  0  0
 22 32  2  0  0  0
 26 27  1  0  0  0
 28 97  1  0  0  0
 28 98  1  0  0  0
 29 99  1  0  0  0
 29100  1  0  0  0
 33 34  1  0  0  0
 33 66  1  0  0  0
 33 70  2  0  0  0
 34 36  1  0  0  0
 34 59  1  0  0  0
 34101  1  0  0  0
 35 44  2  0  0  0
 35 45  1  0  0  0
 35 68  1  0  0  0
 36 56  1  0  0  0
 36102  1  0  0  0
 37 39  1  0  0  0
 37 47  1  0  0  0
 37 66  1  0  0  0
 37103  1  0  0  0
 38 43  2  0  0  0
 38 46  1  0  0  0
 38 47  1  0  0  0
 39 64  1  0  0  0
 39 67  2  0  0  0
 40 52  1  0  0  0
 40 53  2  0  0  0
 40 58  1  0  0  0
 41104  1  0  0  0
 41105  1  0  0  0
 41106  1  0  0  0
 41 48  1  0  0  0
 42 43  1  0  0  0
 42 66  1  0  0  0
 42107  1  0  0  0
 42108  1  0  0  0
 43 44  1  0  0  0
 44109  1  0  0  0
 45 46  2  0  0  0
 45110  1  0  0  0
 46111  1  0  0  0
 47112  1  0  0  0
 47113  1  0  0  0
 48 56  1  0  0  0
 48 65  1  0  0  0
 48114  1  0  0  0
 49 50  1  0  0  0
 49 53  1  0  0  0
 49 64  1  0  0  0
 49115  1  0  0  0
 50 51  1  0  0  0
 50116  1  0  0  0
 50117  1  0  0  0
 51 52  1  0  0  0
 51118  1  0  0  0
 51119  1  0  0  0
 52120  1  0  0  0
 52121  1  0  0  0
 53 54  1  0  0  0
 54 55  2  0  0  0
 54122  1  0  0  0
 55 57  1  0  0  0
 55123  1  0  0  0
 56 69  2  0  0  0
 57 58  2  0  0  0
 57124  1  0  0  0
 58125  1  0  0  0
 59 60  1  0  0  0
 59 61  1  0  0  0
 59 62  1  0  0  0
 60126  1  0  0  0
 60127  1  0  0  0
 60128  1  0  0  0
 61129  1  0  0  0
 61130  1  0  0  0
 61131  1  0  0  0
 62132  1  0  0  0
 62133  1  0  0  0
 62134  1  0  0  0
 63 65  1  0  0  0
 63135  1  0  0  0
 63136  1  0  0  0
 63137  1  0  0  0
 64138  1  0  0  0
 65139  1  0  0  0
 68 77  1  0  0  0
 71140  1  0  0  0
 71141  1  0  0  0
 71142  1  0  0  0
 71 79  1  0  0  0
 72 79  1  0  0  0
 72143  1  0  0  0
 72144  1  0  0  0
 72145  1  0  0  0
 73 79  1  0  0  0
 73146  1  0  0  0
 73147  1  0  0  0
 73148  1  0  0  0
 74 75  1  0  0  0
 74 77  1  0  0  0
 74149  1  0  0  0
 74150  1  0  0  0
 75151  1  0  0  0
 75152  1  0  0  0
 75 78  1  0  0  0
 76 78  1  0  0  0
 76 80  1  0  0  0
 76153  1  0  0  0
 76154  1  0  0  0
 77155  1  0  0  0
 77156  1  0  0  0
 78 79  1  0  0  0
 78157  1  0  0  0
 80158  1  0  0  0
M  ISO  4   1 100  68 101  77 101  80 100
M  END
> <chiral flag>
0

> <version>
0

> <s_m_source_file>
/data/baiqing/PycharmProjects/Reinvent-master-3.2/result/LINK_invent/BTK/process_docking_weight1_custom_sum_contain_oxygen_bond_distance_aromatic_linkinvent_7_9_3/rearranged_h_0089.sdf

> <i_m_source_file_index>
24

> <r_mmod_Potential_Energy-OPLS-2005>
1188.83215332031

> <r_mmod_Stretch_Energy-OPLS-2005>
572.77294921875

> <r_mmod_Bend_Energy-OPLS-2005>
431.276916503906

> <r_mmod_Torsional_Energy-OPLS-2005>
260.536468505859

> <r_mmod_Improper_Torsional_Energy-OPLS-2005>
3.91936564445496

> <r_mmod_Van_der_Waal_Energy-OPLS-2005>
111.566421508789

> <r_mmod_Electrostatic_Energy-OPLS-2005>
-374.568267822266

> <r_mmod_Solvation_Energy-OPLS-2005>
-194.069931030273

> <b_mmod_Minimization_Converged-OPLS-2005>
0

> <r_mmod_RMS_Derivative-OPLS-2005>
1.74171769618988

$$$$
24
                    3D
 Structure written by MMmdl.
185193  0  0  1  0            999 V2000
  -30.7554  -14.3666   20.6530 C   0  0  0  0  0  0
  -30.4181  -12.2755   19.3955 C   0  0  0  0  0  0
  -29.4851  -12.5216   18.1941 C   0  0  0  0  0  0
  -28.0078  -12.3847   18.6100 C   0  0  0  0  0  0
  -27.6693  -13.2025   19.8840 C   0  0  2  0  0  0
  -28.7079  -12.9330   20.9957 C   0  0  0  0  0  0
  -25.2609  -13.8161   20.5677 C   0  0  0  0  0  0
  -24.1852  -13.0434   20.9156 C   0  0  0  0  0  0
  -24.6402  -11.6901   20.8730 C   0  0  0  0  0  0
  -23.9069  -10.4285   21.0400 C   0  0  0  0  0  0
  -24.3609   -9.4208   21.9191 C   0  0  0  0  0  0
  -23.6282   -8.2244   22.0767 C   0  0  0  0  0  0
  -22.4273   -8.0278   21.3544 C   0  0  0  0  0  0
  -21.9916   -9.0247   20.4633 C   0  0  0  0  0  0
  -22.7248  -10.2121   20.3041 C   0  0  0  0  0  0
  -21.6849   -6.0733   22.5278 C   0  0  0  0  0  0
  -21.4011   -6.5633   23.8211 C   0  0  0  0  0  0
  -21.3656   -5.6791   24.9171 C   0  0  0  0  0  0
  -21.6045   -4.3057   24.7226 C   0  0  0  0  0  0
  -21.8820   -3.8149   23.4347 C   0  0  0  0  0  0
  -21.9190   -4.6964   22.3400 C   0  0  0  0  0  0
  -22.7864  -13.5229   21.1818 C   0  0  0  0  0  0
  -22.1658   -4.2151   21.0976 F   0  0  0  0  0  0
  -21.5628   -3.4544   25.7739 F   0  0  0  0  0  0
  -30.0512  -13.2222   20.4580 N   0  0  0  0  0  0
  -26.3066  -12.9324   20.3413 N   0  0  0  0  0  0
  -25.9335  -11.6482   20.5774 N   0  0  0  0  0  0
  -22.0490  -12.8201   22.0335 N   0  0  0  0  0  0
  -25.4347  -15.1875   20.4090 N   0  0  0  0  0  0
  -31.8034  -14.6321   20.0574 O   0  0  0  0  0  0
  -21.6633   -6.8878   21.4240 O   0  0  0  0  0  0
  -22.3561  -14.5555   20.6689 O   0  0  0  0  0  0
  -24.6128  -31.8692   23.2167 C   0  0  0  0  0  0
  -25.9036  -32.4834   23.8440 C   0  0  1  0  0  0
  -27.2347  -27.4576   20.0722 C   0  0  0  0  0  0
  -25.5883  -33.8634   24.2358 N   0  0  0  0  0  0
  -23.3977  -30.4962   21.5580 C   0  0  2  0  0  0
  -24.8406  -28.9703   20.1169 C   0  0  0  0  0  0
  -22.7392  -29.4661   22.5032 C   0  0  0  0  0  0
  -18.0251  -28.1373   22.8478 C   0  0  0  0  0  0
  -24.1470  -36.7308   23.2645 C   0  0  0  0  0  0
  -25.9278  -30.8370   21.3733 C   0  0  0  0  0  0
  -25.9996  -29.4762   20.7156 C   0  0  0  0  0  0
  -27.1948  -28.7249   20.6953 C   0  0  0  0  0  0
  -26.0538  -26.9743   19.4546 C   0  0  0  0  0  0
  -24.8619  -27.7168   19.4871 C   0  0  0  0  0  0
  -23.6035  -29.8354   20.1699 C   0  0  0  0  0  0
  -25.4101  -36.3124   24.0335 C   0  0  1  0  0  0
  -20.5848  -28.3640   23.1322 C   0  0  2  0  0  0
  -20.6746  -26.9380   22.5410 C   0  0  0  0  0  0
  -19.5719  -26.6383   21.5208 C   0  0  0  0  0  0
  -18.1891  -26.7923   22.1602 C   0  0  0  0  0  0
  -19.1505  -28.8822   23.2893 C   0  0  0  0  0  0
  -18.9453  -30.1438   23.8890 C   0  0  0  0  0  0
  -17.6459  -30.6573   24.0572 C   0  0  0  0  0  0
  -25.9029  -34.9477   23.5148 C   0  0  0  0  0  0
  -16.5343  -29.9078   23.6340 C   0  0  0  0  0  0
  -16.7247  -28.6508   23.0335 C   0  0  0  0  0  0
  -26.4457  -31.6610   25.0766 C   0  0  0  0  0  0
  -25.3714  -31.3650   26.1496 C   0  0  0  0  0  0
  -27.0370  -30.3087   24.6149 C   0  0  0  0  0  0
  -27.5996  -32.4346   25.7562 C   0  0  0  0  0  0
  -27.5563  -37.1843   24.8460 C   0  0  0  0  0  0
  -21.4125  -29.3022   22.3766 N   0  0  0  0  0  0
  -26.4280  -37.3809   23.9396 N   0  0  0  0  0  0
  -24.6638  -31.0815   22.1066 N   0  0  0  0  0  0
  -23.4179  -28.8183   23.3047 O   0  0  0  0  0  0
  -28.4371  -26.7789   20.0643 O   0  0  0  0  0  0
  -26.5598  -34.8912   22.4717 O   0  0  0  0  0  0
  -23.5331  -32.1438   23.7571 O   0  0  0  0  0  0
  -32.1867  -22.4205   23.8181 C   0  0  0  0  0  0
  -31.6297  -21.1610   23.5155 C   0  0  0  0  0  0
  -31.8811  -23.5337   23.0112 C   0  0  0  0  0  0
  -30.7902  -21.0517   22.3803 C   0  0  0  0  0  0
  -31.0382  -23.3283   21.8962 C   0  0  0  0  0  0
  -31.9432  -19.9775   24.4184 C   0  0  0  0  0  0
  -31.1133  -28.0016   25.3520 C   0  0  0  0  0  0
  -28.5252  -19.9667   21.9919 C   0  0  0  0  0  0
  -32.1523  -19.0926   20.6214 C   0  0  0  0  0  0
  -30.0702  -19.6962   19.3996 C   0  0  0  0  0  0
  -32.4678  -24.8937   23.3689 C   0  0  0  0  0  0
  -30.5797  -24.4296   20.9478 C   0  0  0  0  0  0
  -32.0796  -27.1392   24.5304 C   0  0  0  0  0  0
  -31.4754  -25.7826   24.1376 C   0  0  0  0  0  0
  -29.0568  -24.6434   21.0319 C   0  0  0  0  0  0
  -30.1579  -17.5416   20.6381 C   0  0  0  0  0  0
  -30.6697  -16.5962   21.7515 C   0  0  0  0  0  0
  -28.4547  -25.3694   19.8261 C   0  0  0  0  0  0
  -30.0567  -19.7580   21.9761 C   0  0  1  0  0  0
  -30.6075  -19.0322   20.6911 C   0  0  0  0  0  0
  -30.5417  -22.1150   21.5907 N   0  0  0  0  0  0
  -30.2101  -15.2297   21.5184 N   0  0  0  0  0  0
  -31.4616  -12.3722   19.0908 H   0  0  0  0  0  0
  -30.3119  -11.2519   19.7568 H   0  0  0  0  0  0
  -29.7115  -11.8208   17.3892 H   0  0  0  0  0  0
  -29.6601  -13.5202   17.7896 H   0  0  0  0  0  0
  -27.8073  -11.3272   18.7848 H   0  0  0  0  0  0
  -27.3570  -12.6866   17.7880 H   0  0  0  0  0  0
  -27.7305  -14.2579   19.6171 H   0  0  0  0  0  0
  -28.6655  -11.8867   21.3013 H   0  0  0  0  0  0
  -28.4643  -13.5001   21.8945 H   0  0  0  0  0  0
  -25.2748   -9.5684   22.4773 H   0  0  0  0  0  0
  -23.9980   -7.4646   22.7505 H   0  0  0  0  0  0
  -21.0853   -8.8755   19.8931 H   0  0  0  0  0  0
  -22.3722  -10.9648   19.6135 H   0  0  0  0  0  0
  -21.2005   -7.6142   23.9714 H   0  0  0  0  0  0
  -21.1472   -6.0522   25.9074 H   0  0  0  0  0  0
  -22.0604   -2.7614   23.2849 H   0  0  0  0  0  0
  -22.4066  -11.9806   22.4660 H   0  0  0  0  0  0
  -21.1107  -13.1221   22.2529 H   0  0  0  0  0  0
  -24.6735  -15.8488   20.5198 H   0  0  0  0  0  0
  -26.2970  -15.6243   20.1071 H   0  0  0  0  0  0
  -26.7113  -32.5538   23.1213 H   0  0  0  0  0  0
  -25.0010  -33.9799   25.0485 H   0  0  0  0  0  0
  -22.6858  -31.3129   21.4244 H   0  0  0  0  0  0
  -23.3745  -35.9625   23.3306 H   0  0  0  0  0  0
  -24.3558  -36.8939   22.2060 H   0  0  0  0  0  0
  -23.7197  -37.6496   23.6667 H   0  0  0  0  0  0
  -26.0494  -31.6092   20.6128 H   0  0  0  0  0  0
  -26.8117  -30.8792   21.9981 H   0  0  0  0  0  0
  -28.0919  -29.1159   21.1542 H   0  0  0  0  0  0
  -26.0173  -26.0481   18.9046 H   0  0  0  0  0  0
  -23.9759  -27.3287   19.0037 H   0  0  0  0  0  0
  -23.7111  -30.6135   19.4140 H   0  0  0  0  0  0
  -22.7270  -29.2567   19.8724 H   0  0  0  0  0  0
  -25.1299  -36.1999   25.0833 H   0  0  0  0  0  0
  -20.9913  -28.3179   24.1450 H   0  0  0  0  0  0
  -20.5663  -26.2238   23.3587 H   0  0  0  0  0  0
  -21.6614  -26.7418   22.1192 H   0  0  0  0  0  0
  -19.6877  -25.6300   21.1214 H   0  0  0  0  0  0
  -19.6674  -27.3226   20.6765 H   0  0  0  0  0  0
  -17.4178  -26.6683   21.3985 H   0  0  0  0  0  0
  -18.0258  -26.0046   22.8976 H   0  0  0  0  0  0
  -19.7937  -30.7259   24.2228 H   0  0  0  0  0  0
  -17.5017  -31.6254   24.5176 H   0  0  0  0  0  0
  -15.5348  -30.2996   23.7666 H   0  0  0  0  0  0
  -15.8634  -28.0859   22.7022 H   0  0  0  0  0  0
  -24.5867  -30.7056   25.7775 H   0  0  0  0  0  0
  -24.8934  -32.2780   26.5048 H   0  0  0  0  0  0
  -25.8047  -30.8702   27.0196 H   0  0  0  0  0  0
  -26.2979  -29.6830   24.1131 H   0  0  0  0  0  0
  -27.4120  -29.7332   25.4624 H   0  0  0  0  0  0
  -27.8792  -30.4491   23.9369 H   0  0  0  0  0  0
  -27.2585  -33.3640   26.2135 H   0  0  0  0  0  0
  -28.3810  -32.6914   25.0401 H   0  0  0  0  0  0
  -28.0641  -31.8470   26.5494 H   0  0  0  0  0  0
  -28.2581  -38.0142   24.7518 H   0  0  0  0  0  0
  -28.1062  -36.2673   24.6290 H   0  0  0  0  0  0
  -27.2266  -37.1502   25.8858 H   0  0  0  0  0  0
  -20.9279  -29.8793   21.7038 H   0  0  0  0  0  0
  -26.0168  -38.2887   24.1388 H   0  0  0  0  0  0
  -32.8344  -22.5373   24.6756 H   0  0  0  0  0  0
  -32.6979  -20.2311   25.1638 H   0  0  0  0  0  0
  -32.3241  -19.1348   23.8412 H   0  0  0  0  0  0
  -31.0478  -19.6541   24.9508 H   0  0  0  0  0  0
  -31.5649  -28.9612   25.6035 H   0  0  0  0  0  0
  -30.8420  -27.5106   26.2878 H   0  0  0  0  0  0
  -30.1941  -28.2028   24.8009 H   0  0  0  0  0  0
  -28.1957  -20.3256   22.9667 H   0  0  0  0  0  0
  -27.9797  -19.0465   21.7889 H   0  0  0  0  0  0
  -28.2101  -20.7069   21.2570 H   0  0  0  0  0  0
  -32.5376  -18.5032   19.7878 H   0  0  0  0  0  0
  -32.6170  -18.7131   21.5302 H   0  0  0  0  0  0
  -32.5129  -20.1124   20.4824 H   0  0  0  0  0  0
  -30.4843  -19.2255   18.5068 H   0  0  0  0  0  0
  -30.3287  -20.7532   19.3449 H   0  0  0  0  0  0
  -28.9858  -19.6213   19.3187 H   0  0  0  0  0  0
  -32.8234  -25.3953   22.4689 H   0  0  0  0  0  0
  -33.3602  -24.7403   23.9782 H   0  0  0  0  0  0
  -30.8601  -24.1262   19.9381 H   0  0  0  0  0  0
  -31.0875  -25.3755   21.1245 H   0  0  0  0  0  0
  -32.9946  -26.9814   25.1028 H   0  0  0  0  0  0
  -32.3704  -27.6834   23.6310 H   0  0  0  0  0  0
  -31.1465  -25.2596   25.0365 H   0  0  0  0  0  0
  -30.5825  -25.9498   23.5345 H   0  0  0  0  0  0
  -28.7816  -25.1320   21.9665 H   0  0  0  0  0  0
  -28.5727  -23.6670   21.0646 H   0  0  0  0  0  0
  -29.0694  -17.4873   20.6066 H   0  0  0  0  0  0
  -30.4803  -17.1317   19.6797 H   0  0  0  0  0  0
  -30.3033  -16.9008   22.7308 H   0  0  0  0  0  0
  -31.7587  -16.6066   21.8102 H   0  0  0  0  0  0
  -27.4798  -24.9163   19.6781 H   0  0  0  0  0  0
  -29.0161  -25.1619   18.9138 H   0  0  0  0  0  0
  -30.2252  -19.0722   22.7990 H   0  0  0  0  0  0
  -29.3710  -14.9290   21.9926 H   0  0  0  0  0  0
  1 25  1  0  0  0
  1 30  2  0  0  0
  1 92  1  0  0  0
  2  3  1  0  0  0
  2 25  1  0  0  0
  2 93  1  0  0  0
  2 94  1  0  0  0
  3  4  1  0  0  0
  3 95  1  0  0  0
  3 96  1  0  0  0
  4  5  1  0  0  0
  4 97  1  0  0  0
  4 98  1  0  0  0
  5  6  1  0  0  0
  5 26  1  0  0  0
  5 99  1  0  0  0
  6 25  1  0  0  0
  6100  1  0  0  0
  6101  1  0  0  0
  7  8  2  0  0  0
  7 26  1  0  0  0
  7 29  1  0  0  0
  8  9  1  0  0  0
  8 22  1  0  0  0
  9 10  1  0  0  0
  9 27  2  0  0  0
 10 11  2  0  0  0
 10 15  1  0  0  0
 11 12  1  0  0  0
 11102  1  0  0  0
 12 13  2  0  0  0
 12103  1  0  0  0
 13 14  1  0  0  0
 13 31  1  0  0  0
 14 15  2  0  0  0
 14104  1  0  0  0
 15105  1  0  0  0
 16 17  2  0  0  0
 16 21  1  0  0  0
 16 31  1  0  0  0
 17 18  1  0  0  0
 17106  1  0  0  0
 18 19  2  0  0  0
 18107  1  0  0  0
 19 20  1  0  0  0
 19 24  1  0  0  0
 20 21  2  0  0  0
 20108  1  0  0  0
 21 23  1  0  0  0
 22 28  1  0  0  0
 22 32  2  0  0  0
 26 27  1  0  0  0
 28109  1  0  0  0
 28110  1  0  0  0
 29111  1  0  0  0
 29112  1  0  0  0
 33 34  1  0  0  0
 33 66  1  0  0  0
 33 70  2  0  0  0
 34 36  1  0  0  0
 34 59  1  0  0  0
 34113  1  0  0  0
 35 44  2  0  0  0
 35 45  1  0  0  0
 35 68  1  0  0  0
 36 56  1  0  0  0
 36114  1  0  0  0
 37 39  1  0  0  0
 37 47  1  0  0  0
 37 66  1  0  0  0
 37115  1  0  0  0
 38 43  2  0  0  0
 38 46  1  0  0  0
 38 47  1  0  0  0
 39 64  1  0  0  0
 39 67  2  0  0  0
 40 52  1  0  0  0
 40 53  2  0  0  0
 40 58  1  0  0  0
 41116  1  0  0  0
 41117  1  0  0  0
 41118  1  0  0  0
 41 48  1  0  0  0
 42 43  1  0  0  0
 42 66  1  0  0  0
 42119  1  0  0  0
 42120  1  0  0  0
 43 44  1  0  0  0
 44121  1  0  0  0
 45 46  2  0  0  0
 45122  1  0  0  0
 46123  1  0  0  0
 47124  1  0  0  0
 47125  1  0  0  0
 48 56  1  0  0  0
 48 65  1  0  0  0
 48126  1  0  0  0
 49 50  1  0  0  0
 49 53  1  0  0  0
 49 64  1  0  0  0
 49127  1  0  0  0
 50 51  1  0  0  0
 50128  1  0  0  0
 50129  1  0  0  0
 51 52  1  0  0  0
 51130  1  0  0  0
 51131  1  0  0  0
 52132  1  0  0  0
 52133  1  0  0  0
 53 54  1  0  0  0
 54 55  2  0  0  0
 54134  1  0  0  0
 55 57  1  0  0  0
 55135  1  0  0  0
 56 69  2  0  0  0
 57 58  2  0  0  0
 57136  1  0  0  0
 58137  1  0  0  0
 59 60  1  0  0  0
 59 61  1  0  0  0
 59 62  1  0  0  0
 60138  1  0  0  0
 60139  1  0  0  0
 60140  1  0  0  0
 61141  1  0  0  0
 61142  1  0  0  0
 61143  1  0  0  0
 62144  1  0  0  0
 62145  1  0  0  0
 62146  1  0  0  0
 63 65  1  0  0  0
 63147  1  0  0  0
 63148  1  0  0  0
 63149  1  0  0  0
 64150  1  0  0  0
 65151  1  0  0  0
 68 88  1  0  0  0
 71 72  2  0  0  0
 71 73  1  0  0  0
 71152  1  0  0  0
 72 74  1  0  0  0
 72 76  1  0  0  0
 73 75  2  0  0  0
 73 81  1  0  0  0
 74 89  1  0  0  0
 74 91  2  0  0  0
 75 82  1  0  0  0
 75 91  1  0  0  0
 76153  1  0  0  0
 76154  1  0  0  0
 76155  1  0  0  0
 77 83  1  0  0  0
 77156  1  0  0  0
 77157  1  0  0  0
 77158  1  0  0  0
 78159  1  0  0  0
 78160  1  0  0  0
 78161  1  0  0  0
 78 89  1  0  0  0
 79162  1  0  0  0
 79163  1  0  0  0
 79164  1  0  0  0
 79 90  1  0  0  0
 80 90  1  0  0  0
 80165  1  0  0  0
 80166  1  0  0  0
 80167  1  0  0  0
 81 84  1  0  0  0
 81168  1  0  0  0
 81169  1  0  0  0
 82 85  1  0  0  0
 82170  1  0  0  0
 82171  1  0  0  0
 83 84  1  0  0  0
 83172  1  0  0  0
 83173  1  0  0  0
 84174  1  0  0  0
 84175  1  0  0  0
 85 88  1  0  0  0
 85176  1  0  0  0
 85177  1  0  0  0
 86 87  1  0  0  0
 86 90  1  0  0  0
 86178  1  0  0  0
 86179  1  0  0  0
 87 92  1  0  0  0
 87180  1  0  0  0
 87181  1  0  0  0
 88182  1  0  0  0
 88183  1  0  0  0
 89 90  1  0  0  0
 89184  1  0  0  0
 92185  1  0  0  0
M  ISO  4   1 100  68 101  88 101  92 100
M  END
> <chiral flag>
0

> <version>
0

> <s_m_source_file>
/data/baiqing/PycharmProjects/Reinvent-master-3.2/result/LINK_invent/BTK/process_docking_weight1_custom_sum_contain_oxygen_bond_distance_aromatic_linkinvent_7_9_3/rearranged_h_0089.sdf

> <i_m_source_file_index>
25

> <r_mmod_Potential_Energy-OPLS-2005>
-203.998352050781

> <r_mmod_Stretch_Energy-OPLS-2005>
38.3439598083496

> <r_mmod_Bend_Energy-OPLS-2005>
119.87663269043

> <r_mmod_Torsional_Energy-OPLS-2005>
191.476608276367

> <r_mmod_Improper_Torsional_Energy-OPLS-2005>
2.06574058532715

> <r_mmod_Van_der_Waal_Energy-OPLS-2005>
166.763656616211

> <r_mmod_Electrostatic_Energy-OPLS-2005>
-522.915405273438

> <r_mmod_Solvation_Energy-OPLS-2005>
-207.548706054688

> <b_mmod_Minimization_Converged-OPLS-2005>
0

> <r_mmod_RMS_Derivative-OPLS-2005>
1.62472724914551

$$$$
25
                    3D
 Structure written by MMmdl.
170178  0  0  1  0            999 V2000
  -30.7184  -14.4822   20.5089 C   0  0  0  0  0  0
  -30.4129  -12.3036   19.4262 C   0  0  0  0  0  0
  -29.4916  -12.4781   18.2027 C   0  0  0  0  0  0
  -28.0110  -12.3510   18.6167 C   0  0  0  0  0  0
  -27.6522  -13.2102   19.8608 C   0  0  2  0  0  0
  -28.7004  -13.0370   20.9832 C   0  0  0  0  0  0
  -25.2535  -13.8155   20.5667 C   0  0  0  0  0  0
  -24.1810  -13.0429   20.9178 C   0  0  0  0  0  0
  -24.6382  -11.6900   20.8741 C   0  0  0  0  0  0
  -23.9069  -10.4282   21.0388 C   0  0  0  0  0  0
  -24.3633   -9.4200   21.9160 C   0  0  0  0  0  0
  -23.6304   -8.2239   22.0748 C   0  0  0  0  0  0
  -22.4279   -8.0276   21.3553 C   0  0  0  0  0  0
  -21.9914   -9.0237   20.4647 C   0  0  0  0  0  0
  -22.7239  -10.2114   20.3037 C   0  0  0  0  0  0
  -21.6844   -6.0733   22.5268 C   0  0  0  0  0  0
  -21.4014   -6.5639   23.8207 C   0  0  0  0  0  0
  -21.3656   -5.6789   24.9167 C   0  0  0  0  0  0
  -21.6036   -4.3051   24.7220 C   0  0  0  0  0  0
  -21.8822   -3.8150   23.4339 C   0  0  0  0  0  0
  -21.9194   -4.6962   22.3396 C   0  0  0  0  0  0
  -22.7826  -13.5208   21.1830 C   0  0  0  0  0  0
  -22.1663   -4.2152   21.0974 F   0  0  0  0  0  0
  -21.5632   -3.4530   25.7737 F   0  0  0  0  0  0
  -30.0166  -13.3248   20.4054 N   0  0  0  0  0  0
  -26.2984  -12.9348   20.3338 N   0  0  0  0  0  0
  -25.9314  -11.6510   20.5782 N   0  0  0  0  0  0
  -22.0499  -12.8196   22.0404 N   0  0  0  0  0  0
  -25.4182  -15.1883   20.4051 N   0  0  0  0  0  0
  -31.9123  -14.5600   20.2313 O   0  0  0  0  0  0
  -21.6647   -6.8870   21.4230 O   0  0  0  0  0  0
  -22.3493  -14.5482   20.6628 O   0  0  0  0  0  0
  -24.6168  -31.8692   23.2078 C   0  0  0  0  0  0
  -25.9059  -32.4837   23.8379 C   0  0  1  0  0  0
  -27.2320  -27.4179   20.0916 C   0  0  0  0  0  0
  -25.5914  -33.8641   24.2313 N   0  0  0  0  0  0
  -23.4047  -30.4914   21.5509 C   0  0  2  0  0  0
  -24.8468  -28.9546   20.1184 C   0  0  0  0  0  0
  -22.7438  -29.4647   22.4998 C   0  0  0  0  0  0
  -18.0284  -28.1449   22.8473 C   0  0  0  0  0  0
  -24.1499  -36.7317   23.2635 C   0  0  0  0  0  0
  -25.9360  -30.8280   21.3641 C   0  0  0  0  0  0
  -26.0094  -29.4613   20.7103 C   0  0  0  0  0  0
  -27.2013  -28.7018   20.6909 C   0  0  0  0  0  0
  -26.0420  -26.9207   19.5106 C   0  0  0  0  0  0
  -24.8599  -27.6840   19.5189 C   0  0  0  0  0  0
  -23.6127  -29.8263   20.1645 C   0  0  0  0  0  0
  -25.4135  -36.3138   24.0323 C   0  0  1  0  0  0
  -20.5877  -28.3676   23.1333 C   0  0  2  0  0  0
  -20.6749  -26.9412   22.5420 C   0  0  0  0  0  0
  -19.5736  -26.6424   21.5200 C   0  0  0  0  0  0
  -18.1905  -26.7997   22.1596 C   0  0  0  0  0  0
  -19.1541  -28.8883   23.2907 C   0  0  0  0  0  0
  -18.9483  -30.1480   23.8946 C   0  0  0  0  0  0
  -17.6490  -30.6612   24.0624 C   0  0  0  0  0  0
  -25.9060  -34.9498   23.5117 C   0  0  0  0  0  0
  -16.5373  -29.9137   23.6364 C   0  0  0  0  0  0
  -16.7277  -28.6576   23.0327 C   0  0  0  0  0  0
  -26.4481  -31.6622   25.0717 C   0  0  0  0  0  0
  -25.3725  -31.3709   26.1429 C   0  0  0  0  0  0
  -27.0308  -30.3071   24.6115 C   0  0  0  0  0  0
  -27.6077  -32.4337   25.7471 C   0  0  0  0  0  0
  -27.5598  -37.1809   24.8468 C   0  0  0  0  0  0
  -21.4169  -29.3030   22.3744 N   0  0  0  0  0  0
  -26.4322  -37.3820   23.9403 N   0  0  0  0  0  0
  -24.6709  -31.0775   22.0991 N   0  0  0  0  0  0
  -23.4209  -28.8167   23.3023 O   0  0  0  0  0  0
  -28.4309  -26.7285   20.0932 O   0  0  0  0  0  0
  -26.5615  -34.8947   22.4674 O   0  0  0  0  0  0
  -23.5362  -32.1460   23.7462 O   0  0  0  0  0  0
  -28.2915  -20.0533   20.8200 C   0  0  0  0  0  0
  -27.2229  -20.9397   21.0754 C   0  0  0  0  0  0
  -26.2361  -20.5273   22.0142 C   0  0  0  0  0  0
  -28.3604  -18.8162   21.4932 C   0  0  0  0  0  0
  -26.4246  -19.2880   22.6819 C   0  0  0  0  0  0
  -25.4564  -18.7732   23.7339 C   0  0  0  0  0  0
  -23.7726  -20.9426   21.4779 C   0  0  0  0  0  0
  -30.6333  -17.9624   22.2382 C   0  0  0  0  0  0
  -27.1533  -22.2740   20.3115 C   0  0  0  0  0  0
  -24.9954  -21.3777   22.2998 C   0  0  0  0  0  0
  -27.4100  -23.5374   21.1780 C   0  0  0  0  0  0
  -28.6665  -24.3646   20.8156 C   0  0  0  0  0  0
  -29.0415  -16.3488   21.0421 C   0  0  0  0  0  0
  -28.5405  -25.3665   19.6397 C   0  0  0  0  0  0
  -29.4993  -17.8276   21.2104 C   0  0  1  0  0  0
  -27.4685  -18.4689   22.4411 N   0  0  0  0  0  0
  -30.0257  -15.6012   20.2524 N   0  0  0  0  0  0
  -31.4574  -12.3913   19.1209 H   0  0  0  0  0  0
  -30.3081  -11.3058   19.8546 H   0  0  0  0  0  0
  -29.7409  -11.7409   17.4379 H   0  0  0  0  0  0
  -29.6607  -13.4554   17.7486 H   0  0  0  0  0  0
  -27.8146  -11.2986   18.8244 H   0  0  0  0  0  0
  -27.3674  -12.6165   17.7778 H   0  0  0  0  0  0
  -27.6798  -14.2477   19.5332 H   0  0  0  0  0  0
  -28.6813  -12.0159   21.3663 H   0  0  0  0  0  0
  -28.4833  -13.6795   21.8353 H   0  0  0  0  0  0
  -25.2790   -9.5677   22.4715 H   0  0  0  0  0  0
  -24.0011   -7.4634   22.7464 H   0  0  0  0  0  0
  -21.0844   -8.8731   19.8964 H   0  0  0  0  0  0
  -22.3682  -10.9640   19.6134 H   0  0  0  0  0  0
  -21.2003   -7.6147   23.9709 H   0  0  0  0  0  0
  -21.1484   -6.0524   25.9069 H   0  0  0  0  0  0
  -22.0614   -2.7618   23.2836 H   0  0  0  0  0  0
  -22.4186  -11.9890   22.4813 H   0  0  0  0  0  0
  -21.1097  -13.1161   22.2589 H   0  0  0  0  0  0
  -24.6473  -15.8366   20.5214 H   0  0  0  0  0  0
  -26.2682  -15.6387   20.0943 H   0  0  0  0  0  0
  -26.7116  -32.5556   23.1122 H   0  0  0  0  0  0
  -25.0063  -33.9814   25.0460 H   0  0  0  0  0  0
  -22.6944  -31.3099   21.4130 H   0  0  0  0  0  0
  -23.3786  -35.9626   23.3328 H   0  0  0  0  0  0
  -24.3583  -36.8920   22.2045 H   0  0  0  0  0  0
  -23.7218  -37.6509   23.6640 H   0  0  0  0  0  0
  -26.0515  -31.5925   20.5955 H   0  0  0  0  0  0
  -26.8233  -30.8808   21.9842 H   0  0  0  0  0  0
  -28.1031  -29.0960   21.1390 H   0  0  0  0  0  0
  -25.9899  -25.9508   19.0431 H   0  0  0  0  0  0
  -23.9636  -27.2857   19.0633 H   0  0  0  0  0  0
  -23.7277  -30.6044   19.4090 H   0  0  0  0  0  0
  -22.7343  -29.2525   19.8628 H   0  0  0  0  0  0
  -25.1312  -36.1998   25.0813 H   0  0  0  0  0  0
  -20.9947  -28.3228   24.1463 H   0  0  0  0  0  0
  -20.5643  -26.2267   23.3578 H   0  0  0  0  0  0
  -21.6605  -26.7421   22.1193 H   0  0  0  0  0  0
  -19.6877  -25.6337   21.1219 H   0  0  0  0  0  0
  -19.6730  -27.3244   20.6741 H   0  0  0  0  0  0
  -17.4143  -26.6711   21.4017 H   0  0  0  0  0  0
  -18.0296  -26.0182   22.9025 H   0  0  0  0  0  0
  -19.7964  -30.7281   24.2349 H   0  0  0  0  0  0
  -17.5064  -31.6283   24.5269 H   0  0  0  0  0  0
  -15.5380  -30.3035   23.7732 H   0  0  0  0  0  0
  -15.8680  -28.0904   22.7018 H   0  0  0  0  0  0
  -24.5904  -30.7079   25.7703 H   0  0  0  0  0  0
  -24.8897  -32.2847   26.4905 H   0  0  0  0  0  0
  -25.8036  -30.8811   27.0168 H   0  0  0  0  0  0
  -26.2835  -29.6822   24.1209 H   0  0  0  0  0  0
  -27.4096  -29.7334   25.4583 H   0  0  0  0  0  0
  -27.8678  -30.4398   23.9263 H   0  0  0  0  0  0
  -27.2729  -33.3640   26.2083 H   0  0  0  0  0  0
  -28.3857  -32.6893   25.0261 H   0  0  0  0  0  0
  -28.0787  -31.8433   26.5342 H   0  0  0  0  0  0
  -28.2614  -38.0112   24.7542 H   0  0  0  0  0  0
  -28.1082  -36.2630   24.6270 H   0  0  0  0  0  0
  -27.2294  -37.1447   25.8865 H   0  0  0  0  0  0
  -20.9347  -29.8792   21.6994 H   0  0  0  0  0  0
  -26.0217  -38.2900   24.1416 H   0  0  0  0  0  0
  -29.0547  -20.3197   20.1014 H   0  0  0  0  0  0
  -24.4505  -18.6751   23.3261 H   0  0  0  0  0  0
  -25.4254  -19.4532   24.5865 H   0  0  0  0  0  0
  -25.7544  -17.7907   24.1048 H   0  0  0  0  0  0
  -22.9296  -21.6137   21.6522 H   0  0  0  0  0  0
  -23.4386  -19.9378   21.7366 H   0  0  0  0  0  0
  -23.9879  -20.9525   20.4087 H   0  0  0  0  0  0
  -31.0074  -18.9856   22.2660 H   0  0  0  0  0  0
  -31.4748  -17.3143   21.9952 H   0  0  0  0  0  0
  -30.2881  -17.7074   23.2401 H   0  0  0  0  0  0
  -26.1663  -22.3456   19.8529 H   0  0  0  0  0  0
  -27.8498  -22.2532   19.4710 H   0  0  0  0  0  0
  -25.1851  -22.4292   22.0977 H   0  0  0  0  0  0
  -24.7574  -21.3431   23.3631 H   0  0  0  0  0  0
  -27.4933  -23.2270   22.2204 H   0  0  0  0  0  0
  -26.5355  -24.1880   21.1464 H   0  0  0  0  0  0
  -29.4845  -23.6724   20.6083 H   0  0  0  0  0  0
  -28.9875  -24.9160   21.7002 H   0  0  0  0  0  0
  -28.1022  -16.3310   20.4917 H   0  0  0  0  0  0
  -28.8486  -15.8960   22.0139 H   0  0  0  0  0  0
  -27.8165  -25.0453   18.8938 H   0  0  0  0  0  0
  -29.4886  -25.3369   19.0991 H   0  0  0  0  0  0
  -29.9008  -18.1372   20.2444 H   0  0  0  0  0  0
  -30.6237  -16.2333   19.7421 H   0  0  0  0  0  0
  1 25  1  0  0  0
  1 30  2  0  0  0
  1 87  1  0  0  0
  2  3  1  0  0  0
  2 25  1  0  0  0
  2 88  1  0  0  0
  2 89  1  0  0  0
  3  4  1  0  0  0
  3 90  1  0  0  0
  3 91  1  0  0  0
  4  5  1  0  0  0
  4 92  1  0  0  0
  4 93  1  0  0  0
  5  6  1  0  0  0
  5 26  1  0  0  0
  5 94  1  0  0  0
  6 25  1  0  0  0
  6 95  1  0  0  0
  6 96  1  0  0  0
  7  8  2  0  0  0
  7 26  1  0  0  0
  7 29  1  0  0  0
  8  9  1  0  0  0
  8 22  1  0  0  0
  9 10  1  0  0  0
  9 27  2  0  0  0
 10 11  2  0  0  0
 10 15  1  0  0  0
 11 12  1  0  0  0
 11 97  1  0  0  0
 12 13  2  0  0  0
 12 98  1  0  0  0
 13 14  1  0  0  0
 13 31  1  0  0  0
 14 15  2  0  0  0
 14 99  1  0  0  0
 15100  1  0  0  0
 16 17  2  0  0  0
 16 21  1  0  0  0
 16 31  1  0  0  0
 17 18  1  0  0  0
 17101  1  0  0  0
 18 19  2  0  0  0
 18102  1  0  0  0
 19 20  1  0  0  0
 19 24  1  0  0  0
 20 21  2  0  0  0
 20103  1  0  0  0
 21 23  1  0  0  0
 22 28  1  0  0  0
 22 32  2  0  0  0
 26 27  1  0  0  0
 28104  1  0  0  0
 28105  1  0  0  0
 29106  1  0  0  0
 29107  1  0  0  0
 33 34  1  0  0  0
 33 66  1  0  0  0
 33 70  2  0  0  0
 34 36  1  0  0  0
 34 59  1  0  0  0
 34108  1  0  0  0
 35 44  2  0  0  0
 35 45  1  0  0  0
 35 68  1  0  0  0
 36 56  1  0  0  0
 36109  1  0  0  0
 37 39  1  0  0  0
 37 47  1  0  0  0
 37 66  1  0  0  0
 37110  1  0  0  0
 38 43  2  0  0  0
 38 46  1  0  0  0
 38 47  1  0  0  0
 39 64  1  0  0  0
 39 67  2  0  0  0
 40 52  1  0  0  0
 40 53  2  0  0  0
 40 58  1  0  0  0
 41111  1  0  0  0
 41112  1  0  0  0
 41113  1  0  0  0
 41 48  1  0  0  0
 42 43  1  0  0  0
 42 66  1  0  0  0
 42114  1  0  0  0
 42115  1  0  0  0
 43 44  1  0  0  0
 44116  1  0  0  0
 45 46  2  0  0  0
 45117  1  0  0  0
 46118  1  0  0  0
 47119  1  0  0  0
 47120  1  0  0  0
 48 56  1  0  0  0
 48 65  1  0  0  0
 48121  1  0  0  0
 49 50  1  0  0  0
 49 53  1  0  0  0
 49 64  1  0  0  0
 49122  1  0  0  0
 50 51  1  0  0  0
 50123  1  0  0  0
 50124  1  0  0  0
 51 52  1  0  0  0
 51125  1  0  0  0
 51126  1  0  0  0
 52127  1  0  0  0
 52128  1  0  0  0
 53 54  1  0  0  0
 54 55  2  0  0  0
 54129  1  0  0  0
 55 57  1  0  0  0
 55130  1  0  0  0
 56 69  2  0  0  0
 57 58  2  0  0  0
 57131  1  0  0  0
 58132  1  0  0  0
 59 60  1  0  0  0
 59 61  1  0  0  0
 59 62  1  0  0  0
 60133  1  0  0  0
 60134  1  0  0  0
 60135  1  0  0  0
 61136  1  0  0  0
 61137  1  0  0  0
 61138  1  0  0  0
 62139  1  0  0  0
 62140  1  0  0  0
 62141  1  0  0  0
 63 65  1  0  0  0
 63142  1  0  0  0
 63143  1  0  0  0
 63144  1  0  0  0
 64145  1  0  0  0
 65146  1  0  0  0
 68 84  1  0  0  0
 71 72  2  0  0  0
 71 74  1  0  0  0
 71147  1  0  0  0
 72 73  1  0  0  0
 72 79  1  0  0  0
 73 75  2  0  0  0
 73 80  1  0  0  0
 74 85  1  0  0  0
 74 86  2  0  0  0
 75 76  1  0  0  0
 75 86  1  0  0  0
 76148  1  0  0  0
 76149  1  0  0  0
 76150  1  0  0  0
 77 80  1  0  0  0
 77151  1  0  0  0
 77152  1  0  0  0
 77153  1  0  0  0
 78154  1  0  0  0
 78155  1  0  0  0
 78156  1  0  0  0
 78 85  1  0  0  0
 79 81  1  0  0  0
 79157  1  0  0  0
 79158  1  0  0  0
 80159  1  0  0  0
 80160  1  0  0  0
 81 82  1  0  0  0
 81161  1  0  0  0
 81162  1  0  0  0
 82 84  1  0  0  0
 82163  1  0  0  0
 82164  1  0  0  0
 83 85  1  0  0  0
 83 87  1  0  0  0
 83165  1  0  0  0
 83166  1  0  0  0
 84167  1  0  0  0
 84168  1  0  0  0
 85169  1  0  0  0
 87170  1  0  0  0
M  ISO  4   1 100  68 101  84 101  87 100
M  END
> <chiral flag>
0

> <version>
0

> <s_m_source_file>
/data/baiqing/PycharmProjects/Reinvent-master-3.2/result/LINK_invent/BTK/process_docking_weight1_custom_sum_contain_oxygen_bond_distance_aromatic_linkinvent_7_9_3/rearranged_h_0089.sdf

> <i_m_source_file_index>
26

> <r_mmod_Potential_Energy-OPLS-2005>
-117.010795593262

> <r_mmod_Stretch_Energy-OPLS-2005>
38.9397277832031

> <r_mmod_Bend_Energy-OPLS-2005>
135.946884155273

> <r_mmod_Torsional_Energy-OPLS-2005>
272.937286376953

> <r_mmod_Improper_Torsional_Energy-OPLS-2005>
26.8673992156982

> <r_mmod_Van_der_Waal_Energy-OPLS-2005>
141.769577026367

> <r_mmod_Electrostatic_Energy-OPLS-2005>
-552.7529296875

> <r_mmod_Solvation_Energy-OPLS-2005>
-203.24919128418

> <b_mmod_Minimization_Converged-OPLS-2005>
0

> <r_mmod_RMS_Derivative-OPLS-2005>
2.86215877532959

$$$$
27
                    3D
 Structure written by MMmdl.
165172  0  0  1  0            999 V2000
  -30.6070  -14.6642   20.5167 C   0  0  0  0  0  0
  -30.4362  -12.4150   19.4569 C   0  0  0  0  0  0
  -29.5084  -12.5292   18.2261 C   0  0  0  0  0  0
  -28.0292  -12.3634   18.6311 C   0  0  0  0  0  0
  -27.6516  -13.2237   19.8670 C   0  0  2  0  0  0
  -28.6935  -13.0707   20.9939 C   0  0  0  0  0  0
  -25.2551  -13.8183   20.5663 C   0  0  0  0  0  0
  -24.1819  -13.0434   20.9183 C   0  0  0  0  0  0
  -24.6401  -11.6907   20.8728 C   0  0  0  0  0  0
  -23.9071  -10.4291   21.0421 C   0  0  0  0  0  0
  -24.3633   -9.4207   21.9195 C   0  0  0  0  0  0
  -23.6306   -8.2248   22.0753 C   0  0  0  0  0  0
  -22.4279   -8.0302   21.3545 C   0  0  0  0  0  0
  -21.9915   -9.0271   20.4639 C   0  0  0  0  0  0
  -22.7251  -10.2152   20.3059 C   0  0  0  0  0  0
  -21.6840   -6.0750   22.5276 C   0  0  0  0  0  0
  -21.4006   -6.5655   23.8211 C   0  0  0  0  0  0
  -21.3657   -5.6808   24.9176 C   0  0  0  0  0  0
  -21.6034   -4.3068   24.7220 C   0  0  0  0  0  0
  -21.8813   -3.8158   23.4338 C   0  0  0  0  0  0
  -21.9188   -4.6976   22.3398 C   0  0  0  0  0  0
  -22.7852  -13.5233   21.1874 C   0  0  0  0  0  0
  -22.1658   -4.2160   21.0973 F   0  0  0  0  0  0
  -21.5643   -3.4555   25.7739 F   0  0  0  0  0  0
  -30.0044  -13.4333   20.4396 N   0  0  0  0  0  0
  -26.2990  -12.9372   20.3322 N   0  0  0  0  0  0
  -25.9341  -11.6513   20.5744 N   0  0  0  0  0  0
  -22.0497  -12.8197   22.0428 N   0  0  0  0  0  0
  -25.4287  -15.1900   20.4057 N   0  0  0  0  0  0
  -31.7531  -14.8079   20.0826 O   0  0  0  0  0  0
  -21.6636   -6.8901   21.4238 O   0  0  0  0  0  0
  -22.3523  -14.5537   20.6752 O   0  0  0  0  0  0
  -24.6227  -31.8616   23.2049 C   0  0  0  0  0  0
  -25.9096  -32.4774   23.8359 C   0  0  1  0  0  0
  -27.2149  -27.3147   20.1254 C   0  0  0  0  0  0
  -25.5937  -33.8584   24.2278 N   0  0  0  0  0  0
  -23.4144  -30.4887   21.5482 C   0  0  2  0  0  0
  -24.8614  -28.9414   20.1136 C   0  0  0  0  0  0
  -22.7442  -29.4654   22.4966 C   0  0  0  0  0  0
  -18.0275  -28.1380   22.8471 C   0  0  0  0  0  0
  -24.1511  -36.7316   23.2639 C   0  0  0  0  0  0
  -25.9554  -30.7891   21.3793 C   0  0  0  0  0  0
  -26.0299  -29.4141   20.7281 C   0  0  0  0  0  0
  -27.2107  -28.6098   20.7298 C   0  0  0  0  0  0
  -26.0444  -26.9218   19.4471 C   0  0  0  0  0  0
  -24.8726  -27.7003   19.4612 C   0  0  0  0  0  0
  -23.6281  -29.8233   20.1629 C   0  0  0  0  0  0
  -25.4129  -36.3085   24.0322 C   0  0  1  0  0  0
  -20.5879  -28.3720   23.1270 C   0  0  2  0  0  0
  -20.6773  -26.9446   22.5406 C   0  0  0  0  0  0
  -19.5753  -26.6395   21.5204 C   0  0  0  0  0  0
  -18.1927  -26.7925   22.1612 C   0  0  0  0  0  0
  -19.1528  -28.8865   23.2873 C   0  0  0  0  0  0
  -18.9448  -30.1456   23.8907 C   0  0  0  0  0  0
  -17.6451  -30.6597   24.0566 C   0  0  0  0  0  0
  -25.9056  -34.9446   23.5102 C   0  0  0  0  0  0
  -16.5348  -29.9088   23.6322 C   0  0  0  0  0  0
  -16.7265  -28.6498   23.0354 C   0  0  0  0  0  0
  -26.4494  -31.6557   25.0706 C   0  0  0  0  0  0
  -25.3722  -31.3700   26.1421 C   0  0  0  0  0  0
  -27.0314  -30.2970   24.6140 C   0  0  0  0  0  0
  -27.6050  -32.4288   25.7473 C   0  0  0  0  0  0
  -27.5591  -37.1816   24.8457 C   0  0  0  0  0  0
  -21.4161  -29.3075   22.3669 N   0  0  0  0  0  0
  -26.4312  -37.3768   23.9390 N   0  0  0  0  0  0
  -24.6829  -31.0614   22.1028 N   0  0  0  0  0  0
  -23.4170  -28.8226   23.3076 O   0  0  0  0  0  0
  -28.3248  -26.4573   20.1023 O   0  0  0  0  0  0
  -26.5621  -34.8915   22.4657 O   0  0  0  0  0  0
  -23.5401  -32.1459   23.7378 O   0  0  0  0  0  0
  -26.5921  -22.5877   18.4665 C   0  0  0  0  0  0
  -30.2476  -22.7991   21.6570 C   0  0  0  0  0  0
  -31.3849  -18.6709   20.9672 C   0  0  0  0  0  0
  -29.8743  -15.9679   21.0585 C   0  0  0  0  0  0
  -26.8358  -23.3483   19.7787 C   0  0  0  0  0  0
  -29.2282  -21.1073   20.0743 C   0  0  0  0  0  0
  -29.5789  -17.1729   20.0403 C   0  0  0  0  0  0
  -29.1132  -19.6812   20.7902 C   0  0  0  0  0  0
  -28.2855  -25.1702   20.8515 C   0  0  0  0  0  0
  -28.9450  -22.4506   20.9061 C   0  0  1  0  0  0
  -28.3053  -23.7200   20.1254 C   0  0  1  0  0  0
  -30.0700  -18.6006   20.2965 N   0  3  1  0  0  0
  -31.4775  -12.5437   19.1543 H   0  0  0  0  0  0
  -30.3753  -11.4202   19.9009 H   0  0  0  0  0  0
  -29.7790  -11.7886   17.4727 H   0  0  0  0  0  0
  -29.6472  -13.5048   17.7551 H   0  0  0  0  0  0
  -27.8611  -11.3077   18.8475 H   0  0  0  0  0  0
  -27.3755  -12.6136   17.7946 H   0  0  0  0  0  0
  -27.6709  -14.2622   19.5381 H   0  0  0  0  0  0
  -28.7185  -12.0381   21.3470 H   0  0  0  0  0  0
  -28.4298  -13.6620   21.8695 H   0  0  0  0  0  0
  -25.2787   -9.5674   22.4758 H   0  0  0  0  0  0
  -24.0007   -7.4622   22.7458 H   0  0  0  0  0  0
  -21.0849   -8.8800   19.8935 H   0  0  0  0  0  0
  -22.3722  -10.9700   19.6164 H   0  0  0  0  0  0
  -21.1994   -7.6160   23.9714 H   0  0  0  0  0  0
  -21.1485   -6.0542   25.9079 H   0  0  0  0  0  0
  -22.0589   -2.7615   23.2836 H   0  0  0  0  0  0
  -22.4126  -11.9839   22.4754 H   0  0  0  0  0  0
  -21.1132  -13.1204   22.2683 H   0  0  0  0  0  0
  -24.6646  -15.8492   20.5026 H   0  0  0  0  0  0
  -26.2839  -15.6165   20.0740 H   0  0  0  0  0  0
  -26.7150  -32.5452   23.1101 H   0  0  0  0  0  0
  -25.0035  -33.9716   25.0396 H   0  0  0  0  0  0
  -22.7086  -31.3118   21.4087 H   0  0  0  0  0  0
  -23.3754  -35.9667   23.3291 H   0  0  0  0  0  0
  -24.3617  -36.8939   22.2055 H   0  0  0  0  0  0
  -23.7281  -37.6528   23.6660 H   0  0  0  0  0  0
  -26.0827  -31.5512   20.6107 H   0  0  0  0  0  0
  -26.8375  -30.8390   22.0051 H   0  0  0  0  0  0
  -28.1097  -28.9682   21.2138 H   0  0  0  0  0  0
  -26.0362  -26.0216   18.8590 H   0  0  0  0  0  0
  -23.9898  -27.3497   18.9443 H   0  0  0  0  0  0
  -23.7426  -30.6011   19.4060 H   0  0  0  0  0  0
  -22.7436  -29.2547   19.8652 H   0  0  0  0  0  0
  -25.1315  -36.1947   25.0816 H   0  0  0  0  0  0
  -20.9964  -28.3308   24.1401 H   0  0  0  0  0  0
  -20.5667  -26.2348   23.3618 H   0  0  0  0  0  0
  -21.6642  -26.7469   22.1223 H   0  0  0  0  0  0
  -19.6931  -25.6304   21.1235 H   0  0  0  0  0  0
  -19.6680  -27.3201   20.6730 H   0  0  0  0  0  0
  -17.4200  -26.6671   21.4014 H   0  0  0  0  0  0
  -18.0350  -26.0063   22.9009 H   0  0  0  0  0  0
  -19.7929  -30.7262   24.2296 H   0  0  0  0  0  0
  -17.5007  -31.6275   24.5176 H   0  0  0  0  0  0
  -15.5349  -30.3000   23.7637 H   0  0  0  0  0  0
  -15.8657  -28.0813   22.7079 H   0  0  0  0  0  0
  -24.5917  -30.7036   25.7745 H   0  0  0  0  0  0
  -24.8904  -32.2869   26.4816 H   0  0  0  0  0  0
  -25.8039  -30.8892   27.0206 H   0  0  0  0  0  0
  -26.2885  -29.6760   24.1114 H   0  0  0  0  0  0
  -27.3966  -29.7184   25.4639 H   0  0  0  0  0  0
  -27.8786  -30.4259   23.9391 H   0  0  0  0  0  0
  -27.2648  -33.3583   26.2055 H   0  0  0  0  0  0
  -28.3843  -32.6845   25.0280 H   0  0  0  0  0  0
  -28.0732  -31.8402   26.5370 H   0  0  0  0  0  0
  -28.2592  -38.0125   24.7478 H   0  0  0  0  0  0
  -28.1097  -36.2642   24.6308 H   0  0  0  0  0  0
  -27.2301  -37.1498   25.8860 H   0  0  0  0  0  0
  -20.9347  -29.8755   21.6833 H   0  0  0  0  0  0
  -26.0196  -38.2857   24.1339 H   0  0  0  0  0  0
  -25.6503  -22.9087   18.0175 H   0  0  0  0  0  0
  -26.4986  -21.5169   18.6423 H   0  0  0  0  0  0
  -27.3817  -22.7494   17.7319 H   0  0  0  0  0  0
  -30.0701  -23.4454   22.5171 H   0  0  0  0  0  0
  -30.9695  -23.2869   21.0016 H   0  0  0  0  0  0
  -30.7338  -21.9069   22.0565 H   0  0  0  0  0  0
  -31.2853  -18.4587   22.0316 H   0  0  0  0  0  0
  -31.8118  -19.6680   20.8676 H   0  0  0  0  0  0
  -32.0874  -17.9577   20.5354 H   0  0  0  0  0  0
  -28.9205  -15.7063   21.5146 H   0  0  0  0  0  0
  -30.4772  -16.3237   21.8911 H   0  0  0  0  0  0
  -26.3809  -22.7953   20.6004 H   0  0  0  0  0  0
  -26.2352  -24.2453   19.7472 H   0  0  0  0  0  0
  -30.2173  -21.2069   19.6310 H   0  0  0  0  0  0
  -28.5726  -21.0736   19.2083 H   0  0  0  0  0  0
  -28.5116  -17.2111   19.8219 H   0  0  0  0  0  0
  -30.0310  -16.8998   19.0868 H   0  0  0  0  0  0
  -28.0870  -19.3377   20.6730 H   0  0  0  0  0  0
  -29.2469  -19.7981   21.8659 H   0  0  0  0  0  0
  -29.1649  -25.2319   21.4904 H   0  0  0  0  0  0
  -27.4476  -25.1998   21.5501 H   0  0  0  0  0  0
  -28.2300  -22.1748   21.6809 H   0  0  0  0  0  0
  -28.8820  -23.8590   19.2065 H   0  0  0  0  0  0
  -30.2609  -18.9139   19.3549 H   0  0  0  0  0  0
  1 25  1  0  0  0
  1 30  2  0  0  0
  1 74  1  0  0  0
  2  3  1  0  0  0
  2 25  1  0  0  0
  2 83  1  0  0  0
  2 84  1  0  0  0
  3  4  1  0  0  0
  3 85  1  0  0  0
  3 86  1  0  0  0
  4  5  1  0  0  0
  4 87  1  0  0  0
  4 88  1  0  0  0
  5  6  1  0  0  0
  5 26  1  0  0  0
  5 89  1  0  0  0
  6 25  1  0  0  0
  6 90  1  0  0  0
  6 91  1  0  0  0
  7  8  2  0  0  0
  7 26  1  0  0  0
  7 29  1  0  0  0
  8  9  1  0  0  0
  8 22  1  0  0  0
  9 10  1  0  0  0
  9 27  2  0  0  0
 10 11  2  0  0  0
 10 15  1  0  0  0
 11 12  1  0  0  0
 11 92  1  0  0  0
 12 13  2  0  0  0
 12 93  1  0  0  0
 13 14  1  0  0  0
 13 31  1  0  0  0
 14 15  2  0  0  0
 14 94  1  0  0  0
 15 95  1  0  0  0
 16 17  2  0  0  0
 16 21  1  0  0  0
 16 31  1  0  0  0
 17 18  1  0  0  0
 17 96  1  0  0  0
 18 19  2  0  0  0
 18 97  1  0  0  0
 19 20  1  0  0  0
 19 24  1  0  0  0
 20 21  2  0  0  0
 20 98  1  0  0  0
 21 23  1  0  0  0
 22 28  1  0  0  0
 22 32  2  0  0  0
 26 27  1  0  0  0
 28 99  1  0  0  0
 28100  1  0  0  0
 29101  1  0  0  0
 29102  1  0  0  0
 33 34  1  0  0  0
 33 66  1  0  0  0
 33 70  2  0  0  0
 34 36  1  0  0  0
 34 59  1  0  0  0
 34103  1  0  0  0
 35 44  2  0  0  0
 35 45  1  0  0  0
 35 68  1  0  0  0
 36 56  1  0  0  0
 36104  1  0  0  0
 37 39  1  0  0  0
 37 47  1  0  0  0
 37 66  1  0  0  0
 37105  1  0  0  0
 38 43  2  0  0  0
 38 46  1  0  0  0
 38 47  1  0  0  0
 39 64  1  0  0  0
 39 67  2  0  0  0
 40 52  1  0  0  0
 40 53  2  0  0  0
 40 58  1  0  0  0
 41106  1  0  0  0
 41107  1  0  0  0
 41108  1  0  0  0
 41 48  1  0  0  0
 42 43  1  0  0  0
 42 66  1  0  0  0
 42109  1  0  0  0
 42110  1  0  0  0
 43 44  1  0  0  0
 44111  1  0  0  0
 45 46  2  0  0  0
 45112  1  0  0  0
 46113  1  0  0  0
 47114  1  0  0  0
 47115  1  0  0  0
 48 56  1  0  0  0
 48 65  1  0  0  0
 48116  1  0  0  0
 49 50  1  0  0  0
 49 53  1  0  0  0
 49 64  1  0  0  0
 49117  1  0  0  0
 50 51  1  0  0  0
 50118  1  0  0  0
 50119  1  0  0  0
 51 52  1  0  0  0
 51120  1  0  0  0
 51121  1  0  0  0
 52122  1  0  0  0
 52123  1  0  0  0
 53 54  1  0  0  0
 54 55  2  0  0  0
 54124  1  0  0  0
 55 57  1  0  0  0
 55125  1  0  0  0
 56 69  2  0  0  0
 57 58  2  0  0  0
 57126  1  0  0  0
 58127  1  0  0  0
 59 60  1  0  0  0
 59 61  1  0  0  0
 59 62  1  0  0  0
 60128  1  0  0  0
 60129  1  0  0  0
 60130  1  0  0  0
 61131  1  0  0  0
 61132  1  0  0  0
 61133  1  0  0  0
 62134  1  0  0  0
 62135  1  0  0  0
 62136  1  0  0  0
 63 65  1  0  0  0
 63137  1  0  0  0
 63138  1  0  0  0
 63139  1  0  0  0
 64140  1  0  0  0
 65141  1  0  0  0
 68 79  1  0  0  0
 71 75  1  0  0  0
 71142  1  0  0  0
 71143  1  0  0  0
 71144  1  0  0  0
 72145  1  0  0  0
 72146  1  0  0  0
 72147  1  0  0  0
 72 80  1  0  0  0
 73148  1  0  0  0
 73149  1  0  0  0
 73150  1  0  0  0
 73 82  1  0  0  0
 74 77  1  0  0  0
 74151  1  0  0  0
 74152  1  0  0  0
 75153  1  0  0  0
 75154  1  0  0  0
 75 81  1  0  0  0
 76 78  1  0  0  0
 76 80  1  0  0  0
 76155  1  0  0  0
 76156  1  0  0  0
 77 82  1  0  0  0
 77157  1  0  0  0
 77158  1  0  0  0
 78 82  1  0  0  0
 78159  1  0  0  0
 78160  1  0  0  0
 79 81  1  0  0  0
 79161  1  0  0  0
 79162  1  0  0  0
 80 81  1  0  0  0
 80163  1  0  0  0
 81164  1  0  0  0
 82165  1  0  0  0
M  CHG  1  82   1
M  ISO  4   1 100  68 101  74 100  79 101
M  END
> <chiral flag>
0

> <version>
0

> <s_m_source_file>
/data/baiqing/PycharmProjects/Reinvent-master-3.2/result/LINK_invent/BTK/process_docking_weight1_custom_sum_contain_oxygen_bond_distance_aromatic_linkinvent_7_9_3/rearranged_h_0089.sdf

> <i_m_source_file_index>
27

> <r_mmod_Potential_Energy-OPLS-2005>
93.1549301147461

> <r_mmod_Stretch_Energy-OPLS-2005>
101.466033935547

> <r_mmod_Bend_Energy-OPLS-2005>
176.371612548828

> <r_mmod_Torsional_Energy-OPLS-2005>
261.430358886719

> <r_mmod_Improper_Torsional_Energy-OPLS-2005>
2.5763201713562

> <r_mmod_Van_der_Waal_Energy-OPLS-2005>
124.892303466797

> <r_mmod_Electrostatic_Energy-OPLS-2005>
-201.37483215332

> <r_mmod_Solvation_Energy-OPLS-2005>
-423.155517578125

> <b_mmod_Minimization_Converged-OPLS-2005>
0

> <r_mmod_RMS_Derivative-OPLS-2005>
4.20142555236816

$$$$
28
                    3D
 Structure written by MMmdl.
164172  0  0  1  0            999 V2000
  -30.6917  -14.5030   20.5179 C   0  0  0  0  0  0
  -30.4249  -12.3099   19.4463 C   0  0  0  0  0  0
  -29.5101  -12.5104   18.2218 C   0  0  0  0  0  0
  -28.0265  -12.3792   18.6219 C   0  0  0  0  0  0
  -27.6625  -13.2169   19.8780 C   0  0  2  0  0  0
  -28.7048  -13.0235   21.0045 C   0  0  0  0  0  0
  -25.2585  -13.8165   20.5699 C   0  0  0  0  0  0
  -24.1849  -13.0424   20.9188 C   0  0  0  0  0  0
  -24.6418  -11.6898   20.8713 C   0  0  0  0  0  0
  -23.9073  -10.4280   21.0370 C   0  0  0  0  0  0
  -24.3627   -9.4209   21.9159 C   0  0  0  0  0  0
  -23.6296   -8.2247   22.0743 C   0  0  0  0  0  0
  -22.4275   -8.0279   21.3540 C   0  0  0  0  0  0
  -21.9913   -9.0250   20.4639 C   0  0  0  0  0  0
  -22.7243  -10.2128   20.3024 C   0  0  0  0  0  0
  -21.6850   -6.0728   22.5271 C   0  0  0  0  0  0
  -21.4018   -6.5621   23.8212 C   0  0  0  0  0  0
  -21.3673   -5.6786   24.9176 C   0  0  0  0  0  0
  -21.6050   -4.3044   24.7224 C   0  0  0  0  0  0
  -21.8824   -3.8143   23.4344 C   0  0  0  0  0  0
  -21.9203   -4.6961   22.3408 C   0  0  0  0  0  0
  -22.7876  -13.5216   21.1861 C   0  0  0  0  0  0
  -22.1658   -4.2157   21.0984 F   0  0  0  0  0  0
  -21.5647   -3.4529   25.7724 F   0  0  0  0  0  0
  -30.0352  -13.3136   20.4492 N   0  0  0  0  0  0
  -26.3034  -12.9358   20.3377 N   0  0  0  0  0  0
  -25.9353  -11.6497   20.5749 N   0  0  0  0  0  0
  -22.0515  -12.8203   22.0400 N   0  0  0  0  0  0
  -25.4276  -15.1897   20.4118 N   0  0  0  0  0  0
  -31.8510  -14.6414   20.1158 O   0  0  0  0  0  0
  -21.6648   -6.8870   21.4227 O   0  0  0  0  0  0
  -22.3544  -14.5518   20.6709 O   0  0  0  0  0  0
  -24.6137  -31.8700   23.2086 C   0  0  0  0  0  0
  -25.9037  -32.4835   23.8390 C   0  0  1  0  0  0
  -27.2195  -27.4292   20.1060 C   0  0  0  0  0  0
  -25.5880  -33.8634   24.2330 N   0  0  0  0  0  0
  -23.4005  -30.4932   21.5505 C   0  0  2  0  0  0
  -24.8436  -28.9565   20.1141 C   0  0  0  0  0  0
  -22.7403  -29.4682   22.5003 C   0  0  0  0  0  0
  -18.0271  -28.1363   22.8501 C   0  0  0  0  0  0
  -24.1482  -36.7324   23.2644 C   0  0  0  0  0  0
  -25.9285  -30.8374   21.3566 C   0  0  0  0  0  0
  -26.0050  -29.4707   20.7046 C   0  0  0  0  0  0
  -27.2019  -28.7176   20.6873 C   0  0  0  0  0  0
  -26.0443  -26.9289   19.5091 C   0  0  0  0  0  0
  -24.8590  -27.6868   19.5103 C   0  0  0  0  0  0
  -23.6024  -29.8192   20.1667 C   0  0  0  0  0  0
  -25.4103  -36.3132   24.0346 C   0  0  1  0  0  0
  -20.5866  -28.3664   23.1320 C   0  0  2  0  0  0
  -20.6759  -26.9398   22.5421 C   0  0  0  0  0  0
  -19.5738  -26.6369   21.5220 C   0  0  0  0  0  0
  -18.1916  -26.7914   22.1621 C   0  0  0  0  0  0
  -19.1524  -28.8827   23.2911 C   0  0  0  0  0  0
  -18.9445  -30.1427   23.8930 C   0  0  0  0  0  0
  -17.6450  -30.6582   24.0563 C   0  0  0  0  0  0
  -25.9026  -34.9492   23.5140 C   0  0  0  0  0  0
  -16.5340  -29.9082   23.6330 C   0  0  0  0  0  0
  -16.7262  -28.6484   23.0375 C   0  0  0  0  0  0
  -26.4450  -31.6618   25.0726 C   0  0  0  0  0  0
  -25.3680  -31.3729   26.1440 C   0  0  0  0  0  0
  -27.0314  -30.3073   24.6129 C   0  0  0  0  0  0
  -27.6041  -32.4334   25.7478 C   0  0  0  0  0  0
  -27.5589  -37.1817   24.8462 C   0  0  0  0  0  0
  -21.4131  -29.3051   22.3733 N   0  0  0  0  0  0
  -26.4306  -37.3806   23.9401 N   0  0  0  0  0  0
  -24.6666  -31.0804   22.0969 N   0  0  0  0  0  0
  -23.4185  -28.8234   23.3047 O   0  0  0  0  0  0
  -28.3702  -26.6758   20.1041 O   0  0  0  0  0  0
  -26.5609  -34.8944   22.4715 O   0  0  0  0  0  0
  -23.5334  -32.1452   23.7480 O   0  0  0  0  0  0
  -29.4438  -21.7645   20.2602 C   0  0  0  0  0  0
  -31.7095  -22.7849   21.4111 C   0  0  0  0  0  0
  -30.4873  -20.8517   20.5749 C   0  0  0  0  0  0
  -31.6635  -21.4020   21.1544 C   0  0  0  0  0  0
  -29.6187  -23.1534   20.4794 C   0  0  0  0  0  0
  -32.9263  -20.6024   21.4492 C   0  0  0  0  0  0
  -31.0856  -18.0417   22.1581 C   0  0  0  0  0  0
  -28.6679  -18.3434   21.6104 C   0  0  0  0  0  0
  -30.4090  -19.3968   20.0583 C   0  0  0  0  0  0
  -28.6923  -24.2101   19.8556 C   0  0  0  0  0  0
  -30.1284  -16.8958   20.1139 C   0  0  0  0  0  0
  -28.2825  -25.3979   20.7707 C   0  0  0  0  0  0
  -30.0754  -18.1817   21.0052 C   0  0  0  0  0  0
  -30.7360  -23.6397   21.0561 N   0  0  0  0  0  0
  -29.9202  -15.5828   20.7689 N   0  0  0  0  0  0
  -31.4723  -12.3923   19.1528 H   0  0  0  0  0  0
  -30.3088  -11.3044   19.8533 H   0  0  0  0  0  0
  -29.7575  -11.7853   17.4470 H   0  0  0  0  0  0
  -29.6924  -13.4944   17.7850 H   0  0  0  0  0  0
  -27.8278  -11.3237   18.8072 H   0  0  0  0  0  0
  -27.3890  -12.6645   17.7844 H   0  0  0  0  0  0
  -27.6914  -14.2629   19.5724 H   0  0  0  0  0  0
  -28.6789  -11.9994   21.3746 H   0  0  0  0  0  0
  -28.4778  -13.6577   21.8632 H   0  0  0  0  0  0
  -25.2775   -9.5699   22.4740 H   0  0  0  0  0  0
  -24.0028   -7.4638   22.7444 H   0  0  0  0  0  0
  -21.0860   -8.8740   19.8937 H   0  0  0  0  0  0
  -22.3676  -10.9663   19.6135 H   0  0  0  0  0  0
  -21.1972   -7.6114   23.9707 H   0  0  0  0  0  0
  -21.1503   -6.0509   25.9081 H   0  0  0  0  0  0
  -22.0590   -2.7602   23.2840 H   0  0  0  0  0  0
  -22.4119  -11.9868   22.4811 H   0  0  0  0  0  0
  -21.1110  -13.1222   22.2551 H   0  0  0  0  0  0
  -24.6590  -15.8431   20.5176 H   0  0  0  0  0  0
  -26.2787  -15.6368   20.0974 H   0  0  0  0  0  0
  -26.7112  -32.5556   23.1165 H   0  0  0  0  0  0
  -25.0001  -33.9778   25.0451 H   0  0  0  0  0  0
  -22.6908  -31.3116   21.4125 H   0  0  0  0  0  0
  -23.3755  -35.9647   23.3310 H   0  0  0  0  0  0
  -24.3592  -36.8934   22.2062 H   0  0  0  0  0  0
  -23.7214  -37.6524   23.6648 H   0  0  0  0  0  0
  -26.0399  -31.6046   20.5874 H   0  0  0  0  0  0
  -26.8173  -30.8938   21.9735 H   0  0  0  0  0  0
  -28.1038  -29.1130   21.1332 H   0  0  0  0  0  0
  -26.0410  -25.9541   19.0426 H   0  0  0  0  0  0
  -23.9631  -27.2884   19.0547 H   0  0  0  0  0  0
  -23.6960  -30.5905   19.4006 H   0  0  0  0  0  0
  -22.7275  -29.2291   19.8842 H   0  0  0  0  0  0
  -25.1279  -36.2021   25.0843 H   0  0  0  0  0  0
  -20.9968  -28.3226   24.1435 H   0  0  0  0  0  0
  -20.5661  -26.2276   23.3610 H   0  0  0  0  0  0
  -21.6628  -26.7434   22.1219 H   0  0  0  0  0  0
  -19.6899  -25.6281   21.1251 H   0  0  0  0  0  0
  -19.6679  -27.3180   20.6754 H   0  0  0  0  0  0
  -17.4193  -26.6699   21.4006 H   0  0  0  0  0  0
  -18.0294  -26.0031   22.8987 H   0  0  0  0  0  0
  -19.7922  -30.7232   24.2322 H   0  0  0  0  0  0
  -17.5005  -31.6274   24.5142 H   0  0  0  0  0  0
  -15.5341  -30.2995   23.7619 H   0  0  0  0  0  0
  -15.8657  -28.0785   22.7117 H   0  0  0  0  0  0
  -24.5847  -30.7107   25.7728 H   0  0  0  0  0  0
  -24.8859  -32.2887   26.4883 H   0  0  0  0  0  0
  -25.7962  -30.8866   27.0211 H   0  0  0  0  0  0
  -26.2894  -29.6813   24.1156 H   0  0  0  0  0  0
  -27.4067  -29.7339   25.4620 H   0  0  0  0  0  0
  -27.8722  -30.4423   23.9318 H   0  0  0  0  0  0
  -27.2692  -33.3631   26.2096 H   0  0  0  0  0  0
  -28.3814  -32.6904   25.0266 H   0  0  0  0  0  0
  -28.0754  -31.8429   26.5345 H   0  0  0  0  0  0
  -28.2614  -38.0111   24.7531 H   0  0  0  0  0  0
  -28.1086  -36.2652   24.6265 H   0  0  0  0  0  0
  -27.2319  -37.1443   25.8870 H   0  0  0  0  0  0
  -20.9276  -29.8780   21.6961 H   0  0  0  0  0  0
  -26.0212  -38.2901   24.1369 H   0  0  0  0  0  0
  -28.5560  -21.4184   19.7454 H   0  0  0  0  0  0
  -32.5885  -23.2365   21.8481 H   0  0  0  0  0  0
  -33.8023  -21.2522   21.4007 H   0  0  0  0  0  0
  -33.0940  -19.8020   20.7319 H   0  0  0  0  0  0
  -32.9037  -20.1813   22.4535 H   0  0  0  0  0  0
  -31.0582  -18.9073   22.8177 H   0  0  0  0  0  0
  -32.1015  -17.9252   21.7796 H   0  0  0  0  0  0
  -30.8765  -17.1707   22.7796 H   0  0  0  0  0  0
  -28.5921  -19.2549   22.2056 H   0  0  0  0  0  0
  -28.4210  -17.5098   22.2691 H   0  0  0  0  0  0
  -27.8992  -18.3926   20.8381 H   0  0  0  0  0  0
  -31.3462  -19.1969   19.5391 H   0  0  0  0  0  0
  -29.6746  -19.3982   19.2531 H   0  0  0  0  0  0
  -27.7907  -23.7270   19.4752 H   0  0  0  0  0  0
  -29.2055  -24.5994   18.9770 H   0  0  0  0  0  0
  -31.0680  -16.8940   19.5588 H   0  0  0  0  0  0
  -29.3618  -16.9731   19.3396 H   0  0  0  0  0  0
  -28.9630  -25.4738   21.6165 H   0  0  0  0  0  0
  -27.3025  -25.2097   21.2125 H   0  0  0  0  0  0
  -28.9902  -15.3913   21.1100 H   0  0  0  0  0  0
  1 25  1  0  0  0
  1 30  2  0  0  0
  1 85  1  0  0  0
  2  3  1  0  0  0
  2 25  1  0  0  0
  2 86  1  0  0  0
  2 87  1  0  0  0
  3  4  1  0  0  0
  3 88  1  0  0  0
  3 89  1  0  0  0
  4  5  1  0  0  0
  4 90  1  0  0  0
  4 91  1  0  0  0
  5  6  1  0  0  0
  5 26  1  0  0  0
  5 92  1  0  0  0
  6 25  1  0  0  0
  6 93  1  0  0  0
  6 94  1  0  0  0
  7  8  2  0  0  0
  7 26  1  0  0  0
  7 29  1  0  0  0
  8  9  1  0  0  0
  8 22  1  0  0  0
  9 10  1  0  0  0
  9 27  2  0  0  0
 10 11  2  0  0  0
 10 15  1  0  0  0
 11 12  1  0  0  0
 11 95  1  0  0  0
 12 13  2  0  0  0
 12 96  1  0  0  0
 13 14  1  0  0  0
 13 31  1  0  0  0
 14 15  2  0  0  0
 14 97  1  0  0  0
 15 98  1  0  0  0
 16 17  2  0  0  0
 16 21  1  0  0  0
 16 31  1  0  0  0
 17 18  1  0  0  0
 17 99  1  0  0  0
 18 19  2  0  0  0
 18100  1  0  0  0
 19 20  1  0  0  0
 19 24  1  0  0  0
 20 21  2  0  0  0
 20101  1  0  0  0
 21 23  1  0  0  0
 22 28  1  0  0  0
 22 32  2  0  0  0
 26 27  1  0  0  0
 28102  1  0  0  0
 28103  1  0  0  0
 29104  1  0  0  0
 29105  1  0  0  0
 33 34  1  0  0  0
 33 66  1  0  0  0
 33 70  2  0  0  0
 34 36  1  0  0  0
 34 59  1  0  0  0
 34106  1  0  0  0
 35 44  2  0  0  0
 35 45  1  0  0  0
 35 68  1  0  0  0
 36 56  1  0  0  0
 36107  1  0  0  0
 37 39  1  0  0  0
 37 47  1  0  0  0
 37 66  1  0  0  0
 37108  1  0  0  0
 38 43  2  0  0  0
 38 46  1  0  0  0
 38 47  1  0  0  0
 39 64  1  0  0  0
 39 67  2  0  0  0
 40 52  1  0  0  0
 40 53  2  0  0  0
 40 58  1  0  0  0
 41109  1  0  0  0
 41110  1  0  0  0
 41111  1  0  0  0
 41 48  1  0  0  0
 42 43  1  0  0  0
 42 66  1  0  0  0
 42112  1  0  0  0
 42113  1  0  0  0
 43 44  1  0  0  0
 44114  1  0  0  0
 45 46  2  0  0  0
 45115  1  0  0  0
 46116  1  0  0  0
 47117  1  0  0  0
 47118  1  0  0  0
 48 56  1  0  0  0
 48 65  1  0  0  0
 48119  1  0  0  0
 49 50  1  0  0  0
 49 53  1  0  0  0
 49 64  1  0  0  0
 49120  1  0  0  0
 50 51  1  0  0  0
 50121  1  0  0  0
 50122  1  0  0  0
 51 52  1  0  0  0
 51123  1  0  0  0
 51124  1  0  0  0
 52125  1  0  0  0
 52126  1  0  0  0
 53 54  1  0  0  0
 54 55  2  0  0  0
 54127  1  0  0  0
 55 57  1  0  0  0
 55128  1  0  0  0
 56 69  2  0  0  0
 57 58  2  0  0  0
 57129  1  0  0  0
 58130  1  0  0  0
 59 60  1  0  0  0
 59 61  1  0  0  0
 59 62  1  0  0  0
 60131  1  0  0  0
 60132  1  0  0  0
 60133  1  0  0  0
 61134  1  0  0  0
 61135  1  0  0  0
 61136  1  0  0  0
 62137  1  0  0  0
 62138  1  0  0  0
 62139  1  0  0  0
 63 65  1  0  0  0
 63140  1  0  0  0
 63141  1  0  0  0
 63142  1  0  0  0
 64143  1  0  0  0
 65144  1  0  0  0
 68 82  1  0  0  0
 71 73  2  0  0  0
 71 75  1  0  0  0
 71145  1  0  0  0
 72 74  2  0  0  0
 72 84  1  0  0  0
 72146  1  0  0  0
 73 74  1  0  0  0
 73 79  1  0  0  0
 74 76  1  0  0  0
 75 80  1  0  0  0
 75 84  2  0  0  0
 76147  1  0  0  0
 76148  1  0  0  0
 76149  1  0  0  0
 77150  1  0  0  0
 77151  1  0  0  0
 77152  1  0  0  0
 77 83  1  0  0  0
 78 83  1  0  0  0
 78153  1  0  0  0
 78154  1  0  0  0
 78155  1  0  0  0
 79 83  1  0  0  0
 79156  1  0  0  0
 79157  1  0  0  0
 80 82  1  0  0  0
 80158  1  0  0  0
 80159  1  0  0  0
 81 83  1  0  0  0
 81 85  1  0  0  0
 81160  1  0  0  0
 81161  1  0  0  0
 82162  1  0  0  0
 82163  1  0  0  0
 85164  1  0  0  0
M  ISO  4   1 100  68 101  82 101  85 100
M  END
> <chiral flag>
0

> <version>
0

> <s_m_source_file>
/data/baiqing/PycharmProjects/Reinvent-master-3.2/result/LINK_invent/BTK/process_docking_weight1_custom_sum_contain_oxygen_bond_distance_aromatic_linkinvent_7_9_3/rearranged_h_0089.sdf

> <i_m_source_file_index>
28

> <r_mmod_Potential_Energy-OPLS-2005>
-130.712295532227

> <r_mmod_Stretch_Energy-OPLS-2005>
43.8920783996582

> <r_mmod_Bend_Energy-OPLS-2005>
115.5419921875

> <r_mmod_Torsional_Energy-OPLS-2005>
260.379089355469

> <r_mmod_Improper_Torsional_Energy-OPLS-2005>
11.4081439971924

> <r_mmod_Van_der_Waal_Energy-OPLS-2005>
154.788772583008

> <r_mmod_Electrostatic_Energy-OPLS-2005>
-514.75732421875

> <r_mmod_Solvation_Energy-OPLS-2005>
-218.763198852539

> <b_mmod_Minimization_Converged-OPLS-2005>
0

> <r_mmod_RMS_Derivative-OPLS-2005>
2.82814407348633

$$$$
29
                    3D
 Structure written by MMmdl.
182190  0  0  1  0            999 V2000
  -30.7011  -14.5491   20.5851 C   0  0  0  0  0  0
  -30.4247  -12.3613   19.4368 C   0  0  0  0  0  0
  -29.5002  -12.5290   18.2126 C   0  0  0  0  0  0
  -28.0207  -12.3775   18.6177 C   0  0  0  0  0  0
  -27.6583  -13.2196   19.8710 C   0  0  2  0  0  0
  -28.6995  -13.0300   20.9952 C   0  0  0  0  0  0
  -25.2574  -13.8185   20.5688 C   0  0  0  0  0  0
  -24.1842  -13.0442   20.9181 C   0  0  0  0  0  0
  -24.6424  -11.6914   20.8726 C   0  0  0  0  0  0
  -23.9088  -10.4295   21.0389 C   0  0  0  0  0  0
  -24.3637   -9.4209   21.9172 C   0  0  0  0  0  0
  -23.6315   -8.2240   22.0745 C   0  0  0  0  0  0
  -22.4291   -8.0277   21.3541 C   0  0  0  0  0  0
  -21.9929   -9.0249   20.4637 C   0  0  0  0  0  0
  -22.7260  -10.2132   20.3043 C   0  0  0  0  0  0
  -21.6848   -6.0746   22.5288 C   0  0  0  0  0  0
  -21.4005   -6.5651   23.8219 C   0  0  0  0  0  0
  -21.3663   -5.6804   24.9184 C   0  0  0  0  0  0
  -21.6039   -4.3067   24.7231 C   0  0  0  0  0  0
  -21.8816   -3.8160   23.4353 C   0  0  0  0  0  0
  -21.9192   -4.6975   22.3412 C   0  0  0  0  0  0
  -22.7865  -13.5229   21.1848 C   0  0  0  0  0  0
  -22.1656   -4.2167   21.0987 F   0  0  0  0  0  0
  -21.5640   -3.4551   25.7740 F   0  0  0  0  0  0
  -30.0244  -13.3634   20.4470 N   0  0  0  0  0  0
  -26.3019  -12.9377   20.3351 N   0  0  0  0  0  0
  -25.9352  -11.6524   20.5748 N   0  0  0  0  0  0
  -22.0512  -12.8207   22.0398 N   0  0  0  0  0  0
  -25.4298  -15.1910   20.4117 N   0  0  0  0  0  0
  -31.8021  -14.7182   20.0525 O   0  0  0  0  0  0
  -21.6650   -6.8879   21.4246 O   0  0  0  0  0  0
  -22.3535  -14.5532   20.6705 O   0  0  0  0  0  0
  -24.6164  -31.8634   23.2052 C   0  0  0  0  0  0
  -25.9041  -32.4804   23.8353 C   0  0  1  0  0  0
  -27.2363  -27.3842   20.0937 C   0  0  0  0  0  0
  -25.5890  -33.8598   24.2289 N   0  0  0  0  0  0
  -23.4064  -30.4854   21.5463 C   0  0  2  0  0  0
  -24.8544  -28.9427   20.1090 C   0  0  0  0  0  0
  -22.7405  -29.4647   22.4969 C   0  0  0  0  0  0
  -18.0276  -28.1368   22.8512 C   0  0  0  0  0  0
  -24.1491  -36.7300   23.2641 C   0  0  0  0  0  0
  -25.9392  -30.8107   21.3667 C   0  0  0  0  0  0
  -26.0143  -29.4406   20.7131 C   0  0  0  0  0  0
  -27.2023  -28.6667   20.7064 C   0  0  0  0  0  0
  -26.0570  -26.9162   19.4724 C   0  0  0  0  0  0
  -24.8745  -27.6826   19.4849 C   0  0  0  0  0  0
  -23.6147  -29.8113   20.1624 C   0  0  0  0  0  0
  -25.4120  -36.3101   24.0333 C   0  0  1  0  0  0
  -20.5865  -28.3670   23.1312 C   0  0  2  0  0  0
  -20.6765  -26.9403   22.5410 C   0  0  0  0  0  0
  -19.5748  -26.6384   21.5205 C   0  0  0  0  0  0
  -18.1930  -26.7922   22.1623 C   0  0  0  0  0  0
  -19.1527  -28.8837   23.2915 C   0  0  0  0  0  0
  -18.9450  -30.1437   23.8931 C   0  0  0  0  0  0
  -17.6450  -30.6582   24.0572 C   0  0  0  0  0  0
  -25.9049  -34.9465   23.5119 C   0  0  0  0  0  0
  -16.5344  -29.9080   23.6324 C   0  0  0  0  0  0
  -16.7263  -28.6486   23.0374 C   0  0  0  0  0  0
  -26.4469  -31.6597   25.0683 C   0  0  0  0  0  0
  -25.3716  -31.3657   26.1405 C   0  0  0  0  0  0
  -27.0326  -30.3069   24.6061 C   0  0  0  0  0  0
  -27.6060  -32.4304   25.7440 C   0  0  0  0  0  0
  -27.5585  -37.1807   24.8466 C   0  0  0  0  0  0
  -21.4131  -29.3038   22.3713 N   0  0  0  0  0  0
  -26.4304  -37.3787   23.9398 N   0  0  0  0  0  0
  -24.6725  -31.0683   22.0978 N   0  0  0  0  0  0
  -23.4161  -28.8190   23.3031 O   0  0  0  0  0  0
  -28.4079  -26.6390   20.1428 O   0  0  0  0  0  0
  -26.5628  -34.8925   22.4692 O   0  0  0  0  0  0
  -23.5346  -32.1418   23.7423 O   0  0  0  0  0  0
  -29.9634  -23.2700   22.1336 C   0  0  0  0  0  0
  -30.7605  -22.9609   23.2441 C   0  0  0  0  0  0
  -29.5383  -22.2610   21.2401 C   0  0  0  0  0  0
  -31.1702  -21.6268   23.4073 C   0  0  0  0  0  0
  -30.0107  -20.9203   21.4845 C   0  0  0  0  0  0
  -32.0009  -21.1732   24.5922 C   0  0  0  0  0  0
  -28.3189  -27.2433   27.0329 C   0  0  0  0  0  0
  -29.2874  -25.2879   28.3035 C   0  0  0  0  0  0
  -29.9798  -15.6596   22.6113 C   0  0  0  0  0  0
  -31.1095  -24.0722   24.2251 C   0  0  0  0  0  0
  -28.6046  -22.6905   20.0829 C   0  0  0  0  0  0
  -29.7804  -19.6683   20.5837 C   0  0  0  0  0  0
  -30.0521  -24.2100   25.3356 C   0  0  0  0  0  0
  -27.8815  -24.0960   20.2157 C   0  0  0  0  0  0
  -29.7968  -18.2584   21.3186 C   0  0  0  0  0  0
  -29.9022  -25.6490   25.8565 C   0  0  0  0  0  0
  -29.9492  -16.9484   20.4430 C   0  0  0  0  0  0
  -28.5429  -25.3337   19.5140 C   0  0  0  0  0  0
  -28.8085  -25.7926   26.9335 C   0  0  0  0  0  0
  -30.8324  -20.6632   22.5304 N   0  0  0  0  0  0
  -30.0365  -15.6126   21.1441 N   0  0  0  0  0  0
  -31.4701  -12.4616   19.1357 H   0  0  0  0  0  0
  -30.3324  -11.3545   19.8465 H   0  0  0  0  0  0
  -29.7539  -11.7994   17.4426 H   0  0  0  0  0  0
  -29.6605  -13.5122   17.7654 H   0  0  0  0  0  0
  -27.8349  -11.3211   18.8115 H   0  0  0  0  0  0
  -27.3741  -12.6518   17.7836 H   0  0  0  0  0  0
  -27.6926  -14.2666   19.5685 H   0  0  0  0  0  0
  -28.6962  -11.9963   21.3456 H   0  0  0  0  0  0
  -28.4349  -13.6361   21.8595 H   0  0  0  0  0  0
  -25.2780   -9.5701   22.4752 H   0  0  0  0  0  0
  -24.0033   -7.4633   22.7464 H   0  0  0  0  0  0
  -21.0859   -8.8754   19.8947 H   0  0  0  0  0  0
  -22.3700  -10.9663   19.6150 H   0  0  0  0  0  0
  -21.1972   -7.6158   23.9734 H   0  0  0  0  0  0
  -21.1494   -6.0535   25.9094 H   0  0  0  0  0  0
  -22.0589   -2.7624   23.2855 H   0  0  0  0  0  0
  -22.4122  -11.9864   22.4790 H   0  0  0  0  0  0
  -21.1108  -13.1196   22.2565 H   0  0  0  0  0  0
  -24.6724  -15.8541   20.5333 H   0  0  0  0  0  0
  -26.2979  -15.6298   20.1319 H   0  0  0  0  0  0
  -26.7096  -32.5487   23.1094 H   0  0  0  0  0  0
  -25.0023  -33.9765   25.0428 H   0  0  0  0  0  0
  -22.6981  -31.3046   21.4034 H   0  0  0  0  0  0
  -23.3758  -35.9626   23.3303 H   0  0  0  0  0  0
  -24.3594  -36.8918   22.2056 H   0  0  0  0  0  0
  -23.7229  -37.6498   23.6665 H   0  0  0  0  0  0
  -26.0563  -31.5743   20.5966 H   0  0  0  0  0  0
  -26.8256  -30.8660   21.9859 H   0  0  0  0  0  0
  -28.0943  -29.0456   21.1861 H   0  0  0  0  0  0
  -26.0299  -25.9566   18.9792 H   0  0  0  0  0  0
  -23.9847  -27.2954   19.0072 H   0  0  0  0  0  0
  -23.7136  -30.5824   19.3976 H   0  0  0  0  0  0
  -22.7390  -29.2261   19.8744 H   0  0  0  0  0  0
  -25.1300  -36.1973   25.0828 H   0  0  0  0  0  0
  -20.9981  -28.3231   24.1423 H   0  0  0  0  0  0
  -20.5658  -26.2274   23.3597 H   0  0  0  0  0  0
  -21.6636  -26.7445   22.1203 H   0  0  0  0  0  0
  -19.6913  -25.6297   21.1227 H   0  0  0  0  0  0
  -19.6688  -27.3200   20.6740 H   0  0  0  0  0  0
  -17.4199  -26.6695   21.4021 H   0  0  0  0  0  0
  -18.0340  -26.0036   22.8992 H   0  0  0  0  0  0
  -19.7921  -30.7250   24.2318 H   0  0  0  0  0  0
  -17.5001  -31.6272   24.5149 H   0  0  0  0  0  0
  -15.5347  -30.3001   23.7612 H   0  0  0  0  0  0
  -15.8661  -28.0790   22.7111 H   0  0  0  0  0  0
  -24.5949  -30.6959   25.7694 H   0  0  0  0  0  0
  -24.8822  -32.2773   26.4837 H   0  0  0  0  0  0
  -25.8045  -30.8823   27.0168 H   0  0  0  0  0  0
  -26.2859  -29.6740   24.1244 H   0  0  0  0  0  0
  -27.4236  -29.7445   25.4529 H   0  0  0  0  0  0
  -27.8630  -30.4401   23.9126 H   0  0  0  0  0  0
  -27.2730  -33.3632   26.2000 H   0  0  0  0  0  0
  -28.3871  -32.6799   25.0245 H   0  0  0  0  0  0
  -28.0721  -31.8412   26.5349 H   0  0  0  0  0  0
  -28.2605  -38.0103   24.7523 H   0  0  0  0  0  0
  -28.1082  -36.2637   24.6291 H   0  0  0  0  0  0
  -27.2302  -37.1442   25.8870 H   0  0  0  0  0  0
  -20.9289  -29.8743   21.6922 H   0  0  0  0  0  0
  -26.0191  -38.2865   24.1392 H   0  0  0  0  0  0
  -29.6714  -24.3011   22.0043 H   0  0  0  0  0  0
  -31.5320  -21.4803   25.5270 H   0  0  0  0  0  0
  -33.0013  -21.6027   24.5489 H   0  0  0  0  0  0
  -32.1004  -20.0878   24.6142 H   0  0  0  0  0  0
  -27.5308  -27.3464   27.7797 H   0  0  0  0  0  0
  -27.9055  -27.5771   26.0811 H   0  0  0  0  0  0
  -29.1278  -27.9233   27.3029 H   0  0  0  0  0  0
  -28.4992  -25.3737   29.0521 H   0  0  0  0  0  0
  -30.1434  -25.8628   28.6588 H   0  0  0  0  0  0
  -29.5843  -24.2401   28.2682 H   0  0  0  0  0  0
  -29.0436  -16.0992   22.9544 H   0  0  0  0  0  0
  -30.8091  -16.2451   23.0098 H   0  0  0  0  0  0
  -30.0593  -14.6734   23.0711 H   0  0  0  0  0  0
  -31.1765  -25.0066   23.6641 H   0  0  0  0  0  0
  -32.1008  -23.9245   24.6545 H   0  0  0  0  0  0
  -27.8261  -21.9303   20.0227 H   0  0  0  0  0  0
  -29.1435  -22.6305   19.1370 H   0  0  0  0  0  0
  -30.5616  -19.6823   19.8227 H   0  0  0  0  0  0
  -28.8391  -19.7802   20.0468 H   0  0  0  0  0  0
  -30.2792  -23.5185   26.1471 H   0  0  0  0  0  0
  -29.0808  -23.9045   24.9446 H   0  0  0  0  0  0
  -27.6387  -24.3172   21.2550 H   0  0  0  0  0  0
  -26.9028  -23.9841   19.7506 H   0  0  0  0  0  0
  -28.9054  -18.1912   21.9426 H   0  0  0  0  0  0
  -30.6443  -18.2496   22.0009 H   0  0  0  0  0  0
  -29.6538  -26.2894   25.0077 H   0  0  0  0  0  0
  -30.8554  -26.0177   26.2383 H   0  0  0  0  0  0
  -30.8270  -17.0771   19.8080 H   0  0  0  0  0  0
  -29.1039  -16.8910   19.7557 H   0  0  0  0  0  0
  -28.2321  -25.3882   18.4702 H   0  0  0  0  0  0
  -29.6170  -25.1511   19.4698 H   0  0  0  0  0  0
  -27.9485  -25.1899   26.6332 H   0  0  0  0  0  0
  1 25  1  0  0  0
  1 30  2  0  0  0
  1 91  1  0  0  0
  2  3  1  0  0  0
  2 25  1  0  0  0
  2 92  1  0  0  0
  2 93  1  0  0  0
  3  4  1  0  0  0
  3 94  1  0  0  0
  3 95  1  0  0  0
  4  5  1  0  0  0
  4 96  1  0  0  0
  4 97  1  0  0  0
  5  6  1  0  0  0
  5 26  1  0  0  0
  5 98  1  0  0  0
  6 25  1  0  0  0
  6 99  1  0  0  0
  6100  1  0  0  0
  7  8  2  0  0  0
  7 26  1  0  0  0
  7 29  1  0  0  0
  8  9  1  0  0  0
  8 22  1  0  0  0
  9 10  1  0  0  0
  9 27  2  0  0  0
 10 11  2  0  0  0
 10 15  1  0  0  0
 11 12  1  0  0  0
 11101  1  0  0  0
 12 13  2  0  0  0
 12102  1  0  0  0
 13 14  1  0  0  0
 13 31  1  0  0  0
 14 15  2  0  0  0
 14103  1  0  0  0
 15104  1  0  0  0
 16 17  2  0  0  0
 16 21  1  0  0  0
 16 31  1  0  0  0
 17 18  1  0  0  0
 17105  1  0  0  0
 18 19  2  0  0  0
 18106  1  0  0  0
 19 20  1  0  0  0
 19 24  1  0  0  0
 20 21  2  0  0  0
 20107  1  0  0  0
 21 23  1  0  0  0
 22 28  1  0  0  0
 22 32  2  0  0  0
 26 27  1  0  0  0
 28108  1  0  0  0
 28109  1  0  0  0
 29110  1  0  0  0
 29111  1  0  0  0
 33 34  1  0  0  0
 33 66  1  0  0  0
 33 70  2  0  0  0
 34 36  1  0  0  0
 34 59  1  0  0  0
 34112  1  0  0  0
 35 44  2  0  0  0
 35 45  1  0  0  0
 35 68  1  0  0  0
 36 56  1  0  0  0
 36113  1  0  0  0
 37 39  1  0  0  0
 37 47  1  0  0  0
 37 66  1  0  0  0
 37114  1  0  0  0
 38 43  2  0  0  0
 38 46  1  0  0  0
 38 47  1  0  0  0
 39 64  1  0  0  0
 39 67  2  0  0  0
 40 52  1  0  0  0
 40 53  2  0  0  0
 40 58  1  0  0  0
 41115  1  0  0  0
 41116  1  0  0  0
 41117  1  0  0  0
 41 48  1  0  0  0
 42 43  1  0  0  0
 42 66  1  0  0  0
 42118  1  0  0  0
 42119  1  0  0  0
 43 44  1  0  0  0
 44120  1  0  0  0
 45 46  2  0  0  0
 45121  1  0  0  0
 46122  1  0  0  0
 47123  1  0  0  0
 47124  1  0  0  0
 48 56  1  0  0  0
 48 65  1  0  0  0
 48125  1  0  0  0
 49 50  1  0  0  0
 49 53  1  0  0  0
 49 64  1  0  0  0
 49126  1  0  0  0
 50 51  1  0  0  0
 50127  1  0  0  0
 50128  1  0  0  0
 51 52  1  0  0  0
 51129  1  0  0  0
 51130  1  0  0  0
 52131  1  0  0  0
 52132  1  0  0  0
 53 54  1  0  0  0
 54 55  2  0  0  0
 54133  1  0  0  0
 55 57  1  0  0  0
 55134  1  0  0  0
 56 69  2  0  0  0
 57 58  2  0  0  0
 57135  1  0  0  0
 58136  1  0  0  0
 59 60  1  0  0  0
 59 61  1  0  0  0
 59 62  1  0  0  0
 60137  1  0  0  0
 60138  1  0  0  0
 60139  1  0  0  0
 61140  1  0  0  0
 61141  1  0  0  0
 61142  1  0  0  0
 62143  1  0  0  0
 62144  1  0  0  0
 62145  1  0  0  0
 63 65  1  0  0  0
 63146  1  0  0  0
 63147  1  0  0  0
 63148  1  0  0  0
 64149  1  0  0  0
 65150  1  0  0  0
 68 88  1  0  0  0
 71 72  2  0  0  0
 71 73  1  0  0  0
 71151  1  0  0  0
 72 74  1  0  0  0
 72 80  1  0  0  0
 73 75  2  0  0  0
 73 81  1  0  0  0
 74 76  1  0  0  0
 74 90  2  0  0  0
 75 82  1  0  0  0
 75 90  1  0  0  0
 76152  1  0  0  0
 76153  1  0  0  0
 76154  1  0  0  0
 77155  1  0  0  0
 77156  1  0  0  0
 77157  1  0  0  0
 77 89  1  0  0  0
 78 89  1  0  0  0
 78158  1  0  0  0
 78159  1  0  0  0
 78160  1  0  0  0
 79 91  1  0  0  0
 79161  1  0  0  0
 79162  1  0  0  0
 79163  1  0  0  0
 80 83  1  0  0  0
 80164  1  0  0  0
 80165  1  0  0  0
 81 84  1  0  0  0
 81166  1  0  0  0
 81167  1  0  0  0
 82 85  1  0  0  0
 82168  1  0  0  0
 82169  1  0  0  0
 83 86  1  0  0  0
 83170  1  0  0  0
 83171  1  0  0  0
 84 88  1  0  0  0
 84172  1  0  0  0
 84173  1  0  0  0
 85 87  1  0  0  0
 85174  1  0  0  0
 85175  1  0  0  0
 86 89  1  0  0  0
 86176  1  0  0  0
 86177  1  0  0  0
 87 91  1  0  0  0
 87178  1  0  0  0
 87179  1  0  0  0
 88180  1  0  0  0
 88181  1  0  0  0
 89182  1  0  0  0
M  ISO  4   1 100  68 101  88 101  91 100
M  END
> <chiral flag>
0

> <version>
0

> <s_m_source_file>
/data/baiqing/PycharmProjects/Reinvent-master-3.2/result/LINK_invent/BTK/process_docking_weight1_custom_sum_contain_oxygen_bond_distance_aromatic_linkinvent_7_9_3/rearranged_h_0089.sdf

> <i_m_source_file_index>
29

> <r_mmod_Potential_Energy-OPLS-2005>
39.2539749145508

> <r_mmod_Stretch_Energy-OPLS-2005>
68.7138061523438

> <r_mmod_Bend_Energy-OPLS-2005>
148.737747192383

> <r_mmod_Torsional_Energy-OPLS-2005>
296.136352539062

> <r_mmod_Improper_Torsional_Energy-OPLS-2005>
6.59304285049438

> <r_mmod_Van_der_Waal_Energy-OPLS-2005>
154.105102539062

> <r_mmod_Electrostatic_Energy-OPLS-2005>
-453.215148925781

> <r_mmod_Solvation_Energy-OPLS-2005>
-203.831283569336

> <b_mmod_Minimization_Converged-OPLS-2005>
0

> <r_mmod_RMS_Derivative-OPLS-2005>
2.1268744468689

$$$$
30
                    3D
 Structure written by MMmdl.
174182  0  0  1  0            999 V2000
  -30.4636  -14.9300   20.5206 C   0  0  0  0  0  0
  -30.4495  -12.5991   19.4953 C   0  0  0  0  0  0
  -29.5183  -12.5436   18.2581 C   0  0  0  0  0  0
  -28.0456  -12.3224   18.6598 C   0  0  0  0  0  0
  -27.6311  -13.2205   19.8545 C   0  0  2  0  0  0
  -28.6704  -13.1146   20.9828 C   0  0  0  0  0  0
  -25.2398  -13.8138   20.5623 C   0  0  0  0  0  0
  -24.1737  -13.0436   20.9125 C   0  0  0  0  0  0
  -24.6321  -11.6880   20.8718 C   0  0  0  0  0  0
  -23.9030  -10.4273   21.0379 C   0  0  0  0  0  0
  -24.3599   -9.4180   21.9155 C   0  0  0  0  0  0
  -23.6281   -8.2227   22.0756 C   0  0  0  0  0  0
  -22.4257   -8.0254   21.3549 C   0  0  0  0  0  0
  -21.9861   -9.0227   20.4652 C   0  0  0  0  0  0
  -22.7202  -10.2086   20.3032 C   0  0  0  0  0  0
  -21.6834   -6.0708   22.5297 C   0  0  0  0  0  0
  -21.4025   -6.5634   23.8233 C   0  0  0  0  0  0
  -21.3649   -5.6793   24.9204 C   0  0  0  0  0  0
  -21.6025   -4.3052   24.7261 C   0  0  0  0  0  0
  -21.8818   -3.8130   23.4392 C   0  0  0  0  0  0
  -21.9196   -4.6936   22.3434 C   0  0  0  0  0  0
  -22.7775  -13.5190   21.1826 C   0  0  0  0  0  0
  -22.1647   -4.2122   21.1012 F   0  0  0  0  0  0
  -21.5617   -3.4546   25.7773 F   0  0  0  0  0  0
  -29.9265  -13.6375   20.4304 N   0  0  0  0  0  0
  -26.2847  -12.9340   20.3257 N   0  0  0  0  0  0
  -25.9248  -11.6492   20.5756 N   0  0  0  0  0  0
  -22.0513  -12.8221   22.0421 N   0  0  0  0  0  0
  -25.4126  -15.1898   20.3953 N   0  0  0  0  0  0
  -31.6320  -15.0525   20.1231 O   0  0  0  0  0  0
  -21.6622   -6.8850   21.4253 O   0  0  0  0  0  0
  -22.3453  -14.5510   20.6671 O   0  0  0  0  0  0
  -24.6475  -31.8363   23.1878 C   0  0  0  0  0  0
  -25.9228  -32.4637   23.8293 C   0  0  1  0  0  0
  -27.1958  -27.0833   20.2183 C   0  0  0  0  0  0
  -25.5951  -33.8444   24.2183 N   0  0  0  0  0  0
  -23.4540  -30.4517   21.5350 C   0  0  2  0  0  0
  -24.9036  -28.8666   20.1210 C   0  0  0  0  0  0
  -22.7595  -29.4454   22.4857 C   0  0  0  0  0  0
  -18.0290  -28.1336   22.8435 C   0  0  0  0  0  0
  -24.1504  -36.7268   23.2644 C   0  0  0  0  0  0
  -26.0082  -30.6966   21.3925 C   0  0  0  0  0  0
  -26.0804  -29.3009   20.7477 C   0  0  0  0  0  0
  -27.2310  -28.4263   20.7733 C   0  0  0  0  0  0
  -25.9994  -26.7480   19.5498 C   0  0  0  0  0  0
  -24.8782  -27.6077   19.4991 C   0  0  0  0  0  0
  -23.6824  -29.7750   20.1553 C   0  0  0  0  0  0
  -25.4120  -36.2986   24.0281 C   0  0  1  0  0  0
  -20.5918  -28.3654   23.1209 C   0  0  2  0  0  0
  -20.6746  -26.9328   22.5404 C   0  0  0  0  0  0
  -19.5746  -26.6314   21.5179 C   0  0  0  0  0  0
  -18.1927  -26.7873   22.1572 C   0  0  0  0  0  0
  -19.1556  -28.8806   23.2810 C   0  0  0  0  0  0
  -18.9474  -30.1410   23.8814 C   0  0  0  0  0  0
  -17.6472  -30.6525   24.0522 C   0  0  0  0  0  0
  -25.9068  -34.9359   23.5056 C   0  0  0  0  0  0
  -16.5357  -29.9017   23.6317 C   0  0  0  0  0  0
  -16.7281  -28.6453   23.0317 C   0  0  0  0  0  0
  -26.4537  -31.6555   25.0776 C   0  0  0  0  0  0
  -25.3708  -31.3705   26.1479 C   0  0  0  0  0  0
  -27.0444  -30.2943   24.6419 C   0  0  0  0  0  0
  -27.6101  -32.4329   25.7535 C   0  0  0  0  0  0
  -27.5585  -37.1739   24.8434 C   0  0  0  0  0  0
  -21.4291  -29.2985   22.3605 N   0  0  0  0  0  0
  -26.4264  -37.3697   23.9414 N   0  0  0  0  0  0
  -24.7246  -31.0169   22.0938 N   0  0  0  0  0  0
  -23.4219  -28.7967   23.2989 O   0  0  0  0  0  0
  -28.2405  -26.0921   20.2653 O   0  0  0  0  0  0
  -26.5684  -34.8846   22.4661 O   0  0  0  0  0  0
  -23.5568  -32.1305   23.7041 O   0  0  0  0  0  0
  -28.0405  -20.5699   23.3355 C   0  0  0  0  0  0
  -28.7985  -21.7455   22.6444 C   0  0  0  0  0  0
  -27.1836  -19.9805   20.9780 C   0  0  0  0  0  0
  -26.8394  -20.0999   22.5028 C   0  0  1  0  0  0
  -28.9317  -21.7153   21.0869 C   0  0  2  0  0  0
  -24.0327  -19.0348   24.5963 C   0  0  0  0  0  0
  -26.1183  -18.0058   25.5316 C   0  0  0  0  0  0
  -28.7197  -16.1386   21.9152 C   0  0  0  0  0  0
  -26.1062  -18.8582   23.0899 C   0  0  0  0  0  0
  -28.2311  -23.0988   20.3567 C   0  0  0  0  0  0
  -29.6204  -17.5198   20.0850 C   0  0  0  0  0  0
  -29.5736  -19.0085   20.8972 C   0  0  0  0  0  0
  -28.1111  -24.6889   20.9552 C   0  0  0  0  0  0
  -25.5665  -19.0411   24.5402 C   0  0  0  0  0  0
  -29.6470  -16.0918   20.7714 N   0  0  0  0  0  0
  -28.6073  -20.2439   20.5908 N   0  3  1  0  0  0
  -31.4719  -12.8057   19.1755 H   0  0  0  0  0  0
  -30.5053  -11.6277   19.9879 H   0  0  0  0  0  0
  -29.8456  -11.7627   17.5685 H   0  0  0  0  0  0
  -29.5940  -13.4898   17.7196 H   0  0  0  0  0  0
  -27.9229  -11.2734   18.9349 H   0  0  0  0  0  0
  -27.3941  -12.4887   17.8024 H   0  0  0  0  0  0
  -27.6267  -14.2440   19.4811 H   0  0  0  0  0  0
  -28.7723  -12.0659   21.2653 H   0  0  0  0  0  0
  -28.3740  -13.6136   21.8982 H   0  0  0  0  0  0
  -25.2763   -9.5673   22.4701 H   0  0  0  0  0  0
  -23.9973   -7.4641   22.7508 H   0  0  0  0  0  0
  -21.0772   -8.8777   19.9005 H   0  0  0  0  0  0
  -22.3680  -10.9622   19.6131 H   0  0  0  0  0  0
  -21.2038   -7.6141   23.9743 H   0  0  0  0  0  0
  -21.1449   -6.0518   25.9099 H   0  0  0  0  0  0
  -22.0598   -2.7593   23.2932 H   0  0  0  0  0  0
  -22.4193  -11.9842   22.4714 H   0  0  0  0  0  0
  -21.1182  -13.1283   22.2810 H   0  0  0  0  0  0
  -24.6552  -15.8530   20.5127 H   0  0  0  0  0  0
  -26.2659  -15.6130   20.0587 H   0  0  0  0  0  0
  -26.7351  -32.5203   23.1078 H   0  0  0  0  0  0
  -24.9949  -33.9563   25.0223 H   0  0  0  0  0  0
  -22.7580  -31.2748   21.3750 H   0  0  0  0  0  0
  -23.3727  -35.9637   23.3253 H   0  0  0  0  0  0
  -24.3574  -36.9005   22.2078 H   0  0  0  0  0  0
  -23.7332  -37.6452   23.6752 H   0  0  0  0  0  0
  -26.1603  -31.4355   20.6076 H   0  0  0  0  0  0
  -26.8796  -30.7572   22.0314 H   0  0  0  0  0  0
  -28.1312  -28.7401   21.2914 H   0  0  0  0  0  0
  -25.9039  -25.7731   19.0948 H   0  0  0  0  0  0
  -23.9812  -27.2696   19.0029 H   0  0  0  0  0  0
  -23.8255  -30.5453   19.3968 H   0  0  0  0  0  0
  -22.7953  -29.2209   19.8425 H   0  0  0  0  0  0
  -25.1306  -36.1824   25.0742 H   0  0  0  0  0  0
  -20.9970  -28.3253   24.1364 H   0  0  0  0  0  0
  -20.5597  -26.2237   23.3634 H   0  0  0  0  0  0
  -21.6615  -26.7299   22.1248 H   0  0  0  0  0  0
  -19.6906  -25.6241   21.1183 H   0  0  0  0  0  0
  -19.6717  -27.3120   20.6708 H   0  0  0  0  0  0
  -17.4211  -26.6616   21.3955 H   0  0  0  0  0  0
  -18.0311  -26.0000   22.8938 H   0  0  0  0  0  0
  -19.7942  -30.7195   24.2184 H   0  0  0  0  0  0
  -17.5024  -31.6197   24.5124 H   0  0  0  0  0  0
  -15.5341  -30.2858   23.7703 H   0  0  0  0  0  0
  -15.8682  -28.0743   22.7038 H   0  0  0  0  0  0
  -24.5972  -30.6952   25.7812 H   0  0  0  0  0  0
  -24.8756  -32.2819   26.4811 H   0  0  0  0  0  0
  -25.7975  -30.8987   27.0360 H   0  0  0  0  0  0
  -26.3100  -29.6595   24.1431 H   0  0  0  0  0  0
  -27.4058  -29.7309   25.5046 H   0  0  0  0  0  0
  -27.9001  -30.4164   23.9776 H   0  0  0  0  0  0
  -27.2792  -33.3708   26.2016 H   0  0  0  0  0  0
  -28.3945  -32.6775   25.0355 H   0  0  0  0  0  0
  -28.0775  -31.8537   26.5529 H   0  0  0  0  0  0
  -28.2497  -38.0139   24.7536 H   0  0  0  0  0  0
  -28.1199  -36.2642   24.6180 H   0  0  0  0  0  0
  -27.2303  -37.1306   25.8837 H   0  0  0  0  0  0
  -20.9539  -29.8807   21.6873 H   0  0  0  0  0  0
  -26.0129  -38.2744   24.1472 H   0  0  0  0  0  0
  -27.6650  -20.9224   24.2988 H   0  0  0  0  0  0
  -28.6899  -19.7272   23.5976 H   0  0  0  0  0  0
  -29.7896  -21.8485   23.0916 H   0  0  0  0  0  0
  -28.2626  -22.6512   22.9055 H   0  0  0  0  0  0
  -26.6110  -20.7662   20.4875 H   0  0  0  0  0  0
  -26.7940  -19.0717   20.5312 H   0  0  0  0  0  0
  -26.1107  -20.9089   22.5956 H   0  0  0  0  0  0
  -29.9931  -21.8372   20.8682 H   0  0  0  0  0  0
  -23.6920  -19.1472   25.6279 H   0  0  0  0  0  0
  -23.6221  -18.0988   24.2140 H   0  0  0  0  0  0
  -23.6022  -19.8568   24.0238 H   0  0  0  0  0  0
  -25.7847  -18.2367   26.5463 H   0  0  0  0  0  0
  -27.2103  -17.9902   25.5528 H   0  0  0  0  0  0
  -25.7610  -17.0052   25.2808 H   0  0  0  0  0  0
  -27.6874  -16.0373   21.5743 H   0  0  0  0  0  0
  -28.7867  -17.0747   22.4553 H   0  0  0  0  0  0
  -28.9358  -15.4342   22.7176 H   0  0  0  0  0  0
  -26.7339  -17.9698   23.0178 H   0  0  0  0  0  0
  -25.2630  -18.6110   22.4413 H   0  0  0  0  0  0
  -27.1954  -22.8261   20.1625 H   0  0  0  0  0  0
  -28.6579  -23.1692   19.3569 H   0  0  0  0  0  0
  -30.5615  -17.5279   19.5236 H   0  0  0  0  0  0
  -28.8764  -17.5092   19.2863 H   0  0  0  0  0  0
  -30.5728  -19.4163   20.7344 H   0  0  0  0  0  0
  -29.5990  -18.8361   21.9598 H   0  0  0  0  0  0
  -28.8464  -24.7248   21.7585 H   0  0  0  0  0  0
  -27.1650  -24.7240   21.5014 H   0  0  0  0  0  0
  -25.8710  -20.0135   24.9193 H   0  0  0  0  0  0
  -28.6078  -20.3088   19.5853 H   0  0  0  0  0  0
  1 25  1  0  0  0
  1 30  2  0  0  0
  1 85  1  0  0  0
  2  3  1  0  0  0
  2 25  1  0  0  0
  2 87  1  0  0  0
  2 88  1  0  0  0
  3  4  1  0  0  0
  3 89  1  0  0  0
  3 90  1  0  0  0
  4  5  1  0  0  0
  4 91  1  0  0  0
  4 92  1  0  0  0
  5  6  1  0  0  0
  5 26  1  0  0  0
  5 93  1  0  0  0
  6 25  1  0  0  0
  6 94  1  0  0  0
  6 95  1  0  0  0
  7  8  2  0  0  0
  7 26  1  0  0  0
  7 29  1  0  0  0
  8  9  1  0  0  0
  8 22  1  0  0  0
  9 10  1  0  0  0
  9 27  2  0  0  0
 10 11  2  0  0  0
 10 15  1  0  0  0
 11 12  1  0  0  0
 11 96  1  0  0  0
 12 13  2  0  0  0
 12 97  1  0  0  0
 13 14  1  0  0  0
 13 31  1  0  0  0
 14 15  2  0  0  0
 14 98  1  0  0  0
 15 99  1  0  0  0
 16 17  2  0  0  0
 16 21  1  0  0  0
 16 31  1  0  0  0
 17 18  1  0  0  0
 17100  1  0  0  0
 18 19  2  0  0  0
 18101  1  0  0  0
 19 20  1  0  0  0
 19 24  1  0  0  0
 20 21  2  0  0  0
 20102  1  0  0  0
 21 23  1  0  0  0
 22 28  1  0  0  0
 22 32  2  0  0  0
 26 27  1  0  0  0
 28103  1  0  0  0
 28104  1  0  0  0
 29105  1  0  0  0
 29106  1  0  0  0
 33 34  1  0  0  0
 33 66  1  0  0  0
 33 70  2  0  0  0
 34 36  1  0  0  0
 34 59  1  0  0  0
 34107  1  0  0  0
 35 44  2  0  0  0
 35 45  1  0  0  0
 35 68  1  0  0  0
 36 56  1  0  0  0
 36108  1  0  0  0
 37 39  1  0  0  0
 37 47  1  0  0  0
 37 66  1  0  0  0
 37109  1  0  0  0
 38 43  2  0  0  0
 38 46  1  0  0  0
 38 47  1  0  0  0
 39 64  1  0  0  0
 39 67  2  0  0  0
 40 52  1  0  0  0
 40 53  2  0  0  0
 40 58  1  0  0  0
 41110  1  0  0  0
 41111  1  0  0  0
 41112  1  0  0  0
 41 48  1  0  0  0
 42 43  1  0  0  0
 42 66  1  0  0  0
 42113  1  0  0  0
 42114  1  0  0  0
 43 44  1  0  0  0
 44115  1  0  0  0
 45 46  2  0  0  0
 45116  1  0  0  0
 46117  1  0  0  0
 47118  1  0  0  0
 47119  1  0  0  0
 48 56  1  0  0  0
 48 65  1  0  0  0
 48120  1  0  0  0
 49 50  1  0  0  0
 49 53  1  0  0  0
 49 64  1  0  0  0
 49121  1  0  0  0
 50 51  1  0  0  0
 50122  1  0  0  0
 50123  1  0  0  0
 51 52  1  0  0  0
 51124  1  0  0  0
 51125  1  0  0  0
 52126  1  0  0  0
 52127  1  0  0  0
 53 54  1  0  0  0
 54 55  2  0  0  0
 54128  1  0  0  0
 55 57  1  0  0  0
 55129  1  0  0  0
 56 69  2  0  0  0
 57 58  2  0  0  0
 57130  1  0  0  0
 58131  1  0  0  0
 59 60  1  0  0  0
 59 61  1  0  0  0
 59 62  1  0  0  0
 60132  1  0  0  0
 60133  1  0  0  0
 60134  1  0  0  0
 61135  1  0  0  0
 61136  1  0  0  0
 61137  1  0  0  0
 62138  1  0  0  0
 62139  1  0  0  0
 62140  1  0  0  0
 63 65  1  0  0  0
 63141  1  0  0  0
 63142  1  0  0  0
 63143  1  0  0  0
 64144  1  0  0  0
 65145  1  0  0  0
 68 83  1  0  0  0
 71 72  1  0  0  0
 71 74  1  0  0  0
 71146  1  0  0  0
 71147  1  0  0  0
 72 75  1  0  0  0
 72148  1  0  0  0
 72149  1  0  0  0
 73 74  1  0  0  0
 73 86  1  0  0  0
 73150  1  0  0  0
 73151  1  0  0  0
 74 79  1  0  0  0
 74152  1  0  0  0
 75 80  1  0  0  0
 75 86  1  0  0  0
 75153  1  0  0  0
 76154  1  0  0  0
 76155  1  0  0  0
 76156  1  0  0  0
 76 84  1  0  0  0
 77 84  1  0  0  0
 77157  1  0  0  0
 77158  1  0  0  0
 77159  1  0  0  0
 78 85  1  0  0  0
 78160  1  0  0  0
 78161  1  0  0  0
 78162  1  0  0  0
 79 84  1  0  0  0
 79163  1  0  0  0
 79164  1  0  0  0
 80 83  1  0  0  0
 80165  1  0  0  0
 80166  1  0  0  0
 81 82  1  0  0  0
 81 85  1  0  0  0
 81167  1  0  0  0
 81168  1  0  0  0
 82169  1  0  0  0
 82170  1  0  0  0
 82 86  1  0  0  0
 83171  1  0  0  0
 83172  1  0  0  0
 84173  1  0  0  0
 86174  1  0  0  0
M  CHG  1  86   1
M  ISO  4   1 100  68 101  83 101  85 100
M  END
> <chiral flag>
0

> <version>
0

> <s_m_source_file>
/data/baiqing/PycharmProjects/Reinvent-master-3.2/result/LINK_invent/BTK/process_docking_weight1_custom_sum_contain_oxygen_bond_distance_aromatic_linkinvent_7_9_3/rearranged_h_0089.sdf

> <i_m_source_file_index>
30

> <r_mmod_Potential_Energy-OPLS-2005>
810.587524414062

> <r_mmod_Stretch_Energy-OPLS-2005>
305.420867919922

> <r_mmod_Bend_Energy-OPLS-2005>
332.939636230469

> <r_mmod_Torsional_Energy-OPLS-2005>
434.270568847656

> <r_mmod_Improper_Torsional_Energy-OPLS-2005>
6.90803623199463

> <r_mmod_Van_der_Waal_Energy-OPLS-2005>
126.95531463623

> <r_mmod_Electrostatic_Energy-OPLS-2005>
-174.052963256836

> <r_mmod_Solvation_Energy-OPLS-2005>
-429.348663330078

> <b_mmod_Minimization_Converged-OPLS-2005>
0

> <r_mmod_RMS_Derivative-OPLS-2005>
11.9639015197754

$$$$
31
                    3D
 Structure written by MMmdl.
175183  0  0  1  0            999 V2000
  -30.7018  -14.4991   20.5551 C   0  0  0  0  0  0
  -30.4293  -12.3264   19.4070 C   0  0  0  0  0  0
  -29.4897  -12.4987   18.1955 C   0  0  0  0  0  0
  -28.0131  -12.3593   18.6177 C   0  0  0  0  0  0
  -27.6600  -13.2080   19.8673 C   0  0  2  0  0  0
  -28.7095  -13.0049   20.9837 C   0  0  0  0  0  0
  -25.2588  -13.8149   20.5681 C   0  0  0  0  0  0
  -24.1843  -13.0421   20.9167 C   0  0  0  0  0  0
  -24.6404  -11.6896   20.8726 C   0  0  0  0  0  0
  -23.9073  -10.4283   21.0387 C   0  0  0  0  0  0
  -24.3620   -9.4203   21.9171 C   0  0  0  0  0  0
  -23.6295   -8.2245   22.0751 C   0  0  0  0  0  0
  -22.4281   -8.0274   21.3539 C   0  0  0  0  0  0
  -21.9911   -9.0250   20.4644 C   0  0  0  0  0  0
  -22.7241  -10.2130   20.3043 C   0  0  0  0  0  0
  -21.6856   -6.0725   22.5273 C   0  0  0  0  0  0
  -21.4015   -6.5631   23.8203 C   0  0  0  0  0  0
  -21.3654   -5.6790   24.9170 C   0  0  0  0  0  0
  -21.6051   -4.3053   24.7230 C   0  0  0  0  0  0
  -21.8825   -3.8138   23.4351 C   0  0  0  0  0  0
  -21.9195   -4.6953   22.3403 C   0  0  0  0  0  0
  -22.7872  -13.5217   21.1851 C   0  0  0  0  0  0
  -22.1663   -4.2138   21.0982 F   0  0  0  0  0  0
  -21.5632   -3.4537   25.7743 F   0  0  0  0  0  0
  -30.0351  -13.3194   20.4188 N   0  0  0  0  0  0
  -26.3030  -12.9329   20.3351 N   0  0  0  0  0  0
  -25.9331  -11.6476   20.5754 N   0  0  0  0  0  0
  -22.0525  -12.8187   22.0404 N   0  0  0  0  0  0
  -25.4300  -15.1866   20.4091 N   0  0  0  0  0  0
  -31.8479  -14.6762   20.1409 O   0  0  0  0  0  0
  -21.6640   -6.8870   21.4239 O   0  0  0  0  0  0
  -22.3545  -14.5523   20.6718 O   0  0  0  0  0  0
  -24.6188  -31.8655   23.2048 C   0  0  0  0  0  0
  -25.9060  -32.4803   23.8373 C   0  0  1  0  0  0
  -27.2459  -27.4082   20.1104 C   0  0  0  0  0  0
  -25.5898  -33.8611   24.2323 N   0  0  0  0  0  0
  -23.4093  -30.4841   21.5482 C   0  0  2  0  0  0
  -24.8608  -28.9489   20.1170 C   0  0  0  0  0  0
  -22.7434  -29.4625   22.5008 C   0  0  0  0  0  0
  -18.0279  -28.1358   22.8476 C   0  0  0  0  0  0
  -24.1500  -36.7306   23.2637 C   0  0  0  0  0  0
  -25.9396  -30.8267   21.3572 C   0  0  0  0  0  0
  -26.0233  -29.4586   20.7074 C   0  0  0  0  0  0
  -27.2221  -28.7002   20.6896 C   0  0  0  0  0  0
  -26.0658  -26.9226   19.5018 C   0  0  0  0  0  0
  -24.8792  -27.6823   19.5061 C   0  0  0  0  0  0
  -23.6171  -29.8111   20.1663 C   0  0  0  0  0  0
  -25.4114  -36.3105   24.0336 C   0  0  1  0  0  0
  -20.5863  -28.3635   23.1304 C   0  0  2  0  0  0
  -20.6774  -26.9372   22.5406 C   0  0  0  0  0  0
  -19.5766  -26.6364   21.5196 C   0  0  0  0  0  0
  -18.1928  -26.7901   22.1600 C   0  0  0  0  0  0
  -19.1521  -28.8823   23.2883 C   0  0  0  0  0  0
  -18.9460  -30.1430   23.8888 C   0  0  0  0  0  0
  -17.6462  -30.6575   24.0542 C   0  0  0  0  0  0
  -25.9039  -34.9469   23.5126 C   0  0  0  0  0  0
  -16.5354  -29.9061   23.6334 C   0  0  0  0  0  0
  -16.7264  -28.6483   23.0343 C   0  0  0  0  0  0
  -26.4468  -31.6567   25.0698 C   0  0  0  0  0  0
  -25.3714  -31.3599   26.1418 C   0  0  0  0  0  0
  -27.0305  -30.3040   24.6029 C   0  0  0  0  0  0
  -27.6091  -32.4265   25.7427 C   0  0  0  0  0  0
  -27.5586  -37.1781   24.8464 C   0  0  0  0  0  0
  -21.4162  -29.2994   22.3723 N   0  0  0  0  0  0
  -26.4303  -37.3777   23.9412 N   0  0  0  0  0  0
  -24.6743  -31.0719   22.0959 N   0  0  0  0  0  0
  -23.4190  -28.8154   23.3044 O   0  0  0  0  0  0
  -28.4084  -26.6531   20.1149 O   0  0  0  0  0  0
  -26.5600  -34.8900   22.4687 O   0  0  0  0  0  0
  -23.5376  -32.1436   23.7422 O   0  0  0  0  0  0
  -29.5731  -20.4903   19.8757 C   0  0  0  0  0  0
  -29.1286  -21.7122   20.4275 C   0  0  0  0  0  0
  -29.8852  -19.4308   20.7537 C   0  0  0  0  0  0
  -29.3169  -20.7831   22.5186 C   0  0  0  0  0  0
  -31.4085  -18.0066   19.3145 C   0  0  0  0  0  0
  -25.1709  -19.0619   27.0546 C   0  0  0  0  0  0
  -26.2662  -17.3150   25.6033 C   0  0  0  0  0  0
  -28.6198  -22.8569   19.5344 C   0  0  0  0  0  0
  -28.8856  -20.7715   23.9779 C   0  0  0  0  0  0
  -29.1956  -24.2947   19.7442 C   0  0  0  0  0  0
  -27.7012  -19.7985   24.1770 C   0  0  0  0  0  0
  -27.1403  -19.7362   25.6071 C   0  0  0  0  0  0
  -30.3631  -16.9039   21.3808 C   0  0  0  0  0  0
  -28.3055  -25.2758   20.5597 C   0  0  0  0  0  0
  -30.1910  -17.9917   20.2538 C   0  0  1  0  0  0
  -25.9112  -18.8079   25.7344 C   0  0  0  0  0  0
  -28.9622  -21.8245   21.7618 N   0  0  0  0  0  0
  -29.8174  -19.6343   22.0791 N   0  0  0  0  0  0
  -29.9662  -15.5163   21.0433 N   0  0  0  0  0  0
  -31.4698  -12.4410   19.0964 H   0  0  0  0  0  0
  -30.3471  -11.3187   19.8169 H   0  0  0  0  0  0
  -29.7253  -11.7586   17.4293 H   0  0  0  0  0  0
  -29.6526  -13.4758   17.7360 H   0  0  0  0  0  0
  -27.8302  -11.3043   18.8253 H   0  0  0  0  0  0
  -27.3571  -12.6222   17.7865 H   0  0  0  0  0  0
  -27.6972  -14.2527   19.5568 H   0  0  0  0  0  0
  -28.6972  -11.9716   21.3327 H   0  0  0  0  0  0
  -28.4735  -13.6115   21.8588 H   0  0  0  0  0  0
  -25.2768   -9.5671   22.4728 H   0  0  0  0  0  0
  -24.0000   -7.4639   22.7473 H   0  0  0  0  0  0
  -21.0837   -8.8774   19.8947 H   0  0  0  0  0  0
  -22.3705  -10.9663   19.6145 H   0  0  0  0  0  0
  -21.2008   -7.6137   23.9703 H   0  0  0  0  0  0
  -21.1465   -6.0519   25.9070 H   0  0  0  0  0  0
  -22.0607   -2.7602   23.2861 H   0  0  0  0  0  0
  -22.4168  -11.9848   22.4758 H   0  0  0  0  0  0
  -21.1144  -13.1177   22.2617 H   0  0  0  0  0  0
  -24.6632  -15.8403   20.5225 H   0  0  0  0  0  0
  -26.2823  -15.6284   20.0881 H   0  0  0  0  0  0
  -26.7108  -32.5531   23.1126 H   0  0  0  0  0  0
  -25.0084  -33.9800   25.0481 H   0  0  0  0  0  0
  -22.6995  -31.3013   21.4015 H   0  0  0  0  0  0
  -23.3774  -35.9633   23.3334 H   0  0  0  0  0  0
  -24.3600  -36.8916   22.2051 H   0  0  0  0  0  0
  -23.7252  -37.6511   23.6645 H   0  0  0  0  0  0
  -26.0500  -31.5888   20.5851 H   0  0  0  0  0  0
  -26.8255  -30.8852   21.9744 H   0  0  0  0  0  0
  -28.1252  -29.0936   21.1409 H   0  0  0  0  0  0
  -26.0572  -25.9557   19.0208 H   0  0  0  0  0  0
  -23.9873  -27.2866   19.0414 H   0  0  0  0  0  0
  -23.7138  -30.5803   19.3993 H   0  0  0  0  0  0
  -22.7468  -29.2186   19.8806 H   0  0  0  0  0  0
  -25.1279  -36.1965   25.0823 H   0  0  0  0  0  0
  -20.9946  -28.3196   24.1426 H   0  0  0  0  0  0
  -20.5680  -26.2230   23.3574 H   0  0  0  0  0  0
  -21.6646  -26.7421   22.1184 H   0  0  0  0  0  0
  -19.6935  -25.6280   21.1214 H   0  0  0  0  0  0
  -19.6717  -27.3182   20.6733 H   0  0  0  0  0  0
  -17.4198  -26.6648   21.3998 H   0  0  0  0  0  0
  -18.0350  -26.0022   22.8975 H   0  0  0  0  0  0
  -19.7936  -30.7239   24.2257 H   0  0  0  0  0  0
  -17.5012  -31.6257   24.5127 H   0  0  0  0  0  0
  -15.5344  -30.2940   23.7683 H   0  0  0  0  0  0
  -15.8666  -28.0798   22.7057 H   0  0  0  0  0  0
  -24.5965  -30.6878   25.7701 H   0  0  0  0  0  0
  -24.8776  -32.2688   26.4868 H   0  0  0  0  0  0
  -25.8040  -30.8760   27.0183 H   0  0  0  0  0  0
  -26.2839  -29.6779   24.1131 H   0  0  0  0  0  0
  -27.4180  -29.7279   25.4439 H   0  0  0  0  0  0
  -27.8606  -30.4419   23.9108 H   0  0  0  0  0  0
  -27.2829  -33.3632   26.1968 H   0  0  0  0  0  0
  -28.3890  -32.6716   25.0196 H   0  0  0  0  0  0
  -28.0746  -31.8367   26.5341 H   0  0  0  0  0  0
  -28.2561  -38.0114   24.7592 H   0  0  0  0  0  0
  -28.1125  -36.2653   24.6220 H   0  0  0  0  0  0
  -27.2314  -37.1371   25.8864 H   0  0  0  0  0  0
  -20.9355  -29.8702   21.6912 H   0  0  0  0  0  0
  -26.0209  -38.2855   24.1432 H   0  0  0  0  0  0
  -29.6049  -20.3435   18.8039 H   0  0  0  0  0  0
  -31.2448  -18.6709   18.4653 H   0  0  0  0  0  0
  -31.6160  -17.0181   18.9083 H   0  0  0  0  0  0
  -32.3020  -18.3529   19.8344 H   0  0  0  0  0  0
  -24.2683  -18.4528   27.1219 H   0  0  0  0  0  0
  -24.8651  -20.1053   27.1424 H   0  0  0  0  0  0
  -25.7964  -18.8237   27.9157 H   0  0  0  0  0  0
  -25.3828  -16.6901   25.7460 H   0  0  0  0  0  0
  -27.0023  -17.0062   26.3465 H   0  0  0  0  0  0
  -26.6657  -17.0706   24.6189 H   0  0  0  0  0  0
  -27.5308  -22.8682   19.5669 H   0  0  0  0  0  0
  -28.8623  -22.5705   18.5107 H   0  0  0  0  0  0
  -28.5980  -21.7784   24.2844 H   0  0  0  0  0  0
  -29.7297  -20.4874   24.6074 H   0  0  0  0  0  0
  -29.2891  -24.7352   18.7510 H   0  0  0  0  0  0
  -30.2132  -24.2537   20.1333 H   0  0  0  0  0  0
  -28.0219  -18.8005   23.8776 H   0  0  0  0  0  0
  -26.9045  -20.0781   23.4889 H   0  0  0  0  0  0
  -26.8597  -20.7470   25.9054 H   0  0  0  0  0  0
  -27.9202  -19.4202   26.3014 H   0  0  0  0  0  0
  -29.7075  -17.1485   22.2153 H   0  0  0  0  0  0
  -31.3737  -16.9318   21.7913 H   0  0  0  0  0  0
  -28.6191  -25.2376   21.6053 H   0  0  0  0  0  0
  -27.2752  -24.9200   20.5639 H   0  0  0  0  0  0
  -29.3190  -17.7081   19.6639 H   0  0  0  0  0  0
  -25.2180  -19.0550   24.9287 H   0  0  0  0  0  0
  -29.0232  -15.2653   21.3018 H   0  0  0  0  0  0
  1 25  1  0  0  0
  1 30  2  0  0  0
  1 89  1  0  0  0
  2  3  1  0  0  0
  2 25  1  0  0  0
  2 90  1  0  0  0
  2 91  1  0  0  0
  3  4  1  0  0  0
  3 92  1  0  0  0
  3 93  1  0  0  0
  4  5  1  0  0  0
  4 94  1  0  0  0
  4 95  1  0  0  0
  5  6  1  0  0  0
  5 26  1  0  0  0
  5 96  1  0  0  0
  6 25  1  0  0  0
  6 97  1  0  0  0
  6 98  1  0  0  0
  7  8  2  0  0  0
  7 26  1  0  0  0
  7 29  1  0  0  0
  8  9  1  0  0  0
  8 22  1  0  0  0
  9 10  1  0  0  0
  9 27  2  0  0  0
 10 11  2  0  0  0
 10 15  1  0  0  0
 11 12  1  0  0  0
 11 99  1  0  0  0
 12 13  2  0  0  0
 12100  1  0  0  0
 13 14  1  0  0  0
 13 31  1  0  0  0
 14 15  2  0  0  0
 14101  1  0  0  0
 15102  1  0  0  0
 16 17  2  0  0  0
 16 21  1  0  0  0
 16 31  1  0  0  0
 17 18  1  0  0  0
 17103  1  0  0  0
 18 19  2  0  0  0
 18104  1  0  0  0
 19 20  1  0  0  0
 19 24  1  0  0  0
 20 21  2  0  0  0
 20105  1  0  0  0
 21 23  1  0  0  0
 22 28  1  0  0  0
 22 32  2  0  0  0
 26 27  1  0  0  0
 28106  1  0  0  0
 28107  1  0  0  0
 29108  1  0  0  0
 29109  1  0  0  0
 33 34  1  0  0  0
 33 66  1  0  0  0
 33 70  2  0  0  0
 34 36  1  0  0  0
 34 59  1  0  0  0
 34110  1  0  0  0
 35 44  2  0  0  0
 35 45  1  0  0  0
 35 68  1  0  0  0
 36 56  1  0  0  0
 36111  1  0  0  0
 37 39  1  0  0  0
 37 47  1  0  0  0
 37 66  1  0  0  0
 37112  1  0  0  0
 38 43  2  0  0  0
 38 46  1  0  0  0
 38 47  1  0  0  0
 39 64  1  0  0  0
 39 67  2  0  0  0
 40 52  1  0  0  0
 40 53  2  0  0  0
 40 58  1  0  0  0
 41113  1  0  0  0
 41114  1  0  0  0
 41115  1  0  0  0
 41 48  1  0  0  0
 42 43  1  0  0  0
 42 66  1  0  0  0
 42116  1  0  0  0
 42117  1  0  0  0
 43 44  1  0  0  0
 44118  1  0  0  0
 45 46  2  0  0  0
 45119  1  0  0  0
 46120  1  0  0  0
 47121  1  0  0  0
 47122  1  0  0  0
 48 56  1  0  0  0
 48 65  1  0  0  0
 48123  1  0  0  0
 49 50  1  0  0  0
 49 53  1  0  0  0
 49 64  1  0  0  0
 49124  1  0  0  0
 50 51  1  0  0  0
 50125  1  0  0  0
 50126  1  0  0  0
 51 52  1  0  0  0
 51127  1  0  0  0
 51128  1  0  0  0
 52129  1  0  0  0
 52130  1  0  0  0
 53 54  1  0  0  0
 54 55  2  0  0  0
 54131  1  0  0  0
 55 57  1  0  0  0
 55132  1  0  0  0
 56 69  2  0  0  0
 57 58  2  0  0  0
 57133  1  0  0  0
 58134  1  0  0  0
 59 60  1  0  0  0
 59 61  1  0  0  0
 59 62  1  0  0  0
 60135  1  0  0  0
 60136  1  0  0  0
 60137  1  0  0  0
 61138  1  0  0  0
 61139  1  0  0  0
 61140  1  0  0  0
 62141  1  0  0  0
 62142  1  0  0  0
 62143  1  0  0  0
 63 65  1  0  0  0
 63144  1  0  0  0
 63145  1  0  0  0
 63146  1  0  0  0
 64147  1  0  0  0
 65148  1  0  0  0
 68 84  1  0  0  0
 71 72  2  0  0  0
 71 73  1  0  0  0
 71149  1  0  0  0
 72 78  1  0  0  0
 72 87  1  0  0  0
 73 85  1  0  0  0
 73 88  2  0  0  0
 74 79  1  0  0  0
 74 87  2  0  0  0
 74 88  1  0  0  0
 75150  1  0  0  0
 75151  1  0  0  0
 75152  1  0  0  0
 75 85  1  0  0  0
 76153  1  0  0  0
 76154  1  0  0  0
 76155  1  0  0  0
 76 86  1  0  0  0
 77 86  1  0  0  0
 77156  1  0  0  0
 77157  1  0  0  0
 77158  1  0  0  0
 78 80  1  0  0  0
 78159  1  0  0  0
 78160  1  0  0  0
 79 81  1  0  0  0
 79161  1  0  0  0
 79162  1  0  0  0
 80 84  1  0  0  0
 80163  1  0  0  0
 80164  1  0  0  0
 81 82  1  0  0  0
 81165  1  0  0  0
 81166  1  0  0  0
 82 86  1  0  0  0
 82167  1  0  0  0
 82168  1  0  0  0
 83 85  1  0  0  0
 83 89  1  0  0  0
 83169  1  0  0  0
 83170  1  0  0  0
 84171  1  0  0  0
 84172  1  0  0  0
 85173  1  0  0  0
 86174  1  0  0  0
 89175  1  0  0  0
M  ISO  4   1 100  68 101  84 101  89 100
M  END
> <chiral flag>
0

> <version>
0

> <s_m_source_file>
/data/baiqing/PycharmProjects/Reinvent-master-3.2/result/LINK_invent/BTK/process_docking_weight1_custom_sum_contain_oxygen_bond_distance_aromatic_linkinvent_7_9_3/rearranged_h_0089.sdf

> <i_m_source_file_index>
31

> <r_mmod_Potential_Energy-OPLS-2005>
-453.870239257812

> <r_mmod_Stretch_Energy-OPLS-2005>
45.8847579956055

> <r_mmod_Bend_Energy-OPLS-2005>
118.844078063965

> <r_mmod_Torsional_Energy-OPLS-2005>
237.872802734375

> <r_mmod_Improper_Torsional_Energy-OPLS-2005>
5.84808397293091

> <r_mmod_Van_der_Waal_Energy-OPLS-2005>
155.308242797852

> <r_mmod_Electrostatic_Energy-OPLS-2005>
-816.822326660156

> <r_mmod_Solvation_Energy-OPLS-2005>
-217.866058349609

> <b_mmod_Minimization_Converged-OPLS-2005>
0

> <r_mmod_RMS_Derivative-OPLS-2005>
3.33349323272705

$$$$
32
                    3D
 Structure written by MMmdl.
182191  0  0  1  0            999 V2000
  -30.7362  -14.4009   20.6158 C   0  0  0  0  0  0
  -30.4131  -12.2813   19.4047 C   0  0  0  0  0  0
  -29.4845  -12.5088   18.1960 C   0  0  0  0  0  0
  -28.0071  -12.3689   18.6110 C   0  0  0  0  0  0
  -27.6615  -13.1988   19.8759 C   0  0  2  0  0  0
  -28.7011  -12.9594   20.9936 C   0  0  0  0  0  0
  -25.2595  -13.8148   20.5673 C   0  0  0  0  0  0
  -24.1829  -13.0434   20.9151 C   0  0  0  0  0  0
  -24.6371  -11.6897   20.8709 C   0  0  0  0  0  0
  -23.9035  -10.4290   21.0393 C   0  0  0  0  0  0
  -24.3600   -9.4209   21.9171 C   0  0  0  0  0  0
  -23.6281   -8.2241   22.0747 C   0  0  0  0  0  0
  -22.4264   -8.0275   21.3540 C   0  0  0  0  0  0
  -21.9890   -9.0241   20.4643 C   0  0  0  0  0  0
  -22.7208  -10.2124   20.3046 C   0  0  0  0  0  0
  -21.6851   -6.0725   22.5277 C   0  0  0  0  0  0
  -21.4014   -6.5631   23.8206 C   0  0  0  0  0  0
  -21.3661   -5.6787   24.9170 C   0  0  0  0  0  0
  -21.6044   -4.3051   24.7223 C   0  0  0  0  0  0
  -21.8822   -3.8140   23.4346 C   0  0  0  0  0  0
  -21.9191   -4.6953   22.3402 C   0  0  0  0  0  0
  -22.7858  -13.5243   21.1831 C   0  0  0  0  0  0
  -22.1662   -4.2137   21.0981 F   0  0  0  0  0  0
  -21.5630   -3.4541   25.7738 F   0  0  0  0  0  0
  -30.0378  -13.2493   20.4445 N   0  0  0  0  0  0
  -26.3019  -12.9299   20.3371 N   0  0  0  0  0  0
  -25.9296  -11.6466   20.5759 N   0  0  0  0  0  0
  -22.0508  -12.8227   22.0394 N   0  0  0  0  0  0
  -25.4345  -15.1860   20.4141 N   0  0  0  0  0  0
  -31.8322  -14.6115   20.0899 O   0  0  0  0  0  0
  -21.6639   -6.8863   21.4236 O   0  0  0  0  0  0
  -22.3538  -14.5550   20.6691 O   0  0  0  0  0  0
  -24.6081  -31.8719   23.2126 C   0  0  0  0  0  0
  -25.9000  -32.4827   23.8410 C   0  0  1  0  0  0
  -27.2432  -27.4865   20.0951 C   0  0  0  0  0  0
  -25.5888  -33.8623   24.2366 N   0  0  0  0  0  0
  -23.3923  -30.4945   21.5525 C   0  0  2  0  0  0
  -24.8416  -28.9663   20.1151 C   0  0  0  0  0  0
  -22.7365  -29.4680   22.5026 C   0  0  0  0  0  0
  -18.0256  -28.1369   22.8490 C   0  0  0  0  0  0
  -24.1496  -36.7319   23.2633 C   0  0  0  0  0  0
  -25.9102  -30.8596   21.3475 C   0  0  0  0  0  0
  -25.9933  -29.4892   20.7160 C   0  0  0  0  0  0
  -27.1948  -28.7539   20.7176 C   0  0  0  0  0  0
  -26.0835  -26.9753   19.4818 C   0  0  0  0  0  0
  -24.8788  -27.7041   19.4965 C   0  0  0  0  0  0
  -23.5958  -29.8217   20.1673 C   0  0  0  0  0  0
  -25.4099  -36.3114   24.0356 C   0  0  1  0  0  0
  -20.5845  -28.3648   23.1347 C   0  0  2  0  0  0
  -20.6751  -26.9394   22.5419 C   0  0  0  0  0  0
  -19.5731  -26.6401   21.5207 C   0  0  0  0  0  0
  -18.1908  -26.7924   22.1616 C   0  0  0  0  0  0
  -19.1499  -28.8822   23.2928 C   0  0  0  0  0  0
  -18.9441  -30.1430   23.8937 C   0  0  0  0  0  0
  -17.6443  -30.6575   24.0566 C   0  0  0  0  0  0
  -25.9032  -34.9477   23.5164 C   0  0  0  0  0  0
  -16.5327  -29.9084   23.6327 C   0  0  0  0  0  0
  -16.7248  -28.6500   23.0348 C   0  0  0  0  0  0
  -26.4466  -31.6552   25.0681 C   0  0  0  0  0  0
  -25.3771  -31.3632   26.1461 C   0  0  0  0  0  0
  -27.0239  -30.3013   24.5933 C   0  0  0  0  0  0
  -27.6111  -32.4196   25.7405 C   0  0  0  0  0  0
  -27.5578  -37.1793   24.8467 C   0  0  0  0  0  0
  -21.4108  -29.3023   22.3756 N   0  0  0  0  0  0
  -26.4288  -37.3790   23.9433 N   0  0  0  0  0  0
  -24.6558  -31.0873   22.0989 N   0  0  0  0  0  0
  -23.4166  -28.8235   23.3048 O   0  0  0  0  0  0
  -28.3775  -26.7156   20.0278 O   0  0  0  0  0  0
  -26.5577  -34.8926   22.4714 O   0  0  0  0  0  0
  -23.5299  -32.1412   23.7583 O   0  0  0  0  0  0
  -28.5073  -17.3621   19.3147 C   0  0  0  0  0  0
  -27.3366  -17.9330   18.7842 C   0  0  0  0  0  0
  -31.0960  -22.9045   17.2726 C   0  0  0  0  0  0
  -31.4554  -23.2367   18.6036 C   0  0  0  0  0  0
  -29.3639  -19.5836   19.7588 C   0  0  0  0  0  0
  -29.5193  -18.1858   19.8367 C   0  0  0  0  0  0
  -27.1497  -19.3357   18.7468 C   0  0  0  0  0  0
  -28.2096  -20.1797   19.1957 C   0  0  0  0  0  0
  -29.8550  -22.3365   17.3050 C   0  0  0  0  0  0
  -30.4254  -22.8755   19.4266 C   0  0  0  0  0  0
  -29.0161  -21.8326   16.1760 C   0  0  0  0  0  0
  -24.5967  -19.1407   18.8104 C   0  0  0  0  0  0
  -25.7676  -19.8410   16.6813 C   0  0  0  0  0  0
  -30.8076  -17.6056   20.4103 C   0  0  0  0  0  0
  -28.1662  -21.7132   19.0986 C   0  0  0  0  0  0
  -30.2928  -23.0626   20.9115 C   0  0  0  0  0  0
  -29.4956  -24.3217   21.2887 C   0  0  0  0  0  0
  -30.2530  -25.6344   21.0031 C   0  0  0  0  0  0
  -30.6499  -16.6744   21.6393 C   0  0  0  0  0  0
  -29.3503  -26.8723   21.0525 C   0  0  0  0  0  0
  -25.8129  -19.8746   18.2154 C   0  0  0  0  0  0
  -29.4377  -22.2867   18.6338 N   0  0  0  0  0  0
  -30.1192  -15.3424   21.3406 N   0  0  0  0  0  0
  -31.4580  -12.3703   19.1020 H   0  0  0  0  0  0
  -30.3034  -11.2646   19.7852 H   0  0  0  0  0  0
  -29.7174  -11.7982   17.4022 H   0  0  0  0  0  0
  -29.6563  -13.5025   17.7790 H   0  0  0  0  0  0
  -27.8132  -11.3115   18.7966 H   0  0  0  0  0  0
  -27.3548  -12.6545   17.7851 H   0  0  0  0  0  0
  -27.7103  -14.2479   19.5899 H   0  0  0  0  0  0
  -28.6661  -11.9210   21.3264 H   0  0  0  0  0  0
  -28.4588  -13.5490   21.8785 H   0  0  0  0  0  0
  -25.2750   -9.5685   22.4737 H   0  0  0  0  0  0
  -23.9993   -7.4633   22.7466 H   0  0  0  0  0  0
  -21.0818   -8.8747   19.8953 H   0  0  0  0  0  0
  -22.3658  -10.9655   19.6152 H   0  0  0  0  0  0
  -21.2011   -7.6140   23.9701 H   0  0  0  0  0  0
  -21.1482   -6.0524   25.9067 H   0  0  0  0  0  0
  -22.0603   -2.7602   23.2851 H   0  0  0  0  0  0
  -22.4135  -11.9886   22.4766 H   0  0  0  0  0  0
  -21.1132  -13.1255   22.2631 H   0  0  0  0  0  0
  -24.6754  -15.8455   20.5425 H   0  0  0  0  0  0
  -26.3039  -15.6302   20.1483 H   0  0  0  0  0  0
  -26.7071  -32.5608   23.1195 H   0  0  0  0  0  0
  -25.0048  -33.9787   25.0515 H   0  0  0  0  0  0
  -22.6785  -31.3096   21.4133 H   0  0  0  0  0  0
  -23.3763  -35.9644   23.3261 H   0  0  0  0  0  0
  -24.3604  -36.8968   22.2053 H   0  0  0  0  0  0
  -23.7241  -37.6518   23.6652 H   0  0  0  0  0  0
  -25.9855  -31.6123   20.5610 H   0  0  0  0  0  0
  -26.8128  -30.9439   21.9412 H   0  0  0  0  0  0
  -28.0755  -29.1776   21.1769 H   0  0  0  0  0  0
  -26.1149  -26.0104   18.9937 H   0  0  0  0  0  0
  -23.9950  -27.2976   19.0251 H   0  0  0  0  0  0
  -23.6854  -30.5903   19.3993 H   0  0  0  0  0  0
  -22.7255  -29.2277   19.8839 H   0  0  0  0  0  0
  -25.1262  -36.1972   25.0844 H   0  0  0  0  0  0
  -20.9939  -28.3201   24.1467 H   0  0  0  0  0  0
  -20.5697  -26.2234   23.3590 H   0  0  0  0  0  0
  -21.6613  -26.7477   22.1165 H   0  0  0  0  0  0
  -19.6914  -25.6349   21.1161 H   0  0  0  0  0  0
  -19.6666  -27.3268   20.6790 H   0  0  0  0  0  0
  -17.4179  -26.6688   21.4007 H   0  0  0  0  0  0
  -18.0302  -26.0058   22.9005 H   0  0  0  0  0  0
  -19.7925  -30.7228   24.2318 H   0  0  0  0  0  0
  -17.5001  -31.6261   24.5162 H   0  0  0  0  0  0
  -15.5336  -30.2990   23.7646 H   0  0  0  0  0  0
  -15.8648  -28.0831   22.7056 H   0  0  0  0  0  0
  -24.5978  -30.6932   25.7816 H   0  0  0  0  0  0
  -24.8912  -32.2763   26.4901 H   0  0  0  0  0  0
  -25.8153  -30.8819   27.0215 H   0  0  0  0  0  0
  -26.2688  -29.6782   24.1126 H   0  0  0  0  0  0
  -27.4212  -29.7228   25.4287 H   0  0  0  0  0  0
  -27.8438  -30.4358   23.8877 H   0  0  0  0  0  0
  -27.2854  -33.3581   26.1895 H   0  0  0  0  0  0
  -28.3961  -32.6577   25.0214 H   0  0  0  0  0  0
  -28.0694  -31.8314   26.5368 H   0  0  0  0  0  0
  -28.2589  -38.0098   24.7526 H   0  0  0  0  0  0
  -28.1082  -36.2629   24.6262 H   0  0  0  0  0  0
  -27.2295  -37.1408   25.8871 H   0  0  0  0  0  0
  -20.9255  -29.8720   21.6967 H   0  0  0  0  0  0
  -26.0188  -38.2877   24.1437 H   0  0  0  0  0  0
  -28.6228  -16.2898   19.3124 H   0  0  0  0  0  0
  -26.5758  -17.2724   18.3956 H   0  0  0  0  0  0
  -31.6833  -23.0725   16.3788 H   0  0  0  0  0  0
  -32.3721  -23.7125   18.9251 H   0  0  0  0  0  0
  -30.1657  -20.2131   20.1159 H   0  0  0  0  0  0
  -29.5067  -22.0025   15.2178 H   0  0  0  0  0  0
  -28.0556  -22.3460   16.1399 H   0  0  0  0  0  0
  -28.8375  -20.7622   16.2686 H   0  0  0  0  0  0
  -24.6164  -19.1675   19.9001 H   0  0  0  0  0  0
  -24.5425  -18.0973   18.5017 H   0  0  0  0  0  0
  -23.6654  -19.6105   18.4920 H   0  0  0  0  0  0
  -26.5437  -20.4666   16.2477 H   0  0  0  0  0  0
  -24.8125  -20.2069   16.3041 H   0  0  0  0  0  0
  -25.9078  -18.8295   16.3002 H   0  0  0  0  0  0
  -31.4478  -18.4357   20.7119 H   0  0  0  0  0  0
  -31.3512  -17.1119   19.6054 H   0  0  0  0  0  0
  -27.9040  -22.1200   20.0744 H   0  0  0  0  0  0
  -27.3971  -22.0671   18.4177 H   0  0  0  0  0  0
  -31.2847  -23.1093   21.3625 H   0  0  0  0  0  0
  -29.8221  -22.1877   21.3590 H   0  0  0  0  0  0
  -29.2399  -24.2865   22.3480 H   0  0  0  0  0  0
  -28.5451  -24.3101   20.7542 H   0  0  0  0  0  0
  -30.7164  -25.5927   20.0170 H   0  0  0  0  0  0
  -31.0689  -25.7427   21.7197 H   0  0  0  0  0  0
  -30.0233  -17.1503   22.3938 H   0  0  0  0  0  0
  -31.6278  -16.5384   22.1048 H   0  0  0  0  0  0
  -29.9388  -27.7739   20.8739 H   0  0  0  0  0  0
  -28.8907  -26.9623   22.0387 H   0  0  0  0  0  0
  -25.6803  -20.9059   18.5336 H   0  0  0  0  0  0
  -29.2230  -15.0992   21.7370 H   0  0  0  0  0  0
  1 25  1  0  0  0
  1 30  2  0  0  0
  1 93  1  0  0  0
  2  3  1  0  0  0
  2 25  1  0  0  0
  2 94  1  0  0  0
  2 95  1  0  0  0
  3  4  1  0  0  0
  3 96  1  0  0  0
  3 97  1  0  0  0
  4  5  1  0  0  0
  4 98  1  0  0  0
  4 99  1  0  0  0
  5  6  1  0  0  0
  5 26  1  0  0  0
  5100  1  0  0  0
  6 25  1  0  0  0
  6101  1  0  0  0
  6102  1  0  0  0
  7  8  2  0  0  0
  7 26  1  0  0  0
  7 29  1  0  0  0
  8  9  1  0  0  0
  8 22  1  0  0  0
  9 10  1  0  0  0
  9 27  2  0  0  0
 10 11  2  0  0  0
 10 15  1  0  0  0
 11 12  1  0  0  0
 11103  1  0  0  0
 12 13  2  0  0  0
 12104  1  0  0  0
 13 14  1  0  0  0
 13 31  1  0  0  0
 14 15  2  0  0  0
 14105  1  0  0  0
 15106  1  0  0  0
 16 17  2  0  0  0
 16 21  1  0  0  0
 16 31  1  0  0  0
 17 18  1  0  0  0
 17107  1  0  0  0
 18 19  2  0  0  0
 18108  1  0  0  0
 19 20  1  0  0  0
 19 24  1  0  0  0
 20 21  2  0  0  0
 20109  1  0  0  0
 21 23  1  0  0  0
 22 28  1  0  0  0
 22 32  2  0  0  0
 26 27  1  0  0  0
 28110  1  0  0  0
 28111  1  0  0  0
 29112  1  0  0  0
 29113  1  0  0  0
 33 34  1  0  0  0
 33 66  1  0  0  0
 33 70  2  0  0  0
 34 36  1  0  0  0
 34 59  1  0  0  0
 34114  1  0  0  0
 35 44  2  0  0  0
 35 45  1  0  0  0
 35 68  1  0  0  0
 36 56  1  0  0  0
 36115  1  0  0  0
 37 39  1  0  0  0
 37 47  1  0  0  0
 37 66  1  0  0  0
 37116  1  0  0  0
 38 43  2  0  0  0
 38 46  1  0  0  0
 38 47  1  0  0  0
 39 64  1  0  0  0
 39 67  2  0  0  0
 40 52  1  0  0  0
 40 53  2  0  0  0
 40 58  1  0  0  0
 41117  1  0  0  0
 41118  1  0  0  0
 41119  1  0  0  0
 41 48  1  0  0  0
 42 43  1  0  0  0
 42 66  1  0  0  0
 42120  1  0  0  0
 42121  1  0  0  0
 43 44  1  0  0  0
 44122  1  0  0  0
 45 46  2  0  0  0
 45123  1  0  0  0
 46124  1  0  0  0
 47125  1  0  0  0
 47126  1  0  0  0
 48 56  1  0  0  0
 48 65  1  0  0  0
 48127  1  0  0  0
 49 50  1  0  0  0
 49 53  1  0  0  0
 49 64  1  0  0  0
 49128  1  0  0  0
 50 51  1  0  0  0
 50129  1  0  0  0
 50130  1  0  0  0
 51 52  1  0  0  0
 51131  1  0  0  0
 51132  1  0  0  0
 52133  1  0  0  0
 52134  1  0  0  0
 53 54  1  0  0  0
 54 55  2  0  0  0
 54135  1  0  0  0
 55 57  1  0  0  0
 55136  1  0  0  0
 56 69  2  0  0  0
 57 58  2  0  0  0
 57137  1  0  0  0
 58138  1  0  0  0
 59 60  1  0  0  0
 59 61  1  0  0  0
 59 62  1  0  0  0
 60139  1  0  0  0
 60140  1  0  0  0
 60141  1  0  0  0
 61142  1  0  0  0
 61143  1  0  0  0
 61144  1  0  0  0
 62145  1  0  0  0
 62146  1  0  0  0
 62147  1  0  0  0
 63 65  1  0  0  0
 63148  1  0  0  0
 63149  1  0  0  0
 63150  1  0  0  0
 64151  1  0  0  0
 65152  1  0  0  0
 68 90  1  0  0  0
 71 72  2  0  0  0
 71 76  1  0  0  0
 71153  1  0  0  0
 72 77  1  0  0  0
 72154  1  0  0  0
 73 74  1  0  0  0
 73 79  2  0  0  0
 73155  1  0  0  0
 74 80  2  0  0  0
 74156  1  0  0  0
 75 76  2  0  0  0
 75 78  1  0  0  0
 75157  1  0  0  0
 76 84  1  0  0  0
 77 78  2  0  0  0
 77 91  1  0  0  0
 78 85  1  0  0  0
 79 81  1  0  0  0
 79 92  1  0  0  0
 80 86  1  0  0  0
 80 92  1  0  0  0
 81158  1  0  0  0
 81159  1  0  0  0
 81160  1  0  0  0
 82161  1  0  0  0
 82162  1  0  0  0
 82163  1  0  0  0
 82 91  1  0  0  0
 83 91  1  0  0  0
 83164  1  0  0  0
 83165  1  0  0  0
 83166  1  0  0  0
 84 89  1  0  0  0
 84167  1  0  0  0
 84168  1  0  0  0
 85 92  1  0  0  0
 85169  1  0  0  0
 85170  1  0  0  0
 86 87  1  0  0  0
 86171  1  0  0  0
 86172  1  0  0  0
 87 88  1  0  0  0
 87173  1  0  0  0
 87174  1  0  0  0
 88 90  1  0  0  0
 88175  1  0  0  0
 88176  1  0  0  0
 89 93  1  0  0  0
 89177  1  0  0  0
 89178  1  0  0  0
 90179  1  0  0  0
 90180  1  0  0  0
 91181  1  0  0  0
 93182  1  0  0  0
M  ISO  4   1 100  68 101  90 101  93 100
M  END
> <chiral flag>
0

> <version>
0

> <s_m_source_file>
/data/baiqing/PycharmProjects/Reinvent-master-3.2/result/LINK_invent/BTK/process_docking_weight1_custom_sum_contain_oxygen_bond_distance_aromatic_linkinvent_7_9_3/rearranged_h_0089.sdf

> <i_m_source_file_index>
32

> <r_mmod_Potential_Energy-OPLS-2005>
-86.2414474487305

> <r_mmod_Stretch_Energy-OPLS-2005>
36.2770195007324

> <r_mmod_Bend_Energy-OPLS-2005>
103.388854980469

> <r_mmod_Torsional_Energy-OPLS-2005>
220.905853271484

> <r_mmod_Improper_Torsional_Energy-OPLS-2005>
2.18198823928833

> <r_mmod_Van_der_Waal_Energy-OPLS-2005>
141.434661865234

> <r_mmod_Electrostatic_Energy-OPLS-2005>
-394.775024414062

> <r_mmod_Solvation_Energy-OPLS-2005>
-202.613311767578

> <b_mmod_Minimization_Converged-OPLS-2005>
0

> <r_mmod_RMS_Derivative-OPLS-2005>
2.14649200439453

$$$$
33
                    3D
 Structure written by MMmdl.
161169  0  0  1  0            999 V2000
  -30.5501  -14.9811   20.3885 C   0  0  0  0  0  0
  -30.4374  -12.5991   19.5120 C   0  0  0  0  0  0
  -29.5260  -12.5263   18.2643 C   0  0  0  0  0  0
  -28.0607  -12.3114   18.6864 C   0  0  0  0  0  0
  -27.6331  -13.2538   19.8423 C   0  0  2  0  0  0
  -28.6762  -13.3007   20.9805 C   0  0  0  0  0  0
  -25.2475  -13.8208   20.5747 C   0  0  0  0  0  0
  -24.1794  -13.0422   20.9244 C   0  0  0  0  0  0
  -24.6403  -11.6915   20.8758 C   0  0  0  0  0  0
  -23.9071  -10.4281   21.0397 C   0  0  0  0  0  0
  -24.3618   -9.4200   21.9180 C   0  0  0  0  0  0
  -23.6292   -8.2235   22.0761 C   0  0  0  0  0  0
  -22.4269   -8.0265   21.3553 C   0  0  0  0  0  0
  -21.9905   -9.0238   20.4652 C   0  0  0  0  0  0
  -22.7235  -10.2114   20.3054 C   0  0  0  0  0  0
  -21.6851   -6.0717   22.5280 C   0  0  0  0  0  0
  -21.4028   -6.5636   23.8208 C   0  0  0  0  0  0
  -21.3671   -5.6791   24.9181 C   0  0  0  0  0  0
  -21.6042   -4.3049   24.7231 C   0  0  0  0  0  0
  -21.8818   -3.8133   23.4355 C   0  0  0  0  0  0
  -21.9193   -4.6950   22.3402 C   0  0  0  0  0  0
  -22.7810  -13.5205   21.1879 C   0  0  0  0  0  0
  -22.1664   -4.2137   21.0983 F   0  0  0  0  0  0
  -21.5629   -3.4533   25.7741 F   0  0  0  0  0  0
  -29.9506  -13.7161   20.3807 N   0  0  0  0  0  0
  -26.2920  -12.9462   20.3286 N   0  0  0  0  0  0
  -25.9352  -11.6584   20.5764 N   0  0  0  0  0  0
  -22.0450  -12.8206   22.0438 N   0  0  0  0  0  0
  -25.4093  -15.1936   20.4189 N   0  0  0  0  0  0
  -31.7439  -15.0206   20.0759 O   0  0  0  0  0  0
  -21.6642   -6.8858   21.4237 O   0  0  0  0  0  0
  -22.3509  -14.5507   20.6706 O   0  0  0  0  0  0
  -24.6472  -31.8412   23.1843 C   0  0  0  0  0  0
  -25.9228  -32.4690   23.8252 C   0  0  1  0  0  0
  -27.2323  -27.1108   20.1490 C   0  0  0  0  0  0
  -25.5965  -33.8493   24.2172 N   0  0  0  0  0  0
  -23.4539  -30.4574   21.5295 C   0  0  2  0  0  0
  -24.9071  -28.8761   20.1121 C   0  0  0  0  0  0
  -22.7590  -29.4529   22.4849 C   0  0  0  0  0  0
  -18.0314  -28.1387   22.8494 C   0  0  0  0  0  0
  -24.1489  -36.7248   23.2646 C   0  0  0  0  0  0
  -26.0100  -30.7078   21.3854 C   0  0  0  0  0  0
  -26.0857  -29.3155   20.7264 C   0  0  0  0  0  0
  -27.2482  -28.4510   20.7228 C   0  0  0  0  0  0
  -26.0239  -26.7776   19.4989 C   0  0  0  0  0  0
  -24.8904  -27.6207   19.4837 C   0  0  0  0  0  0
  -23.6837  -29.7814   20.1525 C   0  0  0  0  0  0
  -25.4125  -36.3028   24.0317 C   0  0  1  0  0  0
  -20.5923  -28.3721   23.1236 C   0  0  2  0  0  0
  -20.6773  -26.9409   22.5420 C   0  0  0  0  0  0
  -19.5752  -26.6370   21.5223 C   0  0  0  0  0  0
  -18.1940  -26.7930   22.1637 C   0  0  0  0  0  0
  -19.1568  -28.8872   23.2859 C   0  0  0  0  0  0
  -18.9478  -30.1465   23.8896 C   0  0  0  0  0  0
  -17.6471  -30.6586   24.0551 C   0  0  0  0  0  0
  -25.9071  -34.9407   23.5050 C   0  0  0  0  0  0
  -16.5366  -29.9079   23.6319 C   0  0  0  0  0  0
  -16.7297  -28.6486   23.0365 C   0  0  0  0  0  0
  -26.4534  -31.6571   25.0711 C   0  0  0  0  0  0
  -25.3695  -31.3804   26.1395 C   0  0  0  0  0  0
  -27.0379  -30.2958   24.6308 C   0  0  0  0  0  0
  -27.6058  -32.4343   25.7514 C   0  0  0  0  0  0
  -27.5569  -37.1787   24.8467 C   0  0  0  0  0  0
  -21.4274  -29.3049   22.3599 N   0  0  0  0  0  0
  -26.4289  -37.3738   23.9403 N   0  0  0  0  0  0
  -24.7238  -31.0235   22.0885 N   0  0  0  0  0  0
  -23.4214  -28.8076   23.3016 O   0  0  0  0  0  0
  -28.2903  -26.1199   20.2094 O   0  0  0  0  0  0
  -26.5642  -34.8918   22.4625 O   0  0  0  0  0  0
  -23.5584  -32.1305   23.7044 O   0  0  0  0  0  0
  -29.3988  -20.4721   20.0830 C   0  0  0  0  0  0
  -28.7377  -20.0154   22.6205 C   0  0  0  0  0  0
  -29.0163  -21.7099   20.8345 C   0  0  0  0  0  0
  -28.7482  -21.3892   22.2189 C   0  0  0  0  0  0
  -29.4486  -19.0824   20.6330 C   0  0  0  0  0  0
  -28.9508  -21.3015   25.7147 C   0  0  0  0  0  0
  -28.0392  -23.7959   23.1315 C   0  0  0  0  0  0
  -29.1807  -23.2948   20.2991 C   0  0  0  0  0  0
  -30.0514  -17.6747   20.0022 C   0  0  0  0  0  0
  -27.9556  -21.8545   24.6799 C   0  0  0  0  0  0
  -28.0500  -24.5669   20.0777 C   0  0  0  0  0  0
  -28.6461  -22.4128   23.3971 C   0  0  1  0  0  0
  -29.0506  -18.9267   21.8941 N   0  0  0  0  0  0
  -29.7988  -16.1873   20.5155 N   0  0  0  0  0  0
  -31.4755  -12.7355   19.2085 H   0  0  0  0  0  0
  -30.4135  -11.6546   20.0567 H   0  0  0  0  0  0
  -29.8462  -11.7139   17.6099 H   0  0  0  0  0  0
  -29.6161  -13.4457   17.6825 H   0  0  0  0  0  0
  -27.9713  -11.2741   19.0111 H   0  0  0  0  0  0
  -27.3932  -12.4234   17.8310 H   0  0  0  0  0  0
  -27.5907  -14.2520   19.4048 H   0  0  0  0  0  0
  -28.7704  -12.3280   21.4659 H   0  0  0  0  0  0
  -28.3722  -14.0050   21.7560 H   0  0  0  0  0  0
  -25.2754   -9.5684   22.4772 H   0  0  0  0  0  0
  -23.9992   -7.4635   22.7494 H   0  0  0  0  0  0
  -21.0831   -8.8750   19.8962 H   0  0  0  0  0  0
  -22.3676  -10.9659   19.6171 H   0  0  0  0  0  0
  -21.2026   -7.6142   23.9718 H   0  0  0  0  0  0
  -21.1508   -6.0523   25.9086 H   0  0  0  0  0  0
  -22.0584   -2.7593   23.2856 H   0  0  0  0  0  0
  -22.4072  -11.9894   22.4863 H   0  0  0  0  0  0
  -21.1063  -13.1239   22.2595 H   0  0  0  0  0  0
  -24.6309  -15.8345   20.5326 H   0  0  0  0  0  0
  -26.2482  -15.6439   20.0783 H   0  0  0  0  0  0
  -26.7289  -32.5313   23.0974 H   0  0  0  0  0  0
  -25.0098  -33.9595   25.0309 H   0  0  0  0  0  0
  -22.7574  -31.2823   21.3683 H   0  0  0  0  0  0
  -23.3759  -35.9566   23.3314 H   0  0  0  0  0  0
  -24.3552  -36.8876   22.2051 H   0  0  0  0  0  0
  -23.7230  -37.6448   23.6674 H   0  0  0  0  0  0
  -26.1648  -31.4620   20.6120 H   0  0  0  0  0  0
  -26.8787  -30.7632   22.0289 H   0  0  0  0  0  0
  -28.1491  -28.7844   21.2186 H   0  0  0  0  0  0
  -25.9249  -25.8188   19.0135 H   0  0  0  0  0  0
  -23.9884  -27.2769   18.9979 H   0  0  0  0  0  0
  -23.8243  -30.5518   19.3938 H   0  0  0  0  0  0
  -22.7979  -29.2253   19.8425 H   0  0  0  0  0  0
  -25.1310  -36.1859   25.0805 H   0  0  0  0  0  0
  -21.0031  -28.3305   24.1354 H   0  0  0  0  0  0
  -20.5626  -26.2331   23.3641 H   0  0  0  0  0  0
  -21.6638  -26.7372   22.1241 H   0  0  0  0  0  0
  -19.6895  -25.6274   21.1267 H   0  0  0  0  0  0
  -19.6690  -27.3161   20.6734 H   0  0  0  0  0  0
  -17.4198  -26.6701   21.4044 H   0  0  0  0  0  0
  -18.0331  -26.0068   22.9024 H   0  0  0  0  0  0
  -19.7951  -30.7279   24.2283 H   0  0  0  0  0  0
  -17.5019  -31.6275   24.5137 H   0  0  0  0  0  0
  -15.5364  -30.2965   23.7648 H   0  0  0  0  0  0
  -15.8702  -28.0784   22.7098 H   0  0  0  0  0  0
  -24.5895  -30.7119   25.7742 H   0  0  0  0  0  0
  -24.8861  -32.3003   26.4714 H   0  0  0  0  0  0
  -25.7972  -30.9077   27.0244 H   0  0  0  0  0  0
  -26.2998  -29.6702   24.1278 H   0  0  0  0  0  0
  -27.3927  -29.7267   25.4914 H   0  0  0  0  0  0
  -27.8934  -30.4195   23.9660 H   0  0  0  0  0  0
  -27.2643  -33.3674   26.2025 H   0  0  0  0  0  0
  -28.3914  -32.6862   25.0367 H   0  0  0  0  0  0
  -28.0655  -31.8495   26.5494 H   0  0  0  0  0  0
  -28.2598  -38.0071   24.7460 H   0  0  0  0  0  0
  -28.1052  -36.2593   24.6355 H   0  0  0  0  0  0
  -27.2271  -37.1499   25.8868 H   0  0  0  0  0  0
  -20.9488  -29.8774   21.6786 H   0  0  0  0  0  0
  -26.0166  -38.2813   24.1402 H   0  0  0  0  0  0
  -29.7307  -20.6006   19.0630 H   0  0  0  0  0  0
  -28.5471  -19.7095   23.6315 H   0  0  0  0  0  0
  -28.4189  -20.8701   26.5620 H   0  0  0  0  0  0
  -29.5891  -22.0980   26.0998 H   0  0  0  0  0  0
  -29.6091  -20.5341   25.3081 H   0  0  0  0  0  0
  -28.6710  -24.4272   22.5191 H   0  0  0  0  0  0
  -27.9694  -24.3693   24.0567 H   0  0  0  0  0  0
  -27.0363  -23.7184   22.7196 H   0  0  0  0  0  0
  -29.7049  -23.2137   19.3458 H   0  0  0  0  0  0
  -29.9592  -23.6983   20.9449 H   0  0  0  0  0  0
  -31.1346  -17.8082   19.9882 H   0  0  0  0  0  0
  -29.7721  -17.6756   18.9478 H   0  0  0  0  0  0
  -27.4097  -22.6395   25.2025 H   0  0  0  0  0  0
  -27.1668  -21.1405   24.4389 H   0  0  0  0  0  0
  -27.1713  -24.3516   20.6780 H   0  0  0  0  0  0
  -27.6813  -24.4264   19.0609 H   0  0  0  0  0  0
  -29.6849  -22.6208   23.6614 H   0  0  0  0  0  0
  -28.8676  -16.0548   20.8771 H   0  0  0  0  0  0
  1 25  1  0  0  0
  1 30  2  0  0  0
  1 84  1  0  0  0
  2  3  1  0  0  0
  2 25  1  0  0  0
  2 85  1  0  0  0
  2 86  1  0  0  0
  3  4  1  0  0  0
  3 87  1  0  0  0
  3 88  1  0  0  0
  4  5  1  0  0  0
  4 89  1  0  0  0
  4 90  1  0  0  0
  5  6  1  0  0  0
  5 26  1  0  0  0
  5 91  1  0  0  0
  6 25  1  0  0  0
  6 92  1  0  0  0
  6 93  1  0  0  0
  7  8  2  0  0  0
  7 26  1  0  0  0
  7 29  1  0  0  0
  8  9  1  0  0  0
  8 22  1  0  0  0
  9 10  1  0  0  0
  9 27  2  0  0  0
 10 11  2  0  0  0
 10 15  1  0  0  0
 11 12  1  0  0  0
 11 94  1  0  0  0
 12 13  2  0  0  0
 12 95  1  0  0  0
 13 14  1  0  0  0
 13 31  1  0  0  0
 14 15  2  0  0  0
 14 96  1  0  0  0
 15 97  1  0  0  0
 16 17  2  0  0  0
 16 21  1  0  0  0
 16 31  1  0  0  0
 17 18  1  0  0  0
 17 98  1  0  0  0
 18 19  2  0  0  0
 18 99  1  0  0  0
 19 20  1  0  0  0
 19 24  1  0  0  0
 20 21  2  0  0  0
 20100  1  0  0  0
 21 23  1  0  0  0
 22 28  1  0  0  0
 22 32  2  0  0  0
 26 27  1  0  0  0
 28101  1  0  0  0
 28102  1  0  0  0
 29103  1  0  0  0
 29104  1  0  0  0
 33 34  1  0  0  0
 33 66  1  0  0  0
 33 70  2  0  0  0
 34 36  1  0  0  0
 34 59  1  0  0  0
 34105  1  0  0  0
 35 44  2  0  0  0
 35 45  1  0  0  0
 35 68  1  0  0  0
 36 56  1  0  0  0
 36106  1  0  0  0
 37 39  1  0  0  0
 37 47  1  0  0  0
 37 66  1  0  0  0
 37107  1  0  0  0
 38 43  2  0  0  0
 38 46  1  0  0  0
 38 47  1  0  0  0
 39 64  1  0  0  0
 39 67  2  0  0  0
 40 52  1  0  0  0
 40 53  2  0  0  0
 40 58  1  0  0  0
 41108  1  0  0  0
 41109  1  0  0  0
 41110  1  0  0  0
 41 48  1  0  0  0
 42 43  1  0  0  0
 42 66  1  0  0  0
 42111  1  0  0  0
 42112  1  0  0  0
 43 44  1  0  0  0
 44113  1  0  0  0
 45 46  2  0  0  0
 45114  1  0  0  0
 46115  1  0  0  0
 47116  1  0  0  0
 47117  1  0  0  0
 48 56  1  0  0  0
 48 65  1  0  0  0
 48118  1  0  0  0
 49 50  1  0  0  0
 49 53  1  0  0  0
 49 64  1  0  0  0
 49119  1  0  0  0
 50 51  1  0  0  0
 50120  1  0  0  0
 50121  1  0  0  0
 51 52  1  0  0  0
 51122  1  0  0  0
 51123  1  0  0  0
 52124  1  0  0  0
 52125  1  0  0  0
 53 54  1  0  0  0
 54 55  2  0  0  0
 54126  1  0  0  0
 55 57  1  0  0  0
 55127  1  0  0  0
 56 69  2  0  0  0
 57 58  2  0  0  0
 57128  1  0  0  0
 58129  1  0  0  0
 59 60  1  0  0  0
 59 61  1  0  0  0
 59 62  1  0  0  0
 60130  1  0  0  0
 60131  1  0  0  0
 60132  1  0  0  0
 61133  1  0  0  0
 61134  1  0  0  0
 61135  1  0  0  0
 62136  1  0  0  0
 62137  1  0  0  0
 62138  1  0  0  0
 63 65  1  0  0  0
 63139  1  0  0  0
 63140  1  0  0  0
 63141  1  0  0  0
 64142  1  0  0  0
 65143  1  0  0  0
 68 81  1  0  0  0
 71 73  2  0  0  0
 71 75  1  0  0  0
 71144  1  0  0  0
 72 74  2  0  0  0
 72 83  1  0  0  0
 72145  1  0  0  0
 73 74  1  0  0  0
 73 78  1  0  0  0
 74 82  1  0  0  0
 75 79  1  0  0  0
 75 83  2  0  0  0
 76 80  1  0  0  0
 76146  1  0  0  0
 76147  1  0  0  0
 76148  1  0  0  0
 77149  1  0  0  0
 77150  1  0  0  0
 77151  1  0  0  0
 77 82  1  0  0  0
 78 81  1  0  0  0
 78152  1  0  0  0
 78153  1  0  0  0
 79 84  1  0  0  0
 79154  1  0  0  0
 79155  1  0  0  0
 80 82  1  0  0  0
 80156  1  0  0  0
 80157  1  0  0  0
 81158  1  0  0  0
 81159  1  0  0  0
 82160  1  0  0  0
 84161  1  0  0  0
M  ISO  4   1 100  68 101  81 101  84 100
M  END
> <chiral flag>
0

> <version>
0

> <s_m_source_file>
/data/baiqing/PycharmProjects/Reinvent-master-3.2/result/LINK_invent/BTK/process_docking_weight1_custom_sum_contain_oxygen_bond_distance_aromatic_linkinvent_7_9_3/rearranged_h_0089.sdf

> <i_m_source_file_index>
33

> <r_mmod_Potential_Energy-OPLS-2005>
404.288970947266

> <r_mmod_Stretch_Energy-OPLS-2005>
307.518249511719

> <r_mmod_Bend_Energy-OPLS-2005>
297.476165771484

> <r_mmod_Torsional_Energy-OPLS-2005>
236.978103637695

> <r_mmod_Improper_Torsional_Energy-OPLS-2005>
8.27548789978027

> <r_mmod_Van_der_Waal_Energy-OPLS-2005>
157.946716308594

> <r_mmod_Electrostatic_Energy-OPLS-2005>
-597.135131835938

> <r_mmod_Solvation_Energy-OPLS-2005>
-219.039672851562

> <b_mmod_Minimization_Converged-OPLS-2005>
0

> <r_mmod_RMS_Derivative-OPLS-2005>
3.13289976119995

$$$$
34
                    3D
 Structure written by MMmdl.
173181  0  0  1  0            999 V2000
  -30.7643  -14.3892   20.6335 C   0  0  0  0  0  0
  -30.4122  -12.2777   19.4059 C   0  0  0  0  0  0
  -29.4842  -12.5034   18.1967 C   0  0  0  0  0  0
  -28.0077  -12.3708   18.6146 C   0  0  0  0  0  0
  -27.6650  -13.2046   19.8783 C   0  0  2  0  0  0
  -28.7056  -12.9630   20.9960 C   0  0  0  0  0  0
  -25.2601  -13.8163   20.5672 C   0  0  0  0  0  0
  -24.1841  -13.0440   20.9167 C   0  0  0  0  0  0
  -24.6391  -11.6909   20.8727 C   0  0  0  0  0  0
  -23.9056  -10.4291   21.0394 C   0  0  0  0  0  0
  -24.3609   -9.4206   21.9175 C   0  0  0  0  0  0
  -23.6284   -8.2240   22.0751 C   0  0  0  0  0  0
  -22.4270   -8.0277   21.3542 C   0  0  0  0  0  0
  -21.9903   -9.0246   20.4642 C   0  0  0  0  0  0
  -22.7226  -10.2125   20.3048 C   0  0  0  0  0  0
  -21.6853   -6.0730   22.5275 C   0  0  0  0  0  0
  -21.4011   -6.5637   23.8209 C   0  0  0  0  0  0
  -21.3660   -5.6792   24.9172 C   0  0  0  0  0  0
  -21.6043   -4.3051   24.7222 C   0  0  0  0  0  0
  -21.8823   -3.8143   23.4346 C   0  0  0  0  0  0
  -21.9189   -4.6959   22.3397 C   0  0  0  0  0  0
  -22.7863  -13.5242   21.1822 C   0  0  0  0  0  0
  -22.1661   -4.2143   21.0974 F   0  0  0  0  0  0
  -21.5628   -3.4537   25.7736 F   0  0  0  0  0  0
  -30.0462  -13.2475   20.4510 N   0  0  0  0  0  0
  -26.3044  -12.9333   20.3385 N   0  0  0  0  0  0
  -25.9323  -11.6495   20.5772 N   0  0  0  0  0  0
  -22.0508  -12.8229   22.0381 N   0  0  0  0  0  0
  -25.4337  -15.1873   20.4088 N   0  0  0  0  0  0
  -31.8296  -14.5895   20.0395 O   0  0  0  0  0  0
  -21.6637   -6.8872   21.4239 O   0  0  0  0  0  0
  -22.3543  -14.5546   20.6670 O   0  0  0  0  0  0
  -24.6091  -31.8737   23.2121 C   0  0  0  0  0  0
  -25.9014  -32.4853   23.8411 C   0  0  1  0  0  0
  -27.2393  -27.4749   20.0969 C   0  0  0  0  0  0
  -25.5870  -33.8644   24.2344 N   0  0  0  0  0  0
  -23.3954  -30.4930   21.5534 C   0  0  2  0  0  0
  -24.8444  -28.9601   20.1185 C   0  0  0  0  0  0
  -22.7389  -29.4672   22.5037 C   0  0  0  0  0  0
  -18.0268  -28.1369   22.8506 C   0  0  0  0  0  0
  -24.1487  -36.7333   23.2641 C   0  0  0  0  0  0
  -25.9165  -30.8475   21.3614 C   0  0  0  0  0  0
  -25.9971  -29.4806   20.7199 C   0  0  0  0  0  0
  -27.1968  -28.7406   20.7181 C   0  0  0  0  0  0
  -26.0804  -26.9633   19.4822 C   0  0  0  0  0  0
  -24.8774  -27.6964   19.5004 C   0  0  0  0  0  0
  -23.6015  -29.8196   20.1687 C   0  0  0  0  0  0
  -25.4101  -36.3128   24.0345 C   0  0  1  0  0  0
  -20.5850  -28.3648   23.1348 C   0  0  2  0  0  0
  -20.6762  -26.9397   22.5420 C   0  0  0  0  0  0
  -19.5745  -26.6393   21.5215 C   0  0  0  0  0  0
  -18.1923  -26.7923   22.1631 C   0  0  0  0  0  0
  -19.1514  -28.8832   23.2919 C   0  0  0  0  0  0
  -18.9448  -30.1441   23.8915 C   0  0  0  0  0  0
  -17.6450  -30.6580   24.0571 C   0  0  0  0  0  0
  -25.9025  -34.9492   23.5143 C   0  0  0  0  0  0
  -16.5343  -29.9081   23.6324 C   0  0  0  0  0  0
  -16.7260  -28.6499   23.0340 C   0  0  0  0  0  0
  -26.4447  -31.6609   25.0719 C   0  0  0  0  0  0
  -25.3719  -31.3689   26.1473 C   0  0  0  0  0  0
  -27.0282  -30.3069   24.6046 C   0  0  0  0  0  0
  -27.6046  -32.4307   25.7465 C   0  0  0  0  0  0
  -27.5582  -37.1814   24.8459 C   0  0  0  0  0  0
  -21.4128  -29.3015   22.3764 N   0  0  0  0  0  0
  -26.4293  -37.3803   23.9403 N   0  0  0  0  0  0
  -24.6582  -31.0853   22.1014 N   0  0  0  0  0  0
  -23.4181  -28.8222   23.3066 O   0  0  0  0  0  0
  -28.3974  -26.7438   20.0369 O   0  0  0  0  0  0
  -26.5597  -34.8933   22.4708 O   0  0  0  0  0  0
  -23.5297  -32.1483   23.7537 O   0  0  0  0  0  0
  -29.6247  -17.5873   21.8871 C   0  0  0  0  0  0
  -29.9538  -18.9524   22.0057 C   0  0  0  0  0  0
  -31.3235  -19.3199   21.9443 C   0  0  0  0  0  0
  -32.2847  -18.2835   21.8435 C   0  0  0  0  0  0
  -30.6329  -16.6280   21.6832 C   0  0  0  0  0  0
  -31.7686  -20.7796   21.9431 C   0  0  0  0  0  0
  -34.3367  -18.3770   20.3614 C   0  0  0  0  0  0
  -34.5731  -17.6712   22.7993 C   0  0  0  0  0  0
  -28.8144  -19.9607   22.1420 C   0  0  0  0  0  0
  -28.5686  -20.4634   23.5871 C   0  0  0  0  0  0
  -28.1676  -24.9765   21.6680 C   0  0  0  0  0  0
  -28.9715  -21.9300   23.8540 C   0  0  0  0  0  0
  -28.8452  -24.1980   22.8116 C   0  0  0  0  0  0
  -28.8948  -26.2783   21.2891 C   0  0  0  0  0  0
  -33.7964  -18.5375   21.7910 C   0  0  0  0  0  0
  -31.9325  -16.9893   21.7073 N   0  0  0  0  0  0
  -30.2062  -15.2955   21.4542 N   0  0  0  0  0  0
  -28.2003  -22.8811   23.0206 N   0  3  0  0  0  0
  -31.4560  -12.3563   19.0970 H   0  0  0  0  0  0
  -30.2991  -11.2621   19.7886 H   0  0  0  0  0  0
  -29.7124  -11.7851   17.4078 H   0  0  0  0  0  0
  -29.6608  -13.4923   17.7710 H   0  0  0  0  0  0
  -27.8108  -11.3146   18.8040 H   0  0  0  0  0  0
  -27.3568  -12.6553   17.7874 H   0  0  0  0  0  0
  -27.7195  -14.2556   19.5942 H   0  0  0  0  0  0
  -28.6670  -11.9240   21.3268 H   0  0  0  0  0  0
  -28.4636  -13.5528   21.8803 H   0  0  0  0  0  0
  -25.2763   -9.5678   22.4742 H   0  0  0  0  0  0
  -23.9994   -7.4635   22.7477 H   0  0  0  0  0  0
  -21.0834   -8.8761   19.8951 H   0  0  0  0  0  0
  -22.3688  -10.9659   19.6150 H   0  0  0  0  0  0
  -21.2012   -7.6147   23.9706 H   0  0  0  0  0  0
  -21.1479   -6.0523   25.9070 H   0  0  0  0  0  0
  -22.0604   -2.7606   23.2845 H   0  0  0  0  0  0
  -22.4131  -11.9895   22.4774 H   0  0  0  0  0  0
  -21.1118  -13.1237   22.2578 H   0  0  0  0  0  0
  -24.6708  -15.8466   20.5201 H   0  0  0  0  0  0
  -26.2879  -15.6229   20.0842 H   0  0  0  0  0  0
  -26.7093  -32.5587   23.1195 H   0  0  0  0  0  0
  -24.9966  -33.9788   25.0457 H   0  0  0  0  0  0
  -22.6824  -31.3078   21.4144 H   0  0  0  0  0  0
  -23.3737  -35.9681   23.3309 H   0  0  0  0  0  0
  -24.3587  -36.8940   22.2052 H   0  0  0  0  0  0
  -23.7251  -37.6546   23.6652 H   0  0  0  0  0  0
  -26.0143  -31.6097   20.5878 H   0  0  0  0  0  0
  -26.8102  -30.9123   21.9700 H   0  0  0  0  0  0
  -28.0890  -29.1445   21.1758 H   0  0  0  0  0  0
  -26.1108  -26.0005   18.9925 H   0  0  0  0  0  0
  -23.9915  -27.2911   19.0303 H   0  0  0  0  0  0
  -23.6998  -30.5909   19.4038 H   0  0  0  0  0  0
  -22.7287  -29.2303   19.8807 H   0  0  0  0  0  0
  -25.1271  -36.2002   25.0839 H   0  0  0  0  0  0
  -20.9936  -28.3203   24.1469 H   0  0  0  0  0  0
  -20.5683  -26.2255   23.3595 H   0  0  0  0  0  0
  -21.6634  -26.7458   22.1207 H   0  0  0  0  0  0
  -19.6915  -25.6317   21.1220 H   0  0  0  0  0  0
  -19.6686  -27.3227   20.6763 H   0  0  0  0  0  0
  -17.4196  -26.6686   21.4021 H   0  0  0  0  0  0
  -18.0308  -26.0047   22.9001 H   0  0  0  0  0  0
  -19.7925  -30.7246   24.2293 H   0  0  0  0  0  0
  -17.5010  -31.6262   24.5170 H   0  0  0  0  0  0
  -15.5348  -30.2987   23.7648 H   0  0  0  0  0  0
  -15.8657  -28.0834   22.7032 H   0  0  0  0  0  0
  -24.5884  -30.7052   25.7789 H   0  0  0  0  0  0
  -24.8919  -32.2840   26.4952 H   0  0  0  0  0  0
  -25.8079  -30.8825   27.0212 H   0  0  0  0  0  0
  -26.2818  -29.6822   24.1130 H   0  0  0  0  0  0
  -27.4115  -29.7294   25.4468 H   0  0  0  0  0  0
  -27.8615  -30.4406   23.9145 H   0  0  0  0  0  0
  -27.2683  -33.3591   26.2085 H   0  0  0  0  0  0
  -28.3820  -32.6889   25.0261 H   0  0  0  0  0  0
  -28.0752  -31.8403   26.5335 H   0  0  0  0  0  0
  -28.2594  -38.0114   24.7498 H   0  0  0  0  0  0
  -28.1086  -36.2649   24.6287 H   0  0  0  0  0  0
  -27.2301  -37.1435   25.8861 H   0  0  0  0  0  0
  -20.9299  -29.8717   21.6965 H   0  0  0  0  0  0
  -26.0199  -38.2895   24.1388 H   0  0  0  0  0  0
  -28.5865  -17.2843   21.8949 H   0  0  0  0  0  0
  -30.9700  -21.4779   21.7105 H   0  0  0  0  0  0
  -32.5250  -20.9505   21.1767 H   0  0  0  0  0  0
  -32.1939  -21.0533   22.9092 H   0  0  0  0  0  0
  -33.8412  -19.0696   19.6807 H   0  0  0  0  0  0
  -34.1688  -17.3677   19.9848 H   0  0  0  0  0  0
  -35.4070  -18.5771   20.3165 H   0  0  0  0  0  0
  -34.2039  -17.8249   23.8134 H   0  0  0  0  0  0
  -35.6348  -17.9189   22.7943 H   0  0  0  0  0  0
  -34.4837  -16.6092   22.5693 H   0  0  0  0  0  0
  -27.9018  -19.4667   21.8050 H   0  0  0  0  0  0
  -28.9392  -20.7733   21.4287 H   0  0  0  0  0  0
  -29.0745  -19.8060   24.2960 H   0  0  0  0  0  0
  -27.5072  -20.3580   23.8165 H   0  0  0  0  0  0
  -27.1306  -25.1983   21.9240 H   0  0  0  0  0  0
  -28.1372  -24.3413   20.7814 H   0  0  0  0  0  0
  -30.0416  -22.0526   23.6970 H   0  0  0  0  0  0
  -28.7996  -22.1765   24.9027 H   0  0  0  0  0  0
  -28.8266  -24.7724   23.7388 H   0  0  0  0  0  0
  -29.8954  -24.0465   22.5585 H   0  0  0  0  0  0
  -29.9607  -26.0874   21.1618 H   0  0  0  0  0  0
  -28.8086  -27.0234   22.0817 H   0  0  0  0  0  0
  -33.9991  -19.5620   22.0959 H   0  0  0  0  0  0
  -29.3014  -15.0450   21.8167 H   0  0  0  0  0  0
  -27.2884  -23.0131   23.4317 H   0  0  0  0  0  0
  -28.0650  -22.4615   22.1159 H   0  0  0  0  0  0
  1 25  1  0  0  0
  1 30  2  0  0  0
  1 87  1  0  0  0
  2  3  1  0  0  0
  2 25  1  0  0  0
  2 89  1  0  0  0
  2 90  1  0  0  0
  3  4  1  0  0  0
  3 91  1  0  0  0
  3 92  1  0  0  0
  4  5  1  0  0  0
  4 93  1  0  0  0
  4 94  1  0  0  0
  5  6  1  0  0  0
  5 26  1  0  0  0
  5 95  1  0  0  0
  6 25  1  0  0  0
  6 96  1  0  0  0
  6 97  1  0  0  0
  7  8  2  0  0  0
  7 26  1  0  0  0
  7 29  1  0  0  0
  8  9  1  0  0  0
  8 22  1  0  0  0
  9 10  1  0  0  0
  9 27  2  0  0  0
 10 11  2  0  0  0
 10 15  1  0  0  0
 11 12  1  0  0  0
 11 98  1  0  0  0
 12 13  2  0  0  0
 12 99  1  0  0  0
 13 14  1  0  0  0
 13 31  1  0  0  0
 14 15  2  0  0  0
 14100  1  0  0  0
 15101  1  0  0  0
 16 17  2  0  0  0
 16 21  1  0  0  0
 16 31  1  0  0  0
 17 18  1  0  0  0
 17102  1  0  0  0
 18 19  2  0  0  0
 18103  1  0  0  0
 19 20  1  0  0  0
 19 24  1  0  0  0
 20 21  2  0  0  0
 20104  1  0  0  0
 21 23  1  0  0  0
 22 28  1  0  0  0
 22 32  2  0  0  0
 26 27  1  0  0  0
 28105  1  0  0  0
 28106  1  0  0  0
 29107  1  0  0  0
 29108  1  0  0  0
 33 34  1  0  0  0
 33 66  1  0  0  0
 33 70  2  0  0  0
 34 36  1  0  0  0
 34 59  1  0  0  0
 34109  1  0  0  0
 35 44  2  0  0  0
 35 45  1  0  0  0
 35 68  1  0  0  0
 36 56  1  0  0  0
 36110  1  0  0  0
 37 39  1  0  0  0
 37 47  1  0  0  0
 37 66  1  0  0  0
 37111  1  0  0  0
 38 43  2  0  0  0
 38 46  1  0  0  0
 38 47  1  0  0  0
 39 64  1  0  0  0
 39 67  2  0  0  0
 40 52  1  0  0  0
 40 53  2  0  0  0
 40 58  1  0  0  0
 41112  1  0  0  0
 41113  1  0  0  0
 41114  1  0  0  0
 41 48  1  0  0  0
 42 43  1  0  0  0
 42 66  1  0  0  0
 42115  1  0  0  0
 42116  1  0  0  0
 43 44  1  0  0  0
 44117  1  0  0  0
 45 46  2  0  0  0
 45118  1  0  0  0
 46119  1  0  0  0
 47120  1  0  0  0
 47121  1  0  0  0
 48 56  1  0  0  0
 48 65  1  0  0  0
 48122  1  0  0  0
 49 50  1  0  0  0
 49 53  1  0  0  0
 49 64  1  0  0  0
 49123  1  0  0  0
 50 51  1  0  0  0
 50124  1  0  0  0
 50125  1  0  0  0
 51 52  1  0  0  0
 51126  1  0  0  0
 51127  1  0  0  0
 52128  1  0  0  0
 52129  1  0  0  0
 53 54  1  0  0  0
 54 55  2  0  0  0
 54130  1  0  0  0
 55 57  1  0  0  0
 55131  1  0  0  0
 56 69  2  0  0  0
 57 58  2  0  0  0
 57132  1  0  0  0
 58133  1  0  0  0
 59 60  1  0  0  0
 59 61  1  0  0  0
 59 62  1  0  0  0
 60134  1  0  0  0
 60135  1  0  0  0
 60136  1  0  0  0
 61137  1  0  0  0
 61138  1  0  0  0
 61139  1  0  0  0
 62140  1  0  0  0
 62141  1  0  0  0
 62142  1  0  0  0
 63 65  1  0  0  0
 63143  1  0  0  0
 63144  1  0  0  0
 63145  1  0  0  0
 64146  1  0  0  0
 65147  1  0  0  0
 68 84  1  0  0  0
 71 72  2  0  0  0
 71 75  1  0  0  0
 71148  1  0  0  0
 72 73  1  0  0  0
 72 79  1  0  0  0
 73 74  2  0  0  0
 73 76  1  0  0  0
 74 85  1  0  0  0
 74 86  1  0  0  0
 75 86  2  0  0  0
 75 87  1  0  0  0
 76149  1  0  0  0
 76150  1  0  0  0
 76151  1  0  0  0
 77152  1  0  0  0
 77153  1  0  0  0
 77154  1  0  0  0
 77 85  1  0  0  0
 78 85  1  0  0  0
 78155  1  0  0  0
 78156  1  0  0  0
 78157  1  0  0  0
 79 80  1  0  0  0
 79158  1  0  0  0
 79159  1  0  0  0
 80 82  1  0  0  0
 80160  1  0  0  0
 80161  1  0  0  0
 81 83  1  0  0  0
 81 84  1  0  0  0
 81162  1  0  0  0
 81163  1  0  0  0
 82 88  1  0  0  0
 82164  1  0  0  0
 82165  1  0  0  0
 83 88  1  0  0  0
 83166  1  0  0  0
 83167  1  0  0  0
 84168  1  0  0  0
 84169  1  0  0  0
 85170  1  0  0  0
 87171  1  0  0  0
 88172  1  0  0  0
 88173  1  0  0  0
M  CHG  1  88   1
M  ISO  4   1 100  68 101  84 101  87 100
M  END
> <chiral flag>
0

> <version>
0

> <s_m_source_file>
/data/baiqing/PycharmProjects/Reinvent-master-3.2/result/LINK_invent/BTK/process_docking_weight1_custom_sum_contain_oxygen_bond_distance_aromatic_linkinvent_7_9_3/rearranged_h_0089.sdf

> <i_m_source_file_index>
34

> <r_mmod_Potential_Energy-OPLS-2005>
-404.46728515625

> <r_mmod_Stretch_Energy-OPLS-2005>
34.324275970459

> <r_mmod_Bend_Energy-OPLS-2005>
99.5683746337891

> <r_mmod_Torsional_Energy-OPLS-2005>
232.273315429688

> <r_mmod_Improper_Torsional_Energy-OPLS-2005>
2.59066438674927

> <r_mmod_Van_der_Waal_Energy-OPLS-2005>
157.623825073242

> <r_mmod_Electrostatic_Energy-OPLS-2005>
-434.766052246094

> <r_mmod_Solvation_Energy-OPLS-2005>
-503.206665039062

> <b_mmod_Minimization_Converged-OPLS-2005>
0

> <r_mmod_RMS_Derivative-OPLS-2005>
1.64392817020416

$$$$
35
                    3D
 Structure written by MMmdl.
157165  0  0  1  0            999 V2000
  -30.6112  -14.7301   20.4623 C   0  0  0  0  0  0
  -30.4333  -12.4461   19.4718 C   0  0  0  0  0  0
  -29.5103  -12.5080   18.2348 C   0  0  0  0  0  0
  -28.0360  -12.3323   18.6484 C   0  0  0  0  0  0
  -27.6436  -13.2287   19.8531 C   0  0  2  0  0  0
  -28.6877  -13.1537   20.9886 C   0  0  0  0  0  0
  -25.2517  -13.8192   20.5690 C   0  0  0  0  0  0
  -24.1806  -13.0441   20.9206 C   0  0  0  0  0  0
  -24.6393  -11.6917   20.8747 C   0  0  0  0  0  0
  -23.9068  -10.4295   21.0406 C   0  0  0  0  0  0
  -24.3621   -9.4209   21.9183 C   0  0  0  0  0  0
  -23.6298   -8.2244   22.0752 C   0  0  0  0  0  0
  -22.4281   -8.0282   21.3542 C   0  0  0  0  0  0
  -21.9916   -9.0255   20.4644 C   0  0  0  0  0  0
  -22.7242  -10.2136   20.3053 C   0  0  0  0  0  0
  -21.6855   -6.0739   22.5278 C   0  0  0  0  0  0
  -21.4016   -6.5641   23.8213 C   0  0  0  0  0  0
  -21.3659   -5.6793   24.9174 C   0  0  0  0  0  0
  -21.6044   -4.3056   24.7223 C   0  0  0  0  0  0
  -21.8820   -3.8150   23.4343 C   0  0  0  0  0  0
  -21.9195   -4.6967   22.3401 C   0  0  0  0  0  0
  -22.7829  -13.5224   21.1872 C   0  0  0  0  0  0
  -22.1661   -4.2152   21.0978 F   0  0  0  0  0  0
  -21.5631   -3.4537   25.7733 F   0  0  0  0  0  0
  -29.9904  -13.5033   20.4089 N   0  0  0  0  0  0
  -26.2943  -12.9390   20.3287 N   0  0  0  0  0  0
  -25.9323  -11.6536   20.5755 N   0  0  0  0  0  0
  -22.0473  -12.8211   22.0424 N   0  0  0  0  0  0
  -25.4215  -15.1916   20.4096 N   0  0  0  0  0  0
  -31.7957  -14.8376   20.1344 O   0  0  0  0  0  0
  -21.6641   -6.8881   21.4240 O   0  0  0  0  0  0
  -22.3510  -14.5529   20.6721 O   0  0  0  0  0  0
  -24.6303  -31.8553   23.1973 C   0  0  0  0  0  0
  -25.9130  -32.4752   23.8323 C   0  0  1  0  0  0
  -27.2221  -27.2657   20.1218 C   0  0  0  0  0  0
  -25.5928  -33.8555   24.2251 N   0  0  0  0  0  0
  -23.4259  -30.4773   21.5410 C   0  0  2  0  0  0
  -24.8710  -28.9220   20.1101 C   0  0  0  0  0  0
  -22.7495  -29.4601   22.4916 C   0  0  0  0  0  0
  -18.0288  -28.1385   22.8485 C   0  0  0  0  0  0
  -24.1489  -36.7284   23.2641 C   0  0  0  0  0  0
  -25.9705  -30.7694   21.3750 C   0  0  0  0  0  0
  -26.0412  -29.3916   20.7177 C   0  0  0  0  0  0
  -27.2152  -28.5750   20.7121 C   0  0  0  0  0  0
  -26.0227  -26.8560   19.4958 C   0  0  0  0  0  0
  -24.8667  -27.6625   19.4911 C   0  0  0  0  0  0
  -23.6425  -29.8092   20.1575 C   0  0  0  0  0  0
  -25.4116  -36.3069   24.0326 C   0  0  1  0  0  0
  -20.5892  -28.3693   23.1273 C   0  0  2  0  0  0
  -20.6776  -26.9414   22.5409 C   0  0  0  0  0  0
  -19.5752  -26.6382   21.5211 C   0  0  0  0  0  0
  -18.1932  -26.7926   22.1623 C   0  0  0  0  0  0
  -19.1542  -28.8856   23.2871 C   0  0  0  0  0  0
  -18.9465  -30.1456   23.8892 C   0  0  0  0  0  0
  -17.6465  -30.6587   24.0562 C   0  0  0  0  0  0
  -25.9056  -34.9439   23.5093 C   0  0  0  0  0  0
  -16.5356  -29.9087   23.6328 C   0  0  0  0  0  0
  -16.7275  -28.6502   23.0353 C   0  0  0  0  0  0
  -26.4501  -31.6577   25.0713 C   0  0  0  0  0  0
  -25.3724  -31.3730   26.1434 C   0  0  0  0  0  0
  -27.0350  -30.2994   24.6198 C   0  0  0  0  0  0
  -27.6049  -32.4324   25.7491 C   0  0  0  0  0  0
  -27.5579  -37.1798   24.8466 C   0  0  0  0  0  0
  -21.4202  -29.3042   22.3663 N   0  0  0  0  0  0
  -26.4290  -37.3768   23.9408 N   0  0  0  0  0  0
  -24.6949  -31.0524   22.0942 N   0  0  0  0  0  0
  -23.4199  -28.8147   23.3016 O   0  0  0  0  0  0
  -28.3548  -26.4230   20.1909 O   0  0  0  0  0  0
  -26.5634  -34.8917   22.4665 O   0  0  0  0  0  0
  -23.5455  -32.1376   23.7274 O   0  0  0  0  0  0
  -28.5372  -21.1145   20.7216 C   0  0  0  0  0  0
  -29.3518  -20.0412   20.3476 C   0  0  0  0  0  0
  -30.4677  -20.6965   19.7254 C   0  0  0  0  0  0
  -30.3066  -22.0714   19.8040 C   0  0  0  0  0  0
  -31.6483  -19.9956   19.0980 C   0  0  0  0  0  0
  -31.2526  -23.1524   19.3748 C   0  0  0  0  0  0
  -29.0688  -18.4729   20.5352 C   0  0  0  0  0  0
  -28.5440  -23.7718   20.7801 C   0  0  0  0  0  0
  -30.2194  -17.3307   20.4957 C   0  0  0  0  0  0
  -28.4082  -24.9918   19.7249 C   0  0  0  0  0  0
  -29.0831  -22.3819   20.3951 N   0  0  0  0  0  0
  -29.8351  -15.8589   20.6703 N   0  0  0  0  0  0
  -31.4745  -12.5712   19.1694 H   0  0  0  0  0  0
  -30.3764  -11.4670   19.9500 H   0  0  0  0  0  0
  -29.7916  -11.7379   17.5155 H   0  0  0  0  0  0
  -29.6386  -13.4647   17.7255 H   0  0  0  0  0  0
  -27.8920  -11.2834   18.9093 H   0  0  0  0  0  0
  -27.3784  -12.5267   17.8003 H   0  0  0  0  0  0
  -27.6414  -14.2520   19.4777 H   0  0  0  0  0  0
  -28.7193  -12.1534   21.4227 H   0  0  0  0  0  0
  -28.4251  -13.8317   21.8024 H   0  0  0  0  0  0
  -25.2765   -9.5688   22.4758 H   0  0  0  0  0  0
  -24.0012   -7.4632   22.7468 H   0  0  0  0  0  0
  -21.0850   -8.8773   19.8947 H   0  0  0  0  0  0
  -22.3700  -10.9676   19.6164 H   0  0  0  0  0  0
  -21.2005   -7.6149   23.9720 H   0  0  0  0  0  0
  -21.1481   -6.0519   25.9078 H   0  0  0  0  0  0
  -22.0600   -2.7612   23.2840 H   0  0  0  0  0  0
  -22.4090  -11.9874   22.4812 H   0  0  0  0  0  0
  -21.1088  -13.1231   22.2628 H   0  0  0  0  0  0
  -24.6531  -15.8450   20.5156 H   0  0  0  0  0  0
  -26.2645  -15.6285   20.0599 H   0  0  0  0  0  0
  -26.7195  -32.5401   23.1063 H   0  0  0  0  0  0
  -25.0063  -33.9693   25.0389 H   0  0  0  0  0  0
  -22.7218  -31.2991   21.3946 H   0  0  0  0  0  0
  -23.3751  -35.9616   23.3301 H   0  0  0  0  0  0
  -24.3579  -36.8910   22.2055 H   0  0  0  0  0  0
  -23.7243  -37.6484   23.6669 H   0  0  0  0  0  0
  -26.1089  -31.5296   20.6049 H   0  0  0  0  0  0
  -26.8485  -30.8182   22.0077 H   0  0  0  0  0  0
  -28.1131  -28.9321   21.1969 H   0  0  0  0  0  0
  -25.9299  -25.8947   19.0182 H   0  0  0  0  0  0
  -23.9675  -27.2959   19.0151 H   0  0  0  0  0  0
  -23.7674  -30.5843   19.4004 H   0  0  0  0  0  0
  -22.7605  -29.2427   19.8533 H   0  0  0  0  0  0
  -25.1298  -36.1916   25.0819 H   0  0  0  0  0  0
  -20.9983  -28.3270   24.1394 H   0  0  0  0  0  0
  -20.5672  -26.2306   23.3612 H   0  0  0  0  0  0
  -21.6644  -26.7436   22.1206 H   0  0  0  0  0  0
  -19.6917  -25.6291   21.1243 H   0  0  0  0  0  0
  -19.6689  -27.3189   20.6739 H   0  0  0  0  0  0
  -17.4202  -26.6669   21.4025 H   0  0  0  0  0  0
  -18.0335  -26.0068   22.9021 H   0  0  0  0  0  0
  -19.7942  -30.7270   24.2261 H   0  0  0  0  0  0
  -17.5021  -31.6267   24.5164 H   0  0  0  0  0  0
  -15.5356  -30.2991   23.7652 H   0  0  0  0  0  0
  -15.8673  -28.0819   22.7076 H   0  0  0  0  0  0
  -24.5901  -30.7075   25.7765 H   0  0  0  0  0  0
  -24.8914  -32.2900   26.4845 H   0  0  0  0  0  0
  -25.8042  -30.8919   27.0219 H   0  0  0  0  0  0
  -26.2933  -29.6735   24.1219 H   0  0  0  0  0  0
  -27.4028  -29.7261   25.4718 H   0  0  0  0  0  0
  -27.8811  -30.4267   23.9442 H   0  0  0  0  0  0
  -27.2647  -33.3628   26.2053 H   0  0  0  0  0  0
  -28.3868  -32.6880   25.0326 H   0  0  0  0  0  0
  -28.0708  -31.8460   26.5421 H   0  0  0  0  0  0
  -28.2595  -38.0096   24.7508 H   0  0  0  0  0  0
  -28.1075  -36.2625   24.6297 H   0  0  0  0  0  0
  -27.2297  -37.1452   25.8870 H   0  0  0  0  0  0
  -20.9388  -29.8767   21.6871 H   0  0  0  0  0  0
  -26.0168  -38.2842   24.1403 H   0  0  0  0  0  0
  -27.5825  -21.0865   21.2319 H   0  0  0  0  0  0
  -31.3089  -19.2701   18.3592 H   0  0  0  0  0  0
  -32.2325  -19.4756   19.8576 H   0  0  0  0  0  0
  -32.3107  -20.6890   18.5817 H   0  0  0  0  0  0
  -32.2846  -22.8035   19.3792 H   0  0  0  0  0  0
  -31.2179  -24.0104   20.0459 H   0  0  0  0  0  0
  -31.0220  -23.4931   18.3654 H   0  0  0  0  0  0
  -28.3287  -18.2150   19.7772 H   0  0  0  0  0  0
  -28.5423  -18.3747   21.4849 H   0  0  0  0  0  0
  -27.5707  -23.6274   21.2493 H   0  0  0  0  0  0
  -29.1886  -24.1239   21.5856 H   0  0  0  0  0  0
  -30.9662  -17.5649   21.2553 H   0  0  0  0  0  0
  -30.7390  -17.3969   19.5405 H   0  0  0  0  0  0
  -27.6178  -24.7484   19.0210 H   0  0  0  0  0  0
  -29.2968  -24.9747   19.0987 H   0  0  0  0  0  0
  -28.8712  -15.6774   20.9063 H   0  0  0  0  0  0
  1 25  1  0  0  0
  1 30  2  0  0  0
  1 82  1  0  0  0
  2  3  1  0  0  0
  2 25  1  0  0  0
  2 83  1  0  0  0
  2 84  1  0  0  0
  3  4  1  0  0  0
  3 85  1  0  0  0
  3 86  1  0  0  0
  4  5  1  0  0  0
  4 87  1  0  0  0
  4 88  1  0  0  0
  5  6  1  0  0  0
  5 26  1  0  0  0
  5 89  1  0  0  0
  6 25  1  0  0  0
  6 90  1  0  0  0
  6 91  1  0  0  0
  7  8  2  0  0  0
  7 26  1  0  0  0
  7 29  1  0  0  0
  8  9  1  0  0  0
  8 22  1  0  0  0
  9 10  1  0  0  0
  9 27  2  0  0  0
 10 11  2  0  0  0
 10 15  1  0  0  0
 11 12  1  0  0  0
 11 92  1  0  0  0
 12 13  2  0  0  0
 12 93  1  0  0  0
 13 14  1  0  0  0
 13 31  1  0  0  0
 14 15  2  0  0  0
 14 94  1  0  0  0
 15 95  1  0  0  0
 16 17  2  0  0  0
 16 21  1  0  0  0
 16 31  1  0  0  0
 17 18  1  0  0  0
 17 96  1  0  0  0
 18 19  2  0  0  0
 18 97  1  0  0  0
 19 20  1  0  0  0
 19 24  1  0  0  0
 20 21  2  0  0  0
 20 98  1  0  0  0
 21 23  1  0  0  0
 22 28  1  0  0  0
 22 32  2  0  0  0
 26 27  1  0  0  0
 28 99  1  0  0  0
 28100  1  0  0  0
 29101  1  0  0  0
 29102  1  0  0  0
 33 34  1  0  0  0
 33 66  1  0  0  0
 33 70  2  0  0  0
 34 36  1  0  0  0
 34 59  1  0  0  0
 34103  1  0  0  0
 35 44  2  0  0  0
 35 45  1  0  0  0
 35 68  1  0  0  0
 36 56  1  0  0  0
 36104  1  0  0  0
 37 39  1  0  0  0
 37 47  1  0  0  0
 37 66  1  0  0  0
 37105  1  0  0  0
 38 43  2  0  0  0
 38 46  1  0  0  0
 38 47  1  0  0  0
 39 64  1  0  0  0
 39 67  2  0  0  0
 40 52  1  0  0  0
 40 53  2  0  0  0
 40 58  1  0  0  0
 41106  1  0  0  0
 41107  1  0  0  0
 41108  1  0  0  0
 41 48  1  0  0  0
 42 43  1  0  0  0
 42 66  1  0  0  0
 42109  1  0  0  0
 42110  1  0  0  0
 43 44  1  0  0  0
 44111  1  0  0  0
 45 46  2  0  0  0
 45112  1  0  0  0
 46113  1  0  0  0
 47114  1  0  0  0
 47115  1  0  0  0
 48 56  1  0  0  0
 48 65  1  0  0  0
 48116  1  0  0  0
 49 50  1  0  0  0
 49 53  1  0  0  0
 49 64  1  0  0  0
 49117  1  0  0  0
 50 51  1  0  0  0
 50118  1  0  0  0
 50119  1  0  0  0
 51 52  1  0  0  0
 51120  1  0  0  0
 51121  1  0  0  0
 52122  1  0  0  0
 52123  1  0  0  0
 53 54  1  0  0  0
 54 55  2  0  0  0
 54124  1  0  0  0
 55 57  1  0  0  0
 55125  1  0  0  0
 56 69  2  0  0  0
 57 58  2  0  0  0
 57126  1  0  0  0
 58127  1  0  0  0
 59 60  1  0  0  0
 59 61  1  0  0  0
 59 62  1  0  0  0
 60128  1  0  0  0
 60129  1  0  0  0
 60130  1  0  0  0
 61131  1  0  0  0
 61132  1  0  0  0
 61133  1  0  0  0
 62134  1  0  0  0
 62135  1  0  0  0
 62136  1  0  0  0
 63 65  1  0  0  0
 63137  1  0  0  0
 63138  1  0  0  0
 63139  1  0  0  0
 64140  1  0  0  0
 65141  1  0  0  0
 68 80  1  0  0  0
 71 72  2  0  0  0
 71 81  1  0  0  0
 71142  1  0  0  0
 72 73  1  0  0  0
 72 77  1  0  0  0
 73 74  2  0  0  0
 73 75  1  0  0  0
 74 76  1  0  0  0
 74 81  1  0  0  0
 75143  1  0  0  0
 75144  1  0  0  0
 75145  1  0  0  0
 76146  1  0  0  0
 76147  1  0  0  0
 76148  1  0  0  0
 77 79  1  0  0  0
 77149  1  0  0  0
 77150  1  0  0  0
 78 80  1  0  0  0
 78 81  1  0  0  0
 78151  1  0  0  0
 78152  1  0  0  0
 79 82  1  0  0  0
 79153  1  0  0  0
 79154  1  0  0  0
 80155  1  0  0  0
 80156  1  0  0  0
 82157  1  0  0  0
M  ISO  4   1 100  68 101  80 101  82 100
M  END
> <chiral flag>
0

> <version>
0

> <s_m_source_file>
/data/baiqing/PycharmProjects/Reinvent-master-3.2/result/LINK_invent/BTK/process_docking_weight1_custom_sum_contain_oxygen_bond_distance_aromatic_linkinvent_7_9_3/rearranged_h_0089.sdf

> <i_m_source_file_index>
35

> <r_mmod_Potential_Energy-OPLS-2005>
88.7981491088867

> <r_mmod_Stretch_Energy-OPLS-2005>
119.155494689941

> <r_mmod_Bend_Energy-OPLS-2005>
180.300445556641

> <r_mmod_Torsional_Energy-OPLS-2005>
207.77326965332

> <r_mmod_Improper_Torsional_Energy-OPLS-2005>
5.89163446426392

> <r_mmod_Van_der_Waal_Energy-OPLS-2005>
117.041526794434

> <r_mmod_Electrostatic_Energy-OPLS-2005>
-400.261352539062

> <r_mmod_Solvation_Energy-OPLS-2005>
-218.53434753418

> <b_mmod_Minimization_Converged-OPLS-2005>
0

> <r_mmod_RMS_Derivative-OPLS-2005>
0.556785702705383

$$$$
36
                    3D
 Structure written by MMmdl.
171179  0  0  1  0            999 V2000
  -30.6115  -14.7085   20.4724 C   0  0  0  0  0  0
  -30.4342  -12.4338   19.4671 C   0  0  0  0  0  0
  -29.5080  -12.5016   18.2323 C   0  0  0  0  0  0
  -28.0343  -12.3303   18.6480 C   0  0  0  0  0  0
  -27.6449  -13.2260   19.8544 C   0  0  2  0  0  0
  -28.6897  -13.1364   20.9889 C   0  0  0  0  0  0
  -25.2529  -13.8183   20.5684 C   0  0  0  0  0  0
  -24.1818  -13.0444   20.9202 C   0  0  0  0  0  0
  -24.6394  -11.6913   20.8754 C   0  0  0  0  0  0
  -23.9074  -10.4283   21.0412 C   0  0  0  0  0  0
  -24.3622   -9.4202   21.9192 C   0  0  0  0  0  0
  -23.6286   -8.2251   22.0766 C   0  0  0  0  0  0
  -22.4273   -8.0284   21.3554 C   0  0  0  0  0  0
  -21.9915   -9.0265   20.4660 C   0  0  0  0  0  0
  -22.7253  -10.2131   20.3063 C   0  0  0  0  0  0
  -21.6846   -6.0738   22.5271 C   0  0  0  0  0  0
  -21.4019   -6.5641   23.8208 C   0  0  0  0  0  0
  -21.3655   -5.6789   24.9170 C   0  0  0  0  0  0
  -21.6045   -4.3053   24.7220 C   0  0  0  0  0  0
  -21.8819   -3.8147   23.4342 C   0  0  0  0  0  0
  -21.9197   -4.6964   22.3398 C   0  0  0  0  0  0
  -22.7834  -13.5228   21.1857 C   0  0  0  0  0  0
  -22.1660   -4.2153   21.0971 F   0  0  0  0  0  0
  -21.5628   -3.4528   25.7734 F   0  0  0  0  0  0
  -29.9929  -13.4837   20.4128 N   0  0  0  0  0  0
  -26.2956  -12.9386   20.3290 N   0  0  0  0  0  0
  -25.9319  -11.6527   20.5770 N   0  0  0  0  0  0
  -22.0473  -12.8224   22.0400 N   0  0  0  0  0  0
  -25.4208  -15.1924   20.4072 N   0  0  0  0  0  0
  -31.7913  -14.8225   20.1295 O   0  0  0  0  0  0
  -21.6638   -6.8889   21.4239 O   0  0  0  0  0  0
  -22.3519  -14.5532   20.6686 O   0  0  0  0  0  0
  -24.6300  -31.8549   23.2015 C   0  0  0  0  0  0
  -25.9135  -32.4763   23.8337 C   0  0  1  0  0  0
  -27.2068  -27.2878   20.1031 C   0  0  0  0  0  0
  -25.5941  -33.8563   24.2277 N   0  0  0  0  0  0
  -23.4241  -30.4812   21.5452 C   0  0  2  0  0  0
  -24.8655  -28.9284   20.1067 C   0  0  0  0  0  0
  -22.7506  -29.4586   22.4904 C   0  0  0  0  0  0
  -18.0282  -28.1386   22.8445 C   0  0  0  0  0  0
  -24.1493  -36.7280   23.2630 C   0  0  0  0  0  0
  -25.9667  -30.7722   21.3758 C   0  0  0  0  0  0
  -26.0390  -29.3966   20.7137 C   0  0  0  0  0  0
  -27.2188  -28.5887   20.6987 C   0  0  0  0  0  0
  -26.0160  -26.8747   19.4726 C   0  0  0  0  0  0
  -24.8562  -27.6740   19.4748 C   0  0  0  0  0  0
  -23.6410  -29.8216   20.1584 C   0  0  0  0  0  0
  -25.4119  -36.3068   24.0316 C   0  0  1  0  0  0
  -20.5873  -28.3687   23.1255 C   0  0  2  0  0  0
  -20.6785  -26.9405   22.5392 C   0  0  0  0  0  0
  -19.5768  -26.6373   21.5190 C   0  0  0  0  0  0
  -18.1936  -26.7928   22.1584 C   0  0  0  0  0  0
  -19.1529  -28.8850   23.2847 C   0  0  0  0  0  0
  -18.9458  -30.1445   23.8880 C   0  0  0  0  0  0
  -17.6457  -30.6593   24.0548 C   0  0  0  0  0  0
  -25.9043  -34.9440   23.5090 C   0  0  0  0  0  0
  -16.5349  -29.9081   23.6321 C   0  0  0  0  0  0
  -16.7265  -28.6507   23.0312 C   0  0  0  0  0  0
  -26.4524  -31.6568   25.0715 C   0  0  0  0  0  0
  -25.3768  -31.3683   26.1447 C   0  0  0  0  0  0
  -27.0374  -30.3002   24.6166 C   0  0  0  0  0  0
  -27.6075  -32.4319   25.7497 C   0  0  0  0  0  0
  -27.5591  -37.1801   24.8464 C   0  0  0  0  0  0
  -21.4192  -29.3041   22.3657 N   0  0  0  0  0  0
  -26.4307  -37.3762   23.9395 N   0  0  0  0  0  0
  -24.6937  -31.0535   22.0980 N   0  0  0  0  0  0
  -23.4212  -28.8076   23.2957 O   0  0  0  0  0  0
  -28.3030  -26.4130   20.0713 O   0  0  0  0  0  0
  -26.5600  -34.8912   22.4644 O   0  0  0  0  0  0
  -23.5460  -32.1343   23.7360 O   0  0  0  0  0  0
  -30.5872  -22.7651   20.7344 C   0  0  0  0  0  0
  -28.9098  -21.0713   20.4165 C   0  0  0  0  0  0
  -29.2766  -22.4738   20.3585 C   0  0  0  0  0  0
  -31.4468  -21.8219   21.3214 C   0  0  0  0  0  0
  -29.7850  -20.0267   20.9377 C   0  0  0  0  0  0
  -31.0440  -20.4552   21.4917 C   0  0  0  0  0  0
  -32.6492  -23.4871   22.8447 C   0  0  0  0  0  0
  -32.1509  -19.9080   23.7640 C   0  0  0  0  0  0
  -33.1956  -18.9975   21.5865 C   0  0  0  0  0  0
  -28.9763  -25.1685   21.9610 C   0  0  0  0  0  0
  -28.4316  -23.7013   19.7994 C   0  0  0  0  0  0
  -32.7875  -22.4201   21.7435 C   0  0  0  0  0  0
  -29.3189  -18.4932   21.0290 C   0  0  0  0  0  0
  -30.2011  -17.2803   20.4120 C   0  0  0  0  0  0
  -31.9119  -19.4674   22.3080 C   0  0  0  0  0  0
  -28.1564  -25.0530   20.6683 C   0  0  2  0  0  0
  -29.8325  -15.8291   20.6967 N   0  0  0  0  0  0
  -31.4748  -12.5619   19.1624 H   0  0  0  0  0  0
  -30.3807  -11.4525   19.9411 H   0  0  0  0  0  0
  -29.7855  -11.7325   17.5100 H   0  0  0  0  0  0
  -29.6373  -13.4593   17.7245 H   0  0  0  0  0  0
  -27.8858  -11.2809   18.9082 H   0  0  0  0  0  0
  -27.3752  -12.5265   17.8010 H   0  0  0  0  0  0
  -27.6481  -14.2506   19.4811 H   0  0  0  0  0  0
  -28.7199  -12.1319   21.4140 H   0  0  0  0  0  0
  -28.4325  -13.8073   21.8096 H   0  0  0  0  0  0
  -25.2757   -9.5672   22.4769 H   0  0  0  0  0  0
  -23.9980   -7.4648   22.7479 H   0  0  0  0  0  0
  -21.0850   -8.8796   19.8958 H   0  0  0  0  0  0
  -22.3719  -10.9681   19.6172 H   0  0  0  0  0  0
  -21.2010   -7.6147   23.9718 H   0  0  0  0  0  0
  -21.1477   -6.0515   25.9076 H   0  0  0  0  0  0
  -22.0605   -2.7607   23.2839 H   0  0  0  0  0  0
  -22.4055  -11.9862   22.4775 H   0  0  0  0  0  0
  -21.1109  -13.1278   22.2628 H   0  0  0  0  0  0
  -24.6463  -15.8404   20.5100 H   0  0  0  0  0  0
  -26.2561  -15.6296   20.0385 H   0  0  0  0  0  0
  -26.7180  -32.5432   23.1050 H   0  0  0  0  0  0
  -25.0135  -33.9678   25.0473 H   0  0  0  0  0  0
  -22.7184  -31.3033   21.4074 H   0  0  0  0  0  0
  -23.3751  -35.9624   23.3298 H   0  0  0  0  0  0
  -24.3562  -36.8908   22.2043 H   0  0  0  0  0  0
  -23.7284  -37.6487   23.6670 H   0  0  0  0  0  0
  -26.0970  -31.5363   20.6082 H   0  0  0  0  0  0
  -26.8470  -30.8220   22.0050 H   0  0  0  0  0  0
  -28.1275  -28.9451   21.1627 H   0  0  0  0  0  0
  -25.9827  -25.9202   18.9677 H   0  0  0  0  0  0
  -23.9608  -27.3161   18.9852 H   0  0  0  0  0  0
  -23.7736  -30.6065   19.4132 H   0  0  0  0  0  0
  -22.7575  -29.2613   19.8505 H   0  0  0  0  0  0
  -25.1308  -36.1886   25.0811 H   0  0  0  0  0  0
  -20.9943  -28.3296   24.1373 H   0  0  0  0  0  0
  -20.5682  -26.2295   23.3596 H   0  0  0  0  0  0
  -21.6660  -26.7435   22.1173 H   0  0  0  0  0  0
  -19.6917  -25.6268   21.1236 H   0  0  0  0  0  0
  -19.6731  -27.3181   20.6718 H   0  0  0  0  0  0
  -17.4191  -26.6630   21.3998 H   0  0  0  0  0  0
  -18.0335  -26.0102   22.9006 H   0  0  0  0  0  0
  -19.7942  -30.7239   24.2276 H   0  0  0  0  0  0
  -17.5022  -31.6276   24.5137 H   0  0  0  0  0  0
  -15.5343  -30.2962   23.7699 H   0  0  0  0  0  0
  -15.8667  -28.0863   22.6986 H   0  0  0  0  0  0
  -24.5947  -30.7012   25.7791 H   0  0  0  0  0  0
  -24.8940  -32.2829   26.4896 H   0  0  0  0  0  0
  -25.8099  -30.8856   27.0214 H   0  0  0  0  0  0
  -26.2937  -29.6709   24.1256 H   0  0  0  0  0  0
  -27.4143  -29.7288   25.4652 H   0  0  0  0  0  0
  -27.8782  -30.4270   23.9337 H   0  0  0  0  0  0
  -27.2681  -33.3626   26.2037 H   0  0  0  0  0  0
  -28.3913  -32.6856   25.0350 H   0  0  0  0  0  0
  -28.0709  -31.8458   26.5431 H   0  0  0  0  0  0
  -28.2585  -38.0123   24.7493 H   0  0  0  0  0  0
  -28.1096  -36.2629   24.6297 H   0  0  0  0  0  0
  -27.2274  -37.1464   25.8863 H   0  0  0  0  0  0
  -20.9355  -29.8849   21.6958 H   0  0  0  0  0  0
  -26.0154  -38.2815   24.1436 H   0  0  0  0  0  0
  -30.9359  -23.7762   20.5969 H   0  0  0  0  0  0
  -27.9306  -20.7883   20.0527 H   0  0  0  0  0  0
  -33.6198  -23.9178   23.0848 H   0  0  0  0  0  0
  -32.2303  -23.0727   23.7613 H   0  0  0  0  0  0
  -32.0073  -24.3114   22.5392 H   0  0  0  0  0  0
  -31.2030  -20.0877   24.2722 H   0  0  0  0  0  0
  -32.7429  -20.8118   23.8610 H   0  0  0  0  0  0
  -32.6741  -19.1293   24.3201 H   0  0  0  0  0  0
  -32.9820  -18.6778   20.5671 H   0  0  0  0  0  0
  -33.6426  -18.1480   22.1054 H   0  0  0  0  0  0
  -33.9703  -19.7524   21.5120 H   0  0  0  0  0  0
  -28.9914  -24.2354   22.5237 H   0  0  0  0  0  0
  -28.5571  -25.9388   22.6098 H   0  0  0  0  0  0
  -30.0021  -25.4621   21.7441 H   0  0  0  0  0  0
  -27.4761  -23.3220   19.4298 H   0  0  0  0  0  0
  -28.9565  -24.0119   18.8962 H   0  0  0  0  0  0
  -33.2258  -22.8935   20.8644 H   0  0  0  0  0  0
  -33.5207  -21.6836   22.0425 H   0  0  0  0  0  0
  -28.3170  -18.4299   20.6036 H   0  0  0  0  0  0
  -29.1629  -18.2846   22.0892 H   0  0  0  0  0  0
  -31.2355  -17.3690   20.7219 H   0  0  0  0  0  0
  -30.2321  -17.4044   19.3299 H   0  0  0  0  0  0
  -31.3406  -18.5608   22.4699 H   0  0  0  0  0  0
  -27.1272  -24.9464   21.0179 H   0  0  0  0  0  0
  -28.8707  -15.6459   20.9441 H   0  0  0  0  0  0
  1 25  1  0  0  0
  1 30  2  0  0  0
  1 87  1  0  0  0
  2  3  1  0  0  0
  2 25  1  0  0  0
  2 88  1  0  0  0
  2 89  1  0  0  0
  3  4  1  0  0  0
  3 90  1  0  0  0
  3 91  1  0  0  0
  4  5  1  0  0  0
  4 92  1  0  0  0
  4 93  1  0  0  0
  5  6  1  0  0  0
  5 26  1  0  0  0
  5 94  1  0  0  0
  6 25  1  0  0  0
  6 95  1  0  0  0
  6 96  1  0  0  0
  7  8  2  0  0  0
  7 26  1  0  0  0
  7 29  1  0  0  0
  8  9  1  0  0  0
  8 22  1  0  0  0
  9 10  1  0  0  0
  9 27  2  0  0  0
 10 11  2  0  0  0
 10 15  1  0  0  0
 11 12  1  0  0  0
 11 97  1  0  0  0
 12 13  2  0  0  0
 12 98  1  0  0  0
 13 14  1  0  0  0
 13 31  1  0  0  0
 14 15  2  0  0  0
 14 99  1  0  0  0
 15100  1  0  0  0
 16 17  2  0  0  0
 16 21  1  0  0  0
 16 31  1  0  0  0
 17 18  1  0  0  0
 17101  1  0  0  0
 18 19  2  0  0  0
 18102  1  0  0  0
 19 20  1  0  0  0
 19 24  1  0  0  0
 20 21  2  0  0  0
 20103  1  0  0  0
 21 23  1  0  0  0
 22 28  1  0  0  0
 22 32  2  0  0  0
 26 27  1  0  0  0
 28104  1  0  0  0
 28105  1  0  0  0
 29106  1  0  0  0
 29107  1  0  0  0
 33 34  1  0  0  0
 33 66  1  0  0  0
 33 70  2  0  0  0
 34 36  1  0  0  0
 34 59  1  0  0  0
 34108  1  0  0  0
 35 44  2  0  0  0
 35 45  1  0  0  0
 35 68  1  0  0  0
 36 56  1  0  0  0
 36109  1  0  0  0
 37 39  1  0  0  0
 37 47  1  0  0  0
 37 66  1  0  0  0
 37110  1  0  0  0
 38 43  2  0  0  0
 38 46  1  0  0  0
 38 47  1  0  0  0
 39 64  1  0  0  0
 39 67  2  0  0  0
 40 52  1  0  0  0
 40 53  2  0  0  0
 40 58  1  0  0  0
 41111  1  0  0  0
 41112  1  0  0  0
 41113  1  0  0  0
 41 48  1  0  0  0
 42 43  1  0  0  0
 42 66  1  0  0  0
 42114  1  0  0  0
 42115  1  0  0  0
 43 44  1  0  0  0
 44116  1  0  0  0
 45 46  2  0  0  0
 45117  1  0  0  0
 46118  1  0  0  0
 47119  1  0  0  0
 47120  1  0  0  0
 48 56  1  0  0  0
 48 65  1  0  0  0
 48121  1  0  0  0
 49 50  1  0  0  0
 49 53  1  0  0  0
 49 64  1  0  0  0
 49122  1  0  0  0
 50 51  1  0  0  0
 50123  1  0  0  0
 50124  1  0  0  0
 51 52  1  0  0  0
 51125  1  0  0  0
 51126  1  0  0  0
 52127  1  0  0  0
 52128  1  0  0  0
 53 54  1  0  0  0
 54 55  2  0  0  0
 54129  1  0  0  0
 55 57  1  0  0  0
 55130  1  0  0  0
 56 69  2  0  0  0
 57 58  2  0  0  0
 57131  1  0  0  0
 58132  1  0  0  0
 59 60  1  0  0  0
 59 61  1  0  0  0
 59 62  1  0  0  0
 60133  1  0  0  0
 60134  1  0  0  0
 60135  1  0  0  0
 61136  1  0  0  0
 61137  1  0  0  0
 61138  1  0  0  0
 62139  1  0  0  0
 62140  1  0  0  0
 62141  1  0  0  0
 63 65  1  0  0  0
 63142  1  0  0  0
 63143  1  0  0  0
 63144  1  0  0  0
 64145  1  0  0  0
 65146  1  0  0  0
 68 86  1  0  0  0
 71 73  2  0  0  0
 71 74  1  0  0  0
 71147  1  0  0  0
 72 73  1  0  0  0
 72 75  2  0  0  0
 72148  1  0  0  0
 73 81  1  0  0  0
 74 76  2  0  0  0
 74 82  1  0  0  0
 75 76  1  0  0  0
 75 83  1  0  0  0
 76 85  1  0  0  0
 77 82  1  0  0  0
 77149  1  0  0  0
 77150  1  0  0  0
 77151  1  0  0  0
 78152  1  0  0  0
 78153  1  0  0  0
 78154  1  0  0  0
 78 85  1  0  0  0
 79 85  1  0  0  0
 79155  1  0  0  0
 79156  1  0  0  0
 79157  1  0  0  0
 80158  1  0  0  0
 80159  1  0  0  0
 80160  1  0  0  0
 80 86  1  0  0  0
 81 86  1  0  0  0
 81161  1  0  0  0
 81162  1  0  0  0
 82163  1  0  0  0
 82164  1  0  0  0
 83 84  1  0  0  0
 83165  1  0  0  0
 83166  1  0  0  0
 84 87  1  0  0  0
 84167  1  0  0  0
 84168  1  0  0  0
 85169  1  0  0  0
 86170  1  0  0  0
 87171  1  0  0  0
M  ISO  4   1 100  68 101  86 101  87 100
M  END
> <chiral flag>
0

> <version>
0

> <s_m_source_file>
/data/baiqing/PycharmProjects/Reinvent-master-3.2/result/LINK_invent/BTK/process_docking_weight1_custom_sum_contain_oxygen_bond_distance_aromatic_linkinvent_7_9_3/rearranged_h_0089.sdf

> <i_m_source_file_index>
36

> <r_mmod_Potential_Energy-OPLS-2005>
153.514694213867

> <r_mmod_Stretch_Energy-OPLS-2005>
123.388778686523

> <r_mmod_Bend_Energy-OPLS-2005>
179.573303222656

> <r_mmod_Torsional_Energy-OPLS-2005>
234.971649169922

> <r_mmod_Improper_Torsional_Energy-OPLS-2005>
6.28451490402222

> <r_mmod_Van_der_Waal_Energy-OPLS-2005>
149.040786743164

> <r_mmod_Electrostatic_Energy-OPLS-2005>
-408.760833740234

> <r_mmod_Solvation_Energy-OPLS-2005>
-200.115661621094

> <b_mmod_Minimization_Converged-OPLS-2005>
0

> <r_mmod_RMS_Derivative-OPLS-2005>
3.81713509559631

$$$$
37
                    3D
 Structure written by MMmdl.
179187  0  0  1  0            999 V2000
  -30.6149  -14.7345   20.4737 C   0  0  0  0  0  0
  -30.4331  -12.4542   19.4656 C   0  0  0  0  0  0
  -29.5071  -12.5066   18.2310 C   0  0  0  0  0  0
  -28.0334  -12.3312   18.6472 C   0  0  0  0  0  0
  -27.6408  -13.2303   19.8506 C   0  0  2  0  0  0
  -28.6867  -13.1606   20.9829 C   0  0  0  0  0  0
  -25.2505  -13.8190   20.5688 C   0  0  0  0  0  0
  -24.1797  -13.0433   20.9206 C   0  0  0  0  0  0
  -24.6388  -11.6909   20.8750 C   0  0  0  0  0  0
  -23.9065  -10.4288   21.0406 C   0  0  0  0  0  0
  -24.3620   -9.4205   21.9183 C   0  0  0  0  0  0
  -23.6295   -8.2241   22.0754 C   0  0  0  0  0  0
  -22.4278   -8.0275   21.3541 C   0  0  0  0  0  0
  -21.9913   -9.0247   20.4644 C   0  0  0  0  0  0
  -22.7237  -10.2125   20.3055 C   0  0  0  0  0  0
  -21.6856   -6.0728   22.5271 C   0  0  0  0  0  0
  -21.4014   -6.5633   23.8207 C   0  0  0  0  0  0
  -21.3667   -5.6790   24.9170 C   0  0  0  0  0  0
  -21.6051   -4.3055   24.7225 C   0  0  0  0  0  0
  -21.8818   -3.8141   23.4347 C   0  0  0  0  0  0
  -21.9193   -4.6957   22.3401 C   0  0  0  0  0  0
  -22.7817  -13.5213   21.1864 C   0  0  0  0  0  0
  -22.1657   -4.2142   21.0978 F   0  0  0  0  0  0
  -21.5641   -3.4534   25.7739 F   0  0  0  0  0  0
  -29.9848  -13.5140   20.3971 N   0  0  0  0  0  0
  -26.2932  -12.9390   20.3288 N   0  0  0  0  0  0
  -25.9322  -11.6532   20.5765 N   0  0  0  0  0  0
  -22.0468  -12.8201   22.0425 N   0  0  0  0  0  0
  -25.4192  -15.1919   20.4087 N   0  0  0  0  0  0
  -31.8073  -14.8309   20.1726 O   0  0  0  0  0  0
  -21.6647   -6.8867   21.4233 O   0  0  0  0  0  0
  -22.3493  -14.5512   20.6700 O   0  0  0  0  0  0
  -24.6305  -31.8556   23.1992 C   0  0  0  0  0  0
  -25.9136  -32.4755   23.8337 C   0  0  1  0  0  0
  -27.2169  -27.2655   20.1278 C   0  0  0  0  0  0
  -25.5934  -33.8557   24.2261 N   0  0  0  0  0  0
  -23.4269  -30.4790   21.5423 C   0  0  2  0  0  0
  -24.8734  -28.9278   20.1075 C   0  0  0  0  0  0
  -22.7496  -29.4608   22.4913 C   0  0  0  0  0  0
  -18.0292  -28.1391   22.8487 C   0  0  0  0  0  0
  -24.1489  -36.7281   23.2643 C   0  0  0  0  0  0
  -25.9723  -30.7692   21.3794 C   0  0  0  0  0  0
  -26.0434  -29.3924   20.7211 C   0  0  0  0  0  0
  -27.2164  -28.5722   20.7227 C   0  0  0  0  0  0
  -26.0286  -26.8757   19.4699 C   0  0  0  0  0  0
  -24.8710  -27.6774   19.4710 C   0  0  0  0  0  0
  -23.6441  -29.8138   20.1576 C   0  0  0  0  0  0
  -25.4118  -36.3073   24.0329 C   0  0  1  0  0  0
  -20.5897  -28.3697   23.1270 C   0  0  2  0  0  0
  -20.6781  -26.9414   22.5410 C   0  0  0  0  0  0
  -19.5755  -26.6385   21.5215 C   0  0  0  0  0  0
  -18.1934  -26.7934   22.1625 C   0  0  0  0  0  0
  -19.1548  -28.8860   23.2876 C   0  0  0  0  0  0
  -18.9468  -30.1460   23.8896 C   0  0  0  0  0  0
  -17.6465  -30.6589   24.0565 C   0  0  0  0  0  0
  -25.9056  -34.9442   23.5097 C   0  0  0  0  0  0
  -16.5356  -29.9084   23.6335 C   0  0  0  0  0  0
  -16.7279  -28.6505   23.0354 C   0  0  0  0  0  0
  -26.4501  -31.6572   25.0723 C   0  0  0  0  0  0
  -25.3717  -31.3722   26.1438 C   0  0  0  0  0  0
  -27.0349  -30.2987   24.6212 C   0  0  0  0  0  0
  -27.6057  -32.4309   25.7495 C   0  0  0  0  0  0
  -27.5580  -37.1799   24.8466 C   0  0  0  0  0  0
  -21.4205  -29.3040   22.3652 N   0  0  0  0  0  0
  -26.4294  -37.3770   23.9409 N   0  0  0  0  0  0
  -24.6958  -31.0525   22.0969 N   0  0  0  0  0  0
  -23.4196  -28.8148   23.3015 O   0  0  0  0  0  0
  -28.3140  -26.3773   20.2087 O   0  0  0  0  0  0
  -26.5627  -34.8916   22.4665 O   0  0  0  0  0  0
  -23.5458  -32.1377   23.7288 O   0  0  0  0  0  0
  -30.0336  -21.7663   22.8665 C   0  0  0  0  0  0
  -29.6457  -21.1484   24.0852 C   0  0  0  0  0  0
  -29.5725  -21.2191   21.6271 C   0  0  0  0  0  0
  -29.1031  -19.8519   24.0121 C   0  0  0  0  0  0
  -29.3418  -19.7651   21.6790 C   0  0  0  0  0  0
  -28.6137  -19.0554   25.2122 C   0  0  0  0  0  0
  -28.4422  -22.4661   25.9042 C   0  0  0  0  0  0
  -34.5470  -23.3018   24.6095 C   0  0  0  0  0  0
  -33.6701  -24.5882   22.6214 C   0  0  0  0  0  0
  -31.0274  -22.9316   22.9050 C   0  0  0  0  0  0
  -29.7755  -21.8667   25.4355 C   0  0  0  0  0  0
  -29.2070  -22.2494   20.4497 C   0  0  0  0  0  0
  -29.3512  -18.6162   20.5869 C   0  0  0  0  0  0
  -32.4033  -22.5411   23.4936 C   0  0  0  0  0  0
  -29.0765  -23.8621   20.7585 C   0  0  0  0  0  0
  -30.3121  -17.3213   20.8809 C   0  0  0  0  0  0
  -28.1416  -24.9014   19.9627 C   0  0  0  0  0  0
  -33.2877  -23.7521   23.8540 C   0  0  0  0  0  0
  -29.0478  -19.1776   22.8569 N   0  0  0  0  0  0
  -29.8499  -15.8696   20.6977 N   0  0  0  0  0  0
  -31.4732  -12.5833   19.1576 H   0  0  0  0  0  0
  -30.3824  -11.4767   19.9475 H   0  0  0  0  0  0
  -29.7874  -11.7338   17.5137 H   0  0  0  0  0  0
  -29.6315  -13.4623   17.7191 H   0  0  0  0  0  0
  -27.8882  -11.2814   18.9055 H   0  0  0  0  0  0
  -27.3749  -12.5283   17.8009 H   0  0  0  0  0  0
  -27.6351  -14.2531   19.4711 H   0  0  0  0  0  0
  -28.7253  -12.1605   21.4170 H   0  0  0  0  0  0
  -28.4246  -13.8380   21.7976 H   0  0  0  0  0  0
  -25.2762   -9.5690   22.4758 H   0  0  0  0  0  0
  -24.0012   -7.4634   22.7467 H   0  0  0  0  0  0
  -21.0845   -8.8749   19.8946 H   0  0  0  0  0  0
  -22.3683  -10.9661   19.6168 H   0  0  0  0  0  0
  -21.1998   -7.6140   23.9704 H   0  0  0  0  0  0
  -21.1498   -6.0524   25.9077 H   0  0  0  0  0  0
  -22.0596   -2.7603   23.2845 H   0  0  0  0  0  0
  -22.4103  -11.9869   22.4816 H   0  0  0  0  0  0
  -21.1083  -13.1210   22.2625 H   0  0  0  0  0  0
  -24.6486  -15.8425   20.5163 H   0  0  0  0  0  0
  -26.2603  -15.6324   20.0604 H   0  0  0  0  0  0
  -26.7200  -32.5404   23.1077 H   0  0  0  0  0  0
  -25.0080  -33.9694   25.0407 H   0  0  0  0  0  0
  -22.7234  -31.3017   21.3974 H   0  0  0  0  0  0
  -23.3756  -35.9607   23.3304 H   0  0  0  0  0  0
  -24.3580  -36.8903   22.2057 H   0  0  0  0  0  0
  -23.7234  -37.6479   23.6665 H   0  0  0  0  0  0
  -26.1115  -31.5298   20.6101 H   0  0  0  0  0  0
  -26.8503  -30.8172   22.0124 H   0  0  0  0  0  0
  -28.1098  -28.9181   21.2232 H   0  0  0  0  0  0
  -25.9638  -25.9289   18.9562 H   0  0  0  0  0  0
  -23.9783  -27.3193   18.9774 H   0  0  0  0  0  0
  -23.7664  -30.5910   19.4025 H   0  0  0  0  0  0
  -22.7620  -29.2469   19.8536 H   0  0  0  0  0  0
  -25.1301  -36.1925   25.0821 H   0  0  0  0  0  0
  -20.9998  -28.3280   24.1388 H   0  0  0  0  0  0
  -20.5690  -26.2304   23.3614 H   0  0  0  0  0  0
  -21.6647  -26.7440   22.1198 H   0  0  0  0  0  0
  -19.6914  -25.6294   21.1247 H   0  0  0  0  0  0
  -19.6698  -27.3196   20.6747 H   0  0  0  0  0  0
  -17.4206  -26.6690   21.4024 H   0  0  0  0  0  0
  -18.0329  -26.0076   22.9022 H   0  0  0  0  0  0
  -19.7941  -30.7282   24.2265 H   0  0  0  0  0  0
  -17.5016  -31.6270   24.5162 H   0  0  0  0  0  0
  -15.5357  -30.2984   23.7662 H   0  0  0  0  0  0
  -15.8681  -28.0825   22.7065 H   0  0  0  0  0  0
  -24.5893  -30.7076   25.7755 H   0  0  0  0  0  0
  -24.8905  -32.2890   26.4856 H   0  0  0  0  0  0
  -25.8022  -30.8897   27.0221 H   0  0  0  0  0  0
  -26.2935  -29.6734   24.1229 H   0  0  0  0  0  0
  -27.4019  -29.7259   25.4737 H   0  0  0  0  0  0
  -27.8816  -30.4266   23.9467 H   0  0  0  0  0  0
  -27.2677  -33.3620   26.2058 H   0  0  0  0  0  0
  -28.3874  -32.6852   25.0323 H   0  0  0  0  0  0
  -28.0717  -31.8441   26.5420 H   0  0  0  0  0  0
  -28.2597  -38.0094   24.7510 H   0  0  0  0  0  0
  -28.1073  -36.2626   24.6296 H   0  0  0  0  0  0
  -27.2296  -37.1453   25.8867 H   0  0  0  0  0  0
  -20.9388  -29.8751   21.6850 H   0  0  0  0  0  0
  -26.0174  -38.2845   24.1404 H   0  0  0  0  0  0
  -28.6926  -19.5775   26.1623 H   0  0  0  0  0  0
  -29.1806  -18.1288   25.3041 H   0  0  0  0  0  0
  -27.5649  -18.7899   25.0769 H   0  0  0  0  0  0
  -28.5605  -22.9644   26.8668 H   0  0  0  0  0  0
  -27.6685  -21.7081   26.0218 H   0  0  0  0  0  0
  -28.0753  -23.2068   25.1930 H   0  0  0  0  0  0
  -35.1423  -24.1579   24.9294 H   0  0  0  0  0  0
  -35.1823  -22.6696   23.9880 H   0  0  0  0  0  0
  -34.2901  -22.7337   25.5045 H   0  0  0  0  0  0
  -34.2876  -25.4417   22.9032 H   0  0  0  0  0  0
  -32.7919  -24.9872   22.1141 H   0  0  0  0  0  0
  -34.2317  -23.9962   21.8977 H   0  0  0  0  0  0
  -30.5883  -23.7867   23.4209 H   0  0  0  0  0  0
  -31.2753  -23.2403   21.8979 H   0  0  0  0  0  0
  -30.4955  -22.6803   25.4075 H   0  0  0  0  0  0
  -30.1751  -21.1821   26.1835 H   0  0  0  0  0  0
  -28.2432  -21.9171   20.0612 H   0  0  0  0  0  0
  -29.9117  -22.1006   19.6311 H   0  0  0  0  0  0
  -29.6230  -19.0593   19.6288 H   0  0  0  0  0  0
  -28.3224  -18.2770   20.4655 H   0  0  0  0  0  0
  -32.9209  -21.8892   22.7893 H   0  0  0  0  0  0
  -32.2787  -21.9345   24.3891 H   0  0  0  0  0  0
  -30.0644  -24.3073   20.6727 H   0  0  0  0  0  0
  -28.7744  -23.9762   21.7992 H   0  0  0  0  0  0
  -30.6311  -17.3685   21.9223 H   0  0  0  0  0  0
  -31.2393  -17.4629   20.3237 H   0  0  0  0  0  0
  -27.1191  -24.6019   20.1918 H   0  0  0  0  0  0
  -28.2749  -24.7371   18.8930 H   0  0  0  0  0  0
  -32.7192  -24.3930   24.5303 H   0  0  0  0  0  0
  -28.8674  -15.7006   20.8525 H   0  0  0  0  0  0
  1 25  1  0  0  0
  1 30  2  0  0  0
  1 90  1  0  0  0
  2  3  1  0  0  0
  2 25  1  0  0  0
  2 91  1  0  0  0
  2 92  1  0  0  0
  3  4  1  0  0  0
  3 93  1  0  0  0
  3 94  1  0  0  0
  4  5  1  0  0  0
  4 95  1  0  0  0
  4 96  1  0  0  0
  5  6  1  0  0  0
  5 26  1  0  0  0
  5 97  1  0  0  0
  6 25  1  0  0  0
  6 98  1  0  0  0
  6 99  1  0  0  0
  7  8  2  0  0  0
  7 26  1  0  0  0
  7 29  1  0  0  0
  8  9  1  0  0  0
  8 22  1  0  0  0
  9 10  1  0  0  0
  9 27  2  0  0  0
 10 11  2  0  0  0
 10 15  1  0  0  0
 11 12  1  0  0  0
 11100  1  0  0  0
 12 13  2  0  0  0
 12101  1  0  0  0
 13 14  1  0  0  0
 13 31  1  0  0  0
 14 15  2  0  0  0
 14102  1  0  0  0
 15103  1  0  0  0
 16 17  2  0  0  0
 16 21  1  0  0  0
 16 31  1  0  0  0
 17 18  1  0  0  0
 17104  1  0  0  0
 18 19  2  0  0  0
 18105  1  0  0  0
 19 20  1  0  0  0
 19 24  1  0  0  0
 20 21  2  0  0  0
 20106  1  0  0  0
 21 23  1  0  0  0
 22 28  1  0  0  0
 22 32  2  0  0  0
 26 27  1  0  0  0
 28107  1  0  0  0
 28108  1  0  0  0
 29109  1  0  0  0
 29110  1  0  0  0
 33 34  1  0  0  0
 33 66  1  0  0  0
 33 70  2  0  0  0
 34 36  1  0  0  0
 34 59  1  0  0  0
 34111  1  0  0  0
 35 44  2  0  0  0
 35 45  1  0  0  0
 35 68  1  0  0  0
 36 56  1  0  0  0
 36112  1  0  0  0
 37 39  1  0  0  0
 37 47  1  0  0  0
 37 66  1  0  0  0
 37113  1  0  0  0
 38 43  2  0  0  0
 38 46  1  0  0  0
 38 47  1  0  0  0
 39 64  1  0  0  0
 39 67  2  0  0  0
 40 52  1  0  0  0
 40 53  2  0  0  0
 40 58  1  0  0  0
 41114  1  0  0  0
 41115  1  0  0  0
 41116  1  0  0  0
 41 48  1  0  0  0
 42 43  1  0  0  0
 42 66  1  0  0  0
 42117  1  0  0  0
 42118  1  0  0  0
 43 44  1  0  0  0
 44119  1  0  0  0
 45 46  2  0  0  0
 45120  1  0  0  0
 46121  1  0  0  0
 47122  1  0  0  0
 47123  1  0  0  0
 48 56  1  0  0  0
 48 65  1  0  0  0
 48124  1  0  0  0
 49 50  1  0  0  0
 49 53  1  0  0  0
 49 64  1  0  0  0
 49125  1  0  0  0
 50 51  1  0  0  0
 50126  1  0  0  0
 50127  1  0  0  0
 51 52  1  0  0  0
 51128  1  0  0  0
 51129  1  0  0  0
 52130  1  0  0  0
 52131  1  0  0  0
 53 54  1  0  0  0
 54 55  2  0  0  0
 54132  1  0  0  0
 55 57  1  0  0  0
 55133  1  0  0  0
 56 69  2  0  0  0
 57 58  2  0  0  0
 57134  1  0  0  0
 58135  1  0  0  0
 59 60  1  0  0  0
 59 61  1  0  0  0
 59 62  1  0  0  0
 60136  1  0  0  0
 60137  1  0  0  0
 60138  1  0  0  0
 61139  1  0  0  0
 61140  1  0  0  0
 61141  1  0  0  0
 62142  1  0  0  0
 62143  1  0  0  0
 62144  1  0  0  0
 63 65  1  0  0  0
 63145  1  0  0  0
 63146  1  0  0  0
 63147  1  0  0  0
 64148  1  0  0  0
 65149  1  0  0  0
 68 87  1  0  0  0
 71 72  2  0  0  0
 71 73  1  0  0  0
 71 80  1  0  0  0
 72 74  1  0  0  0
 72 81  1  0  0  0
 73 75  2  0  0  0
 73 82  1  0  0  0
 74 76  1  0  0  0
 74 89  2  0  0  0
 75 83  1  0  0  0
 75 89  1  0  0  0
 76150  1  0  0  0
 76151  1  0  0  0
 76152  1  0  0  0
 77 81  1  0  0  0
 77153  1  0  0  0
 77154  1  0  0  0
 77155  1  0  0  0
 78156  1  0  0  0
 78157  1  0  0  0
 78158  1  0  0  0
 78 88  1  0  0  0
 79 88  1  0  0  0
 79159  1  0  0  0
 79160  1  0  0  0
 79161  1  0  0  0
 80 84  1  0  0  0
 80162  1  0  0  0
 80163  1  0  0  0
 81164  1  0  0  0
 81165  1  0  0  0
 82 85  1  0  0  0
 82166  1  0  0  0
 82167  1  0  0  0
 83 86  1  0  0  0
 83168  1  0  0  0
 83169  1  0  0  0
 84 88  1  0  0  0
 84170  1  0  0  0
 84171  1  0  0  0
 85 87  1  0  0  0
 85172  1  0  0  0
 85173  1  0  0  0
 86 90  1  0  0  0
 86174  1  0  0  0
 86175  1  0  0  0
 87176  1  0  0  0
 87177  1  0  0  0
 88178  1  0  0  0
 90179  1  0  0  0
M  ISO  4   1 100  68 101  87 101  90 100
M  END
> <chiral flag>
0

> <version>
0

> <s_m_source_file>
/data/baiqing/PycharmProjects/Reinvent-master-3.2/result/LINK_invent/BTK/process_docking_weight1_custom_sum_contain_oxygen_bond_distance_aromatic_linkinvent_7_9_3/rearranged_h_0089.sdf

> <i_m_source_file_index>
37

> <r_mmod_Potential_Energy-OPLS-2005>
170.458633422852

> <r_mmod_Stretch_Energy-OPLS-2005>
142.183975219727

> <r_mmod_Bend_Energy-OPLS-2005>
206.442245483398

> <r_mmod_Torsional_Energy-OPLS-2005>
308.997528076172

> <r_mmod_Improper_Torsional_Energy-OPLS-2005>
5.38802433013916

> <r_mmod_Van_der_Waal_Energy-OPLS-2005>
158.294708251953

> <r_mmod_Electrostatic_Energy-OPLS-2005>
-518.088623046875

> <r_mmod_Solvation_Energy-OPLS-2005>
-216.073486328125

> <b_mmod_Minimization_Converged-OPLS-2005>
0

> <r_mmod_RMS_Derivative-OPLS-2005>
1.4083890914917

$$$$
38
                    3D
 Structure written by MMmdl.
175183  0  0  1  0            999 V2000
  -30.7067  -14.4201   20.5741 C   0  0  0  0  0  0
  -30.4154  -12.2727   19.4209 C   0  0  0  0  0  0
  -29.4944  -12.5064   18.2057 C   0  0  0  0  0  0
  -28.0106  -12.3874   18.6074 C   0  0  0  0  0  0
  -27.6633  -13.2015   19.8831 C   0  0  2  0  0  0
  -28.7021  -12.9507   21.0011 C   0  0  0  0  0  0
  -25.2581  -13.8134   20.5662 C   0  0  0  0  0  0
  -24.1827  -13.0426   20.9153 C   0  0  0  0  0  0
  -24.6379  -11.6887   20.8719 C   0  0  0  0  0  0
  -23.9067  -10.4272   21.0381 C   0  0  0  0  0  0
  -24.3628   -9.4196   21.9172 C   0  0  0  0  0  0
  -23.6289   -8.2242   22.0772 C   0  0  0  0  0  0
  -22.4267   -8.0277   21.3557 C   0  0  0  0  0  0
  -21.9904   -9.0240   20.4649 C   0  0  0  0  0  0
  -22.7243  -10.2105   20.3034 C   0  0  0  0  0  0
  -21.6859   -6.0721   22.5273 C   0  0  0  0  0  0
  -21.4029   -6.5629   23.8205 C   0  0  0  0  0  0
  -21.3663   -5.6784   24.9168 C   0  0  0  0  0  0
  -21.6041   -4.3053   24.7227 C   0  0  0  0  0  0
  -21.8822   -3.8137   23.4351 C   0  0  0  0  0  0
  -21.9197   -4.6949   22.3402 C   0  0  0  0  0  0
  -22.7848  -13.5231   21.1828 C   0  0  0  0  0  0
  -22.1671   -4.2128   21.0984 F   0  0  0  0  0  0
  -21.5620   -3.4550   25.7750 F   0  0  0  0  0  0
  -30.0411  -13.2416   20.4593 N   0  0  0  0  0  0
  -26.3028  -12.9309   20.3406 N   0  0  0  0  0  0
  -25.9308  -11.6467   20.5786 N   0  0  0  0  0  0
  -22.0469  -12.8232   22.0377 N   0  0  0  0  0  0
  -25.4302  -15.1845   20.4037 N   0  0  0  0  0  0
  -31.8174  -14.6249   20.0773 O   0  0  0  0  0  0
  -21.6642   -6.8871   21.4242 O   0  0  0  0  0  0
  -22.3544  -14.5546   20.6682 O   0  0  0  0  0  0
  -24.6100  -31.8693   23.2125 C   0  0  0  0  0  0
  -25.9011  -32.4827   23.8408 C   0  0  1  0  0  0
  -27.2435  -27.4723   20.0809 C   0  0  0  0  0  0
  -25.5878  -33.8626   24.2336 N   0  0  0  0  0  0
  -23.3968  -30.4915   21.5511 C   0  0  2  0  0  0
  -24.8445  -28.9612   20.1107 C   0  0  0  0  0  0
  -22.7384  -29.4657   22.5005 C   0  0  0  0  0  0
  -18.0266  -28.1367   22.8496 C   0  0  0  0  0  0
  -24.1482  -36.7316   23.2639 C   0  0  0  0  0  0
  -25.9207  -30.8420   21.3632 C   0  0  0  0  0  0
  -25.9980  -29.4786   20.7124 C   0  0  0  0  0  0
  -27.1941  -28.7331   20.7087 C   0  0  0  0  0  0
  -26.0726  -26.9528   19.4840 C   0  0  0  0  0  0
  -24.8741  -27.6943   19.4989 C   0  0  0  0  0  0
  -23.6029  -29.8219   20.1648 C   0  0  0  0  0  0
  -25.4101  -36.3114   24.0339 C   0  0  1  0  0  0
  -20.5851  -28.3641   23.1334 C   0  0  2  0  0  0
  -20.6757  -26.9380   22.5426 C   0  0  0  0  0  0
  -19.5742  -26.6368   21.5217 C   0  0  0  0  0  0
  -18.1915  -26.7915   22.1626 C   0  0  0  0  0  0
  -19.1511  -28.8819   23.2915 C   0  0  0  0  0  0
  -18.9445  -30.1430   23.8918 C   0  0  0  0  0  0
  -17.6445  -30.6577   24.0564 C   0  0  0  0  0  0
  -25.9025  -34.9478   23.5136 C   0  0  0  0  0  0
  -16.5340  -29.9080   23.6322 C   0  0  0  0  0  0
  -16.7255  -28.6497   23.0348 C   0  0  0  0  0  0
  -26.4458  -31.6599   25.0725 C   0  0  0  0  0  0
  -25.3739  -31.3688   26.1483 C   0  0  0  0  0  0
  -27.0288  -30.3052   24.6077 C   0  0  0  0  0  0
  -27.6037  -32.4319   25.7481 C   0  0  0  0  0  0
  -27.5580  -37.1809   24.8465 C   0  0  0  0  0  0
  -21.4116  -29.3015   22.3746 N   0  0  0  0  0  0
  -26.4288  -37.3797   23.9414 N   0  0  0  0  0  0
  -24.6601  -31.0817   22.1012 N   0  0  0  0  0  0
  -23.4168  -28.8201   23.3038 O   0  0  0  0  0  0
  -28.4216  -26.7687   20.1337 O   0  0  0  0  0  0
  -26.5591  -34.8926   22.4701 O   0  0  0  0  0  0
  -23.5297  -32.1436   23.7534 O   0  0  0  0  0  0
  -28.8825  -20.3816   19.3899 C   0  0  0  0  0  0
  -27.8847  -19.4708   19.6188 C   0  0  0  0  0  0
  -26.6595  -20.2131   19.6097 C   0  0  0  0  0  0
  -26.9560  -21.5272   19.3510 C   0  0  0  0  0  0
  -26.0543  -22.7243   19.2597 C   0  0  0  0  0  0
  -23.4331  -19.2990   21.5903 C   0  0  0  0  0  0
  -30.0662  -17.6825   18.2740 C   0  0  0  0  0  0
  -27.9761  -17.9681   19.8687 C   0  0  0  0  0  0
  -25.2751  -19.6542   19.8560 C   0  0  0  0  0  0
  -24.8402  -19.8403   21.3157 C   0  0  0  0  0  0
  -29.3539  -23.7955   19.9070 C   0  0  0  0  0  0
  -29.9560  -25.1134   19.3820 C   0  0  0  0  0  0
  -29.0737  -22.8074   18.7620 C   0  0  0  0  0  0
  -30.1489  -16.8318   20.7038 C   0  0  0  0  0  0
  -28.8881  -26.1333   18.9519 C   0  0  0  0  0  0
  -29.2556  -17.1727   19.4793 C   0  0  2  0  0  0
  -28.3253  -21.6246   19.1664 N   0  0  0  0  0  0
  -29.9802  -15.4251   21.0820 N   0  0  0  0  0  0
  -31.4633  -12.3584   19.1287 H   0  0  0  0  0  0
  -30.2981  -11.2571   19.8013 H   0  0  0  0  0  0
  -29.7229  -11.7862   17.4192 H   0  0  0  0  0  0
  -29.6852  -13.4937   17.7813 H   0  0  0  0  0  0
  -27.7923  -11.3305   18.7678 H   0  0  0  0  0  0
  -27.3759  -12.7054   17.7784 H   0  0  0  0  0  0
  -27.7142  -14.2550   19.6106 H   0  0  0  0  0  0
  -28.6589  -11.9089   21.3244 H   0  0  0  0  0  0
  -28.4705  -13.5369   21.8902 H   0  0  0  0  0  0
  -25.2776   -9.5675   22.4749 H   0  0  0  0  0  0
  -23.9987   -7.4653   22.7523 H   0  0  0  0  0  0
  -21.0829   -8.8760   19.8952 H   0  0  0  0  0  0
  -22.3715  -10.9648   19.6140 H   0  0  0  0  0  0
  -21.2037   -7.6138   23.9707 H   0  0  0  0  0  0
  -21.1486   -6.0515   25.9070 H   0  0  0  0  0  0
  -22.0598   -2.7597   23.2866 H   0  0  0  0  0  0
  -22.4086  -11.9913   22.4805 H   0  0  0  0  0  0
  -21.1092  -13.1299   22.2574 H   0  0  0  0  0  0
  -24.6535  -15.8321   20.4762 H   0  0  0  0  0  0
  -26.2828  -15.6185   20.0789 H   0  0  0  0  0  0
  -26.7076  -32.5553   23.1171 H   0  0  0  0  0  0
  -25.0030  -33.9798   25.0480 H   0  0  0  0  0  0
  -22.6837  -31.3064   21.4128 H   0  0  0  0  0  0
  -23.3741  -35.9656   23.3312 H   0  0  0  0  0  0
  -24.3578  -36.8921   22.2055 H   0  0  0  0  0  0
  -23.7237  -37.6523   23.6647 H   0  0  0  0  0  0
  -26.0288  -31.6094   20.5952 H   0  0  0  0  0  0
  -26.8103  -30.8962   21.9787 H   0  0  0  0  0  0
  -28.0837  -29.1241   21.1832 H   0  0  0  0  0  0
  -26.0661  -25.9729   19.0298 H   0  0  0  0  0  0
  -23.9834  -27.2846   19.0421 H   0  0  0  0  0  0
  -23.7024  -30.5956   19.4025 H   0  0  0  0  0  0
  -22.7294  -29.2354   19.8741 H   0  0  0  0  0  0
  -25.1277  -36.1985   25.0831 H   0  0  0  0  0  0
  -20.9939  -28.3205   24.1459 H   0  0  0  0  0  0
  -20.5651  -26.2247   23.3608 H   0  0  0  0  0  0
  -21.6631  -26.7426   22.1232 H   0  0  0  0  0  0
  -19.6903  -25.6282   21.1238 H   0  0  0  0  0  0
  -19.6686  -27.3186   20.6753 H   0  0  0  0  0  0
  -17.4189  -26.6668   21.4023 H   0  0  0  0  0  0
  -18.0312  -26.0051   22.9010 H   0  0  0  0  0  0
  -19.7921  -30.7244   24.2300 H   0  0  0  0  0  0
  -17.5003  -31.6263   24.5159 H   0  0  0  0  0  0
  -15.5344  -30.2991   23.7631 H   0  0  0  0  0  0
  -15.8658  -28.0826   22.7050 H   0  0  0  0  0  0
  -24.5917  -30.7028   25.7828 H   0  0  0  0  0  0
  -24.8926  -32.2830   26.4958 H   0  0  0  0  0  0
  -25.8112  -30.8847   27.0222 H   0  0  0  0  0  0
  -26.2824  -29.6818   24.1141 H   0  0  0  0  0  0
  -27.4081  -29.7283   25.4518 H   0  0  0  0  0  0
  -27.8644  -30.4388   23.9204 H   0  0  0  0  0  0
  -27.2663  -33.3608   26.2090 H   0  0  0  0  0  0
  -28.3828  -32.6897   25.0296 H   0  0  0  0  0  0
  -28.0723  -31.8426   26.5369 H   0  0  0  0  0  0
  -28.2597  -38.0108   24.7516 H   0  0  0  0  0  0
  -28.1073  -36.2638   24.6279 H   0  0  0  0  0  0
  -27.2300  -37.1450   25.8868 H   0  0  0  0  0  0
  -20.9263  -29.8745   21.6987 H   0  0  0  0  0  0
  -26.0178  -38.2875   24.1421 H   0  0  0  0  0  0
  -29.9547  -20.2698   19.3320 H   0  0  0  0  0  0
  -25.0074  -22.4318   19.1865 H   0  0  0  0  0  0
  -26.2780  -23.3348   18.3860 H   0  0  0  0  0  0
  -26.1512  -23.3533   20.1451 H   0  0  0  0  0  0
  -23.1581  -19.4467   22.6350 H   0  0  0  0  0  0
  -23.3731  -18.2306   21.3820 H   0  0  0  0  0  0
  -22.6885  -19.8046   20.9749 H   0  0  0  0  0  0
  -29.4146  -18.0175   17.4657 H   0  0  0  0  0  0
  -30.6878  -16.8809   17.8737 H   0  0  0  0  0  0
  -30.7456  -18.4900   18.5331 H   0  0  0  0  0  0
  -27.1710  -17.5320   19.2792 H   0  0  0  0  0  0
  -27.6957  -17.7710   20.9048 H   0  0  0  0  0  0
  -25.2491  -18.5966   19.5951 H   0  0  0  0  0  0
  -24.5670  -20.1387   19.1832 H   0  0  0  0  0  0
  -25.5565  -19.3434   21.9718 H   0  0  0  0  0  0
  -24.8705  -20.8998   21.5719 H   0  0  0  0  0  0
  -28.4488  -24.0046   20.4788 H   0  0  0  0  0  0
  -30.0491  -23.3319   20.6063 H   0  0  0  0  0  0
  -30.6205  -24.9012   18.5434 H   0  0  0  0  0  0
  -30.5907  -25.5623   20.1471 H   0  0  0  0  0  0
  -30.0200  -22.4826   18.3291 H   0  0  0  0  0  0
  -28.5330  -23.2939   17.9507 H   0  0  0  0  0  0
  -29.8985  -17.4634   21.5574 H   0  0  0  0  0  0
  -31.1986  -17.0464   20.4927 H   0  0  0  0  0  0
  -28.1068  -25.6437   18.3720 H   0  0  0  0  0  0
  -29.3352  -26.8947   18.3117 H   0  0  0  0  0  0
  -28.8589  -16.2233   19.1172 H   0  0  0  0  0  0
  -29.1083  -15.1698   21.5210 H   0  0  0  0  0  0
  1 25  1  0  0  0
  1 30  2  0  0  0
  1 88  1  0  0  0
  2  3  1  0  0  0
  2 25  1  0  0  0
  2 89  1  0  0  0
  2 90  1  0  0  0
  3  4  1  0  0  0
  3 91  1  0  0  0
  3 92  1  0  0  0
  4  5  1  0  0  0
  4 93  1  0  0  0
  4 94  1  0  0  0
  5  6  1  0  0  0
  5 26  1  0  0  0
  5 95  1  0  0  0
  6 25  1  0  0  0
  6 96  1  0  0  0
  6 97  1  0  0  0
  7  8  2  0  0  0
  7 26  1  0  0  0
  7 29  1  0  0  0
  8  9  1  0  0  0
  8 22  1  0  0  0
  9 10  1  0  0  0
  9 27  2  0  0  0
 10 11  2  0  0  0
 10 15  1  0  0  0
 11 12  1  0  0  0
 11 98  1  0  0  0
 12 13  2  0  0  0
 12 99  1  0  0  0
 13 14  1  0  0  0
 13 31  1  0  0  0
 14 15  2  0  0  0
 14100  1  0  0  0
 15101  1  0  0  0
 16 17  2  0  0  0
 16 21  1  0  0  0
 16 31  1  0  0  0
 17 18  1  0  0  0
 17102  1  0  0  0
 18 19  2  0  0  0
 18103  1  0  0  0
 19 20  1  0  0  0
 19 24  1  0  0  0
 20 21  2  0  0  0
 20104  1  0  0  0
 21 23  1  0  0  0
 22 28  1  0  0  0
 22 32  2  0  0  0
 26 27  1  0  0  0
 28105  1  0  0  0
 28106  1  0  0  0
 29107  1  0  0  0
 29108  1  0  0  0
 33 34  1  0  0  0
 33 66  1  0  0  0
 33 70  2  0  0  0
 34 36  1  0  0  0
 34 59  1  0  0  0
 34109  1  0  0  0
 35 44  2  0  0  0
 35 45  1  0  0  0
 35 68  1  0  0  0
 36 56  1  0  0  0
 36110  1  0  0  0
 37 39  1  0  0  0
 37 47  1  0  0  0
 37 66  1  0  0  0
 37111  1  0  0  0
 38 43  2  0  0  0
 38 46  1  0  0  0
 38 47  1  0  0  0
 39 64  1  0  0  0
 39 67  2  0  0  0
 40 52  1  0  0  0
 40 53  2  0  0  0
 40 58  1  0  0  0
 41112  1  0  0  0
 41113  1  0  0  0
 41114  1  0  0  0
 41 48  1  0  0  0
 42 43  1  0  0  0
 42 66  1  0  0  0
 42115  1  0  0  0
 42116  1  0  0  0
 43 44  1  0  0  0
 44117  1  0  0  0
 45 46  2  0  0  0
 45118  1  0  0  0
 46119  1  0  0  0
 47120  1  0  0  0
 47121  1  0  0  0
 48 56  1  0  0  0
 48 65  1  0  0  0
 48122  1  0  0  0
 49 50  1  0  0  0
 49 53  1  0  0  0
 49 64  1  0  0  0
 49123  1  0  0  0
 50 51  1  0  0  0
 50124  1  0  0  0
 50125  1  0  0  0
 51 52  1  0  0  0
 51126  1  0  0  0
 51127  1  0  0  0
 52128  1  0  0  0
 52129  1  0  0  0
 53 54  1  0  0  0
 54 55  2  0  0  0
 54130  1  0  0  0
 55 57  1  0  0  0
 55131  1  0  0  0
 56 69  2  0  0  0
 57 58  2  0  0  0
 57132  1  0  0  0
 58133  1  0  0  0
 59 60  1  0  0  0
 59 61  1  0  0  0
 59 62  1  0  0  0
 60134  1  0  0  0
 60135  1  0  0  0
 60136  1  0  0  0
 61137  1  0  0  0
 61138  1  0  0  0
 61139  1  0  0  0
 62140  1  0  0  0
 62141  1  0  0  0
 62142  1  0  0  0
 63 65  1  0  0  0
 63143  1  0  0  0
 63144  1  0  0  0
 63145  1  0  0  0
 64146  1  0  0  0
 65147  1  0  0  0
 68 85  1  0  0  0
 71 72  2  0  0  0
 71 87  1  0  0  0
 71148  1  0  0  0
 72 73  1  0  0  0
 72 78  1  0  0  0
 73 74  2  0  0  0
 73 79  1  0  0  0
 74 75  1  0  0  0
 74 87  1  0  0  0
 75149  1  0  0  0
 75150  1  0  0  0
 75151  1  0  0  0
 76 80  1  0  0  0
 76152  1  0  0  0
 76153  1  0  0  0
 76154  1  0  0  0
 77155  1  0  0  0
 77156  1  0  0  0
 77157  1  0  0  0
 77 86  1  0  0  0
 78 86  1  0  0  0
 78158  1  0  0  0
 78159  1  0  0  0
 79 80  1  0  0  0
 79160  1  0  0  0
 79161  1  0  0  0
 80162  1  0  0  0
 80163  1  0  0  0
 81 82  1  0  0  0
 81 83  1  0  0  0
 81164  1  0  0  0
 81165  1  0  0  0
 82 85  1  0  0  0
 82166  1  0  0  0
 82167  1  0  0  0
 83 87  1  0  0  0
 83168  1  0  0  0
 83169  1  0  0  0
 84 86  1  0  0  0
 84 88  1  0  0  0
 84170  1  0  0  0
 84171  1  0  0  0
 85172  1  0  0  0
 85173  1  0  0  0
 86174  1  0  0  0
 88175  1  0  0  0
M  ISO  4   1 100  68 101  85 101  88 100
M  END
> <chiral flag>
0

> <version>
0

> <s_m_source_file>
/data/baiqing/PycharmProjects/Reinvent-master-3.2/result/LINK_invent/BTK/process_docking_weight1_custom_sum_contain_oxygen_bond_distance_aromatic_linkinvent_7_9_3/rearranged_h_0089.sdf

> <i_m_source_file_index>
38

> <r_mmod_Potential_Energy-OPLS-2005>
-75.372932434082

> <r_mmod_Stretch_Energy-OPLS-2005>
32.5674743652344

> <r_mmod_Bend_Energy-OPLS-2005>
113.288558959961

> <r_mmod_Torsional_Energy-OPLS-2005>
263.296203613281

> <r_mmod_Improper_Torsional_Energy-OPLS-2005>
6.0089111328125

> <r_mmod_Van_der_Waal_Energy-OPLS-2005>
118.893127441406

> <r_mmod_Electrostatic_Energy-OPLS-2005>
-416.059143066406

> <r_mmod_Solvation_Energy-OPLS-2005>
-203.221435546875

> <b_mmod_Minimization_Converged-OPLS-2005>
0

> <r_mmod_RMS_Derivative-OPLS-2005>
1.90843093395233

$$$$
39
                    3D
 Structure written by MMmdl.
165173  0  0  1  0            999 V2000
  -29.4939  -15.6867   20.6157 C   0  0  0  0  0  0
  -30.2858  -13.2224   19.6658 C   0  0  0  0  0  0
  -29.5188  -12.7122   18.3978 C   0  0  0  0  0  0
  -28.0914  -12.2648   18.7590 C   0  0  0  0  0  0
  -27.5028  -13.2245   19.8105 C   0  0  2  0  0  0
  -28.3951  -13.4054   21.0313 C   0  0  0  0  0  0
  -25.1893  -13.8079   20.5574 C   0  0  0  0  0  0
  -24.1329  -13.0343   20.9294 C   0  0  0  0  0  0
  -24.5920  -11.6809   20.8754 C   0  0  0  0  0  0
  -23.8735  -10.4216   21.0467 C   0  0  0  0  0  0
  -24.3419   -9.4183   21.9220 C   0  0  0  0  0  0
  -23.6188   -8.2177   22.0766 C   0  0  0  0  0  0
  -22.4190   -8.0172   21.3537 C   0  0  0  0  0  0
  -21.9736   -9.0106   20.4651 C   0  0  0  0  0  0
  -22.6956  -10.2028   20.3084 C   0  0  0  0  0  0
  -21.6827   -6.0658   22.5277 C   0  0  0  0  0  0
  -21.3989   -6.5594   23.8196 C   0  0  0  0  0  0
  -21.3657   -5.6770   24.9175 C   0  0  0  0  0  0
  -21.6050   -4.3031   24.7244 C   0  0  0  0  0  0
  -21.8823   -3.8097   23.4374 C   0  0  0  0  0  0
  -21.9184   -4.6894   22.3416 C   0  0  0  0  0  0
  -22.7449  -13.5194   21.2026 C   0  0  0  0  0  0
  -22.1667   -4.2076   21.0997 F   0  0  0  0  0  0
  -21.5635   -3.4532   25.7769 F   0  0  0  0  0  0
  -29.4390  -14.2293   20.4937 N   0  0  0  0  0  0
  -26.1919  -12.9098   20.2639 N   0  0  0  0  0  0
  -25.8695  -11.6309   20.5407 N   0  0  0  0  0  0
  -22.0133  -12.8186   22.0595 N   0  0  0  0  0  0
  -25.3811  -15.1815   20.4061 N   0  0  0  0  0  0
  -30.7126  -15.9210   20.3532 O   0  0  0  0  0  0
  -21.6609   -6.8751   21.4219 O   0  0  0  0  0  0
  -22.3210  -14.5533   20.6870 O   0  0  0  0  0  0
  -24.6750  -31.9522   23.2030 C   0  0  0  0  0  0
  -25.9626  -32.5104   23.8529 C   0  0  1  0  0  0
  -26.7181  -27.2073   20.1309 C   0  0  0  0  0  0
  -25.6499  -33.8840   24.2554 N   0  0  0  0  0  0
  -23.4631  -30.6117   21.5657 C   0  0  2  0  0  0
  -24.8245  -29.1256   19.9913 C   0  0  0  0  0  0
  -22.9874  -29.6017   22.6141 C   0  0  0  0  0  0
  -18.4562  -27.5482   22.5953 C   0  0  0  0  0  0
  -24.1517  -36.7348   23.2604 C   0  0  0  0  0  0
  -26.0040  -30.7936   21.4184 C   0  0  0  0  0  0
  -25.9689  -29.4334   20.7283 C   0  0  0  0  0  0
  -26.9596  -28.4224   20.8461 C   0  0  0  0  0  0
  -25.9547  -27.2476   18.9903 C   0  0  0  0  0  0
  -24.8343  -28.0613   19.0811 C   0  0  0  0  0  0
  -23.6192  -29.9981   20.1465 C   0  0  0  0  0  0
  -25.4147  -36.3219   24.0329 C   0  0  1  0  0  0
  -21.2728  -28.1931   23.4810 C   0  0  2  0  0  0
  -22.4417  -26.7624   22.8788 C   0  0  0  0  0  0
  -20.2910  -25.0484   20.9675 C   0  0  0  0  0  0
  -18.5901  -26.0374   21.5606 C   0  0  0  0  0  0
  -19.5465  -28.3833   23.3215 C   0  0  0  0  0  0
  -19.1351  -29.6657   23.8857 C   0  0  0  0  0  0
  -17.8237  -30.1915   23.9203 C   0  0  0  0  0  0
  -25.9188  -34.9642   23.5136 C   0  0  0  0  0  0
  -16.8070  -29.4111   23.3719 C   0  0  0  0  0  0
  -17.1279  -28.1603   22.7418 C   0  0  0  0  0  0
  -26.4623  -31.6664   25.0880 C   0  0  0  0  0  0
  -25.3680  -31.3808   26.1432 C   0  0  0  0  0  0
  -27.0405  -30.3053   24.6373 C   0  0  0  0  0  0
  -27.6167  -32.4234   25.7824 C   0  0  0  0  0  0
  -27.5611  -37.1890   24.8466 C   0  0  0  0  0  0
  -21.7094  -29.3541   22.7317 N   0  0  0  0  0  0
  -26.4298  -37.3930   23.9451 N   0  0  0  0  0  0
  -24.7318  -31.1864   22.0760 N   0  0  0  0  0  0
  -23.7825  -29.0795   23.3929 O   0  0  0  0  0  0
  -26.3666  -26.0221   20.7585 O   0  0  0  0  0  0
  -26.5518  -34.9062   22.4557 O   0  0  0  0  0  0
  -23.5910  -32.2380   23.7404 O   0  0  0  0  0  0
  -22.2735  -26.4719   20.5337 C   0  0  0  0  0  0
  -23.2906  -25.2755   20.9784 C   0  0  0  0  0  0
  -20.9257  -27.0732   21.3368 C   0  0  0  0  0  0
  -22.8540  -24.1258   21.9834 C   0  0  0  0  0  0
  -19.5636  -30.8892   20.3810 C   0  0  0  0  0  0
  -22.6724  -21.6713   22.4957 C   0  0  0  0  0  0
  -24.9445  -25.2189   20.4559 C   0  0  0  0  0  0
  -20.1030  -28.0459   20.3493 C   0  0  0  0  0  0
  -20.3974  -29.5816   20.2965 C   0  0  0  0  0  0
  -25.9073  -19.6704   21.4598 C   0  0  0  0  0  0
  -27.5650  -18.4868   21.0169 C   0  0  0  0  0  0
  -25.1356  -21.6078   21.5244 C   0  0  0  0  0  0
  -20.5175  -25.8544   22.9402 N   0  0  0  0  0  0
  -21.5721  -24.5368   22.9177 N   0  0  0  0  0  0
  -28.2627  -16.7335   20.8968 N   0  0  0  0  0  0
  -23.6656  -22.6111   21.9827 N   0  0  0  0  0  0
  -31.2189  -13.6877   19.3446 H   0  0  0  0  0  0
  -30.5930  -12.3768   20.2847 H   0  0  0  0  0  0
  -30.0627  -11.9042   17.9056 H   0  0  0  0  0  0
  -29.4610  -13.5261   17.6736 H   0  0  0  0  0  0
  -28.1393  -11.2565   19.1745 H   0  0  0  0  0  0
  -27.4597  -12.2086   17.8716 H   0  0  0  0  0  0
  -27.4035  -14.1727   19.2789 H   0  0  0  0  0  0
  -28.7316  -12.4586   21.4571 H   0  0  0  0  0  0
  -27.8780  -13.9407   21.8297 H   0  0  0  0  0  0
  -25.2549   -9.5747   22.4792 H   0  0  0  0  0  0
  -23.9945   -7.4575   22.7460 H   0  0  0  0  0  0
  -21.0685   -8.8532   19.8953 H   0  0  0  0  0  0
  -22.3346  -10.9557   19.6216 H   0  0  0  0  0  0
  -21.1973   -7.6103   23.9665 H   0  0  0  0  0  0
  -21.1491   -6.0521   25.9071 H   0  0  0  0  0  0
  -22.0611   -2.7558   23.2901 H   0  0  0  0  0  0
  -22.3754  -11.9815   22.4906 H   0  0  0  0  0  0
  -21.0772  -13.1225   22.2880 H   0  0  0  0  0  0
  -24.5692  -15.7858   20.4695 H   0  0  0  0  0  0
  -26.0531  -15.5233   19.7311 H   0  0  0  0  0  0
  -26.7769  -32.5614   23.1327 H   0  0  0  0  0  0
  -25.0879  -33.9953   25.0861 H   0  0  0  0  0  0
  -22.7137  -31.4035   21.4942 H   0  0  0  0  0  0
  -23.3843  -35.9612   23.3229 H   0  0  0  0  0  0
  -24.3640  -36.8986   22.2029 H   0  0  0  0  0  0
  -23.7180  -37.6517   23.6607 H   0  0  0  0  0  0
  -26.2460  -31.5515   20.6720 H   0  0  0  0  0  0
  -26.8580  -30.7576   22.0810 H   0  0  0  0  0  0
  -27.6837  -28.4767   21.6474 H   0  0  0  0  0  0
  -25.9162  -26.4196   18.2975 H   0  0  0  0  0  0
  -24.0207  -27.9295   18.3824 H   0  0  0  0  0  0
  -23.6801  -30.8023   19.4117 H   0  0  0  0  0  0
  -22.7619  -29.4041   19.8647 H   0  0  0  0  0  0
  -25.1287  -36.2071   25.0810 H   0  0  0  0  0  0
  -21.4978  -28.3682   24.5327 H   0  0  0  0  0  0
  -22.7697  -26.3060   23.8243 H   0  0  0  0  0  0
  -23.4235  -27.0508   22.5042 H   0  0  0  0  0  0
  -20.1686  -23.9691   21.1187 H   0  0  0  0  0  0
  -20.3767  -25.1289   19.8770 H   0  0  0  0  0  0
  -17.9214  -26.1285   20.7052 H   0  0  0  0  0  0
  -18.0564  -25.2986   22.1627 H   0  0  0  0  0  0
  -19.8941  -30.2823   24.3495 H   0  0  0  0  0  0
  -17.6111  -31.1476   24.3743 H   0  0  0  0  0  0
  -15.7834  -29.7595   23.3877 H   0  0  0  0  0  0
  -16.3015  -27.6375   22.2813 H   0  0  0  0  0  0
  -24.5840  -30.7283   25.7571 H   0  0  0  0  0  0
  -24.8931  -32.2982   26.4909 H   0  0  0  0  0  0
  -25.7837  -30.8833   27.0203 H   0  0  0  0  0  0
  -26.3040  -29.6943   24.1161 H   0  0  0  0  0  0
  -27.3780  -29.7187   25.4926 H   0  0  0  0  0  0
  -27.9077  -30.4280   23.9884 H   0  0  0  0  0  0
  -27.2827  -33.3528   26.2446 H   0  0  0  0  0  0
  -28.4096  -32.6755   25.0772 H   0  0  0  0  0  0
  -28.0678  -31.8253   26.5747 H   0  0  0  0  0  0
  -28.2560  -38.0259   24.7654 H   0  0  0  0  0  0
  -28.1182  -36.2811   24.6115 H   0  0  0  0  0  0
  -27.2359  -37.1334   25.8869 H   0  0  0  0  0  0
  -21.0397  -29.8300   22.1449 H   0  0  0  0  0  0
  -26.0174  -38.2978   24.1548 H   0  0  0  0  0  0
  -22.5650  -27.0353   19.6693 H   0  0  0  0  0  0
  -19.5141  -31.3382   21.3816 H   0  0  0  0  0  0
  -18.5394  -30.7571   20.0203 H   0  0  0  0  0  0
  -20.0178  -31.6609   19.7558 H   0  0  0  0  0  0
  -21.6507  -21.9785   22.2631 H   0  0  0  0  0  0
  -22.7622  -21.5649   23.5771 H   0  0  0  0  0  0
  -22.8041  -20.6849   22.0456 H   0  0  0  0  0  0
  -24.8795  -24.9676   19.4000 H   0  0  0  0  0  0
  -25.2553  -24.2661   20.8638 H   0  0  0  0  0  0
  -19.0382  -27.8850   20.1979 H   0  0  0  0  0  0
  -20.4214  -27.6459   19.3827 H   0  0  0  0  0  0
  -20.1954  -29.5985   19.2223 H   0  0  0  0  0  0
  -19.6946  -29.4445   21.1069 H   0  0  0  0  0  0
  -25.6952  -19.3303   22.4759 H   0  0  0  0  0  0
  -25.1361  -19.1650   20.8750 H   0  0  0  0  0  0
  -28.3241  -18.9332   21.6611 H   0  0  0  0  0  0
  -27.8288  -18.8555   20.0241 H   0  0  0  0  0  0
  -25.3384  -21.9694   20.5144 H   0  0  0  0  0  0
  -25.8953  -22.1126   22.1272 H   0  0  0  0  0  0
  -27.4723  -16.1217   21.0716 H   0  0  0  0  0  0
  1 25  1  0  0  0
  1 30  2  0  0  0
  1 85  1  0  0  0
  2  3  1  0  0  0
  2 25  1  0  0  0
  2 87  1  0  0  0
  2 88  1  0  0  0
  3  4  1  0  0  0
  3 89  1  0  0  0
  3 90  1  0  0  0
  4  5  1  0  0  0
  4 91  1  0  0  0
  4 92  1  0  0  0
  5  6  1  0  0  0
  5 26  1  0  0  0
  5 93  1  0  0  0
  6 25  1  0  0  0
  6 94  1  0  0  0
  6 95  1  0  0  0
  7  8  2  0  0  0
  7 26  1  0  0  0
  7 29  1  0  0  0
  8  9  1  0  0  0
  8 22  1  0  0  0
  9 10  1  0  0  0
  9 27  2  0  0  0
 10 11  2  0  0  0
 10 15  1  0  0  0
 11 12  1  0  0  0
 11 96  1  0  0  0
 12 13  2  0  0  0
 12 97  1  0  0  0
 13 14  1  0  0  0
 13 31  1  0  0  0
 14 15  2  0  0  0
 14 98  1  0  0  0
 15 99  1  0  0  0
 16 17  2  0  0  0
 16 21  1  0  0  0
 16 31  1  0  0  0
 17 18  1  0  0  0
 17100  1  0  0  0
 18 19  2  0  0  0
 18101  1  0  0  0
 19 20  1  0  0  0
 19 24  1  0  0  0
 20 21  2  0  0  0
 20102  1  0  0  0
 21 23  1  0  0  0
 22 28  1  0  0  0
 22 32  2  0  0  0
 26 27  1  0  0  0
 28103  1  0  0  0
 28104  1  0  0  0
 29105  1  0  0  0
 29106  1  0  0  0
 33 34  1  0  0  0
 33 66  1  0  0  0
 33 70  2  0  0  0
 34 36  1  0  0  0
 34 59  1  0  0  0
 34107  1  0  0  0
 35 44  2  0  0  0
 35 45  1  0  0  0
 35 68  1  0  0  0
 36 56  1  0  0  0
 36108  1  0  0  0
 37 39  1  0  0  0
 37 47  1  0  0  0
 37 66  1  0  0  0
 37109  1  0  0  0
 38 43  2  0  0  0
 38 46  1  0  0  0
 38 47  1  0  0  0
 39 64  1  0  0  0
 39 67  2  0  0  0
 40 52  1  0  0  0
 40 53  2  0  0  0
 40 58  1  0  0  0
 41110  1  0  0  0
 41111  1  0  0  0
 41112  1  0  0  0
 41 48  1  0  0  0
 42 43  1  0  0  0
 42 66  1  0  0  0
 42113  1  0  0  0
 42114  1  0  0  0
 43 44  1  0  0  0
 44115  1  0  0  0
 45 46  2  0  0  0
 45116  1  0  0  0
 46117  1  0  0  0
 47118  1  0  0  0
 47119  1  0  0  0
 48 56  1  0  0  0
 48 65  1  0  0  0
 48120  1  0  0  0
 49 50  1  0  0  0
 49 53  1  0  0  0
 49 64  1  0  0  0
 49121  1  0  0  0
 50 51  1  0  0  0
 50122  1  0  0  0
 50123  1  0  0  0
 51 52  1  0  0  0
 51124  1  0  0  0
 51125  1  0  0  0
 52126  1  0  0  0
 52127  1  0  0  0
 53 54  1  0  0  0
 54 55  2  0  0  0
 54128  1  0  0  0
 55 57  1  0  0  0
 55129  1  0  0  0
 56 69  2  0  0  0
 57 58  2  0  0  0
 57130  1  0  0  0
 58131  1  0  0  0
 59 60  1  0  0  0
 59 61  1  0  0  0
 59 62  1  0  0  0
 60132  1  0  0  0
 60133  1  0  0  0
 60134  1  0  0  0
 61135  1  0  0  0
 61136  1  0  0  0
 61137  1  0  0  0
 62138  1  0  0  0
 62139  1  0  0  0
 62140  1  0  0  0
 63 65  1  0  0  0
 63141  1  0  0  0
 63142  1  0  0  0
 63143  1  0  0  0
 64144  1  0  0  0
 65145  1  0  0  0
 68 77  1  0  0  0
 71 72  2  0  0  0
 71 73  1  0  0  0
 71146  1  0  0  0
 72 74  1  0  0  0
 72 77  1  0  0  0
 73 78  1  0  0  0
 73 83  2  0  0  0
 74 84  2  0  0  0
 74 86  1  0  0  0
 75 79  1  0  0  0
 75147  1  0  0  0
 75148  1  0  0  0
 75149  1  0  0  0
 76 86  1  0  0  0
 76150  1  0  0  0
 76151  1  0  0  0
 76152  1  0  0  0
 77153  1  0  0  0
 77154  1  0  0  0
 78 79  1  0  0  0
 78155  1  0  0  0
 78156  1  0  0  0
 79157  1  0  0  0
 79158  1  0  0  0
 80 81  1  0  0  0
 80 82  1  0  0  0
 80159  1  0  0  0
 80160  1  0  0  0
 81 85  1  0  0  0
 81161  1  0  0  0
 81162  1  0  0  0
 82 86  1  0  0  0
 82163  1  0  0  0
 82164  1  0  0  0
 83 84  1  0  0  0
 85165  1  0  0  0
M  ISO  4   1 100  68 101  77 101  85 100
M  END
> <chiral flag>
0

> <version>
0

> <s_m_source_file>
/data/baiqing/PycharmProjects/Reinvent-master-3.2/result/LINK_invent/BTK/process_docking_weight1_custom_sum_contain_oxygen_bond_distance_aromatic_linkinvent_7_9_3/rearranged_h_0089.sdf

> <i_m_source_file_index>
39

> <r_mmod_Potential_Energy-OPLS-2005>
14880.2421875

> <r_mmod_Stretch_Energy-OPLS-2005>
8191.88720703125

> <r_mmod_Bend_Energy-OPLS-2005>
1436.41882324219

> <r_mmod_Torsional_Energy-OPLS-2005>
451.955505371094

> <r_mmod_Improper_Torsional_Energy-OPLS-2005>
32.0037841796875

> <r_mmod_Van_der_Waal_Energy-OPLS-2005>
2647.216796875

> <r_mmod_Electrostatic_Energy-OPLS-2005>
-352.563171386719

> <r_mmod_Solvation_Energy-OPLS-2005>
-247.762344360352

> <b_mmod_Minimization_Converged-OPLS-2005>
0

> <r_mmod_RMS_Derivative-OPLS-2005>
8.64501667022705

$$$$
40
                    3D
 Structure written by MMmdl.
172180  0  0  1  0            999 V2000
  -30.6315  -14.6856   20.4789 C   0  0  0  0  0  0
  -30.4417  -12.4274   19.4433 C   0  0  0  0  0  0
  -29.5100  -12.5074   18.2171 C   0  0  0  0  0  0
  -28.0312  -12.3458   18.6281 C   0  0  0  0  0  0
  -27.6469  -13.2288   19.8456 C   0  0  2  0  0  0
  -28.6985  -13.1279   20.9739 C   0  0  0  0  0  0
  -25.2543  -13.8205   20.5695 C   0  0  0  0  0  0
  -24.1830  -13.0466   20.9199 C   0  0  0  0  0  0
  -24.6421  -11.6934   20.8739 C   0  0  0  0  0  0
  -23.9099  -10.4316   21.0396 C   0  0  0  0  0  0
  -24.3647   -9.4228   21.9179 C   0  0  0  0  0  0
  -23.6317   -8.2260   22.0745 C   0  0  0  0  0  0
  -22.4299   -8.0296   21.3533 C   0  0  0  0  0  0
  -21.9944   -9.0280   20.4639 C   0  0  0  0  0  0
  -22.7272  -10.2159   20.3042 C   0  0  0  0  0  0
  -21.6865   -6.0736   22.5285 C   0  0  0  0  0  0
  -21.4017   -6.5634   23.8218 C   0  0  0  0  0  0
  -21.3653   -5.6783   24.9178 C   0  0  0  0  0  0
  -21.6040   -4.3048   24.7227 C   0  0  0  0  0  0
  -21.8816   -3.8139   23.4349 C   0  0  0  0  0  0
  -21.9196   -4.6960   22.3402 C   0  0  0  0  0  0
  -22.7833  -13.5237   21.1850 C   0  0  0  0  0  0
  -22.1660   -4.2143   21.0984 F   0  0  0  0  0  0
  -21.5631   -3.4532   25.7735 F   0  0  0  0  0  0
  -30.0024  -13.4694   20.3908 N   0  0  0  0  0  0
  -26.2977  -12.9417   20.3257 N   0  0  0  0  0  0
  -25.9354  -11.6564   20.5743 N   0  0  0  0  0  0
  -22.0481  -12.8243   22.0409 N   0  0  0  0  0  0
  -25.4236  -15.1935   20.4111 N   0  0  0  0  0  0
  -31.8289  -14.8055   20.2048 O   0  0  0  0  0  0
  -21.6654   -6.8897   21.4250 O   0  0  0  0  0  0
  -22.3507  -14.5523   20.6664 O   0  0  0  0  0  0
  -24.6332  -31.8542   23.2003 C   0  0  0  0  0  0
  -25.9146  -32.4752   23.8363 C   0  0  1  0  0  0
  -27.2090  -27.2723   20.1081 C   0  0  0  0  0  0
  -25.5927  -33.8555   24.2269 N   0  0  0  0  0  0
  -23.4283  -30.4821   21.5420 C   0  0  2  0  0  0
  -24.8733  -28.9388   20.1031 C   0  0  0  0  0  0
  -22.7476  -29.4614   22.4856 C   0  0  0  0  0  0
  -18.0297  -28.1361   22.8469 C   0  0  0  0  0  0
  -24.1487  -36.7295   23.2640 C   0  0  0  0  0  0
  -25.9781  -30.7681   21.3829 C   0  0  0  0  0  0
  -26.0453  -29.3955   20.7196 C   0  0  0  0  0  0
  -27.2170  -28.5725   20.7141 C   0  0  0  0  0  0
  -26.0248  -26.9064   19.4313 C   0  0  0  0  0  0
  -24.8696  -27.7050   19.4409 C   0  0  0  0  0  0
  -23.6476  -29.8234   20.1570 C   0  0  0  0  0  0
  -25.4104  -36.3071   24.0325 C   0  0  1  0  0  0
  -20.5898  -28.3701   23.1202 C   0  0  2  0  0  0
  -20.6763  -26.9411   22.5350 C   0  0  0  0  0  0
  -19.5742  -26.6357   21.5147 C   0  0  0  0  0  0
  -18.1934  -26.7900   22.1590 C   0  0  0  0  0  0
  -19.1549  -28.8833   23.2855 C   0  0  0  0  0  0
  -18.9478  -30.1421   23.8900 C   0  0  0  0  0  0
  -17.6483  -30.6564   24.0563 C   0  0  0  0  0  0
  -25.9051  -34.9442   23.5100 C   0  0  0  0  0  0
  -16.5372  -29.9072   23.6323 C   0  0  0  0  0  0
  -16.7288  -28.6478   23.0363 C   0  0  0  0  0  0
  -26.4508  -31.6576   25.0761 C   0  0  0  0  0  0
  -25.3743  -31.3704   26.1499 C   0  0  0  0  0  0
  -27.0331  -30.2982   24.6232 C   0  0  0  0  0  0
  -27.6055  -32.4333   25.7520 C   0  0  0  0  0  0
  -27.5569  -37.1796   24.8461 C   0  0  0  0  0  0
  -21.4184  -29.3068   22.3583 N   0  0  0  0  0  0
  -26.4273  -37.3779   23.9423 N   0  0  0  0  0  0
  -24.6992  -31.0530   22.0971 N   0  0  0  0  0  0
  -23.4146  -28.8097   23.2932 O   0  0  0  0  0  0
  -28.2830  -26.3573   20.1849 O   0  0  0  0  0  0
  -26.5642  -34.8920   22.4677 O   0  0  0  0  0  0
  -23.5483  -32.1342   23.7291 O   0  0  0  0  0  0
  -29.4306  -21.0791   20.3090 C   0  0  0  0  0  0
  -28.4867  -22.1661   20.5516 C   0  0  0  0  0  0
  -29.0289  -19.6878   20.3818 C   0  0  0  0  0  0
  -27.1705  -21.6688   20.8242 C   0  0  0  0  0  0
  -23.5232  -24.4964   19.9986 C   0  0  0  0  0  0
  -22.9166  -22.5314   18.5169 C   0  0  0  0  0  0
  -28.9444  -24.0360   22.1744 C   0  0  0  0  0  0
  -30.3293  -23.9315   20.1119 C   0  0  0  0  0  0
  -29.8502  -18.4064   19.9538 C   0  0  0  0  0  0
  -25.9111  -22.4960   20.9944 C   0  0  0  0  0  0
  -25.1670  -22.5928   19.6446 C   0  0  0  0  0  0
  -30.1496  -17.2348   21.0109 C   0  0  0  0  0  0
  -28.0010  -24.8907   19.9736 C   0  0  0  0  0  0
  -23.6891  -22.9909   19.7623 C   0  0  0  0  0  0
  -28.9013  -23.7275   20.6646 C   0  0  0  0  0  0
  -27.7515  -19.3833   20.6758 N   0  0  0  0  0  0
  -26.8609  -20.3465   20.8858 N   0  0  0  0  0  0
  -29.8326  -15.7859   20.6761 N   0  0  0  0  0  0
  -31.4779  -12.5669   19.1288 H   0  0  0  0  0  0
  -30.3950  -11.4392   19.9039 H   0  0  0  0  0  0
  -29.7855  -11.7425   17.4904 H   0  0  0  0  0  0
  -29.6479  -13.4680   17.7186 H   0  0  0  0  0  0
  -27.8668  -11.2952   18.8685 H   0  0  0  0  0  0
  -27.3840  -12.5711   17.7786 H   0  0  0  0  0  0
  -27.6503  -14.2570   19.4809 H   0  0  0  0  0  0
  -28.7274  -12.1219   21.3957 H   0  0  0  0  0  0
  -28.4450  -13.7977   21.7986 H   0  0  0  0  0  0
  -25.2801   -9.5685   22.4752 H   0  0  0  0  0  0
  -24.0011   -7.4650   22.7468 H   0  0  0  0  0  0
  -21.0864   -8.8809   19.8960 H   0  0  0  0  0  0
  -22.3740  -10.9696   19.6134 H   0  0  0  0  0  0
  -21.2012   -7.6138   23.9717 H   0  0  0  0  0  0
  -21.1475   -6.0516   25.9081 H   0  0  0  0  0  0
  -22.0604   -2.7602   23.2856 H   0  0  0  0  0  0
  -22.4093  -11.9926   22.4834 H   0  0  0  0  0  0
  -21.1063  -13.1233   22.2547 H   0  0  0  0  0  0
  -24.6603  -15.8502   20.5267 H   0  0  0  0  0  0
  -26.2692  -15.6362   20.0773 H   0  0  0  0  0  0
  -26.7216  -32.5424   23.1119 H   0  0  0  0  0  0
  -25.0071  -33.9667   25.0411 H   0  0  0  0  0  0
  -22.7279  -31.3055   21.3912 H   0  0  0  0  0  0
  -23.3727  -35.9651   23.3303 H   0  0  0  0  0  0
  -24.3603  -36.8935   22.2061 H   0  0  0  0  0  0
  -23.7240  -37.6489   23.6676 H   0  0  0  0  0  0
  -26.1253  -31.5278   20.6140 H   0  0  0  0  0  0
  -26.8570  -30.8106   22.0160 H   0  0  0  0  0  0
  -28.1146  -28.9085   21.2118 H   0  0  0  0  0  0
  -25.9651  -25.9748   18.8894 H   0  0  0  0  0  0
  -23.9803  -27.3642   18.9296 H   0  0  0  0  0  0
  -23.7872  -30.6034   19.4080 H   0  0  0  0  0  0
  -22.7654  -29.2607   19.8459 H   0  0  0  0  0  0
  -25.1284  -36.1917   25.0815 H   0  0  0  0  0  0
  -21.0041  -28.3299   24.1298 H   0  0  0  0  0  0
  -20.5554  -26.2346   23.3573 H   0  0  0  0  0  0
  -21.6648  -26.7357   22.1205 H   0  0  0  0  0  0
  -19.6914  -25.6249   21.1202 H   0  0  0  0  0  0
  -19.6666  -27.3133   20.6642 H   0  0  0  0  0  0
  -17.4179  -26.6638   21.4022 H   0  0  0  0  0  0
  -18.0408  -26.0030   22.8987 H   0  0  0  0  0  0
  -19.7964  -30.7227   24.2273 H   0  0  0  0  0  0
  -17.5057  -31.6245   24.5165 H   0  0  0  0  0  0
  -15.5381  -30.3004   23.7600 H   0  0  0  0  0  0
  -15.8690  -28.0786   22.7107 H   0  0  0  0  0  0
  -24.5933  -30.7022   25.7860 H   0  0  0  0  0  0
  -24.8900  -32.2854   26.4922 H   0  0  0  0  0  0
  -25.8098  -30.8902   27.0276 H   0  0  0  0  0  0
  -26.2894  -29.6737   24.1263 H   0  0  0  0  0  0
  -27.4004  -29.7244   25.4748 H   0  0  0  0  0  0
  -27.8803  -30.4238   23.9487 H   0  0  0  0  0  0
  -27.2646  -33.3654   26.2048 H   0  0  0  0  0  0
  -28.3881  -32.6863   25.0355 H   0  0  0  0  0  0
  -28.0717  -31.8494   26.5472 H   0  0  0  0  0  0
  -28.2572  -38.0105   24.7538 H   0  0  0  0  0  0
  -28.1069  -36.2634   24.6242 H   0  0  0  0  0  0
  -27.2315  -37.1428   25.8871 H   0  0  0  0  0  0
  -20.9307  -29.8897   21.6921 H   0  0  0  0  0  0
  -26.0138  -38.2852   24.1418 H   0  0  0  0  0  0
  -30.4555  -21.2983   20.0501 H   0  0  0  0  0  0
  -22.4822  -24.7497   20.1985 H   0  0  0  0  0  0
  -23.8398  -25.0601   19.1221 H   0  0  0  0  0  0
  -24.1133  -24.8370   20.8506 H   0  0  0  0  0  0
  -21.8543  -22.7522   18.6112 H   0  0  0  0  0  0
  -23.0061  -21.4515   18.3799 H   0  0  0  0  0  0
  -23.2886  -23.0117   17.6092 H   0  0  0  0  0  0
  -29.2402  -25.0680   22.3695 H   0  0  0  0  0  0
  -29.6604  -23.3913   22.6823 H   0  0  0  0  0  0
  -27.9821  -23.8746   22.6583 H   0  0  0  0  0  0
  -30.4018  -23.6379   19.0643 H   0  0  0  0  0  0
  -31.0803  -23.3778   20.6772 H   0  0  0  0  0  0
  -30.6267  -24.9779   20.1735 H   0  0  0  0  0  0
  -30.7959  -18.7424   19.5242 H   0  0  0  0  0  0
  -29.3042  -17.9725   19.1154 H   0  0  0  0  0  0
  -26.0667  -23.4444   21.4977 H   0  0  0  0  0  0
  -25.2789  -21.9581   21.7016 H   0  0  0  0  0  0
  -25.1911  -21.6018   19.1853 H   0  0  0  0  0  0
  -25.6994  -23.2370   18.9451 H   0  0  0  0  0  0
  -31.1937  -17.3072   21.3220 H   0  0  0  0  0  0
  -29.5806  -17.4504   21.9169 H   0  0  0  0  0  0
  -26.9837  -24.7448   20.2930 H   0  0  0  0  0  0
  -27.9846  -24.7095   18.8989 H   0  0  0  0  0  0
  -23.2607  -22.4656   20.6171 H   0  0  0  0  0  0
  -28.8498  -15.5652   20.7281 H   0  0  0  0  0  0
  1 25  1  0  0  0
  1 30  2  0  0  0
  1 88  1  0  0  0
  2  3  1  0  0  0
  2 25  1  0  0  0
  2 89  1  0  0  0
  2 90  1  0  0  0
  3  4  1  0  0  0
  3 91  1  0  0  0
  3 92  1  0  0  0
  4  5  1  0  0  0
  4 93  1  0  0  0
  4 94  1  0  0  0
  5  6  1  0  0  0
  5 26  1  0  0  0
  5 95  1  0  0  0
  6 25  1  0  0  0
  6 96  1  0  0  0
  6 97  1  0  0  0
  7  8  2  0  0  0
  7 26  1  0  0  0
  7 29  1  0  0  0
  8  9  1  0  0  0
  8 22  1  0  0  0
  9 10  1  0  0  0
  9 27  2  0  0  0
 10 11  2  0  0  0
 10 15  1  0  0  0
 11 12  1  0  0  0
 11 98  1  0  0  0
 12 13  2  0  0  0
 12 99  1  0  0  0
 13 14  1  0  0  0
 13 31  1  0  0  0
 14 15  2  0  0  0
 14100  1  0  0  0
 15101  1  0  0  0
 16 17  2  0  0  0
 16 21  1  0  0  0
 16 31  1  0  0  0
 17 18  1  0  0  0
 17102  1  0  0  0
 18 19  2  0  0  0
 18103  1  0  0  0
 19 20  1  0  0  0
 19 24  1  0  0  0
 20 21  2  0  0  0
 20104  1  0  0  0
 21 23  1  0  0  0
 22 28  1  0  0  0
 22 32  2  0  0  0
 26 27  1  0  0  0
 28105  1  0  0  0
 28106  1  0  0  0
 29107  1  0  0  0
 29108  1  0  0  0
 33 34  1  0  0  0
 33 66  1  0  0  0
 33 70  2  0  0  0
 34 36  1  0  0  0
 34 59  1  0  0  0
 34109  1  0  0  0
 35 44  2  0  0  0
 35 45  1  0  0  0
 35 68  1  0  0  0
 36 56  1  0  0  0
 36110  1  0  0  0
 37 39  1  0  0  0
 37 47  1  0  0  0
 37 66  1  0  0  0
 37111  1  0  0  0
 38 43  2  0  0  0
 38 46  1  0  0  0
 38 47  1  0  0  0
 39 64  1  0  0  0
 39 67  2  0  0  0
 40 52  1  0  0  0
 40 53  2  0  0  0
 40 58  1  0  0  0
 41112  1  0  0  0
 41113  1  0  0  0
 41114  1  0  0  0
 41 48  1  0  0  0
 42 43  1  0  0  0
 42 66  1  0  0  0
 42115  1  0  0  0
 42116  1  0  0  0
 43 44  1  0  0  0
 44117  1  0  0  0
 45 46  2  0  0  0
 45118  1  0  0  0
 46119  1  0  0  0
 47120  1  0  0  0
 47121  1  0  0  0
 48 56  1  0  0  0
 48 65  1  0  0  0
 48122  1  0  0  0
 49 50  1  0  0  0
 49 53  1  0  0  0
 49 64  1  0  0  0
 49123  1  0  0  0
 50 51  1  0  0  0
 50124  1  0  0  0
 50125  1  0  0  0
 51 52  1  0  0  0
 51126  1  0  0  0
 51127  1  0  0  0
 52128  1  0  0  0
 52129  1  0  0  0
 53 54  1  0  0  0
 54 55  2  0  0  0
 54130  1  0  0  0
 55 57  1  0  0  0
 55131  1  0  0  0
 56 69  2  0  0  0
 57 58  2  0  0  0
 57132  1  0  0  0
 58133  1  0  0  0
 59 60  1  0  0  0
 59 61  1  0  0  0
 59 62  1  0  0  0
 60134  1  0  0  0
 60135  1  0  0  0
 60136  1  0  0  0
 61137  1  0  0  0
 61138  1  0  0  0
 61139  1  0  0  0
 62140  1  0  0  0
 62141  1  0  0  0
 62142  1  0  0  0
 63 65  1  0  0  0
 63143  1  0  0  0
 63144  1  0  0  0
 63145  1  0  0  0
 64146  1  0  0  0
 65147  1  0  0  0
 68 83  1  0  0  0
 71 72  2  0  0  0
 71 73  1  0  0  0
 71148  1  0  0  0
 72 74  1  0  0  0
 72 85  1  0  0  0
 73 79  1  0  0  0
 73 86  2  0  0  0
 74 80  1  0  0  0
 74 87  2  0  0  0
 75149  1  0  0  0
 75150  1  0  0  0
 75151  1  0  0  0
 75 84  1  0  0  0
 76 84  1  0  0  0
 76152  1  0  0  0
 76153  1  0  0  0
 76154  1  0  0  0
 77155  1  0  0  0
 77156  1  0  0  0
 77157  1  0  0  0
 77 85  1  0  0  0
 78 85  1  0  0  0
 78158  1  0  0  0
 78159  1  0  0  0
 78160  1  0  0  0
 79 82  1  0  0  0
 79161  1  0  0  0
 79162  1  0  0  0
 80 81  1  0  0  0
 80163  1  0  0  0
 80164  1  0  0  0
 81 84  1  0  0  0
 81165  1  0  0  0
 81166  1  0  0  0
 82 88  1  0  0  0
 82167  1  0  0  0
 82168  1  0  0  0
 83 85  1  0  0  0
 83169  1  0  0  0
 83170  1  0  0  0
 84171  1  0  0  0
 86 87  1  0  0  0
 88172  1  0  0  0
M  ISO  4   1 100  68 101  83 101  88 100
M  END
> <chiral flag>
0

> <version>
0

> <s_m_source_file>
/data/baiqing/PycharmProjects/Reinvent-master-3.2/result/LINK_invent/BTK/process_docking_weight1_custom_sum_contain_oxygen_bond_distance_aromatic_linkinvent_7_9_3/rearranged_h_0089.sdf

> <i_m_source_file_index>
40

> <r_mmod_Potential_Energy-OPLS-2005>
177.379669189453

> <r_mmod_Stretch_Energy-OPLS-2005>
120.020950317383

> <r_mmod_Bend_Energy-OPLS-2005>
189.906463623047

> <r_mmod_Torsional_Energy-OPLS-2005>
225.415344238281

> <r_mmod_Improper_Torsional_Energy-OPLS-2005>
5.94607305526733

> <r_mmod_Van_der_Waal_Energy-OPLS-2005>
145.01171875

> <r_mmod_Electrostatic_Energy-OPLS-2005>
-369.475891113281

> <r_mmod_Solvation_Energy-OPLS-2005>
-214.923294067383

> <b_mmod_Minimization_Converged-OPLS-2005>
0

> <r_mmod_RMS_Derivative-OPLS-2005>
3.86476874351501

$$$$
41
                    3D
 Structure written by MMmdl.
175183  0  0  1  0            999 V2000
  -30.6526  -14.4537   20.6535 C   0  0  0  0  0  0
  -30.4391  -12.3307   19.3935 C   0  0  0  0  0  0
  -29.4856  -12.5231   18.1948 C   0  0  0  0  0  0
  -28.0074  -12.3754   18.6102 C   0  0  0  0  0  0
  -27.6643  -13.1880   19.8846 C   0  0  2  0  0  0
  -28.7039  -12.9009   20.9882 C   0  0  0  0  0  0
  -25.2626  -13.8106   20.5657 C   0  0  0  0  0  0
  -24.1844  -13.0423   20.9177 C   0  0  0  0  0  0
  -24.6353  -11.6878   20.8731 C   0  0  0  0  0  0
  -23.9007  -10.4289   21.0388 C   0  0  0  0  0  0
  -24.3573   -9.4228   21.9175 C   0  0  0  0  0  0
  -23.6287   -8.2243   22.0745 C   0  0  0  0  0  0
  -22.4257   -8.0277   21.3549 C   0  0  0  0  0  0
  -21.9872   -9.0233   20.4643 C   0  0  0  0  0  0
  -22.7173  -10.2138   20.3041 C   0  0  0  0  0  0
  -21.6840   -6.0728   22.5273 C   0  0  0  0  0  0
  -21.4007   -6.5636   23.8212 C   0  0  0  0  0  0
  -21.3679   -5.6794   24.9175 C   0  0  0  0  0  0
  -21.6040   -4.3049   24.7225 C   0  0  0  0  0  0
  -21.8838   -3.8150   23.4349 C   0  0  0  0  0  0
  -21.9191   -4.6951   22.3407 C   0  0  0  0  0  0
  -22.7884  -13.5260   21.1860 C   0  0  0  0  0  0
  -22.1648   -4.2145   21.0976 F   0  0  0  0  0  0
  -21.5676   -3.4539   25.7742 F   0  0  0  0  0  0
  -30.0314  -13.2602   20.4566 N   0  0  0  0  0  0
  -26.3024  -12.9222   20.3395 N   0  0  0  0  0  0
  -25.9273  -11.6407   20.5771 N   0  0  0  0  0  0
  -22.0521  -12.8236   22.0411 N   0  0  0  0  0  0
  -25.4426  -15.1824   20.4025 N   0  0  0  0  0  0
  -31.7438  -14.7421   20.1550 O   0  0  0  0  0  0
  -21.6644   -6.8862   21.4236 O   0  0  0  0  0  0
  -22.3590  -14.5579   20.6737 O   0  0  0  0  0  0
  -24.6143  -31.8681   23.2103 C   0  0  0  0  0  0
  -25.9043  -32.4821   23.8392 C   0  0  1  0  0  0
  -27.2326  -27.4343   20.1037 C   0  0  0  0  0  0
  -25.5905  -33.8621   24.2322 N   0  0  0  0  0  0
  -23.4026  -30.4912   21.5506 C   0  0  2  0  0  0
  -24.8487  -28.9575   20.1160 C   0  0  0  0  0  0
  -22.7413  -29.4663   22.4996 C   0  0  0  0  0  0
  -18.0276  -28.1377   22.8486 C   0  0  0  0  0  0
  -24.1486  -36.7307   23.2637 C   0  0  0  0  0  0
  -25.9305  -30.8357   21.3630 C   0  0  0  0  0  0
  -26.0098  -29.4704   20.7096 C   0  0  0  0  0  0
  -27.2073  -28.7182   20.6956 C   0  0  0  0  0  0
  -26.0573  -26.9402   19.4954 C   0  0  0  0  0  0
  -24.8675  -27.6928   19.5040 C   0  0  0  0  0  0
  -23.6092  -29.8232   20.1656 C   0  0  0  0  0  0
  -25.4111  -36.3113   24.0336 C   0  0  1  0  0  0
  -20.5862  -28.3667   23.1325 C   0  0  2  0  0  0
  -20.6765  -26.9407   22.5422 C   0  0  0  0  0  0
  -19.5748  -26.6386   21.5219 C   0  0  0  0  0  0
  -18.1923  -26.7927   22.1620 C   0  0  0  0  0  0
  -19.1517  -28.8843   23.2903 C   0  0  0  0  0  0
  -18.9448  -30.1449   23.8911 C   0  0  0  0  0  0
  -17.6447  -30.6588   24.0565 C   0  0  0  0  0  0
  -25.9034  -34.9477   23.5129 C   0  0  0  0  0  0
  -16.5344  -29.9084   23.6328 C   0  0  0  0  0  0
  -16.7259  -28.6501   23.0356 C   0  0  0  0  0  0
  -26.4476  -31.6600   25.0714 C   0  0  0  0  0  0
  -25.3746  -31.3708   26.1470 C   0  0  0  0  0  0
  -27.0298  -30.3041   24.6092 C   0  0  0  0  0  0
  -27.6064  -32.4318   25.7458 C   0  0  0  0  0  0
  -27.5590  -37.1796   24.8460 C   0  0  0  0  0  0
  -21.4144  -29.3030   22.3721 N   0  0  0  0  0  0
  -26.4297  -37.3799   23.9412 N   0  0  0  0  0  0
  -24.6669  -31.0795   22.1002 N   0  0  0  0  0  0
  -23.4181  -28.8224   23.3057 O   0  0  0  0  0  0
  -28.3867  -26.6811   20.1046 O   0  0  0  0  0  0
  -26.5602  -34.8930   22.4688 O   0  0  0  0  0  0
  -23.5334  -32.1434   23.7501 O   0  0  0  0  0  0
  -30.7317  -19.7886   18.4761 C   0  0  0  0  0  0
  -31.2468  -20.9012   17.7632 C   0  0  0  0  0  0
  -30.5843  -20.1218   19.7918 C   0  0  0  0  0  0
  -31.3606  -21.9253   18.6700 C   0  0  0  0  0  0
  -31.9504  -23.2878   18.4508 C   0  0  0  0  0  0
  -31.2623  -21.6991   13.9332 C   0  0  0  0  0  0
  -29.2771  -21.5411   15.5104 C   0  0  0  0  0  0
  -30.2388  -19.2085   20.9439 C   0  0  0  0  0  0
  -30.1715  -17.7072   20.5446 C   0  0  0  0  0  0
  -29.5063  -23.1713   21.2590 C   0  0  0  0  0  0
  -29.4771  -24.4874   20.4379 C   0  0  0  0  0  0
  -30.7840  -22.2937   21.1325 C   0  0  0  0  0  0
  -30.1321  -16.7260   21.7375 C   0  0  0  0  0  0
  -28.2725  -25.4034   20.7570 C   0  0  0  0  0  0
  -31.6508  -20.9052   16.3031 C   0  0  2  0  0  0
  -30.7907  -21.8102   15.3934 C   0  0  0  0  0  0
  -30.8753  -21.4873   19.9062 N   0  0  0  0  0  0
  -29.9098  -15.3221   21.3688 N   0  0  0  0  0  0
  -31.6073  -19.6514   15.8426 F   0  0  0  0  0  0
  -31.4719  -12.4845   19.0766 H   0  0  0  0  0  0
  -30.3937  -11.3068   19.7637 H   0  0  0  0  0  0
  -29.7249  -11.8062   17.4092 H   0  0  0  0  0  0
  -29.6358  -13.5142   17.7603 H   0  0  0  0  0  0
  -27.8102  -11.3177   18.7812 H   0  0  0  0  0  0
  -27.3507  -12.6732   17.7921 H   0  0  0  0  0  0
  -27.7253  -14.2435   19.6198 H   0  0  0  0  0  0
  -28.7019  -11.8408   21.2475 H   0  0  0  0  0  0
  -28.4463  -13.4162   21.9141 H   0  0  0  0  0  0
  -25.2702   -9.5719   22.4778 H   0  0  0  0  0  0
  -24.0021   -7.4616   22.7429 H   0  0  0  0  0  0
  -21.0832   -8.8706   19.8926 H   0  0  0  0  0  0
  -22.3585  -10.9687   19.6176 H   0  0  0  0  0  0
  -21.1943   -7.6134   23.9703 H   0  0  0  0  0  0
  -21.1515   -6.0523   25.9087 H   0  0  0  0  0  0
  -22.0586   -2.7601   23.2835 H   0  0  0  0  0  0
  -22.4071  -11.9868   22.4798 H   0  0  0  0  0  0
  -21.1163  -13.1322   22.2643 H   0  0  0  0  0  0
  -24.6890  -15.8544   20.5056 H   0  0  0  0  0  0
  -26.3101  -15.6043   20.0937 H   0  0  0  0  0  0
  -26.7116  -32.5531   23.1152 H   0  0  0  0  0  0
  -25.0066  -33.9782   25.0478 H   0  0  0  0  0  0
  -22.6915  -31.3081   21.4129 H   0  0  0  0  0  0
  -23.3754  -35.9631   23.3296 H   0  0  0  0  0  0
  -24.3591  -36.8922   22.2052 H   0  0  0  0  0  0
  -23.7223  -37.6507   23.6650 H   0  0  0  0  0  0
  -26.0456  -31.6031   20.5959 H   0  0  0  0  0  0
  -26.8171  -30.8850   21.9826 H   0  0  0  0  0  0
  -28.1059  -29.1110   21.1512 H   0  0  0  0  0  0
  -26.0561  -25.9761   19.0082 H   0  0  0  0  0  0
  -23.9768  -27.2946   19.0373 H   0  0  0  0  0  0
  -23.7130  -30.5976   19.4042 H   0  0  0  0  0  0
  -22.7325  -29.2411   19.8747 H   0  0  0  0  0  0
  -25.1282  -36.1974   25.0830 H   0  0  0  0  0  0
  -20.9955  -28.3231   24.1447 H   0  0  0  0  0  0
  -20.5684  -26.2272   23.3607 H   0  0  0  0  0  0
  -21.6636  -26.7463   22.1203 H   0  0  0  0  0  0
  -19.6914  -25.6303   21.1239 H   0  0  0  0  0  0
  -19.6700  -27.3204   20.6758 H   0  0  0  0  0  0
  -17.4205  -26.6696   21.4010 H   0  0  0  0  0  0
  -18.0318  -26.0063   22.9008 H   0  0  0  0  0  0
  -19.7928  -30.7266   24.2279 H   0  0  0  0  0  0
  -17.5007  -31.6272   24.5167 H   0  0  0  0  0  0
  -15.5342  -30.2993   23.7653 H   0  0  0  0  0  0
  -15.8663  -28.0827   22.7066 H   0  0  0  0  0  0
  -24.5916  -30.7062   25.7804 H   0  0  0  0  0  0
  -24.8942  -32.2861   26.4933 H   0  0  0  0  0  0
  -25.8098  -30.8863   27.0216 H   0  0  0  0  0  0
  -26.2828  -29.6798   24.1175 H   0  0  0  0  0  0
  -27.4097  -29.7290   25.4543 H   0  0  0  0  0  0
  -27.8653  -30.4355   23.9213 H   0  0  0  0  0  0
  -27.2699  -33.3605   26.2080 H   0  0  0  0  0  0
  -28.3837  -32.6904   25.0253 H   0  0  0  0  0  0
  -28.0781  -31.8421   26.5329 H   0  0  0  0  0  0
  -28.2594  -38.0108   24.7544 H   0  0  0  0  0  0
  -28.1099  -36.2643   24.6234 H   0  0  0  0  0  0
  -27.2316  -37.1381   25.8866 H   0  0  0  0  0  0
  -20.9310  -29.8712   21.6900 H   0  0  0  0  0  0
  -26.0183  -38.2868   24.1450 H   0  0  0  0  0  0
  -30.5544  -18.8053   18.0620 H   0  0  0  0  0  0
  -32.7138  -23.2531   17.6732 H   0  0  0  0  0  0
  -32.4362  -23.6825   19.3419 H   0  0  0  0  0  0
  -31.1985  -24.0005   18.1234 H   0  0  0  0  0  0
  -30.7402  -22.4039   13.2862 H   0  0  0  0  0  0
  -31.0929  -20.6963   13.5396 H   0  0  0  0  0  0
  -32.3295  -21.9040   13.8502 H   0  0  0  0  0  0
  -28.7075  -22.2407   14.8974 H   0  0  0  0  0  0
  -28.9279  -21.6581   16.5368 H   0  0  0  0  0  0
  -29.0315  -20.5279   15.1872 H   0  0  0  0  0  0
  -29.2945  -19.5182   21.3993 H   0  0  0  0  0  0
  -31.0077  -19.3163   21.7111 H   0  0  0  0  0  0
  -31.0580  -17.4608   19.9603 H   0  0  0  0  0  0
  -29.3138  -17.5465   19.8880 H   0  0  0  0  0  0
  -28.6233  -22.5722   21.0345 H   0  0  0  0  0  0
  -29.4137  -23.4385   22.3126 H   0  0  0  0  0  0
  -29.4457  -24.2496   19.3767 H   0  0  0  0  0  0
  -30.3992  -25.0426   20.6097 H   0  0  0  0  0  0
  -30.8224  -21.6177   21.9842 H   0  0  0  0  0  0
  -31.6796  -22.9033   21.2393 H   0  0  0  0  0  0
  -29.3033  -17.0093   22.3892 H   0  0  0  0  0  0
  -31.0347  -16.8096   22.3419 H   0  0  0  0  0  0
  -28.2178  -25.5782   21.8330 H   0  0  0  0  0  0
  -27.3559  -24.8760   20.4862 H   0  0  0  0  0  0
  -32.6985  -21.2048   16.2407 H   0  0  0  0  0  0
  -30.9596  -22.8397   15.7100 H   0  0  0  0  0  0
  -29.0557  -14.9168   21.7206 H   0  0  0  0  0  0
  1 25  1  0  0  0
  1 30  2  0  0  0
  1 88  1  0  0  0
  2  3  1  0  0  0
  2 25  1  0  0  0
  2 90  1  0  0  0
  2 91  1  0  0  0
  3  4  1  0  0  0
  3 92  1  0  0  0
  3 93  1  0  0  0
  4  5  1  0  0  0
  4 94  1  0  0  0
  4 95  1  0  0  0
  5  6  1  0  0  0
  5 26  1  0  0  0
  5 96  1  0  0  0
  6 25  1  0  0  0
  6 97  1  0  0  0
  6 98  1  0  0  0
  7  8  2  0  0  0
  7 26  1  0  0  0
  7 29  1  0  0  0
  8  9  1  0  0  0
  8 22  1  0  0  0
  9 10  1  0  0  0
  9 27  2  0  0  0
 10 11  2  0  0  0
 10 15  1  0  0  0
 11 12  1  0  0  0
 11 99  1  0  0  0
 12 13  2  0  0  0
 12100  1  0  0  0
 13 14  1  0  0  0
 13 31  1  0  0  0
 14 15  2  0  0  0
 14101  1  0  0  0
 15102  1  0  0  0
 16 17  2  0  0  0
 16 21  1  0  0  0
 16 31  1  0  0  0
 17 18  1  0  0  0
 17103  1  0  0  0
 18 19  2  0  0  0
 18104  1  0  0  0
 19 20  1  0  0  0
 19 24  1  0  0  0
 20 21  2  0  0  0
 20105  1  0  0  0
 21 23  1  0  0  0
 22 28  1  0  0  0
 22 32  2  0  0  0
 26 27  1  0  0  0
 28106  1  0  0  0
 28107  1  0  0  0
 29108  1  0  0  0
 29109  1  0  0  0
 33 34  1  0  0  0
 33 66  1  0  0  0
 33 70  2  0  0  0
 34 36  1  0  0  0
 34 59  1  0  0  0
 34110  1  0  0  0
 35 44  2  0  0  0
 35 45  1  0  0  0
 35 68  1  0  0  0
 36 56  1  0  0  0
 36111  1  0  0  0
 37 39  1  0  0  0
 37 47  1  0  0  0
 37 66  1  0  0  0
 37112  1  0  0  0
 38 43  2  0  0  0
 38 46  1  0  0  0
 38 47  1  0  0  0
 39 64  1  0  0  0
 39 67  2  0  0  0
 40 52  1  0  0  0
 40 53  2  0  0  0
 40 58  1  0  0  0
 41113  1  0  0  0
 41114  1  0  0  0
 41115  1  0  0  0
 41 48  1  0  0  0
 42 43  1  0  0  0
 42 66  1  0  0  0
 42116  1  0  0  0
 42117  1  0  0  0
 43 44  1  0  0  0
 44118  1  0  0  0
 45 46  2  0  0  0
 45119  1  0  0  0
 46120  1  0  0  0
 47121  1  0  0  0
 47122  1  0  0  0
 48 56  1  0  0  0
 48 65  1  0  0  0
 48123  1  0  0  0
 49 50  1  0  0  0
 49 53  1  0  0  0
 49 64  1  0  0  0
 49124  1  0  0  0
 50 51  1  0  0  0
 50125  1  0  0  0
 50126  1  0  0  0
 51 52  1  0  0  0
 51127  1  0  0  0
 51128  1  0  0  0
 52129  1  0  0  0
 52130  1  0  0  0
 53 54  1  0  0  0
 54 55  2  0  0  0
 54131  1  0  0  0
 55 57  1  0  0  0
 55132  1  0  0  0
 56 69  2  0  0  0
 57 58  2  0  0  0
 57133  1  0  0  0
 58134  1  0  0  0
 59 60  1  0  0  0
 59 61  1  0  0  0
 59 62  1  0  0  0
 60135  1  0  0  0
 60136  1  0  0  0
 60137  1  0  0  0
 61138  1  0  0  0
 61139  1  0  0  0
 61140  1  0  0  0
 62141  1  0  0  0
 62142  1  0  0  0
 62143  1  0  0  0
 63 65  1  0  0  0
 63144  1  0  0  0
 63145  1  0  0  0
 63146  1  0  0  0
 64147  1  0  0  0
 65148  1  0  0  0
 68 84  1  0  0  0
 71 72  1  0  0  0
 71 73  2  0  0  0
 71149  1  0  0  0
 72 74  2  0  0  0
 72 85  1  0  0  0
 73 78  1  0  0  0
 73 87  1  0  0  0
 74 75  1  0  0  0
 74 87  1  0  0  0
 75150  1  0  0  0
 75151  1  0  0  0
 75152  1  0  0  0
 76153  1  0  0  0
 76154  1  0  0  0
 76155  1  0  0  0
 76 86  1  0  0  0
 77 86  1  0  0  0
 77156  1  0  0  0
 77157  1  0  0  0
 77158  1  0  0  0
 78 79  1  0  0  0
 78159  1  0  0  0
 78160  1  0  0  0
 79 83  1  0  0  0
 79161  1  0  0  0
 79162  1  0  0  0
 80 81  1  0  0  0
 80 82  1  0  0  0
 80163  1  0  0  0
 80164  1  0  0  0
 81 84  1  0  0  0
 81165  1  0  0  0
 81166  1  0  0  0
 82 87  1  0  0  0
 82167  1  0  0  0
 82168  1  0  0  0
 83 88  1  0  0  0
 83169  1  0  0  0
 83170  1  0  0  0
 84171  1  0  0  0
 84172  1  0  0  0
 85 86  1  0  0  0
 85 89  1  0  0  0
 85173  1  0  0  0
 86174  1  0  0  0
 88175  1  0  0  0
M  ISO  4   1 100  68 101  84 101  88 100
M  END
> <chiral flag>
0

> <version>
0

> <s_m_source_file>
/data/baiqing/PycharmProjects/Reinvent-master-3.2/result/LINK_invent/BTK/process_docking_weight1_custom_sum_contain_oxygen_bond_distance_aromatic_linkinvent_7_9_3/rearranged_h_0089.sdf

> <i_m_source_file_index>
41

> <r_mmod_Potential_Energy-OPLS-2005>
-56.2767562866211

> <r_mmod_Stretch_Energy-OPLS-2005>
37.8760681152344

> <r_mmod_Bend_Energy-OPLS-2005>
108.361930847168

> <r_mmod_Torsional_Energy-OPLS-2005>
232.256393432617

> <r_mmod_Improper_Torsional_Energy-OPLS-2005>
2.99613189697266

> <r_mmod_Van_der_Waal_Energy-OPLS-2005>
127.36986541748

> <r_mmod_Electrostatic_Energy-OPLS-2005>
-368.949371337891

> <r_mmod_Solvation_Energy-OPLS-2005>
-209.556610107422

> <b_mmod_Minimization_Converged-OPLS-2005>
0

> <r_mmod_RMS_Derivative-OPLS-2005>
3.59040951728821

$$$$
42
                    3D
 Structure written by MMmdl.
173181  0  0  1  0            999 V2000
  -30.5965  -14.7544   20.4512 C   0  0  0  0  0  0
  -30.4325  -12.4617   19.4716 C   0  0  0  0  0  0
  -29.5068  -12.4993   18.2366 C   0  0  0  0  0  0
  -28.0356  -12.3182   18.6573 C   0  0  0  0  0  0
  -27.6382  -13.2285   19.8495 C   0  0  2  0  0  0
  -28.6823  -13.1735   20.9842 C   0  0  0  0  0  0
  -25.2492  -13.8188   20.5689 C   0  0  0  0  0  0
  -24.1787  -13.0438   20.9214 C   0  0  0  0  0  0
  -24.6383  -11.6917   20.8780 C   0  0  0  0  0  0
  -23.9059  -10.4287   21.0432 C   0  0  0  0  0  0
  -24.3610   -9.4208   21.9208 C   0  0  0  0  0  0
  -23.6288   -8.2239   22.0768 C   0  0  0  0  0  0
  -22.4273   -8.0281   21.3549 C   0  0  0  0  0  0
  -21.9911   -9.0248   20.4653 C   0  0  0  0  0  0
  -22.7234  -10.2135   20.3068 C   0  0  0  0  0  0
  -21.6849   -6.0736   22.5273 C   0  0  0  0  0  0
  -21.4014   -6.5646   23.8206 C   0  0  0  0  0  0
  -21.3656   -5.6797   24.9169 C   0  0  0  0  0  0
  -21.6044   -4.3060   24.7220 C   0  0  0  0  0  0
  -21.8816   -3.8150   23.4347 C   0  0  0  0  0  0
  -21.9195   -4.6967   22.3398 C   0  0  0  0  0  0
  -22.7815  -13.5225   21.1875 C   0  0  0  0  0  0
  -22.1663   -4.2151   21.0978 F   0  0  0  0  0  0
  -21.5627   -3.4545   25.7736 F   0  0  0  0  0  0
  -29.9784  -13.5261   20.3945 N   0  0  0  0  0  0
  -26.2921  -12.9397   20.3297 N   0  0  0  0  0  0
  -25.9313  -11.6543   20.5790 N   0  0  0  0  0  0
  -22.0457  -12.8209   22.0423 N   0  0  0  0  0  0
  -25.4156  -15.1899   20.4038 N   0  0  0  0  0  0
  -31.7931  -14.8476   20.1657 O   0  0  0  0  0  0
  -21.6642   -6.8879   21.4240 O   0  0  0  0  0  0
  -22.3499  -14.5540   20.6735 O   0  0  0  0  0  0
  -24.6299  -31.8505   23.1961 C   0  0  0  0  0  0
  -25.9122  -32.4730   23.8308 C   0  0  1  0  0  0
  -27.2193  -27.2601   20.1163 C   0  0  0  0  0  0
  -25.5910  -33.8527   24.2243 N   0  0  0  0  0  0
  -23.4256  -30.4729   21.5380 C   0  0  2  0  0  0
  -24.8711  -28.9150   20.1075 C   0  0  0  0  0  0
  -22.7476  -29.4562   22.4892 C   0  0  0  0  0  0
  -18.0279  -28.1347   22.8467 C   0  0  0  0  0  0
  -24.1497  -36.7280   23.2647 C   0  0  0  0  0  0
  -25.9690  -30.7646   21.3708 C   0  0  0  0  0  0
  -26.0407  -29.3850   20.7153 C   0  0  0  0  0  0
  -27.2132  -28.5671   20.7136 C   0  0  0  0  0  0
  -26.0236  -26.8485   19.4900 C   0  0  0  0  0  0
  -24.8674  -27.6535   19.4895 C   0  0  0  0  0  0
  -23.6441  -29.8041   20.1539 C   0  0  0  0  0  0
  -25.4115  -36.3055   24.0341 C   0  0  1  0  0  0
  -20.5881  -28.3653   23.1268 C   0  0  2  0  0  0
  -20.6766  -26.9367   22.5399 C   0  0  0  0  0  0
  -19.5760  -26.6346   21.5188 C   0  0  0  0  0  0
  -18.1929  -26.7885   22.1591 C   0  0  0  0  0  0
  -19.1532  -28.8813   23.2869 C   0  0  0  0  0  0
  -18.9464  -30.1402   23.8916 C   0  0  0  0  0  0
  -17.6473  -30.6565   24.0534 C   0  0  0  0  0  0
  -25.9048  -34.9426   23.5101 C   0  0  0  0  0  0
  -16.5359  -29.9059   23.6322 C   0  0  0  0  0  0
  -16.7262  -28.6459   23.0371 C   0  0  0  0  0  0
  -26.4505  -31.6547   25.0696 C   0  0  0  0  0  0
  -25.3757  -31.3648   26.1428 C   0  0  0  0  0  0
  -27.0354  -30.2985   24.6125 C   0  0  0  0  0  0
  -27.6058  -32.4297   25.7465 C   0  0  0  0  0  0
  -27.5579  -37.1796   24.8461 C   0  0  0  0  0  0
  -21.4185  -29.3023   22.3666 N   0  0  0  0  0  0
  -26.4274  -37.3757   23.9428 N   0  0  0  0  0  0
  -24.6945  -31.0483   22.0923 N   0  0  0  0  0  0
  -23.4186  -28.8094   23.2976 O   0  0  0  0  0  0
  -28.3432  -26.4092   20.1837 O   0  0  0  0  0  0
  -26.5625  -34.8914   22.4667 O   0  0  0  0  0  0
  -23.5452  -32.1309   23.7277 O   0  0  0  0  0  0
  -27.2552  -21.3260   22.1481 C   0  0  0  0  0  0
  -28.1857  -20.9583   21.1439 C   0  0  0  0  0  0
  -26.7439  -20.4165   23.0850 C   0  0  0  0  0  0
  -28.5546  -19.5227   21.1463 C   0  0  0  0  0  0
  -27.2051  -19.0907   23.0377 C   0  0  0  0  0  0
  -23.2044  -21.2250   24.5146 C   0  0  0  0  0  0
  -28.0283  -17.6546   24.9546 C   0  0  0  0  0  0
  -26.1633  -16.7961   23.4303 C   0  0  0  0  0  0
  -28.6216  -22.1754   20.1966 C   0  0  0  0  0  0
  -25.7106  -20.9105   24.0923 C   0  0  0  0  0  0
  -29.3650  -18.6275   20.1293 C   0  0  0  0  0  0
  -24.2808  -20.5095   23.6901 C   0  0  0  0  0  0
  -28.1058  -23.6999   20.5573 C   0  0  0  0  0  0
  -30.2613  -17.3643   20.6677 C   0  0  0  0  0  0
  -28.4110  -25.0024   19.6497 C   0  0  0  0  0  0
  -26.8250  -18.0262   24.0718 C   0  0  0  0  0  0
  -28.0603  -18.6850   22.0840 N   0  0  0  0  0  0
  -29.8175  -15.8931   20.6201 N   0  0  0  0  0  0
  -31.4712  -12.5962   19.1651 H   0  0  0  0  0  0
  -30.3899  -11.4882   19.9625 H   0  0  0  0  0  0
  -29.7905  -11.7208   17.5278 H   0  0  0  0  0  0
  -29.6245  -13.4492   17.7140 H   0  0  0  0  0  0
  -27.9020  -11.2726   18.9368 H   0  0  0  0  0  0
  -27.3715  -12.4916   17.8095 H   0  0  0  0  0  0
  -27.6286  -14.2467   19.4601 H   0  0  0  0  0  0
  -28.7205  -12.1807   21.4334 H   0  0  0  0  0  0
  -28.4168  -13.8636   21.7878 H   0  0  0  0  0  0
  -25.2744   -9.5698   22.4796 H   0  0  0  0  0  0
  -23.9993   -7.4640   22.7491 H   0  0  0  0  0  0
  -21.0841   -8.8770   19.8952 H   0  0  0  0  0  0
  -22.3689  -10.9685   19.6183 H   0  0  0  0  0  0
  -21.2003   -7.6151   23.9710 H   0  0  0  0  0  0
  -21.1481   -6.0530   25.9072 H   0  0  0  0  0  0
  -22.0601   -2.7613   23.2842 H   0  0  0  0  0  0
  -22.4061  -11.9839   22.4768 H   0  0  0  0  0  0
  -21.1077  -13.1241   22.2643 H   0  0  0  0  0  0
  -24.6504  -15.8417   20.5340 H   0  0  0  0  0  0
  -26.2667  -15.6393   20.0940 H   0  0  0  0  0  0
  -26.7161  -32.5389   23.1022 H   0  0  0  0  0  0
  -25.0102  -33.9662   25.0417 H   0  0  0  0  0  0
  -22.7226  -31.2951   21.3878 H   0  0  0  0  0  0
  -23.3769  -35.9602   23.3263 H   0  0  0  0  0  0
  -24.3595  -36.8939   22.2066 H   0  0  0  0  0  0
  -23.7243  -37.6471   23.6689 H   0  0  0  0  0  0
  -26.1012  -31.5211   20.5962 H   0  0  0  0  0  0
  -26.8496  -30.8165   21.9982 H   0  0  0  0  0  0
  -28.1086  -28.9182   21.2064 H   0  0  0  0  0  0
  -25.9501  -25.8813   19.0157 H   0  0  0  0  0  0
  -23.9699  -27.2830   19.0154 H   0  0  0  0  0  0
  -23.7717  -30.5800   19.3977 H   0  0  0  0  0  0
  -22.7621  -29.2407   19.8464 H   0  0  0  0  0  0
  -25.1286  -36.1884   25.0831 H   0  0  0  0  0  0
  -20.9965  -28.3213   24.1395 H   0  0  0  0  0  0
  -20.5636  -26.2252   23.3595 H   0  0  0  0  0  0
  -21.6644  -26.7375   22.1221 H   0  0  0  0  0  0
  -19.6947  -25.6260   21.1213 H   0  0  0  0  0  0
  -19.6736  -27.3164   20.6727 H   0  0  0  0  0  0
  -17.4208  -26.6634   21.3981 H   0  0  0  0  0  0
  -18.0336  -26.0006   22.8969 H   0  0  0  0  0  0
  -19.7951  -30.7171   24.2337 H   0  0  0  0  0  0
  -17.5039  -31.6268   24.5092 H   0  0  0  0  0  0
  -15.5364  -30.2979   23.7631 H   0  0  0  0  0  0
  -15.8647  -28.0758   22.7144 H   0  0  0  0  0  0
  -24.6004  -30.6885   25.7783 H   0  0  0  0  0  0
  -24.8863  -32.2781   26.4825 H   0  0  0  0  0  0
  -25.8131  -30.8898   27.0216 H   0  0  0  0  0  0
  -26.2900  -29.6726   24.1199 H   0  0  0  0  0  0
  -27.4120  -29.7236   25.4590 H   0  0  0  0  0  0
  -27.8727  -30.4288   23.9272 H   0  0  0  0  0  0
  -27.2673  -33.3637   26.1950 H   0  0  0  0  0  0
  -28.3912  -32.6773   25.0317 H   0  0  0  0  0  0
  -28.0647  -31.8467   26.5456 H   0  0  0  0  0  0
  -28.2550  -38.0135   24.7532 H   0  0  0  0  0  0
  -28.1122  -36.2666   24.6235 H   0  0  0  0  0  0
  -27.2306  -37.1355   25.8863 H   0  0  0  0  0  0
  -20.9338  -29.8791   21.6926 H   0  0  0  0  0  0
  -26.0151  -38.2824   24.1456 H   0  0  0  0  0  0
  -26.8853  -22.3333   22.2292 H   0  0  0  0  0  0
  -22.2072  -20.9346   24.1821 H   0  0  0  0  0  0
  -23.2822  -22.3087   24.4145 H   0  0  0  0  0  0
  -23.2830  -20.9805   25.5743 H   0  0  0  0  0  0
  -28.4282  -18.5412   25.4472 H   0  0  0  0  0  0
  -28.8331  -17.2117   24.3675 H   0  0  0  0  0  0
  -27.7489  -16.9432   25.7308 H   0  0  0  0  0  0
  -25.2790  -17.0865   22.8624 H   0  0  0  0  0  0
  -25.8506  -16.0772   24.1875 H   0  0  0  0  0  0
  -26.8408  -16.2839   22.7479 H   0  0  0  0  0  0
  -28.3103  -21.9333   19.1799 H   0  0  0  0  0  0
  -29.7117  -22.1853   20.1744 H   0  0  0  0  0  0
  -25.7699  -21.9980   24.1482 H   0  0  0  0  0  0
  -25.9519  -20.5650   25.0985 H   0  0  0  0  0  0
  -30.0400  -19.3152   19.6185 H   0  0  0  0  0  0
  -28.6784  -18.2816   19.3546 H   0  0  0  0  0  0
  -24.1192  -20.7537   22.6391 H   0  0  0  0  0  0
  -24.1488  -19.4299   23.7760 H   0  0  0  0  0  0
  -28.4625  -23.9358   21.5607 H   0  0  0  0  0  0
  -27.0173  -23.6784   20.6227 H   0  0  0  0  0  0
  -30.6042  -17.5846   21.6788 H   0  0  0  0  0  0
  -31.1714  -17.3924   20.0676 H   0  0  0  0  0  0
  -27.8552  -24.9264   18.7160 H   0  0  0  0  0  0
  -29.4494  -24.9040   19.3326 H   0  0  0  0  0  0
  -26.0747  -18.4296   24.7460 H   0  0  0  0  0  0
  -28.8370  -15.7289   20.7930 H   0  0  0  0  0  0
  1 25  1  0  0  0
  1 30  2  0  0  0
  1 88  1  0  0  0
  2  3  1  0  0  0
  2 25  1  0  0  0
  2 89  1  0  0  0
  2 90  1  0  0  0
  3  4  1  0  0  0
  3 91  1  0  0  0
  3 92  1  0  0  0
  4  5  1  0  0  0
  4 93  1  0  0  0
  4 94  1  0  0  0
  5  6  1  0  0  0
  5 26  1  0  0  0
  5 95  1  0  0  0
  6 25  1  0  0  0
  6 96  1  0  0  0
  6 97  1  0  0  0
  7  8  2  0  0  0
  7 26  1  0  0  0
  7 29  1  0  0  0
  8  9  1  0  0  0
  8 22  1  0  0  0
  9 10  1  0  0  0
  9 27  2  0  0  0
 10 11  2  0  0  0
 10 15  1  0  0  0
 11 12  1  0  0  0
 11 98  1  0  0  0
 12 13  2  0  0  0
 12 99  1  0  0  0
 13 14  1  0  0  0
 13 31  1  0  0  0
 14 15  2  0  0  0
 14100  1  0  0  0
 15101  1  0  0  0
 16 17  2  0  0  0
 16 21  1  0  0  0
 16 31  1  0  0  0
 17 18  1  0  0  0
 17102  1  0  0  0
 18 19  2  0  0  0
 18103  1  0  0  0
 19 20  1  0  0  0
 19 24  1  0  0  0
 20 21  2  0  0  0
 20104  1  0  0  0
 21 23  1  0  0  0
 22 28  1  0  0  0
 22 32  2  0  0  0
 26 27  1  0  0  0
 28105  1  0  0  0
 28106  1  0  0  0
 29107  1  0  0  0
 29108  1  0  0  0
 33 34  1  0  0  0
 33 66  1  0  0  0
 33 70  2  0  0  0
 34 36  1  0  0  0
 34 59  1  0  0  0
 34109  1  0  0  0
 35 44  2  0  0  0
 35 45  1  0  0  0
 35 68  1  0  0  0
 36 56  1  0  0  0
 36110  1  0  0  0
 37 39  1  0  0  0
 37 47  1  0  0  0
 37 66  1  0  0  0
 37111  1  0  0  0
 38 43  2  0  0  0
 38 46  1  0  0  0
 38 47  1  0  0  0
 39 64  1  0  0  0
 39 67  2  0  0  0
 40 52  1  0  0  0
 40 53  2  0  0  0
 40 58  1  0  0  0
 41112  1  0  0  0
 41113  1  0  0  0
 41114  1  0  0  0
 41 48  1  0  0  0
 42 43  1  0  0  0
 42 66  1  0  0  0
 42115  1  0  0  0
 42116  1  0  0  0
 43 44  1  0  0  0
 44117  1  0  0  0
 45 46  2  0  0  0
 45118  1  0  0  0
 46119  1  0  0  0
 47120  1  0  0  0
 47121  1  0  0  0
 48 56  1  0  0  0
 48 65  1  0  0  0
 48122  1  0  0  0
 49 50  1  0  0  0
 49 53  1  0  0  0
 49 64  1  0  0  0
 49123  1  0  0  0
 50 51  1  0  0  0
 50124  1  0  0  0
 50125  1  0  0  0
 51 52  1  0  0  0
 51126  1  0  0  0
 51127  1  0  0  0
 52128  1  0  0  0
 52129  1  0  0  0
 53 54  1  0  0  0
 54 55  2  0  0  0
 54130  1  0  0  0
 55 57  1  0  0  0
 55131  1  0  0  0
 56 69  2  0  0  0
 57 58  2  0  0  0
 57132  1  0  0  0
 58133  1  0  0  0
 59 60  1  0  0  0
 59 61  1  0  0  0
 59 62  1  0  0  0
 60134  1  0  0  0
 60135  1  0  0  0
 60136  1  0  0  0
 61137  1  0  0  0
 61138  1  0  0  0
 61139  1  0  0  0
 62140  1  0  0  0
 62141  1  0  0  0
 62142  1  0  0  0
 63 65  1  0  0  0
 63143  1  0  0  0
 63144  1  0  0  0
 63145  1  0  0  0
 64146  1  0  0  0
 65147  1  0  0  0
 68 85  1  0  0  0
 71 72  2  0  0  0
 71 73  1  0  0  0
 71148  1  0  0  0
 72 74  1  0  0  0
 72 79  1  0  0  0
 73 75  2  0  0  0
 73 80  1  0  0  0
 74 81  1  0  0  0
 74 87  2  0  0  0
 75 86  1  0  0  0
 75 87  1  0  0  0
 76 82  1  0  0  0
 76149  1  0  0  0
 76150  1  0  0  0
 76151  1  0  0  0
 77152  1  0  0  0
 77153  1  0  0  0
 77154  1  0  0  0
 77 86  1  0  0  0
 78 86  1  0  0  0
 78155  1  0  0  0
 78156  1  0  0  0
 78157  1  0  0  0
 79 83  1  0  0  0
 79158  1  0  0  0
 79159  1  0  0  0
 80 82  1  0  0  0
 80160  1  0  0  0
 80161  1  0  0  0
 81 84  1  0  0  0
 81162  1  0  0  0
 81163  1  0  0  0
 82164  1  0  0  0
 82165  1  0  0  0
 83 85  1  0  0  0
 83166  1  0  0  0
 83167  1  0  0  0
 84 88  1  0  0  0
 84168  1  0  0  0
 84169  1  0  0  0
 85170  1  0  0  0
 85171  1  0  0  0
 86172  1  0  0  0
 88173  1  0  0  0
M  ISO  4   1 100  68 101  85 101  88 100
M  END
> <chiral flag>
0

> <version>
0

> <s_m_source_file>
/data/baiqing/PycharmProjects/Reinvent-master-3.2/result/LINK_invent/BTK/process_docking_weight1_custom_sum_contain_oxygen_bond_distance_aromatic_linkinvent_7_9_3/rearranged_h_0089.sdf

> <i_m_source_file_index>
42

> <r_mmod_Potential_Energy-OPLS-2005>
66.4249725341797

> <r_mmod_Stretch_Energy-OPLS-2005>
143.102935791016

> <r_mmod_Bend_Energy-OPLS-2005>
229.572692871094

> <r_mmod_Torsional_Energy-OPLS-2005>
203.239471435547

> <r_mmod_Improper_Torsional_Energy-OPLS-2005>
4.84772968292236

> <r_mmod_Van_der_Waal_Energy-OPLS-2005>
133.464157104492

> <r_mmod_Electrostatic_Energy-OPLS-2005>
-528.61572265625

> <r_mmod_Solvation_Energy-OPLS-2005>
-205.732070922852

> <b_mmod_Minimization_Converged-OPLS-2005>
0

> <r_mmod_RMS_Derivative-OPLS-2005>
2.40648889541626

$$$$
43
                    3D
 Structure written by MMmdl.
166174  0  0  1  0            999 V2000
  -30.6389  -14.5273   20.5763 C   0  0  0  0  0  0
  -30.4401  -12.3373   19.4380 C   0  0  0  0  0  0
  -29.5074  -12.5234   18.2218 C   0  0  0  0  0  0
  -28.0258  -12.3770   18.6239 C   0  0  0  0  0  0
  -27.6662  -13.2050   19.8853 C   0  0  2  0  0  0
  -28.7042  -12.9680   21.0066 C   0  0  0  0  0  0
  -25.2593  -13.8153   20.5680 C   0  0  0  0  0  0
  -24.1848  -13.0438   20.9179 C   0  0  0  0  0  0
  -24.6393  -11.6903   20.8737 C   0  0  0  0  0  0
  -23.9059  -10.4288   21.0398 C   0  0  0  0  0  0
  -24.3621   -9.4206   21.9172 C   0  0  0  0  0  0
  -23.6308   -8.2236   22.0734 C   0  0  0  0  0  0
  -22.4285   -8.0273   21.3536 C   0  0  0  0  0  0
  -21.9930   -9.0238   20.4626 C   0  0  0  0  0  0
  -22.7249  -10.2124   20.3030 C   0  0  0  0  0  0
  -21.6854   -6.0740   22.5290 C   0  0  0  0  0  0
  -21.4006   -6.5638   23.8221 C   0  0  0  0  0  0
  -21.3660   -5.6792   24.9188 C   0  0  0  0  0  0
  -21.6052   -4.3060   24.7242 C   0  0  0  0  0  0
  -21.8817   -3.8147   23.4358 C   0  0  0  0  0  0
  -21.9195   -4.6966   22.3421 C   0  0  0  0  0  0
  -22.7865  -13.5215   21.1875 C   0  0  0  0  0  0
  -22.1653   -4.2153   21.0996 F   0  0  0  0  0  0
  -21.5645   -3.4532   25.7746 F   0  0  0  0  0  0
  -30.0393  -13.3040   20.4754 N   0  0  0  0  0  0
  -26.3037  -12.9317   20.3377 N   0  0  0  0  0  0
  -25.9313  -11.6489   20.5753 N   0  0  0  0  0  0
  -22.0520  -12.8172   22.0424 N   0  0  0  0  0  0
  -25.4350  -15.1865   20.4086 N   0  0  0  0  0  0
  -31.7242  -14.7897   20.0501 O   0  0  0  0  0  0
  -21.6643   -6.8878   21.4243 O   0  0  0  0  0  0
  -22.3547  -14.5536   20.6750 O   0  0  0  0  0  0
  -24.6208  -31.8661   23.2068 C   0  0  0  0  0  0
  -25.9109  -32.4781   23.8392 C   0  0  1  0  0  0
  -27.2515  -27.4138   20.0963 C   0  0  0  0  0  0
  -25.6004  -33.8590   24.2348 N   0  0  0  0  0  0
  -23.4093  -30.4920   21.5423 C   0  0  2  0  0  0
  -24.8570  -28.9473   20.1134 C   0  0  0  0  0  0
  -22.7437  -29.4694   22.4912 C   0  0  0  0  0  0
  -18.0295  -28.1395   22.8462 C   0  0  0  0  0  0
  -24.1502  -36.7287   23.2635 C   0  0  0  0  0  0
  -25.9435  -30.8179   21.3709 C   0  0  0  0  0  0
  -26.0149  -29.4520   20.7152 C   0  0  0  0  0  0
  -27.2068  -28.6915   20.7060 C   0  0  0  0  0  0
  -26.0668  -26.9176   19.5019 C   0  0  0  0  0  0
  -24.8799  -27.6781   19.5060 C   0  0  0  0  0  0
  -23.6202  -29.8187   20.1590 C   0  0  0  0  0  0
  -25.4122  -36.3080   24.0339 C   0  0  1  0  0  0
  -20.5896  -28.3715   23.1264 C   0  0  2  0  0  0
  -20.6822  -26.9445   22.5387 C   0  0  0  0  0  0
  -19.5795  -26.6403   21.5202 C   0  0  0  0  0  0
  -18.1961  -26.7945   22.1590 C   0  0  0  0  0  0
  -19.1546  -28.8863   23.2868 C   0  0  0  0  0  0
  -18.9475  -30.1467   23.8877 C   0  0  0  0  0  0
  -17.6474  -30.6585   24.0566 C   0  0  0  0  0  0
  -25.9061  -34.9449   23.5120 C   0  0  0  0  0  0
  -16.5359  -29.9080   23.6348 C   0  0  0  0  0  0
  -16.7283  -28.6511   23.0336 C   0  0  0  0  0  0
  -26.4533  -31.6563   25.0726 C   0  0  0  0  0  0
  -25.3798  -31.3684   26.1482 C   0  0  0  0  0  0
  -27.0418  -30.2998   24.6181 C   0  0  0  0  0  0
  -27.6094  -32.4296   25.7496 C   0  0  0  0  0  0
  -27.5590  -37.1810   24.8465 C   0  0  0  0  0  0
  -21.4163  -29.3067   22.3631 N   0  0  0  0  0  0
  -26.4297  -37.3771   23.9410 N   0  0  0  0  0  0
  -24.6741  -31.0778   22.0946 N   0  0  0  0  0  0
  -23.4193  -28.8224   23.2960 O   0  0  0  0  0  0
  -28.4547  -26.7255   20.1243 O   0  0  0  0  0  0
  -26.5562  -34.8911   22.4648 O   0  0  0  0  0  0
  -23.5401  -32.1411   23.7466 O   0  0  0  0  0  0
  -29.7782  -20.5049   20.5983 C   0  0  0  0  0  0
  -28.9534  -21.6398   20.7823 C   0  0  0  0  0  0
  -29.5590  -19.3836   21.4328 C   0  0  0  0  0  0
  -27.9028  -20.5678   22.5114 C   0  0  0  0  0  0
  -28.8470  -20.8892   25.4978 C   0  0  0  0  0  0
  -31.0006  -17.7140   22.7146 C   0  0  0  0  0  0
  -28.9843  -22.8709   19.8598 C   0  0  0  0  0  0
  -26.9758  -20.7076   23.7118 C   0  0  0  0  0  0
  -27.5931  -21.5218   24.8720 C   0  0  0  0  0  0
  -28.6047  -24.2456   20.5036 C   0  0  0  0  0  0
  -29.5995  -16.8681   20.6942 C   0  0  0  0  0  0
  -28.6344  -25.4356   19.5047 C   0  0  0  0  0  0
  -30.3757  -18.0614   21.3510 C   0  0  1  0  0  0
  -28.0062  -21.6372   21.7335 N   0  0  0  0  0  0
  -28.6077  -19.4444   22.3899 N   0  0  0  0  0  0
  -29.8671  -15.4758   21.1510 N   0  0  0  0  0  0
  -31.4806  -12.4638   19.1366 H   0  0  0  0  0  0
  -30.3658  -11.3209   19.8258 H   0  0  0  0  0  0
  -29.7545  -11.8003   17.4436 H   0  0  0  0  0  0
  -29.6702  -13.5106   17.7877 H   0  0  0  0  0  0
  -27.8348  -11.3197   18.8086 H   0  0  0  0  0  0
  -27.3797  -12.6563   17.7910 H   0  0  0  0  0  0
  -27.7105  -14.2565   19.6010 H   0  0  0  0  0  0
  -28.6881  -11.9232   21.3188 H   0  0  0  0  0  0
  -28.4470  -13.5373   21.9006 H   0  0  0  0  0  0
  -25.2760   -9.5689   22.4763 H   0  0  0  0  0  0
  -24.0033   -7.4627   22.7441 H   0  0  0  0  0  0
  -21.0874   -8.8753   19.8920 H   0  0  0  0  0  0
  -22.3709  -10.9673   19.6143 H   0  0  0  0  0  0
  -21.1962   -7.6138   23.9735 H   0  0  0  0  0  0
  -21.1485   -6.0512   25.9099 H   0  0  0  0  0  0
  -22.0589   -2.7609   23.2862 H   0  0  0  0  0  0
  -22.4107  -11.9799   22.4773 H   0  0  0  0  0  0
  -21.1125  -13.1176   22.2629 H   0  0  0  0  0  0
  -24.6713  -15.8466   20.5114 H   0  0  0  0  0  0
  -26.2922  -15.6214   20.0922 H   0  0  0  0  0  0
  -26.7178  -32.5479   23.1145 H   0  0  0  0  0  0
  -25.0324  -33.9749   25.0608 H   0  0  0  0  0  0
  -22.6979  -31.3083   21.3985 H   0  0  0  0  0  0
  -23.3765  -35.9619   23.3276 H   0  0  0  0  0  0
  -24.3604  -36.8914   22.2054 H   0  0  0  0  0  0
  -23.7248  -37.6492   23.6643 H   0  0  0  0  0  0
  -26.0890  -31.5827   20.6068 H   0  0  0  0  0  0
  -26.8191  -30.8533   22.0073 H   0  0  0  0  0  0
  -28.0976  -29.0781   21.1829 H   0  0  0  0  0  0
  -26.0282  -25.9420   19.0432 H   0  0  0  0  0  0
  -23.9894  -27.2778   19.0404 H   0  0  0  0  0  0
  -23.7325  -30.5918   19.3984 H   0  0  0  0  0  0
  -22.7433  -29.2445   19.8562 H   0  0  0  0  0  0
  -25.1291  -36.1934   25.0830 H   0  0  0  0  0  0
  -21.0022  -28.3333   24.1373 H   0  0  0  0  0  0
  -20.5824  -26.2312   23.3578 H   0  0  0  0  0  0
  -21.6679  -26.7541   22.1120 H   0  0  0  0  0  0
  -19.6989  -25.6325   21.1218 H   0  0  0  0  0  0
  -19.6760  -27.3215   20.6738 H   0  0  0  0  0  0
  -17.4265  -26.6709   21.3955 H   0  0  0  0  0  0
  -18.0336  -26.0071   22.8964 H   0  0  0  0  0  0
  -19.7959  -30.7292   24.2220 H   0  0  0  0  0  0
  -17.5032  -31.6256   24.5189 H   0  0  0  0  0  0
  -15.5362  -30.2972   23.7712 H   0  0  0  0  0  0
  -15.8678  -28.0835   22.7049 H   0  0  0  0  0  0
  -24.5917  -30.7100   25.7807 H   0  0  0  0  0  0
  -24.9083  -32.2869   26.4994 H   0  0  0  0  0  0
  -25.8162  -30.8780   27.0192 H   0  0  0  0  0  0
  -26.3004  -29.6652   24.1320 H   0  0  0  0  0  0
  -27.4265  -29.7333   25.4672 H   0  0  0  0  0  0
  -27.8787  -30.4297   23.9306 H   0  0  0  0  0  0
  -27.2693  -33.3567   26.2119 H   0  0  0  0  0  0
  -28.3889  -32.6914   25.0319 H   0  0  0  0  0  0
  -28.0782  -31.8406   26.5388 H   0  0  0  0  0  0
  -28.2586  -38.0127   24.7522 H   0  0  0  0  0  0
  -28.1110  -36.2663   24.6261 H   0  0  0  0  0  0
  -27.2312  -37.1400   25.8868 H   0  0  0  0  0  0
  -20.9338  -29.8682   21.6746 H   0  0  0  0  0  0
  -26.0179  -38.2854   24.1385 H   0  0  0  0  0  0
  -30.5419  -20.4859   19.8310 H   0  0  0  0  0  0
  -29.2161  -21.4853   26.3325 H   0  0  0  0  0  0
  -29.6577  -20.8107   24.7725 H   0  0  0  0  0  0
  -28.6407  -19.8860   25.8714 H   0  0  0  0  0  0
  -31.5780  -18.5565   23.0953 H   0  0  0  0  0  0
  -31.6791  -16.8656   22.6401 H   0  0  0  0  0  0
  -30.2327  -17.4712   23.4486 H   0  0  0  0  0  0
  -28.3112  -22.6719   19.0278 H   0  0  0  0  0  0
  -29.9827  -22.9431   19.4286 H   0  0  0  0  0  0
  -26.6788  -19.7219   24.0703 H   0  0  0  0  0  0
  -26.0547  -21.1935   23.3832 H   0  0  0  0  0  0
  -27.8397  -22.5232   24.5146 H   0  0  0  0  0  0
  -26.8420  -21.6554   25.6518 H   0  0  0  0  0  0
  -29.2871  -24.4529   21.3274 H   0  0  0  0  0  0
  -27.6072  -24.1843   20.9395 H   0  0  0  0  0  0
  -29.6865  -16.9293   19.6083 H   0  0  0  0  0  0
  -28.5383  -17.0187   20.8972 H   0  0  0  0  0  0
  -27.9722  -25.2660   18.6588 H   0  0  0  0  0  0
  -29.6301  -25.4646   19.0626 H   0  0  0  0  0  0
  -31.2186  -18.2694   20.6909 H   0  0  0  0  0  0
  -29.1050  -15.0796   21.6815 H   0  0  0  0  0  0
  1 25  1  0  0  0
  1 30  2  0  0  0
  1 86  1  0  0  0
  2  3  1  0  0  0
  2 25  1  0  0  0
  2 87  1  0  0  0
  2 88  1  0  0  0
  3  4  1  0  0  0
  3 89  1  0  0  0
  3 90  1  0  0  0
  4  5  1  0  0  0
  4 91  1  0  0  0
  4 92  1  0  0  0
  5  6  1  0  0  0
  5 26  1  0  0  0
  5 93  1  0  0  0
  6 25  1  0  0  0
  6 94  1  0  0  0
  6 95  1  0  0  0
  7  8  2  0  0  0
  7 26  1  0  0  0
  7 29  1  0  0  0
  8  9  1  0  0  0
  8 22  1  0  0  0
  9 10  1  0  0  0
  9 27  2  0  0  0
 10 11  2  0  0  0
 10 15  1  0  0  0
 11 12  1  0  0  0
 11 96  1  0  0  0
 12 13  2  0  0  0
 12 97  1  0  0  0
 13 14  1  0  0  0
 13 31  1  0  0  0
 14 15  2  0  0  0
 14 98  1  0  0  0
 15 99  1  0  0  0
 16 17  2  0  0  0
 16 21  1  0  0  0
 16 31  1  0  0  0
 17 18  1  0  0  0
 17100  1  0  0  0
 18 19  2  0  0  0
 18101  1  0  0  0
 19 20  1  0  0  0
 19 24  1  0  0  0
 20 21  2  0  0  0
 20102  1  0  0  0
 21 23  1  0  0  0
 22 28  1  0  0  0
 22 32  2  0  0  0
 26 27  1  0  0  0
 28103  1  0  0  0
 28104  1  0  0  0
 29105  1  0  0  0
 29106  1  0  0  0
 33 34  1  0  0  0
 33 66  1  0  0  0
 33 70  2  0  0  0
 34 36  1  0  0  0
 34 59  1  0  0  0
 34107  1  0  0  0
 35 44  2  0  0  0
 35 45  1  0  0  0
 35 68  1  0  0  0
 36 56  1  0  0  0
 36108  1  0  0  0
 37 39  1  0  0  0
 37 47  1  0  0  0
 37 66  1  0  0  0
 37109  1  0  0  0
 38 43  2  0  0  0
 38 46  1  0  0  0
 38 47  1  0  0  0
 39 64  1  0  0  0
 39 67  2  0  0  0
 40 52  1  0  0  0
 40 53  2  0  0  0
 40 58  1  0  0  0
 41110  1  0  0  0
 41111  1  0  0  0
 41112  1  0  0  0
 41 48  1  0  0  0
 42 43  1  0  0  0
 42 66  1  0  0  0
 42113  1  0  0  0
 42114  1  0  0  0
 43 44  1  0  0  0
 44115  1  0  0  0
 45 46  2  0  0  0
 45116  1  0  0  0
 46117  1  0  0  0
 47118  1  0  0  0
 47119  1  0  0  0
 48 56  1  0  0  0
 48 65  1  0  0  0
 48120  1  0  0  0
 49 50  1  0  0  0
 49 53  1  0  0  0
 49 64  1  0  0  0
 49121  1  0  0  0
 50 51  1  0  0  0
 50122  1  0  0  0
 50123  1  0  0  0
 51 52  1  0  0  0
 51124  1  0  0  0
 51125  1  0  0  0
 52126  1  0  0  0
 52127  1  0  0  0
 53 54  1  0  0  0
 54 55  2  0  0  0
 54128  1  0  0  0
 55 57  1  0  0  0
 55129  1  0  0  0
 56 69  2  0  0  0
 57 58  2  0  0  0
 57130  1  0  0  0
 58131  1  0  0  0
 59 60  1  0  0  0
 59 61  1  0  0  0
 59 62  1  0  0  0
 60132  1  0  0  0
 60133  1  0  0  0
 60134  1  0  0  0
 61135  1  0  0  0
 61136  1  0  0  0
 61137  1  0  0  0
 62138  1  0  0  0
 62139  1  0  0  0
 62140  1  0  0  0
 63 65  1  0  0  0
 63141  1  0  0  0
 63142  1  0  0  0
 63143  1  0  0  0
 64144  1  0  0  0
 65145  1  0  0  0
 68 82  1  0  0  0
 71 72  2  0  0  0
 71 73  1  0  0  0
 71146  1  0  0  0
 72 77  1  0  0  0
 72 84  1  0  0  0
 73 83  1  0  0  0
 73 85  2  0  0  0
 74 78  1  0  0  0
 74 84  2  0  0  0
 74 85  1  0  0  0
 75 79  1  0  0  0
 75147  1  0  0  0
 75148  1  0  0  0
 75149  1  0  0  0
 76150  1  0  0  0
 76151  1  0  0  0
 76152  1  0  0  0
 76 83  1  0  0  0
 77 80  1  0  0  0
 77153  1  0  0  0
 77154  1  0  0  0
 78 79  1  0  0  0
 78155  1  0  0  0
 78156  1  0  0  0
 79157  1  0  0  0
 79158  1  0  0  0
 80 82  1  0  0  0
 80159  1  0  0  0
 80160  1  0  0  0
 81 83  1  0  0  0
 81 86  1  0  0  0
 81161  1  0  0  0
 81162  1  0  0  0
 82163  1  0  0  0
 82164  1  0  0  0
 83165  1  0  0  0
 86166  1  0  0  0
M  ISO  4   1 100  68 101  82 101  86 100
M  END
> <chiral flag>
0

> <version>
0

> <s_m_source_file>
/data/baiqing/PycharmProjects/Reinvent-master-3.2/result/LINK_invent/BTK/process_docking_weight1_custom_sum_contain_oxygen_bond_distance_aromatic_linkinvent_7_9_3/rearranged_h_0089.sdf

> <i_m_source_file_index>
43

> <r_mmod_Potential_Energy-OPLS-2005>
-468.622497558594

> <r_mmod_Stretch_Energy-OPLS-2005>
46.1339721679688

> <r_mmod_Bend_Energy-OPLS-2005>
127.415969848633

> <r_mmod_Torsional_Energy-OPLS-2005>
200.578582763672

> <r_mmod_Improper_Torsional_Energy-OPLS-2005>
6.63536071777344

> <r_mmod_Van_der_Waal_Energy-OPLS-2005>
150.594360351562

> <r_mmod_Electrostatic_Energy-OPLS-2005>
-794.437927246094

> <r_mmod_Solvation_Energy-OPLS-2005>
-224.862609863281

> <b_mmod_Minimization_Converged-OPLS-2005>
0

> <r_mmod_RMS_Derivative-OPLS-2005>
2.86839866638184

$$$$
44
                    3D
 Structure written by MMmdl.
149156  0  0  1  0            999 V2000
  -30.4679  -15.1942   20.3730 C   0  0  0  0  0  0
  -30.4420  -12.7555   19.5292 C   0  0  0  0  0  0
  -29.5354  -12.5613   18.2878 C   0  0  0  0  0  0
  -28.0838  -12.2917   18.7154 C   0  0  0  0  0  0
  -27.6177  -13.2657   19.8262 C   0  0  2  0  0  0
  -28.6509  -13.4194   20.9651 C   0  0  0  0  0  0
  -25.2427  -13.8232   20.5727 C   0  0  0  0  0  0
  -24.1760  -13.0435   20.9240 C   0  0  0  0  0  0
  -24.6388  -11.6932   20.8739 C   0  0  0  0  0  0
  -23.9065  -10.4302   21.0395 C   0  0  0  0  0  0
  -24.3620   -9.4219   21.9172 C   0  0  0  0  0  0
  -23.6302   -8.2250   22.0740 C   0  0  0  0  0  0
  -22.4286   -8.0280   21.3534 C   0  0  0  0  0  0
  -21.9916   -9.0247   20.4631 C   0  0  0  0  0  0
  -22.7234  -10.2136   20.3042 C   0  0  0  0  0  0
  -21.6856   -6.0739   22.5277 C   0  0  0  0  0  0
  -21.4016   -6.5636   23.8211 C   0  0  0  0  0  0
  -21.3660   -5.6784   24.9167 C   0  0  0  0  0  0
  -21.6047   -4.3048   24.7215 C   0  0  0  0  0  0
  -21.8819   -3.8146   23.4334 C   0  0  0  0  0  0
  -21.9197   -4.6968   22.3396 C   0  0  0  0  0  0
  -22.7782  -13.5198   21.1890 C   0  0  0  0  0  0
  -22.1666   -4.2155   21.0972 F   0  0  0  0  0  0
  -21.5627   -3.4529   25.7728 F   0  0  0  0  0  0
  -29.8994  -13.8964   20.3506 N   0  0  0  0  0  0
  -26.2838  -12.9485   20.3209 N   0  0  0  0  0  0
  -25.9325  -11.6598   20.5715 N   0  0  0  0  0  0
  -22.0437  -12.8186   22.0448 N   0  0  0  0  0  0
  -25.4077  -15.1964   20.4172 N   0  0  0  0  0  0
  -31.6771  -15.2108   20.1068 O   0  0  0  0  0  0
  -21.6641   -6.8886   21.4241 O   0  0  0  0  0  0
  -22.3457  -14.5491   20.6726 O   0  0  0  0  0  0
  -24.6573  -31.8289   23.1735 C   0  0  0  0  0  0
  -25.9284  -32.4611   23.8189 C   0  0  1  0  0  0
  -27.2243  -26.9771   20.1738 C   0  0  0  0  0  0
  -25.5968  -33.8421   24.2101 N   0  0  0  0  0  0
  -23.4693  -30.4404   21.5222 C   0  0  2  0  0  0
  -24.9235  -28.8362   20.1076 C   0  0  0  0  0  0
  -22.7636  -29.4465   22.4808 C   0  0  0  0  0  0
  -18.0309  -28.1409   22.8468 C   0  0  0  0  0  0
  -24.1486  -36.7213   23.2646 C   0  0  0  0  0  0
  -26.0335  -30.6493   21.3973 C   0  0  0  0  0  0
  -26.1030  -29.2442   20.7408 C   0  0  0  0  0  0
  -27.2441  -28.3326   20.7558 C   0  0  0  0  0  0
  -26.0205  -26.7148   19.4804 C   0  0  0  0  0  0
  -24.9045  -27.5905   19.4596 C   0  0  0  0  0  0
  -23.7061  -29.7565   20.1468 C   0  0  0  0  0  0
  -25.4125  -36.2981   24.0308 C   0  0  1  0  0  0
  -20.5929  -28.3752   23.1194 C   0  0  2  0  0  0
  -20.6789  -26.9439   22.5404 C   0  0  0  0  0  0
  -19.5767  -26.6382   21.5211 C   0  0  0  0  0  0
  -18.1948  -26.7941   22.1620 C   0  0  0  0  0  0
  -19.1571  -28.8898   23.2818 C   0  0  0  0  0  0
  -18.9490  -30.1487   23.8855 C   0  0  0  0  0  0
  -17.6488  -30.6602   24.0554 C   0  0  0  0  0  0
  -25.9091  -34.9362   23.5026 C   0  0  0  0  0  0
  -16.5374  -29.9093   23.6344 C   0  0  0  0  0  0
  -16.7292  -28.6508   23.0366 C   0  0  0  0  0  0
  -26.4555  -31.6536   25.0696 C   0  0  0  0  0  0
  -25.3695  -31.3779   26.1366 C   0  0  0  0  0  0
  -27.0449  -30.2909   24.6400 C   0  0  0  0  0  0
  -27.6049  -32.4335   25.7496 C   0  0  0  0  0  0
  -27.5568  -37.1764   24.8468 C   0  0  0  0  0  0
  -21.4312  -29.3048   22.3549 N   0  0  0  0  0  0
  -26.4273  -37.3717   23.9413 N   0  0  0  0  0  0
  -24.7407  -30.9989   22.0849 N   0  0  0  0  0  0
  -23.4210  -28.8045   23.3040 O   0  0  0  0  0  0
  -28.2444  -25.9098   20.3047 O   0  0  0  0  0  0
  -26.5700  -34.8891   22.4620 O   0  0  0  0  0  0
  -23.5656  -32.1243   23.6851 O   0  0  0  0  0  0
  -27.6547  -19.1482   20.8915 C   0  0  0  0  0  0
  -28.6856  -22.7934   20.6198 C   0  0  0  0  0  0
  -29.0889  -21.1818   19.9676 C   0  0  0  0  0  0
  -29.9321  -18.0435   20.1119 C   0  0  0  0  0  0
  -28.2000  -24.3359   19.8692 C   0  0  0  0  0  0
  -29.1186  -19.5328   20.6529 C   0  0  1  0  0  0
  -29.7041  -16.4468   20.4865 N   0  0  0  0  0  0
  -31.4654  -12.9467   19.2028 H   0  0  0  0  0  0
  -30.4884  -11.8409   20.1221 H   0  0  0  0  0  0
  -29.9060  -11.7405   17.6719 H   0  0  0  0  0  0
  -29.5733  -13.4556   17.6639 H   0  0  0  0  0  0
  -28.0391  -11.2675   19.0882 H   0  0  0  0  0  0
  -27.4152  -12.3327   17.8555 H   0  0  0  0  0  0
  -27.5420  -14.2343   19.3314 H   0  0  0  0  0  0
  -28.7996  -12.4823   21.5041 H   0  0  0  0  0  0
  -28.2996  -14.1499   21.6964 H   0  0  0  0  0  0
  -25.2759   -9.5698   22.4753 H   0  0  0  0  0  0
  -24.0006   -7.4637   22.7457 H   0  0  0  0  0  0
  -21.0845   -8.8759   19.8938 H   0  0  0  0  0  0
  -22.3674  -10.9675   19.6159 H   0  0  0  0  0  0
  -21.2013   -7.6147   23.9717 H   0  0  0  0  0  0
  -21.1474   -6.0513   25.9073 H   0  0  0  0  0  0
  -22.0600   -2.7610   23.2827 H   0  0  0  0  0  0
  -22.4059  -11.9869   22.4860 H   0  0  0  0  0  0
  -21.1042  -13.1204   22.2622 H   0  0  0  0  0  0
  -24.6361  -15.8462   20.5244 H   0  0  0  0  0  0
  -26.2472  -15.6379   20.0654 H   0  0  0  0  0  0
  -26.7343  -32.5172   23.0902 H   0  0  0  0  0  0
  -25.0058  -33.9498   25.0213 H   0  0  0  0  0  0
  -22.7808  -31.2712   21.3546 H   0  0  0  0  0  0
  -23.3763  -35.9530   23.3281 H   0  0  0  0  0  0
  -24.3564  -36.8885   22.2066 H   0  0  0  0  0  0
  -23.7234  -37.6392   23.6711 H   0  0  0  0  0  0
  -26.2075  -31.3918   20.6175 H   0  0  0  0  0  0
  -26.8951  -30.7045   22.0506 H   0  0  0  0  0  0
  -28.1323  -28.6392   21.2908 H   0  0  0  0  0  0
  -25.8968  -25.7681   18.9782 H   0  0  0  0  0  0
  -24.0070  -27.2746   18.9452 H   0  0  0  0  0  0
  -23.8541  -30.5258   19.3883 H   0  0  0  0  0  0
  -22.8171  -29.2068   19.8324 H   0  0  0  0  0  0
  -25.1323  -36.1782   25.0802 H   0  0  0  0  0  0
  -21.0008  -28.3353   24.1320 H   0  0  0  0  0  0
  -20.5659  -26.2376   23.3648 H   0  0  0  0  0  0
  -21.6659  -26.7424   22.1223 H   0  0  0  0  0  0
  -19.6933  -25.6283   21.1270 H   0  0  0  0  0  0
  -19.6695  -27.3167   20.6721 H   0  0  0  0  0  0
  -17.4220  -26.6674   21.4022 H   0  0  0  0  0  0
  -18.0343  -26.0092   22.9023 H   0  0  0  0  0  0
  -19.7967  -30.7307   24.2207 H   0  0  0  0  0  0
  -17.5043  -31.6275   24.5171 H   0  0  0  0  0  0
  -15.5373  -30.2986   23.7687 H   0  0  0  0  0  0
  -15.8690  -28.0808   22.7117 H   0  0  0  0  0  0
  -24.5884  -30.7116   25.7691 H   0  0  0  0  0  0
  -24.8874  -32.2974   26.4688 H   0  0  0  0  0  0
  -25.7937  -30.9026   27.0220 H   0  0  0  0  0  0
  -26.3113  -29.6587   24.1382 H   0  0  0  0  0  0
  -27.3976  -29.7266   25.5048 H   0  0  0  0  0  0
  -27.9056  -30.4108   23.9812 H   0  0  0  0  0  0
  -27.2624  -33.3677   26.1964 H   0  0  0  0  0  0
  -28.3918  -32.6836   25.0364 H   0  0  0  0  0  0
  -28.0654  -31.8540   26.5512 H   0  0  0  0  0  0
  -28.2577  -38.0069   24.7522 H   0  0  0  0  0  0
  -28.1072  -36.2602   24.6287 H   0  0  0  0  0  0
  -27.2285  -37.1401   25.8870 H   0  0  0  0  0  0
  -20.9560  -29.8731   21.6673 H   0  0  0  0  0  0
  -26.0126  -38.2777   24.1425 H   0  0  0  0  0  0
  -27.5747  -18.2288   21.4728 H   0  0  0  0  0  0
  -27.1334  -18.9929   19.9454 H   0  0  0  0  0  0
  -27.1270  -19.9288   21.4405 H   0  0  0  0  0  0
  -29.5567  -23.0524   21.2219 H   0  0  0  0  0  0
  -27.9111  -22.6076   21.3639 H   0  0  0  0  0  0
  -30.0908  -21.3187   19.5576 H   0  0  0  0  0  0
  -28.4664  -21.0903   19.0774 H   0  0  0  0  0  0
  -30.9988  -18.2114   20.2673 H   0  0  0  0  0  0
  -29.8294  -18.0557   19.0259 H   0  0  0  0  0  0
  -28.7654  -24.3560   18.9372 H   0  0  0  0  0  0
  -27.1796  -24.1520   19.5429 H   0  0  0  0  0  0
  -29.5442  -19.6897   21.6459 H   0  0  0  0  0  0
  -28.7433  -16.2557   20.7320 H   0  0  0  0  0  0
  1 25  1  0  0  0
  1 30  2  0  0  0
  1 77  1  0  0  0
  2  3  1  0  0  0
  2 25  1  0  0  0
  2 78  1  0  0  0
  2 79  1  0  0  0
  3  4  1  0  0  0
  3 80  1  0  0  0
  3 81  1  0  0  0
  4  5  1  0  0  0
  4 82  1  0  0  0
  4 83  1  0  0  0
  5  6  1  0  0  0
  5 26  1  0  0  0
  5 84  1  0  0  0
  6 25  1  0  0  0
  6 85  1  0  0  0
  6 86  1  0  0  0
  7  8  2  0  0  0
  7 26  1  0  0  0
  7 29  1  0  0  0
  8  9  1  0  0  0
  8 22  1  0  0  0
  9 10  1  0  0  0
  9 27  2  0  0  0
 10 11  2  0  0  0
 10 15  1  0  0  0
 11 12  1  0  0  0
 11 87  1  0  0  0
 12 13  2  0  0  0
 12 88  1  0  0  0
 13 14  1  0  0  0
 13 31  1  0  0  0
 14 15  2  0  0  0
 14 89  1  0  0  0
 15 90  1  0  0  0
 16 17  2  0  0  0
 16 21  1  0  0  0
 16 31  1  0  0  0
 17 18  1  0  0  0
 17 91  1  0  0  0
 18 19  2  0  0  0
 18 92  1  0  0  0
 19 20  1  0  0  0
 19 24  1  0  0  0
 20 21  2  0  0  0
 20 93  1  0  0  0
 21 23  1  0  0  0
 22 28  1  0  0  0
 22 32  2  0  0  0
 26 27  1  0  0  0
 28 94  1  0  0  0
 28 95  1  0  0  0
 29 96  1  0  0  0
 29 97  1  0  0  0
 33 34  1  0  0  0
 33 66  1  0  0  0
 33 70  2  0  0  0
 34 36  1  0  0  0
 34 59  1  0  0  0
 34 98  1  0  0  0
 35 44  2  0  0  0
 35 45  1  0  0  0
 35 68  1  0  0  0
 36 56  1  0  0  0
 36 99  1  0  0  0
 37 39  1  0  0  0
 37 47  1  0  0  0
 37 66  1  0  0  0
 37100  1  0  0  0
 38 43  2  0  0  0
 38 46  1  0  0  0
 38 47  1  0  0  0
 39 64  1  0  0  0
 39 67  2  0  0  0
 40 52  1  0  0  0
 40 53  2  0  0  0
 40 58  1  0  0  0
 41101  1  0  0  0
 41102  1  0  0  0
 41103  1  0  0  0
 41 48  1  0  0  0
 42 43  1  0  0  0
 42 66  1  0  0  0
 42104  1  0  0  0
 42105  1  0  0  0
 43 44  1  0  0  0
 44106  1  0  0  0
 45 46  2  0  0  0
 45107  1  0  0  0
 46108  1  0  0  0
 47109  1  0  0  0
 47110  1  0  0  0
 48 56  1  0  0  0
 48 65  1  0  0  0
 48111  1  0  0  0
 49 50  1  0  0  0
 49 53  1  0  0  0
 49 64  1  0  0  0
 49112  1  0  0  0
 50 51  1  0  0  0
 50113  1  0  0  0
 50114  1  0  0  0
 51 52  1  0  0  0
 51115  1  0  0  0
 51116  1  0  0  0
 52117  1  0  0  0
 52118  1  0  0  0
 53 54  1  0  0  0
 54 55  2  0  0  0
 54119  1  0  0  0
 55 57  1  0  0  0
 55120  1  0  0  0
 56 69  2  0  0  0
 57 58  2  0  0  0
 57121  1  0  0  0
 58122  1  0  0  0
 59 60  1  0  0  0
 59 61  1  0  0  0
 59 62  1  0  0  0
 60123  1  0  0  0
 60124  1  0  0  0
 60125  1  0  0  0
 61126  1  0  0  0
 61127  1  0  0  0
 61128  1  0  0  0
 62129  1  0  0  0
 62130  1  0  0  0
 62131  1  0  0  0
 63 65  1  0  0  0
 63132  1  0  0  0
 63133  1  0  0  0
 63134  1  0  0  0
 64135  1  0  0  0
 65136  1  0  0  0
 68 75  1  0  0  0
 71137  1  0  0  0
 71138  1  0  0  0
 71139  1  0  0  0
 71 76  1  0  0  0
 72 73  1  0  0  0
 72 75  1  0  0  0
 72140  1  0  0  0
 72141  1  0  0  0
 73 76  1  0  0  0
 73142  1  0  0  0
 73143  1  0  0  0
 74 76  1  0  0  0
 74 77  1  0  0  0
 74144  1  0  0  0
 74145  1  0  0  0
 75146  1  0  0  0
 75147  1  0  0  0
 76148  1  0  0  0
 77149  1  0  0  0
M  ISO  4   1 100  68 101  75 101  77 100
M  END
> <chiral flag>
0

> <version>
0

> <s_m_source_file>
/data/baiqing/PycharmProjects/Reinvent-master-3.2/result/LINK_invent/BTK/process_docking_weight1_custom_sum_contain_oxygen_bond_distance_aromatic_linkinvent_7_9_3/rearranged_h_0089.sdf

> <i_m_source_file_index>
44

> <r_mmod_Potential_Energy-OPLS-2005>
1113.25598144531

> <r_mmod_Stretch_Energy-OPLS-2005>
554.324523925781

> <r_mmod_Bend_Energy-OPLS-2005>
417.093597412109

> <r_mmod_Torsional_Energy-OPLS-2005>
221.745315551758

> <r_mmod_Improper_Torsional_Energy-OPLS-2005>
4.54988527297974

> <r_mmod_Van_der_Waal_Energy-OPLS-2005>
108.37646484375

> <r_mmod_Electrostatic_Energy-OPLS-2005>
-373.982543945312

> <r_mmod_Solvation_Energy-OPLS-2005>
-206.665893554688

> <b_mmod_Minimization_Converged-OPLS-2005>
0

> <r_mmod_RMS_Derivative-OPLS-2005>
1.59083497524261

$$$$
45
                    3D
 Structure written by MMmdl.
167175  0  0  1  0            999 V2000
  -30.7690  -14.5053   20.5852 C   0  0  0  0  0  0
  -30.4387  -12.3265   19.4743 C   0  0  0  0  0  0
  -29.5401  -12.5087   18.2378 C   0  0  0  0  0  0
  -28.0520  -12.3794   18.6205 C   0  0  0  0  0  0
  -27.6762  -13.2240   19.8715 C   0  0  2  0  0  0
  -28.7123  -13.0649   21.0112 C   0  0  0  0  0  0
  -25.2690  -13.8203   20.5659 C   0  0  0  0  0  0
  -24.1917  -13.0460   20.9099 C   0  0  0  0  0  0
  -24.6504  -11.6941   20.8660 C   0  0  0  0  0  0
  -23.9146  -10.4310   21.0348 C   0  0  0  0  0  0
  -24.3660   -9.4230   21.9160 C   0  0  0  0  0  0
  -23.6306   -8.2275   22.0778 C   0  0  0  0  0  0
  -22.4292   -8.0303   21.3550 C   0  0  0  0  0  0
  -21.9925   -9.0293   20.4658 C   0  0  0  0  0  0
  -22.7287  -10.2163   20.3039 C   0  0  0  0  0  0
  -21.6866   -6.0756   22.5295 C   0  0  0  0  0  0
  -21.4020   -6.5653   23.8225 C   0  0  0  0  0  0
  -21.3639   -5.6797   24.9179 C   0  0  0  0  0  0
  -21.6037   -4.3062   24.7228 C   0  0  0  0  0  0
  -21.8818   -3.8161   23.4348 C   0  0  0  0  0  0
  -21.9196   -4.6984   22.3405 C   0  0  0  0  0  0
  -22.7934  -13.5282   21.1720 C   0  0  0  0  0  0
  -22.1662   -4.2165   21.0981 F   0  0  0  0  0  0
  -21.5608   -3.4540   25.7739 F   0  0  0  0  0  0
  -30.0519  -13.3464   20.4691 N   0  0  0  0  0  0
  -26.3132  -12.9397   20.3297 N   0  0  0  0  0  0
  -25.9428  -11.6535   20.5646 N   0  0  0  0  0  0
  -22.0516  -12.8326   22.0271 N   0  0  0  0  0  0
  -25.4483  -15.1917   20.4208 N   0  0  0  0  0  0
  -31.8727  -14.6356   20.0563 O   0  0  0  0  0  0
  -21.6647   -6.8911   21.4260 O   0  0  0  0  0  0
  -22.3632  -14.5559   20.6533 O   0  0  0  0  0  0
  -24.6212  -31.8633   23.2014 C   0  0  0  0  0  0
  -25.9086  -32.4808   23.8320 C   0  0  1  0  0  0
  -27.2113  -27.3624   20.0903 C   0  0  0  0  0  0
  -25.5892  -33.8594   24.2236 N   0  0  0  0  0  0
  -23.4114  -30.4879   21.5507 C   0  0  2  0  0  0
  -24.8468  -28.9488   20.1050 C   0  0  0  0  0  0
  -22.7445  -29.4652   22.4995 C   0  0  0  0  0  0
  -18.0256  -28.1403   22.8453 C   0  0  0  0  0  0
  -24.1486  -36.7346   23.2644 C   0  0  0  0  0  0
  -25.9465  -30.8046   21.3607 C   0  0  0  0  0  0
  -26.0160  -29.4327   20.7100 C   0  0  0  0  0  0
  -27.1973  -28.6450   20.7031 C   0  0  0  0  0  0
  -26.0260  -26.9227   19.4533 C   0  0  0  0  0  0
  -24.8528  -27.6962   19.4713 C   0  0  0  0  0  0
  -23.6129  -29.8208   20.1650 C   0  0  0  0  0  0
  -25.4103  -36.3093   24.0300 C   0  0  1  0  0  0
  -20.5867  -28.3698   23.1284 C   0  0  2  0  0  0
  -20.6787  -26.9428   22.5404 C   0  0  0  0  0  0
  -19.5774  -26.6386   21.5213 C   0  0  0  0  0  0
  -18.1937  -26.7940   22.1584 C   0  0  0  0  0  0
  -19.1505  -28.8865   23.2862 C   0  0  0  0  0  0
  -18.9440  -30.1480   23.8869 C   0  0  0  0  0  0
  -17.6452  -30.6610   24.0566 C   0  0  0  0  0  0
  -25.9034  -34.9465   23.5081 C   0  0  0  0  0  0
  -16.5345  -29.9124   23.6342 C   0  0  0  0  0  0
  -16.7247  -28.6553   23.0321 C   0  0  0  0  0  0
  -26.4468  -31.6609   25.0694 C   0  0  0  0  0  0
  -25.3676  -31.3752   26.1410 C   0  0  0  0  0  0
  -27.0301  -30.3047   24.6082 C   0  0  0  0  0  0
  -27.6019  -32.4374   25.7442 C   0  0  0  0  0  0
  -27.5585  -37.1810   24.8455 C   0  0  0  0  0  0
  -21.4176  -29.3054   22.3709 N   0  0  0  0  0  0
  -26.4306  -37.3776   23.9374 N   0  0  0  0  0  0
  -24.6814  -31.0657   22.0974 N   0  0  0  0  0  0
  -23.4192  -28.8175   23.3055 O   0  0  0  0  0  0
  -28.3556  -26.5679   20.1433 O   0  0  0  0  0  0
  -26.5646  -34.8937   22.4686 O   0  0  0  0  0  0
  -23.5395  -32.1422   23.7366 O   0  0  0  0  0  0
  -29.7452  -20.3439   21.3611 C   0  0  0  0  0  0
  -31.4038  -22.0782   21.1261 C   0  0  0  0  0  0
  -30.0560  -21.6945   21.0311 C   0  0  0  0  0  0
  -30.7682  -19.4376   21.7746 C   0  0  0  0  0  0
  -32.0983  -19.9544   21.8071 C   0  0  0  0  0  0
  -29.0869  -17.8167   22.8912 C   0  0  0  0  0  0
  -33.9328  -19.7439   23.5355 C   0  0  0  0  0  0
  -34.3970  -19.0541   21.1105 C   0  0  0  0  0  0
  -28.9739  -22.6874   20.5352 C   0  0  0  0  0  0
  -29.2871  -24.2311   20.5849 C   0  0  0  0  0  0
  -30.6369  -16.9753   20.9781 C   0  0  0  0  0  0
  -28.2014  -25.1344   19.9217 C   0  0  0  0  0  0
  -30.4430  -17.9667   22.1714 C   0  0  1  0  0  0
  -33.3424  -19.1583   22.2344 C   0  0  0  0  0  0
  -32.3840  -21.2370   21.4920 N   0  0  0  0  0  0
  -30.1818  -15.5710   21.1763 N   0  0  0  0  0  0
  -31.4891  -12.3961   19.1849 H   0  0  0  0  0  0
  -30.3240  -11.3264   19.8958 H   0  0  0  0  0  0
  -29.8031  -11.7680   17.4804 H   0  0  0  0  0  0
  -29.7359  -13.4856   17.7921 H   0  0  0  0  0  0
  -27.8477  -11.3245   18.8025 H   0  0  0  0  0  0
  -27.4310  -12.6683   17.7710 H   0  0  0  0  0  0
  -27.7091  -14.2669   19.5552 H   0  0  0  0  0  0
  -28.6885  -12.0527   21.4153 H   0  0  0  0  0  0
  -28.4670  -13.7234   21.8453 H   0  0  0  0  0  0
  -25.2828   -9.5689   22.4702 H   0  0  0  0  0  0
  -24.0000   -7.4689   22.7540 H   0  0  0  0  0  0
  -21.0825   -8.8824   19.8987 H   0  0  0  0  0  0
  -22.3749  -10.9684   19.6114 H   0  0  0  0  0  0
  -21.2026   -7.6166   23.9734 H   0  0  0  0  0  0
  -21.1439   -6.0526   25.9078 H   0  0  0  0  0  0
  -22.0611   -2.7625   23.2853 H   0  0  0  0  0  0
  -22.4070  -12.0025   22.4746 H   0  0  0  0  0  0
  -21.1106  -13.1375   22.2304 H   0  0  0  0  0  0
  -24.7031  -15.8631   20.5718 H   0  0  0  0  0  0
  -26.3260  -15.6309   20.1672 H   0  0  0  0  0  0
  -26.7148  -32.5460   23.1052 H   0  0  0  0  0  0
  -24.9909  -33.9735   25.0287 H   0  0  0  0  0  0
  -22.7034  -31.3063   21.4134 H   0  0  0  0  0  0
  -23.3723  -35.9730   23.3337 H   0  0  0  0  0  0
  -24.3541  -36.8964   22.2065 H   0  0  0  0  0  0
  -23.7293  -37.6567   23.6665 H   0  0  0  0  0  0
  -26.0508  -31.5522   20.5737 H   0  0  0  0  0  0
  -26.8417  -30.8698   21.9666 H   0  0  0  0  0  0
  -28.0947  -29.0004   21.1902 H   0  0  0  0  0  0
  -25.9718  -25.9731   18.9386 H   0  0  0  0  0  0
  -23.9553  -27.3311   18.9922 H   0  0  0  0  0  0
  -23.7124  -30.5922   19.4038 H   0  0  0  0  0  0
  -22.7339  -29.2411   19.8737 H   0  0  0  0  0  0
  -25.1283  -36.1984   25.0799 H   0  0  0  0  0  0
  -20.9889  -28.3294   24.1425 H   0  0  0  0  0  0
  -20.5763  -26.2295   23.3599 H   0  0  0  0  0  0
  -21.6657  -26.7546   22.1154 H   0  0  0  0  0  0
  -19.6973  -25.6295   21.1247 H   0  0  0  0  0  0
  -19.6745  -27.3186   20.6756 H   0  0  0  0  0  0
  -17.4218  -26.6655   21.3979 H   0  0  0  0  0  0
  -18.0344  -26.0119   22.9006 H   0  0  0  0  0  0
  -19.7938  -30.7273   24.2229 H   0  0  0  0  0  0
  -17.5033  -31.6270   24.5185 H   0  0  0  0  0  0
  -15.5344  -30.3024   23.7714 H   0  0  0  0  0  0
  -15.8629  -28.0891   22.7048 H   0  0  0  0  0  0
  -24.5767  -30.7226   25.7670 H   0  0  0  0  0  0
  -24.8940  -32.2941   26.4872 H   0  0  0  0  0  0
  -25.7928  -30.8818   27.0156 H   0  0  0  0  0  0
  -26.2829  -29.6776   24.1191 H   0  0  0  0  0  0
  -27.4144  -29.7326   25.4525 H   0  0  0  0  0  0
  -27.8624  -30.4376   23.9170 H   0  0  0  0  0  0
  -27.2613  -33.3686   26.1981 H   0  0  0  0  0  0
  -28.3808  -32.6917   25.0236 H   0  0  0  0  0  0
  -28.0712  -31.8536   26.5362 H   0  0  0  0  0  0
  -28.2584  -38.0131   24.7482 H   0  0  0  0  0  0
  -28.1078  -36.2639   24.6279 H   0  0  0  0  0  0
  -27.2277  -37.1469   25.8858 H   0  0  0  0  0  0
  -20.9402  -29.8735   21.6851 H   0  0  0  0  0  0
  -26.0197  -38.2857   24.1397 H   0  0  0  0  0  0
  -28.7192  -20.0097   21.2966 H   0  0  0  0  0  0
  -31.7305  -23.0783   20.8874 H   0  0  0  0  0  0
  -29.0340  -18.4635   23.7718 H   0  0  0  0  0  0
  -28.9564  -16.7969   23.2551 H   0  0  0  0  0  0
  -28.2355  -18.0453   22.2528 H   0  0  0  0  0  0
  -33.1710  -19.7965   24.3152 H   0  0  0  0  0  0
  -34.3042  -20.7600   23.3846 H   0  0  0  0  0  0
  -34.7593  -19.1441   23.9168 H   0  0  0  0  0  0
  -33.9741  -18.6502   20.1887 H   0  0  0  0  0  0
  -35.2179  -18.3950   21.4005 H   0  0  0  0  0  0
  -34.8324  -20.0253   20.8751 H   0  0  0  0  0  0
  -28.0602  -22.4934   21.0990 H   0  0  0  0  0  0
  -28.7493  -22.4096   19.5034 H   0  0  0  0  0  0
  -30.2272  -24.4514   20.0814 H   0  0  0  0  0  0
  -29.4068  -24.5284   21.6268 H   0  0  0  0  0  0
  -31.6934  -16.9930   20.6977 H   0  0  0  0  0  0
  -30.0980  -17.3632   20.1122 H   0  0  0  0  0  0
  -27.2421  -24.7774   20.2942 H   0  0  0  0  0  0
  -28.2031  -24.9527   18.8455 H   0  0  0  0  0  0
  -31.1400  -17.6710   22.9568 H   0  0  0  0  0  0
  -33.0831  -18.1267   22.4508 H   0  0  0  0  0  0
  -29.2803  -15.4315   21.6025 H   0  0  0  0  0  0
  1 25  1  0  0  0
  1 30  2  0  0  0
  1 86  1  0  0  0
  2  3  1  0  0  0
  2 25  1  0  0  0
  2 87  1  0  0  0
  2 88  1  0  0  0
  3  4  1  0  0  0
  3 89  1  0  0  0
  3 90  1  0  0  0
  4  5  1  0  0  0
  4 91  1  0  0  0
  4 92  1  0  0  0
  5  6  1  0  0  0
  5 26  1  0  0  0
  5 93  1  0  0  0
  6 25  1  0  0  0
  6 94  1  0  0  0
  6 95  1  0  0  0
  7  8  2  0  0  0
  7 26  1  0  0  0
  7 29  1  0  0  0
  8  9  1  0  0  0
  8 22  1  0  0  0
  9 10  1  0  0  0
  9 27  2  0  0  0
 10 11  2  0  0  0
 10 15  1  0  0  0
 11 12  1  0  0  0
 11 96  1  0  0  0
 12 13  2  0  0  0
 12 97  1  0  0  0
 13 14  1  0  0  0
 13 31  1  0  0  0
 14 15  2  0  0  0
 14 98  1  0  0  0
 15 99  1  0  0  0
 16 17  2  0  0  0
 16 21  1  0  0  0
 16 31  1  0  0  0
 17 18  1  0  0  0
 17100  1  0  0  0
 18 19  2  0  0  0
 18101  1  0  0  0
 19 20  1  0  0  0
 19 24  1  0  0  0
 20 21  2  0  0  0
 20102  1  0  0  0
 21 23  1  0  0  0
 22 28  1  0  0  0
 22 32  2  0  0  0
 26 27  1  0  0  0
 28103  1  0  0  0
 28104  1  0  0  0
 29105  1  0  0  0
 29106  1  0  0  0
 33 34  1  0  0  0
 33 66  1  0  0  0
 33 70  2  0  0  0
 34 36  1  0  0  0
 34 59  1  0  0  0
 34107  1  0  0  0
 35 44  2  0  0  0
 35 45  1  0  0  0
 35 68  1  0  0  0
 36 56  1  0  0  0
 36108  1  0  0  0
 37 39  1  0  0  0
 37 47  1  0  0  0
 37 66  1  0  0  0
 37109  1  0  0  0
 38 43  2  0  0  0
 38 46  1  0  0  0
 38 47  1  0  0  0
 39 64  1  0  0  0
 39 67  2  0  0  0
 40 52  1  0  0  0
 40 53  2  0  0  0
 40 58  1  0  0  0
 41110  1  0  0  0
 41111  1  0  0  0
 41112  1  0  0  0
 41 48  1  0  0  0
 42 43  1  0  0  0
 42 66  1  0  0  0
 42113  1  0  0  0
 42114  1  0  0  0
 43 44  1  0  0  0
 44115  1  0  0  0
 45 46  2  0  0  0
 45116  1  0  0  0
 46117  1  0  0  0
 47118  1  0  0  0
 47119  1  0  0  0
 48 56  1  0  0  0
 48 65  1  0  0  0
 48120  1  0  0  0
 49 50  1  0  0  0
 49 53  1  0  0  0
 49 64  1  0  0  0
 49121  1  0  0  0
 50 51  1  0  0  0
 50122  1  0  0  0
 50123  1  0  0  0
 51 52  1  0  0  0
 51124  1  0  0  0
 51125  1  0  0  0
 52126  1  0  0  0
 52127  1  0  0  0
 53 54  1  0  0  0
 54 55  2  0  0  0
 54128  1  0  0  0
 55 57  1  0  0  0
 55129  1  0  0  0
 56 69  2  0  0  0
 57 58  2  0  0  0
 57130  1  0  0  0
 58131  1  0  0  0
 59 60  1  0  0  0
 59 61  1  0  0  0
 59 62  1  0  0  0
 60132  1  0  0  0
 60133  1  0  0  0
 60134  1  0  0  0
 61135  1  0  0  0
 61136  1  0  0  0
 61137  1  0  0  0
 62138  1  0  0  0
 62139  1  0  0  0
 62140  1  0  0  0
 63 65  1  0  0  0
 63141  1  0  0  0
 63142  1  0  0  0
 63143  1  0  0  0
 64144  1  0  0  0
 65145  1  0  0  0
 68 82  1  0  0  0
 71 73  2  0  0  0
 71 74  1  0  0  0
 71146  1  0  0  0
 72 73  1  0  0  0
 72 85  2  0  0  0
 72147  1  0  0  0
 73 79  1  0  0  0
 74 75  2  0  0  0
 74 83  1  0  0  0
 75 84  1  0  0  0
 75 85  1  0  0  0
 76148  1  0  0  0
 76149  1  0  0  0
 76150  1  0  0  0
 76 83  1  0  0  0
 77151  1  0  0  0
 77152  1  0  0  0
 77153  1  0  0  0
 77 84  1  0  0  0
 78 84  1  0  0  0
 78154  1  0  0  0
 78155  1  0  0  0
 78156  1  0  0  0
 79 80  1  0  0  0
 79157  1  0  0  0
 79158  1  0  0  0
 80 82  1  0  0  0
 80159  1  0  0  0
 80160  1  0  0  0
 81 83  1  0  0  0
 81 86  1  0  0  0
 81161  1  0  0  0
 81162  1  0  0  0
 82163  1  0  0  0
 82164  1  0  0  0
 83165  1  0  0  0
 84166  1  0  0  0
 86167  1  0  0  0
M  ISO  4   1 100  68 101  82 101  86 100
M  END
> <chiral flag>
0

> <version>
0

> <s_m_source_file>
/data/baiqing/PycharmProjects/Reinvent-master-3.2/result/LINK_invent/BTK/process_docking_weight1_custom_sum_contain_oxygen_bond_distance_aromatic_linkinvent_7_9_3/rearranged_h_0089.sdf

> <i_m_source_file_index>
45

> <r_mmod_Potential_Energy-OPLS-2005>
-246.543762207031

> <r_mmod_Stretch_Energy-OPLS-2005>
57.194465637207

> <r_mmod_Bend_Energy-OPLS-2005>
120.024894714355

> <r_mmod_Torsional_Energy-OPLS-2005>
190.158081054688

> <r_mmod_Improper_Torsional_Energy-OPLS-2005>
3.50339007377625

> <r_mmod_Van_der_Waal_Energy-OPLS-2005>
157.79606628418

> <r_mmod_Electrostatic_Energy-OPLS-2005>
-584.362487792969

> <r_mmod_Solvation_Energy-OPLS-2005>
-217.23210144043

> <b_mmod_Minimization_Converged-OPLS-2005>
0

> <r_mmod_RMS_Derivative-OPLS-2005>
5.83468198776245

$$$$
46
                    3D
 Structure written by MMmdl.
172180  0  0  1  0            999 V2000
  -30.5703  -14.7594   20.4568 C   0  0  0  0  0  0
  -30.4362  -12.4600   19.4774 C   0  0  0  0  0  0
  -29.5120  -12.5151   18.2406 C   0  0  0  0  0  0
  -28.0393  -12.3370   18.6534 C   0  0  0  0  0  0
  -27.6479  -13.2314   19.8627 C   0  0  2  0  0  0
  -28.6908  -13.1410   20.9985 C   0  0  0  0  0  0
  -25.2546  -13.8185   20.5708 C   0  0  0  0  0  0
  -24.1802  -13.0423   20.9209 C   0  0  0  0  0  0
  -24.6384  -11.6912   20.8730 C   0  0  0  0  0  0
  -23.9064  -10.4280   21.0410 C   0  0  0  0  0  0
  -24.3616   -9.4204   21.9179 C   0  0  0  0  0  0
  -23.6302   -8.2238   22.0745 C   0  0  0  0  0  0
  -22.4282   -8.0276   21.3540 C   0  0  0  0  0  0
  -21.9915   -9.0236   20.4642 C   0  0  0  0  0  0
  -22.7234  -10.2120   20.3057 C   0  0  0  0  0  0
  -21.6846   -6.0726   22.5277 C   0  0  0  0  0  0
  -21.4002   -6.5638   23.8205 C   0  0  0  0  0  0
  -21.3649   -5.6799   24.9168 C   0  0  0  0  0  0
  -21.6065   -4.3066   24.7238 C   0  0  0  0  0  0
  -21.8819   -3.8136   23.4365 C   0  0  0  0  0  0
  -21.9185   -4.6948   22.3412 C   0  0  0  0  0  0
  -22.7829  -13.5240   21.1864 C   0  0  0  0  0  0
  -22.1664   -4.2136   21.0990 F   0  0  0  0  0  0
  -21.5636   -3.4561   25.7747 F   0  0  0  0  0  0
  -29.9951  -13.5084   20.4319 N   0  0  0  0  0  0
  -26.2996  -12.9386   20.3382 N   0  0  0  0  0  0
  -25.9323  -11.6531   20.5744 N   0  0  0  0  0  0
  -22.0497  -12.8174   22.0424 N   0  0  0  0  0  0
  -25.4296  -15.1887   20.4072 N   0  0  0  0  0  0
  -31.7246  -14.9086   20.0446 O   0  0  0  0  0  0
  -21.6646   -6.8858   21.4240 O   0  0  0  0  0  0
  -22.3533  -14.5531   20.6691 O   0  0  0  0  0  0
  -24.6282  -31.8547   23.1939 C   0  0  0  0  0  0
  -25.9074  -32.4769   23.8328 C   0  0  1  0  0  0
  -27.2247  -27.2396   20.1721 C   0  0  0  0  0  0
  -25.5861  -33.8562   24.2265 N   0  0  0  0  0  0
  -23.4271  -30.4732   21.5361 C   0  0  2  0  0  0
  -24.8784  -28.9020   20.1222 C   0  0  0  0  0  0
  -22.7510  -29.4585   22.4911 C   0  0  0  0  0  0
  -18.0294  -28.1363   22.8477 C   0  0  0  0  0  0
  -24.1486  -36.7305   23.2652 C   0  0  0  0  0  0
  -25.9733  -30.7621   21.3741 C   0  0  0  0  0  0
  -26.0459  -29.3729   20.7409 C   0  0  0  0  0  0
  -27.2207  -28.5538   20.7534 C   0  0  0  0  0  0
  -26.0511  -26.8555   19.4901 C   0  0  0  0  0  0
  -24.8838  -27.6465   19.4924 C   0  0  0  0  0  0
  -23.6496  -29.7944   20.1570 C   0  0  0  0  0  0
  -25.4093  -36.3088   24.0354 C   0  0  1  0  0  0
  -20.5906  -28.3640   23.1282 C   0  0  2  0  0  0
  -20.6774  -26.9347   22.5421 C   0  0  0  0  0  0
  -19.5739  -26.6346   21.5231 C   0  0  0  0  0  0
  -18.1918  -26.7903   22.1628 C   0  0  0  0  0  0
  -19.1551  -28.8809   23.2896 C   0  0  0  0  0  0
  -18.9490  -30.1427   23.8894 C   0  0  0  0  0  0
  -17.6491  -30.6573   24.0542 C   0  0  0  0  0  0
  -25.9028  -34.9453   23.5126 C   0  0  0  0  0  0
  -16.5374  -29.9074   23.6319 C   0  0  0  0  0  0
  -16.7286  -28.6486   23.0345 C   0  0  0  0  0  0
  -26.4431  -31.6573   25.0716 C   0  0  0  0  0  0
  -25.3632  -31.3735   26.1434 C   0  0  0  0  0  0
  -27.0278  -30.2984   24.6191 C   0  0  0  0  0  0
  -27.6002  -32.4302   25.7468 C   0  0  0  0  0  0
  -27.5570  -37.1801   24.8465 C   0  0  0  0  0  0
  -21.4202  -29.3030   22.3700 N   0  0  0  0  0  0
  -26.4271  -37.3783   23.9429 N   0  0  0  0  0  0
  -24.6960  -31.0514   22.0909 N   0  0  0  0  0  0
  -23.4220  -28.8152   23.3034 O   0  0  0  0  0  0
  -28.3679  -26.4162   20.0621 O   0  0  0  0  0  0
  -26.5672  -34.8943   22.4743 O   0  0  0  0  0  0
  -23.5418  -32.1383   23.7188 O   0  0  0  0  0  0
  -26.3208  -24.1950   21.0265 C   0  0  0  0  0  0
  -25.4598  -23.0977   20.8355 C   0  0  0  0  0  0
  -27.5850  -23.9133   20.6194 C   0  0  0  0  0  0
  -26.2512  -22.0960   20.3144 C   0  0  0  0  0  0
  -25.7842  -20.8037   19.7090 C   0  0  0  0  0  0
  -23.7941  -23.5938   22.6645 C   0  0  0  0  0  0
  -23.0921  -21.9970   20.8569 C   0  0  0  0  0  0
  -29.9416  -24.6338   19.8914 C   0  0  0  0  0  0
  -31.0589  -19.1809   21.0085 C   0  0  0  0  0  0
  -28.5938  -19.8175   20.3546 C   0  0  0  0  0  0
  -28.8062  -21.4584   20.3800 C   0  0  0  0  0  0
  -29.6738  -17.2271   20.0560 C   0  0  0  0  0  0
  -23.9719  -23.2116   21.1819 C   0  0  0  0  0  0
  -28.6734  -25.0432   20.6494 C   0  0  2  0  0  0
  -29.6257  -18.6474   20.8598 C   0  0  1  0  0  0
  -27.6187  -22.4592   20.4402 N   0  0  0  0  0  0
  -29.7605  -15.8531   20.7408 N   0  0  0  0  0  0
  -31.4748  -12.5924   19.1734 H   0  0  0  0  0  0
  -30.3888  -11.4737   19.9416 H   0  0  0  0  0  0
  -29.7925  -11.7405   17.5246 H   0  0  0  0  0  0
  -29.6424  -13.4642   17.7243 H   0  0  0  0  0  0
  -27.8869  -11.2842   18.9019 H   0  0  0  0  0  0
  -27.3851  -12.5399   17.8059 H   0  0  0  0  0  0
  -27.6469  -14.2577   19.4947 H   0  0  0  0  0  0
  -28.7255  -12.1286   21.3974 H   0  0  0  0  0  0
  -28.4232  -13.7861   21.8373 H   0  0  0  0  0  0
  -25.2741   -9.5679   22.4769 H   0  0  0  0  0  0
  -24.0005   -7.4627   22.7440 H   0  0  0  0  0  0
  -21.0871   -8.8714   19.8946 H   0  0  0  0  0  0
  -22.3656  -10.9644   19.6178 H   0  0  0  0  0  0
  -21.1952   -7.6136   23.9685 H   0  0  0  0  0  0
  -21.1511   -6.0551   25.9082 H   0  0  0  0  0  0
  -22.0596   -2.7605   23.2871 H   0  0  0  0  0  0
  -22.4138  -11.9854   22.4842 H   0  0  0  0  0  0
  -21.1094  -13.1140   22.2573 H   0  0  0  0  0  0
  -24.6714  -15.8535   20.5101 H   0  0  0  0  0  0
  -26.2819  -15.6126   20.0643 H   0  0  0  0  0  0
  -26.7158  -32.5387   23.1082 H   0  0  0  0  0  0
  -24.9883  -33.9724   25.0311 H   0  0  0  0  0  0
  -22.7247  -31.2941   21.3818 H   0  0  0  0  0  0
  -23.3764  -35.9620   23.3300 H   0  0  0  0  0  0
  -24.3606  -36.8931   22.2075 H   0  0  0  0  0  0
  -23.7231  -37.6498   23.6681 H   0  0  0  0  0  0
  -26.1168  -31.5078   20.5896 H   0  0  0  0  0  0
  -26.8538  -30.8231   22.0026 H   0  0  0  0  0  0
  -28.1216  -28.9248   21.2232 H   0  0  0  0  0  0
  -26.0378  -25.9119   18.9607 H   0  0  0  0  0  0
  -23.9916  -27.2809   19.0016 H   0  0  0  0  0  0
  -23.7803  -30.5687   19.4020 H   0  0  0  0  0  0
  -22.7654  -29.2328   19.8489 H   0  0  0  0  0  0
  -25.1280  -36.1941   25.0849 H   0  0  0  0  0  0
  -20.9994  -28.3207   24.1410 H   0  0  0  0  0  0
  -20.5649  -26.2248   23.3639 H   0  0  0  0  0  0
  -21.6640  -26.7386   22.1213 H   0  0  0  0  0  0
  -19.6906  -25.6272   21.1243 H   0  0  0  0  0  0
  -19.6660  -27.3165   20.6780 H   0  0  0  0  0  0
  -17.4192  -26.6638   21.4036 H   0  0  0  0  0  0
  -18.0301  -26.0072   22.9042 H   0  0  0  0  0  0
  -19.7977  -30.7238   24.2248 H   0  0  0  0  0  0
  -17.5049  -31.6236   24.5166 H   0  0  0  0  0  0
  -15.5368  -30.2964   23.7646 H   0  0  0  0  0  0
  -15.8690  -28.0807   22.7064 H   0  0  0  0  0  0
  -24.5825  -30.7061   25.7780 H   0  0  0  0  0  0
  -24.8771  -32.2891   26.4813 H   0  0  0  0  0  0
  -25.7913  -30.8957   27.0247 H   0  0  0  0  0  0
  -26.2857  -29.6732   24.1208 H   0  0  0  0  0  0
  -27.3992  -29.7268   25.4707 H   0  0  0  0  0  0
  -27.8725  -30.4329   23.9430 H   0  0  0  0  0  0
  -27.2668  -33.3660   26.1989 H   0  0  0  0  0  0
  -28.3817  -32.6751   25.0260 H   0  0  0  0  0  0
  -28.0651  -31.8427   26.5403 H   0  0  0  0  0  0
  -28.2590  -38.0103   24.7545 H   0  0  0  0  0  0
  -28.1091  -36.2644   24.6255 H   0  0  0  0  0  0
  -27.2338  -37.1424   25.8886 H   0  0  0  0  0  0
  -20.9374  -29.8794   21.6932 H   0  0  0  0  0  0
  -26.0168  -38.2869   24.1395 H   0  0  0  0  0  0
  -26.0130  -25.1549   21.4115 H   0  0  0  0  0  0
  -25.6518  -20.0170   20.4507 H   0  0  0  0  0  0
  -26.4388  -20.4719   18.9041 H   0  0  0  0  0  0
  -24.8237  -20.9340   19.2234 H   0  0  0  0  0  0
  -24.3323  -24.5096   22.9114 H   0  0  0  0  0  0
  -24.1700  -22.8078   23.3208 H   0  0  0  0  0  0
  -22.7444  -23.7642   22.9131 H   0  0  0  0  0  0
  -22.9691  -21.8755   19.7829 H   0  0  0  0  0  0
  -22.0858  -22.1417   21.2501 H   0  0  0  0  0  0
  -23.4890  -21.0759   21.2869 H   0  0  0  0  0  0
  -29.7208  -24.4370   18.8417 H   0  0  0  0  0  0
  -30.4004  -23.7409   20.3097 H   0  0  0  0  0  0
  -30.6860  -25.4272   19.9300 H   0  0  0  0  0  0
  -31.7263  -18.3858   21.3435 H   0  0  0  0  0  0
  -31.1183  -19.9861   21.7403 H   0  0  0  0  0  0
  -31.4601  -19.5587   20.0669 H   0  0  0  0  0  0
  -28.3457  -19.5478   19.3299 H   0  0  0  0  0  0
  -27.7030  -19.6118   20.9429 H   0  0  0  0  0  0
  -29.3927  -21.7277   19.5005 H   0  0  0  0  0  0
  -29.4364  -21.7017   21.2352 H   0  0  0  0  0  0
  -28.7663  -17.1759   19.4549 H   0  0  0  0  0  0
  -30.4768  -17.2825   19.3171 H   0  0  0  0  0  0
  -23.5951  -24.0527   20.5914 H   0  0  0  0  0  0
  -28.9546  -25.1991   21.6926 H   0  0  0  0  0  0
  -29.3002  -18.3933   21.8681 H   0  0  0  0  0  0
  -28.9138  -15.5936   21.2215 H   0  0  0  0  0  0
  1 25  1  0  0  0
  1 30  2  0  0  0
  1 87  1  0  0  0
  2  3  1  0  0  0
  2 25  1  0  0  0
  2 88  1  0  0  0
  2 89  1  0  0  0
  3  4  1  0  0  0
  3 90  1  0  0  0
  3 91  1  0  0  0
  4  5  1  0  0  0
  4 92  1  0  0  0
  4 93  1  0  0  0
  5  6  1  0  0  0
  5 26  1  0  0  0
  5 94  1  0  0  0
  6 25  1  0  0  0
  6 95  1  0  0  0
  6 96  1  0  0  0
  7  8  2  0  0  0
  7 26  1  0  0  0
  7 29  1  0  0  0
  8  9  1  0  0  0
  8 22  1  0  0  0
  9 10  1  0  0  0
  9 27  2  0  0  0
 10 11  2  0  0  0
 10 15  1  0  0  0
 11 12  1  0  0  0
 11 97  1  0  0  0
 12 13  2  0  0  0
 12 98  1  0  0  0
 13 14  1  0  0  0
 13 31  1  0  0  0
 14 15  2  0  0  0
 14 99  1  0  0  0
 15100  1  0  0  0
 16 17  2  0  0  0
 16 21  1  0  0  0
 16 31  1  0  0  0
 17 18  1  0  0  0
 17101  1  0  0  0
 18 19  2  0  0  0
 18102  1  0  0  0
 19 20  1  0  0  0
 19 24  1  0  0  0
 20 21  2  0  0  0
 20103  1  0  0  0
 21 23  1  0  0  0
 22 28  1  0  0  0
 22 32  2  0  0  0
 26 27  1  0  0  0
 28104  1  0  0  0
 28105  1  0  0  0
 29106  1  0  0  0
 29107  1  0  0  0
 33 34  1  0  0  0
 33 66  1  0  0  0
 33 70  2  0  0  0
 34 36  1  0  0  0
 34 59  1  0  0  0
 34108  1  0  0  0
 35 44  2  0  0  0
 35 45  1  0  0  0
 35 68  1  0  0  0
 36 56  1  0  0  0
 36109  1  0  0  0
 37 39  1  0  0  0
 37 47  1  0  0  0
 37 66  1  0  0  0
 37110  1  0  0  0
 38 43  2  0  0  0
 38 46  1  0  0  0
 38 47  1  0  0  0
 39 64  1  0  0  0
 39 67  2  0  0  0
 40 52  1  0  0  0
 40 53  2  0  0  0
 40 58  1  0  0  0
 41111  1  0  0  0
 41112  1  0  0  0
 41113  1  0  0  0
 41 48  1  0  0  0
 42 43  1  0  0  0
 42 66  1  0  0  0
 42114  1  0  0  0
 42115  1  0  0  0
 43 44  1  0  0  0
 44116  1  0  0  0
 45 46  2  0  0  0
 45117  1  0  0  0
 46118  1  0  0  0
 47119  1  0  0  0
 47120  1  0  0  0
 48 56  1  0  0  0
 48 65  1  0  0  0
 48121  1  0  0  0
 49 50  1  0  0  0
 49 53  1  0  0  0
 49 64  1  0  0  0
 49122  1  0  0  0
 50 51  1  0  0  0
 50123  1  0  0  0
 50124  1  0  0  0
 51 52  1  0  0  0
 51125  1  0  0  0
 51126  1  0  0  0
 52127  1  0  0  0
 52128  1  0  0  0
 53 54  1  0  0  0
 54 55  2  0  0  0
 54129  1  0  0  0
 55 57  1  0  0  0
 55130  1  0  0  0
 56 69  2  0  0  0
 57 58  2  0  0  0
 57131  1  0  0  0
 58132  1  0  0  0
 59 60  1  0  0  0
 59 61  1  0  0  0
 59 62  1  0  0  0
 60133  1  0  0  0
 60134  1  0  0  0
 60135  1  0  0  0
 61136  1  0  0  0
 61137  1  0  0  0
 61138  1  0  0  0
 62139  1  0  0  0
 62140  1  0  0  0
 62141  1  0  0  0
 63 65  1  0  0  0
 63142  1  0  0  0
 63143  1  0  0  0
 63144  1  0  0  0
 64145  1  0  0  0
 65146  1  0  0  0
 68 84  1  0  0  0
 71 72  1  0  0  0
 71 73  2  0  0  0
 71147  1  0  0  0
 72 74  2  0  0  0
 72 83  1  0  0  0
 73 84  1  0  0  0
 73 86  1  0  0  0
 74 75  1  0  0  0
 74 86  1  0  0  0
 75148  1  0  0  0
 75149  1  0  0  0
 75150  1  0  0  0
 76151  1  0  0  0
 76152  1  0  0  0
 76153  1  0  0  0
 76 83  1  0  0  0
 77 83  1  0  0  0
 77154  1  0  0  0
 77155  1  0  0  0
 77156  1  0  0  0
 78157  1  0  0  0
 78158  1  0  0  0
 78159  1  0  0  0
 78 84  1  0  0  0
 79160  1  0  0  0
 79161  1  0  0  0
 79162  1  0  0  0
 79 85  1  0  0  0
 80 81  1  0  0  0
 80 85  1  0  0  0
 80163  1  0  0  0
 80164  1  0  0  0
 81 86  1  0  0  0
 81165  1  0  0  0
 81166  1  0  0  0
 82 85  1  0  0  0
 82 87  1  0  0  0
 82167  1  0  0  0
 82168  1  0  0  0
 83169  1  0  0  0
 84170  1  0  0  0
 85171  1  0  0  0
 87172  1  0  0  0
M  ISO  4   1 100  68 101  84 101  87 100
M  END
> <chiral flag>
0

> <version>
0

> <s_m_source_file>
/data/baiqing/PycharmProjects/Reinvent-master-3.2/result/LINK_invent/BTK/process_docking_weight1_custom_sum_contain_oxygen_bond_distance_aromatic_linkinvent_7_9_3/rearranged_h_0089.sdf

> <i_m_source_file_index>
46

> <r_mmod_Potential_Energy-OPLS-2005>
339.893249511719

> <r_mmod_Stretch_Energy-OPLS-2005>
164.818481445312

> <r_mmod_Bend_Energy-OPLS-2005>
276.330383300781

> <r_mmod_Torsional_Energy-OPLS-2005>
322.499908447266

> <r_mmod_Improper_Torsional_Energy-OPLS-2005>
8.7781229019165

> <r_mmod_Van_der_Waal_Energy-OPLS-2005>
115.243133544922

> <r_mmod_Electrostatic_Energy-OPLS-2005>
-429.435180664062

> <r_mmod_Solvation_Energy-OPLS-2005>
-203.244979858398

> <b_mmod_Minimization_Converged-OPLS-2005>
0

> <r_mmod_RMS_Derivative-OPLS-2005>
5.27106332778931

$$$$
47
                    3D
 Structure written by MMmdl.
164172  0  0  1  0            999 V2000
  -30.6146  -14.6630   20.5329 C   0  0  0  0  0  0
  -30.4433  -12.4156   19.4383 C   0  0  0  0  0  0
  -29.5026  -12.5063   18.2163 C   0  0  0  0  0  0
  -28.0254  -12.3505   18.6320 C   0  0  0  0  0  0
  -27.6527  -13.2137   19.8666 C   0  0  2  0  0  0
  -28.7042  -13.0461   20.9854 C   0  0  0  0  0  0
  -25.2564  -13.8146   20.5747 C   0  0  0  0  0  0
  -24.1808  -13.0437   20.9183 C   0  0  0  0  0  0
  -24.6368  -11.6902   20.8716 C   0  0  0  0  0  0
  -23.9031  -10.4300   21.0409 C   0  0  0  0  0  0
  -24.3604   -9.4227   21.9192 C   0  0  0  0  0  0
  -23.6278   -8.2258   22.0771 C   0  0  0  0  0  0
  -22.4266   -8.0289   21.3540 C   0  0  0  0  0  0
  -21.9887   -9.0274   20.4653 C   0  0  0  0  0  0
  -22.7204  -10.2154   20.3055 C   0  0  0  0  0  0
  -21.6850   -6.0753   22.5275 C   0  0  0  0  0  0
  -21.4010   -6.5648   23.8219 C   0  0  0  0  0  0
  -21.3654   -5.6794   24.9173 C   0  0  0  0  0  0
  -21.6031   -4.3058   24.7219 C   0  0  0  0  0  0
  -21.8818   -3.8156   23.4339 C   0  0  0  0  0  0
  -21.9190   -4.6978   22.3392 C   0  0  0  0  0  0
  -22.7843  -13.5272   21.1856 C   0  0  0  0  0  0
  -22.1663   -4.2171   21.0976 F   0  0  0  0  0  0
  -21.5625   -3.4531   25.7729 F   0  0  0  0  0  0
  -30.0109  -13.4301   20.4252 N   0  0  0  0  0  0
  -26.2992  -12.9315   20.3357 N   0  0  0  0  0  0
  -25.9312  -11.6468   20.5753 N   0  0  0  0  0  0
  -22.0450  -12.8301   22.0401 N   0  0  0  0  0  0
  -25.4296  -15.1882   20.4283 N   0  0  0  0  0  0
  -31.7471  -14.8313   20.0660 O   0  0  0  0  0  0
  -21.6628   -6.8897   21.4238 O   0  0  0  0  0  0
  -22.3538  -14.5574   20.6695 O   0  0  0  0  0  0
  -24.6277  -31.8585   23.1994 C   0  0  0  0  0  0
  -25.9121  -32.4757   23.8297 C   0  0  1  0  0  0
  -27.2239  -27.2890   20.1305 C   0  0  0  0  0  0
  -25.5944  -33.8553   24.2261 N   0  0  0  0  0  0
  -23.4233  -30.4775   21.5435 C   0  0  2  0  0  0
  -24.8726  -28.9337   20.1071 C   0  0  0  0  0  0
  -22.7497  -29.4589   22.4945 C   0  0  0  0  0  0
  -18.0268  -28.1380   22.8457 C   0  0  0  0  0  0
  -24.1490  -36.7279   23.2634 C   0  0  0  0  0  0
  -25.9661  -30.7801   21.3731 C   0  0  0  0  0  0
  -26.0396  -29.4038   20.7211 C   0  0  0  0  0  0
  -27.2168  -28.5889   20.7291 C   0  0  0  0  0  0
  -26.0426  -26.9018   19.4562 C   0  0  0  0  0  0
  -24.8803  -27.6938   19.4553 C   0  0  0  0  0  0
  -23.6352  -29.8070   20.1624 C   0  0  0  0  0  0
  -25.4118  -36.3070   24.0332 C   0  0  1  0  0  0
  -20.5877  -28.3672   23.1286 C   0  0  2  0  0  0
  -20.6768  -26.9405   22.5384 C   0  0  0  0  0  0
  -19.5754  -26.6411   21.5173 C   0  0  0  0  0  0
  -18.1922  -26.7956   22.1565 C   0  0  0  0  0  0
  -19.1525  -28.8847   23.2883 C   0  0  0  0  0  0
  -18.9437  -30.1446   23.8872 C   0  0  0  0  0  0
  -17.6423  -30.6575   24.0522 C   0  0  0  0  0  0
  -25.9053  -34.9440   23.5101 C   0  0  0  0  0  0
  -16.5325  -29.9056   23.6309 C   0  0  0  0  0  0
  -16.7252  -28.6481   23.0323 C   0  0  0  0  0  0
  -26.4519  -31.6567   25.0661 C   0  0  0  0  0  0
  -25.3731  -31.3709   26.1366 C   0  0  0  0  0  0
  -27.0361  -30.2986   24.6113 C   0  0  0  0  0  0
  -27.6103  -32.4278   25.7436 C   0  0  0  0  0  0
  -27.5583  -37.1791   24.8466 C   0  0  0  0  0  0
  -21.4193  -29.2988   22.3659 N   0  0  0  0  0  0
  -26.4289  -37.3775   23.9425 N   0  0  0  0  0  0
  -24.6910  -31.0573   22.0944 N   0  0  0  0  0  0
  -23.4207  -28.8138   23.3055 O   0  0  0  0  0  0
  -28.3071  -26.3860   20.2311 O   0  0  0  0  0  0
  -26.5613  -34.8938   22.4655 O   0  0  0  0  0  0
  -23.5435  -32.1372   23.7337 O   0  0  0  0  0  0
  -30.2635  -18.5992   20.9823 C   0  0  0  0  0  0
  -29.7954  -17.3397   20.5886 C   0  0  0  0  0  0
  -28.8485  -18.9867   19.3352 C   0  0  0  0  0  0
  -26.8114  -18.6811   17.8406 C   0  0  0  0  0  0
  -28.8308  -19.9976   17.0335 C   0  0  0  0  0  0
  -27.1700  -24.7654   21.6991 C   0  0  0  0  0  0
  -29.8789  -15.9035   21.2153 C   0  0  0  0  0  0
  -28.8111  -22.2696   20.2865 C   0  0  0  0  0  0
  -29.1971  -23.8342   20.4409 C   0  0  0  0  0  0
  -29.9571  -21.1297   20.2891 C   0  0  0  0  0  0
  -27.9908  -19.5837   18.2511 C   0  0  0  0  0  0
  -28.0098  -24.9220   20.4089 C   0  0  2  0  0  0
  -29.6572  -19.6103   20.2240 N   0  0  0  0  0  0
  -28.9549  -17.6574   19.5448 N   0  3  0  0  0  0
  -31.4766  -12.5598   19.1186 H   0  0  0  0  0  0
  -30.4083  -11.4195   19.8836 H   0  0  0  0  0  0
  -29.7605  -11.7400   17.4825 H   0  0  0  0  0  0
  -29.6439  -13.4644   17.7156 H   0  0  0  0  0  0
  -27.8612  -11.2957   18.8580 H   0  0  0  0  0  0
  -27.3698  -12.5863   17.7926 H   0  0  0  0  0  0
  -27.6765  -14.2532   19.5381 H   0  0  0  0  0  0
  -28.7304  -12.0059   21.3202 H   0  0  0  0  0  0
  -28.4447  -13.6160   21.8772 H   0  0  0  0  0  0
  -25.2762   -9.5724   22.4766 H   0  0  0  0  0  0
  -23.9997   -7.4655   22.7491 H   0  0  0  0  0  0
  -21.0829   -8.8790   19.8970 H   0  0  0  0  0  0
  -22.3656  -10.9710   19.6170 H   0  0  0  0  0  0
  -21.2002   -7.6161   23.9723 H   0  0  0  0  0  0
  -21.1469   -6.0528   25.9074 H   0  0  0  0  0  0
  -22.0596   -2.7623   23.2825 H   0  0  0  0  0  0
  -22.4019  -11.9969   22.4846 H   0  0  0  0  0  0
  -21.1076  -13.1361   22.2571 H   0  0  0  0  0  0
  -24.6720  -15.8446   20.5799 H   0  0  0  0  0  0
  -26.2964  -15.6379   20.1756 H   0  0  0  0  0  0
  -26.7187  -32.5461   23.1048 H   0  0  0  0  0  0
  -25.0131  -33.9662   25.0440 H   0  0  0  0  0  0
  -22.7153  -31.2969   21.3972 H   0  0  0  0  0  0
  -23.3748  -35.9609   23.3295 H   0  0  0  0  0  0
  -24.3567  -36.8891   22.2038 H   0  0  0  0  0  0
  -23.7235  -37.6487   23.6643 H   0  0  0  0  0  0
  -26.0905  -31.5379   20.5994 H   0  0  0  0  0  0
  -26.8462  -30.8379   21.9996 H   0  0  0  0  0  0
  -28.0992  -28.9315   21.2491 H   0  0  0  0  0  0
  -25.9796  -25.9587   18.9370 H   0  0  0  0  0  0
  -23.9910  -27.3399   18.9507 H   0  0  0  0  0  0
  -23.7398  -30.5765   19.3986 H   0  0  0  0  0  0
  -22.7597  -29.2230   19.8711 H   0  0  0  0  0  0
  -25.1300  -36.1911   25.0821 H   0  0  0  0  0  0
  -20.9948  -28.3198   24.1415 H   0  0  0  0  0  0
  -20.5734  -26.2225   23.3537 H   0  0  0  0  0  0
  -21.6647  -26.7484   22.1164 H   0  0  0  0  0  0
  -19.6927  -25.6331   21.1152 H   0  0  0  0  0  0
  -19.6721  -27.3280   20.6758 H   0  0  0  0  0  0
  -17.4230  -26.6784   21.3913 H   0  0  0  0  0  0
  -18.0283  -26.0064   22.8907 H   0  0  0  0  0  0
  -19.7911  -30.7262   24.2238 H   0  0  0  0  0  0
  -17.4947  -31.6265   24.5141 H   0  0  0  0  0  0
  -15.5330  -30.2928   23.7679 H   0  0  0  0  0  0
  -15.8629  -28.0839   22.7021 H   0  0  0  0  0  0
  -24.5931  -30.7051   25.7665 H   0  0  0  0  0  0
  -24.8881  -32.2861   26.4761 H   0  0  0  0  0  0
  -25.8012  -30.8886   27.0150 H   0  0  0  0  0  0
  -26.2929  -29.6719   24.1162 H   0  0  0  0  0  0
  -27.4090  -29.7262   25.4615 H   0  0  0  0  0  0
  -27.8793  -30.4275   23.9319 H   0  0  0  0  0  0
  -27.2759  -33.3599   26.2018 H   0  0  0  0  0  0
  -28.3915  -32.6785   25.0240 H   0  0  0  0  0  0
  -28.0757  -31.8352   26.5324 H   0  0  0  0  0  0
  -28.2597  -38.0097   24.7522 H   0  0  0  0  0  0
  -28.1065  -36.2610   24.6269 H   0  0  0  0  0  0
  -27.2281  -37.1445   25.8865 H   0  0  0  0  0  0
  -20.9384  -29.8601   21.6767 H   0  0  0  0  0  0
  -26.0161  -38.2850   24.1416 H   0  0  0  0  0  0
  -30.9514  -18.8452   21.7793 H   0  0  0  0  0  0
  -26.2020  -18.4033   18.7020 H   0  0  0  0  0  0
  -27.1351  -17.7647   17.3432 H   0  0  0  0  0  0
  -26.1575  -19.2089   17.1467 H   0  0  0  0  0  0
  -29.5793  -20.7449   17.2939 H   0  0  0  0  0  0
  -28.2039  -20.4175   16.2468 H   0  0  0  0  0  0
  -29.3544  -19.1395   16.6095 H   0  0  0  0  0  0
  -26.2547  -25.3546   21.6769 H   0  0  0  0  0  0
  -27.7328  -25.0783   22.5792 H   0  0  0  0  0  0
  -26.8579  -23.7317   21.8589 H   0  0  0  0  0  0
  -28.8417  -15.6321   21.3936 H   0  0  0  0  0  0
  -30.3030  -15.9987   22.2132 H   0  0  0  0  0  0
  -28.2704  -22.2329   19.3451 H   0  0  0  0  0  0
  -28.0906  -22.0034   21.0577 H   0  0  0  0  0  0
  -29.8968  -24.0837   19.6444 H   0  0  0  0  0  0
  -29.7623  -23.9699   21.3659 H   0  0  0  0  0  0
  -30.5593  -21.2673   21.1902 H   0  0  0  0  0  0
  -30.6461  -21.3272   19.4670 H   0  0  0  0  0  0
  -27.5201  -20.4532   18.6951 H   0  0  0  0  0  0
  -27.4023  -24.6040   19.5644 H   0  0  0  0  0  0
  -28.4374  -16.9816   18.9951 H   0  0  0  0  0  0
  1 25  1  0  0  0
  1 30  2  0  0  0
  1 77  1  0  0  0
  2  3  1  0  0  0
  2 25  1  0  0  0
  2 85  1  0  0  0
  2 86  1  0  0  0
  3  4  1  0  0  0
  3 87  1  0  0  0
  3 88  1  0  0  0
  4  5  1  0  0  0
  4 89  1  0  0  0
  4 90  1  0  0  0
  5  6  1  0  0  0
  5 26  1  0  0  0
  5 91  1  0  0  0
  6 25  1  0  0  0
  6 92  1  0  0  0
  6 93  1  0  0  0
  7  8  2  0  0  0
  7 26  1  0  0  0
  7 29  1  0  0  0
  8  9  1  0  0  0
  8 22  1  0  0  0
  9 10  1  0  0  0
  9 27  2  0  0  0
 10 11  2  0  0  0
 10 15  1  0  0  0
 11 12  1  0  0  0
 11 94  1  0  0  0
 12 13  2  0  0  0
 12 95  1  0  0  0
 13 14  1  0  0  0
 13 31  1  0  0  0
 14 15  2  0  0  0
 14 96  1  0  0  0
 15 97  1  0  0  0
 16 17  2  0  0  0
 16 21  1  0  0  0
 16 31  1  0  0  0
 17 18  1  0  0  0
 17 98  1  0  0  0
 18 19  2  0  0  0
 18 99  1  0  0  0
 19 20  1  0  0  0
 19 24  1  0  0  0
 20 21  2  0  0  0
 20100  1  0  0  0
 21 23  1  0  0  0
 22 28  1  0  0  0
 22 32  2  0  0  0
 26 27  1  0  0  0
 28101  1  0  0  0
 28102  1  0  0  0
 29103  1  0  0  0
 29104  1  0  0  0
 33 34  1  0  0  0
 33 66  1  0  0  0
 33 70  2  0  0  0
 34 36  1  0  0  0
 34 59  1  0  0  0
 34105  1  0  0  0
 35 44  2  0  0  0
 35 45  1  0  0  0
 35 68  1  0  0  0
 36 56  1  0  0  0
 36106  1  0  0  0
 37 39  1  0  0  0
 37 47  1  0  0  0
 37 66  1  0  0  0
 37107  1  0  0  0
 38 43  2  0  0  0
 38 46  1  0  0  0
 38 47  1  0  0  0
 39 64  1  0  0  0
 39 67  2  0  0  0
 40 52  1  0  0  0
 40 53  2  0  0  0
 40 58  1  0  0  0
 41108  1  0  0  0
 41109  1  0  0  0
 41110  1  0  0  0
 41 48  1  0  0  0
 42 43  1  0  0  0
 42 66  1  0  0  0
 42111  1  0  0  0
 42112  1  0  0  0
 43 44  1  0  0  0
 44113  1  0  0  0
 45 46  2  0  0  0
 45114  1  0  0  0
 46115  1  0  0  0
 47116  1  0  0  0
 47117  1  0  0  0
 48 56  1  0  0  0
 48 65  1  0  0  0
 48118  1  0  0  0
 49 50  1  0  0  0
 49 53  1  0  0  0
 49 64  1  0  0  0
 49119  1  0  0  0
 50 51  1  0  0  0
 50120  1  0  0  0
 50121  1  0  0  0
 51 52  1  0  0  0
 51122  1  0  0  0
 51123  1  0  0  0
 52124  1  0  0  0
 52125  1  0  0  0
 53 54  1  0  0  0
 54 55  2  0  0  0
 54126  1  0  0  0
 55 57  1  0  0  0
 55127  1  0  0  0
 56 69  2  0  0  0
 57 58  2  0  0  0
 57128  1  0  0  0
 58129  1  0  0  0
 59 60  1  0  0  0
 59 61  1  0  0  0
 59 62  1  0  0  0
 60130  1  0  0  0
 60131  1  0  0  0
 60132  1  0  0  0
 61133  1  0  0  0
 61134  1  0  0  0
 61135  1  0  0  0
 62136  1  0  0  0
 62137  1  0  0  0
 62138  1  0  0  0
 63 65  1  0  0  0
 63139  1  0  0  0
 63140  1  0  0  0
 63141  1  0  0  0
 64142  1  0  0  0
 65143  1  0  0  0
 68 82  1  0  0  0
 71 72  2  0  0  0
 71 83  1  0  0  0
 71144  1  0  0  0
 72 77  1  0  0  0
 72 84  1  0  0  0
 73 81  1  0  0  0
 73 83  1  0  0  0
 73 84  2  0  0  0
 74145  1  0  0  0
 74146  1  0  0  0
 74147  1  0  0  0
 74 81  1  0  0  0
 75 81  1  0  0  0
 75148  1  0  0  0
 75149  1  0  0  0
 75150  1  0  0  0
 76151  1  0  0  0
 76152  1  0  0  0
 76153  1  0  0  0
 76 82  1  0  0  0
 77154  1  0  0  0
 77155  1  0  0  0
 78 79  1  0  0  0
 78 80  1  0  0  0
 78156  1  0  0  0
 78157  1  0  0  0
 79 82  1  0  0  0
 79158  1  0  0  0
 79159  1  0  0  0
 80 83  1  0  0  0
 80160  1  0  0  0
 80161  1  0  0  0
 81162  1  0  0  0
 82163  1  0  0  0
 84164  1  0  0  0
M  CHG  1  84   1
M  ISO  4   1 100  68 101  77 100  82 101
M  END
> <chiral flag>
0

> <version>
0

> <s_m_source_file>
/data/baiqing/PycharmProjects/Reinvent-master-3.2/result/LINK_invent/BTK/process_docking_weight1_custom_sum_contain_oxygen_bond_distance_aromatic_linkinvent_7_9_3/rearranged_h_0089.sdf

> <i_m_source_file_index>
47

> <r_mmod_Potential_Energy-OPLS-2005>
162.321960449219

> <r_mmod_Stretch_Energy-OPLS-2005>
111.534622192383

> <r_mmod_Bend_Energy-OPLS-2005>
168.214752197266

> <r_mmod_Torsional_Energy-OPLS-2005>
207.158020019531

> <r_mmod_Improper_Torsional_Energy-OPLS-2005>
3.23822259902954

> <r_mmod_Van_der_Waal_Energy-OPLS-2005>
119.218154907227

> <r_mmod_Electrostatic_Energy-OPLS-2005>
-106.886024475098

> <r_mmod_Solvation_Energy-OPLS-2005>
-402.111022949219

> <b_mmod_Minimization_Converged-OPLS-2005>
0

> <r_mmod_RMS_Derivative-OPLS-2005>
4.8164529800415

$$$$
48
                    3D
 Structure written by MMmdl.
190199  0  0  1  0            999 V2000
  -30.6917  -14.4908   20.5274 C   0  0  0  0  0  0
  -30.4178  -12.3109   19.4179 C   0  0  0  0  0  0
  -29.4882  -12.4897   18.2004 C   0  0  0  0  0  0
  -28.0095  -12.3542   18.6189 C   0  0  0  0  0  0
  -27.6525  -13.2096   19.8640 C   0  0  2  0  0  0
  -28.6981  -13.0231   20.9839 C   0  0  0  0  0  0
  -25.2565  -13.8160   20.5724 C   0  0  0  0  0  0
  -24.1826  -13.0427   20.9217 C   0  0  0  0  0  0
  -24.6390  -11.6900   20.8749 C   0  0  0  0  0  0
  -23.9062  -10.4284   21.0404 C   0  0  0  0  0  0
  -24.3615   -9.4209   21.9184 C   0  0  0  0  0  0
  -23.6289   -8.2244   22.0749 C   0  0  0  0  0  0
  -22.4273   -8.0279   21.3543 C   0  0  0  0  0  0
  -21.9913   -9.0252   20.4646 C   0  0  0  0  0  0
  -22.7235  -10.2134   20.3055 C   0  0  0  0  0  0
  -21.6857   -6.0744   22.5283 C   0  0  0  0  0  0
  -21.4014   -6.5652   23.8219 C   0  0  0  0  0  0
  -21.3651   -5.6799   24.9178 C   0  0  0  0  0  0
  -21.6034   -4.3060   24.7233 C   0  0  0  0  0  0
  -21.8814   -3.8159   23.4354 C   0  0  0  0  0  0
  -21.9193   -4.6970   22.3408 C   0  0  0  0  0  0
  -22.7849  -13.5214   21.1874 C   0  0  0  0  0  0
  -22.1666   -4.2168   21.0985 F   0  0  0  0  0  0
  -21.5628   -3.4537   25.7748 F   0  0  0  0  0  0
  -30.0196  -13.3171   20.4107 N   0  0  0  0  0  0
  -26.2986  -12.9328   20.3352 N   0  0  0  0  0  0
  -25.9311  -11.6482   20.5771 N   0  0  0  0  0  0
  -22.0503  -12.8184   22.0424 N   0  0  0  0  0  0
  -25.4257  -15.1879   20.4166 N   0  0  0  0  0  0
  -31.8790  -14.6047   20.2235 O   0  0  0  0  0  0
  -21.6635   -6.8881   21.4245 O   0  0  0  0  0  0
  -22.3524  -14.5503   20.6710 O   0  0  0  0  0  0
  -24.6134  -31.8677   23.2100 C   0  0  0  0  0  0
  -25.9041  -32.4817   23.8387 C   0  0  1  0  0  0
  -27.2441  -27.4490   20.1090 C   0  0  0  0  0  0
  -25.5901  -33.8616   24.2333 N   0  0  0  0  0  0
  -23.4009  -30.4880   21.5502 C   0  0  2  0  0  0
  -24.8503  -28.9471   20.1253 C   0  0  0  0  0  0
  -22.7400  -29.4654   22.5013 C   0  0  0  0  0  0
  -18.0270  -28.1382   22.8497 C   0  0  0  0  0  0
  -24.1492  -36.7298   23.2641 C   0  0  0  0  0  0
  -25.9266  -30.8389   21.3599 C   0  0  0  0  0  0
  -26.0084  -29.4700   20.7166 C   0  0  0  0  0  0
  -27.2114  -28.7293   20.7031 C   0  0  0  0  0  0
  -26.0729  -26.9286   19.5229 C   0  0  0  0  0  0
  -24.8758  -27.6731   19.5275 C   0  0  0  0  0  0
  -23.6101  -29.8121   20.1683 C   0  0  0  0  0  0
  -25.4112  -36.3104   24.0342 C   0  0  1  0  0  0
  -20.5859  -28.3656   23.1320 C   0  0  2  0  0  0
  -20.6755  -26.9390   22.5428 C   0  0  0  0  0  0
  -19.5737  -26.6378   21.5223 C   0  0  0  0  0  0
  -18.1914  -26.7931   22.1626 C   0  0  0  0  0  0
  -19.1522  -28.8840   23.2904 C   0  0  0  0  0  0
  -18.9453  -30.1448   23.8912 C   0  0  0  0  0  0
  -17.6460  -30.6588   24.0576 C   0  0  0  0  0  0
  -25.9029  -34.9469   23.5136 C   0  0  0  0  0  0
  -16.5344  -29.9101   23.6330 C   0  0  0  0  0  0
  -16.7261  -28.6517   23.0345 C   0  0  0  0  0  0
  -26.4474  -31.6581   25.0707 C   0  0  0  0  0  0
  -25.3735  -31.3690   26.1458 C   0  0  0  0  0  0
  -27.0306  -30.3024   24.6058 C   0  0  0  0  0  0
  -27.6061  -32.4298   25.7464 C   0  0  0  0  0  0
  -27.5589  -37.1808   24.8468 C   0  0  0  0  0  0
  -21.4133  -29.3025   22.3730 N   0  0  0  0  0  0
  -26.4298  -37.3792   23.9413 N   0  0  0  0  0  0
  -24.6647  -31.0786   22.0987 N   0  0  0  0  0  0
  -23.4170  -28.8216   23.3076 O   0  0  0  0  0  0
  -28.4221  -26.7494   20.0158 O   0  0  0  0  0  0
  -26.5589  -34.8922   22.4696 O   0  0  0  0  0  0
  -23.5328  -32.1433   23.7496 O   0  0  0  0  0  0
  -29.2036  -20.5328   20.7393 C   0  0  0  0  0  0
  -27.0947  -21.6685   21.0958 C   0  0  0  0  0  0
  -28.5573  -19.5324   19.9767 C   0  0  0  0  0  0
  -28.4784  -21.5983   21.3014 C   0  0  0  0  0  0
  -26.3860  -20.6999   20.3409 C   0  0  0  0  0  0
  -27.1363  -19.5927   19.8083 C   0  0  0  0  0  0
  -30.7688  -18.5946   16.9320 C   0  0  0  0  0  0
  -32.0225  -18.1462   17.6779 C   0  0  0  0  0  0
  -29.8398  -19.3485   17.8875 C   0  0  0  0  0  0
  -31.6221  -17.2346   18.8404 C   0  0  0  0  0  0
  -29.4298  -18.5499   19.1514 C   0  0  1  0  0  0
  -30.6726  -17.9036   19.8656 C   0  0  1  0  0  0
  -26.4835  -18.4649   19.0082 C   0  0  0  0  0  0
  -30.6843  -25.2121   19.5124 C   0  0  0  0  0  0
  -24.3550  -22.2988   20.6373 C   0  0  0  0  0  0
  -24.0253  -19.8864   20.8945 C   0  0  0  0  0  0
  -24.5028  -20.9751   18.6033 C   0  0  0  0  0  0
  -29.1640  -22.6813   22.1254 C   0  0  0  0  0  0
  -30.3745  -16.9560   21.0807 C   0  0  0  0  0  0
  -30.1298  -23.5895   21.3373 C   0  0  0  0  0  0
  -28.6114  -25.6681   20.9354 C   0  0  0  0  0  0
  -29.5229  -24.5772   20.3049 C   0  0  1  0  0  0
  -24.8572  -20.9259   20.1114 C   0  0  0  0  0  0
  -29.9286  -15.5700   20.8097 N   0  0  0  0  0  0
  -31.4617  -12.4113   19.1177 H   0  0  0  0  0  0
  -30.3193  -11.3085   19.8376 H   0  0  0  0  0  0
  -29.7292  -11.7492   17.4381 H   0  0  0  0  0  0
  -29.6559  -13.4658   17.7408 H   0  0  0  0  0  0
  -27.8251  -11.3006   18.8302 H   0  0  0  0  0  0
  -27.3556  -12.6149   17.7862 H   0  0  0  0  0  0
  -27.6812  -14.2519   19.5448 H   0  0  0  0  0  0
  -28.6783  -11.9986   21.3592 H   0  0  0  0  0  0
  -28.4723  -13.6597   21.8415 H   0  0  0  0  0  0
  -25.2769   -9.5686   22.4754 H   0  0  0  0  0  0
  -24.0014   -7.4630   22.7451 H   0  0  0  0  0  0
  -21.0858   -8.8746   19.8944 H   0  0  0  0  0  0
  -22.3688  -10.9662   19.6161 H   0  0  0  0  0  0
  -21.2000   -7.6161   23.9731 H   0  0  0  0  0  0
  -21.1475   -6.0534   25.9083 H   0  0  0  0  0  0
  -22.0598   -2.7624   23.2851 H   0  0  0  0  0  0
  -22.4134  -11.9851   22.4804 H   0  0  0  0  0  0
  -21.1118  -13.1190   22.2612 H   0  0  0  0  0  0
  -24.6566  -15.8390   20.5262 H   0  0  0  0  0  0
  -26.2747  -15.6280   20.0904 H   0  0  0  0  0  0
  -26.7126  -32.5532   23.1165 H   0  0  0  0  0  0
  -25.0091  -33.9776   25.0505 H   0  0  0  0  0  0
  -22.6877  -31.3027   21.4084 H   0  0  0  0  0  0
  -23.3760  -35.9626   23.3312 H   0  0  0  0  0  0
  -24.3594  -36.8896   22.2055 H   0  0  0  0  0  0
  -23.7231  -37.6500   23.6644 H   0  0  0  0  0  0
  -26.0316  -31.6031   20.5885 H   0  0  0  0  0  0
  -26.8156  -30.8977   21.9753 H   0  0  0  0  0  0
  -28.1129  -29.1386   21.1373 H   0  0  0  0  0  0
  -26.0954  -25.9562   19.0507 H   0  0  0  0  0  0
  -23.9859  -27.2629   19.0702 H   0  0  0  0  0  0
  -23.7174  -30.5831   19.4054 H   0  0  0  0  0  0
  -22.7353  -29.2289   19.8744 H   0  0  0  0  0  0
  -25.1292  -36.1968   25.0835 H   0  0  0  0  0  0
  -20.9945  -28.3237   24.1441 H   0  0  0  0  0  0
  -20.5656  -26.2270   23.3619 H   0  0  0  0  0  0
  -21.6628  -26.7441   22.1220 H   0  0  0  0  0  0
  -19.6889  -25.6292   21.1247 H   0  0  0  0  0  0
  -19.6673  -27.3200   20.6764 H   0  0  0  0  0  0
  -17.4177  -26.6687   21.4025 H   0  0  0  0  0  0
  -18.0305  -26.0066   22.9014 H   0  0  0  0  0  0
  -19.7929  -30.7263   24.2279 H   0  0  0  0  0  0
  -17.5014  -31.6265   24.5189 H   0  0  0  0  0  0
  -15.5349  -30.3010   23.7646 H   0  0  0  0  0  0
  -15.8657  -28.0851   22.7044 H   0  0  0  0  0  0
  -24.5902  -30.7043   25.7795 H   0  0  0  0  0  0
  -24.8930  -32.2850   26.4912 H   0  0  0  0  0  0
  -25.8086  -30.8849   27.0210 H   0  0  0  0  0  0
  -26.2849  -29.6769   24.1141 H   0  0  0  0  0  0
  -27.4124  -29.7270   25.4498 H   0  0  0  0  0  0
  -27.8658  -30.4357   23.9179 H   0  0  0  0  0  0
  -27.2701  -33.3591   26.2080 H   0  0  0  0  0  0
  -28.3857  -32.6874   25.0280 H   0  0  0  0  0  0
  -28.0746  -31.8389   26.5337 H   0  0  0  0  0  0
  -28.2621  -38.0098   24.7528 H   0  0  0  0  0  0
  -28.1079  -36.2631   24.6293 H   0  0  0  0  0  0
  -27.2302  -37.1461   25.8870 H   0  0  0  0  0  0
  -20.9295  -29.8754   21.6955 H   0  0  0  0  0  0
  -26.0179  -38.2867   24.1422 H   0  0  0  0  0  0
  -30.2766  -20.5280   20.8540 H   0  0  0  0  0  0
  -26.5993  -22.5165   21.5380 H   0  0  0  0  0  0
  -30.2525  -17.7321   16.5073 H   0  0  0  0  0  0
  -31.0425  -19.2401   16.0970 H   0  0  0  0  0  0
  -32.5771  -19.0118   18.0469 H   0  0  0  0  0  0
  -32.6917  -17.6134   16.9997 H   0  0  0  0  0  0
  -28.9437  -19.6528   17.3443 H   0  0  0  0  0  0
  -30.3352  -20.2735   18.1868 H   0  0  0  0  0  0
  -32.5302  -16.9018   19.3431 H   0  0  0  0  0  0
  -31.1461  -16.3496   18.4175 H   0  0  0  0  0  0
  -28.8509  -17.6986   18.8068 H   0  0  0  0  0  0
  -31.2567  -18.7251   20.2760 H   0  0  0  0  0  0
  -26.8134  -17.5010   19.3905 H   0  0  0  0  0  0
  -26.7637  -18.5378   17.9585 H   0  0  0  0  0  0
  -25.4055  -18.4091   19.0485 H   0  0  0  0  0  0
  -31.3319  -24.4495   19.0782 H   0  0  0  0  0  0
  -31.3021  -25.8423   20.1536 H   0  0  0  0  0  0
  -30.3273  -25.8273   18.6864 H   0  0  0  0  0  0
  -24.4546  -22.3929   21.7188 H   0  0  0  0  0  0
  -23.2949  -22.4454   20.4228 H   0  0  0  0  0  0
  -24.8826  -23.1327   20.1715 H   0  0  0  0  0  0
  -24.1982  -19.9952   21.9652 H   0  0  0  0  0  0
  -24.2432  -18.8489   20.6642 H   0  0  0  0  0  0
  -22.9574  -20.0290   20.7272 H   0  0  0  0  0  0
  -25.0477  -21.7801   18.1099 H   0  0  0  0  0  0
  -23.4413  -21.1742   18.4532 H   0  0  0  0  0  0
  -24.7159  -20.0750   18.0391 H   0  0  0  0  0  0
  -29.7219  -22.1780   22.9165 H   0  0  0  0  0  0
  -28.4222  -23.2905   22.6431 H   0  0  0  0  0  0
  -29.6319  -17.4281   21.7267 H   0  0  0  0  0  0
  -31.2768  -16.8885   21.6916 H   0  0  0  0  0  0
  -30.8562  -22.9483   20.8357 H   0  0  0  0  0  0
  -30.7097  -24.1696   22.0567 H   0  0  0  0  0  0
  -29.0769  -26.0747   21.8340 H   0  0  0  0  0  0
  -27.6595  -25.2277   21.2393 H   0  0  0  0  0  0
  -28.9208  -24.0089   19.5952 H   0  0  0  0  0  0
  -28.9499  -15.3794   20.9595 H   0  0  0  0  0  0
  1 25  1  0  0  0
  1 30  2  0  0  0
  1 94  1  0  0  0
  2  3  1  0  0  0
  2 25  1  0  0  0
  2 95  1  0  0  0
  2 96  1  0  0  0
  3  4  1  0  0  0
  3 97  1  0  0  0
  3 98  1  0  0  0
  4  5  1  0  0  0
  4 99  1  0  0  0
  4100  1  0  0  0
  5  6  1  0  0  0
  5 26  1  0  0  0
  5101  1  0  0  0
  6 25  1  0  0  0
  6102  1  0  0  0
  6103  1  0  0  0
  7  8  2  0  0  0
  7 26  1  0  0  0
  7 29  1  0  0  0
  8  9  1  0  0  0
  8 22  1  0  0  0
  9 10  1  0  0  0
  9 27  2  0  0  0
 10 11  2  0  0  0
 10 15  1  0  0  0
 11 12  1  0  0  0
 11104  1  0  0  0
 12 13  2  0  0  0
 12105  1  0  0  0
 13 14  1  0  0  0
 13 31  1  0  0  0
 14 15  2  0  0  0
 14106  1  0  0  0
 15107  1  0  0  0
 16 17  2  0  0  0
 16 21  1  0  0  0
 16 31  1  0  0  0
 17 18  1  0  0  0
 17108  1  0  0  0
 18 19  2  0  0  0
 18109  1  0  0  0
 19 20  1  0  0  0
 19 24  1  0  0  0
 20 21  2  0  0  0
 20110  1  0  0  0
 21 23  1  0  0  0
 22 28  1  0  0  0
 22 32  2  0  0  0
 26 27  1  0  0  0
 28111  1  0  0  0
 28112  1  0  0  0
 29113  1  0  0  0
 29114  1  0  0  0
 33 34  1  0  0  0
 33 66  1  0  0  0
 33 70  2  0  0  0
 34 36  1  0  0  0
 34 59  1  0  0  0
 34115  1  0  0  0
 35 44  2  0  0  0
 35 45  1  0  0  0
 35 68  1  0  0  0
 36 56  1  0  0  0
 36116  1  0  0  0
 37 39  1  0  0  0
 37 47  1  0  0  0
 37 66  1  0  0  0
 37117  1  0  0  0
 38 43  2  0  0  0
 38 46  1  0  0  0
 38 47  1  0  0  0
 39 64  1  0  0  0
 39 67  2  0  0  0
 40 52  1  0  0  0
 40 53  2  0  0  0
 40 58  1  0  0  0
 41118  1  0  0  0
 41119  1  0  0  0
 41120  1  0  0  0
 41 48  1  0  0  0
 42 43  1  0  0  0
 42 66  1  0  0  0
 42121  1  0  0  0
 42122  1  0  0  0
 43 44  1  0  0  0
 44123  1  0  0  0
 45 46  2  0  0  0
 45124  1  0  0  0
 46125  1  0  0  0
 47126  1  0  0  0
 47127  1  0  0  0
 48 56  1  0  0  0
 48 65  1  0  0  0
 48128  1  0  0  0
 49 50  1  0  0  0
 49 53  1  0  0  0
 49 64  1  0  0  0
 49129  1  0  0  0
 50 51  1  0  0  0
 50130  1  0  0  0
 50131  1  0  0  0
 51 52  1  0  0  0
 51132  1  0  0  0
 51133  1  0  0  0
 52134  1  0  0  0
 52135  1  0  0  0
 53 54  1  0  0  0
 54 55  2  0  0  0
 54136  1  0  0  0
 55 57  1  0  0  0
 55137  1  0  0  0
 56 69  2  0  0  0
 57 58  2  0  0  0
 57138  1  0  0  0
 58139  1  0  0  0
 59 60  1  0  0  0
 59 61  1  0  0  0
 59 62  1  0  0  0
 60140  1  0  0  0
 60141  1  0  0  0
 60142  1  0  0  0
 61143  1  0  0  0
 61144  1  0  0  0
 61145  1  0  0  0
 62146  1  0  0  0
 62147  1  0  0  0
 62148  1  0  0  0
 63 65  1  0  0  0
 63149  1  0  0  0
 63150  1  0  0  0
 63151  1  0  0  0
 64152  1  0  0  0
 65153  1  0  0  0
 68 91  1  0  0  0
 71 73  2  0  0  0
 71 74  1  0  0  0
 71154  1  0  0  0
 72 74  2  0  0  0
 72 75  1  0  0  0
 72155  1  0  0  0
 73 76  1  0  0  0
 73 81  1  0  0  0
 74 88  1  0  0  0
 75 76  2  0  0  0
 75 93  1  0  0  0
 76 83  1  0  0  0
 77 78  1  0  0  0
 77 79  1  0  0  0
 77156  1  0  0  0
 77157  1  0  0  0
 78 80  1  0  0  0
 78158  1  0  0  0
 78159  1  0  0  0
 79 81  1  0  0  0
 79160  1  0  0  0
 79161  1  0  0  0
 80 82  1  0  0  0
 80162  1  0  0  0
 80163  1  0  0  0
 81 82  1  0  0  0
 81164  1  0  0  0
 82 89  1  0  0  0
 82165  1  0  0  0
 83166  1  0  0  0
 83167  1  0  0  0
 83168  1  0  0  0
 84169  1  0  0  0
 84170  1  0  0  0
 84171  1  0  0  0
 84 92  1  0  0  0
 85172  1  0  0  0
 85173  1  0  0  0
 85174  1  0  0  0
 85 93  1  0  0  0
 86 93  1  0  0  0
 86175  1  0  0  0
 86176  1  0  0  0
 86177  1  0  0  0
 87 93  1  0  0  0
 87178  1  0  0  0
 87179  1  0  0  0
 87180  1  0  0  0
 88 90  1  0  0  0
 88181  1  0  0  0
 88182  1  0  0  0
 89 94  1  0  0  0
 89183  1  0  0  0
 89184  1  0  0  0
 90 92  1  0  0  0
 90185  1  0  0  0
 90186  1  0  0  0
 91 92  1  0  0  0
 91187  1  0  0  0
 91188  1  0  0  0
 92189  1  0  0  0
 94190  1  0  0  0
M  ISO  4   1 100  68 101  91 101  94 100
M  END
> <chiral flag>
0

> <version>
0

> <s_m_source_file>
/data/baiqing/PycharmProjects/Reinvent-master-3.2/result/LINK_invent/BTK/process_docking_weight1_custom_sum_contain_oxygen_bond_distance_aromatic_linkinvent_7_9_3/rearranged_h_0089.sdf

> <i_m_source_file_index>
48

> <r_mmod_Potential_Energy-OPLS-2005>
55.383129119873

> <r_mmod_Stretch_Energy-OPLS-2005>
52.2949333190918

> <r_mmod_Bend_Energy-OPLS-2005>
142.846008300781

> <r_mmod_Torsional_Energy-OPLS-2005>
281.265533447266

> <r_mmod_Improper_Torsional_Energy-OPLS-2005>
5.65047836303711

> <r_mmod_Van_der_Waal_Energy-OPLS-2005>
164.701354980469

> <r_mmod_Electrostatic_Energy-OPLS-2005>
-427.736328125

> <r_mmod_Solvation_Energy-OPLS-2005>
-181.158309936523

> <b_mmod_Minimization_Converged-OPLS-2005>
0

> <r_mmod_RMS_Derivative-OPLS-2005>
2.06868577003479

$$$$
49
                    3D
 Structure written by MMmdl.
178186  0  0  1  0            999 V2000
  -30.6252  -14.7113   20.4648 C   0  0  0  0  0  0
  -30.4250  -12.4361   19.4560 C   0  0  0  0  0  0
  -29.5000  -12.4992   18.2209 C   0  0  0  0  0  0
  -28.0278  -12.3265   18.6399 C   0  0  0  0  0  0
  -27.6389  -13.2280   19.8423 C   0  0  2  0  0  0
  -28.6844  -13.1571   20.9759 C   0  0  0  0  0  0
  -25.2507  -13.8185   20.5673 C   0  0  0  0  0  0
  -24.1795  -13.0433   20.9198 C   0  0  0  0  0  0
  -24.6395  -11.6913   20.8742 C   0  0  0  0  0  0
  -23.9085  -10.4278   21.0396 C   0  0  0  0  0  0
  -24.3649   -9.4204   21.9179 C   0  0  0  0  0  0
  -23.6322   -8.2237   22.0755 C   0  0  0  0  0  0
  -22.4298   -8.0275   21.3542 C   0  0  0  0  0  0
  -21.9932   -9.0245   20.4645 C   0  0  0  0  0  0
  -22.7253  -10.2127   20.3046 C   0  0  0  0  0  0
  -21.6858   -6.0747   22.5286 C   0  0  0  0  0  0
  -21.4009   -6.5652   23.8217 C   0  0  0  0  0  0
  -21.3657   -5.6802   24.9183 C   0  0  0  0  0  0
  -21.6044   -4.3064   24.7229 C   0  0  0  0  0  0
  -21.8820   -3.8159   23.4352 C   0  0  0  0  0  0
  -21.9194   -4.6977   22.3408 C   0  0  0  0  0  0
  -22.7813  -13.5208   21.1855 C   0  0  0  0  0  0
  -22.1659   -4.2170   21.0985 F   0  0  0  0  0  0
  -21.5641   -3.4542   25.7741 F   0  0  0  0  0  0
  -29.9869  -13.4956   20.3923 N   0  0  0  0  0  0
  -26.2929  -12.9389   20.3257 N   0  0  0  0  0  0
  -25.9314  -11.6533   20.5718 N   0  0  0  0  0  0
  -22.0476  -12.8168   22.0409 N   0  0  0  0  0  0
  -25.4175  -15.1903   20.4085 N   0  0  0  0  0  0
  -31.8173  -14.7981   20.1585 O   0  0  0  0  0  0
  -21.6646   -6.8883   21.4244 O   0  0  0  0  0  0
  -22.3486  -14.5516   20.6702 O   0  0  0  0  0  0
  -24.6318  -31.8571   23.1997 C   0  0  0  0  0  0
  -25.9142  -32.4766   23.8354 C   0  0  1  0  0  0
  -27.2156  -27.2788   20.1180 C   0  0  0  0  0  0
  -25.5946  -33.8568   24.2269 N   0  0  0  0  0  0
  -23.4295  -30.4791   21.5441 C   0  0  2  0  0  0
  -24.8741  -28.9296   20.1152 C   0  0  0  0  0  0
  -22.7503  -29.4594   22.4917 C   0  0  0  0  0  0
  -18.0292  -28.1378   22.8478 C   0  0  0  0  0  0
  -24.1500  -36.7272   23.2650 C   0  0  0  0  0  0
  -25.9756  -30.7757   21.3778 C   0  0  0  0  0  0
  -26.0491  -29.3998   20.7176 C   0  0  0  0  0  0
  -27.2285  -28.5888   20.7033 C   0  0  0  0  0  0
  -26.0176  -26.8712   19.5002 C   0  0  0  0  0  0
  -24.8615  -27.6711   19.4976 C   0  0  0  0  0  0
  -23.6479  -29.8176   20.1594 C   0  0  0  0  0  0
  -25.4123  -36.3063   24.0333 C   0  0  1  0  0  0
  -20.5897  -28.3688   23.1265 C   0  0  2  0  0  0
  -20.6771  -26.9403   22.5400 C   0  0  0  0  0  0
  -19.5751  -26.6378   21.5190 C   0  0  0  0  0  0
  -18.1929  -26.7920   22.1606 C   0  0  0  0  0  0
  -19.1544  -28.8843   23.2875 C   0  0  0  0  0  0
  -18.9476  -30.1441   23.8897 C   0  0  0  0  0  0
  -17.6474  -30.6590   24.0545 C   0  0  0  0  0  0
  -25.9067  -34.9441   23.5094 C   0  0  0  0  0  0
  -16.5359  -29.9085   23.6330 C   0  0  0  0  0  0
  -16.7276  -28.6496   23.0362 C   0  0  0  0  0  0
  -26.4513  -31.6597   25.0744 C   0  0  0  0  0  0
  -25.3740  -31.3738   26.1468 C   0  0  0  0  0  0
  -27.0373  -30.3019   24.6225 C   0  0  0  0  0  0
  -27.6068  -32.4342   25.7510 C   0  0  0  0  0  0
  -27.5575  -37.1789   24.8466 C   0  0  0  0  0  0
  -21.4205  -29.3047   22.3651 N   0  0  0  0  0  0
  -26.4283  -37.3766   23.9422 N   0  0  0  0  0  0
  -24.6982  -31.0550   22.0964 N   0  0  0  0  0  0
  -23.4196  -28.8121   23.3017 O   0  0  0  0  0  0
  -28.2989  -26.3775   20.1151 O   0  0  0  0  0  0
  -26.5627  -34.8903   22.4660 O   0  0  0  0  0  0
  -23.5463  -32.1382   23.7283 O   0  0  0  0  0  0
  -30.5801  -23.4447   19.5883 C   0  0  0  0  0  0
  -29.4500  -22.7458   20.0839 C   0  0  0  0  0  0
  -31.6964  -22.6844   19.6926 C   0  0  0  0  0  0
  -29.9061  -21.4277   20.4004 C   0  0  0  0  0  0
  -33.9130  -18.5915   20.1455 C   0  0  0  0  0  0
  -33.4723  -24.4825   19.6885 C   0  0  0  0  0  0
  -33.2966  -22.8716   17.7706 C   0  0  0  0  0  0
  -27.0372  -22.7151   20.8540 C   0  0  0  0  0  0
  -27.6139  -23.6627   18.6339 C   0  0  0  0  0  0
  -29.2802  -20.0951   21.0005 C   0  0  0  0  0  0
  -32.9568  -19.6590   19.6003 C   0  0  0  0  0  0
  -29.4111  -18.5803   20.3672 C   0  0  0  0  0  0
  -32.2899  -20.4737   20.7300 C   0  0  0  0  0  0
  -30.3706  -17.2988   20.7164 C   0  0  0  0  0  0
  -28.1015  -25.0443   20.7768 C   0  0  0  0  0  0
  -33.1027  -23.0475   19.2852 C   0  0  0  0  0  0
  -28.0875  -23.5501   20.0977 C   0  0  0  0  0  0
  -31.3158  -21.4774   20.2691 N   0  0  0  0  0  0
  -29.8721  -15.8545   20.6766 N   0  0  0  0  0  0
  -31.4659  -12.5541   19.1520 H   0  0  0  0  0  0
  -30.3653  -11.4557   19.9303 H   0  0  0  0  0  0
  -29.7757  -11.7295   17.4977 H   0  0  0  0  0  0
  -29.6265  -13.4550   17.7102 H   0  0  0  0  0  0
  -27.8804  -11.2765   18.8983 H   0  0  0  0  0  0
  -27.3702  -12.5218   17.7922 H   0  0  0  0  0  0
  -27.6325  -14.2476   19.4571 H   0  0  0  0  0  0
  -28.7097  -12.1601   21.4174 H   0  0  0  0  0  0
  -28.4253  -13.8442   21.7824 H   0  0  0  0  0  0
  -25.2803   -9.5680   22.4754 H   0  0  0  0  0  0
  -24.0044   -7.4614   22.7457 H   0  0  0  0  0  0
  -21.0877   -8.8749   19.8927 H   0  0  0  0  0  0
  -22.3713  -10.9672   19.6155 H   0  0  0  0  0  0
  -21.1984   -7.6155   23.9725 H   0  0  0  0  0  0
  -21.1482   -6.0533   25.9089 H   0  0  0  0  0  0
  -22.0600   -2.7623   23.2843 H   0  0  0  0  0  0
  -22.4153  -11.9887   22.4848 H   0  0  0  0  0  0
  -21.1069  -13.1131   22.2591 H   0  0  0  0  0  0
  -24.6422  -15.8369   20.5114 H   0  0  0  0  0  0
  -26.2579  -15.6343   20.0623 H   0  0  0  0  0  0
  -26.7209  -32.5408   23.1103 H   0  0  0  0  0  0
  -25.0082  -33.9732   25.0398 H   0  0  0  0  0  0
  -22.7280  -31.3023   21.3975 H   0  0  0  0  0  0
  -23.3762  -35.9601   23.3281 H   0  0  0  0  0  0
  -24.3596  -36.8913   22.2069 H   0  0  0  0  0  0
  -23.7235  -37.6457   23.6688 H   0  0  0  0  0  0
  -26.1225  -31.5414   20.6146 H   0  0  0  0  0  0
  -26.8500  -30.8178   22.0160 H   0  0  0  0  0  0
  -28.1333  -28.9471   21.1741 H   0  0  0  0  0  0
  -25.9591  -25.9102   19.0194 H   0  0  0  0  0  0
  -23.9610  -27.3066   19.0241 H   0  0  0  0  0  0
  -23.7829  -30.5971   19.4086 H   0  0  0  0  0  0
  -22.7657  -29.2573   19.8443 H   0  0  0  0  0  0
  -25.1299  -36.1901   25.0821 H   0  0  0  0  0  0
  -20.9991  -28.3248   24.1387 H   0  0  0  0  0  0
  -20.5646  -26.2290   23.3600 H   0  0  0  0  0  0
  -21.6643  -26.7411   22.1205 H   0  0  0  0  0  0
  -19.6920  -25.6286   21.1226 H   0  0  0  0  0  0
  -19.6692  -27.3179   20.6710 H   0  0  0  0  0  0
  -17.4192  -26.6660   21.4015 H   0  0  0  0  0  0
  -18.0343  -26.0068   22.9011 H   0  0  0  0  0  0
  -19.7955  -30.7246   24.2278 H   0  0  0  0  0  0
  -17.5040  -31.6276   24.5131 H   0  0  0  0  0  0
  -15.5363  -30.2990   23.7670 H   0  0  0  0  0  0
  -15.8667  -28.0806   22.7110 H   0  0  0  0  0  0
  -24.5911  -30.7100   25.7780 H   0  0  0  0  0  0
  -24.8956  -32.2912   26.4912 H   0  0  0  0  0  0
  -25.8080  -30.8892   27.0226 H   0  0  0  0  0  0
  -26.2961  -29.6744   24.1266 H   0  0  0  0  0  0
  -27.4076  -29.7308   25.4748 H   0  0  0  0  0  0
  -27.8824  -30.4299   23.9458 H   0  0  0  0  0  0
  -27.2689  -33.3660   26.2057 H   0  0  0  0  0  0
  -28.3898  -32.6873   25.0350 H   0  0  0  0  0  0
  -28.0715  -31.8486   26.5452 H   0  0  0  0  0  0
  -28.2579  -38.0098   24.7523 H   0  0  0  0  0  0
  -28.1088  -36.2630   24.6280 H   0  0  0  0  0  0
  -27.2305  -37.1401   25.8872 H   0  0  0  0  0  0
  -20.9383  -29.8803   21.6876 H   0  0  0  0  0  0
  -26.0149  -38.2828   24.1442 H   0  0  0  0  0  0
  -30.5737  -24.4542   19.2018 H   0  0  0  0  0  0
  -34.3466  -18.0070   19.3339 H   0  0  0  0  0  0
  -33.4006  -17.9009   20.8157 H   0  0  0  0  0  0
  -34.7338  -19.0475   20.7003 H   0  0  0  0  0  0
  -33.3565  -24.6347   20.7621 H   0  0  0  0  0  0
  -32.8475  -25.2155   19.1789 H   0  0  0  0  0  0
  -34.5085  -24.7063   19.4327 H   0  0  0  0  0  0
  -33.0077  -21.8740   17.4398 H   0  0  0  0  0  0
  -34.3375  -23.0277   17.4842 H   0  0  0  0  0  0
  -32.6862  -23.5830   17.2136 H   0  0  0  0  0  0
  -26.8519  -21.7633   20.3586 H   0  0  0  0  0  0
  -26.0743  -23.2251   20.9009 H   0  0  0  0  0  0
  -27.3549  -22.5171   21.8788 H   0  0  0  0  0  0
  -27.6944  -22.7050   18.1171 H   0  0  0  0  0  0
  -28.2061  -24.3860   18.0725 H   0  0  0  0  0  0
  -26.5701  -23.9614   18.5645 H   0  0  0  0  0  0
  -28.2117  -20.2685   21.1067 H   0  0  0  0  0  0
  -29.6158  -20.0537   22.0401 H   0  0  0  0  0  0
  -32.2094  -19.1926   18.9600 H   0  0  0  0  0  0
  -33.5317  -20.3096   18.9471 H   0  0  0  0  0  0
  -28.9383  -18.2887   21.3068 H   0  0  0  0  0  0
  -30.3513  -19.0072   20.0768 H   0  0  0  0  0  0
  -33.0583  -20.9897   21.3057 H   0  0  0  0  0  0
  -31.8332  -19.8111   21.4625 H   0  0  0  0  0  0
  -30.8244  -17.4498   21.6992 H   0  0  0  0  0  0
  -31.2203  -17.2918   20.0276 H   0  0  0  0  0  0
  -28.8322  -25.0119   21.5854 H   0  0  0  0  0  0
  -27.1597  -25.1458   21.3182 H   0  0  0  0  0  0
  -33.8215  -22.4037   19.7891 H   0  0  0  0  0  0
  -28.8887  -15.7064   20.8459 H   0  0  0  0  0  0
  1 25  1  0  0  0
  1 30  2  0  0  0
  1 89  1  0  0  0
  2  3  1  0  0  0
  2 25  1  0  0  0
  2 90  1  0  0  0
  2 91  1  0  0  0
  3  4  1  0  0  0
  3 92  1  0  0  0
  3 93  1  0  0  0
  4  5  1  0  0  0
  4 94  1  0  0  0
  4 95  1  0  0  0
  5  6  1  0  0  0
  5 26  1  0  0  0
  5 96  1  0  0  0
  6 25  1  0  0  0
  6 97  1  0  0  0
  6 98  1  0  0  0
  7  8  2  0  0  0
  7 26  1  0  0  0
  7 29  1  0  0  0
  8  9  1  0  0  0
  8 22  1  0  0  0
  9 10  1  0  0  0
  9 27  2  0  0  0
 10 11  2  0  0  0
 10 15  1  0  0  0
 11 12  1  0  0  0
 11 99  1  0  0  0
 12 13  2  0  0  0
 12100  1  0  0  0
 13 14  1  0  0  0
 13 31  1  0  0  0
 14 15  2  0  0  0
 14101  1  0  0  0
 15102  1  0  0  0
 16 17  2  0  0  0
 16 21  1  0  0  0
 16 31  1  0  0  0
 17 18  1  0  0  0
 17103  1  0  0  0
 18 19  2  0  0  0
 18104  1  0  0  0
 19 20  1  0  0  0
 19 24  1  0  0  0
 20 21  2  0  0  0
 20105  1  0  0  0
 21 23  1  0  0  0
 22 28  1  0  0  0
 22 32  2  0  0  0
 26 27  1  0  0  0
 28106  1  0  0  0
 28107  1  0  0  0
 29108  1  0  0  0
 29109  1  0  0  0
 33 34  1  0  0  0
 33 66  1  0  0  0
 33 70  2  0  0  0
 34 36  1  0  0  0
 34 59  1  0  0  0
 34110  1  0  0  0
 35 44  2  0  0  0
 35 45  1  0  0  0
 35 68  1  0  0  0
 36 56  1  0  0  0
 36111  1  0  0  0
 37 39  1  0  0  0
 37 47  1  0  0  0
 37 66  1  0  0  0
 37112  1  0  0  0
 38 43  2  0  0  0
 38 46  1  0  0  0
 38 47  1  0  0  0
 39 64  1  0  0  0
 39 67  2  0  0  0
 40 52  1  0  0  0
 40 53  2  0  0  0
 40 58  1  0  0  0
 41113  1  0  0  0
 41114  1  0  0  0
 41115  1  0  0  0
 41 48  1  0  0  0
 42 43  1  0  0  0
 42 66  1  0  0  0
 42116  1  0  0  0
 42117  1  0  0  0
 43 44  1  0  0  0
 44118  1  0  0  0
 45 46  2  0  0  0
 45119  1  0  0  0
 46120  1  0  0  0
 47121  1  0  0  0
 47122  1  0  0  0
 48 56  1  0  0  0
 48 65  1  0  0  0
 48123  1  0  0  0
 49 50  1  0  0  0
 49 53  1  0  0  0
 49 64  1  0  0  0
 49124  1  0  0  0
 50 51  1  0  0  0
 50125  1  0  0  0
 50126  1  0  0  0
 51 52  1  0  0  0
 51127  1  0  0  0
 51128  1  0  0  0
 52129  1  0  0  0
 52130  1  0  0  0
 53 54  1  0  0  0
 54 55  2  0  0  0
 54131  1  0  0  0
 55 57  1  0  0  0
 55132  1  0  0  0
 56 69  2  0  0  0
 57 58  2  0  0  0
 57133  1  0  0  0
 58134  1  0  0  0
 59 60  1  0  0  0
 59 61  1  0  0  0
 59 62  1  0  0  0
 60135  1  0  0  0
 60136  1  0  0  0
 60137  1  0  0  0
 61138  1  0  0  0
 61139  1  0  0  0
 61140  1  0  0  0
 62141  1  0  0  0
 62142  1  0  0  0
 62143  1  0  0  0
 63 65  1  0  0  0
 63144  1  0  0  0
 63145  1  0  0  0
 63146  1  0  0  0
 64147  1  0  0  0
 65148  1  0  0  0
 68 85  1  0  0  0
 71 72  1  0  0  0
 71 73  2  0  0  0
 71149  1  0  0  0
 72 74  2  0  0  0
 72 87  1  0  0  0
 73 86  1  0  0  0
 73 88  1  0  0  0
 74 80  1  0  0  0
 74 88  1  0  0  0
 75 81  1  0  0  0
 75150  1  0  0  0
 75151  1  0  0  0
 75152  1  0  0  0
 76153  1  0  0  0
 76154  1  0  0  0
 76155  1  0  0  0
 76 86  1  0  0  0
 77 86  1  0  0  0
 77156  1  0  0  0
 77157  1  0  0  0
 77158  1  0  0  0
 78159  1  0  0  0
 78160  1  0  0  0
 78161  1  0  0  0
 78 87  1  0  0  0
 79 87  1  0  0  0
 79162  1  0  0  0
 79163  1  0  0  0
 79164  1  0  0  0
 80 82  1  0  0  0
 80165  1  0  0  0
 80166  1  0  0  0
 81 83  1  0  0  0
 81167  1  0  0  0
 81168  1  0  0  0
 82 84  1  0  0  0
 82169  1  0  0  0
 82170  1  0  0  0
 83 88  1  0  0  0
 83171  1  0  0  0
 83172  1  0  0  0
 84 89  1  0  0  0
 84173  1  0  0  0
 84174  1  0  0  0
 85 87  1  0  0  0
 85175  1  0  0  0
 85176  1  0  0  0
 86177  1  0  0  0
 89178  1  0  0  0
M  ISO  4   1 100  68 101  85 101  89 100
M  END
> <chiral flag>
0

> <version>
0

> <s_m_source_file>
/data/baiqing/PycharmProjects/Reinvent-master-3.2/result/LINK_invent/BTK/process_docking_weight1_custom_sum_contain_oxygen_bond_distance_aromatic_linkinvent_7_9_3/rearranged_h_0089.sdf

> <i_m_source_file_index>
49

> <r_mmod_Potential_Energy-OPLS-2005>
450.841125488281

> <r_mmod_Stretch_Energy-OPLS-2005>
144.122543334961

> <r_mmod_Bend_Energy-OPLS-2005>
435.886627197266

> <r_mmod_Torsional_Energy-OPLS-2005>
274.33251953125

> <r_mmod_Improper_Torsional_Energy-OPLS-2005>
5.28450727462769

> <r_mmod_Van_der_Waal_Energy-OPLS-2005>
134.062271118164

> <r_mmod_Electrostatic_Energy-OPLS-2005>
-418.804016113281

> <r_mmod_Solvation_Energy-OPLS-2005>
-198.608627319336

> <b_mmod_Minimization_Converged-OPLS-2005>
0

> <r_mmod_RMS_Derivative-OPLS-2005>
2.43912220001221

$$$$
50
                    3D
 Structure written by MMmdl.
169177  0  0  1  0            999 V2000
  -30.6540  -14.5339   20.4908 C   0  0  0  0  0  0
  -30.4213  -12.3234   19.4292 C   0  0  0  0  0  0
  -29.4852  -12.4766   18.2124 C   0  0  0  0  0  0
  -28.0098  -12.3312   18.6382 C   0  0  0  0  0  0
  -27.6461  -13.2128   19.8596 C   0  0  2  0  0  0
  -28.6872  -13.0466   20.9876 C   0  0  0  0  0  0
  -25.2509  -13.8269   20.5674 C   0  0  0  0  0  0
  -24.1775  -13.0460   20.9224 C   0  0  0  0  0  0
  -24.6388  -11.6949   20.8788 C   0  0  0  0  0  0
  -23.9102  -10.4287   21.0455 C   0  0  0  0  0  0
  -24.3666   -9.4184   21.9200 C   0  0  0  0  0  0
  -23.6315   -8.2237   22.0778 C   0  0  0  0  0  0
  -22.4287   -8.0293   21.3573 C   0  0  0  0  0  0
  -21.9934   -9.0281   20.4675 C   0  0  0  0  0  0
  -22.7309  -10.2132   20.3077 C   0  0  0  0  0  0
  -21.6846   -6.0751   22.5274 C   0  0  0  0  0  0
  -21.4028   -6.5668   23.8208 C   0  0  0  0  0  0
  -21.3644   -5.6819   24.9173 C   0  0  0  0  0  0
  -21.6045   -4.3074   24.7219 C   0  0  0  0  0  0
  -21.8825   -3.8165   23.4336 C   0  0  0  0  0  0
  -21.9194   -4.6985   22.3396 C   0  0  0  0  0  0
  -22.7804  -13.5234   21.1873 C   0  0  0  0  0  0
  -22.1659   -4.2190   21.0962 F   0  0  0  0  0  0
  -21.5609   -3.4531   25.7716 F   0  0  0  0  0  0
  -30.0213  -13.3319   20.4217 N   0  0  0  0  0  0
  -26.2931  -12.9434   20.3315 N   0  0  0  0  0  0
  -25.9308  -11.6590   20.5812 N   0  0  0  0  0  0
  -22.0458  -12.8187   22.0442 N   0  0  0  0  0  0
  -25.4051  -15.1977   20.4017 N   0  0  0  0  0  0
  -31.7980  -14.7240   20.0778 O   0  0  0  0  0  0
  -21.6647   -6.8884   21.4236 O   0  0  0  0  0  0
  -22.3459  -14.5482   20.6649 O   0  0  0  0  0  0
  -24.6168  -31.8686   23.2047 C   0  0  0  0  0  0
  -25.9063  -32.4832   23.8358 C   0  0  1  0  0  0
  -27.2291  -27.4312   20.0957 C   0  0  0  0  0  0
  -25.5916  -33.8619   24.2340 N   0  0  0  0  0  0
  -23.4119  -30.4949   21.5336 C   0  0  2  0  0  0
  -24.8601  -28.9706   20.0973 C   0  0  0  0  0  0
  -22.7412  -29.4724   22.4816 C   0  0  0  0  0  0
  -18.0325  -28.1221   22.8462 C   0  0  0  0  0  0
  -24.1491  -36.7377   23.2605 C   0  0  0  0  0  0
  -25.9418  -30.8435   21.3585 C   0  0  0  0  0  0
  -26.0233  -29.4821   20.6930 C   0  0  0  0  0  0
  -27.2193  -28.7221   20.6759 C   0  0  0  0  0  0
  -26.0561  -26.9566   19.4663 C   0  0  0  0  0  0
  -24.8731  -27.7146   19.4660 C   0  0  0  0  0  0
  -23.6255  -29.8361   20.1471 C   0  0  0  0  0  0
  -25.4105  -36.3106   24.0294 C   0  0  1  0  0  0
  -20.5941  -28.3659   23.1036 C   0  0  2  0  0  0
  -20.6921  -26.9342   22.5247 C   0  0  0  0  0  0
  -19.5797  -26.6243   21.5188 C   0  0  0  0  0  0
  -18.2054  -26.7730   22.1765 C   0  0  0  0  0  0
  -19.1595  -28.8749   23.2746 C   0  0  0  0  0  0
  -18.9550  -30.1341   23.8699 C   0  0  0  0  0  0
  -17.6577  -30.6515   24.0303 C   0  0  0  0  0  0
  -25.9020  -34.9445   23.5087 C   0  0  0  0  0  0
  -16.5435  -29.9021   23.6108 C   0  0  0  0  0  0
  -16.7297  -28.6378   23.0266 C   0  0  0  0  0  0
  -26.4453  -31.6576   25.0666 C   0  0  0  0  0  0
  -25.3755  -31.3771   26.1451 C   0  0  0  0  0  0
  -27.0206  -30.2944   24.6077 C   0  0  0  0  0  0
  -27.6024  -32.4247   25.7473 C   0  0  0  0  0  0
  -27.5570  -37.1823   24.8416 C   0  0  0  0  0  0
  -21.4166  -29.3033   22.3392 N   0  0  0  0  0  0
  -26.4316  -37.3781   23.9315 N   0  0  0  0  0  0
  -24.6746  -31.0827   22.0936 N   0  0  0  0  0  0
  -23.4135  -28.8347   23.2967 O   0  0  0  0  0  0
  -28.3319  -26.6052   20.1831 O   0  0  0  0  0  0
  -26.5589  -34.8907   22.4668 O   0  0  0  0  0  0
  -23.5336  -32.1346   23.7427 O   0  0  0  0  0  0
  -28.4686  -19.4308   23.7242 C   0  0  0  0  0  0
  -28.7110  -19.9292   21.5729 C   0  0  0  0  0  0
  -28.9187  -18.9088   22.4765 C   0  0  0  0  0  0
  -27.9177  -20.6697   23.5485 C   0  0  0  0  0  0
  -30.1977  -16.9401   23.4920 C   0  0  0  0  0  0
  -27.9043  -22.7030   25.0851 C   0  0  0  0  0  0
  -26.6668  -20.6500   25.7700 C   0  0  0  0  0  0
  -28.3189  -22.8273   20.3505 C   0  0  0  0  0  0
  -29.0084  -24.2131   20.5685 C   0  0  0  0  0  0
  -27.5382  -22.2134   21.5482 C   0  0  0  0  0  0
  -30.0121  -17.0026   20.9553 C   0  0  0  0  0  0
  -28.0358  -25.3746   20.8814 C   0  0  0  0  0  0
  -29.3646  -17.4489   22.2966 C   0  0  1  0  0  0
  -27.1413  -21.4890   24.5589 C   0  0  0  0  0  0
  -28.1025  -21.0176   22.2105 N   0  0  0  0  0  0
  -29.8454  -15.5392   20.8652 N   0  0  0  0  0  0
  -31.4577  -12.4361   19.1105 H   0  0  0  0  0  0
  -30.3418  -11.3201   19.8508 H   0  0  0  0  0  0
  -29.7185  -11.7169   17.4660 H   0  0  0  0  0  0
  -29.6429  -13.4388   17.7207 H   0  0  0  0  0  0
  -27.8356  -11.2773   18.8791 H   0  0  0  0  0  0
  -27.3483  -12.5577   17.8020 H   0  0  0  0  0  0
  -27.6742  -14.2493   19.5250 H   0  0  0  0  0  0
  -28.6662  -12.0396   21.3951 H   0  0  0  0  0  0
  -28.4293  -13.6961   21.8296 H   0  0  0  0  0  0
  -25.2835   -9.5633   22.4729 H   0  0  0  0  0  0
  -24.0044   -7.4623   22.7459 H   0  0  0  0  0  0
  -21.0899   -8.8855   19.8928 H   0  0  0  0  0  0
  -22.3872  -10.9687   19.6154 H   0  0  0  0  0  0
  -21.2041   -7.6175   23.9741 H   0  0  0  0  0  0
  -21.1448   -6.0523   25.9082 H   0  0  0  0  0  0
  -22.0610   -2.7626   23.2829 H   0  0  0  0  0  0
  -22.4172  -11.9949   22.4907 H   0  0  0  0  0  0
  -21.1022  -13.1077   22.2548 H   0  0  0  0  0  0
  -24.6166  -15.8265   20.5094 H   0  0  0  0  0  0
  -26.2393  -15.6634   20.0635 H   0  0  0  0  0  0
  -26.7160  -32.5497   23.1154 H   0  0  0  0  0  0
  -25.0060  -33.9712   25.0464 H   0  0  0  0  0  0
  -22.7075  -31.3170   21.3814 H   0  0  0  0  0  0
  -23.3720  -35.9758   23.3289 H   0  0  0  0  0  0
  -24.3558  -36.9014   22.2014 H   0  0  0  0  0  0
  -23.7316  -37.6602   23.6657 H   0  0  0  0  0  0
  -26.0524  -31.6252   20.6071 H   0  0  0  0  0  0
  -26.8275  -30.8840   21.9798 H   0  0  0  0  0  0
  -28.1132  -29.1002   21.1451 H   0  0  0  0  0  0
  -26.0397  -25.9802   18.9949 H   0  0  0  0  0  0
  -23.9793  -27.3205   18.9980 H   0  0  0  0  0  0
  -23.7514  -30.6175   19.3988 H   0  0  0  0  0  0
  -22.7463  -29.2669   19.8419 H   0  0  0  0  0  0
  -25.1266  -36.1929   25.0796 H   0  0  0  0  0  0
  -21.0037  -28.3266   24.1110 H   0  0  0  0  0  0
  -20.5934  -26.2324   23.3503 H   0  0  0  0  0  0
  -21.6778  -26.7284   22.1012 H   0  0  0  0  0  0
  -19.6966  -25.6170   21.1176 H   0  0  0  0  0  0
  -19.6456  -27.3087   20.6727 H   0  0  0  0  0  0
  -17.4269  -26.6426   21.4234 H   0  0  0  0  0  0
  -18.0629  -25.9920   22.9277 H   0  0  0  0  0  0
  -19.8070  -30.7135   24.2002 H   0  0  0  0  0  0
  -17.5277  -31.6239   24.4883 H   0  0  0  0  0  0
  -15.5488  -30.2938   23.7381 H   0  0  0  0  0  0
  -15.8720  -28.0589   22.6990 H   0  0  0  0  0  0
  -24.6184  -30.6810   25.7890 H   0  0  0  0  0  0
  -24.8725  -32.2867   26.4719 H   0  0  0  0  0  0
  -25.8102  -30.9294   27.0377 H   0  0  0  0  0  0
  -26.2748  -29.6698   24.1154 H   0  0  0  0  0  0
  -27.3895  -29.7127   25.4538 H   0  0  0  0  0  0
  -27.8594  -30.4044   23.9199 H   0  0  0  0  0  0
  -27.2646  -33.3537   26.2108 H   0  0  0  0  0  0
  -28.3903  -32.6850   25.0395 H   0  0  0  0  0  0
  -28.0691  -31.8366   26.5403 H   0  0  0  0  0  0
  -28.2554  -38.0148   24.7423 H   0  0  0  0  0  0
  -28.1096  -36.2648   24.6308 H   0  0  0  0  0  0
  -27.2212  -37.1510   25.8804 H   0  0  0  0  0  0
  -20.9411  -29.8329   21.6191 H   0  0  0  0  0  0
  -26.0210  -38.2830   24.1435 H   0  0  0  0  0  0
  -28.4466  -18.9042   24.6625 H   0  0  0  0  0  0
  -28.8706  -19.9439   20.5028 H   0  0  0  0  0  0
  -31.1041  -17.5212   23.6382 H   0  0  0  0  0  0
  -30.4995  -15.8969   23.3713 H   0  0  0  0  0  0
  -29.6116  -16.9950   24.4098 H   0  0  0  0  0  0
  -28.1962  -23.3845   24.2896 H   0  0  0  0  0  0
  -28.8078  -22.4035   25.6200 H   0  0  0  0  0  0
  -27.2722  -23.2496   25.7862 H   0  0  0  0  0  0
  -26.0864  -19.7865   25.4381 H   0  0  0  0  0  0
  -26.0223  -21.2257   26.4374 H   0  0  0  0  0  0
  -27.5052  -20.2901   26.3723 H   0  0  0  0  0  0
  -27.5880  -22.9866   19.5555 H   0  0  0  0  0  0
  -29.0229  -22.1098   19.9297 H   0  0  0  0  0  0
  -29.5333  -24.4634   19.6481 H   0  0  0  0  0  0
  -29.7899  -24.1515   21.3370 H   0  0  0  0  0  0
  -26.5634  -21.8999   21.1717 H   0  0  0  0  0  0
  -27.3159  -22.9859   22.2819 H   0  0  0  0  0  0
  -31.0505  -17.3411   20.8566 H   0  0  0  0  0  0
  -29.4706  -17.4303   20.1050 H   0  0  0  0  0  0
  -28.0119  -25.5754   21.9542 H   0  0  0  0  0  0
  -27.0326  -25.0103   20.6636 H   0  0  0  0  0  0
  -28.4117  -16.9147   22.3314 H   0  0  0  0  0  0
  -26.2395  -21.8549   24.0601 H   0  0  0  0  0  0
  -28.9334  -15.2086   21.1347 H   0  0  0  0  0  0
  1 25  1  0  0  0
  1 30  2  0  0  0
  1 86  1  0  0  0
  2  3  1  0  0  0
  2 25  1  0  0  0
  2 87  1  0  0  0
  2 88  1  0  0  0
  3  4  1  0  0  0
  3 89  1  0  0  0
  3 90  1  0  0  0
  4  5  1  0  0  0
  4 91  1  0  0  0
  4 92  1  0  0  0
  5  6  1  0  0  0
  5 26  1  0  0  0
  5 93  1  0  0  0
  6 25  1  0  0  0
  6 94  1  0  0  0
  6 95  1  0  0  0
  7  8  2  0  0  0
  7 26  1  0  0  0
  7 29  1  0  0  0
  8  9  1  0  0  0
  8 22  1  0  0  0
  9 10  1  0  0  0
  9 27  2  0  0  0
 10 11  2  0  0  0
 10 15  1  0  0  0
 11 12  1  0  0  0
 11 96  1  0  0  0
 12 13  2  0  0  0
 12 97  1  0  0  0
 13 14  1  0  0  0
 13 31  1  0  0  0
 14 15  2  0  0  0
 14 98  1  0  0  0
 15 99  1  0  0  0
 16 17  2  0  0  0
 16 21  1  0  0  0
 16 31  1  0  0  0
 17 18  1  0  0  0
 17100  1  0  0  0
 18 19  2  0  0  0
 18101  1  0  0  0
 19 20  1  0  0  0
 19 24  1  0  0  0
 20 21  2  0  0  0
 20102  1  0  0  0
 21 23  1  0  0  0
 22 28  1  0  0  0
 22 32  2  0  0  0
 26 27  1  0  0  0
 28103  1  0  0  0
 28104  1  0  0  0
 29105  1  0  0  0
 29106  1  0  0  0
 33 34  1  0  0  0
 33 66  1  0  0  0
 33 70  2  0  0  0
 34 36  1  0  0  0
 34 59  1  0  0  0
 34107  1  0  0  0
 35 44  2  0  0  0
 35 45  1  0  0  0
 35 68  1  0  0  0
 36 56  1  0  0  0
 36108  1  0  0  0
 37 39  1  0  0  0
 37 47  1  0  0  0
 37 66  1  0  0  0
 37109  1  0  0  0
 38 43  2  0  0  0
 38 46  1  0  0  0
 38 47  1  0  0  0
 39 64  1  0  0  0
 39 67  2  0  0  0
 40 52  1  0  0  0
 40 53  2  0  0  0
 40 58  1  0  0  0
 41110  1  0  0  0
 41111  1  0  0  0
 41112  1  0  0  0
 41 48  1  0  0  0
 42 43  1  0  0  0
 42 66  1  0  0  0
 42113  1  0  0  0
 42114  1  0  0  0
 43 44  1  0  0  0
 44115  1  0  0  0
 45 46  2  0  0  0
 45116  1  0  0  0
 46117  1  0  0  0
 47118  1  0  0  0
 47119  1  0  0  0
 48 56  1  0  0  0
 48 65  1  0  0  0
 48120  1  0  0  0
 49 50  1  0  0  0
 49 53  1  0  0  0
 49 64  1  0  0  0
 49121  1  0  0  0
 50 51  1  0  0  0
 50122  1  0  0  0
 50123  1  0  0  0
 51 52  1  0  0  0
 51124  1  0  0  0
 51125  1  0  0  0
 52126  1  0  0  0
 52127  1  0  0  0
 53 54  1  0  0  0
 54 55  2  0  0  0
 54128  1  0  0  0
 55 57  1  0  0  0
 55129  1  0  0  0
 56 69  2  0  0  0
 57 58  2  0  0  0
 57130  1  0  0  0
 58131  1  0  0  0
 59 60  1  0  0  0
 59 61  1  0  0  0
 59 62  1  0  0  0
 60132  1  0  0  0
 60133  1  0  0  0
 60134  1  0  0  0
 61135  1  0  0  0
 61136  1  0  0  0
 61137  1  0  0  0
 62138  1  0  0  0
 62139  1  0  0  0
 62140  1  0  0  0
 63 65  1  0  0  0
 63141  1  0  0  0
 63142  1  0  0  0
 63143  1  0  0  0
 64144  1  0  0  0
 65145  1  0  0  0
 68 82  1  0  0  0
 71 73  1  0  0  0
 71 74  2  0  0  0
 71146  1  0  0  0
 72 73  2  0  0  0
 72 85  1  0  0  0
 72147  1  0  0  0
 73 83  1  0  0  0
 74 84  1  0  0  0
 74 85  1  0  0  0
 75148  1  0  0  0
 75149  1  0  0  0
 75150  1  0  0  0
 75 83  1  0  0  0
 76151  1  0  0  0
 76152  1  0  0  0
 76153  1  0  0  0
 76 84  1  0  0  0
 77 84  1  0  0  0
 77154  1  0  0  0
 77155  1  0  0  0
 77156  1  0  0  0
 78 79  1  0  0  0
 78 80  1  0  0  0
 78157  1  0  0  0
 78158  1  0  0  0
 79 82  1  0  0  0
 79159  1  0  0  0
 79160  1  0  0  0
 80 85  1  0  0  0
 80161  1  0  0  0
 80162  1  0  0  0
 81 83  1  0  0  0
 81 86  1  0  0  0
 81163  1  0  0  0
 81164  1  0  0  0
 82165  1  0  0  0
 82166  1  0  0  0
 83167  1  0  0  0
 84168  1  0  0  0
 86169  1  0  0  0
M  ISO  4   1 100  68 101  82 101  86 100
M  END
> <chiral flag>
0

> <version>
0

> <s_m_source_file>
/data/baiqing/PycharmProjects/Reinvent-master-3.2/result/LINK_invent/BTK/process_docking_weight1_custom_sum_contain_oxygen_bond_distance_aromatic_linkinvent_7_9_3/rearranged_h_0089.sdf

> <i_m_source_file_index>
50

> <r_mmod_Potential_Energy-OPLS-2005>
-27.7006778717041

> <r_mmod_Stretch_Energy-OPLS-2005>
42.8882637023926

> <r_mmod_Bend_Energy-OPLS-2005>
131.825958251953

> <r_mmod_Torsional_Energy-OPLS-2005>
269.966094970703

> <r_mmod_Improper_Torsional_Energy-OPLS-2005>
7.1583366394043

> <r_mmod_Van_der_Waal_Energy-OPLS-2005>
134.674301147461

> <r_mmod_Electrostatic_Energy-OPLS-2005>
-438.530731201172

> <r_mmod_Solvation_Energy-OPLS-2005>
-201.529693603516

> <b_mmod_Minimization_Converged-OPLS-2005>
0

> <r_mmod_RMS_Derivative-OPLS-2005>
11.3436899185181

$$$$
51
                    3D
 Structure written by MMmdl.
185193  0  0  1  0            999 V2000
  -30.6109  -14.5099   20.5917 C   0  0  0  0  0  0
  -30.4386  -12.3431   19.4069 C   0  0  0  0  0  0
  -29.4924  -12.5187   18.1993 C   0  0  0  0  0  0
  -28.0120  -12.3689   18.6118 C   0  0  0  0  0  0
  -27.6571  -13.1865   19.8805 C   0  0  2  0  0  0
  -28.6990  -12.9327   20.9920 C   0  0  0  0  0  0
  -25.2572  -13.8021   20.5671 C   0  0  0  0  0  0
  -24.1796  -13.0357   20.9223 C   0  0  0  0  0  0
  -24.6319  -11.6822   20.8764 C   0  0  0  0  0  0
  -23.8984  -10.4238   21.0416 C   0  0  0  0  0  0
  -24.3569   -9.4157   21.9186 C   0  0  0  0  0  0
  -23.6244   -8.2195   22.0735 C   0  0  0  0  0  0
  -22.4225   -8.0240   21.3514 C   0  0  0  0  0  0
  -21.9858   -9.0213   20.4628 C   0  0  0  0  0  0
  -22.7177  -10.2101   20.3023 C   0  0  0  0  0  0
  -21.6860   -6.0689   22.5252 C   0  0  0  0  0  0
  -21.4029   -6.5610   23.8187 C   0  0  0  0  0  0
  -21.3639   -5.6782   24.9158 C   0  0  0  0  0  0
  -21.6059   -4.3042   24.7230 C   0  0  0  0  0  0
  -21.8828   -3.8101   23.4357 C   0  0  0  0  0  0
  -21.9207   -4.6910   22.3400 C   0  0  0  0  0  0
  -22.7856  -13.5204   21.1925 C   0  0  0  0  0  0
  -22.1667   -4.2081   21.0980 F   0  0  0  0  0  0
  -21.5635   -3.4535   25.7752 F   0  0  0  0  0  0
  -30.0186  -13.2926   20.4473 N   0  0  0  0  0  0
  -26.2983  -12.9157   20.3396 N   0  0  0  0  0  0
  -25.9230  -11.6339   20.5773 N   0  0  0  0  0  0
  -22.0498  -12.8158   22.0480 N   0  0  0  0  0  0
  -25.4406  -15.1701   20.4037 N   0  0  0  0  0  0
  -31.7330  -14.7721   20.1525 O   0  0  0  0  0  0
  -21.6629   -6.8803   21.4188 O   0  0  0  0  0  0
  -22.3548  -14.5505   20.6784 O   0  0  0  0  0  0
  -24.6092  -31.8703   23.2140 C   0  0  0  0  0  0
  -25.8985  -32.4837   23.8413 C   0  0  1  0  0  0
  -27.2358  -27.4379   20.1140 C   0  0  0  0  0  0
  -25.5870  -33.8643   24.2355 N   0  0  0  0  0  0
  -23.3947  -30.4950   21.5533 C   0  0  2  0  0  0
  -24.8421  -28.9603   20.1215 C   0  0  0  0  0  0
  -22.7329  -29.4674   22.4986 C   0  0  0  0  0  0
  -18.0290  -28.1397   22.8309 C   0  0  0  0  0  0
  -24.1478  -36.7333   23.2645 C   0  0  0  0  0  0
  -25.9220  -30.8405   21.3639 C   0  0  0  0  0  0
  -26.0002  -29.4728   20.7153 C   0  0  0  0  0  0
  -27.1950  -28.7197   20.7085 C   0  0  0  0  0  0
  -26.0484  -26.9303   19.5292 C   0  0  0  0  0  0
  -24.8629  -27.6874   19.5284 C   0  0  0  0  0  0
  -23.6043  -29.8261   20.1670 C   0  0  0  0  0  0
  -25.4094  -36.3152   24.0350 C   0  0  1  0  0  0
  -20.5870  -28.3648   23.1385 C   0  0  2  0  0  0
  -20.6766  -26.9346   22.5565 C   0  0  0  0  0  0
  -19.5898  -26.6362   21.5157 C   0  0  0  0  0  0
  -18.1910  -26.8053   22.1175 C   0  0  0  0  0  0
  -19.1526  -28.8797   23.2897 C   0  0  0  0  0  0
  -18.9460  -30.1345   23.9023 C   0  0  0  0  0  0
  -17.6476  -30.6494   24.0690 C   0  0  0  0  0  0
  -25.9002  -34.9503   23.5145 C   0  0  0  0  0  0
  -16.5408  -29.9076   23.6286 C   0  0  0  0  0  0
  -16.7286  -28.6552   23.0153 C   0  0  0  0  0  0
  -26.4447  -31.6600   25.0709 C   0  0  0  0  0  0
  -25.3743  -31.3691   26.1471 C   0  0  0  0  0  0
  -27.0302  -30.3052   24.6079 C   0  0  0  0  0  0
  -27.6025  -32.4315   25.7487 C   0  0  0  0  0  0
  -27.5565  -37.1819   24.8461 C   0  0  0  0  0  0
  -21.4067  -29.3019   22.3712 N   0  0  0  0  0  0
  -26.4284  -37.3808   23.9402 N   0  0  0  0  0  0
  -24.6601  -31.0819   22.1032 N   0  0  0  0  0  0
  -23.4103  -28.8208   23.3030 O   0  0  0  0  0  0
  -28.4454  -26.7657   20.1217 O   0  0  0  0  0  0
  -26.5580  -34.8949   22.4705 O   0  0  0  0  0  0
  -23.5290  -32.1455   23.7533 O   0  0  0  0  0  0
  -27.3798  -21.0481   22.1193 C   0  0  0  0  0  0
  -27.6369  -19.6468   22.0539 C   0  0  0  0  0  0
  -27.7446  -21.8551   21.0008 C   0  0  0  0  0  0
  -28.3633  -19.1207   20.9487 C   0  0  0  0  0  0
  -28.4505  -21.2248   19.9426 C   0  0  0  0  0  0
  -25.1319  -21.7818   23.1455 C   0  0  0  0  0  0
  -27.6891  -21.9112   17.6052 C   0  0  0  0  0  0
  -23.4403  -18.4868   21.3197 C   0  0  0  0  0  0
  -29.5767  -24.4659   23.3682 C   0  0  0  0  0  0
  -26.6550  -21.6578   23.3292 C   0  0  0  0  0  0
  -27.0242  -18.6868   23.0833 C   0  0  0  0  0  0
  -27.2661  -23.3216   20.8843 C   0  0  0  0  0  0
  -28.8183  -21.9482   18.6506 C   0  0  0  0  0  0
  -28.5690  -17.6034   20.6969 C   0  0  0  0  0  0
  -24.9713  -18.5649   21.4225 C   0  0  0  0  0  0
  -29.5792  -24.1181   21.8728 C   0  0  0  0  0  0
  -25.5087  -18.3968   22.8686 C   0  0  0  0  0  0
  -29.8810  -16.9156   21.2034 C   0  0  0  0  0  0
  -28.5003  -25.3577   19.8617 C   0  0  0  0  0  0
  -28.2613  -24.4995   21.1380 C   0  0  1  0  0  0
  -28.7809  -19.9148   19.9435 N   0  0  0  0  0  0
  -29.7806  -15.4421   21.1102 N   0  0  0  0  0  0
  -31.4759  -12.5054   19.1091 H   0  0  0  0  0  0
  -30.3948  -11.3242   19.7895 H   0  0  0  0  0  0
  -29.7403  -11.7887   17.4289 H   0  0  0  0  0  0
  -29.6449  -13.4994   17.7443 H   0  0  0  0  0  0
  -27.8188  -11.3121   18.7931 H   0  0  0  0  0  0
  -27.3618  -12.6645   17.7878 H   0  0  0  0  0  0
  -27.7027  -14.2374   19.6000 H   0  0  0  0  0  0
  -28.6988  -11.8827   21.2824 H   0  0  0  0  0  0
  -28.4519  -13.4794   21.9026 H   0  0  0  0  0  0
  -25.2702   -9.5680   22.4762 H   0  0  0  0  0  0
  -23.9996   -7.4575   22.7421 H   0  0  0  0  0  0
  -21.0814   -8.8694   19.8907 H   0  0  0  0  0  0
  -22.3613  -10.9633   19.6131 H   0  0  0  0  0  0
  -21.2002   -7.6117   23.9676 H   0  0  0  0  0  0
  -21.1481   -6.0511   25.9080 H   0  0  0  0  0  0
  -22.0635   -2.7554   23.2879 H   0  0  0  0  0  0
  -22.4103  -11.9773   22.4786 H   0  0  0  0  0  0
  -21.1099  -13.1112   22.2711 H   0  0  0  0  0  0
  -24.6954  -15.8411   20.5354 H   0  0  0  0  0  0
  -26.3028  -15.5837   20.0813 H   0  0  0  0  0  0
  -26.7055  -32.5592   23.1191 H   0  0  0  0  0  0
  -25.0028  -33.9813   25.0512 H   0  0  0  0  0  0
  -22.6779  -31.3069   21.4155 H   0  0  0  0  0  0
  -23.3742  -35.9656   23.3336 H   0  0  0  0  0  0
  -24.3572  -36.8898   22.2048 H   0  0  0  0  0  0
  -23.7214  -37.6539   23.6634 H   0  0  0  0  0  0
  -26.0216  -31.6018   20.5931 H   0  0  0  0  0  0
  -26.8154  -30.9000   21.9753 H   0  0  0  0  0  0
  -28.0882  -29.1166   21.1736 H   0  0  0  0  0  0
  -25.9977  -25.9600   19.0658 H   0  0  0  0  0  0
  -23.9705  -27.2788   19.0775 H   0  0  0  0  0  0
  -23.7131  -30.6005   19.4052 H   0  0  0  0  0  0
  -22.7290  -29.2420   19.8765 H   0  0  0  0  0  0
  -25.1270  -36.2036   25.0838 H   0  0  0  0  0  0
  -20.9952  -28.3312   24.1534 H   0  0  0  0  0  0
  -20.5443  -26.2269   23.3746 H   0  0  0  0  0  0
  -21.6736  -26.7246   22.1663 H   0  0  0  0  0  0
  -19.7006  -25.6221   21.1297 H   0  0  0  0  0  0
  -19.7110  -27.3044   20.6635 H   0  0  0  0  0  0
  -17.4489  -26.7198   21.3219 H   0  0  0  0  0  0
  -17.9836  -25.9982   22.8236 H   0  0  0  0  0  0
  -19.7926  -30.7103   24.2546 H   0  0  0  0  0  0
  -17.5005  -31.6056   24.5504 H   0  0  0  0  0  0
  -15.5404  -30.2934   23.7710 H   0  0  0  0  0  0
  -15.8612  -28.1010   22.6753 H   0  0  0  0  0  0
  -24.5892  -30.7058   25.7815 H   0  0  0  0  0  0
  -24.8974  -32.2859   26.4959 H   0  0  0  0  0  0
  -25.8110  -30.8830   27.0210 H   0  0  0  0  0  0
  -26.2871  -29.6788   24.1130 H   0  0  0  0  0  0
  -27.4079  -29.7279   25.4535 H   0  0  0  0  0  0
  -27.8699  -30.4368   23.9244 H   0  0  0  0  0  0
  -27.2624  -33.3577   26.2130 H   0  0  0  0  0  0
  -28.3822  -32.6917   25.0315 H   0  0  0  0  0  0
  -28.0729  -31.8409   26.5358 H   0  0  0  0  0  0
  -28.2615  -38.0093   24.7509 H   0  0  0  0  0  0
  -28.1046  -36.2630   24.6323 H   0  0  0  0  0  0
  -27.2294  -37.1505   25.8867 H   0  0  0  0  0  0
  -20.9226  -29.8767   21.6958 H   0  0  0  0  0  0
  -26.0206  -38.2881   24.1418 H   0  0  0  0  0  0
  -24.7439  -21.0572   22.4365 H   0  0  0  0  0  0
  -24.8441  -22.7634   22.7771 H   0  0  0  0  0  0
  -24.6007  -21.6151   24.0818 H   0  0  0  0  0  0
  -27.4883  -20.8914   17.2737 H   0  0  0  0  0  0
  -27.9497  -22.4958   16.7221 H   0  0  0  0  0  0
  -26.7544  -22.3118   18.0001 H   0  0  0  0  0  0
  -23.1195  -18.6208   20.2859 H   0  0  0  0  0  0
  -22.9428  -19.2630   21.9030 H   0  0  0  0  0  0
  -23.0677  -17.5217   21.6635 H   0  0  0  0  0  0
  -30.4235  -24.0051   23.8760 H   0  0  0  0  0  0
  -28.6721  -24.1266   23.8692 H   0  0  0  0  0  0
  -29.6433  -25.5427   23.5173 H   0  0  0  0  0  0
  -27.0572  -22.6469   23.5400 H   0  0  0  0  0  0
  -26.8802  -21.1119   24.2434 H   0  0  0  0  0  0
  -27.1958  -19.0494   24.0943 H   0  0  0  0  0  0
  -27.5810  -17.7521   23.0951 H   0  0  0  0  0  0
  -26.4395  -23.4940   21.5652 H   0  0  0  0  0  0
  -26.7643  -23.4351   19.9256 H   0  0  0  0  0  0
  -29.7117  -21.4873   18.2240 H   0  0  0  0  0  0
  -29.0980  -22.9741   18.8601 H   0  0  0  0  0  0
  -28.5081  -17.4474   19.6192 H   0  0  0  0  0  0
  -27.7012  -17.0723   21.0813 H   0  0  0  0  0  0
  -25.2786  -19.5186   20.9953 H   0  0  0  0  0  0
  -25.4141  -17.8054   20.7800 H   0  0  0  0  0  0
  -29.8094  -23.0601   21.7592 H   0  0  0  0  0  0
  -30.4354  -24.6219   21.4253 H   0  0  0  0  0  0
  -24.9348  -19.0466   23.5329 H   0  0  0  0  0  0
  -25.2846  -17.3917   23.2226 H   0  0  0  0  0  0
  -30.0377  -17.1576   22.2557 H   0  0  0  0  0  0
  -30.7473  -17.2970   20.6607 H   0  0  0  0  0  0
  -27.8478  -25.0772   19.0386 H   0  0  0  0  0  0
  -29.4912  -25.1512   19.4597 H   0  0  0  0  0  0
  -27.7211  -25.1747   21.8022 H   0  0  0  0  0  0
  -28.8994  -15.0558   21.4094 H   0  0  0  0  0  0
  1 25  1  0  0  0
  1 30  2  0  0  0
  1 92  1  0  0  0
  2  3  1  0  0  0
  2 25  1  0  0  0
  2 93  1  0  0  0
  2 94  1  0  0  0
  3  4  1  0  0  0
  3 95  1  0  0  0
  3 96  1  0  0  0
  4  5  1  0  0  0
  4 97  1  0  0  0
  4 98  1  0  0  0
  5  6  1  0  0  0
  5 26  1  0  0  0
  5 99  1  0  0  0
  6 25  1  0  0  0
  6100  1  0  0  0
  6101  1  0  0  0
  7  8  2  0  0  0
  7 26  1  0  0  0
  7 29  1  0  0  0
  8  9  1  0  0  0
  8 22  1  0  0  0
  9 10  1  0  0  0
  9 27  2  0  0  0
 10 11  2  0  0  0
 10 15  1  0  0  0
 11 12  1  0  0  0
 11102  1  0  0  0
 12 13  2  0  0  0
 12103  1  0  0  0
 13 14  1  0  0  0
 13 31  1  0  0  0
 14 15  2  0  0  0
 14104  1  0  0  0
 15105  1  0  0  0
 16 17  2  0  0  0
 16 21  1  0  0  0
 16 31  1  0  0  0
 17 18  1  0  0  0
 17106  1  0  0  0
 18 19  2  0  0  0
 18107  1  0  0  0
 19 20  1  0  0  0
 19 24  1  0  0  0
 20 21  2  0  0  0
 20108  1  0  0  0
 21 23  1  0  0  0
 22 28  1  0  0  0
 22 32  2  0  0  0
 26 27  1  0  0  0
 28109  1  0  0  0
 28110  1  0  0  0
 29111  1  0  0  0
 29112  1  0  0  0
 33 34  1  0  0  0
 33 66  1  0  0  0
 33 70  2  0  0  0
 34 36  1  0  0  0
 34 59  1  0  0  0
 34113  1  0  0  0
 35 44  2  0  0  0
 35 45  1  0  0  0
 35 68  1  0  0  0
 36 56  1  0  0  0
 36114  1  0  0  0
 37 39  1  0  0  0
 37 47  1  0  0  0
 37 66  1  0  0  0
 37115  1  0  0  0
 38 43  2  0  0  0
 38 46  1  0  0  0
 38 47  1  0  0  0
 39 64  1  0  0  0
 39 67  2  0  0  0
 40 52  1  0  0  0
 40 53  2  0  0  0
 40 58  1  0  0  0
 41116  1  0  0  0
 41117  1  0  0  0
 41118  1  0  0  0
 41 48  1  0  0  0
 42 43  1  0  0  0
 42 66  1  0  0  0
 42119  1  0  0  0
 42120  1  0  0  0
 43 44  1  0  0  0
 44121  1  0  0  0
 45 46  2  0  0  0
 45122  1  0  0  0
 46123  1  0  0  0
 47124  1  0  0  0
 47125  1  0  0  0
 48 56  1  0  0  0
 48 65  1  0  0  0
 48126  1  0  0  0
 49 50  1  0  0  0
 49 53  1  0  0  0
 49 64  1  0  0  0
 49127  1  0  0  0
 50 51  1  0  0  0
 50128  1  0  0  0
 50129  1  0  0  0
 51 52  1  0  0  0
 51130  1  0  0  0
 51131  1  0  0  0
 52132  1  0  0  0
 52133  1  0  0  0
 53 54  1  0  0  0
 54 55  2  0  0  0
 54134  1  0  0  0
 55 57  1  0  0  0
 55135  1  0  0  0
 56 69  2  0  0  0
 57 58  2  0  0  0
 57136  1  0  0  0
 58137  1  0  0  0
 59 60  1  0  0  0
 59 61  1  0  0  0
 59 62  1  0  0  0
 60138  1  0  0  0
 60139  1  0  0  0
 60140  1  0  0  0
 61141  1  0  0  0
 61142  1  0  0  0
 61143  1  0  0  0
 62144  1  0  0  0
 62145  1  0  0  0
 62146  1  0  0  0
 63 65  1  0  0  0
 63147  1  0  0  0
 63148  1  0  0  0
 63149  1  0  0  0
 64150  1  0  0  0
 65151  1  0  0  0
 68 89  1  0  0  0
 71 72  2  0  0  0
 71 73  1  0  0  0
 71 80  1  0  0  0
 72 74  1  0  0  0
 72 81  1  0  0  0
 73 75  2  0  0  0
 73 82  1  0  0  0
 74 84  1  0  0  0
 74 91  2  0  0  0
 75 83  1  0  0  0
 75 91  1  0  0  0
 76 80  1  0  0  0
 76152  1  0  0  0
 76153  1  0  0  0
 76154  1  0  0  0
 77 83  1  0  0  0
 77155  1  0  0  0
 77156  1  0  0  0
 77157  1  0  0  0
 78 85  1  0  0  0
 78158  1  0  0  0
 78159  1  0  0  0
 78160  1  0  0  0
 79 86  1  0  0  0
 79161  1  0  0  0
 79162  1  0  0  0
 79163  1  0  0  0
 80164  1  0  0  0
 80165  1  0  0  0
 81 87  1  0  0  0
 81166  1  0  0  0
 81167  1  0  0  0
 82168  1  0  0  0
 82169  1  0  0  0
 82 90  1  0  0  0
 83170  1  0  0  0
 83171  1  0  0  0
 84 88  1  0  0  0
 84172  1  0  0  0
 84173  1  0  0  0
 85 87  1  0  0  0
 85174  1  0  0  0
 85175  1  0  0  0
 86 90  1  0  0  0
 86176  1  0  0  0
 86177  1  0  0  0
 87178  1  0  0  0
 87179  1  0  0  0
 88 92  1  0  0  0
 88180  1  0  0  0
 88181  1  0  0  0
 89 90  1  0  0  0
 89182  1  0  0  0
 89183  1  0  0  0
 90184  1  0  0  0
 92185  1  0  0  0
M  ISO  4   1 100  68 101  89 101  92 100
M  END
> <chiral flag>
0

> <version>
0

> <s_m_source_file>
/data/baiqing/PycharmProjects/Reinvent-master-3.2/result/LINK_invent/BTK/process_docking_weight1_custom_sum_contain_oxygen_bond_distance_aromatic_linkinvent_7_9_3/rearranged_h_0089.sdf

> <i_m_source_file_index>
51

> <r_mmod_Potential_Energy-OPLS-2005>
-126.174446105957

> <r_mmod_Stretch_Energy-OPLS-2005>
49.999683380127

> <r_mmod_Bend_Energy-OPLS-2005>
135.137237548828

> <r_mmod_Torsional_Energy-OPLS-2005>
233.787261962891

> <r_mmod_Improper_Torsional_Energy-OPLS-2005>
5.50148868560791

> <r_mmod_Van_der_Waal_Energy-OPLS-2005>
158.998764038086

> <r_mmod_Electrostatic_Energy-OPLS-2005>
-519.796569824219

> <r_mmod_Solvation_Energy-OPLS-2005>
-208.417999267578

> <b_mmod_Minimization_Converged-OPLS-2005>
0

> <r_mmod_RMS_Derivative-OPLS-2005>
6.51087093353271

$$$$
52
                    3D
 Structure written by MMmdl.
164172  0  0  1  0            999 V2000
  -30.6413  -14.7395   20.4658 C   0  0  0  0  0  0
  -30.4334  -12.4559   19.4626 C   0  0  0  0  0  0
  -29.5020  -12.4944   18.2318 C   0  0  0  0  0  0
  -28.0322  -12.3235   18.6568 C   0  0  0  0  0  0
  -27.6440  -13.2327   19.8517 C   0  0  2  0  0  0
  -28.6941  -13.1775   20.9829 C   0  0  0  0  0  0
  -25.2531  -13.8203   20.5714 C   0  0  0  0  0  0
  -24.1817  -13.0443   20.9217 C   0  0  0  0  0  0
  -24.6403  -11.6918   20.8760 C   0  0  0  0  0  0
  -23.9076  -10.4295   21.0418 C   0  0  0  0  0  0
  -24.3621   -9.4205   21.9200 C   0  0  0  0  0  0
  -23.6291   -8.2240   22.0762 C   0  0  0  0  0  0
  -22.4279   -8.0277   21.3542 C   0  0  0  0  0  0
  -21.9917   -9.0259   20.4651 C   0  0  0  0  0  0
  -22.7252  -10.2137   20.3064 C   0  0  0  0  0  0
  -21.6859   -6.0725   22.5274 C   0  0  0  0  0  0
  -21.4016   -6.5631   23.8202 C   0  0  0  0  0  0
  -21.3660   -5.6787   24.9171 C   0  0  0  0  0  0
  -21.6050   -4.3053   24.7230 C   0  0  0  0  0  0
  -21.8821   -3.8141   23.4351 C   0  0  0  0  0  0
  -21.9196   -4.6950   22.3408 C   0  0  0  0  0  0
  -22.7837  -13.5224   21.1875 C   0  0  0  0  0  0
  -22.1665   -4.2131   21.0988 F   0  0  0  0  0  0
  -21.5634   -3.4544   25.7749 F   0  0  0  0  0  0
  -29.9919  -13.5257   20.3893 N   0  0  0  0  0  0
  -26.2966  -12.9411   20.3326 N   0  0  0  0  0  0
  -25.9345  -11.6552   20.5803 N   0  0  0  0  0  0
  -22.0498  -12.8194   22.0417 N   0  0  0  0  0  0
  -25.4213  -15.1925   20.4120 N   0  0  0  0  0  0
  -31.8325  -14.8147   20.1581 O   0  0  0  0  0  0
  -21.6645   -6.8868   21.4231 O   0  0  0  0  0  0
  -22.3520  -14.5542   20.6743 O   0  0  0  0  0  0
  -24.6299  -31.8537   23.2031 C   0  0  0  0  0  0
  -25.9148  -32.4731   23.8349 C   0  0  1  0  0  0
  -27.2195  -27.2796   20.1057 C   0  0  0  0  0  0
  -25.5953  -33.8543   24.2261 N   0  0  0  0  0  0
  -23.4242  -30.4813   21.5447 C   0  0  2  0  0  0
  -24.8704  -28.9367   20.1051 C   0  0  0  0  0  0
  -22.7489  -29.4593   22.4907 C   0  0  0  0  0  0
  -18.0275  -28.1357   22.8431 C   0  0  0  0  0  0
  -24.1487  -36.7282   23.2639 C   0  0  0  0  0  0
  -25.9707  -30.7738   21.3796 C   0  0  0  0  0  0
  -26.0432  -29.4025   20.7119 C   0  0  0  0  0  0
  -27.2221  -28.5882   20.6982 C   0  0  0  0  0  0
  -26.0201  -26.8831   19.4707 C   0  0  0  0  0  0
  -24.8642  -27.6853   19.4738 C   0  0  0  0  0  0
  -23.6398  -29.8203   20.1586 C   0  0  0  0  0  0
  -25.4115  -36.3050   24.0317 C   0  0  1  0  0  0
  -20.5887  -28.3669   23.1242 C   0  0  2  0  0  0
  -20.6767  -26.9378   22.5391 C   0  0  0  0  0  0
  -19.5757  -26.6343   21.5172 C   0  0  0  0  0  0
  -18.1929  -26.7889   22.1573 C   0  0  0  0  0  0
  -19.1541  -28.8829   23.2822 C   0  0  0  0  0  0
  -18.9466  -30.1421   23.8848 C   0  0  0  0  0  0
  -17.6479  -30.6560   24.0533 C   0  0  0  0  0  0
  -25.9068  -34.9421   23.5094 C   0  0  0  0  0  0
  -16.5362  -29.9045   23.6335 C   0  0  0  0  0  0
  -16.7269  -28.6475   23.0325 C   0  0  0  0  0  0
  -26.4526  -31.6565   25.0746 C   0  0  0  0  0  0
  -25.3737  -31.3698   26.1450 C   0  0  0  0  0  0
  -27.0400  -30.2988   24.6267 C   0  0  0  0  0  0
  -27.6090  -32.4322   25.7509 C   0  0  0  0  0  0
  -27.5571  -37.1776   24.8456 C   0  0  0  0  0  0
  -21.4207  -29.3032   22.3654 N   0  0  0  0  0  0
  -26.4278  -37.3749   23.9410 N   0  0  0  0  0  0
  -24.6935  -31.0526   22.0986 N   0  0  0  0  0  0
  -23.4204  -28.8097   23.2976 O   0  0  0  0  0  0
  -28.3198  -26.3911   20.1606 O   0  0  0  0  0  0
  -26.5632  -34.8884   22.4647 O   0  0  0  0  0  0
  -23.5467  -32.1360   23.7350 O   0  0  0  0  0  0
  -28.0618  -21.3458   22.2131 C   0  0  0  0  0  0
  -28.7778  -21.1433   21.0528 C   0  0  0  0  0  0
  -24.3518  -21.6571   25.1083 C   0  0  0  0  0  0
  -27.3696  -22.5956   22.7169 C   0  0  0  0  0  0
  -29.0604  -22.2318   19.9574 C   0  0  0  0  0  0
  -25.1786  -21.6983   23.8138 C   0  0  0  0  0  0
  -26.5091  -22.4530   23.9915 C   0  0  0  0  0  0
  -29.2008  -23.8201   20.3160 C   0  0  0  0  0  0
  -29.6979  -18.6513   20.2316 C   0  0  0  0  0  0
  -30.4105  -17.3327   20.8942 C   0  0  0  0  0  0
  -28.0891  -24.9245   19.9264 C   0  0  0  0  0  0
  -28.0305  -20.1676   22.9488 N   0  0  0  0  0  0
  -28.6045  -19.2207   22.2920 N   0  0  0  0  0  0
  -29.0904  -19.7208   21.1290 N   0  0  0  0  0  0
  -29.9080  -15.8949   20.6996 N   0  0  0  0  0  0
  -31.4692  -12.5822   19.1440 H   0  0  0  0  0  0
  -30.3879  -11.4817   19.9524 H   0  0  0  0  0  0
  -29.7758  -11.7098   17.5252 H   0  0  0  0  0  0
  -29.6258  -13.4408   17.7035 H   0  0  0  0  0  0
  -27.8939  -11.2782   18.9349 H   0  0  0  0  0  0
  -27.3672  -12.5011   17.8123 H   0  0  0  0  0  0
  -27.6362  -14.2518   19.4654 H   0  0  0  0  0  0
  -28.7319  -12.1846   21.4330 H   0  0  0  0  0  0
  -28.4370  -13.8680   21.7867 H   0  0  0  0  0  0
  -25.2756   -9.5683   22.4785 H   0  0  0  0  0  0
  -23.9994   -7.4638   22.7491 H   0  0  0  0  0  0
  -21.0842   -8.8790   19.8965 H   0  0  0  0  0  0
  -22.3712  -10.9680   19.6179 H   0  0  0  0  0  0
  -21.2002   -7.6139   23.9697 H   0  0  0  0  0  0
  -21.1482   -6.0527   25.9068 H   0  0  0  0  0  0
  -22.0599   -2.7600   23.2871 H   0  0  0  0  0  0
  -22.4115  -11.9826   22.4740 H   0  0  0  0  0  0
  -21.1139  -13.1234   22.2690 H   0  0  0  0  0  0
  -24.6540  -15.8459   20.5277 H   0  0  0  0  0  0
  -26.2675  -15.6325   20.0740 H   0  0  0  0  0  0
  -26.7200  -32.5383   23.1069 H   0  0  0  0  0  0
  -25.0106  -33.9689   25.0417 H   0  0  0  0  0  0
  -22.7189  -31.3018   21.3986 H   0  0  0  0  0  0
  -23.3754  -35.9609   23.3291 H   0  0  0  0  0  0
  -24.3594  -36.8940   22.2057 H   0  0  0  0  0  0
  -23.7245  -37.6474   23.6694 H   0  0  0  0  0  0
  -26.1115  -31.5443   20.6204 H   0  0  0  0  0  0
  -26.8473  -30.8143   22.0151 H   0  0  0  0  0  0
  -28.1217  -28.9400   21.1825 H   0  0  0  0  0  0
  -25.9407  -25.9298   18.9712 H   0  0  0  0  0  0
  -23.9659  -27.3278   18.9892 H   0  0  0  0  0  0
  -23.7593  -30.5995   19.4055 H   0  0  0  0  0  0
  -22.7576  -29.2541   19.8543 H   0  0  0  0  0  0
  -25.1278  -36.1888   25.0812 H   0  0  0  0  0  0
  -20.9951  -28.3242   24.1375 H   0  0  0  0  0  0
  -20.5611  -26.2279   23.3600 H   0  0  0  0  0  0
  -21.6642  -26.7362   22.1208 H   0  0  0  0  0  0
  -19.6949  -25.6238   21.1220 H   0  0  0  0  0  0
  -19.6725  -27.3128   20.6682 H   0  0  0  0  0  0
  -17.4196  -26.6610   21.3977 H   0  0  0  0  0  0
  -18.0344  -26.0016   22.8965 H   0  0  0  0  0  0
  -19.7963  -30.7212   24.2218 H   0  0  0  0  0  0
  -17.5048  -31.6241   24.5112 H   0  0  0  0  0  0
  -15.5364  -30.2926   23.7714 H   0  0  0  0  0  0
  -15.8662  -28.0792   22.7068 H   0  0  0  0  0  0
  -24.5969  -30.6981   25.7779 H   0  0  0  0  0  0
  -24.8839  -32.2835   26.4831 H   0  0  0  0  0  0
  -25.8035  -30.8917   27.0263 H   0  0  0  0  0  0
  -26.3007  -29.6681   24.1315 H   0  0  0  0  0  0
  -27.4096  -29.7311   25.4819 H   0  0  0  0  0  0
  -27.8858  -30.4262   23.9509 H   0  0  0  0  0  0
  -27.2748  -33.3679   26.2007 H   0  0  0  0  0  0
  -28.3929  -32.6795   25.0339 H   0  0  0  0  0  0
  -28.0712  -31.8483   26.5477 H   0  0  0  0  0  0
  -28.2533  -38.0113   24.7538 H   0  0  0  0  0  0
  -28.1102  -36.2645   24.6227 H   0  0  0  0  0  0
  -27.2297  -37.1372   25.8854 H   0  0  0  0  0  0
  -20.9409  -29.8810   21.6894 H   0  0  0  0  0  0
  -26.0148  -38.2811   24.1464 H   0  0  0  0  0  0
  -23.4355  -21.0824   24.9664 H   0  0  0  0  0  0
  -24.0652  -22.6592   25.4286 H   0  0  0  0  0  0
  -24.9050  -21.1945   25.9256 H   0  0  0  0  0  0
  -26.7432  -23.0113   21.9298 H   0  0  0  0  0  0
  -28.1170  -23.3559   22.9304 H   0  0  0  0  0  0
  -28.3261  -22.1290   19.1578 H   0  0  0  0  0  0
  -30.0019  -21.9474   19.4853 H   0  0  0  0  0  0
  -24.5856  -22.1733   23.0321 H   0  0  0  0  0  0
  -25.3694  -20.6789   23.4785 H   0  0  0  0  0  0
  -26.2696  -23.4593   24.3410 H   0  0  0  0  0  0
  -27.1020  -21.9995   24.7874 H   0  0  0  0  0  0
  -30.0872  -24.1526   19.7734 H   0  0  0  0  0  0
  -29.4948  -23.9375   21.3555 H   0  0  0  0  0  0
  -28.9320  -18.3334   19.5251 H   0  0  0  0  0  0
  -30.4471  -19.1616   19.6254 H   0  0  0  0  0  0
  -30.5141  -17.4807   21.9686 H   0  0  0  0  0  0
  -31.4439  -17.3488   20.5437 H   0  0  0  0  0  0
  -27.1732  -24.6485   20.4457 H   0  0  0  0  0  0
  -27.8787  -24.8061   18.8623 H   0  0  0  0  0  0
  -28.9239  -15.7518   20.8688 H   0  0  0  0  0  0
  1 25  1  0  0  0
  1 30  2  0  0  0
  1 85  1  0  0  0
  2  3  1  0  0  0
  2 25  1  0  0  0
  2 86  1  0  0  0
  2 87  1  0  0  0
  3  4  1  0  0  0
  3 88  1  0  0  0
  3 89  1  0  0  0
  4  5  1  0  0  0
  4 90  1  0  0  0
  4 91  1  0  0  0
  5  6  1  0  0  0
  5 26  1  0  0  0
  5 92  1  0  0  0
  6 25  1  0  0  0
  6 93  1  0  0  0
  6 94  1  0  0  0
  7  8  2  0  0  0
  7 26  1  0  0  0
  7 29  1  0  0  0
  8  9  1  0  0  0
  8 22  1  0  0  0
  9 10  1  0  0  0
  9 27  2  0  0  0
 10 11  2  0  0  0
 10 15  1  0  0  0
 11 12  1  0  0  0
 11 95  1  0  0  0
 12 13  2  0  0  0
 12 96  1  0  0  0
 13 14  1  0  0  0
 13 31  1  0  0  0
 14 15  2  0  0  0
 14 97  1  0  0  0
 15 98  1  0  0  0
 16 17  2  0  0  0
 16 21  1  0  0  0
 16 31  1  0  0  0
 17 18  1  0  0  0
 17 99  1  0  0  0
 18 19  2  0  0  0
 18100  1  0  0  0
 19 20  1  0  0  0
 19 24  1  0  0  0
 20 21  2  0  0  0
 20101  1  0  0  0
 21 23  1  0  0  0
 22 28  1  0  0  0
 22 32  2  0  0  0
 26 27  1  0  0  0
 28102  1  0  0  0
 28103  1  0  0  0
 29104  1  0  0  0
 29105  1  0  0  0
 33 34  1  0  0  0
 33 66  1  0  0  0
 33 70  2  0  0  0
 34 36  1  0  0  0
 34 59  1  0  0  0
 34106  1  0  0  0
 35 44  2  0  0  0
 35 45  1  0  0  0
 35 68  1  0  0  0
 36 56  1  0  0  0
 36107  1  0  0  0
 37 39  1  0  0  0
 37 47  1  0  0  0
 37 66  1  0  0  0
 37108  1  0  0  0
 38 43  2  0  0  0
 38 46  1  0  0  0
 38 47  1  0  0  0
 39 64  1  0  0  0
 39 67  2  0  0  0
 40 52  1  0  0  0
 40 53  2  0  0  0
 40 58  1  0  0  0
 41109  1  0  0  0
 41110  1  0  0  0
 41111  1  0  0  0
 41 48  1  0  0  0
 42 43  1  0  0  0
 42 66  1  0  0  0
 42112  1  0  0  0
 42113  1  0  0  0
 43 44  1  0  0  0
 44114  1  0  0  0
 45 46  2  0  0  0
 45115  1  0  0  0
 46116  1  0  0  0
 47117  1  0  0  0
 47118  1  0  0  0
 48 56  1  0  0  0
 48 65  1  0  0  0
 48119  1  0  0  0
 49 50  1  0  0  0
 49 53  1  0  0  0
 49 64  1  0  0  0
 49120  1  0  0  0
 50 51  1  0  0  0
 50121  1  0  0  0
 50122  1  0  0  0
 51 52  1  0  0  0
 51123  1  0  0  0
 51124  1  0  0  0
 52125  1  0  0  0
 52126  1  0  0  0
 53 54  1  0  0  0
 54 55  2  0  0  0
 54127  1  0  0  0
 55 57  1  0  0  0
 55128  1  0  0  0
 56 69  2  0  0  0
 57 58  2  0  0  0
 57129  1  0  0  0
 58130  1  0  0  0
 59 60  1  0  0  0
 59 61  1  0  0  0
 59 62  1  0  0  0
 60131  1  0  0  0
 60132  1  0  0  0
 60133  1  0  0  0
 61134  1  0  0  0
 61135  1  0  0  0
 61136  1  0  0  0
 62137  1  0  0  0
 62138  1  0  0  0
 62139  1  0  0  0
 63 65  1  0  0  0
 63140  1  0  0  0
 63141  1  0  0  0
 63142  1  0  0  0
 64143  1  0  0  0
 65144  1  0  0  0
 68 81  1  0  0  0
 71 72  2  0  0  0
 71 74  1  0  0  0
 71 82  1  0  0  0
 72 75  1  0  0  0
 72 84  1  0  0  0
 73 76  1  0  0  0
 73145  1  0  0  0
 73146  1  0  0  0
 73147  1  0  0  0
 74 77  1  0  0  0
 74148  1  0  0  0
 74149  1  0  0  0
 75 78  1  0  0  0
 75150  1  0  0  0
 75151  1  0  0  0
 76 77  1  0  0  0
 76152  1  0  0  0
 76153  1  0  0  0
 77154  1  0  0  0
 77155  1  0  0  0
 78 81  1  0  0  0
 78156  1  0  0  0
 78157  1  0  0  0
 79 80  1  0  0  0
 79 84  1  0  0  0
 79158  1  0  0  0
 79159  1  0  0  0
 80 85  1  0  0  0
 80160  1  0  0  0
 80161  1  0  0  0
 81162  1  0  0  0
 81163  1  0  0  0
 82 83  2  0  0  0
 83 84  1  0  0  0
 85164  1  0  0  0
M  ISO  4   1 100  68 101  81 101  85 100
M  END
> <chiral flag>
0

> <version>
0

> <s_m_source_file>
/data/baiqing/PycharmProjects/Reinvent-master-3.2/result/LINK_invent/BTK/process_docking_weight1_custom_sum_contain_oxygen_bond_distance_aromatic_linkinvent_7_9_3/rearranged_h_0089.sdf

> <i_m_source_file_index>
52

> <r_mmod_Potential_Energy-OPLS-2005>
185.796203613281

> <r_mmod_Stretch_Energy-OPLS-2005>
133.883087158203

> <r_mmod_Bend_Energy-OPLS-2005>
194.394378662109

> <r_mmod_Torsional_Energy-OPLS-2005>
240.468673706055

> <r_mmod_Improper_Torsional_Energy-OPLS-2005>
4.36375379562378

> <r_mmod_Van_der_Waal_Energy-OPLS-2005>
118.569427490234

> <r_mmod_Electrostatic_Energy-OPLS-2005>
-369.027709960938

> <r_mmod_Solvation_Energy-OPLS-2005>
-216.855133056641

> <b_mmod_Minimization_Converged-OPLS-2005>
0

> <r_mmod_RMS_Derivative-OPLS-2005>
3.0752067565918

$$$$
53
                    3D
 Structure written by MMmdl.
175183  0  0  1  0            999 V2000
  -30.7209  -14.5821   20.5285 C   0  0  0  0  0  0
  -30.4281  -12.3595   19.4517 C   0  0  0  0  0  0
  -29.5138  -12.4887   18.2164 C   0  0  0  0  0  0
  -28.0407  -12.3172   18.6379 C   0  0  0  0  0  0
  -27.6599  -13.2152   19.8479 C   0  0  2  0  0  0
  -28.7079  -13.1016   20.9813 C   0  0  0  0  0  0
  -25.2641  -13.8192   20.5633 C   0  0  0  0  0  0
  -24.1879  -13.0424   20.9203 C   0  0  0  0  0  0
  -24.6439  -11.6936   20.8707 C   0  0  0  0  0  0
  -23.9077  -10.4318   21.0410 C   0  0  0  0  0  0
  -24.3621   -9.4229   21.9179 C   0  0  0  0  0  0
  -23.6282   -8.2255   22.0766 C   0  0  0  0  0  0
  -22.4247   -8.0305   21.3583 C   0  0  0  0  0  0
  -21.9907   -9.0267   20.4675 C   0  0  0  0  0  0
  -22.7268  -10.2134   20.3059 C   0  0  0  0  0  0
  -21.6851   -6.0755   22.5290 C   0  0  0  0  0  0
  -21.4047   -6.5644   23.8250 C   0  0  0  0  0  0
  -21.3630   -5.6785   24.9203 C   0  0  0  0  0  0
  -21.6024   -4.3042   24.7257 C   0  0  0  0  0  0
  -21.8823   -3.8151   23.4369 C   0  0  0  0  0  0
  -21.9201   -4.6976   22.3441 C   0  0  0  0  0  0
  -22.7945  -13.5282   21.1895 C   0  0  0  0  0  0
  -22.1648   -4.2150   21.1016 F   0  0  0  0  0  0
  -21.5594   -3.4532   25.7763 F   0  0  0  0  0  0
  -30.0290  -13.4077   20.4119 N   0  0  0  0  0  0
  -26.3063  -12.9341   20.3291 N   0  0  0  0  0  0
  -25.9367  -11.6503   20.5721 N   0  0  0  0  0  0
  -22.0483  -12.8231   22.0371 N   0  0  0  0  0  0
  -25.4283  -15.1901   20.4096 N   0  0  0  0  0  0
  -31.8890  -14.6834   20.1525 O   0  0  0  0  0  0
  -21.6614   -6.8880   21.4251 O   0  0  0  0  0  0
  -22.3617  -14.5543   20.6731 O   0  0  0  0  0  0
  -24.6244  -31.8618   23.1993 C   0  0  0  0  0  0
  -25.9153  -32.4751   23.8246 C   0  0  1  0  0  0
  -27.2321  -27.3583   20.0715 C   0  0  0  0  0  0
  -25.5986  -33.8561   24.2204 N   0  0  0  0  0  0
  -23.4088  -30.4863   21.5527 C   0  0  2  0  0  0
  -24.8525  -28.9465   20.0858 C   0  0  0  0  0  0
  -22.7356  -29.4675   22.4992 C   0  0  0  0  0  0
  -18.0172  -28.1324   22.8486 C   0  0  0  0  0  0
  -24.1485  -36.7304   23.2632 C   0  0  0  0  0  0
  -25.9415  -30.7954   21.3582 C   0  0  0  0  0  0
  -26.0150  -29.4279   20.6959 C   0  0  0  0  0  0
  -27.2000  -28.6406   20.6968 C   0  0  0  0  0  0
  -26.0479  -26.9009   19.4601 C   0  0  0  0  0  0
  -24.8727  -27.6840   19.4605 C   0  0  0  0  0  0
  -23.6096  -29.8225   20.1618 C   0  0  0  0  0  0
  -25.4123  -36.3069   24.0290 C   0  0  1  0  0  0
  -20.5772  -28.3758   23.1249 C   0  0  2  0  0  0
  -20.6759  -26.9497   22.5435 C   0  0  0  0  0  0
  -19.5687  -26.6277   21.5316 C   0  0  0  0  0  0
  -18.1858  -26.7806   22.1712 C   0  0  0  0  0  0
  -19.1417  -28.8831   23.2823 C   0  0  0  0  0  0
  -18.9395  -30.1420   23.8846 C   0  0  0  0  0  0
  -17.6431  -30.6618   24.0501 C   0  0  0  0  0  0
  -25.9082  -34.9442   23.5042 C   0  0  0  0  0  0
  -16.5304  -29.9151   23.6262 C   0  0  0  0  0  0
  -16.7167  -28.6497   23.0385 C   0  0  0  0  0  0
  -26.4545  -31.6456   25.0549 C   0  0  0  0  0  0
  -25.3748  -31.3701   26.1272 C   0  0  0  0  0  0
  -27.0383  -30.2822   24.5978 C   0  0  0  0  0  0
  -27.6025  -32.4244   25.7386 C   0  0  0  0  0  0
  -27.5535  -37.1805   24.8460 C   0  0  0  0  0  0
  -21.4080  -29.3075   22.3611 N   0  0  0  0  0  0
  -26.4254  -37.3790   23.9388 N   0  0  0  0  0  0
  -24.6785  -31.0586   22.0975 N   0  0  0  0  0  0
  -23.4033  -28.8273   23.3152 O   0  0  0  0  0  0
  -28.3098  -26.4908   20.2358 O   0  0  0  0  0  0
  -26.5674  -34.8946   22.4634 O   0  0  0  0  0  0
  -23.5441  -32.1509   23.7332 O   0  0  0  0  0  0
  -29.8959  -22.0328   19.7726 C   0  0  0  0  0  0
  -28.8917  -23.0685   19.5636 C   0  0  0  0  0  0
  -29.4280  -21.0057   20.5636 C   0  0  0  0  0  0
  -27.7804  -22.5623   20.2092 C   0  0  0  0  0  0
  -26.3523  -23.0732   20.1865 C   0  0  0  0  0  0
  -26.2577  -22.5089   23.3903 C   0  0  0  0  0  0
  -28.6126  -21.8000   23.8129 C   0  0  0  0  0  0
  -27.9688  -24.2341   17.4625 C   0  0  0  0  0  0
  -30.3615  -24.1972   17.9100 C   0  0  0  0  0  0
  -30.1367  -19.7245   21.0870 C   0  0  0  0  0  0
  -29.7137  -18.2905   20.5720 C   0  0  0  0  0  0
  -27.2943  -20.6949   21.8790 C   0  0  0  0  0  0
  -30.5726  -17.0816   21.1172 C   0  0  0  0  0  0
  -29.0343  -25.8721   19.1414 C   0  0  0  0  0  0
  -27.2429  -21.3344   23.2941 C   0  0  0  0  0  0
  -28.9972  -24.3429   18.6117 C   0  0  0  0  0  0
  -28.1411  -21.4036   20.9224 N   0  0  0  0  0  0
  -30.0370  -15.6926   20.9156 N   0  0  0  0  0  0
  -31.4808  -12.4271   19.1678 H   0  0  0  0  0  0
  -30.3032  -11.3699   19.8993 H   0  0  0  0  0  0
  -29.7720  -11.7318   17.4722 H   0  0  0  0  0  0
  -29.6622  -13.4561   17.7308 H   0  0  0  0  0  0
  -27.9057  -11.2678   18.9021 H   0  0  0  0  0  0
  -27.3754  -12.4957   17.7913 H   0  0  0  0  0  0
  -27.6701  -14.2426   19.4745 H   0  0  0  0  0  0
  -28.7192  -12.0955   21.3998 H   0  0  0  0  0  0
  -28.4698  -13.7684   21.8095 H   0  0  0  0  0  0
  -25.2753   -9.5671   22.4799 H   0  0  0  0  0  0
  -23.9961   -7.4648   22.7500 H   0  0  0  0  0  0
  -21.0828   -8.8843   19.8989 H   0  0  0  0  0  0
  -22.3756  -10.9678   19.6176 H   0  0  0  0  0  0
  -21.2066   -7.6155   23.9770 H   0  0  0  0  0  0
  -21.1416   -6.0507   25.9102 H   0  0  0  0  0  0
  -22.0619   -2.7605   23.2904 H   0  0  0  0  0  0
  -22.3973  -11.9853   22.4755 H   0  0  0  0  0  0
  -21.1163  -13.1433   22.2609 H   0  0  0  0  0  0
  -24.6478  -15.8333   20.5078 H   0  0  0  0  0  0
  -26.2756  -15.6424   20.0842 H   0  0  0  0  0  0
  -26.7194  -32.5392   23.0965 H   0  0  0  0  0  0
  -25.0109  -33.9758   25.0318 H   0  0  0  0  0  0
  -22.7049  -31.3130   21.4286 H   0  0  0  0  0  0
  -23.3709  -35.9659   23.3323 H   0  0  0  0  0  0
  -24.3554  -36.8936   22.2033 H   0  0  0  0  0  0
  -23.7286  -37.6534   23.6665 H   0  0  0  0  0  0
  -26.0491  -31.5599   20.5866 H   0  0  0  0  0  0
  -26.8309  -30.8510   21.9715 H   0  0  0  0  0  0
  -28.0696  -29.0042   21.2289 H   0  0  0  0  0  0
  -26.0157  -25.9063   19.0439 H   0  0  0  0  0  0
  -23.9798  -27.2956   18.9917 H   0  0  0  0  0  0
  -23.6882  -30.6138   19.4147 H   0  0  0  0  0  0
  -22.7193  -29.2561   19.8795 H   0  0  0  0  0  0
  -25.1296  -36.1899   25.0765 H   0  0  0  0  0  0
  -20.9846  -28.3484   24.1367 H   0  0  0  0  0  0
  -20.5878  -26.2483   23.3738 H   0  0  0  0  0  0
  -21.6623  -26.7666   22.1138 H   0  0  0  0  0  0
  -19.6943  -25.6146   21.1485 H   0  0  0  0  0  0
  -19.6514  -27.2954   20.6735 H   0  0  0  0  0  0
  -17.4136  -26.6405   21.4134 H   0  0  0  0  0  0
  -18.0273  -25.9959   22.9132 H   0  0  0  0  0  0
  -19.7925  -30.7157   24.2225 H   0  0  0  0  0  0
  -17.5062  -31.6332   24.5068 H   0  0  0  0  0  0
  -15.5331  -30.3163   23.7530 H   0  0  0  0  0  0
  -15.8496  -28.0863   22.7214 H   0  0  0  0  0  0
  -24.5852  -30.7150   25.7602 H   0  0  0  0  0  0
  -24.9069  -32.2964   26.4574 H   0  0  0  0  0  0
  -25.8006  -30.8899   27.0086 H   0  0  0  0  0  0
  -26.2969  -29.6571   24.0982 H   0  0  0  0  0  0
  -27.4087  -29.7024   25.4454 H   0  0  0  0  0  0
  -27.8813  -30.4060   23.9176 H   0  0  0  0  0  0
  -27.2451  -33.3507   26.1914 H   0  0  0  0  0  0
  -28.3819  -32.6901   25.0220 H   0  0  0  0  0  0
  -28.0677  -31.8427   26.5363 H   0  0  0  0  0  0
  -28.2594  -38.0071   24.7469 H   0  0  0  0  0  0
  -28.0990  -36.2596   24.6307 H   0  0  0  0  0  0
  -27.2258  -37.1487   25.8877 H   0  0  0  0  0  0
  -20.9307  -29.8673   21.6658 H   0  0  0  0  0  0
  -26.0116  -38.2845   24.1419 H   0  0  0  0  0  0
  -30.8997  -21.9985   19.3610 H   0  0  0  0  0  0
  -25.9527  -23.0479   19.1720 H   0  0  0  0  0  0
  -26.3176  -24.0861   20.5742 H   0  0  0  0  0  0
  -25.6200  -22.5077   20.7660 H   0  0  0  0  0  0
  -26.1183  -22.8135   24.4295 H   0  0  0  0  0  0
  -25.2742  -22.2620   22.9859 H   0  0  0  0  0  0
  -26.6568  -23.3589   22.8390 H   0  0  0  0  0  0
  -28.5298  -22.1432   24.8406 H   0  0  0  0  0  0
  -28.9847  -22.6407   23.2223 H   0  0  0  0  0  0
  -29.3656  -21.0118   23.7936 H   0  0  0  0  0  0
  -27.9989  -23.2286   17.0508 H   0  0  0  0  0  0
  -28.1912  -24.9008   16.6287 H   0  0  0  0  0  0
  -26.9495  -24.4426   17.7656 H   0  0  0  0  0  0
  -31.1639  -24.3588   18.6344 H   0  0  0  0  0  0
  -30.4896  -24.9197   17.1052 H   0  0  0  0  0  0
  -30.4823  -23.2086   17.4658 H   0  0  0  0  0  0
  -30.0602  -19.6947   22.1729 H   0  0  0  0  0  0
  -31.2040  -19.8319   20.9064 H   0  0  0  0  0  0
  -29.7387  -18.2589   19.4822 H   0  0  0  0  0  0
  -28.6798  -18.1286   20.8558 H   0  0  0  0  0  0
  -26.2991  -20.5609   21.4559 H   0  0  0  0  0  0
  -27.6712  -19.6846   21.9904 H   0  0  0  0  0  0
  -30.7088  -17.2154   22.1886 H   0  0  0  0  0  0
  -31.5759  -17.1584   20.6927 H   0  0  0  0  0  0
  -28.9936  -26.5462   18.2767 H   0  0  0  0  0  0
  -30.0457  -26.0149   19.5272 H   0  0  0  0  0  0
  -26.8916  -20.5464   23.9655 H   0  0  0  0  0  0
  -29.0858  -15.5306   21.2008 H   0  0  0  0  0  0
  1 25  1  0  0  0
  1 30  2  0  0  0
  1 88  1  0  0  0
  2  3  1  0  0  0
  2 25  1  0  0  0
  2 89  1  0  0  0
  2 90  1  0  0  0
  3  4  1  0  0  0
  3 91  1  0  0  0
  3 92  1  0  0  0
  4  5  1  0  0  0
  4 93  1  0  0  0
  4 94  1  0  0  0
  5  6  1  0  0  0
  5 26  1  0  0  0
  5 95  1  0  0  0
  6 25  1  0  0  0
  6 96  1  0  0  0
  6 97  1  0  0  0
  7  8  2  0  0  0
  7 26  1  0  0  0
  7 29  1  0  0  0
  8  9  1  0  0  0
  8 22  1  0  0  0
  9 10  1  0  0  0
  9 27  2  0  0  0
 10 11  2  0  0  0
 10 15  1  0  0  0
 11 12  1  0  0  0
 11 98  1  0  0  0
 12 13  2  0  0  0
 12 99  1  0  0  0
 13 14  1  0  0  0
 13 31  1  0  0  0
 14 15  2  0  0  0
 14100  1  0  0  0
 15101  1  0  0  0
 16 17  2  0  0  0
 16 21  1  0  0  0
 16 31  1  0  0  0
 17 18  1  0  0  0
 17102  1  0  0  0
 18 19  2  0  0  0
 18103  1  0  0  0
 19 20  1  0  0  0
 19 24  1  0  0  0
 20 21  2  0  0  0
 20104  1  0  0  0
 21 23  1  0  0  0
 22 28  1  0  0  0
 22 32  2  0  0  0
 26 27  1  0  0  0
 28105  1  0  0  0
 28106  1  0  0  0
 29107  1  0  0  0
 29108  1  0  0  0
 33 34  1  0  0  0
 33 66  1  0  0  0
 33 70  2  0  0  0
 34 36  1  0  0  0
 34 59  1  0  0  0
 34109  1  0  0  0
 35 44  2  0  0  0
 35 45  1  0  0  0
 35 68  1  0  0  0
 36 56  1  0  0  0
 36110  1  0  0  0
 37 39  1  0  0  0
 37 47  1  0  0  0
 37 66  1  0  0  0
 37111  1  0  0  0
 38 43  2  0  0  0
 38 46  1  0  0  0
 38 47  1  0  0  0
 39 64  1  0  0  0
 39 67  2  0  0  0
 40 52  1  0  0  0
 40 53  2  0  0  0
 40 58  1  0  0  0
 41112  1  0  0  0
 41113  1  0  0  0
 41114  1  0  0  0
 41 48  1  0  0  0
 42 43  1  0  0  0
 42 66  1  0  0  0
 42115  1  0  0  0
 42116  1  0  0  0
 43 44  1  0  0  0
 44117  1  0  0  0
 45 46  2  0  0  0
 45118  1  0  0  0
 46119  1  0  0  0
 47120  1  0  0  0
 47121  1  0  0  0
 48 56  1  0  0  0
 48 65  1  0  0  0
 48122  1  0  0  0
 49 50  1  0  0  0
 49 53  1  0  0  0
 49 64  1  0  0  0
 49123  1  0  0  0
 50 51  1  0  0  0
 50124  1  0  0  0
 50125  1  0  0  0
 51 52  1  0  0  0
 51126  1  0  0  0
 51127  1  0  0  0
 52128  1  0  0  0
 52129  1  0  0  0
 53 54  1  0  0  0
 54 55  2  0  0  0
 54130  1  0  0  0
 55 57  1  0  0  0
 55131  1  0  0  0
 56 69  2  0  0  0
 57 58  2  0  0  0
 57132  1  0  0  0
 58133  1  0  0  0
 59 60  1  0  0  0
 59 61  1  0  0  0
 59 62  1  0  0  0
 60134  1  0  0  0
 60135  1  0  0  0
 60136  1  0  0  0
 61137  1  0  0  0
 61138  1  0  0  0
 61139  1  0  0  0
 62140  1  0  0  0
 62141  1  0  0  0
 62142  1  0  0  0
 63 65  1  0  0  0
 63143  1  0  0  0
 63144  1  0  0  0
 63145  1  0  0  0
 64146  1  0  0  0
 65147  1  0  0  0
 68 84  1  0  0  0
 71 72  1  0  0  0
 71 73  2  0  0  0
 71148  1  0  0  0
 72 74  2  0  0  0
 72 86  1  0  0  0
 73 80  1  0  0  0
 73 87  1  0  0  0
 74 75  1  0  0  0
 74 87  1  0  0  0
 75149  1  0  0  0
 75150  1  0  0  0
 75151  1  0  0  0
 76152  1  0  0  0
 76153  1  0  0  0
 76154  1  0  0  0
 76 85  1  0  0  0
 77 85  1  0  0  0
 77155  1  0  0  0
 77156  1  0  0  0
 77157  1  0  0  0
 78158  1  0  0  0
 78159  1  0  0  0
 78160  1  0  0  0
 78 86  1  0  0  0
 79 86  1  0  0  0
 79161  1  0  0  0
 79162  1  0  0  0
 79163  1  0  0  0
 80 81  1  0  0  0
 80164  1  0  0  0
 80165  1  0  0  0
 81 83  1  0  0  0
 81166  1  0  0  0
 81167  1  0  0  0
 82 85  1  0  0  0
 82 87  1  0  0  0
 82168  1  0  0  0
 82169  1  0  0  0
 83 88  1  0  0  0
 83170  1  0  0  0
 83171  1  0  0  0
 84 86  1  0  0  0
 84172  1  0  0  0
 84173  1  0  0  0
 85174  1  0  0  0
 88175  1  0  0  0
M  ISO  4   1 100  68 101  84 101  88 100
M  END
> <chiral flag>
0

> <version>
0

> <s_m_source_file>
/data/baiqing/PycharmProjects/Reinvent-master-3.2/result/LINK_invent/BTK/process_docking_weight1_custom_sum_contain_oxygen_bond_distance_aromatic_linkinvent_7_9_3/rearranged_h_0089.sdf

> <i_m_source_file_index>
53

> <r_mmod_Potential_Energy-OPLS-2005>
112.154075622559

> <r_mmod_Stretch_Energy-OPLS-2005>
80.8104476928711

> <r_mmod_Bend_Energy-OPLS-2005>
206.287292480469

> <r_mmod_Torsional_Energy-OPLS-2005>
243.917724609375

> <r_mmod_Improper_Torsional_Energy-OPLS-2005>
6.23518466949463

> <r_mmod_Van_der_Waal_Energy-OPLS-2005>
125.512382507324

> <r_mmod_Electrostatic_Energy-OPLS-2005>
-390.227020263672

> <r_mmod_Solvation_Energy-OPLS-2005>
-203.731597900391

> <b_mmod_Minimization_Converged-OPLS-2005>
0

> <r_mmod_RMS_Derivative-OPLS-2005>
11.4667530059814

$$$$
54
                    3D
 Structure written by MMmdl.
177185  0  0  1  0            999 V2000
  -30.7520  -14.4247   20.6207 C   0  0  0  0  0  0
  -30.4167  -12.3000   19.4107 C   0  0  0  0  0  0
  -29.4902  -12.5069   18.1984 C   0  0  0  0  0  0
  -28.0133  -12.3688   18.6148 C   0  0  0  0  0  0
  -27.6619  -13.2094   19.8709 C   0  0  2  0  0  0
  -28.7027  -12.9936   20.9912 C   0  0  0  0  0  0
  -25.2601  -13.8176   20.5671 C   0  0  0  0  0  0
  -24.1851  -13.0443   20.9174 C   0  0  0  0  0  0
  -24.6408  -11.6919   20.8735 C   0  0  0  0  0  0
  -23.9075  -10.4301   21.0398 C   0  0  0  0  0  0
  -24.3616   -9.4222   21.9188 C   0  0  0  0  0  0
  -23.6290   -8.2258   22.0763 C   0  0  0  0  0  0
  -22.4280   -8.0290   21.3539 C   0  0  0  0  0  0
  -21.9913   -9.0266   20.4653 C   0  0  0  0  0  0
  -22.7241  -10.2144   20.3055 C   0  0  0  0  0  0
  -21.6856   -6.0738   22.5270 C   0  0  0  0  0  0
  -21.4017   -6.5645   23.8201 C   0  0  0  0  0  0
  -21.3659   -5.6803   24.9172 C   0  0  0  0  0  0
  -21.6047   -4.3062   24.7226 C   0  0  0  0  0  0
  -21.8823   -3.8154   23.4349 C   0  0  0  0  0  0
  -21.9197   -4.6967   22.3402 C   0  0  0  0  0  0
  -22.7874  -13.5251   21.1824 C   0  0  0  0  0  0
  -22.1666   -4.2151   21.0977 F   0  0  0  0  0  0
  -21.5633   -3.4548   25.7740 F   0  0  0  0  0  0
  -30.0362  -13.2833   20.4365 N   0  0  0  0  0  0
  -26.3032  -12.9346   20.3339 N   0  0  0  0  0  0
  -25.9334  -11.6504   20.5746 N   0  0  0  0  0  0
  -22.0506  -12.8232   22.0378 N   0  0  0  0  0  0
  -25.4327  -15.1887   20.4092 N   0  0  0  0  0  0
  -31.8569  -14.6060   20.1054 O   0  0  0  0  0  0
  -21.6643   -6.8885   21.4234 O   0  0  0  0  0  0
  -22.3565  -14.5556   20.6686 O   0  0  0  0  0  0
  -24.6088  -31.8670   23.2141 C   0  0  0  0  0  0
  -25.9014  -32.4800   23.8408 C   0  0  1  0  0  0
  -27.2566  -27.4883   20.0961 C   0  0  0  0  0  0
  -25.5912  -33.8594   24.2352 N   0  0  0  0  0  0
  -23.3932  -30.4864   21.5505 C   0  0  2  0  0  0
  -24.8471  -28.9512   20.1205 C   0  0  0  0  0  0
  -22.7355  -29.4647   22.5053 C   0  0  0  0  0  0
  -18.0213  -28.1386   22.8456 C   0  0  0  0  0  0
  -24.1491  -36.7309   23.2602 C   0  0  0  0  0  0
  -25.9114  -30.8498   21.3551 C   0  0  0  0  0  0
  -25.9978  -29.4826   20.7172 C   0  0  0  0  0  0
  -27.2049  -28.7563   20.7103 C   0  0  0  0  0  0
  -26.0985  -26.9567   19.4942 C   0  0  0  0  0  0
  -24.8901  -27.6847   19.5069 C   0  0  0  0  0  0
  -23.5986  -29.8034   20.1685 C   0  0  0  0  0  0
  -25.4079  -36.3082   24.0332 C   0  0  1  0  0  0
  -20.5799  -28.3643   23.1348 C   0  0  2  0  0  0
  -20.6726  -26.9402   22.5418 C   0  0  0  0  0  0
  -19.5713  -26.6381   21.5212 C   0  0  0  0  0  0
  -18.1865  -26.7913   22.1596 C   0  0  0  0  0  0
  -19.1469  -28.8835   23.2873 C   0  0  0  0  0  0
  -18.9417  -30.1445   23.8885 C   0  0  0  0  0  0
  -17.6430  -30.6595   24.0571 C   0  0  0  0  0  0
  -25.9038  -34.9451   23.5139 C   0  0  0  0  0  0
  -16.5311  -29.9098   23.6343 C   0  0  0  0  0  0
  -16.7212  -28.6523   23.0330 C   0  0  0  0  0  0
  -26.4472  -31.6562   25.0715 C   0  0  0  0  0  0
  -25.3765  -31.3651   26.1502 C   0  0  0  0  0  0
  -27.0319  -30.3033   24.6017 C   0  0  0  0  0  0
  -27.6068  -32.4275   25.7457 C   0  0  0  0  0  0
  -27.5641  -37.1671   24.8353 C   0  0  0  0  0  0
  -21.4082  -29.3024   22.3802 N   0  0  0  0  0  0
  -26.4214  -37.3835   23.9524 N   0  0  0  0  0  0
  -24.6550  -31.0810   22.1006 N   0  0  0  0  0  0
  -23.4151  -28.8170   23.3071 O   0  0  0  0  0  0
  -28.4452  -26.8105   20.0010 O   0  0  0  0  0  0
  -26.5577  -34.8899   22.4685 O   0  0  0  0  0  0
  -23.5313  -32.1402   23.7587 O   0  0  0  0  0  0
  -30.0600  -18.2785   20.0043 C   0  0  0  0  0  0
  -32.1839  -18.7150   21.3643 C   0  0  0  0  0  0
  -29.3874  -19.4685   20.7246 C   0  0  0  0  0  0
  -31.4509  -19.8486   22.1049 C   0  0  0  0  0  0
  -31.2330  -17.6373   20.7904 C   0  0  1  0  0  0
  -30.4370  -20.5196   21.1535 C   0  0  2  0  0  0
  -28.1030  -26.1689   22.4273 C   0  0  0  0  0  0
  -31.6241  -24.9820   20.3868 C   0  0  0  0  0  0
  -30.5121  -23.2180   19.0736 C   0  0  0  0  0  0
  -29.1610  -21.6690   22.9916 C   0  0  0  0  0  0
  -30.8150  -16.5993   21.8697 C   0  0  0  0  0  0
  -29.0566  -24.6026   20.6084 C   0  0  0  0  0  0
  -30.7691  -22.9634   21.6105 C   0  0  0  0  0  0
  -28.9270  -26.0628   21.1244 C   0  0  1  0  0  0
  -30.4716  -23.9483   20.4384 C   0  0  0  0  0  0
  -30.1683  -15.3796   21.3625 N   0  0  0  0  0  0
  -29.8417  -21.7908   21.6760 N   0  3  1  0  0  0
  -31.4607  -12.3897   19.1054 H   0  0  0  0  0  0
  -30.3112  -11.2890   19.8066 H   0  0  0  0  0  0
  -29.7263  -11.7827   17.4179 H   0  0  0  0  0  0
  -29.6629  -13.4929   17.7647 H   0  0  0  0  0  0
  -27.8255  -11.3128   18.8124 H   0  0  0  0  0  0
  -27.3620  -12.6421   17.7845 H   0  0  0  0  0  0
  -27.7072  -14.2574   19.5744 H   0  0  0  0  0  0
  -28.6719  -11.9625   21.3435 H   0  0  0  0  0  0
  -28.4595  -13.6038   21.8617 H   0  0  0  0  0  0
  -25.2762   -9.5698   22.4771 H   0  0  0  0  0  0
  -23.9998   -7.4650   22.7486 H   0  0  0  0  0  0
  -21.0848   -8.8796   19.8954 H   0  0  0  0  0  0
  -22.3711  -10.9689   19.6171 H   0  0  0  0  0  0
  -21.2010   -7.6153   23.9703 H   0  0  0  0  0  0
  -21.1480   -6.0537   25.9068 H   0  0  0  0  0  0
  -22.0606   -2.7616   23.2851 H   0  0  0  0  0  0
  -22.4112  -11.9890   22.4768 H   0  0  0  0  0  0
  -21.1122  -13.1258   22.2562 H   0  0  0  0  0  0
  -24.6685  -15.8473   20.5169 H   0  0  0  0  0  0
  -26.2915  -15.6253   20.0976 H   0  0  0  0  0  0
  -26.7065  -32.5571   23.1162 H   0  0  0  0  0  0
  -25.0185  -33.9743   25.0585 H   0  0  0  0  0  0
  -22.6834  -31.3037   21.4083 H   0  0  0  0  0  0
  -23.3830  -35.9556   23.3013 H   0  0  0  0  0  0
  -24.3692  -36.9197   22.2082 H   0  0  0  0  0  0
  -23.7086  -37.6365   23.6784 H   0  0  0  0  0  0
  -25.9994  -31.6113   20.5790 H   0  0  0  0  0  0
  -26.8061  -30.9218   21.9616 H   0  0  0  0  0  0
  -28.0994  -29.1665   21.1605 H   0  0  0  0  0  0
  -26.1429  -25.9948   19.0012 H   0  0  0  0  0  0
  -24.0097  -27.2737   19.0300 H   0  0  0  0  0  0
  -23.6803  -30.5684   19.3955 H   0  0  0  0  0  0
  -22.7272  -29.2022   19.8977 H   0  0  0  0  0  0
  -25.1198  -36.1896   25.0800 H   0  0  0  0  0  0
  -20.9830  -28.3222   24.1494 H   0  0  0  0  0  0
  -20.5676  -26.2256   23.3586 H   0  0  0  0  0  0
  -21.6592  -26.7488   22.1204 H   0  0  0  0  0  0
  -19.6912  -25.6301   21.1223 H   0  0  0  0  0  0
  -19.6686  -27.3208   20.6755 H   0  0  0  0  0  0
  -17.4151  -26.6635   21.3981 H   0  0  0  0  0  0
  -18.0262  -26.0071   22.9014 H   0  0  0  0  0  0
  -19.7928  -30.7212   24.2278 H   0  0  0  0  0  0
  -17.5017  -31.6280   24.5171 H   0  0  0  0  0  0
  -15.5319  -30.3006   23.7718 H   0  0  0  0  0  0
  -15.8584  -28.0871   22.7052 H   0  0  0  0  0  0
  -24.5922  -30.6996   25.7868 H   0  0  0  0  0  0
  -24.8967  -32.2806   26.4991 H   0  0  0  0  0  0
  -25.8159  -30.8813   27.0236 H   0  0  0  0  0  0
  -26.2845  -29.6744   24.1171 H   0  0  0  0  0  0
  -27.4258  -29.7303   25.4416 H   0  0  0  0  0  0
  -27.8591  -30.4411   23.9048 H   0  0  0  0  0  0
  -27.2717  -33.3589   26.2035 H   0  0  0  0  0  0
  -28.3877  -32.6796   25.0266 H   0  0  0  0  0  0
  -28.0719  -31.8373   26.5363 H   0  0  0  0  0  0
  -28.2245  -38.0348   24.8062 H   0  0  0  0  0  0
  -28.1530  -36.2985   24.5361 H   0  0  0  0  0  0
  -27.2493  -37.0298   25.8713 H   0  0  0  0  0  0
  -20.9249  -29.8808   21.7072 H   0  0  0  0  0  0
  -26.0081  -38.2809   24.1928 H   0  0  0  0  0  0
  -30.4477  -18.6437   19.0519 H   0  0  0  0  0  0
  -29.3166  -17.5251   19.7407 H   0  0  0  0  0  0
  -32.9281  -18.2593   22.0198 H   0  0  0  0  0  0
  -32.7536  -19.1510   20.5427 H   0  0  0  0  0  0
  -28.8323  -19.0957   21.5863 H   0  0  0  0  0  0
  -28.6536  -19.9204   20.0548 H   0  0  0  0  0  0
  -32.1856  -20.5669   22.4687 H   0  0  0  0  0  0
  -30.9508  -19.4487   22.9877 H   0  0  0  0  0  0
  -31.8334  -17.1013   20.0546 H   0  0  0  0  0  0
  -30.9763  -20.7921   20.2458 H   0  0  0  0  0  0
  -28.5416  -25.5582   23.2159 H   0  0  0  0  0  0
  -27.0747  -25.8386   22.2868 H   0  0  0  0  0  0
  -28.0794  -27.1918   22.8041 H   0  0  0  0  0  0
  -31.4277  -25.7780   19.6658 H   0  0  0  0  0  0
  -32.5670  -24.5170   20.0921 H   0  0  0  0  0  0
  -31.8142  -25.4452   21.3549 H   0  0  0  0  0  0
  -30.3911  -23.9226   18.2478 H   0  0  0  0  0  0
  -29.7230  -22.4711   18.9688 H   0  0  0  0  0  0
  -31.4658  -22.7167   18.9117 H   0  0  0  0  0  0
  -28.4452  -20.8485   23.0003 H   0  0  0  0  0  0
  -28.5986  -22.5754   23.2199 H   0  0  0  0  0  0
  -29.8714  -21.5128   23.8024 H   0  0  0  0  0  0
  -30.1527  -17.0647   22.5980 H   0  0  0  0  0  0
  -31.6983  -16.2870   22.4286 H   0  0  0  0  0  0
  -28.5549  -24.5713   19.6415 H   0  0  0  0  0  0
  -28.4144  -23.9678   21.2142 H   0  0  0  0  0  0
  -30.7295  -23.5226   22.5488 H   0  0  0  0  0  0
  -31.8011  -22.6157   21.5418 H   0  0  0  0  0  0
  -29.8934  -26.5015   21.3609 H   0  0  0  0  0  0
  -29.2431  -15.1730   21.7103 H   0  0  0  0  0  0
  -29.1045  -22.0270   21.0286 H   0  0  0  0  0  0
  1 25  1  0  0  0
  1 30  2  0  0  0
  1 86  1  0  0  0
  2  3  1  0  0  0
  2 25  1  0  0  0
  2 88  1  0  0  0
  2 89  1  0  0  0
  3  4  1  0  0  0
  3 90  1  0  0  0
  3 91  1  0  0  0
  4  5  1  0  0  0
  4 92  1  0  0  0
  4 93  1  0  0  0
  5  6  1  0  0  0
  5 26  1  0  0  0
  5 94  1  0  0  0
  6 25  1  0  0  0
  6 95  1  0  0  0
  6 96  1  0  0  0
  7  8  2  0  0  0
  7 26  1  0  0  0
  7 29  1  0  0  0
  8  9  1  0  0  0
  8 22  1  0  0  0
  9 10  1  0  0  0
  9 27  2  0  0  0
 10 11  2  0  0  0
 10 15  1  0  0  0
 11 12  1  0  0  0
 11 97  1  0  0  0
 12 13  2  0  0  0
 12 98  1  0  0  0
 13 14  1  0  0  0
 13 31  1  0  0  0
 14 15  2  0  0  0
 14 99  1  0  0  0
 15100  1  0  0  0
 16 17  2  0  0  0
 16 21  1  0  0  0
 16 31  1  0  0  0
 17 18  1  0  0  0
 17101  1  0  0  0
 18 19  2  0  0  0
 18102  1  0  0  0
 19 20  1  0  0  0
 19 24  1  0  0  0
 20 21  2  0  0  0
 20103  1  0  0  0
 21 23  1  0  0  0
 22 28  1  0  0  0
 22 32  2  0  0  0
 26 27  1  0  0  0
 28104  1  0  0  0
 28105  1  0  0  0
 29106  1  0  0  0
 29107  1  0  0  0
 33 34  1  0  0  0
 33 66  1  0  0  0
 33 70  2  0  0  0
 34 36  1  0  0  0
 34 59  1  0  0  0
 34108  1  0  0  0
 35 44  2  0  0  0
 35 45  1  0  0  0
 35 68  1  0  0  0
 36 56  1  0  0  0
 36109  1  0  0  0
 37 39  1  0  0  0
 37 47  1  0  0  0
 37 66  1  0  0  0
 37110  1  0  0  0
 38 43  2  0  0  0
 38 46  1  0  0  0
 38 47  1  0  0  0
 39 64  1  0  0  0
 39 67  2  0  0  0
 40 52  1  0  0  0
 40 53  2  0  0  0
 40 58  1  0  0  0
 41111  1  0  0  0
 41112  1  0  0  0
 41113  1  0  0  0
 41 48  1  0  0  0
 42 43  1  0  0  0
 42 66  1  0  0  0
 42114  1  0  0  0
 42115  1  0  0  0
 43 44  1  0  0  0
 44116  1  0  0  0
 45 46  2  0  0  0
 45117  1  0  0  0
 46118  1  0  0  0
 47119  1  0  0  0
 47120  1  0  0  0
 48 56  1  0  0  0
 48 65  1  0  0  0
 48121  1  0  0  0
 49 50  1  0  0  0
 49 53  1  0  0  0
 49 64  1  0  0  0
 49122  1  0  0  0
 50 51  1  0  0  0
 50123  1  0  0  0
 50124  1  0  0  0
 51 52  1  0  0  0
 51125  1  0  0  0
 51126  1  0  0  0
 52127  1  0  0  0
 52128  1  0  0  0
 53 54  1  0  0  0
 54 55  2  0  0  0
 54129  1  0  0  0
 55 57  1  0  0  0
 55130  1  0  0  0
 56 69  2  0  0  0
 57 58  2  0  0  0
 57131  1  0  0  0
 58132  1  0  0  0
 59 60  1  0  0  0
 59 61  1  0  0  0
 59 62  1  0  0  0
 60133  1  0  0  0
 60134  1  0  0  0
 60135  1  0  0  0
 61136  1  0  0  0
 61137  1  0  0  0
 61138  1  0  0  0
 62139  1  0  0  0
 62140  1  0  0  0
 62141  1  0  0  0
 63 65  1  0  0  0
 63142  1  0  0  0
 63143  1  0  0  0
 63144  1  0  0  0
 64145  1  0  0  0
 65146  1  0  0  0
 68 84  1  0  0  0
 71 73  1  0  0  0
 71 75  1  0  0  0
 71147  1  0  0  0
 71148  1  0  0  0
 72 74  1  0  0  0
 72 75  1  0  0  0
 72149  1  0  0  0
 72150  1  0  0  0
 73151  1  0  0  0
 73152  1  0  0  0
 73 76  1  0  0  0
 74 76  1  0  0  0
 74153  1  0  0  0
 74154  1  0  0  0
 75 81  1  0  0  0
 75155  1  0  0  0
 76 87  1  0  0  0
 76156  1  0  0  0
 77157  1  0  0  0
 77158  1  0  0  0
 77159  1  0  0  0
 77 84  1  0  0  0
 78160  1  0  0  0
 78161  1  0  0  0
 78162  1  0  0  0
 78 85  1  0  0  0
 79 85  1  0  0  0
 79163  1  0  0  0
 79164  1  0  0  0
 79165  1  0  0  0
 80166  1  0  0  0
 80167  1  0  0  0
 80168  1  0  0  0
 80 87  1  0  0  0
 81 86  1  0  0  0
 81169  1  0  0  0
 81170  1  0  0  0
 82 84  1  0  0  0
 82 85  1  0  0  0
 82171  1  0  0  0
 82172  1  0  0  0
 83 85  1  0  0  0
 83 87  1  0  0  0
 83173  1  0  0  0
 83174  1  0  0  0
 84175  1  0  0  0
 86176  1  0  0  0
 87177  1  0  0  0
M  CHG  1  87   1
M  ISO  4   1 100  68 101  84 101  86 100
M  END
> <chiral flag>
0

> <version>
0

> <s_m_source_file>
/data/baiqing/PycharmProjects/Reinvent-master-3.2/result/LINK_invent/BTK/process_docking_weight1_custom_sum_contain_oxygen_bond_distance_aromatic_linkinvent_7_9_3/rearranged_h_0089.sdf

> <i_m_source_file_index>
54

> <r_mmod_Potential_Energy-OPLS-2005>
-33.244457244873

> <r_mmod_Stretch_Energy-OPLS-2005>
39.8802528381348

> <r_mmod_Bend_Energy-OPLS-2005>
130.423126220703

> <r_mmod_Torsional_Energy-OPLS-2005>
316.444366455078

> <r_mmod_Improper_Torsional_Energy-OPLS-2005>
2.18279886245728

> <r_mmod_Van_der_Waal_Energy-OPLS-2005>
146.794509887695

> <r_mmod_Electrostatic_Energy-OPLS-2005>
-260.898864746094

> <r_mmod_Solvation_Energy-OPLS-2005>
-417.428375244141

> <b_mmod_Minimization_Converged-OPLS-2005>
0

> <r_mmod_RMS_Derivative-OPLS-2005>
3.3633131980896

$$$$
55
                    3D
 Structure written by MMmdl.
166174  0  0  1  0            999 V2000
  -30.8273  -14.3149   20.7247 C   0  0  0  0  0  0
  -30.4054  -12.2915   19.3808 C   0  0  0  0  0  0
  -29.4717  -12.5297   18.1839 C   0  0  0  0  0  0
  -28.0027  -12.3729   18.6099 C   0  0  0  0  0  0
  -27.6636  -13.2042   19.8740 C   0  0  2  0  0  0
  -28.7044  -12.9709   20.9924 C   0  0  0  0  0  0
  -25.2607  -13.8169   20.5672 C   0  0  0  0  0  0
  -24.1849  -13.0443   20.9154 C   0  0  0  0  0  0
  -24.6390  -11.6906   20.8706 C   0  0  0  0  0  0
  -23.9047  -10.4287   21.0388 C   0  0  0  0  0  0
  -24.3600   -9.4206   21.9171 C   0  0  0  0  0  0
  -23.6277   -8.2250   22.0754 C   0  0  0  0  0  0
  -22.4271   -8.0280   21.3540 C   0  0  0  0  0  0
  -21.9895   -9.0247   20.4649 C   0  0  0  0  0  0
  -22.7218  -10.2127   20.3045 C   0  0  0  0  0  0
  -21.6849   -6.0728   22.5268 C   0  0  0  0  0  0
  -21.4010   -6.5634   23.8204 C   0  0  0  0  0  0
  -21.3663   -5.6786   24.9169 C   0  0  0  0  0  0
  -21.6051   -4.3048   24.7215 C   0  0  0  0  0  0
  -21.8818   -3.8143   23.4338 C   0  0  0  0  0  0
  -21.9192   -4.6958   22.3395 C   0  0  0  0  0  0
  -22.7874  -13.5245   21.1820 C   0  0  0  0  0  0
  -22.1661   -4.2153   21.0969 F   0  0  0  0  0  0
  -21.5637   -3.4532   25.7729 F   0  0  0  0  0  0
  -30.0520  -13.2350   20.4519 N   0  0  0  0  0  0
  -26.3035  -12.9317   20.3362 N   0  0  0  0  0  0
  -25.9313  -11.6475   20.5743 N   0  0  0  0  0  0
  -22.0507  -12.8242   22.0384 N   0  0  0  0  0  0
  -25.4356  -15.1869   20.4079 N   0  0  0  0  0  0
  -31.7894  -14.6517   20.0300 O   0  0  0  0  0  0
  -21.6640   -6.8878   21.4239 O   0  0  0  0  0  0
  -22.3561  -14.5560   20.6689 O   0  0  0  0  0  0
  -24.6111  -31.8701   23.2139 C   0  0  0  0  0  0
  -25.9017  -32.4818   23.8414 C   0  0  1  0  0  0
  -27.2335  -27.4368   20.0797 C   0  0  0  0  0  0
  -25.5895  -33.8620   24.2357 N   0  0  0  0  0  0
  -23.3994  -30.4977   21.5520 C   0  0  2  0  0  0
  -24.8441  -28.9677   20.1112 C   0  0  0  0  0  0
  -22.7381  -29.4690   22.4972 C   0  0  0  0  0  0
  -18.0280  -28.1375   22.8493 C   0  0  0  0  0  0
  -24.1487  -36.7327   23.2638 C   0  0  0  0  0  0
  -25.9261  -30.8309   21.3689 C   0  0  0  0  0  0
  -26.0022  -29.4661   20.7164 C   0  0  0  0  0  0
  -27.1920  -28.7016   20.7123 C   0  0  0  0  0  0
  -26.0523  -26.9605   19.4584 C   0  0  0  0  0  0
  -24.8626  -27.7107   19.4868 C   0  0  0  0  0  0
  -23.6078  -29.8342   20.1624 C   0  0  0  0  0  0
  -25.4091  -36.3104   24.0348 C   0  0  1  0  0  0
  -20.5865  -28.3657   23.1304 C   0  0  2  0  0  0
  -20.6780  -26.9404   22.5395 C   0  0  0  0  0  0
  -19.5762  -26.6386   21.5191 C   0  0  0  0  0  0
  -18.1933  -26.7921   22.1607 C   0  0  0  0  0  0
  -19.1526  -28.8833   23.2894 C   0  0  0  0  0  0
  -18.9456  -30.1426   23.8918 C   0  0  0  0  0  0
  -17.6454  -30.6577   24.0561 C   0  0  0  0  0  0
  -25.9011  -34.9462   23.5136 C   0  0  0  0  0  0
  -16.5355  -29.9076   23.6331 C   0  0  0  0  0  0
  -16.7266  -28.6491   23.0355 C   0  0  0  0  0  0
  -26.4459  -31.6577   25.0714 C   0  0  0  0  0  0
  -25.3746  -31.3640   26.1483 C   0  0  0  0  0  0
  -27.0284  -30.3026   24.6039 C   0  0  0  0  0  0
  -27.6039  -32.4293   25.7456 C   0  0  0  0  0  0
  -27.5573  -37.1809   24.8454 C   0  0  0  0  0  0
  -21.4119  -29.3055   22.3717 N   0  0  0  0  0  0
  -26.4282  -37.3775   23.9414 N   0  0  0  0  0  0
  -24.6643  -31.0792   22.1043 N   0  0  0  0  0  0
  -23.4149  -28.8206   23.2992 O   0  0  0  0  0  0
  -28.4166  -26.7210   20.1098 O   0  0  0  0  0  0
  -26.5550  -34.8899   22.4679 O   0  0  0  0  0  0
  -23.5308  -32.1438   23.7546 O   0  0  0  0  0  0
  -32.6179  -17.8206   20.7808 C   0  0  0  0  0  0
  -30.9114  -19.3152   21.6129 C   0  0  0  0  0  0
  -31.5988  -18.0815   21.7191 C   0  0  0  0  0  0
  -32.8920  -18.7745   19.7887 C   0  0  0  0  0  0
  -31.2613  -20.2238   20.5935 C   0  0  0  0  0  0
  -33.9883  -18.5518   18.7709 C   0  0  0  0  0  0
  -28.9770  -22.7005   18.3526 C   0  0  0  0  0  0
  -31.3032  -17.1332   22.8813 C   0  0  0  0  0  0
  -29.6630  -24.6000   19.9946 C   0  0  0  0  0  0
  -31.6013  -15.6241   22.6949 C   0  0  0  0  0  0
  -31.1742  -22.5281   19.6343 C   0  0  0  0  0  0
  -28.4674  -25.4328   19.4865 C   0  0  0  0  0  0
  -30.1218  -23.4832   19.0247 C   0  0  1  0  0  0
  -32.2289  -19.9428   19.6996 N   0  0  0  0  0  0
  -30.6153  -21.4649   20.4803 N   0  0  0  0  0  0
  -30.6058  -14.8755   21.9198 N   0  0  0  0  0  0
  -31.4478  -12.3822   19.0718 H   0  0  0  0  0  0
  -30.2952  -11.2703   19.7480 H   0  0  0  0  0  0
  -29.7030  -11.8286   17.3810 H   0  0  0  0  0  0
  -29.6352  -13.5292   17.7773 H   0  0  0  0  0  0
  -27.8223  -11.3145   18.8003 H   0  0  0  0  0  0
  -27.3403  -12.6487   17.7886 H   0  0  0  0  0  0
  -27.7164  -14.2555   19.5886 H   0  0  0  0  0  0
  -28.6581  -11.9386   21.3413 H   0  0  0  0  0  0
  -28.4529  -13.5866   21.8565 H   0  0  0  0  0  0
  -25.2747   -9.5700   22.4740 H   0  0  0  0  0  0
  -23.9994   -7.4655   22.7470 H   0  0  0  0  0  0
  -21.0834   -8.8753   19.8955 H   0  0  0  0  0  0
  -22.3662  -10.9662   19.6156 H   0  0  0  0  0  0
  -21.1991   -7.6141   23.9705 H   0  0  0  0  0  0
  -21.1495   -6.0519   25.9074 H   0  0  0  0  0  0
  -22.0592   -2.7609   23.2827 H   0  0  0  0  0  0
  -22.4118  -11.9890   22.4766 H   0  0  0  0  0  0
  -21.1127  -13.1278   22.2598 H   0  0  0  0  0  0
  -24.6774  -15.8493   20.5289 H   0  0  0  0  0  0
  -26.3014  -15.6217   20.1141 H   0  0  0  0  0  0
  -26.7091  -32.5537   23.1191 H   0  0  0  0  0  0
  -25.0141  -33.9798   25.0565 H   0  0  0  0  0  0
  -22.6888  -31.3149   21.4165 H   0  0  0  0  0  0
  -23.3726  -35.9680   23.3305 H   0  0  0  0  0  0
  -24.3595  -36.8923   22.2049 H   0  0  0  0  0  0
  -23.7277  -37.6548   23.6645 H   0  0  0  0  0  0
  -26.0315  -31.5943   20.5965 H   0  0  0  0  0  0
  -26.8194  -30.8892   21.9803 H   0  0  0  0  0  0
  -28.0833  -29.0777   21.1953 H   0  0  0  0  0  0
  -26.0184  -26.0169   18.9370 H   0  0  0  0  0  0
  -23.9709  -27.3274   19.0113 H   0  0  0  0  0  0
  -23.7159  -30.6120   19.4058 H   0  0  0  0  0  0
  -22.7319  -29.2549   19.8634 H   0  0  0  0  0  0
  -25.1270  -36.1958   25.0840 H   0  0  0  0  0  0
  -20.9954  -28.3215   24.1419 H   0  0  0  0  0  0
  -20.5681  -26.2254   23.3556 H   0  0  0  0  0  0
  -21.6655  -26.7456   22.1194 H   0  0  0  0  0  0
  -19.6921  -25.6295   21.1219 H   0  0  0  0  0  0
  -19.6715  -27.3195   20.6711 H   0  0  0  0  0  0
  -17.4207  -26.6661   21.4002 H   0  0  0  0  0  0
  -18.0359  -26.0033   22.8982 H   0  0  0  0  0  0
  -19.7928  -30.7224   24.2303 H   0  0  0  0  0  0
  -17.5027  -31.6273   24.5152 H   0  0  0  0  0  0
  -15.5371  -30.2988   23.7655 H   0  0  0  0  0  0
  -15.8657  -28.0822   22.7071 H   0  0  0  0  0  0
  -24.5929  -30.6976   25.7833 H   0  0  0  0  0  0
  -24.8928  -32.2762   26.4981 H   0  0  0  0  0  0
  -25.8125  -30.8777   27.0211 H   0  0  0  0  0  0
  -26.2798  -29.6788   24.1140 H   0  0  0  0  0  0
  -27.4130  -29.7246   25.4456 H   0  0  0  0  0  0
  -27.8593  -30.4381   23.9116 H   0  0  0  0  0  0
  -27.2671  -33.3584   26.2069 H   0  0  0  0  0  0
  -28.3807  -32.6871   25.0246 H   0  0  0  0  0  0
  -28.0742  -31.8389   26.5336 H   0  0  0  0  0  0
  -28.2579  -38.0120   24.7525 H   0  0  0  0  0  0
  -28.1097  -36.2661   24.6268 H   0  0  0  0  0  0
  -27.2303  -37.1429   25.8858 H   0  0  0  0  0  0
  -20.9242  -29.8813   21.7007 H   0  0  0  0  0  0
  -26.0174  -38.2842   24.1434 H   0  0  0  0  0  0
  -33.2008  -16.9109   20.8142 H   0  0  0  0  0  0
  -30.1411  -19.5607   22.3314 H   0  0  0  0  0  0
  -34.9543  -18.5287   19.2715 H   0  0  0  0  0  0
  -34.0153  -19.3429   18.0189 H   0  0  0  0  0  0
  -33.8452  -17.6008   18.2609 H   0  0  0  0  0  0
  -28.4367  -23.3163   17.6338 H   0  0  0  0  0  0
  -28.2626  -22.3314   19.0877 H   0  0  0  0  0  0
  -29.3654  -21.8431   17.8005 H   0  0  0  0  0  0
  -30.2723  -17.2691   23.2065 H   0  0  0  0  0  0
  -31.9228  -17.4865   23.7067 H   0  0  0  0  0  0
  -29.4066  -24.1757   20.9669 H   0  0  0  0  0  0
  -30.5121  -25.2613   20.1721 H   0  0  0  0  0  0
  -31.5888  -15.1681   23.6850 H   0  0  0  0  0  0
  -32.6166  -15.4535   22.3363 H   0  0  0  0  0  0
  -31.9125  -23.0901   20.2073 H   0  0  0  0  0  0
  -31.7197  -22.0962   18.7954 H   0  0  0  0  0  0
  -27.5760  -24.8441   19.7042 H   0  0  0  0  0  0
  -28.5255  -25.5735   18.4053 H   0  0  0  0  0  0
  -30.6437  -24.0026   18.2174 H   0  0  0  0  0  0
  -29.9190  -21.7179   21.1722 H   0  0  0  0  0  0
  -29.7984  -14.5364   22.4223 H   0  0  0  0  0  0
  1 25  1  0  0  0
  1 30  2  0  0  0
  1 86  1  0  0  0
  2  3  1  0  0  0
  2 25  1  0  0  0
  2 87  1  0  0  0
  2 88  1  0  0  0
  3  4  1  0  0  0
  3 89  1  0  0  0
  3 90  1  0  0  0
  4  5  1  0  0  0
  4 91  1  0  0  0
  4 92  1  0  0  0
  5  6  1  0  0  0
  5 26  1  0  0  0
  5 93  1  0  0  0
  6 25  1  0  0  0
  6 94  1  0  0  0
  6 95  1  0  0  0
  7  8  2  0  0  0
  7 26  1  0  0  0
  7 29  1  0  0  0
  8  9  1  0  0  0
  8 22  1  0  0  0
  9 10  1  0  0  0
  9 27  2  0  0  0
 10 11  2  0  0  0
 10 15  1  0  0  0
 11 12  1  0  0  0
 11 96  1  0  0  0
 12 13  2  0  0  0
 12 97  1  0  0  0
 13 14  1  0  0  0
 13 31  1  0  0  0
 14 15  2  0  0  0
 14 98  1  0  0  0
 15 99  1  0  0  0
 16 17  2  0  0  0
 16 21  1  0  0  0
 16 31  1  0  0  0
 17 18  1  0  0  0
 17100  1  0  0  0
 18 19  2  0  0  0
 18101  1  0  0  0
 19 20  1  0  0  0
 19 24  1  0  0  0
 20 21  2  0  0  0
 20102  1  0  0  0
 21 23  1  0  0  0
 22 28  1  0  0  0
 22 32  2  0  0  0
 26 27  1  0  0  0
 28103  1  0  0  0
 28104  1  0  0  0
 29105  1  0  0  0
 29106  1  0  0  0
 33 34  1  0  0  0
 33 66  1  0  0  0
 33 70  2  0  0  0
 34 36  1  0  0  0
 34 59  1  0  0  0
 34107  1  0  0  0
 35 44  2  0  0  0
 35 45  1  0  0  0
 35 68  1  0  0  0
 36 56  1  0  0  0
 36108  1  0  0  0
 37 39  1  0  0  0
 37 47  1  0  0  0
 37 66  1  0  0  0
 37109  1  0  0  0
 38 43  2  0  0  0
 38 46  1  0  0  0
 38 47  1  0  0  0
 39 64  1  0  0  0
 39 67  2  0  0  0
 40 52  1  0  0  0
 40 53  2  0  0  0
 40 58  1  0  0  0
 41110  1  0  0  0
 41111  1  0  0  0
 41112  1  0  0  0
 41 48  1  0  0  0
 42 43  1  0  0  0
 42 66  1  0  0  0
 42113  1  0  0  0
 42114  1  0  0  0
 43 44  1  0  0  0
 44115  1  0  0  0
 45 46  2  0  0  0
 45116  1  0  0  0
 46117  1  0  0  0
 47118  1  0  0  0
 47119  1  0  0  0
 48 56  1  0  0  0
 48 65  1  0  0  0
 48120  1  0  0  0
 49 50  1  0  0  0
 49 53  1  0  0  0
 49 64  1  0  0  0
 49121  1  0  0  0
 50 51  1  0  0  0
 50122  1  0  0  0
 50123  1  0  0  0
 51 52  1  0  0  0
 51124  1  0  0  0
 51125  1  0  0  0
 52126  1  0  0  0
 52127  1  0  0  0
 53 54  1  0  0  0
 54 55  2  0  0  0
 54128  1  0  0  0
 55 57  1  0  0  0
 55129  1  0  0  0
 56 69  2  0  0  0
 57 58  2  0  0  0
 57130  1  0  0  0
 58131  1  0  0  0
 59 60  1  0  0  0
 59 61  1  0  0  0
 59 62  1  0  0  0
 60132  1  0  0  0
 60133  1  0  0  0
 60134  1  0  0  0
 61135  1  0  0  0
 61136  1  0  0  0
 61137  1  0  0  0
 62138  1  0  0  0
 62139  1  0  0  0
 62140  1  0  0  0
 63 65  1  0  0  0
 63141  1  0  0  0
 63142  1  0  0  0
 63143  1  0  0  0
 64144  1  0  0  0
 65145  1  0  0  0
 68 82  1  0  0  0
 71 73  2  0  0  0
 71 74  1  0  0  0
 71146  1  0  0  0
 72 73  1  0  0  0
 72 75  2  0  0  0
 72147  1  0  0  0
 73 78  1  0  0  0
 74 76  1  0  0  0
 74 84  2  0  0  0
 75 84  1  0  0  0
 75 85  1  0  0  0
 76148  1  0  0  0
 76149  1  0  0  0
 76150  1  0  0  0
 77151  1  0  0  0
 77152  1  0  0  0
 77153  1  0  0  0
 77 83  1  0  0  0
 78 80  1  0  0  0
 78154  1  0  0  0
 78155  1  0  0  0
 79 82  1  0  0  0
 79 83  1  0  0  0
 79156  1  0  0  0
 79157  1  0  0  0
 80 86  1  0  0  0
 80158  1  0  0  0
 80159  1  0  0  0
 81 83  1  0  0  0
 81 85  1  0  0  0
 81160  1  0  0  0
 81161  1  0  0  0
 82162  1  0  0  0
 82163  1  0  0  0
 83164  1  0  0  0
 85165  1  0  0  0
 86166  1  0  0  0
M  ISO  4   1 100  68 101  82 101  86 100
M  END
> <chiral flag>
0

> <version>
0

> <s_m_source_file>
/data/baiqing/PycharmProjects/Reinvent-master-3.2/result/LINK_invent/BTK/process_docking_weight1_custom_sum_contain_oxygen_bond_distance_aromatic_linkinvent_7_9_3/rearranged_h_0089.sdf

> <i_m_source_file_index>
55

> <r_mmod_Potential_Energy-OPLS-2005>
-284.731201171875

> <r_mmod_Stretch_Energy-OPLS-2005>
34.4094200134277

> <r_mmod_Bend_Energy-OPLS-2005>
116.092903137207

> <r_mmod_Torsional_Energy-OPLS-2005>
220.075622558594

> <r_mmod_Improper_Torsional_Energy-OPLS-2005>
5.66083145141602

> <r_mmod_Van_der_Waal_Energy-OPLS-2005>
166.747116088867

> <r_mmod_Electrostatic_Energy-OPLS-2005>
-604.514770507812

> <r_mmod_Solvation_Energy-OPLS-2005>
-233.074630737305

> <b_mmod_Minimization_Converged-OPLS-2005>
0

> <r_mmod_RMS_Derivative-OPLS-2005>
3.42967557907104

$$$$
56
                    3D
 Structure written by MMmdl.
170178  0  0  1  0            999 V2000
  -30.6129  -14.6928   20.4920 C   0  0  0  0  0  0
  -30.4338  -12.4292   19.4606 C   0  0  0  0  0  0
  -29.5099  -12.5160   18.2273 C   0  0  0  0  0  0
  -28.0344  -12.3385   18.6396 C   0  0  0  0  0  0
  -27.6486  -13.2231   19.8570 C   0  0  2  0  0  0
  -28.6919  -13.1148   20.9911 C   0  0  0  0  0  0
  -25.2546  -13.8198   20.5705 C   0  0  0  0  0  0
  -24.1831  -13.0437   20.9207 C   0  0  0  0  0  0
  -24.6408  -11.6912   20.8749 C   0  0  0  0  0  0
  -23.9095  -10.4291   21.0418 C   0  0  0  0  0  0
  -24.3651   -9.4205   21.9186 C   0  0  0  0  0  0
  -23.6308   -8.2247   22.0765 C   0  0  0  0  0  0
  -22.4303   -8.0275   21.3560 C   0  0  0  0  0  0
  -21.9935   -9.0254   20.4655 C   0  0  0  0  0  0
  -22.7268  -10.2125   20.3056 C   0  0  0  0  0  0
  -21.6840   -6.0762   22.5291 C   0  0  0  0  0  0
  -21.4009   -6.5658   23.8214 C   0  0  0  0  0  0
  -21.3661   -5.6799   24.9174 C   0  0  0  0  0  0
  -21.6042   -4.3065   24.7211 C   0  0  0  0  0  0
  -21.8817   -3.8170   23.4335 C   0  0  0  0  0  0
  -21.9201   -4.6994   22.3402 C   0  0  0  0  0  0
  -22.7856  -13.5225   21.1851 C   0  0  0  0  0  0
  -22.1655   -4.2193   21.0968 F   0  0  0  0  0  0
  -21.5637   -3.4541   25.7720 F   0  0  0  0  0  0
  -29.9979  -13.4682   20.4201 N   0  0  0  0  0  0
  -26.2972  -12.9382   20.3312 N   0  0  0  0  0  0
  -25.9328  -11.6536   20.5753 N   0  0  0  0  0  0
  -22.0484  -12.8224   22.0389 N   0  0  0  0  0  0
  -25.4205  -15.1912   20.4121 N   0  0  0  0  0  0
  -31.7831  -14.8278   20.1159 O   0  0  0  0  0  0
  -21.6635   -6.8903   21.4245 O   0  0  0  0  0  0
  -22.3541  -14.5536   20.6674 O   0  0  0  0  0  0
  -24.6339  -31.8542   23.1944 C   0  0  0  0  0  0
  -25.9142  -32.4741   23.8291 C   0  0  1  0  0  0
  -27.2159  -27.2804   20.1093 C   0  0  0  0  0  0
  -25.5927  -33.8530   24.2223 N   0  0  0  0  0  0
  -23.4283  -30.4802   21.5364 C   0  0  2  0  0  0
  -24.8692  -28.9169   20.1133 C   0  0  0  0  0  0
  -22.7489  -29.4661   22.4881 C   0  0  0  0  0  0
  -18.0297  -28.1430   22.8456 C   0  0  0  0  0  0
  -24.1498  -36.7269   23.2640 C   0  0  0  0  0  0
  -25.9738  -30.7737   21.3682 C   0  0  0  0  0  0
  -26.0435  -29.3963   20.7103 C   0  0  0  0  0  0
  -27.2232  -28.5898   20.6936 C   0  0  0  0  0  0
  -26.0205  -26.8588   19.4952 C   0  0  0  0  0  0
  -24.8598  -27.6545   19.5008 C   0  0  0  0  0  0
  -23.6447  -29.8073   20.1561 C   0  0  0  0  0  0
  -25.4117  -36.3045   24.0321 C   0  0  1  0  0  0
  -20.5911  -28.3754   23.1252 C   0  0  2  0  0  0
  -20.6801  -26.9460   22.5410 C   0  0  0  0  0  0
  -19.5780  -26.6405   21.5222 C   0  0  0  0  0  0
  -18.1958  -26.7970   22.1606 C   0  0  0  0  0  0
  -19.1559  -28.8888   23.2874 C   0  0  0  0  0  0
  -18.9481  -30.1483   23.8895 C   0  0  0  0  0  0
  -17.6483  -30.6617   24.0557 C   0  0  0  0  0  0
  -25.9055  -34.9430   23.5076 C   0  0  0  0  0  0
  -16.5374  -29.9121   23.6314 C   0  0  0  0  0  0
  -16.7284  -28.6552   23.0316 C   0  0  0  0  0  0
  -26.4495  -31.6551   25.0678 C   0  0  0  0  0  0
  -25.3700  -31.3739   26.1381 C   0  0  0  0  0  0
  -27.0340  -30.2961   24.6181 C   0  0  0  0  0  0
  -27.6050  -32.4286   25.7477 C   0  0  0  0  0  0
  -27.5578  -37.1779   24.8452 C   0  0  0  0  0  0
  -21.4194  -29.3099   22.3618 N   0  0  0  0  0  0
  -26.4271  -37.3766   23.9412 N   0  0  0  0  0  0
  -24.6984  -31.0534   22.0904 N   0  0  0  0  0  0
  -23.4183  -28.8197   23.2990 O   0  0  0  0  0  0
  -28.3194  -26.4117   20.0914 O   0  0  0  0  0  0
  -26.5653  -34.8914   22.4669 O   0  0  0  0  0  0
  -23.5489  -32.1345   23.7248 O   0  0  0  0  0  0
  -28.7887  -21.0486   20.3482 C   0  0  0  0  0  0
  -29.5921  -19.9954   20.9514 C   0  0  0  0  0  0
  -30.7641  -20.4553   21.6223 C   0  0  0  0  0  0
  -29.1997  -22.4400   20.3594 C   0  0  0  0  0  0
  -31.1442  -21.8194   21.4991 C   0  0  0  0  0  0
  -31.5933  -19.5203   22.5013 C   0  0  0  0  0  0
  -32.0848  -25.9787   23.6577 C   0  0  0  0  0  0
  -27.4601  -23.3262   18.6329 C   0  0  0  0  0  0
  -29.1755  -18.4473   20.9900 C   0  0  0  0  0  0
  -32.4585  -22.4029   22.0048 C   0  0  0  0  0  0
  -32.1234  -24.9118   22.5569 C   0  0  0  0  0  0
  -32.2709  -23.4738   23.1014 C   0  0  0  0  0  0
  -30.2116  -17.2655   20.5859 C   0  0  0  0  0  0
  -28.1398  -24.9933   20.5396 C   0  0  0  0  0  0
  -28.5607  -23.7115   19.6410 C   0  0  1  0  0  0
  -30.3941  -22.7418   20.8800 N   0  0  0  0  0  0
  -29.8380  -15.8001   20.7803 N   0  0  0  0  0  0
  -31.4748  -12.5578   19.1584 H   0  0  0  0  0  0
  -30.3726  -11.4402   19.9166 H   0  0  0  0  0  0
  -29.7905  -11.7588   17.4931 H   0  0  0  0  0  0
  -29.6381  -13.4803   17.7337 H   0  0  0  0  0  0
  -27.8861  -11.2867   18.8858 H   0  0  0  0  0  0
  -27.3791  -12.5510   17.7960 H   0  0  0  0  0  0
  -27.6551  -14.2523   19.4984 H   0  0  0  0  0  0
  -28.7214  -12.1019   21.3963 H   0  0  0  0  0  0
  -28.4345  -13.7731   21.8232 H   0  0  0  0  0  0
  -25.2802   -9.5695   22.4756 H   0  0  0  0  0  0
  -24.0034   -7.4648   22.7476 H   0  0  0  0  0  0
  -21.0883   -8.8765   19.8944 H   0  0  0  0  0  0
  -22.3737  -10.9667   19.6167 H   0  0  0  0  0  0
  -21.1977   -7.6160   23.9751 H   0  0  0  0  0  0
  -21.1484   -6.0514   25.9084 H   0  0  0  0  0  0
  -22.0606   -2.7636   23.2808 H   0  0  0  0  0  0
  -22.4067  -11.9865   22.4789 H   0  0  0  0  0  0
  -21.1095  -13.1258   22.2562 H   0  0  0  0  0  0
  -24.6459  -15.8373   20.5159 H   0  0  0  0  0  0
  -26.2601  -15.6341   20.0606 H   0  0  0  0  0  0
  -26.7202  -32.5352   23.1032 H   0  0  0  0  0  0
  -25.0052  -33.9679   25.0354 H   0  0  0  0  0  0
  -22.7307  -31.3046   21.3808 H   0  0  0  0  0  0
  -23.3774  -35.9592   23.3274 H   0  0  0  0  0  0
  -24.3603  -36.8931   22.2066 H   0  0  0  0  0  0
  -23.7264  -37.6461   23.6685 H   0  0  0  0  0  0
  -26.1143  -31.5343   20.5972 H   0  0  0  0  0  0
  -26.8556  -30.8218   21.9959 H   0  0  0  0  0  0
  -28.1288  -28.9535   21.1570 H   0  0  0  0  0  0
  -25.9788  -25.8932   19.0142 H   0  0  0  0  0  0
  -23.9577  -27.2810   19.0357 H   0  0  0  0  0  0
  -23.7749  -30.5766   19.3946 H   0  0  0  0  0  0
  -22.7624  -29.2455   19.8401 H   0  0  0  0  0  0
  -25.1335  -36.1854   25.0816 H   0  0  0  0  0  0
  -21.0013  -28.3318   24.1368 H   0  0  0  0  0  0
  -20.5729  -26.2358   23.3633 H   0  0  0  0  0  0
  -21.6660  -26.7506   22.1171 H   0  0  0  0  0  0
  -19.6943  -25.6319   21.1258 H   0  0  0  0  0  0
  -19.6688  -27.3189   20.6748 H   0  0  0  0  0  0
  -17.4218  -26.6706   21.4012 H   0  0  0  0  0  0
  -18.0320  -26.0164   22.9049 H   0  0  0  0  0  0
  -19.7982  -30.7302   24.2242 H   0  0  0  0  0  0
  -17.5057  -31.6279   24.5208 H   0  0  0  0  0  0
  -15.5384  -30.3032   23.7674 H   0  0  0  0  0  0
  -15.8692  -28.0893   22.7004 H   0  0  0  0  0  0
  -24.5902  -30.7067   25.7693 H   0  0  0  0  0  0
  -24.8872  -32.2933   26.4692 H   0  0  0  0  0  0
  -25.7991  -30.8976   27.0204 H   0  0  0  0  0  0
  -26.2905  -29.6713   24.1215 H   0  0  0  0  0  0
  -27.4039  -29.7225   25.4695 H   0  0  0  0  0  0
  -27.8780  -30.4259   23.9411 H   0  0  0  0  0  0
  -27.2654  -33.3615   26.1997 H   0  0  0  0  0  0
  -28.3899  -32.6778   25.0318 H   0  0  0  0  0  0
  -28.0658  -31.8421   26.5446 H   0  0  0  0  0  0
  -28.2555  -38.0111   24.7522 H   0  0  0  0  0  0
  -28.1116  -36.2637   24.6238 H   0  0  0  0  0  0
  -27.2295  -37.1379   25.8854 H   0  0  0  0  0  0
  -20.9362  -29.8790   21.6793 H   0  0  0  0  0  0
  -26.0136  -38.2834   24.1423 H   0  0  0  0  0  0
  -27.8525  -20.7884   19.8724 H   0  0  0  0  0  0
  -30.9764  -18.7512   22.9664 H   0  0  0  0  0  0
  -32.0517  -20.0493   23.3368 H   0  0  0  0  0  0
  -32.3858  -19.0411   21.9247 H   0  0  0  0  0  0
  -32.1155  -26.9791   23.2258 H   0  0  0  0  0  0
  -32.9361  -25.8850   24.3323 H   0  0  0  0  0  0
  -31.1733  -25.9120   24.2536 H   0  0  0  0  0  0
  -27.7526  -22.4715   18.0206 H   0  0  0  0  0  0
  -27.2583  -24.1445   17.9397 H   0  0  0  0  0  0
  -26.5263  -23.0740   19.1334 H   0  0  0  0  0  0
  -28.2855  -18.3412   20.3709 H   0  0  0  0  0  0
  -28.8316  -18.2526   22.0082 H   0  0  0  0  0  0
  -32.9855  -22.8301   21.1505 H   0  0  0  0  0  0
  -33.1301  -21.6238   22.3570 H   0  0  0  0  0  0
  -32.9582  -25.1260   21.8891 H   0  0  0  0  0  0
  -31.2218  -25.0028   21.9502 H   0  0  0  0  0  0
  -33.1537  -23.4476   23.7389 H   0  0  0  0  0  0
  -31.4294  -23.2033   23.7407 H   0  0  0  0  0  0
  -31.1504  -17.3896   21.1191 H   0  0  0  0  0  0
  -30.4693  -17.3939   19.5353 H   0  0  0  0  0  0
  -28.7471  -24.9495   21.4435 H   0  0  0  0  0  0
  -27.1257  -24.8413   20.9073 H   0  0  0  0  0  0
  -29.3915  -24.0712   19.0299 H   0  0  0  0  0  0
  -28.8910  -15.6050   21.0788 H   0  0  0  0  0  0
  1 25  1  0  0  0
  1 30  2  0  0  0
  1 87  1  0  0  0
  2  3  1  0  0  0
  2 25  1  0  0  0
  2 88  1  0  0  0
  2 89  1  0  0  0
  3  4  1  0  0  0
  3 90  1  0  0  0
  3 91  1  0  0  0
  4  5  1  0  0  0
  4 92  1  0  0  0
  4 93  1  0  0  0
  5  6  1  0  0  0
  5 26  1  0  0  0
  5 94  1  0  0  0
  6 25  1  0  0  0
  6 95  1  0  0  0
  6 96  1  0  0  0
  7  8  2  0  0  0
  7 26  1  0  0  0
  7 29  1  0  0  0
  8  9  1  0  0  0
  8 22  1  0  0  0
  9 10  1  0  0  0
  9 27  2  0  0  0
 10 11  2  0  0  0
 10 15  1  0  0  0
 11 12  1  0  0  0
 11 97  1  0  0  0
 12 13  2  0  0  0
 12 98  1  0  0  0
 13 14  1  0  0  0
 13 31  1  0  0  0
 14 15  2  0  0  0
 14 99  1  0  0  0
 15100  1  0  0  0
 16 17  2  0  0  0
 16 21  1  0  0  0
 16 31  1  0  0  0
 17 18  1  0  0  0
 17101  1  0  0  0
 18 19  2  0  0  0
 18102  1  0  0  0
 19 20  1  0  0  0
 19 24  1  0  0  0
 20 21  2  0  0  0
 20103  1  0  0  0
 21 23  1  0  0  0
 22 28  1  0  0  0
 22 32  2  0  0  0
 26 27  1  0  0  0
 28104  1  0  0  0
 28105  1  0  0  0
 29106  1  0  0  0
 29107  1  0  0  0
 33 34  1  0  0  0
 33 66  1  0  0  0
 33 70  2  0  0  0
 34 36  1  0  0  0
 34 59  1  0  0  0
 34108  1  0  0  0
 35 44  2  0  0  0
 35 45  1  0  0  0
 35 68  1  0  0  0
 36 56  1  0  0  0
 36109  1  0  0  0
 37 39  1  0  0  0
 37 47  1  0  0  0
 37 66  1  0  0  0
 37110  1  0  0  0
 38 43  2  0  0  0
 38 46  1  0  0  0
 38 47  1  0  0  0
 39 64  1  0  0  0
 39 67  2  0  0  0
 40 52  1  0  0  0
 40 53  2  0  0  0
 40 58  1  0  0  0
 41111  1  0  0  0
 41112  1  0  0  0
 41113  1  0  0  0
 41 48  1  0  0  0
 42 43  1  0  0  0
 42 66  1  0  0  0
 42114  1  0  0  0
 42115  1  0  0  0
 43 44  1  0  0  0
 44116  1  0  0  0
 45 46  2  0  0  0
 45117  1  0  0  0
 46118  1  0  0  0
 47119  1  0  0  0
 47120  1  0  0  0
 48 56  1  0  0  0
 48 65  1  0  0  0
 48121  1  0  0  0
 49 50  1  0  0  0
 49 53  1  0  0  0
 49 64  1  0  0  0
 49122  1  0  0  0
 50 51  1  0  0  0
 50123  1  0  0  0
 50124  1  0  0  0
 51 52  1  0  0  0
 51125  1  0  0  0
 51126  1  0  0  0
 52127  1  0  0  0
 52128  1  0  0  0
 53 54  1  0  0  0
 54 55  2  0  0  0
 54129  1  0  0  0
 55 57  1  0  0  0
 55130  1  0  0  0
 56 69  2  0  0  0
 57 58  2  0  0  0
 57131  1  0  0  0
 58132  1  0  0  0
 59 60  1  0  0  0
 59 61  1  0  0  0
 59 62  1  0  0  0
 60133  1  0  0  0
 60134  1  0  0  0
 60135  1  0  0  0
 61136  1  0  0  0
 61137  1  0  0  0
 61138  1  0  0  0
 62139  1  0  0  0
 62140  1  0  0  0
 62141  1  0  0  0
 63 65  1  0  0  0
 63142  1  0  0  0
 63143  1  0  0  0
 63144  1  0  0  0
 64145  1  0  0  0
 65146  1  0  0  0
 68 84  1  0  0  0
 71 72  2  0  0  0
 71 74  1  0  0  0
 71147  1  0  0  0
 72 73  1  0  0  0
 72 79  1  0  0  0
 73 75  2  0  0  0
 73 76  1  0  0  0
 74 85  1  0  0  0
 74 86  2  0  0  0
 75 80  1  0  0  0
 75 86  1  0  0  0
 76148  1  0  0  0
 76149  1  0  0  0
 76150  1  0  0  0
 77 81  1  0  0  0
 77151  1  0  0  0
 77152  1  0  0  0
 77153  1  0  0  0
 78154  1  0  0  0
 78155  1  0  0  0
 78156  1  0  0  0
 78 85  1  0  0  0
 79 83  1  0  0  0
 79157  1  0  0  0
 79158  1  0  0  0
 80 82  1  0  0  0
 80159  1  0  0  0
 80160  1  0  0  0
 81 82  1  0  0  0
 81161  1  0  0  0
 81162  1  0  0  0
 82163  1  0  0  0
 82164  1  0  0  0
 83 87  1  0  0  0
 83165  1  0  0  0
 83166  1  0  0  0
 84 85  1  0  0  0
 84167  1  0  0  0
 84168  1  0  0  0
 85169  1  0  0  0
 87170  1  0  0  0
M  ISO  4   1 100  68 101  84 101  87 100
M  END
> <chiral flag>
0

> <version>
0

> <s_m_source_file>
/data/baiqing/PycharmProjects/Reinvent-master-3.2/result/LINK_invent/BTK/process_docking_weight1_custom_sum_contain_oxygen_bond_distance_aromatic_linkinvent_7_9_3/rearranged_h_0089.sdf

> <i_m_source_file_index>
56

> <r_mmod_Potential_Energy-OPLS-2005>
13.0598134994507

> <r_mmod_Stretch_Energy-OPLS-2005>
117.16529083252

> <r_mmod_Bend_Energy-OPLS-2005>
172.134689331055

> <r_mmod_Torsional_Energy-OPLS-2005>
224.599731445312

> <r_mmod_Improper_Torsional_Energy-OPLS-2005>
6.03847742080688

> <r_mmod_Van_der_Waal_Energy-OPLS-2005>
142.614944458008

> <r_mmod_Electrostatic_Energy-OPLS-2005>
-496.356292724609

> <r_mmod_Solvation_Energy-OPLS-2005>
-219.093658447266

> <b_mmod_Minimization_Converged-OPLS-2005>
0

> <r_mmod_RMS_Derivative-OPLS-2005>
4.78561639785767

$$$$
57
                    3D
 Structure written by MMmdl.
164172  0  0  1  0            999 V2000
  -30.6011  -14.7073   20.4596 C   0  0  0  0  0  0
  -30.4305  -12.4338   19.4615 C   0  0  0  0  0  0
  -29.5048  -12.5093   18.2286 C   0  0  0  0  0  0
  -28.0311  -12.3337   18.6446 C   0  0  0  0  0  0
  -27.6413  -13.2248   19.8539 C   0  0  2  0  0  0
  -28.6845  -13.1383   20.9880 C   0  0  0  0  0  0
  -25.2499  -13.8181   20.5676 C   0  0  0  0  0  0
  -24.1781  -13.0434   20.9200 C   0  0  0  0  0  0
  -24.6358  -11.6906   20.8731 C   0  0  0  0  0  0
  -23.9039  -10.4282   21.0388 C   0  0  0  0  0  0
  -24.3601   -9.4204   21.9162 C   0  0  0  0  0  0
  -23.6292   -8.2229   22.0750 C   0  0  0  0  0  0
  -22.4275   -8.0269   21.3544 C   0  0  0  0  0  0
  -21.9912   -9.0234   20.4652 C   0  0  0  0  0  0
  -22.7217  -10.2120   20.3047 C   0  0  0  0  0  0
  -21.6861   -6.0728   22.5271 C   0  0  0  0  0  0
  -21.4016   -6.5636   23.8203 C   0  0  0  0  0  0
  -21.3660   -5.6796   24.9164 C   0  0  0  0  0  0
  -21.6050   -4.3060   24.7214 C   0  0  0  0  0  0
  -21.8824   -3.8142   23.4336 C   0  0  0  0  0  0
  -21.9192   -4.6955   22.3393 C   0  0  0  0  0  0
  -22.7808  -13.5203   21.1877 C   0  0  0  0  0  0
  -22.1654   -4.2144   21.0967 F   0  0  0  0  0  0
  -21.5636   -3.4541   25.7723 F   0  0  0  0  0  0
  -29.9885  -13.4807   20.4078 N   0  0  0  0  0  0
  -26.2915  -12.9369   20.3284 N   0  0  0  0  0  0
  -25.9284  -11.6517   20.5746 N   0  0  0  0  0  0
  -22.0455  -12.8196   22.0444 N   0  0  0  0  0  0
  -25.4194  -15.1900   20.4031 N   0  0  0  0  0  0
  -31.7861  -14.8249   20.1347 O   0  0  0  0  0  0
  -21.6643   -6.8862   21.4234 O   0  0  0  0  0  0
  -22.3480  -14.5506   20.6723 O   0  0  0  0  0  0
  -24.6251  -31.8572   23.1985 C   0  0  0  0  0  0
  -25.9095  -32.4758   23.8326 C   0  0  1  0  0  0
  -27.2225  -27.2874   20.1278 C   0  0  0  0  0  0
  -25.5917  -33.8564   24.2240 N   0  0  0  0  0  0
  -23.4191  -30.4771   21.5419 C   0  0  2  0  0  0
  -24.8658  -28.9211   20.1133 C   0  0  0  0  0  0
  -22.7467  -29.4607   22.4942 C   0  0  0  0  0  0
  -18.0288  -28.1378   22.8492 C   0  0  0  0  0  0
  -24.1497  -36.7283   23.2641 C   0  0  0  0  0  0
  -25.9605  -30.7765   21.3739 C   0  0  0  0  0  0
  -26.0331  -29.4001   20.7185 C   0  0  0  0  0  0
  -27.2111  -28.5929   20.7172 C   0  0  0  0  0  0
  -26.0295  -26.8571   19.5097 C   0  0  0  0  0  0
  -24.8666  -27.6563   19.5034 C   0  0  0  0  0  0
  -23.6335  -29.8040   20.1598 C   0  0  0  0  0  0
  -25.4125  -36.3072   24.0322 C   0  0  1  0  0  0
  -20.5885  -28.3680   23.1294 C   0  0  2  0  0  0
  -20.6780  -26.9406   22.5423 C   0  0  0  0  0  0
  -19.5766  -26.6378   21.5217 C   0  0  0  0  0  0
  -18.1938  -26.7928   22.1615 C   0  0  0  0  0  0
  -19.1534  -28.8841   23.2883 C   0  0  0  0  0  0
  -18.9468  -30.1449   23.8893 C   0  0  0  0  0  0
  -17.6468  -30.6589   24.0556 C   0  0  0  0  0  0
  -25.9068  -34.9441   23.5084 C   0  0  0  0  0  0
  -16.5360  -29.9086   23.6336 C   0  0  0  0  0  0
  -16.7268  -28.6496   23.0366 C   0  0  0  0  0  0
  -26.4481  -31.6583   25.0705 C   0  0  0  0  0  0
  -25.3694  -31.3753   26.1422 C   0  0  0  0  0  0
  -27.0334  -30.3006   24.6176 C   0  0  0  0  0  0
  -27.6041  -32.4319   25.7471 C   0  0  0  0  0  0
  -27.5587  -37.1797   24.8463 C   0  0  0  0  0  0
  -21.4183  -29.3022   22.3671 N   0  0  0  0  0  0
  -26.4304  -37.3765   23.9405 N   0  0  0  0  0  0
  -24.6864  -31.0565   22.0940 N   0  0  0  0  0  0
  -23.4191  -28.8168   23.3042 O   0  0  0  0  0  0
  -28.3601  -26.4616   20.1994 O   0  0  0  0  0  0
  -26.5655  -34.8906   22.4664 O   0  0  0  0  0  0
  -23.5409  -32.1393   23.7301 O   0  0  0  0  0  0
  -28.6605  -21.1310   20.5322 C   0  0  0  0  0  0
  -29.1191  -22.5014   20.6583 C   0  0  0  0  0  0
  -30.5105  -22.6282   20.9434 C   0  0  0  0  0  0
  -29.5451  -19.9946   20.6546 C   0  0  0  0  0  0
  -31.3276  -21.4652   20.9950 C   0  0  0  0  0  0
  -31.1584  -23.9844   21.2219 C   0  0  0  0  0  0
  -33.5284  -21.6621   19.7650 C   0  0  0  0  0  0
  -27.7383  -24.1802   22.0539 C   0  0  0  0  0  0
  -29.1008  -18.4684   20.7147 C   0  0  0  0  0  0
  -32.8470  -21.5306   21.1343 C   0  0  0  0  0  0
  -30.1820  -17.2882   20.4595 C   0  0  0  0  0  0
  -28.4273  -25.0544   19.6974 C   0  0  0  0  0  0
  -28.1301  -23.7623   20.6278 C   0  0  1  0  0  0
  -30.8551  -20.2066   20.8661 N   0  0  0  0  0  0
  -29.8054  -15.8199   20.6539 N   0  0  0  0  0  0
  -31.4703  -12.5634   19.1565 H   0  0  0  0  0  0
  -30.3761  -11.4516   19.9304 H   0  0  0  0  0  0
  -29.7844  -11.7422   17.5061 H   0  0  0  0  0  0
  -29.6392  -13.4702   17.7280 H   0  0  0  0  0  0
  -27.8822  -11.2851   18.9021 H   0  0  0  0  0  0
  -27.3723  -12.5321   17.7977 H   0  0  0  0  0  0
  -27.6426  -14.2503   19.4873 H   0  0  0  0  0  0
  -28.7091  -12.1372   21.4203 H   0  0  0  0  0  0
  -28.4280  -13.8181   21.8010 H   0  0  0  0  0  0
  -25.2731   -9.5699   22.4747 H   0  0  0  0  0  0
  -24.0020   -7.4624   22.7467 H   0  0  0  0  0  0
  -21.0852   -8.8716   19.8966 H   0  0  0  0  0  0
  -22.3632  -10.9648   19.6169 H   0  0  0  0  0  0
  -21.2004   -7.6145   23.9708 H   0  0  0  0  0  0
  -21.1493   -6.0516   25.9069 H   0  0  0  0  0  0
  -22.0609   -2.7612   23.2825 H   0  0  0  0  0  0
  -22.4056  -11.9848   22.4838 H   0  0  0  0  0  0
  -21.1075  -13.1235   22.2661 H   0  0  0  0  0  0
  -24.6549  -15.8475   20.5084 H   0  0  0  0  0  0
  -26.2623  -15.6232   20.0499 H   0  0  0  0  0  0
  -26.7147  -32.5392   23.1062 H   0  0  0  0  0  0
  -25.0036  -33.9734   25.0360 H   0  0  0  0  0  0
  -22.7112  -31.2956   21.3968 H   0  0  0  0  0  0
  -23.3762  -35.9615   23.3298 H   0  0  0  0  0  0
  -24.3580  -36.8918   22.2059 H   0  0  0  0  0  0
  -23.7254  -37.6483   23.6667 H   0  0  0  0  0  0
  -26.0974  -31.5384   20.6056 H   0  0  0  0  0  0
  -26.8373  -30.8265   22.0075 H   0  0  0  0  0  0
  -28.1039  -28.9539   21.2085 H   0  0  0  0  0  0
  -25.9564  -25.8839   19.0506 H   0  0  0  0  0  0
  -23.9665  -27.2756   19.0404 H   0  0  0  0  0  0
  -23.7477  -30.5755   19.3977 H   0  0  0  0  0  0
  -22.7517  -29.2326   19.8636 H   0  0  0  0  0  0
  -25.1309  -36.1928   25.0819 H   0  0  0  0  0  0
  -20.9973  -28.3263   24.1418 H   0  0  0  0  0  0
  -20.5695  -26.2288   23.3621 H   0  0  0  0  0  0
  -21.6650  -26.7459   22.1211 H   0  0  0  0  0  0
  -19.6943  -25.6288   21.1254 H   0  0  0  0  0  0
  -19.6723  -27.3175   20.6736 H   0  0  0  0  0  0
  -17.4227  -26.6685   21.4001 H   0  0  0  0  0  0
  -18.0333  -26.0057   22.8992 H   0  0  0  0  0  0
  -19.7943  -30.7260   24.2263 H   0  0  0  0  0  0
  -17.5029  -31.6276   24.5150 H   0  0  0  0  0  0
  -15.5357  -30.2986   23.7668 H   0  0  0  0  0  0
  -15.8672  -28.0806   22.7100 H   0  0  0  0  0  0
  -24.5848  -30.7139   25.7737 H   0  0  0  0  0  0
  -24.8910  -32.2940   26.4823 H   0  0  0  0  0  0
  -25.7988  -30.8926   27.0213 H   0  0  0  0  0  0
  -26.2923  -29.6751   24.1190 H   0  0  0  0  0  0
  -27.4034  -29.7270   25.4688 H   0  0  0  0  0  0
  -27.8779  -30.4302   23.9401 H   0  0  0  0  0  0
  -27.2655  -33.3614   26.2061 H   0  0  0  0  0  0
  -28.3838  -32.6901   25.0290 H   0  0  0  0  0  0
  -28.0722  -31.8439   26.5382 H   0  0  0  0  0  0
  -28.2604  -38.0094   24.7502 H   0  0  0  0  0  0
  -28.1087  -36.2628   24.6291 H   0  0  0  0  0  0
  -27.2303  -37.1436   25.8865 H   0  0  0  0  0  0
  -20.9362  -29.8702   21.6847 H   0  0  0  0  0  0
  -26.0183  -38.2846   24.1393 H   0  0  0  0  0  0
  -27.6060  -20.9414   20.3892 H   0  0  0  0  0  0
  -30.4540  -24.7983   21.3570 H   0  0  0  0  0  0
  -31.8385  -24.2565   20.4151 H   0  0  0  0  0  0
  -31.7246  -23.9509   22.1525 H   0  0  0  0  0  0
  -34.6145  -21.6851   19.8561 H   0  0  0  0  0  0
  -33.2169  -22.5787   19.2662 H   0  0  0  0  0  0
  -33.2627  -20.8255   19.1185 H   0  0  0  0  0  0
  -27.3125  -23.3383   22.5986 H   0  0  0  0  0  0
  -26.9880  -24.9719   22.0345 H   0  0  0  0  0  0
  -28.5908  -24.5402   22.6272 H   0  0  0  0  0  0
  -28.2803  -18.3540   20.0060 H   0  0  0  0  0  0
  -28.6522  -18.3241   21.6983 H   0  0  0  0  0  0
  -33.2066  -20.6231   21.6216 H   0  0  0  0  0  0
  -33.1629  -22.3378   21.7924 H   0  0  0  0  0  0
  -31.0331  -17.4767   21.1146 H   0  0  0  0  0  0
  -30.5701  -17.3959   19.4445 H   0  0  0  0  0  0
  -27.8665  -24.9597   18.7680 H   0  0  0  0  0  0
  -29.4516  -24.9548   19.3405 H   0  0  0  0  0  0
  -27.2071  -23.3556   20.2106 H   0  0  0  0  0  0
  -28.8362  -15.6251   20.8603 H   0  0  0  0  0  0
  1 25  1  0  0  0
  1 30  2  0  0  0
  1 85  1  0  0  0
  2  3  1  0  0  0
  2 25  1  0  0  0
  2 86  1  0  0  0
  2 87  1  0  0  0
  3  4  1  0  0  0
  3 88  1  0  0  0
  3 89  1  0  0  0
  4  5  1  0  0  0
  4 90  1  0  0  0
  4 91  1  0  0  0
  5  6  1  0  0  0
  5 26  1  0  0  0
  5 92  1  0  0  0
  6 25  1  0  0  0
  6 93  1  0  0  0
  6 94  1  0  0  0
  7  8  2  0  0  0
  7 26  1  0  0  0
  7 29  1  0  0  0
  8  9  1  0  0  0
  8 22  1  0  0  0
  9 10  1  0  0  0
  9 27  2  0  0  0
 10 11  2  0  0  0
 10 15  1  0  0  0
 11 12  1  0  0  0
 11 95  1  0  0  0
 12 13  2  0  0  0
 12 96  1  0  0  0
 13 14  1  0  0  0
 13 31  1  0  0  0
 14 15  2  0  0  0
 14 97  1  0  0  0
 15 98  1  0  0  0
 16 17  2  0  0  0
 16 21  1  0  0  0
 16 31  1  0  0  0
 17 18  1  0  0  0
 17 99  1  0  0  0
 18 19  2  0  0  0
 18100  1  0  0  0
 19 20  1  0  0  0
 19 24  1  0  0  0
 20 21  2  0  0  0
 20101  1  0  0  0
 21 23  1  0  0  0
 22 28  1  0  0  0
 22 32  2  0  0  0
 26 27  1  0  0  0
 28102  1  0  0  0
 28103  1  0  0  0
 29104  1  0  0  0
 29105  1  0  0  0
 33 34  1  0  0  0
 33 66  1  0  0  0
 33 70  2  0  0  0
 34 36  1  0  0  0
 34 59  1  0  0  0
 34106  1  0  0  0
 35 44  2  0  0  0
 35 45  1  0  0  0
 35 68  1  0  0  0
 36 56  1  0  0  0
 36107  1  0  0  0
 37 39  1  0  0  0
 37 47  1  0  0  0
 37 66  1  0  0  0
 37108  1  0  0  0
 38 43  2  0  0  0
 38 46  1  0  0  0
 38 47  1  0  0  0
 39 64  1  0  0  0
 39 67  2  0  0  0
 40 52  1  0  0  0
 40 53  2  0  0  0
 40 58  1  0  0  0
 41109  1  0  0  0
 41110  1  0  0  0
 41111  1  0  0  0
 41 48  1  0  0  0
 42 43  1  0  0  0
 42 66  1  0  0  0
 42112  1  0  0  0
 42113  1  0  0  0
 43 44  1  0  0  0
 44114  1  0  0  0
 45 46  2  0  0  0
 45115  1  0  0  0
 46116  1  0  0  0
 47117  1  0  0  0
 47118  1  0  0  0
 48 56  1  0  0  0
 48 65  1  0  0  0
 48119  1  0  0  0
 49 50  1  0  0  0
 49 53  1  0  0  0
 49 64  1  0  0  0
 49120  1  0  0  0
 50 51  1  0  0  0
 50121  1  0  0  0
 50122  1  0  0  0
 51 52  1  0  0  0
 51123  1  0  0  0
 51124  1  0  0  0
 52125  1  0  0  0
 52126  1  0  0  0
 53 54  1  0  0  0
 54 55  2  0  0  0
 54127  1  0  0  0
 55 57  1  0  0  0
 55128  1  0  0  0
 56 69  2  0  0  0
 57 58  2  0  0  0
 57129  1  0  0  0
 58130  1  0  0  0
 59 60  1  0  0  0
 59 61  1  0  0  0
 59 62  1  0  0  0
 60131  1  0  0  0
 60132  1  0  0  0
 60133  1  0  0  0
 61134  1  0  0  0
 61135  1  0  0  0
 61136  1  0  0  0
 62137  1  0  0  0
 62138  1  0  0  0
 62139  1  0  0  0
 63 65  1  0  0  0
 63140  1  0  0  0
 63141  1  0  0  0
 63142  1  0  0  0
 64143  1  0  0  0
 65144  1  0  0  0
 68 82  1  0  0  0
 71 72  2  0  0  0
 71 74  1  0  0  0
 71145  1  0  0  0
 72 73  1  0  0  0
 72 83  1  0  0  0
 73 75  2  0  0  0
 73 76  1  0  0  0
 74 79  1  0  0  0
 74 84  2  0  0  0
 75 80  1  0  0  0
 75 84  1  0  0  0
 76146  1  0  0  0
 76147  1  0  0  0
 76148  1  0  0  0
 77 80  1  0  0  0
 77149  1  0  0  0
 77150  1  0  0  0
 77151  1  0  0  0
 78152  1  0  0  0
 78153  1  0  0  0
 78154  1  0  0  0
 78 83  1  0  0  0
 79 81  1  0  0  0
 79155  1  0  0  0
 79156  1  0  0  0
 80157  1  0  0  0
 80158  1  0  0  0
 81 85  1  0  0  0
 81159  1  0  0  0
 81160  1  0  0  0
 82 83  1  0  0  0
 82161  1  0  0  0
 82162  1  0  0  0
 83163  1  0  0  0
 85164  1  0  0  0
M  ISO  4   1 100  68 101  82 101  85 100
M  END
> <chiral flag>
0

> <version>
0

> <s_m_source_file>
/data/baiqing/PycharmProjects/Reinvent-master-3.2/result/LINK_invent/BTK/process_docking_weight1_custom_sum_contain_oxygen_bond_distance_aromatic_linkinvent_7_9_3/rearranged_h_0089.sdf

> <i_m_source_file_index>
57

> <r_mmod_Potential_Energy-OPLS-2005>
-28.6874217987061

> <r_mmod_Stretch_Energy-OPLS-2005>
113.092475891113

> <r_mmod_Bend_Energy-OPLS-2005>
169.552612304688

> <r_mmod_Torsional_Energy-OPLS-2005>
215.059448242188

> <r_mmod_Improper_Torsional_Energy-OPLS-2005>
6.27919673919678

> <r_mmod_Van_der_Waal_Energy-OPLS-2005>
142.340347290039

> <r_mmod_Electrostatic_Energy-OPLS-2005>
-520.612976074219

> <r_mmod_Solvation_Energy-OPLS-2005>
-222.871353149414

> <b_mmod_Minimization_Converged-OPLS-2005>
0

> <r_mmod_RMS_Derivative-OPLS-2005>
2.92673492431641

$$$$
58
                    3D
 Structure written by MMmdl.
184192  0  0  1  0            999 V2000
  -30.6892  -14.5789   20.4982 C   0  0  0  0  0  0
  -30.4204  -12.3569   19.4438 C   0  0  0  0  0  0
  -29.5008  -12.4929   18.2133 C   0  0  0  0  0  0
  -28.0223  -12.3463   18.6267 C   0  0  0  0  0  0
  -27.6520  -13.2211   19.8571 C   0  0  2  0  0  0
  -28.7002  -13.0875   20.9848 C   0  0  0  0  0  0
  -25.2558  -13.8180   20.5701 C   0  0  0  0  0  0
  -24.1829  -13.0439   20.9212 C   0  0  0  0  0  0
  -24.6391  -11.6915   20.8753 C   0  0  0  0  0  0
  -23.9061  -10.4292   21.0416 C   0  0  0  0  0  0
  -24.3622   -9.4212   21.9190 C   0  0  0  0  0  0
  -23.6315   -8.2241   22.0759 C   0  0  0  0  0  0
  -22.4290   -8.0271   21.3557 C   0  0  0  0  0  0
  -21.9918   -9.0233   20.4657 C   0  0  0  0  0  0
  -22.7240  -10.2123   20.3063 C   0  0  0  0  0  0
  -21.6838   -6.0738   22.5288 C   0  0  0  0  0  0
  -21.4002   -6.5646   23.8226 C   0  0  0  0  0  0
  -21.3661   -5.6802   24.9185 C   0  0  0  0  0  0
  -21.6044   -4.3063   24.7230 C   0  0  0  0  0  0
  -21.8818   -3.8159   23.4354 C   0  0  0  0  0  0
  -21.9189   -4.6970   22.3416 C   0  0  0  0  0  0
  -22.7848  -13.5222   21.1883 C   0  0  0  0  0  0
  -22.1660   -4.2162   21.0986 F   0  0  0  0  0  0
  -21.5640   -3.4545   25.7741 F   0  0  0  0  0  0
  -30.0163  -13.3946   20.4108 N   0  0  0  0  0  0
  -26.2999  -12.9381   20.3320 N   0  0  0  0  0  0
  -25.9326  -11.6529   20.5774 N   0  0  0  0  0  0
  -22.0473  -12.8216   22.0427 N   0  0  0  0  0  0
  -25.4212  -15.1905   20.4123 N   0  0  0  0  0  0
  -31.8592  -14.6820   20.1254 O   0  0  0  0  0  0
  -21.6644   -6.8867   21.4253 O   0  0  0  0  0  0
  -22.3539  -14.5510   20.6687 O   0  0  0  0  0  0
  -24.6240  -31.8631   23.2069 C   0  0  0  0  0  0
  -25.9126  -32.4784   23.8381 C   0  0  1  0  0  0
  -27.2302  -27.3712   20.1165 C   0  0  0  0  0  0
  -25.6000  -33.8585   24.2349 N   0  0  0  0  0  0
  -23.4119  -30.4891   21.5459 C   0  0  2  0  0  0
  -24.8602  -28.9393   20.1204 C   0  0  0  0  0  0
  -22.7455  -29.4676   22.4970 C   0  0  0  0  0  0
  -18.0306  -28.1370   22.8495 C   0  0  0  0  0  0
  -24.1479  -36.7248   23.2636 C   0  0  0  0  0  0
  -25.9511  -30.8099   21.3671 C   0  0  0  0  0  0
  -26.0276  -29.4402   20.7112 C   0  0  0  0  0  0
  -27.2225  -28.6687   20.6956 C   0  0  0  0  0  0
  -26.0424  -26.8956   19.5235 C   0  0  0  0  0  0
  -24.8647  -27.6668   19.5202 C   0  0  0  0  0  0
  -23.6250  -29.8152   20.1654 C   0  0  0  0  0  0
  -25.4114  -36.3081   24.0343 C   0  0  1  0  0  0
  -20.5901  -28.3660   23.1302 C   0  0  2  0  0  0
  -20.6781  -26.9384   22.5414 C   0  0  0  0  0  0
  -19.5753  -26.6361   21.5211 C   0  0  0  0  0  0
  -18.1942  -26.7923   22.1607 C   0  0  0  0  0  0
  -19.1563  -28.8834   23.2882 C   0  0  0  0  0  0
  -18.9470  -30.1451   23.8865 C   0  0  0  0  0  0
  -17.6463  -30.6558   24.0570 C   0  0  0  0  0  0
  -25.9057  -34.9451   23.5130 C   0  0  0  0  0  0
  -16.5359  -29.9034   23.6357 C   0  0  0  0  0  0
  -16.7288  -28.6467   23.0347 C   0  0  0  0  0  0
  -26.4565  -31.6574   25.0718 C   0  0  0  0  0  0
  -25.3851  -31.3637   26.1476 C   0  0  0  0  0  0
  -27.0458  -30.3037   24.6141 C   0  0  0  0  0  0
  -27.6157  -32.4293   25.7441 C   0  0  0  0  0  0
  -27.5579  -37.1777   24.8484 C   0  0  0  0  0  0
  -21.4188  -29.3027   22.3692 N   0  0  0  0  0  0
  -26.4286  -37.3781   23.9431 N   0  0  0  0  0  0
  -24.6817  -31.0691   22.0967 N   0  0  0  0  0  0
  -23.4208  -28.8254   23.3055 O   0  0  0  0  0  0
  -28.3548  -26.5566   20.1040 O   0  0  0  0  0  0
  -26.5547  -34.8904   22.4650 O   0  0  0  0  0  0
  -23.5416  -32.1415   23.7434 O   0  0  0  0  0  0
  -31.1445  -21.6456   19.6906 C   0  0  0  0  0  0
  -31.8637  -21.0012   18.7318 C   0  0  0  0  0  0
  -31.4372  -19.6166   18.7810 C   0  0  0  0  0  0
  -30.4635  -19.5012   19.7718 C   0  0  0  0  0  0
  -29.6751  -18.0889   16.6765 C   0  0  0  0  0  0
  -33.2569  -17.8445   18.3260 C   0  0  0  0  0  0
  -27.7260  -23.4279   19.2218 C   0  0  0  0  0  0
  -33.1807  -23.1545   18.3720 C   0  0  0  0  0  0
  -32.1176  -21.9946   16.4478 C   0  0  0  0  0  0
  -34.1691  -21.0505   17.5410 C   0  0  0  0  0  0
  -29.6797  -18.2531   20.2495 C   0  0  0  0  0  0
  -30.9227  -17.4830   17.3462 C   0  0  0  0  0  0
  -29.0104  -22.8781   21.3820 C   0  0  0  0  0  0
  -29.1113  -21.3171   21.0944 C   0  0  0  0  0  0
  -30.5161  -17.0901   20.9122 C   0  0  0  0  0  0
  -28.2602  -25.3341   20.8982 C   0  0  0  0  0  0
  -31.9588  -18.5228   17.8338 C   0  0  1  0  0  0
  -28.7234  -23.9608   20.2635 C   0  0  2  0  0  0
  -32.8274  -21.7619   17.7920 C   0  0  0  0  0  0
  -30.1907  -20.8155   20.2211 N   0  0  0  0  0  0
  -29.9776  -15.6920   20.8384 N   0  0  0  0  0  0
  -31.4672  -12.4431   19.1467 H   0  0  0  0  0  0
  -30.3198  -11.3652   19.8873 H   0  0  0  0  0  0
  -29.7616  -11.7398   17.4670 H   0  0  0  0  0  0
  -29.6574  -13.4619   17.7393 H   0  0  0  0  0  0
  -27.8520  -11.2940   18.8571 H   0  0  0  0  0  0
  -27.3671  -12.5826   17.7865 H   0  0  0  0  0  0
  -27.6664  -14.2559   19.5144 H   0  0  0  0  0  0
  -28.7051  -12.0743   21.3905 H   0  0  0  0  0  0
  -28.4629  -13.7467   21.8209 H   0  0  0  0  0  0
  -25.2761   -9.5702   22.4785 H   0  0  0  0  0  0
  -24.0031   -7.4628   22.7472 H   0  0  0  0  0  0
  -21.0850   -8.8726   19.8967 H   0  0  0  0  0  0
  -22.3667  -10.9657   19.6189 H   0  0  0  0  0  0
  -21.1965   -7.6153   23.9731 H   0  0  0  0  0  0
  -21.1504   -6.0529   25.9088 H   0  0  0  0  0  0
  -22.0594   -2.7625   23.2843 H   0  0  0  0  0  0
  -22.4052  -11.9862   22.4824 H   0  0  0  0  0  0
  -21.1097  -13.1265   22.2594 H   0  0  0  0  0  0
  -24.6454  -15.8344   20.5212 H   0  0  0  0  0  0
  -26.2573  -15.6415   20.0673 H   0  0  0  0  0  0
  -26.7174  -32.5476   23.1111 H   0  0  0  0  0  0
  -25.0372  -33.9740   25.0656 H   0  0  0  0  0  0
  -22.7035  -31.3073   21.3998 H   0  0  0  0  0  0
  -23.3768  -35.9549   23.3287 H   0  0  0  0  0  0
  -24.3604  -36.8861   22.2055 H   0  0  0  0  0  0
  -23.7175  -37.6432   23.6642 H   0  0  0  0  0  0
  -26.0840  -31.5752   20.6012 H   0  0  0  0  0  0
  -26.8312  -30.8545   21.9971 H   0  0  0  0  0  0
  -28.1243  -29.0562   21.1462 H   0  0  0  0  0  0
  -26.0269  -25.9152   19.0713 H   0  0  0  0  0  0
  -23.9656  -27.2686   19.0708 H   0  0  0  0  0  0
  -23.7400  -30.5878   19.4033 H   0  0  0  0  0  0
  -22.7476  -29.2399   19.8666 H   0  0  0  0  0  0
  -25.1277  -36.1932   25.0827 H   0  0  0  0  0  0
  -21.0011  -28.3207   24.1409 H   0  0  0  0  0  0
  -20.5699  -26.2263   23.3606 H   0  0  0  0  0  0
  -21.6652  -26.7421   22.1201 H   0  0  0  0  0  0
  -19.6905  -25.6269   21.1225 H   0  0  0  0  0  0
  -19.6696  -27.3193   20.6754 H   0  0  0  0  0  0
  -17.4241  -26.6746   21.3962 H   0  0  0  0  0  0
  -18.0272  -26.0045   22.8960 H   0  0  0  0  0  0
  -19.7950  -30.7309   24.2171 H   0  0  0  0  0  0
  -17.5002  -31.6242   24.5152 H   0  0  0  0  0  0
  -15.5349  -30.2892   23.7685 H   0  0  0  0  0  0
  -15.8716  -28.0762   22.7022 H   0  0  0  0  0  0
  -24.6091  -30.6886   25.7823 H   0  0  0  0  0  0
  -24.8958  -32.2747   26.4912 H   0  0  0  0  0  0
  -25.8245  -30.8862   27.0241 H   0  0  0  0  0  0
  -26.3028  -29.6687   24.1303 H   0  0  0  0  0  0
  -27.4369  -29.7372   25.4595 H   0  0  0  0  0  0
  -27.8776  -30.4361   23.9225 H   0  0  0  0  0  0
  -27.2851  -33.3632   26.1981 H   0  0  0  0  0  0
  -28.3980  -32.6778   25.0254 H   0  0  0  0  0  0
  -28.0832  -31.8448   26.5381 H   0  0  0  0  0  0
  -28.2603  -38.0071   24.7583 H   0  0  0  0  0  0
  -28.1068  -36.2618   24.6243 H   0  0  0  0  0  0
  -27.2320  -37.1340   25.8893 H   0  0  0  0  0  0
  -20.9344  -29.8710   21.6900 H   0  0  0  0  0  0
  -26.0165  -38.2842   24.1467 H   0  0  0  0  0  0
  -31.1782  -22.6849   19.9757 H   0  0  0  0  0  0
  -29.0009  -17.3040   16.3299 H   0  0  0  0  0  0
  -29.9504  -18.6975   15.8145 H   0  0  0  0  0  0
  -29.1070  -18.7257   17.3530 H   0  0  0  0  0  0
  -34.0391  -18.5644   18.5498 H   0  0  0  0  0  0
  -33.6513  -17.1694   17.5674 H   0  0  0  0  0  0
  -33.1300  -17.2495   19.2217 H   0  0  0  0  0  0
  -28.1368  -22.5618   18.6980 H   0  0  0  0  0  0
  -27.5019  -24.1751   18.4612 H   0  0  0  0  0  0
  -26.7913  -23.1146   19.6907 H   0  0  0  0  0  0
  -32.3075  -23.8031   18.4473 H   0  0  0  0  0  0
  -33.8977  -23.6871   17.7444 H   0  0  0  0  0  0
  -33.6224  -23.0734   19.3656 H   0  0  0  0  0  0
  -31.1767  -22.5272   16.5895 H   0  0  0  0  0  0
  -31.8843  -21.0563   15.9459 H   0  0  0  0  0  0
  -32.7312  -22.5886   15.7689 H   0  0  0  0  0  0
  -34.6526  -20.7705   18.4759 H   0  0  0  0  0  0
  -34.8637  -21.7017   17.0089 H   0  0  0  0  0  0
  -34.0709  -20.1661   16.9183 H   0  0  0  0  0  0
  -29.1193  -17.8495   19.4087 H   0  0  0  0  0  0
  -28.8992  -18.5516   20.9491 H   0  0  0  0  0  0
  -31.4067  -16.8315   16.6157 H   0  0  0  0  0  0
  -30.6311  -16.8138   18.1535 H   0  0  0  0  0  0
  -29.9049  -23.1916   21.9229 H   0  0  0  0  0  0
  -28.2118  -22.9756   22.1179 H   0  0  0  0  0  0
  -28.1653  -20.9634   20.6856 H   0  0  0  0  0  0
  -29.2240  -20.8109   22.0548 H   0  0  0  0  0  0
  -30.6960  -17.3348   21.9601 H   0  0  0  0  0  0
  -31.5008  -17.1032   20.4642 H   0  0  0  0  0  0
  -28.8938  -25.5235   21.7659 H   0  0  0  0  0  0
  -27.2613  -25.2106   21.3207 H   0  0  0  0  0  0
  -32.2300  -19.0484   16.9222 H   0  0  0  0  0  0
  -29.6528  -24.1586   19.7328 H   0  0  0  0  0  0
  -29.0094  -15.5529   21.0862 H   0  0  0  0  0  0
  1 25  1  0  0  0
  1 30  2  0  0  0
  1 91  1  0  0  0
  2  3  1  0  0  0
  2 25  1  0  0  0
  2 92  1  0  0  0
  2 93  1  0  0  0
  3  4  1  0  0  0
  3 94  1  0  0  0
  3 95  1  0  0  0
  4  5  1  0  0  0
  4 96  1  0  0  0
  4 97  1  0  0  0
  5  6  1  0  0  0
  5 26  1  0  0  0
  5 98  1  0  0  0
  6 25  1  0  0  0
  6 99  1  0  0  0
  6100  1  0  0  0
  7  8  2  0  0  0
  7 26  1  0  0  0
  7 29  1  0  0  0
  8  9  1  0  0  0
  8 22  1  0  0  0
  9 10  1  0  0  0
  9 27  2  0  0  0
 10 11  2  0  0  0
 10 15  1  0  0  0
 11 12  1  0  0  0
 11101  1  0  0  0
 12 13  2  0  0  0
 12102  1  0  0  0
 13 14  1  0  0  0
 13 31  1  0  0  0
 14 15  2  0  0  0
 14103  1  0  0  0
 15104  1  0  0  0
 16 17  2  0  0  0
 16 21  1  0  0  0
 16 31  1  0  0  0
 17 18  1  0  0  0
 17105  1  0  0  0
 18 19  2  0  0  0
 18106  1  0  0  0
 19 20  1  0  0  0
 19 24  1  0  0  0
 20 21  2  0  0  0
 20107  1  0  0  0
 21 23  1  0  0  0
 22 28  1  0  0  0
 22 32  2  0  0  0
 26 27  1  0  0  0
 28108  1  0  0  0
 28109  1  0  0  0
 29110  1  0  0  0
 29111  1  0  0  0
 33 34  1  0  0  0
 33 66  1  0  0  0
 33 70  2  0  0  0
 34 36  1  0  0  0
 34 59  1  0  0  0
 34112  1  0  0  0
 35 44  2  0  0  0
 35 45  1  0  0  0
 35 68  1  0  0  0
 36 56  1  0  0  0
 36113  1  0  0  0
 37 39  1  0  0  0
 37 47  1  0  0  0
 37 66  1  0  0  0
 37114  1  0  0  0
 38 43  2  0  0  0
 38 46  1  0  0  0
 38 47  1  0  0  0
 39 64  1  0  0  0
 39 67  2  0  0  0
 40 52  1  0  0  0
 40 53  2  0  0  0
 40 58  1  0  0  0
 41115  1  0  0  0
 41116  1  0  0  0
 41117  1  0  0  0
 41 48  1  0  0  0
 42 43  1  0  0  0
 42 66  1  0  0  0
 42118  1  0  0  0
 42119  1  0  0  0
 43 44  1  0  0  0
 44120  1  0  0  0
 45 46  2  0  0  0
 45121  1  0  0  0
 46122  1  0  0  0
 47123  1  0  0  0
 47124  1  0  0  0
 48 56  1  0  0  0
 48 65  1  0  0  0
 48125  1  0  0  0
 49 50  1  0  0  0
 49 53  1  0  0  0
 49 64  1  0  0  0
 49126  1  0  0  0
 50 51  1  0  0  0
 50127  1  0  0  0
 50128  1  0  0  0
 51 52  1  0  0  0
 51129  1  0  0  0
 51130  1  0  0  0
 52131  1  0  0  0
 52132  1  0  0  0
 53 54  1  0  0  0
 54 55  2  0  0  0
 54133  1  0  0  0
 55 57  1  0  0  0
 55134  1  0  0  0
 56 69  2  0  0  0
 57 58  2  0  0  0
 57135  1  0  0  0
 58136  1  0  0  0
 59 60  1  0  0  0
 59 61  1  0  0  0
 59 62  1  0  0  0
 60137  1  0  0  0
 60138  1  0  0  0
 60139  1  0  0  0
 61140  1  0  0  0
 61141  1  0  0  0
 61142  1  0  0  0
 62143  1  0  0  0
 62144  1  0  0  0
 62145  1  0  0  0
 63 65  1  0  0  0
 63146  1  0  0  0
 63147  1  0  0  0
 63148  1  0  0  0
 64149  1  0  0  0
 65150  1  0  0  0
 68 86  1  0  0  0
 71 72  2  0  0  0
 71 90  1  0  0  0
 71151  1  0  0  0
 72 73  1  0  0  0
 72 89  1  0  0  0
 73 74  2  0  0  0
 73 87  1  0  0  0
 74 81  1  0  0  0
 74 90  1  0  0  0
 75 82  1  0  0  0
 75152  1  0  0  0
 75153  1  0  0  0
 75154  1  0  0  0
 76155  1  0  0  0
 76156  1  0  0  0
 76157  1  0  0  0
 76 87  1  0  0  0
 77158  1  0  0  0
 77159  1  0  0  0
 77160  1  0  0  0
 77 88  1  0  0  0
 78161  1  0  0  0
 78162  1  0  0  0
 78163  1  0  0  0
 78 89  1  0  0  0
 79 89  1  0  0  0
 79164  1  0  0  0
 79165  1  0  0  0
 79166  1  0  0  0
 80 89  1  0  0  0
 80167  1  0  0  0
 80168  1  0  0  0
 80169  1  0  0  0
 81 85  1  0  0  0
 81170  1  0  0  0
 81171  1  0  0  0
 82 87  1  0  0  0
 82172  1  0  0  0
 82173  1  0  0  0
 83 84  1  0  0  0
 83 88  1  0  0  0
 83174  1  0  0  0
 83175  1  0  0  0
 84 90  1  0  0  0
 84176  1  0  0  0
 84177  1  0  0  0
 85 91  1  0  0  0
 85178  1  0  0  0
 85179  1  0  0  0
 86 88  1  0  0  0
 86180  1  0  0  0
 86181  1  0  0  0
 87182  1  0  0  0
 88183  1  0  0  0
 91184  1  0  0  0
M  ISO  4   1 100  68 101  86 101  91 100
M  END
> <chiral flag>
0

> <version>
0

> <s_m_source_file>
/data/baiqing/PycharmProjects/Reinvent-master-3.2/result/LINK_invent/BTK/process_docking_weight1_custom_sum_contain_oxygen_bond_distance_aromatic_linkinvent_7_9_3/rearranged_h_0089.sdf

> <i_m_source_file_index>
58

> <r_mmod_Potential_Energy-OPLS-2005>
3.36862802505493

> <r_mmod_Stretch_Energy-OPLS-2005>
72.4522705078125

> <r_mmod_Bend_Energy-OPLS-2005>
158.713226318359

> <r_mmod_Torsional_Energy-OPLS-2005>
265.753295898438

> <r_mmod_Improper_Torsional_Energy-OPLS-2005>
4.53184604644775

> <r_mmod_Van_der_Waal_Energy-OPLS-2005>
121.276374816895

> <r_mmod_Electrostatic_Energy-OPLS-2005>
-456.386108398438

> <r_mmod_Solvation_Energy-OPLS-2005>
-195.191177368164

> <b_mmod_Minimization_Converged-OPLS-2005>
0

> <r_mmod_RMS_Derivative-OPLS-2005>
3.87877583503723

$$$$
59
                    3D
 Structure written by MMmdl.
179187  0  0  1  0            999 V2000
  -30.7556  -14.4087   20.6556 C   0  0  0  0  0  0
  -30.4116  -12.3028   19.4132 C   0  0  0  0  0  0
  -29.4854  -12.5113   18.2012 C   0  0  0  0  0  0
  -28.0109  -12.3619   18.6192 C   0  0  0  0  0  0
  -27.6592  -13.2059   19.8724 C   0  0  2  0  0  0
  -28.6951  -12.9845   20.9953 C   0  0  0  0  0  0
  -25.2580  -13.8165   20.5672 C   0  0  0  0  0  0
  -24.1825  -13.0450   20.9174 C   0  0  0  0  0  0
  -24.6375  -11.6919   20.8731 C   0  0  0  0  0  0
  -23.9045  -10.4300   21.0402 C   0  0  0  0  0  0
  -24.3600   -9.4217   21.9181 C   0  0  0  0  0  0
  -23.6282   -8.2251   22.0753 C   0  0  0  0  0  0
  -22.4266   -8.0282   21.3544 C   0  0  0  0  0  0
  -21.9901   -9.0251   20.4642 C   0  0  0  0  0  0
  -22.7227  -10.2133   20.3047 C   0  0  0  0  0  0
  -21.6855   -6.0731   22.5278 C   0  0  0  0  0  0
  -21.4019   -6.5638   23.8211 C   0  0  0  0  0  0
  -21.3657   -5.6792   24.9173 C   0  0  0  0  0  0
  -21.6043   -4.3052   24.7226 C   0  0  0  0  0  0
  -21.8818   -3.8144   23.4347 C   0  0  0  0  0  0
  -21.9192   -4.6959   22.3403 C   0  0  0  0  0  0
  -22.7852  -13.5252   21.1850 C   0  0  0  0  0  0
  -22.1661   -4.2142   21.0980 F   0  0  0  0  0  0
  -21.5624   -3.4538   25.7738 F   0  0  0  0  0  0
  -30.0333  -13.2755   20.4501 N   0  0  0  0  0  0
  -26.3002  -12.9332   20.3347 N   0  0  0  0  0  0
  -25.9293  -11.6494   20.5748 N   0  0  0  0  0  0
  -22.0500  -12.8231   22.0401 N   0  0  0  0  0  0
  -25.4343  -15.1870   20.4064 N   0  0  0  0  0  0
  -31.8120  -14.6492   20.0655 O   0  0  0  0  0  0
  -21.6644   -6.8872   21.4238 O   0  0  0  0  0  0
  -22.3532  -14.5557   20.6704 O   0  0  0  0  0  0
  -24.6118  -31.8689   23.2110 C   0  0  0  0  0  0
  -25.9016  -32.4836   23.8398 C   0  0  1  0  0  0
  -27.2392  -27.4568   20.0966 C   0  0  0  0  0  0
  -25.5883  -33.8630   24.2328 N   0  0  0  0  0  0
  -23.3993  -30.4913   21.5511 C   0  0  2  0  0  0
  -24.8454  -28.9534   20.1209 C   0  0  0  0  0  0
  -22.7393  -29.4670   22.5008 C   0  0  0  0  0  0
  -18.0271  -28.1389   22.8510 C   0  0  0  0  0  0
  -24.1486  -36.7307   23.2641 C   0  0  0  0  0  0
  -25.9239  -30.8414   21.3594 C   0  0  0  0  0  0
  -26.0023  -29.4738   20.7147 C   0  0  0  0  0  0
  -27.2021  -28.7326   20.6993 C   0  0  0  0  0  0
  -26.0704  -26.9434   19.4977 C   0  0  0  0  0  0
  -24.8725  -27.6848   19.5126 C   0  0  0  0  0  0
  -23.6066  -29.8193   20.1673 C   0  0  0  0  0  0
  -25.4108  -36.3122   24.0347 C   0  0  1  0  0  0
  -20.5862  -28.3657   23.1339 C   0  0  2  0  0  0
  -20.6775  -26.9399   22.5429 C   0  0  0  0  0  0
  -19.5751  -26.6395   21.5227 C   0  0  0  0  0  0
  -18.1921  -26.7944   22.1626 C   0  0  0  0  0  0
  -19.1524  -28.8838   23.2926 C   0  0  0  0  0  0
  -18.9456  -30.1446   23.8926 C   0  0  0  0  0  0
  -17.6459  -30.6598   24.0570 C   0  0  0  0  0  0
  -25.9033  -34.9485   23.5135 C   0  0  0  0  0  0
  -16.5345  -29.9106   23.6324 C   0  0  0  0  0  0
  -16.7262  -28.6522   23.0351 C   0  0  0  0  0  0
  -26.4458  -31.6605   25.0704 C   0  0  0  0  0  0
  -25.3733  -31.3710   26.1456 C   0  0  0  0  0  0
  -27.0273  -30.3059   24.6032 C   0  0  0  0  0  0
  -27.6054  -32.4314   25.7446 C   0  0  0  0  0  0
  -27.5590  -37.1801   24.8461 C   0  0  0  0  0  0
  -21.4127  -29.3023   22.3744 N   0  0  0  0  0  0
  -26.4288  -37.3808   23.9428 N   0  0  0  0  0  0
  -24.6637  -31.0809   22.1002 N   0  0  0  0  0  0
  -23.4170  -28.8218   23.3056 O   0  0  0  0  0  0
  -28.4278  -26.7669   20.0386 O   0  0  0  0  0  0
  -26.5597  -34.8940   22.4694 O   0  0  0  0  0  0
  -23.5316  -32.1424   23.7522 O   0  0  0  0  0  0
  -27.7147  -20.2788   22.3721 C   0  0  0  0  0  0
  -29.4583  -19.6061   20.8415 C   0  0  0  0  0  0
  -28.4179  -20.5005   21.1744 C   0  0  0  0  0  0
  -28.1062  -19.2204   23.2117 C   0  0  0  0  0  0
  -29.7861  -18.5620   21.7370 C   0  0  0  0  0  0
  -32.2679  -18.5361   22.0047 C   0  0  0  0  0  0
  -28.1379  -25.8792   22.3263 C   0  0  0  0  0  0
  -25.6258  -17.6134   23.2508 C   0  0  0  0  0  0
  -27.1330  -16.4675   24.8983 C   0  0  0  0  0  0
  -25.3658  -18.0389   25.7025 C   0  0  0  0  0  0
  -28.0790  -21.7122   20.3125 C   0  0  0  0  0  0
  -27.4017  -18.9687   24.5409 C   0  0  0  0  0  0
  -28.5162  -23.0350   20.9799 C   0  0  0  0  0  0
  -28.0403  -24.3161   20.2568 C   0  0  0  0  0  0
  -31.0616  -16.3198   22.2189 C   0  0  0  0  0  0
  -31.0524  -17.7207   21.5291 C   0  0  1  0  0  0
  -28.6032  -25.6174   20.8807 C   0  0  1  0  0  0
  -26.3913  -17.7813   24.5805 C   0  0  0  0  0  0
  -29.1429  -18.4094   22.9160 N   0  0  0  0  0  0
  -30.2768  -15.2532   21.5816 N   0  0  0  0  0  0
  -31.4570  -12.3939   19.1131 H   0  0  0  0  0  0
  -30.3055  -11.2891   19.8038 H   0  0  0  0  0  0
  -29.7252  -11.7921   17.4169 H   0  0  0  0  0  0
  -29.6508  -13.5012   17.7730 H   0  0  0  0  0  0
  -27.8316  -11.3056   18.8246 H   0  0  0  0  0  0
  -27.3533  -12.6239   17.7892 H   0  0  0  0  0  0
  -27.7072  -14.2538   19.5743 H   0  0  0  0  0  0
  -28.6633  -11.9502   21.3415 H   0  0  0  0  0  0
  -28.4373  -13.5866   21.8672 H   0  0  0  0  0  0
  -25.2741   -9.5699   22.4756 H   0  0  0  0  0  0
  -23.9994   -7.4641   22.7468 H   0  0  0  0  0  0
  -21.0840   -8.8762   19.8938 H   0  0  0  0  0  0
  -22.3687  -10.9664   19.6149 H   0  0  0  0  0  0
  -21.2020   -7.6150   23.9712 H   0  0  0  0  0  0
  -21.1478   -6.0524   25.9074 H   0  0  0  0  0  0
  -22.0598   -2.7606   23.2851 H   0  0  0  0  0  0
  -22.4125  -11.9886   22.4771 H   0  0  0  0  0  0
  -21.1109  -13.1234   22.2599 H   0  0  0  0  0  0
  -24.6829  -15.8533   20.5398 H   0  0  0  0  0  0
  -26.3036  -15.6202   20.1215 H   0  0  0  0  0  0
  -26.7082  -32.5558   23.1164 H   0  0  0  0  0  0
  -25.0050  -33.9799   25.0484 H   0  0  0  0  0  0
  -22.6873  -31.3070   21.4120 H   0  0  0  0  0  0
  -23.3773  -35.9612   23.3285 H   0  0  0  0  0  0
  -24.3595  -36.8927   22.2059 H   0  0  0  0  0  0
  -23.7206  -37.6497   23.6652 H   0  0  0  0  0  0
  -26.0254  -31.6032   20.5852 H   0  0  0  0  0  0
  -26.8176  -30.9015   21.9696 H   0  0  0  0  0  0
  -28.1007  -29.1355   21.1450 H   0  0  0  0  0  0
  -26.0878  -25.9847   19.0019 H   0  0  0  0  0  0
  -23.9847  -27.2784   19.0465 H   0  0  0  0  0  0
  -23.7134  -30.5918   19.4048 H   0  0  0  0  0  0
  -22.7322  -29.2352   19.8747 H   0  0  0  0  0  0
  -25.1283  -36.1982   25.0843 H   0  0  0  0  0  0
  -20.9950  -28.3217   24.1461 H   0  0  0  0  0  0
  -20.5692  -26.2253   23.3606 H   0  0  0  0  0  0
  -21.6644  -26.7469   22.1201 H   0  0  0  0  0  0
  -19.6907  -25.6312   21.1236 H   0  0  0  0  0  0
  -19.6705  -27.3228   20.6779 H   0  0  0  0  0  0
  -17.4201  -26.6708   21.4016 H   0  0  0  0  0  0
  -18.0309  -26.0083   22.9016 H   0  0  0  0  0  0
  -19.7926  -30.7264   24.2308 H   0  0  0  0  0  0
  -17.5013  -31.6285   24.5168 H   0  0  0  0  0  0
  -15.5344  -30.3023   23.7647 H   0  0  0  0  0  0
  -15.8659  -28.0857   22.7051 H   0  0  0  0  0  0
  -24.5901  -30.7062   25.7790 H   0  0  0  0  0  0
  -24.8929  -32.2869   26.4911 H   0  0  0  0  0  0
  -25.8083  -30.8870   27.0208 H   0  0  0  0  0  0
  -26.2797  -29.6840   24.1092 H   0  0  0  0  0  0
  -27.4089  -29.7258   25.4444 H   0  0  0  0  0  0
  -27.8610  -30.4410   23.9135 H   0  0  0  0  0  0
  -27.2697  -33.3617   26.2043 H   0  0  0  0  0  0
  -28.3843  -32.6868   25.0247 H   0  0  0  0  0  0
  -28.0743  -31.8422   26.5336 H   0  0  0  0  0  0
  -28.2591  -38.0117   24.7559 H   0  0  0  0  0  0
  -28.1099  -36.2653   24.6216 H   0  0  0  0  0  0
  -27.2314  -37.1368   25.8864 H   0  0  0  0  0  0
  -20.9280  -29.8704   21.6942 H   0  0  0  0  0  0
  -26.0176  -38.2879   24.1467 H   0  0  0  0  0  0
  -26.9023  -20.9339   22.6571 H   0  0  0  0  0  0
  -30.0431  -19.7560   19.9431 H   0  0  0  0  0  0
  -32.3306  -19.4883   21.4780 H   0  0  0  0  0  0
  -33.2026  -18.0047   21.8256 H   0  0  0  0  0  0
  -32.2027  -18.7530   23.0714 H   0  0  0  0  0  0
  -28.4725  -25.0942   23.0041 H   0  0  0  0  0  0
  -27.0519  -25.9369   22.3991 H   0  0  0  0  0  0
  -28.5505  -26.8157   22.7022 H   0  0  0  0  0  0
  -24.8846  -16.8159   23.3147 H   0  0  0  0  0  0
  -26.2944  -17.3589   22.4275 H   0  0  0  0  0  0
  -25.1006  -18.5293   22.9770 H   0  0  0  0  0  0
  -26.4477  -15.6207   24.9533 H   0  0  0  0  0  0
  -27.6570  -16.5254   25.8530 H   0  0  0  0  0  0
  -27.8758  -16.2358   24.1345 H   0  0  0  0  0  0
  -24.6588  -17.2141   25.7979 H   0  0  0  0  0  0
  -24.7851  -18.9438   25.5184 H   0  0  0  0  0  0
  -25.8573  -18.1603   26.6688 H   0  0  0  0  0  0
  -27.0018  -21.7206   20.1421 H   0  0  0  0  0  0
  -28.5433  -21.6149   19.3297 H   0  0  0  0  0  0
  -26.8722  -19.8905   24.7850 H   0  0  0  0  0  0
  -28.1501  -18.8627   25.3277 H   0  0  0  0  0  0
  -29.6033  -23.0415   21.0694 H   0  0  0  0  0  0
  -28.1300  -23.0533   21.9982 H   0  0  0  0  0  0
  -26.9511  -24.3402   20.2509 H   0  0  0  0  0  0
  -28.3526  -24.2674   19.2132 H   0  0  0  0  0  0
  -30.7513  -16.4047   23.2605 H   0  0  0  0  0  0
  -32.0940  -15.9697   22.2749 H   0  0  0  0  0  0
  -31.1687  -17.5649   20.4556 H   0  0  0  0  0  0
  -29.6866  -25.4971   20.9248 H   0  0  0  0  0  0
  -29.3903  -15.0176   22.0029 H   0  0  0  0  0  0
  1 25  1  0  0  0
  1 30  2  0  0  0
  1 90  1  0  0  0
  2  3  1  0  0  0
  2 25  1  0  0  0
  2 91  1  0  0  0
  2 92  1  0  0  0
  3  4  1  0  0  0
  3 93  1  0  0  0
  3 94  1  0  0  0
  4  5  1  0  0  0
  4 95  1  0  0  0
  4 96  1  0  0  0
  5  6  1  0  0  0
  5 26  1  0  0  0
  5 97  1  0  0  0
  6 25  1  0  0  0
  6 98  1  0  0  0
  6 99  1  0  0  0
  7  8  2  0  0  0
  7 26  1  0  0  0
  7 29  1  0  0  0
  8  9  1  0  0  0
  8 22  1  0  0  0
  9 10  1  0  0  0
  9 27  2  0  0  0
 10 11  2  0  0  0
 10 15  1  0  0  0
 11 12  1  0  0  0
 11100  1  0  0  0
 12 13  2  0  0  0
 12101  1  0  0  0
 13 14  1  0  0  0
 13 31  1  0  0  0
 14 15  2  0  0  0
 14102  1  0  0  0
 15103  1  0  0  0
 16 17  2  0  0  0
 16 21  1  0  0  0
 16 31  1  0  0  0
 17 18  1  0  0  0
 17104  1  0  0  0
 18 19  2  0  0  0
 18105  1  0  0  0
 19 20  1  0  0  0
 19 24  1  0  0  0
 20 21  2  0  0  0
 20106  1  0  0  0
 21 23  1  0  0  0
 22 28  1  0  0  0
 22 32  2  0  0  0
 26 27  1  0  0  0
 28107  1  0  0  0
 28108  1  0  0  0
 29109  1  0  0  0
 29110  1  0  0  0
 33 34  1  0  0  0
 33 66  1  0  0  0
 33 70  2  0  0  0
 34 36  1  0  0  0
 34 59  1  0  0  0
 34111  1  0  0  0
 35 44  2  0  0  0
 35 45  1  0  0  0
 35 68  1  0  0  0
 36 56  1  0  0  0
 36112  1  0  0  0
 37 39  1  0  0  0
 37 47  1  0  0  0
 37 66  1  0  0  0
 37113  1  0  0  0
 38 43  2  0  0  0
 38 46  1  0  0  0
 38 47  1  0  0  0
 39 64  1  0  0  0
 39 67  2  0  0  0
 40 52  1  0  0  0
 40 53  2  0  0  0
 40 58  1  0  0  0
 41114  1  0  0  0
 41115  1  0  0  0
 41116  1  0  0  0
 41 48  1  0  0  0
 42 43  1  0  0  0
 42 66  1  0  0  0
 42117  1  0  0  0
 42118  1  0  0  0
 43 44  1  0  0  0
 44119  1  0  0  0
 45 46  2  0  0  0
 45120  1  0  0  0
 46121  1  0  0  0
 47122  1  0  0  0
 47123  1  0  0  0
 48 56  1  0  0  0
 48 65  1  0  0  0
 48124  1  0  0  0
 49 50  1  0  0  0
 49 53  1  0  0  0
 49 64  1  0  0  0
 49125  1  0  0  0
 50 51  1  0  0  0
 50126  1  0  0  0
 50127  1  0  0  0
 51 52  1  0  0  0
 51128  1  0  0  0
 51129  1  0  0  0
 52130  1  0  0  0
 52131  1  0  0  0
 53 54  1  0  0  0
 54 55  2  0  0  0
 54132  1  0  0  0
 55 57  1  0  0  0
 55133  1  0  0  0
 56 69  2  0  0  0
 57 58  2  0  0  0
 57134  1  0  0  0
 58135  1  0  0  0
 59 60  1  0  0  0
 59 61  1  0  0  0
 59 62  1  0  0  0
 60136  1  0  0  0
 60137  1  0  0  0
 60138  1  0  0  0
 61139  1  0  0  0
 61140  1  0  0  0
 61141  1  0  0  0
 62142  1  0  0  0
 62143  1  0  0  0
 62144  1  0  0  0
 63 65  1  0  0  0
 63145  1  0  0  0
 63146  1  0  0  0
 63147  1  0  0  0
 64148  1  0  0  0
 65149  1  0  0  0
 68 87  1  0  0  0
 71 73  2  0  0  0
 71 74  1  0  0  0
 71150  1  0  0  0
 72 73  1  0  0  0
 72 75  2  0  0  0
 72151  1  0  0  0
 73 81  1  0  0  0
 74 82  1  0  0  0
 74 89  2  0  0  0
 75 86  1  0  0  0
 75 89  1  0  0  0
 76152  1  0  0  0
 76153  1  0  0  0
 76154  1  0  0  0
 76 86  1  0  0  0
 77155  1  0  0  0
 77156  1  0  0  0
 77157  1  0  0  0
 77 87  1  0  0  0
 78158  1  0  0  0
 78159  1  0  0  0
 78160  1  0  0  0
 78 88  1  0  0  0
 79 88  1  0  0  0
 79161  1  0  0  0
 79162  1  0  0  0
 79163  1  0  0  0
 80 88  1  0  0  0
 80164  1  0  0  0
 80165  1  0  0  0
 80166  1  0  0  0
 81 83  1  0  0  0
 81167  1  0  0  0
 81168  1  0  0  0
 82 88  1  0  0  0
 82169  1  0  0  0
 82170  1  0  0  0
 83 84  1  0  0  0
 83171  1  0  0  0
 83172  1  0  0  0
 84 87  1  0  0  0
 84173  1  0  0  0
 84174  1  0  0  0
 85 86  1  0  0  0
 85 90  1  0  0  0
 85175  1  0  0  0
 85176  1  0  0  0
 86177  1  0  0  0
 87178  1  0  0  0
 90179  1  0  0  0
M  ISO  4   1 100  68 101  87 101  90 100
M  END
> <chiral flag>
0

> <version>
0

> <s_m_source_file>
/data/baiqing/PycharmProjects/Reinvent-master-3.2/result/LINK_invent/BTK/process_docking_weight1_custom_sum_contain_oxygen_bond_distance_aromatic_linkinvent_7_9_3/rearranged_h_0089.sdf

> <i_m_source_file_index>
59

> <r_mmod_Potential_Energy-OPLS-2005>
-159.719360351562

> <r_mmod_Stretch_Energy-OPLS-2005>
36.8270072937012

> <r_mmod_Bend_Energy-OPLS-2005>
110.825691223145

> <r_mmod_Torsional_Energy-OPLS-2005>
217.334686279297

> <r_mmod_Improper_Torsional_Energy-OPLS-2005>
3.57050347328186

> <r_mmod_Van_der_Waal_Energy-OPLS-2005>
144.861663818359

> <r_mmod_Electrostatic_Energy-OPLS-2005>
-493.449279785156

> <r_mmod_Solvation_Energy-OPLS-2005>
-187.575546264648

> <b_mmod_Minimization_Converged-OPLS-2005>
0

> <r_mmod_RMS_Derivative-OPLS-2005>
1.4602347612381

$$$$
60
                    3D
 Structure written by MMmdl.
179187  0  0  1  0            999 V2000
  -30.5952  -14.7345   20.4757 C   0  0  0  0  0  0
  -30.4320  -12.4504   19.4697 C   0  0  0  0  0  0
  -29.5053  -12.5004   18.2342 C   0  0  0  0  0  0
  -28.0324  -12.3202   18.6523 C   0  0  0  0  0  0
  -27.6389  -13.2242   19.8503 C   0  0  2  0  0  0
  -28.6828  -13.1485   20.9858 C   0  0  0  0  0  0
  -25.2503  -13.8199   20.5711 C   0  0  0  0  0  0
  -24.1789  -13.0447   20.9232 C   0  0  0  0  0  0
  -24.6371  -11.6920   20.8766 C   0  0  0  0  0  0
  -23.9052  -10.4297   21.0406 C   0  0  0  0  0  0
  -24.3605   -9.4220   21.9191 C   0  0  0  0  0  0
  -23.6282   -8.2254   22.0760 C   0  0  0  0  0  0
  -22.4276   -8.0280   21.3544 C   0  0  0  0  0  0
  -21.9901   -9.0251   20.4657 C   0  0  0  0  0  0
  -22.7222  -10.2137   20.3063 C   0  0  0  0  0  0
  -21.6847   -6.0741   22.5279 C   0  0  0  0  0  0
  -21.4013   -6.5643   23.8218 C   0  0  0  0  0  0
  -21.3657   -5.6791   24.9171 C   0  0  0  0  0  0
  -21.6051   -4.3054   24.7224 C   0  0  0  0  0  0
  -21.8812   -3.8146   23.4343 C   0  0  0  0  0  0
  -21.9192   -4.6965   22.3407 C   0  0  0  0  0  0
  -22.7819  -13.5240   21.1875 C   0  0  0  0  0  0
  -22.1654   -4.2150   21.0983 F   0  0  0  0  0  0
  -21.5631   -3.4538   25.7734 F   0  0  0  0  0  0
  -29.9800  -13.5073   20.4026 N   0  0  0  0  0  0
  -26.2913  -12.9382   20.3288 N   0  0  0  0  0  0
  -25.9294  -11.6533   20.5776 N   0  0  0  0  0  0
  -22.0453  -12.8239   22.0432 N   0  0  0  0  0  0
  -25.4199  -15.1923   20.4107 N   0  0  0  0  0  0
  -31.7864  -14.8438   20.1691 O   0  0  0  0  0  0
  -21.6635   -6.8876   21.4239 O   0  0  0  0  0  0
  -22.3502  -14.5546   20.6713 O   0  0  0  0  0  0
  -24.6335  -31.8551   23.2027 C   0  0  0  0  0  0
  -25.9170  -32.4734   23.8375 C   0  0  1  0  0  0
  -27.2050  -27.2491   20.1351 C   0  0  0  0  0  0
  -25.5960  -33.8539   24.2309 N   0  0  0  0  0  0
  -23.4314  -30.4780   21.5449 C   0  0  2  0  0  0
  -24.8780  -28.9338   20.1052 C   0  0  0  0  0  0
  -22.7533  -29.4560   22.4898 C   0  0  0  0  0  0
  -18.0300  -28.1349   22.8451 C   0  0  0  0  0  0
  -24.1503  -36.7306   23.2627 C   0  0  0  0  0  0
  -25.9799  -30.7616   21.3891 C   0  0  0  0  0  0
  -26.0486  -29.3867   20.7258 C   0  0  0  0  0  0
  -27.2171  -28.5563   20.7304 C   0  0  0  0  0  0
  -26.0173  -26.8762   19.4694 C   0  0  0  0  0  0
  -24.8688  -27.6903   19.4599 C   0  0  0  0  0  0
  -23.6508  -29.8233   20.1569 C   0  0  0  0  0  0
  -25.4121  -36.3055   24.0315 C   0  0  1  0  0  0
  -20.5903  -28.3671   23.1245 C   0  0  2  0  0  0
  -20.6795  -26.9385   22.5391 C   0  0  0  0  0  0
  -19.5776  -26.6355   21.5183 C   0  0  0  0  0  0
  -18.1946  -26.7898   22.1580 C   0  0  0  0  0  0
  -19.1547  -28.8836   23.2838 C   0  0  0  0  0  0
  -18.9451  -30.1431   23.8858 C   0  0  0  0  0  0
  -17.6451  -30.6554   24.0530 C   0  0  0  0  0  0
  -25.9047  -34.9415   23.5105 C   0  0  0  0  0  0
  -16.5341  -29.9042   23.6318 C   0  0  0  0  0  0
  -16.7284  -28.6469   23.0318 C   0  0  0  0  0  0
  -26.4542  -31.6547   25.0760 C   0  0  0  0  0  0
  -25.3776  -31.3638   26.1484 C   0  0  0  0  0  0
  -27.0426  -30.2959   24.6274 C   0  0  0  0  0  0
  -27.6094  -32.4304   25.7511 C   0  0  0  0  0  0
  -27.5606  -37.1796   24.8446 C   0  0  0  0  0  0
  -21.4235  -29.3019   22.3650 N   0  0  0  0  0  0
  -26.4300  -37.3754   23.9412 N   0  0  0  0  0  0
  -24.7008  -31.0489   22.1019 N   0  0  0  0  0  0
  -23.4212  -28.8103   23.3016 O   0  0  0  0  0  0
  -28.2746  -26.3256   20.2254 O   0  0  0  0  0  0
  -26.5610  -34.8883   22.4663 O   0  0  0  0  0  0
  -23.5483  -32.1385   23.7300 O   0  0  0  0  0  0
  -27.6964  -21.5557   22.4217 C   0  0  0  0  0  0
  -28.4439  -21.0333   21.3376 C   0  0  0  0  0  0
  -27.2051  -20.7351   23.4550 C   0  0  0  0  0  0
  -28.6956  -19.5796   21.3772 C   0  0  0  0  0  0
  -27.4984  -19.3585   23.4007 C   0  0  0  0  0  0
  -28.2157  -17.7891   25.2673 C   0  0  0  0  0  0
  -26.1870  -17.2210   23.8409 C   0  0  0  0  0  0
  -25.3015  -20.6533   27.5521 C   0  0  0  0  0  0
  -26.7611  -22.5984   28.2075 C   0  0  0  0  0  0
  -28.7918  -22.1086   20.2217 C   0  0  0  0  0  0
  -26.3156  -21.3433   24.5393 C   0  0  0  0  0  0
  -29.3131  -18.5825   20.3171 C   0  0  0  0  0  0
  -28.9934  -23.6957   20.5811 C   0  0  0  0  0  0
  -27.0232  -21.5683   25.8919 C   0  0  0  0  0  0
  -30.2383  -17.3300   20.8148 C   0  0  0  0  0  0
  -27.9773  -24.8519   20.0817 C   0  0  0  0  0  0
  -27.0350  -18.3469   24.4582 C   0  0  0  0  0  0
  -26.0437  -21.9023   27.0416 C   0  0  0  0  0  0
  -28.2193  -18.8317   22.3954 N   0  0  0  0  0  0
  -29.8139  -15.8596   20.7020 N   0  0  0  0  0  0
  -31.4705  -12.5865   19.1627 H   0  0  0  0  0  0
  -30.3853  -11.4719   19.9507 H   0  0  0  0  0  0
  -29.7875  -11.7282   17.5178 H   0  0  0  0  0  0
  -29.6247  -13.4558   17.7207 H   0  0  0  0  0  0
  -27.8951  -11.2731   18.9237 H   0  0  0  0  0  0
  -27.3702  -12.4999   17.8054 H   0  0  0  0  0  0
  -27.6361  -14.2457   19.4688 H   0  0  0  0  0  0
  -28.7204  -12.1463   21.4166 H   0  0  0  0  0  0
  -28.4192  -13.8230   21.8029 H   0  0  0  0  0  0
  -25.2743   -9.5708   22.4784 H   0  0  0  0  0  0
  -23.9994   -7.4646   22.7477 H   0  0  0  0  0  0
  -21.0847   -8.8782   19.8950 H   0  0  0  0  0  0
  -22.3681  -10.9688   19.6190 H   0  0  0  0  0  0
  -21.2002   -7.6157   23.9721 H   0  0  0  0  0  0
  -21.1490   -6.0520   25.9078 H   0  0  0  0  0  0
  -22.0596   -2.7606   23.2845 H   0  0  0  0  0  0
  -22.4050  -11.9882   22.4807 H   0  0  0  0  0  0
  -21.1090  -13.1296   22.2640 H   0  0  0  0  0  0
  -24.6562  -15.8471   20.5368 H   0  0  0  0  0  0
  -26.2671  -15.6350   20.0812 H   0  0  0  0  0  0
  -26.7245  -32.5391   23.1116 H   0  0  0  0  0  0
  -25.0115  -33.9673   25.0470 H   0  0  0  0  0  0
  -22.7259  -31.3005   21.4059 H   0  0  0  0  0  0
  -23.3746  -35.9659   23.3238 H   0  0  0  0  0  0
  -24.3582  -36.9010   22.2054 H   0  0  0  0  0  0
  -23.7282  -37.6492   23.6709 H   0  0  0  0  0  0
  -26.1271  -31.5227   20.6220 H   0  0  0  0  0  0
  -26.8536  -30.8034   22.0272 H   0  0  0  0  0  0
  -28.1120  -28.8917   21.2356 H   0  0  0  0  0  0
  -25.9415  -25.9297   18.9586 H   0  0  0  0  0  0
  -23.9775  -27.3459   18.9535 H   0  0  0  0  0  0
  -23.7848  -30.6061   19.4100 H   0  0  0  0  0  0
  -22.7688  -29.2624   19.8454 H   0  0  0  0  0  0
  -25.1300  -36.1901   25.0804 H   0  0  0  0  0  0
  -20.9963  -28.3264   24.1380 H   0  0  0  0  0  0
  -20.5673  -26.2284   23.3601 H   0  0  0  0  0  0
  -21.6661  -26.7427   22.1193 H   0  0  0  0  0  0
  -19.6919  -25.6266   21.1219 H   0  0  0  0  0  0
  -19.6703  -27.3150   20.6698 H   0  0  0  0  0  0
  -17.4231  -26.6628   21.3971 H   0  0  0  0  0  0
  -18.0324  -26.0045   22.8968 H   0  0  0  0  0  0
  -19.7919  -30.7243   24.2211 H   0  0  0  0  0  0
  -17.5000  -31.6205   24.5160 H   0  0  0  0  0  0
  -15.5320  -30.2907   23.7686 H   0  0  0  0  0  0
  -15.8687  -28.0782   22.7033 H   0  0  0  0  0  0
  -24.6005  -30.6917   25.7822 H   0  0  0  0  0  0
  -24.8880  -32.2755   26.4909 H   0  0  0  0  0  0
  -25.8140  -30.8846   27.0260 H   0  0  0  0  0  0
  -26.3030  -29.6594   24.1391 H   0  0  0  0  0  0
  -27.4196  -29.7309   25.4815 H   0  0  0  0  0  0
  -27.8880  -30.4212   23.9505 H   0  0  0  0  0  0
  -27.2737  -33.3638   26.2028 H   0  0  0  0  0  0
  -28.3920  -32.6795   25.0340 H   0  0  0  0  0  0
  -28.0750  -31.8466   26.5454 H   0  0  0  0  0  0
  -28.2566  -38.0152   24.7568 H   0  0  0  0  0  0
  -28.1172  -36.2682   24.6197 H   0  0  0  0  0  0
  -27.2310  -37.1348   25.8838 H   0  0  0  0  0  0
  -20.9431  -29.8798   21.6893 H   0  0  0  0  0  0
  -26.0168  -38.2820   24.1423 H   0  0  0  0  0  0
  -27.4429  -22.6057   22.4436 H   0  0  0  0  0  0
  -28.8048  -18.5964   25.7024 H   0  0  0  0  0  0
  -28.8783  -17.1938   24.6375 H   0  0  0  0  0  0
  -27.8698  -17.1554   26.0837 H   0  0  0  0  0  0
  -25.3415  -17.6270   23.2847 H   0  0  0  0  0  0
  -25.7928  -16.5553   24.6081 H   0  0  0  0  0  0
  -26.7780  -16.6156   23.1515 H   0  0  0  0  0  0
  -24.5935  -20.9135   28.3386 H   0  0  0  0  0  0
  -25.9963  -19.9203   27.9654 H   0  0  0  0  0  0
  -24.7330  -20.1621   26.7621 H   0  0  0  0  0  0
  -26.0551  -22.8824   28.9890 H   0  0  0  0  0  0
  -27.2600  -23.5121   27.8785 H   0  0  0  0  0  0
  -27.5123  -21.9502   28.6595 H   0  0  0  0  0  0
  -28.0253  -22.0270   19.4503 H   0  0  0  0  0  0
  -29.7056  -21.7615   19.7391 H   0  0  0  0  0  0
  -25.4322  -20.7163   24.6570 H   0  0  0  0  0  0
  -25.9244  -22.2963   24.1839 H   0  0  0  0  0  0
  -29.9165  -19.1999   19.6523 H   0  0  0  0  0  0
  -28.5034  -18.2056   19.6906 H   0  0  0  0  0  0
  -29.9482  -23.9670   20.1289 H   0  0  0  0  0  0
  -29.1803  -23.8126   21.6490 H   0  0  0  0  0  0
  -27.7424  -22.3784   25.7673 H   0  0  0  0  0  0
  -27.6146  -20.6955   26.1707 H   0  0  0  0  0  0
  -30.5481  -17.5107   21.8449 H   0  0  0  0  0  0
  -31.1632  -17.4089   20.2434 H   0  0  0  0  0  0
  -27.0309  -24.6535   20.5882 H   0  0  0  0  0  0
  -27.7939  -24.6697   19.0220 H   0  0  0  0  0  0
  -26.3876  -18.8424   25.1785 H   0  0  0  0  0  0
  -25.3012  -22.6061   26.6592 H   0  0  0  0  0  0
  -28.8391  -15.6723   20.8847 H   0  0  0  0  0  0
  1 25  1  0  0  0
  1 30  2  0  0  0
  1 90  1  0  0  0
  2  3  1  0  0  0
  2 25  1  0  0  0
  2 91  1  0  0  0
  2 92  1  0  0  0
  3  4  1  0  0  0
  3 93  1  0  0  0
  3 94  1  0  0  0
  4  5  1  0  0  0
  4 95  1  0  0  0
  4 96  1  0  0  0
  5  6  1  0  0  0
  5 26  1  0  0  0
  5 97  1  0  0  0
  6 25  1  0  0  0
  6 98  1  0  0  0
  6 99  1  0  0  0
  7  8  2  0  0  0
  7 26  1  0  0  0
  7 29  1  0  0  0
  8  9  1  0  0  0
  8 22  1  0  0  0
  9 10  1  0  0  0
  9 27  2  0  0  0
 10 11  2  0  0  0
 10 15  1  0  0  0
 11 12  1  0  0  0
 11100  1  0  0  0
 12 13  2  0  0  0
 12101  1  0  0  0
 13 14  1  0  0  0
 13 31  1  0  0  0
 14 15  2  0  0  0
 14102  1  0  0  0
 15103  1  0  0  0
 16 17  2  0  0  0
 16 21  1  0  0  0
 16 31  1  0  0  0
 17 18  1  0  0  0
 17104  1  0  0  0
 18 19  2  0  0  0
 18105  1  0  0  0
 19 20  1  0  0  0
 19 24  1  0  0  0
 20 21  2  0  0  0
 20106  1  0  0  0
 21 23  1  0  0  0
 22 28  1  0  0  0
 22 32  2  0  0  0
 26 27  1  0  0  0
 28107  1  0  0  0
 28108  1  0  0  0
 29109  1  0  0  0
 29110  1  0  0  0
 33 34  1  0  0  0
 33 66  1  0  0  0
 33 70  2  0  0  0
 34 36  1  0  0  0
 34 59  1  0  0  0
 34111  1  0  0  0
 35 44  2  0  0  0
 35 45  1  0  0  0
 35 68  1  0  0  0
 36 56  1  0  0  0
 36112  1  0  0  0
 37 39  1  0  0  0
 37 47  1  0  0  0
 37 66  1  0  0  0
 37113  1  0  0  0
 38 43  2  0  0  0
 38 46  1  0  0  0
 38 47  1  0  0  0
 39 64  1  0  0  0
 39 67  2  0  0  0
 40 52  1  0  0  0
 40 53  2  0  0  0
 40 58  1  0  0  0
 41114  1  0  0  0
 41115  1  0  0  0
 41116  1  0  0  0
 41 48  1  0  0  0
 42 43  1  0  0  0
 42 66  1  0  0  0
 42117  1  0  0  0
 42118  1  0  0  0
 43 44  1  0  0  0
 44119  1  0  0  0
 45 46  2  0  0  0
 45120  1  0  0  0
 46121  1  0  0  0
 47122  1  0  0  0
 47123  1  0  0  0
 48 56  1  0  0  0
 48 65  1  0  0  0
 48124  1  0  0  0
 49 50  1  0  0  0
 49 53  1  0  0  0
 49 64  1  0  0  0
 49125  1  0  0  0
 50 51  1  0  0  0
 50126  1  0  0  0
 50127  1  0  0  0
 51 52  1  0  0  0
 51128  1  0  0  0
 51129  1  0  0  0
 52130  1  0  0  0
 52131  1  0  0  0
 53 54  1  0  0  0
 54 55  2  0  0  0
 54132  1  0  0  0
 55 57  1  0  0  0
 55133  1  0  0  0
 56 69  2  0  0  0
 57 58  2  0  0  0
 57134  1  0  0  0
 58135  1  0  0  0
 59 60  1  0  0  0
 59 61  1  0  0  0
 59 62  1  0  0  0
 60136  1  0  0  0
 60137  1  0  0  0
 60138  1  0  0  0
 61139  1  0  0  0
 61140  1  0  0  0
 61141  1  0  0  0
 62142  1  0  0  0
 62143  1  0  0  0
 62144  1  0  0  0
 63 65  1  0  0  0
 63145  1  0  0  0
 63146  1  0  0  0
 63147  1  0  0  0
 64148  1  0  0  0
 65149  1  0  0  0
 68 86  1  0  0  0
 71 72  2  0  0  0
 71 73  1  0  0  0
 71150  1  0  0  0
 72 74  1  0  0  0
 72 80  1  0  0  0
 73 75  2  0  0  0
 73 81  1  0  0  0
 74 82  1  0  0  0
 74 89  2  0  0  0
 75 87  1  0  0  0
 75 89  1  0  0  0
 76151  1  0  0  0
 76152  1  0  0  0
 76153  1  0  0  0
 76 87  1  0  0  0
 77 87  1  0  0  0
 77154  1  0  0  0
 77155  1  0  0  0
 77156  1  0  0  0
 78157  1  0  0  0
 78158  1  0  0  0
 78159  1  0  0  0
 78 88  1  0  0  0
 79 88  1  0  0  0
 79160  1  0  0  0
 79161  1  0  0  0
 79162  1  0  0  0
 80 83  1  0  0  0
 80163  1  0  0  0
 80164  1  0  0  0
 81 84  1  0  0  0
 81165  1  0  0  0
 81166  1  0  0  0
 82 85  1  0  0  0
 82167  1  0  0  0
 82168  1  0  0  0
 83 86  1  0  0  0
 83169  1  0  0  0
 83170  1  0  0  0
 84 88  1  0  0  0
 84171  1  0  0  0
 84172  1  0  0  0
 85 90  1  0  0  0
 85173  1  0  0  0
 85174  1  0  0  0
 86175  1  0  0  0
 86176  1  0  0  0
 87177  1  0  0  0
 88178  1  0  0  0
 90179  1  0  0  0
M  ISO  4   1 100  68 101  86 101  90 100
M  END
> <chiral flag>
0

> <version>
0

> <s_m_source_file>
/data/baiqing/PycharmProjects/Reinvent-master-3.2/result/LINK_invent/BTK/process_docking_weight1_custom_sum_contain_oxygen_bond_distance_aromatic_linkinvent_7_9_3/rearranged_h_0089.sdf

> <i_m_source_file_index>
60

> <r_mmod_Potential_Energy-OPLS-2005>
75.0304183959961

> <r_mmod_Stretch_Energy-OPLS-2005>
136.882904052734

> <r_mmod_Bend_Energy-OPLS-2005>
208.817306518555

> <r_mmod_Torsional_Energy-OPLS-2005>
227.05339050293

> <r_mmod_Improper_Torsional_Energy-OPLS-2005>
5.04550695419312

> <r_mmod_Van_der_Waal_Energy-OPLS-2005>
134.759338378906

> <r_mmod_Electrostatic_Energy-OPLS-2005>
-522.597106933594

> <r_mmod_Solvation_Energy-OPLS-2005>
-206.427444458008

> <b_mmod_Minimization_Converged-OPLS-2005>
0

> <r_mmod_RMS_Derivative-OPLS-2005>
2.87823605537415

$$$$
61
                    3D
 Structure written by MMmdl.
180188  0  0  1  0            999 V2000
  -30.7008  -14.4673   20.5761 C   0  0  0  0  0  0
  -30.4193  -12.3024   19.4332 C   0  0  0  0  0  0
  -29.4943  -12.4974   18.2138 C   0  0  0  0  0  0
  -28.0153  -12.3584   18.6247 C   0  0  0  0  0  0
  -27.6596  -13.2048   19.8763 C   0  0  2  0  0  0
  -28.6980  -12.9927   21.0017 C   0  0  0  0  0  0
  -25.2563  -13.8125   20.5683 C   0  0  0  0  0  0
  -24.1816  -13.0413   20.9182 C   0  0  0  0  0  0
  -24.6380  -11.6890   20.8738 C   0  0  0  0  0  0
  -23.9048  -10.4281   21.0401 C   0  0  0  0  0  0
  -24.3602   -9.4201   21.9184 C   0  0  0  0  0  0
  -23.6280   -8.2234   22.0752 C   0  0  0  0  0  0
  -22.4264   -8.0275   21.3537 C   0  0  0  0  0  0
  -21.9899   -9.0244   20.4637 C   0  0  0  0  0  0
  -22.7220  -10.2123   20.3047 C   0  0  0  0  0  0
  -21.6847   -6.0733   22.5275 C   0  0  0  0  0  0
  -21.4010   -6.5636   23.8208 C   0  0  0  0  0  0
  -21.3659   -5.6784   24.9170 C   0  0  0  0  0  0
  -21.6049   -4.3054   24.7214 C   0  0  0  0  0  0
  -21.8821   -3.8142   23.4341 C   0  0  0  0  0  0
  -21.9191   -4.6959   22.3402 C   0  0  0  0  0  0
  -22.7843  -13.5221   21.1849 C   0  0  0  0  0  0
  -22.1658   -4.2150   21.0980 F   0  0  0  0  0  0
  -21.5635   -3.4539   25.7730 F   0  0  0  0  0  0
  -30.0309  -13.2900   20.4532 N   0  0  0  0  0  0
  -26.3008  -12.9312   20.3373 N   0  0  0  0  0  0
  -25.9307  -11.6469   20.5773 N   0  0  0  0  0  0
  -22.0480  -12.8208   22.0400 N   0  0  0  0  0  0
  -25.4271  -15.1821   20.4057 N   0  0  0  0  0  0
  -31.8152  -14.6531   20.0791 O   0  0  0  0  0  0
  -21.6623   -6.8875   21.4240 O   0  0  0  0  0  0
  -22.3528  -14.5531   20.6712 O   0  0  0  0  0  0
  -24.6138  -31.8681   23.2085 C   0  0  0  0  0  0
  -25.9032  -32.4819   23.8384 C   0  0  1  0  0  0
  -27.2402  -27.4345   20.0912 C   0  0  0  0  0  0
  -25.5910  -33.8615   24.2326 N   0  0  0  0  0  0
  -23.4015  -30.4896   21.5488 C   0  0  2  0  0  0
  -24.8461  -28.9486   20.1196 C   0  0  0  0  0  0
  -22.7406  -29.4654   22.4993 C   0  0  0  0  0  0
  -18.0280  -28.1345   22.8471 C   0  0  0  0  0  0
  -24.1494  -36.7306   23.2641 C   0  0  0  0  0  0
  -25.9293  -30.8323   21.3603 C   0  0  0  0  0  0
  -26.0045  -29.4643   20.7099 C   0  0  0  0  0  0
  -27.2011  -28.7152   20.6891 C   0  0  0  0  0  0
  -26.0562  -26.9220   19.5115 C   0  0  0  0  0  0
  -24.8659  -27.6764   19.5203 C   0  0  0  0  0  0
  -23.6096  -29.8172   20.1651 C   0  0  0  0  0  0
  -25.4118  -36.3114   24.0348 C   0  0  1  0  0  0
  -20.5868  -28.3639   23.1311 C   0  0  2  0  0  0
  -20.6778  -26.9375   22.5405 C   0  0  0  0  0  0
  -19.5765  -26.6362   21.5190 C   0  0  0  0  0  0
  -18.1935  -26.7894   22.1595 C   0  0  0  0  0  0
  -19.1526  -28.8806   23.2884 C   0  0  0  0  0  0
  -18.9462  -30.1404   23.8910 C   0  0  0  0  0  0
  -17.6471  -30.6559   24.0550 C   0  0  0  0  0  0
  -25.9044  -34.9476   23.5141 C   0  0  0  0  0  0
  -16.5362  -29.9066   23.6307 C   0  0  0  0  0  0
  -16.7272  -28.6475   23.0337 C   0  0  0  0  0  0
  -26.4471  -31.6601   25.0706 C   0  0  0  0  0  0
  -25.3743  -31.3712   26.1461 C   0  0  0  0  0  0
  -27.0297  -30.3060   24.6042 C   0  0  0  0  0  0
  -27.6054  -32.4321   25.7466 C   0  0  0  0  0  0
  -27.5600  -37.1803   24.8467 C   0  0  0  0  0  0
  -21.4141  -29.3016   22.3729 N   0  0  0  0  0  0
  -26.4311  -37.3791   23.9413 N   0  0  0  0  0  0
  -24.6662  -31.0783   22.0978 N   0  0  0  0  0  0
  -23.4178  -28.8207   23.3048 O   0  0  0  0  0  0
  -28.4528  -26.7734   20.0798 O   0  0  0  0  0  0
  -26.5583  -34.8928   22.4687 O   0  0  0  0  0  0
  -23.5330  -32.1430   23.7487 O   0  0  0  0  0  0
  -27.9845  -21.8327   19.5508 C   0  0  0  0  0  0
  -28.9107  -20.7810   21.5302 C   0  0  0  0  0  0
  -28.7303  -21.9360   20.7363 C   0  0  0  0  0  0
  -27.3942  -20.6104   19.1701 C   0  0  0  0  0  0
  -28.3257  -19.5371   21.1818 C   0  0  0  0  0  0
  -27.5514  -19.4551   19.9887 C   0  0  0  0  0  0
  -26.8632  -18.1428   19.6241 C   0  0  0  0  0  0
  -27.9731  -18.6919   23.5470 C   0  0  0  0  0  0
  -22.6904  -20.5524   17.3068 C   0  0  0  0  0  0
  -24.4186  -21.7075   15.8779 C   0  0  0  0  0  0
  -29.3665  -23.2653   21.1451 C   0  0  0  0  0  0
  -26.5718  -20.6076   17.8864 C   0  0  0  0  0  0
  -28.4526  -24.5229   21.0935 C   0  0  0  0  0  0
  -25.0633  -20.7494   18.1636 C   0  0  0  0  0  0
  -29.9431  -17.7897   22.2120 C   0  0  0  0  0  0
  -30.4064  -16.9029   21.0311 C   0  0  0  0  0  0
  -28.5562  -25.3705   19.8019 C   0  0  0  0  0  0
  -28.4931  -18.3368   22.1419 C   0  0  2  0  0  0
  -24.1745  -20.5967   16.9129 C   0  0  0  0  0  0
  -30.0148  -15.4841   21.1348 N   0  0  0  0  0  0
  -31.4645  -12.3955   19.1344 H   0  0  0  0  0  0
  -30.3164  -11.2924   19.8359 H   0  0  0  0  0  0
  -29.7353  -11.7672   17.4393 H   0  0  0  0  0  0
  -29.6628  -13.4805   17.7719 H   0  0  0  0  0  0
  -27.8290  -11.3036   18.8290 H   0  0  0  0  0  0
  -27.3646  -12.6245   17.7907 H   0  0  0  0  0  0
  -27.7029  -14.2513   19.5734 H   0  0  0  0  0  0
  -28.6706  -11.9598   21.3515 H   0  0  0  0  0  0
  -28.4581  -13.6008   21.8745 H   0  0  0  0  0  0
  -25.2747   -9.5681   22.4755 H   0  0  0  0  0  0
  -23.9995   -7.4623   22.7469 H   0  0  0  0  0  0
  -21.0836   -8.8758   19.8928 H   0  0  0  0  0  0
  -22.3690  -10.9663   19.6155 H   0  0  0  0  0  0
  -21.1997   -7.6140   23.9714 H   0  0  0  0  0  0
  -21.1486   -6.0513   25.9072 H   0  0  0  0  0  0
  -22.0603   -2.7607   23.2834 H   0  0  0  0  0  0
  -22.4098  -11.9856   22.4760 H   0  0  0  0  0  0
  -21.1101  -13.1237   22.2615 H   0  0  0  0  0  0
  -24.6552  -15.8331   20.4942 H   0  0  0  0  0  0
  -26.2754  -15.6089   20.0616 H   0  0  0  0  0  0
  -26.7105  -32.5534   23.1146 H   0  0  0  0  0  0
  -25.0129  -33.9782   25.0522 H   0  0  0  0  0  0
  -22.6910  -31.3066   21.4050 H   0  0  0  0  0  0
  -23.3781  -35.9611   23.3286 H   0  0  0  0  0  0
  -24.3605  -36.8943   22.2061 H   0  0  0  0  0  0
  -23.7218  -37.6498   23.6654 H   0  0  0  0  0  0
  -26.0392  -31.5947   20.5890 H   0  0  0  0  0  0
  -26.8182  -30.8878   21.9775 H   0  0  0  0  0  0
  -28.1019  -29.1138   21.1346 H   0  0  0  0  0  0
  -26.0241  -25.9539   19.0372 H   0  0  0  0  0  0
  -23.9712  -27.2729   19.0667 H   0  0  0  0  0  0
  -23.7212  -30.5884   19.4019 H   0  0  0  0  0  0
  -22.7335  -29.2376   19.8687 H   0  0  0  0  0  0
  -25.1289  -36.2002   25.0842 H   0  0  0  0  0  0
  -20.9941  -28.3200   24.1441 H   0  0  0  0  0  0
  -20.5682  -26.2238   23.3586 H   0  0  0  0  0  0
  -21.6653  -26.7415   22.1209 H   0  0  0  0  0  0
  -19.6941  -25.6276   21.1227 H   0  0  0  0  0  0
  -19.6746  -27.3170   20.6721 H   0  0  0  0  0  0
  -17.4216  -26.6645   21.3983 H   0  0  0  0  0  0
  -18.0336  -26.0011   22.8965 H   0  0  0  0  0  0
  -19.7945  -30.7180   24.2328 H   0  0  0  0  0  0
  -17.5037  -31.6254   24.5118 H   0  0  0  0  0  0
  -15.5363  -30.2974   23.7617 H   0  0  0  0  0  0
  -15.8671  -28.0796   22.7055 H   0  0  0  0  0  0
  -24.5874  -30.7113   25.7791 H   0  0  0  0  0  0
  -24.8969  -32.2865   26.4959 H   0  0  0  0  0  0
  -25.8077  -30.8828   27.0192 H   0  0  0  0  0  0
  -26.2805  -29.6832   24.1130 H   0  0  0  0  0  0
  -27.4150  -29.7292   25.4461 H   0  0  0  0  0  0
  -27.8605  -30.4431   23.9117 H   0  0  0  0  0  0
  -27.2691  -33.3645   26.2018 H   0  0  0  0  0  0
  -28.3858  -32.6857   25.0275 H   0  0  0  0  0  0
  -28.0702  -31.8446   26.5393 H   0  0  0  0  0  0
  -28.2588  -38.0117   24.7529 H   0  0  0  0  0  0
  -28.1124  -36.2652   24.6283 H   0  0  0  0  0  0
  -27.2313  -37.1456   25.8864 H   0  0  0  0  0  0
  -20.9304  -29.8766   21.6981 H   0  0  0  0  0  0
  -26.0222  -38.2881   24.1405 H   0  0  0  0  0  0
  -27.8555  -22.7030   18.9238 H   0  0  0  0  0  0
  -29.4954  -20.8562   22.4361 H   0  0  0  0  0  0
  -26.3805  -18.1350   18.6515 H   0  0  0  0  0  0
  -26.0882  -17.9297   20.3608 H   0  0  0  0  0  0
  -27.5786  -17.3204   19.6189 H   0  0  0  0  0  0
  -26.9381  -19.0336   23.5047 H   0  0  0  0  0  0
  -28.5640  -19.4759   24.0204 H   0  0  0  0  0  0
  -27.9989  -17.8243   24.2066 H   0  0  0  0  0  0
  -22.0559  -20.3688   16.4389 H   0  0  0  0  0  0
  -22.3717  -21.4922   17.7601 H   0  0  0  0  0  0
  -22.4936  -19.7549   18.0244 H   0  0  0  0  0  0
  -23.7611  -21.5916   15.0155 H   0  0  0  0  0  0
  -25.4406  -21.6903   15.4992 H   0  0  0  0  0  0
  -24.2383  -22.6951   16.3038 H   0  0  0  0  0  0
  -30.2666  -23.4198   20.5488 H   0  0  0  0  0  0
  -29.7228  -23.1548   22.1700 H   0  0  0  0  0  0
  -26.7881  -19.7189   17.2939 H   0  0  0  0  0  0
  -26.9002  -21.4375   17.2601 H   0  0  0  0  0  0
  -28.7918  -25.1693   21.9043 H   0  0  0  0  0  0
  -27.4160  -24.2846   21.3341 H   0  0  0  0  0  0
  -24.8708  -21.7088   18.6460 H   0  0  0  0  0  0
  -24.7697  -19.9900   18.8891 H   0  0  0  0  0  0
  -30.6291  -18.6326   22.3105 H   0  0  0  0  0  0
  -30.0752  -17.2147   23.1293 H   0  0  0  0  0  0
  -31.4952  -16.9693   20.9862 H   0  0  0  0  0  0
  -30.0461  -17.3095   20.0852 H   0  0  0  0  0  0
  -27.8839  -25.0171   19.0227 H   0  0  0  0  0  0
  -29.5522  -25.2432   19.3772 H   0  0  0  0  0  0
  -27.8669  -17.5048   21.8284 H   0  0  0  0  0  0
  -24.4131  -19.6415   16.4432 H   0  0  0  0  0  0
  -29.1092  -15.2671   21.5228 H   0  0  0  0  0  0
  1 25  1  0  0  0
  1 30  2  0  0  0
  1 90  1  0  0  0
  2  3  1  0  0  0
  2 25  1  0  0  0
  2 91  1  0  0  0
  2 92  1  0  0  0
  3  4  1  0  0  0
  3 93  1  0  0  0
  3 94  1  0  0  0
  4  5  1  0  0  0
  4 95  1  0  0  0
  4 96  1  0  0  0
  5  6  1  0  0  0
  5 26  1  0  0  0
  5 97  1  0  0  0
  6 25  1  0  0  0
  6 98  1  0  0  0
  6 99  1  0  0  0
  7  8  2  0  0  0
  7 26  1  0  0  0
  7 29  1  0  0  0
  8  9  1  0  0  0
  8 22  1  0  0  0
  9 10  1  0  0  0
  9 27  2  0  0  0
 10 11  2  0  0  0
 10 15  1  0  0  0
 11 12  1  0  0  0
 11100  1  0  0  0
 12 13  2  0  0  0
 12101  1  0  0  0
 13 14  1  0  0  0
 13 31  1  0  0  0
 14 15  2  0  0  0
 14102  1  0  0  0
 15103  1  0  0  0
 16 17  2  0  0  0
 16 21  1  0  0  0
 16 31  1  0  0  0
 17 18  1  0  0  0
 17104  1  0  0  0
 18 19  2  0  0  0
 18105  1  0  0  0
 19 20  1  0  0  0
 19 24  1  0  0  0
 20 21  2  0  0  0
 20106  1  0  0  0
 21 23  1  0  0  0
 22 28  1  0  0  0
 22 32  2  0  0  0
 26 27  1  0  0  0
 28107  1  0  0  0
 28108  1  0  0  0
 29109  1  0  0  0
 29110  1  0  0  0
 33 34  1  0  0  0
 33 66  1  0  0  0
 33 70  2  0  0  0
 34 36  1  0  0  0
 34 59  1  0  0  0
 34111  1  0  0  0
 35 44  2  0  0  0
 35 45  1  0  0  0
 35 68  1  0  0  0
 36 56  1  0  0  0
 36112  1  0  0  0
 37 39  1  0  0  0
 37 47  1  0  0  0
 37 66  1  0  0  0
 37113  1  0  0  0
 38 43  2  0  0  0
 38 46  1  0  0  0
 38 47  1  0  0  0
 39 64  1  0  0  0
 39 67  2  0  0  0
 40 52  1  0  0  0
 40 53  2  0  0  0
 40 58  1  0  0  0
 41114  1  0  0  0
 41115  1  0  0  0
 41116  1  0  0  0
 41 48  1  0  0  0
 42 43  1  0  0  0
 42 66  1  0  0  0
 42117  1  0  0  0
 42118  1  0  0  0
 43 44  1  0  0  0
 44119  1  0  0  0
 45 46  2  0  0  0
 45120  1  0  0  0
 46121  1  0  0  0
 47122  1  0  0  0
 47123  1  0  0  0
 48 56  1  0  0  0
 48 65  1  0  0  0
 48124  1  0  0  0
 49 50  1  0  0  0
 49 53  1  0  0  0
 49 64  1  0  0  0
 49125  1  0  0  0
 50 51  1  0  0  0
 50126  1  0  0  0
 50127  1  0  0  0
 51 52  1  0  0  0
 51128  1  0  0  0
 51129  1  0  0  0
 52130  1  0  0  0
 52131  1  0  0  0
 53 54  1  0  0  0
 54 55  2  0  0  0
 54132  1  0  0  0
 55 57  1  0  0  0
 55133  1  0  0  0
 56 69  2  0  0  0
 57 58  2  0  0  0
 57134  1  0  0  0
 58135  1  0  0  0
 59 60  1  0  0  0
 59 61  1  0  0  0
 59 62  1  0  0  0
 60136  1  0  0  0
 60137  1  0  0  0
 60138  1  0  0  0
 61139  1  0  0  0
 61140  1  0  0  0
 61141  1  0  0  0
 62142  1  0  0  0
 62143  1  0  0  0
 62144  1  0  0  0
 63 65  1  0  0  0
 63145  1  0  0  0
 63146  1  0  0  0
 63147  1  0  0  0
 64148  1  0  0  0
 65149  1  0  0  0
 68 87  1  0  0  0
 71 73  2  0  0  0
 71 74  1  0  0  0
 71150  1  0  0  0
 72 73  1  0  0  0
 72 75  2  0  0  0
 72151  1  0  0  0
 73 81  1  0  0  0
 74 76  2  0  0  0
 74 82  1  0  0  0
 75 76  1  0  0  0
 75 88  1  0  0  0
 76 77  1  0  0  0
 77152  1  0  0  0
 77153  1  0  0  0
 77154  1  0  0  0
 78155  1  0  0  0
 78156  1  0  0  0
 78157  1  0  0  0
 78 88  1  0  0  0
 79158  1  0  0  0
 79159  1  0  0  0
 79160  1  0  0  0
 79 89  1  0  0  0
 80 89  1  0  0  0
 80161  1  0  0  0
 80162  1  0  0  0
 80163  1  0  0  0
 81 83  1  0  0  0
 81164  1  0  0  0
 81165  1  0  0  0
 82 84  1  0  0  0
 82166  1  0  0  0
 82167  1  0  0  0
 83 87  1  0  0  0
 83168  1  0  0  0
 83169  1  0  0  0
 84 89  1  0  0  0
 84170  1  0  0  0
 84171  1  0  0  0
 85 86  1  0  0  0
 85 88  1  0  0  0
 85172  1  0  0  0
 85173  1  0  0  0
 86 90  1  0  0  0
 86174  1  0  0  0
 86175  1  0  0  0
 87176  1  0  0  0
 87177  1  0  0  0
 88178  1  0  0  0
 89179  1  0  0  0
 90180  1  0  0  0
M  ISO  4   1 100  68 101  87 101  90 100
M  END
> <chiral flag>
0

> <version>
0

> <s_m_source_file>
/data/baiqing/PycharmProjects/Reinvent-master-3.2/result/LINK_invent/BTK/process_docking_weight1_custom_sum_contain_oxygen_bond_distance_aromatic_linkinvent_7_9_3/rearranged_h_0089.sdf

> <i_m_source_file_index>
61

> <r_mmod_Potential_Energy-OPLS-2005>
-45.8755912780762

> <r_mmod_Stretch_Energy-OPLS-2005>
40.9184494018555

> <r_mmod_Bend_Energy-OPLS-2005>
117.352836608887

> <r_mmod_Torsional_Energy-OPLS-2005>
221.703353881836

> <r_mmod_Improper_Torsional_Energy-OPLS-2005>
4.01021766662598

> <r_mmod_Van_der_Waal_Energy-OPLS-2005>
150.96159362793

> <r_mmod_Electrostatic_Energy-OPLS-2005>
-400.709228515625

> <r_mmod_Solvation_Energy-OPLS-2005>
-192.410736083984

> <b_mmod_Minimization_Converged-OPLS-2005>
0

> <r_mmod_RMS_Derivative-OPLS-2005>
1.94784462451935

$$$$
62
                    3D
 Structure written by MMmdl.
167175  0  0  1  0            999 V2000
  -30.6478  -14.6925   20.4149 C   0  0  0  0  0  0
  -30.4405  -12.3835   19.4848 C   0  0  0  0  0  0
  -29.5298  -12.4739   18.2397 C   0  0  0  0  0  0
  -28.0462  -12.3462   18.6367 C   0  0  0  0  0  0
  -27.6542  -13.2393   19.8494 C   0  0  2  0  0  0
  -28.7057  -13.1622   20.9811 C   0  0  0  0  0  0
  -25.2591  -13.8282   20.5750 C   0  0  0  0  0  0
  -24.1852  -13.0489   20.9284 C   0  0  0  0  0  0
  -24.6448  -11.6998   20.8765 C   0  0  0  0  0  0
  -23.9113  -10.4332   21.0377 C   0  0  0  0  0  0
  -24.3660   -9.4275   21.9152 C   0  0  0  0  0  0
  -23.6347   -8.2281   22.0726 C   0  0  0  0  0  0
  -22.4310   -8.0306   21.3562 C   0  0  0  0  0  0
  -21.9961   -9.0245   20.4644 C   0  0  0  0  0  0
  -22.7286  -10.2158   20.3052 C   0  0  0  0  0  0
  -21.6889   -6.0769   22.5281 C   0  0  0  0  0  0
  -21.4000   -6.5645   23.8239 C   0  0  0  0  0  0
  -21.3722   -5.6802   24.9169 C   0  0  0  0  0  0
  -21.6066   -4.3048   24.7227 C   0  0  0  0  0  0
  -21.8803   -3.8175   23.4316 C   0  0  0  0  0  0
  -21.9197   -4.6974   22.3409 C   0  0  0  0  0  0
  -22.7868  -13.5281   21.1872 C   0  0  0  0  0  0
  -22.1665   -4.2157   21.0964 F   0  0  0  0  0  0
  -21.5663   -3.4542   25.7727 F   0  0  0  0  0  0
  -30.0288  -13.4685   20.4104 N   0  0  0  0  0  0
  -26.3001  -12.9500   20.3286 N   0  0  0  0  0  0
  -25.9375  -11.6645   20.5764 N   0  0  0  0  0  0
  -22.0462  -12.8280   22.0418 N   0  0  0  0  0  0
  -25.4271  -15.1981   20.4210 N   0  0  0  0  0  0
  -31.8138  -14.8114   20.0045 O   0  0  0  0  0  0
  -21.6707   -6.8875   21.4247 O   0  0  0  0  0  0
  -22.3537  -14.5549   20.6683 O   0  0  0  0  0  0
  -24.6288  -31.8625   23.2049 C   0  0  0  0  0  0
  -25.9117  -32.4798   23.8387 C   0  0  1  0  0  0
  -27.1993  -27.2544   20.1290 C   0  0  0  0  0  0
  -25.5911  -33.8613   24.2289 N   0  0  0  0  0  0
  -23.4236  -30.4909   21.5488 C   0  0  2  0  0  0
  -24.8685  -28.9505   20.1080 C   0  0  0  0  0  0
  -22.7466  -29.4619   22.4901 C   0  0  0  0  0  0
  -18.0272  -28.1396   22.8504 C   0  0  0  0  0  0
  -24.1470  -36.7307   23.2635 C   0  0  0  0  0  0
  -25.9751  -30.7756   21.3827 C   0  0  0  0  0  0
  -26.0471  -29.4002   20.7229 C   0  0  0  0  0  0
  -27.2145  -28.5655   20.7270 C   0  0  0  0  0  0
  -26.0009  -26.9035   19.4592 C   0  0  0  0  0  0
  -24.8558  -27.7096   19.4630 C   0  0  0  0  0  0
  -23.6421  -29.8411   20.1594 C   0  0  0  0  0  0
  -25.4104  -36.3108   24.0326 C   0  0  1  0  0  0
  -20.5878  -28.3693   23.1281 C   0  0  2  0  0  0
  -20.6766  -26.9424   22.5413 C   0  0  0  0  0  0
  -19.5733  -26.6398   21.5227 C   0  0  0  0  0  0
  -18.1912  -26.7944   22.1647 C   0  0  0  0  0  0
  -19.1535  -28.8868   23.2894 C   0  0  0  0  0  0
  -18.9456  -30.1445   23.8921 C   0  0  0  0  0  0
  -17.6478  -30.6610   24.0570 C   0  0  0  0  0  0
  -25.9052  -34.9471   23.5120 C   0  0  0  0  0  0
  -16.5345  -29.9114   23.6337 C   0  0  0  0  0  0
  -16.7266  -28.6515   23.0377 C   0  0  0  0  0  0
  -26.4485  -31.6622   25.0778 C   0  0  0  0  0  0
  -25.3730  -31.3835   26.1520 C   0  0  0  0  0  0
  -27.0278  -30.3016   24.6272 C   0  0  0  0  0  0
  -27.6048  -32.4347   25.7519 C   0  0  0  0  0  0
  -27.5567  -37.1794   24.8452 C   0  0  0  0  0  0
  -21.4176  -29.3057   22.3684 N   0  0  0  0  0  0
  -26.4268  -37.3800   23.9424 N   0  0  0  0  0  0
  -24.6954  -31.0553   22.1018 N   0  0  0  0  0  0
  -23.4214  -28.8154   23.2970 O   0  0  0  0  0  0
  -28.2504  -26.2985   20.2202 O   0  0  0  0  0  0
  -26.5630  -34.8923   22.4690 O   0  0  0  0  0  0
  -23.5431  -32.1430   23.7345 O   0  0  0  0  0  0
  -30.1206  -23.5778   20.1993 C   0  0  0  0  0  0
  -28.1533  -22.2608   20.6018 C   0  0  0  0  0  0
  -28.7241  -23.5690   20.3466 C   0  0  0  0  0  0
  -30.8333  -22.3657   20.3012 C   0  0  0  0  0  0
  -28.9547  -21.0681   20.7646 C   0  0  0  0  0  0
  -32.1331  -21.3765   18.4220 C   0  0  0  0  0  0
  -33.3643  -21.9059   20.6159 C   0  0  0  0  0  0
  -27.8018  -19.8263   22.6885 C   0  0  0  0  0  0
  -31.3256  -17.8955   20.5589 C   0  0  0  0  0  0
  -27.8436  -24.8537   20.0321 C   0  0  0  0  0  0
  -28.6855  -18.1186   20.8826 C   0  0  0  0  0  0
  -32.2129  -22.2670   19.6690 C   0  0  0  0  0  0
  -28.3540  -19.6776   21.2604 C   0  0  2  0  0  0
  -29.9400  -17.2965   20.3534 C   0  0  2  0  0  0
  -30.2873  -21.1845   20.6825 N   0  0  0  0  0  0
  -29.8592  -15.7916   20.6773 N   0  0  0  0  0  0
  -31.4936  -12.4557   19.1990 H   0  0  0  0  0  0
  -30.3389  -11.4067   19.9636 H   0  0  0  0  0  0
  -29.7874  -11.6897   17.5292 H   0  0  0  0  0  0
  -29.6962  -13.4247   17.7280 H   0  0  0  0  0  0
  -27.8691  -11.2966   18.8826 H   0  0  0  0  0  0
  -27.4179  -12.5712   17.7762 H   0  0  0  0  0  0
  -27.6525  -14.2675   19.4840 H   0  0  0  0  0  0
  -28.7190  -12.1783   21.4509 H   0  0  0  0  0  0
  -28.4585  -13.8771   21.7661 H   0  0  0  0  0  0
  -25.2774   -9.5786   22.4749 H   0  0  0  0  0  0
  -24.0119   -7.4681   22.7421 H   0  0  0  0  0  0
  -21.0916   -8.8733   19.8918 H   0  0  0  0  0  0
  -22.3705  -10.9667   19.6178 H   0  0  0  0  0  0
  -21.1944   -7.6147   23.9728 H   0  0  0  0  0  0
  -21.1609   -6.0520   25.9095 H   0  0  0  0  0  0
  -22.0524   -2.7609   23.2819 H   0  0  0  0  0  0
  -22.4126  -12.0045   22.4949 H   0  0  0  0  0  0
  -21.0983  -13.1189   22.2447 H   0  0  0  0  0  0
  -24.6598  -15.8536   20.5335 H   0  0  0  0  0  0
  -26.2676  -15.6284   20.0576 H   0  0  0  0  0  0
  -26.7186  -32.5452   23.1128 H   0  0  0  0  0  0
  -24.9999  -33.9764   25.0389 H   0  0  0  0  0  0
  -22.7173  -31.3139   21.4136 H   0  0  0  0  0  0
  -23.3725  -35.9631   23.3286 H   0  0  0  0  0  0
  -24.3563  -36.8951   22.2046 H   0  0  0  0  0  0
  -23.7203  -37.6505   23.6669 H   0  0  0  0  0  0
  -26.1073  -31.5390   20.6142 H   0  0  0  0  0  0
  -26.8530  -30.8276   22.0148 H   0  0  0  0  0  0
  -28.1009  -28.9065   21.2372 H   0  0  0  0  0  0
  -25.8944  -25.9659   18.9328 H   0  0  0  0  0  0
  -23.9552  -27.3725   18.9685 H   0  0  0  0  0  0
  -23.7692  -30.6327   19.4182 H   0  0  0  0  0  0
  -22.7555  -29.2864   19.8456 H   0  0  0  0  0  0
  -25.1253  -36.1962   25.0809 H   0  0  0  0  0  0
  -20.9977  -28.3280   24.1394 H   0  0  0  0  0  0
  -20.5695  -26.2307   23.3622 H   0  0  0  0  0  0
  -21.6626  -26.7467   22.1182 H   0  0  0  0  0  0
  -19.6898  -25.6308   21.1260 H   0  0  0  0  0  0
  -19.6674  -27.3206   20.6767 H   0  0  0  0  0  0
  -17.4182  -26.6685   21.4046 H   0  0  0  0  0  0
  -18.0306  -26.0081   22.9051 H   0  0  0  0  0  0
  -19.7942  -30.7245   24.2326 H   0  0  0  0  0  0
  -17.5033  -31.6288   24.5169 H   0  0  0  0  0  0
  -15.5358  -30.3050   23.7635 H   0  0  0  0  0  0
  -15.8645  -28.0846   22.7124 H   0  0  0  0  0  0
  -24.5814  -30.7274   25.7880 H   0  0  0  0  0  0
  -24.9035  -32.3053   26.4966 H   0  0  0  0  0  0
  -25.8036  -30.8986   27.0292 H   0  0  0  0  0  0
  -26.2867  -29.6805   24.1240 H   0  0  0  0  0  0
  -27.3849  -29.7229   25.4796 H   0  0  0  0  0  0
  -27.8789  -30.4209   23.9573 H   0  0  0  0  0  0
  -27.2665  -33.3637   26.2102 H   0  0  0  0  0  0
  -28.3851  -32.6940   25.0360 H   0  0  0  0  0  0
  -28.0737  -31.8506   26.5439 H   0  0  0  0  0  0
  -28.2576  -38.0096   24.7506 H   0  0  0  0  0  0
  -28.1068  -36.2631   24.6247 H   0  0  0  0  0  0
  -27.2306  -37.1407   25.8860 H   0  0  0  0  0  0
  -20.9350  -29.8827   21.6930 H   0  0  0  0  0  0
  -26.0148  -38.2856   24.1502 H   0  0  0  0  0  0
  -30.6329  -24.4818   19.8997 H   0  0  0  0  0  0
  -27.0756  -22.1551   20.6683 H   0  0  0  0  0  0
  -31.4423  -21.8295   17.7104 H   0  0  0  0  0  0
  -31.7697  -20.3731   18.6526 H   0  0  0  0  0  0
  -33.0937  -21.2824   17.9259 H   0  0  0  0  0  0
  -33.7560  -22.8131   21.0822 H   0  0  0  0  0  0
  -34.1864  -21.4379   20.0722 H   0  0  0  0  0  0
  -33.0492  -21.2212   21.3999 H   0  0  0  0  0  0
  -26.9870  -20.5517   22.6792 H   0  0  0  0  0  0
  -28.5525  -20.2123   23.3695 H   0  0  0  0  0  0
  -27.4044  -18.9010   23.1132 H   0  0  0  0  0  0
  -31.2711  -18.9717   20.5564 H   0  0  0  0  0  0
  -31.9538  -17.6457   19.7046 H   0  0  0  0  0  0
  -31.8211  -17.5593   21.4631 H   0  0  0  0  0  0
  -26.9319  -24.6857   20.6043 H   0  0  0  0  0  0
  -27.6059  -24.7385   18.9724 H   0  0  0  0  0  0
  -28.0108  -17.9461   20.0373 H   0  0  0  0  0  0
  -28.2634  -17.5023   21.6755 H   0  0  0  0  0  0
  -32.4543  -23.2595   19.2957 H   0  0  0  0  0  0
  -27.4121  -19.6726   20.7188 H   0  0  0  0  0  0
  -29.7803  -17.4434   19.2863 H   0  0  0  0  0  0
  -28.9671  -15.4816   21.0346 H   0  0  0  0  0  0
  1 25  1  0  0  0
  1 30  2  0  0  0
  1 86  1  0  0  0
  2  3  1  0  0  0
  2 25  1  0  0  0
  2 87  1  0  0  0
  2 88  1  0  0  0
  3  4  1  0  0  0
  3 89  1  0  0  0
  3 90  1  0  0  0
  4  5  1  0  0  0
  4 91  1  0  0  0
  4 92  1  0  0  0
  5  6  1  0  0  0
  5 26  1  0  0  0
  5 93  1  0  0  0
  6 25  1  0  0  0
  6 94  1  0  0  0
  6 95  1  0  0  0
  7  8  2  0  0  0
  7 26  1  0  0  0
  7 29  1  0  0  0
  8  9  1  0  0  0
  8 22  1  0  0  0
  9 10  1  0  0  0
  9 27  2  0  0  0
 10 11  2  0  0  0
 10 15  1  0  0  0
 11 12  1  0  0  0
 11 96  1  0  0  0
 12 13  2  0  0  0
 12 97  1  0  0  0
 13 14  1  0  0  0
 13 31  1  0  0  0
 14 15  2  0  0  0
 14 98  1  0  0  0
 15 99  1  0  0  0
 16 17  2  0  0  0
 16 21  1  0  0  0
 16 31  1  0  0  0
 17 18  1  0  0  0
 17100  1  0  0  0
 18 19  2  0  0  0
 18101  1  0  0  0
 19 20  1  0  0  0
 19 24  1  0  0  0
 20 21  2  0  0  0
 20102  1  0  0  0
 21 23  1  0  0  0
 22 28  1  0  0  0
 22 32  2  0  0  0
 26 27  1  0  0  0
 28103  1  0  0  0
 28104  1  0  0  0
 29105  1  0  0  0
 29106  1  0  0  0
 33 34  1  0  0  0
 33 66  1  0  0  0
 33 70  2  0  0  0
 34 36  1  0  0  0
 34 59  1  0  0  0
 34107  1  0  0  0
 35 44  2  0  0  0
 35 45  1  0  0  0
 35 68  1  0  0  0
 36 56  1  0  0  0
 36108  1  0  0  0
 37 39  1  0  0  0
 37 47  1  0  0  0
 37 66  1  0  0  0
 37109  1  0  0  0
 38 43  2  0  0  0
 38 46  1  0  0  0
 38 47  1  0  0  0
 39 64  1  0  0  0
 39 67  2  0  0  0
 40 52  1  0  0  0
 40 53  2  0  0  0
 40 58  1  0  0  0
 41110  1  0  0  0
 41111  1  0  0  0
 41112  1  0  0  0
 41 48  1  0  0  0
 42 43  1  0  0  0
 42 66  1  0  0  0
 42113  1  0  0  0
 42114  1  0  0  0
 43 44  1  0  0  0
 44115  1  0  0  0
 45 46  2  0  0  0
 45116  1  0  0  0
 46117  1  0  0  0
 47118  1  0  0  0
 47119  1  0  0  0
 48 56  1  0  0  0
 48 65  1  0  0  0
 48120  1  0  0  0
 49 50  1  0  0  0
 49 53  1  0  0  0
 49 64  1  0  0  0
 49121  1  0  0  0
 50 51  1  0  0  0
 50122  1  0  0  0
 50123  1  0  0  0
 51 52  1  0  0  0
 51124  1  0  0  0
 51125  1  0  0  0
 52126  1  0  0  0
 52127  1  0  0  0
 53 54  1  0  0  0
 54 55  2  0  0  0
 54128  1  0  0  0
 55 57  1  0  0  0
 55129  1  0  0  0
 56 69  2  0  0  0
 57 58  2  0  0  0
 57130  1  0  0  0
 58131  1  0  0  0
 59 60  1  0  0  0
 59 61  1  0  0  0
 59 62  1  0  0  0
 60132  1  0  0  0
 60133  1  0  0  0
 60134  1  0  0  0
 61135  1  0  0  0
 61136  1  0  0  0
 61137  1  0  0  0
 62138  1  0  0  0
 62139  1  0  0  0
 62140  1  0  0  0
 63 65  1  0  0  0
 63141  1  0  0  0
 63142  1  0  0  0
 63143  1  0  0  0
 64144  1  0  0  0
 65145  1  0  0  0
 68 80  1  0  0  0
 71 73  2  0  0  0
 71 74  1  0  0  0
 71146  1  0  0  0
 72 73  1  0  0  0
 72 75  2  0  0  0
 72147  1  0  0  0
 73 80  1  0  0  0
 74 82  1  0  0  0
 74 85  2  0  0  0
 75 83  1  0  0  0
 75 85  1  0  0  0
 76148  1  0  0  0
 76149  1  0  0  0
 76150  1  0  0  0
 76 82  1  0  0  0
 77 82  1  0  0  0
 77151  1  0  0  0
 77152  1  0  0  0
 77153  1  0  0  0
 78154  1  0  0  0
 78155  1  0  0  0
 78156  1  0  0  0
 78 83  1  0  0  0
 79157  1  0  0  0
 79158  1  0  0  0
 79159  1  0  0  0
 79 84  1  0  0  0
 80160  1  0  0  0
 80161  1  0  0  0
 81 83  1  0  0  0
 81 84  1  0  0  0
 81162  1  0  0  0
 81163  1  0  0  0
 82164  1  0  0  0
 83165  1  0  0  0
 84 86  1  0  0  0
 84166  1  0  0  0
 86167  1  0  0  0
M  ISO  4   1 100  68 101  80 101  86 100
M  END
> <chiral flag>
0

> <version>
0

> <s_m_source_file>
/data/baiqing/PycharmProjects/Reinvent-master-3.2/result/LINK_invent/BTK/process_docking_weight1_custom_sum_contain_oxygen_bond_distance_aromatic_linkinvent_7_9_3/rearranged_h_0089.sdf

> <i_m_source_file_index>
62

> <r_mmod_Potential_Energy-OPLS-2005>
144.287567138672

> <r_mmod_Stretch_Energy-OPLS-2005>
122.452682495117

> <r_mmod_Bend_Energy-OPLS-2005>
287.985015869141

> <r_mmod_Torsional_Energy-OPLS-2005>
242.474090576172

> <r_mmod_Improper_Torsional_Energy-OPLS-2005>
9.52504444122314

> <r_mmod_Van_der_Waal_Energy-OPLS-2005>
155.907257080078

> <r_mmod_Electrostatic_Energy-OPLS-2005>
-543.828857421875

> <r_mmod_Solvation_Energy-OPLS-2005>
-215.419372558594

> <b_mmod_Minimization_Converged-OPLS-2005>
0

> <r_mmod_RMS_Derivative-OPLS-2005>
14.4926490783691

$$$$
63
                    3D
 Structure written by MMmdl.
176184  0  0  1  0            999 V2000
  -30.7281  -14.4419   20.4925 C   0  0  0  0  0  0
  -30.4049  -12.2686   19.4221 C   0  0  0  0  0  0
  -29.4902  -12.5007   18.2026 C   0  0  0  0  0  0
  -28.0112  -12.3732   18.6133 C   0  0  0  0  0  0
  -27.6613  -13.2114   19.8736 C   0  0  2  0  0  0
  -28.7091  -13.0225   20.9966 C   0  0  0  0  0  0
  -25.2588  -13.8167   20.5671 C   0  0  0  0  0  0
  -24.1844  -13.0437   20.9180 C   0  0  0  0  0  0
  -24.6415  -11.6913   20.8766 C   0  0  0  0  0  0
  -23.9084  -10.4293   21.0411 C   0  0  0  0  0  0
  -24.3633   -9.4212   21.9193 C   0  0  0  0  0  0
  -23.6300   -8.2252   22.0765 C   0  0  0  0  0  0
  -22.4287   -8.0299   21.3546 C   0  0  0  0  0  0
  -21.9930   -9.0269   20.4639 C   0  0  0  0  0  0
  -22.7265  -10.2146   20.3044 C   0  0  0  0  0  0
  -21.6867   -6.0754   22.5288 C   0  0  0  0  0  0
  -21.4005   -6.5646   23.8217 C   0  0  0  0  0  0
  -21.3647   -5.6798   24.9182 C   0  0  0  0  0  0
  -21.6053   -4.3062   24.7223 C   0  0  0  0  0  0
  -21.8815   -3.8158   23.4346 C   0  0  0  0  0  0
  -21.9187   -4.6975   22.3400 C   0  0  0  0  0  0
  -22.7864  -13.5218   21.1844 C   0  0  0  0  0  0
  -22.1666   -4.2163   21.0984 F   0  0  0  0  0  0
  -21.5631   -3.4547   25.7732 F   0  0  0  0  0  0
  -30.0423  -13.2743   20.4283 N   0  0  0  0  0  0
  -26.3036  -12.9364   20.3389 N   0  0  0  0  0  0
  -25.9343  -11.6528   20.5808 N   0  0  0  0  0  0
  -22.0499  -12.8188   22.0376 N   0  0  0  0  0  0
  -25.4222  -15.1894   20.4043 N   0  0  0  0  0  0
  -31.8981  -14.5626   20.1218 O   0  0  0  0  0  0
  -21.6648   -6.8898   21.4247 O   0  0  0  0  0  0
  -22.3556  -14.5541   20.6718 O   0  0  0  0  0  0
  -24.6098  -31.8683   23.2153 C   0  0  0  0  0  0
  -25.9001  -32.4822   23.8404 C   0  0  1  0  0  0
  -27.2323  -27.4756   20.0987 C   0  0  0  0  0  0
  -25.5925  -33.8621   24.2358 N   0  0  0  0  0  0
  -23.3947  -30.4922   21.5513 C   0  0  2  0  0  0
  -24.8436  -28.9624   20.1164 C   0  0  0  0  0  0
  -22.7353  -29.4652   22.4996 C   0  0  0  0  0  0
  -18.0235  -28.1350   22.8466 C   0  0  0  0  0  0
  -24.1500  -36.7324   23.2623 C   0  0  0  0  0  0
  -25.9164  -30.8509   21.3580 C   0  0  0  0  0  0
  -25.9993  -29.4884   20.7076 C   0  0  0  0  0  0
  -27.2002  -28.7508   20.6968 C   0  0  0  0  0  0
  -26.0661  -26.9541   19.5026 C   0  0  0  0  0  0
  -24.8682  -27.6923   19.5144 C   0  0  0  0  0  0
  -23.6032  -29.8231   20.1659 C   0  0  0  0  0  0
  -25.4120  -36.3110   24.0314 C   0  0  1  0  0  0
  -20.5828  -28.3627   23.1326 C   0  0  2  0  0  0
  -20.6729  -26.9371   22.5390 C   0  0  0  0  0  0
  -19.5733  -26.6376   21.5147 C   0  0  0  0  0  0
  -18.1905  -26.7903   22.1571 C   0  0  0  0  0  0
  -19.1486  -28.8796   23.2903 C   0  0  0  0  0  0
  -18.9425  -30.1411   23.8897 C   0  0  0  0  0  0
  -17.6441  -30.6572   24.0556 C   0  0  0  0  0  0
  -25.9031  -34.9470   23.5138 C   0  0  0  0  0  0
  -16.5324  -29.9079   23.6324 C   0  0  0  0  0  0
  -16.7233  -28.6494   23.0337 C   0  0  0  0  0  0
  -26.4471  -31.6577   25.0708 C   0  0  0  0  0  0
  -25.3773  -31.3594   26.1488 C   0  0  0  0  0  0
  -27.0344  -30.3044   24.6019 C   0  0  0  0  0  0
  -27.6059  -32.4260   25.7485 C   0  0  0  0  0  0
  -27.5582  -37.1828   24.8454 C   0  0  0  0  0  0
  -21.4083  -29.3029   22.3754 N   0  0  0  0  0  0
  -26.4302  -37.3800   23.9396 N   0  0  0  0  0  0
  -24.6579  -31.0843   22.1018 N   0  0  0  0  0  0
  -23.4121  -28.8156   23.3005 O   0  0  0  0  0  0
  -28.3886  -26.7415   20.1159 O   0  0  0  0  0  0
  -26.5569  -34.8901   22.4669 O   0  0  0  0  0  0
  -23.5324  -32.1384   23.7636 O   0  0  0  0  0  0
  -27.6562  -20.1335   22.5893 C   0  0  0  0  0  0
  -29.4782  -19.9253   21.0161 C   0  0  0  0  0  0
  -28.3396  -20.6195   21.4607 C   0  0  0  0  0  0
  -28.1477  -18.9816   23.2264 C   0  0  0  0  0  0
  -29.8685  -18.7570   21.6933 C   0  0  0  0  0  0
  -27.9149  -14.9288   27.1422 C   0  0  0  0  0  0
  -28.8161  -14.8066   24.8662 C   0  0  0  0  0  0
  -27.8416  -21.8355   20.7094 C   0  0  0  0  0  0
  -27.4629  -18.3934   24.4397 C   0  0  0  0  0  0
  -30.9313  -17.8468   21.1056 C   0  0  0  0  0  0
  -28.3437  -23.1477   21.3190 C   0  0  0  0  0  0
  -26.8044  -17.0348   24.1197 C   0  0  0  0  0  0
  -28.1217  -24.3408   20.3798 C   0  0  0  0  0  0
  -30.3134  -16.8474   20.1040 C   0  0  0  0  0  0
  -26.7211  -16.0859   25.3300 C   0  0  0  0  0  0
  -28.3727  -25.6851   21.0722 C   0  0  0  0  0  0
  -29.2340  -18.3076   22.7958 N   0  0  0  0  0  0
  -29.9731  -15.5342   20.6759 N   0  0  0  0  0  0
  -28.0424  -15.6185   25.8374 N   0  3  0  0  0  0
  -31.4570  -12.3254   19.1316 H   0  0  0  0  0  0
  -30.2562  -11.2654   19.8272 H   0  0  0  0  0  0
  -29.7242  -11.7859   17.4120 H   0  0  0  0  0  0
  -29.6706  -13.4928   17.7850 H   0  0  0  0  0  0
  -27.8077  -11.3178   18.7979 H   0  0  0  0  0  0
  -27.3654  -12.6630   17.7829 H   0  0  0  0  0  0
  -27.6945  -14.2552   19.5631 H   0  0  0  0  0  0
  -28.6687  -12.0078   21.3970 H   0  0  0  0  0  0
  -28.4966  -13.6848   21.8378 H   0  0  0  0  0  0
  -25.2783   -9.5703   22.4763 H   0  0  0  0  0  0
  -24.0021   -7.4646   22.7487 H   0  0  0  0  0  0
  -21.0878   -8.8787   19.8924 H   0  0  0  0  0  0
  -22.3743  -10.9687   19.6146 H   0  0  0  0  0  0
  -21.1992   -7.6159   23.9723 H   0  0  0  0  0  0
  -21.1471   -6.0534   25.9089 H   0  0  0  0  0  0
  -22.0593   -2.7620   23.2841 H   0  0  0  0  0  0
  -22.4114  -11.9822   22.4714 H   0  0  0  0  0  0
  -21.1109  -13.1197   22.2567 H   0  0  0  0  0  0
  -24.6328  -15.8234   20.4734 H   0  0  0  0  0  0
  -26.2521  -15.6341   20.0332 H   0  0  0  0  0  0
  -26.7060  -32.5559   23.1170 H   0  0  0  0  0  0
  -25.0159  -33.9793   25.0564 H   0  0  0  0  0  0
  -22.6833  -31.3105   21.4155 H   0  0  0  0  0  0
  -23.3780  -35.9646   23.3257 H   0  0  0  0  0  0
  -24.3557  -36.8979   22.2042 H   0  0  0  0  0  0
  -23.7256  -37.6515   23.6657 H   0  0  0  0  0  0
  -26.0098  -31.6167   20.5884 H   0  0  0  0  0  0
  -26.8095  -30.9123   21.9650 H   0  0  0  0  0  0
  -28.0948  -29.1524   21.1510 H   0  0  0  0  0  0
  -26.0799  -25.9811   19.0342 H   0  0  0  0  0  0
  -23.9790  -27.2740   19.0648 H   0  0  0  0  0  0
  -23.7100  -30.5961   19.4034 H   0  0  0  0  0  0
  -22.7305  -29.2364   19.8745 H   0  0  0  0  0  0
  -25.1311  -36.1949   25.0805 H   0  0  0  0  0  0
  -20.9900  -28.3143   24.1454 H   0  0  0  0  0  0
  -20.5568  -26.2205   23.3546 H   0  0  0  0  0  0
  -21.6614  -26.7386   22.1233 H   0  0  0  0  0  0
  -19.6896  -25.6278   21.1182 H   0  0  0  0  0  0
  -19.6710  -27.3179   20.6669 H   0  0  0  0  0  0
  -17.4177  -26.6606   21.3982 H   0  0  0  0  0  0
  -18.0345  -26.0026   22.8946 H   0  0  0  0  0  0
  -19.7913  -30.7211   24.2260 H   0  0  0  0  0  0
  -17.5015  -31.6255   24.5167 H   0  0  0  0  0  0
  -15.5335  -30.3003   23.7681 H   0  0  0  0  0  0
  -15.8609  -28.0855   22.7053 H   0  0  0  0  0  0
  -24.6036  -30.6817   25.7845 H   0  0  0  0  0  0
  -24.8860  -32.2710   26.4890 H   0  0  0  0  0  0
  -25.8213  -30.8846   27.0252 H   0  0  0  0  0  0
  -26.2865  -29.6738   24.1178 H   0  0  0  0  0  0
  -27.4302  -29.7314   25.4418 H   0  0  0  0  0  0
  -27.8594  -30.4443   23.9029 H   0  0  0  0  0  0
  -27.2722  -33.3616   26.1973 H   0  0  0  0  0  0
  -28.3944  -32.6661   25.0343 H   0  0  0  0  0  0
  -28.0601  -31.8372   26.5479 H   0  0  0  0  0  0
  -28.2605  -38.0130   24.7538 H   0  0  0  0  0  0
  -28.1095  -36.2652   24.6285 H   0  0  0  0  0  0
  -27.2265  -37.1488   25.8850 H   0  0  0  0  0  0
  -20.9159  -29.8844   21.7106 H   0  0  0  0  0  0
  -26.0190  -38.2867   24.1431 H   0  0  0  0  0  0
  -26.7625  -20.6282   22.9454 H   0  0  0  0  0  0
  -30.0064  -20.2489   20.1290 H   0  0  0  0  0  0
  -28.8917  -14.6501   27.5390 H   0  0  0  0  0  0
  -27.3170  -14.0210   27.0537 H   0  0  0  0  0  0
  -27.4383  -15.5754   27.8793 H   0  0  0  0  0  0
  -29.7654  -14.4844   25.2958 H   0  0  0  0  0  0
  -29.0616  -15.3729   23.9687 H   0  0  0  0  0  0
  -28.2664  -13.9142   24.5660 H   0  0  0  0  0  0
  -26.7524  -21.8267   20.6994 H   0  0  0  0  0  0
  -28.1587  -21.7624   19.6694 H   0  0  0  0  0  0
  -26.7115  -19.0871   24.8190 H   0  0  0  0  0  0
  -28.2169  -18.3043   25.2247 H   0  0  0  0  0  0
  -31.4944  -17.3377   21.8888 H   0  0  0  0  0  0
  -31.6542  -18.4775   20.5828 H   0  0  0  0  0  0
  -29.4076  -23.0675   21.5393 H   0  0  0  0  0  0
  -27.8353  -23.3062   22.2718 H   0  0  0  0  0  0
  -27.3275  -16.5365   23.3056 H   0  0  0  0  0  0
  -25.8066  -17.2224   23.7217 H   0  0  0  0  0  0
  -27.1071  -24.3119   19.9856 H   0  0  0  0  0  0
  -28.7857  -24.2476   19.5186 H   0  0  0  0  0  0
  -31.0040  -16.7213   19.2675 H   0  0  0  0  0  0
  -29.4215  -17.2801   19.6511 H   0  0  0  0  0  0
  -26.1177  -15.2178   25.0639 H   0  0  0  0  0  0
  -26.1864  -16.5957   26.1335 H   0  0  0  0  0  0
  -27.6223  -25.8511   21.8513 H   0  0  0  0  0  0
  -29.3388  -25.6683   21.5799 H   0  0  0  0  0  0
  -29.0177  -15.3891   20.9631 H   0  0  0  0  0  0
  -28.5997  -16.4384   26.0254 H   0  0  0  0  0  0
  1 25  1  0  0  0
  1 30  2  0  0  0
  1 88  1  0  0  0
  2  3  1  0  0  0
  2 25  1  0  0  0
  2 90  1  0  0  0
  2 91  1  0  0  0
  3  4  1  0  0  0
  3 92  1  0  0  0
  3 93  1  0  0  0
  4  5  1  0  0  0
  4 94  1  0  0  0
  4 95  1  0  0  0
  5  6  1  0  0  0
  5 26  1  0  0  0
  5 96  1  0  0  0
  6 25  1  0  0  0
  6 97  1  0  0  0
  6 98  1  0  0  0
  7  8  2  0  0  0
  7 26  1  0  0  0
  7 29  1  0  0  0
  8  9  1  0  0  0
  8 22  1  0  0  0
  9 10  1  0  0  0
  9 27  2  0  0  0
 10 11  2  0  0  0
 10 15  1  0  0  0
 11 12  1  0  0  0
 11 99  1  0  0  0
 12 13  2  0  0  0
 12100  1  0  0  0
 13 14  1  0  0  0
 13 31  1  0  0  0
 14 15  2  0  0  0
 14101  1  0  0  0
 15102  1  0  0  0
 16 17  2  0  0  0
 16 21  1  0  0  0
 16 31  1  0  0  0
 17 18  1  0  0  0
 17103  1  0  0  0
 18 19  2  0  0  0
 18104  1  0  0  0
 19 20  1  0  0  0
 19 24  1  0  0  0
 20 21  2  0  0  0
 20105  1  0  0  0
 21 23  1  0  0  0
 22 28  1  0  0  0
 22 32  2  0  0  0
 26 27  1  0  0  0
 28106  1  0  0  0
 28107  1  0  0  0
 29108  1  0  0  0
 29109  1  0  0  0
 33 34  1  0  0  0
 33 66  1  0  0  0
 33 70  2  0  0  0
 34 36  1  0  0  0
 34 59  1  0  0  0
 34110  1  0  0  0
 35 44  2  0  0  0
 35 45  1  0  0  0
 35 68  1  0  0  0
 36 56  1  0  0  0
 36111  1  0  0  0
 37 39  1  0  0  0
 37 47  1  0  0  0
 37 66  1  0  0  0
 37112  1  0  0  0
 38 43  2  0  0  0
 38 46  1  0  0  0
 38 47  1  0  0  0
 39 64  1  0  0  0
 39 67  2  0  0  0
 40 52  1  0  0  0
 40 53  2  0  0  0
 40 58  1  0  0  0
 41113  1  0  0  0
 41114  1  0  0  0
 41115  1  0  0  0
 41 48  1  0  0  0
 42 43  1  0  0  0
 42 66  1  0  0  0
 42116  1  0  0  0
 42117  1  0  0  0
 43 44  1  0  0  0
 44118  1  0  0  0
 45 46  2  0  0  0
 45119  1  0  0  0
 46120  1  0  0  0
 47121  1  0  0  0
 47122  1  0  0  0
 48 56  1  0  0  0
 48 65  1  0  0  0
 48123  1  0  0  0
 49 50  1  0  0  0
 49 53  1  0  0  0
 49 64  1  0  0  0
 49124  1  0  0  0
 50 51  1  0  0  0
 50125  1  0  0  0
 50126  1  0  0  0
 51 52  1  0  0  0
 51127  1  0  0  0
 51128  1  0  0  0
 52129  1  0  0  0
 52130  1  0  0  0
 53 54  1  0  0  0
 54 55  2  0  0  0
 54131  1  0  0  0
 55 57  1  0  0  0
 55132  1  0  0  0
 56 69  2  0  0  0
 57 58  2  0  0  0
 57133  1  0  0  0
 58134  1  0  0  0
 59 60  1  0  0  0
 59 61  1  0  0  0
 59 62  1  0  0  0
 60135  1  0  0  0
 60136  1  0  0  0
 60137  1  0  0  0
 61138  1  0  0  0
 61139  1  0  0  0
 61140  1  0  0  0
 62141  1  0  0  0
 62142  1  0  0  0
 62143  1  0  0  0
 63 65  1  0  0  0
 63144  1  0  0  0
 63145  1  0  0  0
 63146  1  0  0  0
 64147  1  0  0  0
 65148  1  0  0  0
 68 86  1  0  0  0
 71 73  2  0  0  0
 71 74  1  0  0  0
 71149  1  0  0  0
 72 73  1  0  0  0
 72 75  2  0  0  0
 72150  1  0  0  0
 73 78  1  0  0  0
 74 79  1  0  0  0
 74 87  2  0  0  0
 75 80  1  0  0  0
 75 87  1  0  0  0
 76151  1  0  0  0
 76152  1  0  0  0
 76153  1  0  0  0
 76 89  1  0  0  0
 77 89  1  0  0  0
 77154  1  0  0  0
 77155  1  0  0  0
 77156  1  0  0  0
 78 81  1  0  0  0
 78157  1  0  0  0
 78158  1  0  0  0
 79 82  1  0  0  0
 79159  1  0  0  0
 79160  1  0  0  0
 80 84  1  0  0  0
 80161  1  0  0  0
 80162  1  0  0  0
 81 83  1  0  0  0
 81163  1  0  0  0
 81164  1  0  0  0
 82 85  1  0  0  0
 82165  1  0  0  0
 82166  1  0  0  0
 83 86  1  0  0  0
 83167  1  0  0  0
 83168  1  0  0  0
 84 88  1  0  0  0
 84169  1  0  0  0
 84170  1  0  0  0
 85 89  1  0  0  0
 85171  1  0  0  0
 85172  1  0  0  0
 86173  1  0  0  0
 86174  1  0  0  0
 88175  1  0  0  0
 89176  1  0  0  0
M  CHG  1  89   1
M  ISO  4   1 100  68 101  86 101  88 100
M  END
> <chiral flag>
0

> <version>
0

> <s_m_source_file>
/data/baiqing/PycharmProjects/Reinvent-master-3.2/result/LINK_invent/BTK/process_docking_weight1_custom_sum_contain_oxygen_bond_distance_aromatic_linkinvent_7_9_3/rearranged_h_0089.sdf

> <i_m_source_file_index>
63

> <r_mmod_Potential_Energy-OPLS-2005>
-316.531433105469

> <r_mmod_Stretch_Energy-OPLS-2005>
31.3867282867432

> <r_mmod_Bend_Energy-OPLS-2005>
89.5248641967773

> <r_mmod_Torsional_Energy-OPLS-2005>
255.2890625

> <r_mmod_Improper_Torsional_Energy-OPLS-2005>
9.87954902648926

> <r_mmod_Van_der_Waal_Energy-OPLS-2005>
144.637680053711

> <r_mmod_Electrostatic_Energy-OPLS-2005>
-418.061889648438

> <r_mmod_Solvation_Energy-OPLS-2005>
-443.655181884766

> <b_mmod_Minimization_Converged-OPLS-2005>
0

> <r_mmod_RMS_Derivative-OPLS-2005>
4.03417110443115

$$$$
64
                    3D
 Structure written by MMmdl.
173181  0  0  1  0            999 V2000
  -30.5743  -14.7634   20.4658 C   0  0  0  0  0  0
  -30.4466  -12.4715   19.4522 C   0  0  0  0  0  0
  -29.5092  -12.5078   18.2239 C   0  0  0  0  0  0
  -28.0365  -12.3250   18.6448 C   0  0  0  0  0  0
  -27.6424  -13.2229   19.8467 C   0  0  2  0  0  0
  -28.6926  -13.1458   20.9746 C   0  0  0  0  0  0
  -25.2530  -13.8173   20.5688 C   0  0  0  0  0  0
  -24.1819  -13.0428   20.9212 C   0  0  0  0  0  0
  -24.6401  -11.6900   20.8753 C   0  0  0  0  0  0
  -23.9068  -10.4287   21.0416 C   0  0  0  0  0  0
  -24.3618   -9.4202   21.9190 C   0  0  0  0  0  0
  -23.6299   -8.2235   22.0753 C   0  0  0  0  0  0
  -22.4281   -8.0277   21.3541 C   0  0  0  0  0  0
  -21.9916   -9.0250   20.4644 C   0  0  0  0  0  0
  -22.7242  -10.2131   20.3062 C   0  0  0  0  0  0
  -21.6854   -6.0734   22.5276 C   0  0  0  0  0  0
  -21.4013   -6.5639   23.8209 C   0  0  0  0  0  0
  -21.3659   -5.6793   24.9173 C   0  0  0  0  0  0
  -21.6047   -4.3057   24.7225 C   0  0  0  0  0  0
  -21.8821   -3.8144   23.4348 C   0  0  0  0  0  0
  -21.9195   -4.6961   22.3403 C   0  0  0  0  0  0
  -22.7842  -13.5209   21.1879 C   0  0  0  0  0  0
  -22.1664   -4.2145   21.0981 F   0  0  0  0  0  0
  -21.5632   -3.4543   25.7740 F   0  0  0  0  0  0
  -29.9861  -13.5207   20.3869 N   0  0  0  0  0  0
  -26.2946  -12.9358   20.3268 N   0  0  0  0  0  0
  -25.9327  -11.6509   20.5750 N   0  0  0  0  0  0
  -22.0489  -12.8188   22.0433 N   0  0  0  0  0  0
  -25.4201  -15.1898   20.4086 N   0  0  0  0  0  0
  -31.7747  -14.9033   20.2148 O   0  0  0  0  0  0
  -21.6643   -6.8877   21.4237 O   0  0  0  0  0  0
  -22.3519  -14.5518   20.6737 O   0  0  0  0  0  0
  -24.6318  -31.8539   23.1964 C   0  0  0  0  0  0
  -25.9136  -32.4743   23.8321 C   0  0  1  0  0  0
  -27.2230  -27.2587   20.1369 C   0  0  0  0  0  0
  -25.5922  -33.8544   24.2239 N   0  0  0  0  0  0
  -23.4302  -30.4728   21.5411 C   0  0  2  0  0  0
  -24.8780  -28.9132   20.1155 C   0  0  0  0  0  0
  -22.7514  -29.4583   22.4926 C   0  0  0  0  0  0
  -18.0290  -28.1386   22.8477 C   0  0  0  0  0  0
  -24.1492  -36.7287   23.2645 C   0  0  0  0  0  0
  -25.9753  -30.7655   21.3759 C   0  0  0  0  0  0
  -26.0504  -29.3859   20.7217 C   0  0  0  0  0  0
  -27.2299  -28.5725   20.7165 C   0  0  0  0  0  0
  -26.0303  -26.8462   19.5121 C   0  0  0  0  0  0
  -24.8724  -27.6508   19.4999 C   0  0  0  0  0  0
  -23.6486  -29.8017   20.1593 C   0  0  0  0  0  0
  -25.4121  -36.3069   24.0330 C   0  0  1  0  0  0
  -20.5898  -28.3693   23.1279 C   0  0  2  0  0  0
  -20.6779  -26.9411   22.5419 C   0  0  0  0  0  0
  -19.5753  -26.6381   21.5222 C   0  0  0  0  0  0
  -18.1927  -26.7927   22.1627 C   0  0  0  0  0  0
  -19.1544  -28.8857   23.2864 C   0  0  0  0  0  0
  -18.9467  -30.1456   23.8882 C   0  0  0  0  0  0
  -17.6464  -30.6581   24.0561 C   0  0  0  0  0  0
  -25.9065  -34.9436   23.5098 C   0  0  0  0  0  0
  -16.5356  -29.9079   23.6332 C   0  0  0  0  0  0
  -16.7277  -28.6505   23.0344 C   0  0  0  0  0  0
  -26.4496  -31.6567   25.0717 C   0  0  0  0  0  0
  -25.3711  -31.3717   26.1432 C   0  0  0  0  0  0
  -27.0356  -30.2980   24.6219 C   0  0  0  0  0  0
  -27.6046  -32.4315   25.7484 C   0  0  0  0  0  0
  -27.5582  -37.1792   24.8466 C   0  0  0  0  0  0
  -21.4221  -29.3035   22.3669 N   0  0  0  0  0  0
  -26.4296  -37.3768   23.9410 N   0  0  0  0  0  0
  -24.6983  -31.0495   22.0942 N   0  0  0  0  0  0
  -23.4202  -28.8137   23.3046 O   0  0  0  0  0  0
  -28.3121  -26.3601   20.1256 O   0  0  0  0  0  0
  -26.5655  -34.8915   22.4676 O   0  0  0  0  0  0
  -23.5467  -32.1364   23.7255 O   0  0  0  0  0  0
  -28.3321  -22.7363   22.7147 C   0  0  0  0  0  0
  -28.3763  -21.8541   23.8061 C   0  0  0  0  0  0
  -28.7052  -22.3532   21.3996 C   0  0  0  0  0  0
  -28.8262  -20.5467   23.5684 C   0  0  0  0  0  0
  -29.0670  -20.9243   21.2588 C   0  0  0  0  0  0
  -28.9493  -19.5028   24.6626 C   0  0  0  0  0  0
  -28.8428  -25.2598   27.5816 C   0  0  0  0  0  0
  -26.5421  -24.3081   27.1962 C   0  0  0  0  0  0
  -27.8775  -22.3124   25.1781 C   0  0  0  0  0  0
  -28.6480  -23.5537   20.3307 C   0  0  0  0  0  0
  -29.1782  -20.0074   19.9847 C   0  0  0  0  0  0
  -28.4952  -23.6351   25.6740 C   0  0  0  0  0  0
  -29.9138  -18.5291   19.9258 C   0  0  0  0  0  0
  -29.8595  -17.3282   21.0137 C   0  0  0  0  0  0
  -28.1611  -25.0451   20.8363 C   0  0  0  0  0  0
  -28.0534  -24.0348   27.0980 C   0  0  0  0  0  0
  -29.1359  -20.1183   22.3379 N   0  0  0  0  0  0
  -29.7211  -15.8450   20.6330 N   0  0  0  0  0  0
  -31.4810  -12.6293   19.1405 H   0  0  0  0  0  0
  -30.4200  -11.4924   19.9332 H   0  0  0  0  0  0
  -29.7903  -11.7323   17.5101 H   0  0  0  0  0  0
  -29.6243  -13.4588   17.7013 H   0  0  0  0  0  0
  -27.8981  -11.2761   18.9098 H   0  0  0  0  0  0
  -27.3744  -12.5128   17.7987 H   0  0  0  0  0  0
  -27.6352  -14.2441   19.4656 H   0  0  0  0  0  0
  -28.7406  -12.1401   21.3945 H   0  0  0  0  0  0
  -28.4275  -13.8076   21.8010 H   0  0  0  0  0  0
  -25.2760   -9.5679   22.4769 H   0  0  0  0  0  0
  -24.0009   -7.4622   22.7471 H   0  0  0  0  0  0
  -21.0848   -8.8766   19.8948 H   0  0  0  0  0  0
  -22.3697  -10.9671   19.6179 H   0  0  0  0  0  0
  -21.2000   -7.6146   23.9709 H   0  0  0  0  0  0
  -21.1483   -6.0526   25.9075 H   0  0  0  0  0  0
  -22.0602   -2.7606   23.2849 H   0  0  0  0  0  0
  -22.4115  -11.9845   22.4806 H   0  0  0  0  0  0
  -21.1106  -13.1201   22.2654 H   0  0  0  0  0  0
  -24.6454  -15.8361   20.5129 H   0  0  0  0  0  0
  -26.2548  -15.6323   20.0471 H   0  0  0  0  0  0
  -26.7203  -32.5388   23.1060 H   0  0  0  0  0  0
  -25.0013  -33.9674   25.0344 H   0  0  0  0  0  0
  -22.7272  -31.2944   21.3919 H   0  0  0  0  0  0
  -23.3759  -35.9614   23.3305 H   0  0  0  0  0  0
  -24.3583  -36.8924   22.2063 H   0  0  0  0  0  0
  -23.7237  -37.6483   23.6676 H   0  0  0  0  0  0
  -26.1160  -31.5248   20.6055 H   0  0  0  0  0  0
  -26.8515  -30.8146   22.0110 H   0  0  0  0  0  0
  -28.1318  -28.9302   21.1920 H   0  0  0  0  0  0
  -25.9915  -25.8737   19.0412 H   0  0  0  0  0  0
  -23.9750  -27.2831   19.0218 H   0  0  0  0  0  0
  -23.7738  -30.5754   19.4010 H   0  0  0  0  0  0
  -22.7662  -29.2353   19.8557 H   0  0  0  0  0  0
  -25.1297  -36.1926   25.0824 H   0  0  0  0  0  0
  -20.9969  -28.3278   24.1410 H   0  0  0  0  0  0
  -20.5696  -26.2304   23.3627 H   0  0  0  0  0  0
  -21.6643  -26.7447   22.1203 H   0  0  0  0  0  0
  -19.6929  -25.6295   21.1247 H   0  0  0  0  0  0
  -19.6693  -27.3195   20.6754 H   0  0  0  0  0  0
  -17.4203  -26.6672   21.4022 H   0  0  0  0  0  0
  -18.0318  -26.0070   22.9025 H   0  0  0  0  0  0
  -19.7946  -30.7267   24.2249 H   0  0  0  0  0  0
  -17.5024  -31.6261   24.5162 H   0  0  0  0  0  0
  -15.5354  -30.2972   23.7671 H   0  0  0  0  0  0
  -15.8681  -28.0823   22.7059 H   0  0  0  0  0  0
  -24.5872  -30.7092   25.7742 H   0  0  0  0  0  0
  -24.8914  -32.2888   26.4864 H   0  0  0  0  0  0
  -25.8011  -30.8869   27.0205 H   0  0  0  0  0  0
  -26.2950  -29.6704   24.1244 H   0  0  0  0  0  0
  -27.4035  -29.7268   25.4753 H   0  0  0  0  0  0
  -27.8826  -30.4261   23.9475 H   0  0  0  0  0  0
  -27.2658  -33.3628   26.2036 H   0  0  0  0  0  0
  -28.3854  -32.6852   25.0303 H   0  0  0  0  0  0
  -28.0709  -31.8453   26.5413 H   0  0  0  0  0  0
  -28.2589  -38.0095   24.7512 H   0  0  0  0  0  0
  -28.1081  -36.2624   24.6284 H   0  0  0  0  0  0
  -27.2303  -37.1439   25.8868 H   0  0  0  0  0  0
  -20.9424  -29.8750   21.6854 H   0  0  0  0  0  0
  -26.0184  -38.2851   24.1385 H   0  0  0  0  0  0
  -27.9655  -23.7245   22.9269 H   0  0  0  0  0  0
  -29.6457  -19.8389   25.4309 H   0  0  0  0  0  0
  -29.3186  -18.5532   24.2730 H   0  0  0  0  0  0
  -27.9809  -19.3157   25.1259 H   0  0  0  0  0  0
  -28.5678  -25.5302   28.6018 H   0  0  0  0  0  0
  -28.6556  -26.1265   26.9467 H   0  0  0  0  0  0
  -29.9160  -25.0681   27.5739 H   0  0  0  0  0  0
  -26.2683  -24.6299   28.2020 H   0  0  0  0  0  0
  -25.9505  -23.4188   26.9798 H   0  0  0  0  0  0
  -26.2321  -25.0917   26.5035 H   0  0  0  0  0  0
  -28.0492  -21.5489   25.9350 H   0  0  0  0  0  0
  -26.7948  -22.4146   25.1014 H   0  0  0  0  0  0
  -28.0126  -23.2375   19.5030 H   0  0  0  0  0  0
  -29.6508  -23.6469   19.9138 H   0  0  0  0  0  0
  -29.6191  -20.6246   19.2014 H   0  0  0  0  0  0
  -28.1470  -19.8593   19.6626 H   0  0  0  0  0  0
  -28.2566  -24.4503   24.9914 H   0  0  0  0  0  0
  -29.5818  -23.5354   25.6577 H   0  0  0  0  0  0
  -30.9760  -18.7405   19.7980 H   0  0  0  0  0  0
  -29.6211  -18.0950   18.9700 H   0  0  0  0  0  0
  -28.9978  -17.5208   21.6534 H   0  0  0  0  0  0
  -30.7204  -17.4248   21.6765 H   0  0  0  0  0  0
  -28.7357  -25.2580   21.7371 H   0  0  0  0  0  0
  -27.1263  -24.9509   21.1710 H   0  0  0  0  0  0
  -28.2885  -23.2099   27.7732 H   0  0  0  0  0  0
  -28.7634  -15.5320   20.6826 H   0  0  0  0  0  0
  1 25  1  0  0  0
  1 30  2  0  0  0
  1 88  1  0  0  0
  2  3  1  0  0  0
  2 25  1  0  0  0
  2 89  1  0  0  0
  2 90  1  0  0  0
  3  4  1  0  0  0
  3 91  1  0  0  0
  3 92  1  0  0  0
  4  5  1  0  0  0
  4 93  1  0  0  0
  4 94  1  0  0  0
  5  6  1  0  0  0
  5 26  1  0  0  0
  5 95  1  0  0  0
  6 25  1  0  0  0
  6 96  1  0  0  0
  6 97  1  0  0  0
  7  8  2  0  0  0
  7 26  1  0  0  0
  7 29  1  0  0  0
  8  9  1  0  0  0
  8 22  1  0  0  0
  9 10  1  0  0  0
  9 27  2  0  0  0
 10 11  2  0  0  0
 10 15  1  0  0  0
 11 12  1  0  0  0
 11 98  1  0  0  0
 12 13  2  0  0  0
 12 99  1  0  0  0
 13 14  1  0  0  0
 13 31  1  0  0  0
 14 15  2  0  0  0
 14100  1  0  0  0
 15101  1  0  0  0
 16 17  2  0  0  0
 16 21  1  0  0  0
 16 31  1  0  0  0
 17 18  1  0  0  0
 17102  1  0  0  0
 18 19  2  0  0  0
 18103  1  0  0  0
 19 20  1  0  0  0
 19 24  1  0  0  0
 20 21  2  0  0  0
 20104  1  0  0  0
 21 23  1  0  0  0
 22 28  1  0  0  0
 22 32  2  0  0  0
 26 27  1  0  0  0
 28105  1  0  0  0
 28106  1  0  0  0
 29107  1  0  0  0
 29108  1  0  0  0
 33 34  1  0  0  0
 33 66  1  0  0  0
 33 70  2  0  0  0
 34 36  1  0  0  0
 34 59  1  0  0  0
 34109  1  0  0  0
 35 44  2  0  0  0
 35 45  1  0  0  0
 35 68  1  0  0  0
 36 56  1  0  0  0
 36110  1  0  0  0
 37 39  1  0  0  0
 37 47  1  0  0  0
 37 66  1  0  0  0
 37111  1  0  0  0
 38 43  2  0  0  0
 38 46  1  0  0  0
 38 47  1  0  0  0
 39 64  1  0  0  0
 39 67  2  0  0  0
 40 52  1  0  0  0
 40 53  2  0  0  0
 40 58  1  0  0  0
 41112  1  0  0  0
 41113  1  0  0  0
 41114  1  0  0  0
 41 48  1  0  0  0
 42 43  1  0  0  0
 42 66  1  0  0  0
 42115  1  0  0  0
 42116  1  0  0  0
 43 44  1  0  0  0
 44117  1  0  0  0
 45 46  2  0  0  0
 45118  1  0  0  0
 46119  1  0  0  0
 47120  1  0  0  0
 47121  1  0  0  0
 48 56  1  0  0  0
 48 65  1  0  0  0
 48122  1  0  0  0
 49 50  1  0  0  0
 49 53  1  0  0  0
 49 64  1  0  0  0
 49123  1  0  0  0
 50 51  1  0  0  0
 50124  1  0  0  0
 50125  1  0  0  0
 51 52  1  0  0  0
 51126  1  0  0  0
 51127  1  0  0  0
 52128  1  0  0  0
 52129  1  0  0  0
 53 54  1  0  0  0
 54 55  2  0  0  0
 54130  1  0  0  0
 55 57  1  0  0  0
 55131  1  0  0  0
 56 69  2  0  0  0
 57 58  2  0  0  0
 57132  1  0  0  0
 58133  1  0  0  0
 59 60  1  0  0  0
 59 61  1  0  0  0
 59 62  1  0  0  0
 60134  1  0  0  0
 60135  1  0  0  0
 60136  1  0  0  0
 61137  1  0  0  0
 61138  1  0  0  0
 61139  1  0  0  0
 62140  1  0  0  0
 62141  1  0  0  0
 62142  1  0  0  0
 63 65  1  0  0  0
 63143  1  0  0  0
 63144  1  0  0  0
 63145  1  0  0  0
 64146  1  0  0  0
 65147  1  0  0  0
 68 85  1  0  0  0
 71 72  2  0  0  0
 71 73  1  0  0  0
 71148  1  0  0  0
 72 74  1  0  0  0
 72 79  1  0  0  0
 73 75  2  0  0  0
 73 80  1  0  0  0
 74 76  1  0  0  0
 74 87  2  0  0  0
 75 81  1  0  0  0
 75 87  1  0  0  0
 76149  1  0  0  0
 76150  1  0  0  0
 76151  1  0  0  0
 77152  1  0  0  0
 77153  1  0  0  0
 77154  1  0  0  0
 77 86  1  0  0  0
 78 86  1  0  0  0
 78155  1  0  0  0
 78156  1  0  0  0
 78157  1  0  0  0
 79 82  1  0  0  0
 79158  1  0  0  0
 79159  1  0  0  0
 80 85  1  0  0  0
 80160  1  0  0  0
 80161  1  0  0  0
 81 83  1  0  0  0
 81162  1  0  0  0
 81163  1  0  0  0
 82 86  1  0  0  0
 82164  1  0  0  0
 82165  1  0  0  0
 83 84  1  0  0  0
 83166  1  0  0  0
 83167  1  0  0  0
 84 88  1  0  0  0
 84168  1  0  0  0
 84169  1  0  0  0
 85170  1  0  0  0
 85171  1  0  0  0
 86172  1  0  0  0
 88173  1  0  0  0
M  ISO  4   1 100  68 101  85 101  88 100
M  END
> <chiral flag>
0

> <version>
0

> <s_m_source_file>
/data/baiqing/PycharmProjects/Reinvent-master-3.2/result/LINK_invent/BTK/process_docking_weight1_custom_sum_contain_oxygen_bond_distance_aromatic_linkinvent_7_9_3/rearranged_h_0089.sdf

> <i_m_source_file_index>
64

> <r_mmod_Potential_Energy-OPLS-2005>
129.962280273438

> <r_mmod_Stretch_Energy-OPLS-2005>
145.916152954102

> <r_mmod_Bend_Energy-OPLS-2005>
251.420303344727

> <r_mmod_Torsional_Energy-OPLS-2005>
255.695297241211

> <r_mmod_Improper_Torsional_Energy-OPLS-2005>
5.91694927215576

> <r_mmod_Van_der_Waal_Energy-OPLS-2005>
141.004257202148

> <r_mmod_Electrostatic_Energy-OPLS-2005>
-545.6474609375

> <r_mmod_Solvation_Energy-OPLS-2005>
-216.250747680664

> <b_mmod_Minimization_Converged-OPLS-2005>
0

> <r_mmod_RMS_Derivative-OPLS-2005>
1.13940620422363

$$$$
65
                    3D
 Structure written by MMmdl.
149157  0  0  1  0            999 V2000
  -30.5903  -14.7343   20.4892 C   0  0  0  0  0  0
  -30.4324  -12.4473   19.4837 C   0  0  0  0  0  0
  -29.5190  -12.5234   18.2394 C   0  0  0  0  0  0
  -28.0375  -12.3513   18.6389 C   0  0  0  0  0  0
  -27.6406  -13.2325   19.8541 C   0  0  2  0  0  0
  -28.6787  -13.1393   20.9922 C   0  0  0  0  0  0
  -25.2464  -13.8201   20.5686 C   0  0  0  0  0  0
  -24.1760  -13.0443   20.9197 C   0  0  0  0  0  0
  -24.6356  -11.6925   20.8725 C   0  0  0  0  0  0
  -23.9036  -10.4303   21.0389 C   0  0  0  0  0  0
  -24.3606   -9.4221   21.9165 C   0  0  0  0  0  0
  -23.6293   -8.2248   22.0741 C   0  0  0  0  0  0
  -22.4271   -8.0274   21.3535 C   0  0  0  0  0  0
  -21.9890   -9.0243   20.4649 C   0  0  0  0  0  0
  -22.7207  -10.2128   20.3046 C   0  0  0  0  0  0
  -21.6855   -6.0733   22.5280 C   0  0  0  0  0  0
  -21.4030   -6.5640   23.8217 C   0  0  0  0  0  0
  -21.3659   -5.6790   24.9174 C   0  0  0  0  0  0
  -21.6031   -4.3044   24.7218 C   0  0  0  0  0  0
  -21.8806   -3.8146   23.4345 C   0  0  0  0  0  0
  -21.9193   -4.6968   22.3407 C   0  0  0  0  0  0
  -22.7779  -13.5221   21.1869 C   0  0  0  0  0  0
  -22.1658   -4.2153   21.0982 F   0  0  0  0  0  0
  -21.5624   -3.4531   25.7732 F   0  0  0  0  0  0
  -29.9826  -13.5006   20.4217 N   0  0  0  0  0  0
  -26.2898  -12.9412   20.3247 N   0  0  0  0  0  0
  -25.9278  -11.6554   20.5685 N   0  0  0  0  0  0
  -22.0429  -12.8229   22.0449 N   0  0  0  0  0  0
  -25.4114  -15.1927   20.4095 N   0  0  0  0  0  0
  -31.7765  -14.8556   20.1701 O   0  0  0  0  0  0
  -21.6641   -6.8873   21.4236 O   0  0  0  0  0  0
  -22.3460  -14.5521   20.6704 O   0  0  0  0  0  0
  -24.6315  -31.8561   23.1965 C   0  0  0  0  0  0
  -25.9134  -32.4761   23.8329 C   0  0  1  0  0  0
  -27.2155  -27.2520   20.1286 C   0  0  0  0  0  0
  -25.5931  -33.8564   24.2241 N   0  0  0  0  0  0
  -23.4276  -30.4773   21.5426 C   0  0  2  0  0  0
  -24.8738  -28.9249   20.1131 C   0  0  0  0  0  0
  -22.7505  -29.4600   22.4918 C   0  0  0  0  0  0
  -18.0300  -28.1398   22.8456 C   0  0  0  0  0  0
  -24.1487  -36.7286   23.2630 C   0  0  0  0  0  0
  -25.9744  -30.7647   21.3801 C   0  0  0  0  0  0
  -26.0474  -29.3870   20.7220 C   0  0  0  0  0  0
  -27.2220  -28.5653   20.7155 C   0  0  0  0  0  0
  -26.0164  -26.8650   19.4876 C   0  0  0  0  0  0
  -24.8652  -27.6728   19.4840 C   0  0  0  0  0  0
  -23.6444  -29.8102   20.1602 C   0  0  0  0  0  0
  -25.4114  -36.3066   24.0312 C   0  0  1  0  0  0
  -20.5894  -28.3699   23.1254 C   0  0  2  0  0  0
  -20.6781  -26.9416   22.5389 C   0  0  0  0  0  0
  -19.5763  -26.6381   21.5188 C   0  0  0  0  0  0
  -18.1947  -26.7932   22.1610 C   0  0  0  0  0  0
  -19.1546  -28.8871   23.2845 C   0  0  0  0  0  0
  -18.9473  -30.1477   23.8848 C   0  0  0  0  0  0
  -17.6466  -30.6583   24.0562 C   0  0  0  0  0  0
  -25.9063  -34.9445   23.5082 C   0  0  0  0  0  0
  -16.5361  -29.9071   23.6344 C   0  0  0  0  0  0
  -16.7284  -28.6511   23.0320 C   0  0  0  0  0  0
  -26.4487  -31.6603   25.0741 C   0  0  0  0  0  0
  -25.3676  -31.3780   26.1442 C   0  0  0  0  0  0
  -27.0361  -30.3016   24.6270 C   0  0  0  0  0  0
  -27.6042  -32.4352   25.7517 C   0  0  0  0  0  0
  -27.5585  -37.1783   24.8444 C   0  0  0  0  0  0
  -21.4215  -29.3041   22.3650 N   0  0  0  0  0  0
  -26.4280  -37.3773   23.9416 N   0  0  0  0  0  0
  -24.6968  -31.0512   22.0960 N   0  0  0  0  0  0
  -23.4205  -28.8141   23.3021 O   0  0  0  0  0  0
  -28.3122  -26.3542   20.1580 O   0  0  0  0  0  0
  -26.5639  -34.8918   22.4653 O   0  0  0  0  0  0
  -23.5460  -32.1402   23.7240 O   0  0  0  0  0  0
  -29.1362  -21.0773   19.6554 C   0  0  0  0  0  0
  -29.1160  -22.2300   20.4462 C   0  0  0  0  0  0
  -29.2567  -23.7867   20.1208 C   0  0  0  0  0  0
  -29.1102  -18.4360   20.2073 C   0  0  0  0  0  0
  -30.1393  -17.3409   20.8192 C   0  0  0  0  0  0
  -28.0664  -24.8665   20.3087 C   0  0  0  0  0  0
  -29.1647  -21.7275   21.7573 N   0  0  0  0  0  0
  -29.1957  -20.4090   21.7784 N   0  0  0  0  0  0
  -29.2155  -19.9402   20.5022 N   0  0  0  0  0  0
  -29.7961  -15.8445   20.7329 N   0  0  0  0  0  0
  -31.4810  -12.5676   19.2066 H   0  0  0  0  0  0
  -30.3607  -11.4650   19.9531 H   0  0  0  0  0  0
  -29.8060  -11.7605   17.5144 H   0  0  0  0  0  0
  -29.6547  -13.4860   17.7422 H   0  0  0  0  0  0
  -27.8756  -11.2984   18.8765 H   0  0  0  0  0  0
  -27.3905  -12.5724   17.7901 H   0  0  0  0  0  0
  -27.6422  -14.2603   19.4908 H   0  0  0  0  0  0
  -28.7033  -12.1297   21.4062 H   0  0  0  0  0  0
  -28.4099  -13.7991   21.8181 H   0  0  0  0  0  0
  -25.2756   -9.5707   22.4721 H   0  0  0  0  0  0
  -24.0017   -7.4634   22.7445 H   0  0  0  0  0  0
  -21.0818   -8.8742   19.8959 H   0  0  0  0  0  0
  -22.3644  -10.9655   19.6154 H   0  0  0  0  0  0
  -21.2040   -7.6146   23.9725 H   0  0  0  0  0  0
  -21.1488   -6.0517   25.9074 H   0  0  0  0  0  0
  -22.0588   -2.7607   23.2837 H   0  0  0  0  0  0
  -22.4072  -11.9938   22.4903 H   0  0  0  0  0  0
  -21.1026  -13.1220   22.2619 H   0  0  0  0  0  0
  -24.6291  -15.8337   20.4934 H   0  0  0  0  0  0
  -26.2404  -15.6321   20.0323 H   0  0  0  0  0  0
  -26.7199  -32.5400   23.1070 H   0  0  0  0  0  0
  -25.0063  -33.9722   25.0374 H   0  0  0  0  0  0
  -22.7236  -31.2987   21.3963 H   0  0  0  0  0  0
  -23.3760  -35.9605   23.3256 H   0  0  0  0  0  0
  -24.3568  -36.8957   22.2051 H   0  0  0  0  0  0
  -23.7235  -37.6465   23.6694 H   0  0  0  0  0  0
  -26.1147  -31.5248   20.6105 H   0  0  0  0  0  0
  -26.8505  -30.8117   22.0151 H   0  0  0  0  0  0
  -28.1207  -28.9182   21.2022 H   0  0  0  0  0  0
  -25.9324  -25.9219   18.9719 H   0  0  0  0  0  0
  -23.9697  -27.3167   18.9936 H   0  0  0  0  0  0
  -23.7619  -30.5836   19.4005 H   0  0  0  0  0  0
  -22.7647  -29.2375   19.8602 H   0  0  0  0  0  0
  -25.1291  -36.1894   25.0800 H   0  0  0  0  0  0
  -20.9976  -28.3271   24.1379 H   0  0  0  0  0  0
  -20.5658  -26.2312   23.3591 H   0  0  0  0  0  0
  -21.6657  -26.7429   22.1203 H   0  0  0  0  0  0
  -19.6923  -25.6279   21.1246 H   0  0  0  0  0  0
  -19.6708  -27.3165   20.6694 H   0  0  0  0  0  0
  -17.4206  -26.6641   21.4030 H   0  0  0  0  0  0
  -18.0381  -26.0096   22.9037 H   0  0  0  0  0  0
  -19.7947  -30.7316   24.2174 H   0  0  0  0  0  0
  -17.5020  -31.6247   24.5191 H   0  0  0  0  0  0
  -15.5357  -30.2952   23.7706 H   0  0  0  0  0  0
  -15.8690  -28.0838   22.7011 H   0  0  0  0  0  0
  -24.5814  -30.7194   25.7727 H   0  0  0  0  0  0
  -24.8916  -32.2978   26.4860 H   0  0  0  0  0  0
  -25.7937  -30.8919   27.0228 H   0  0  0  0  0  0
  -26.2985  -29.6751   24.1246 H   0  0  0  0  0  0
  -27.3971  -29.7299   25.4829 H   0  0  0  0  0  0
  -27.8881  -30.4286   23.9588 H   0  0  0  0  0  0
  -27.2646  -33.3639   26.2116 H   0  0  0  0  0  0
  -28.3843  -32.6939   25.0345 H   0  0  0  0  0  0
  -28.0733  -31.8475   26.5420 H   0  0  0  0  0  0
  -28.2549  -38.0132   24.7561 H   0  0  0  0  0  0
  -28.1141  -36.2668   24.6179 H   0  0  0  0  0  0
  -27.2318  -37.1313   25.8846 H   0  0  0  0  0  0
  -20.9403  -29.8764   21.6849 H   0  0  0  0  0  0
  -26.0150  -38.2834   24.1454 H   0  0  0  0  0  0
  -29.1223  -20.9681   18.5770 H   0  0  0  0  0  0
  -29.6026  -23.8833   19.0912 H   0  0  0  0  0  0
  -30.0946  -24.1615   20.7101 H   0  0  0  0  0  0
  -28.1055  -18.1482   20.5165 H   0  0  0  0  0  0
  -29.1096  -18.3246   19.1235 H   0  0  0  0  0  0
  -30.2748  -17.5645   21.8788 H   0  0  0  0  0  0
  -31.1180  -17.4987   20.3653 H   0  0  0  0  0  0
  -27.6513  -24.7302   21.3084 H   0  0  0  0  0  0
  -27.2911  -24.5362   19.6229 H   0  0  0  0  0  0
  -28.8338  -15.6176   20.9361 H   0  0  0  0  0  0
  1 25  1  0  0  0
  1 30  2  0  0  0
  1 80  1  0  0  0
  2  3  1  0  0  0
  2 25  1  0  0  0
  2 81  1  0  0  0
  2 82  1  0  0  0
  3  4  1  0  0  0
  3 83  1  0  0  0
  3 84  1  0  0  0
  4  5  1  0  0  0
  4 85  1  0  0  0
  4 86  1  0  0  0
  5  6  1  0  0  0
  5 26  1  0  0  0
  5 87  1  0  0  0
  6 25  1  0  0  0
  6 88  1  0  0  0
  6 89  1  0  0  0
  7  8  2  0  0  0
  7 26  1  0  0  0
  7 29  1  0  0  0
  8  9  1  0  0  0
  8 22  1  0  0  0
  9 10  1  0  0  0
  9 27  2  0  0  0
 10 11  2  0  0  0
 10 15  1  0  0  0
 11 12  1  0  0  0
 11 90  1  0  0  0
 12 13  2  0  0  0
 12 91  1  0  0  0
 13 14  1  0  0  0
 13 31  1  0  0  0
 14 15  2  0  0  0
 14 92  1  0  0  0
 15 93  1  0  0  0
 16 17  2  0  0  0
 16 21  1  0  0  0
 16 31  1  0  0  0
 17 18  1  0  0  0
 17 94  1  0  0  0
 18 19  2  0  0  0
 18 95  1  0  0  0
 19 20  1  0  0  0
 19 24  1  0  0  0
 20 21  2  0  0  0
 20 96  1  0  0  0
 21 23  1  0  0  0
 22 28  1  0  0  0
 22 32  2  0  0  0
 26 27  1  0  0  0
 28 97  1  0  0  0
 28 98  1  0  0  0
 29 99  1  0  0  0
 29100  1  0  0  0
 33 34  1  0  0  0
 33 66  1  0  0  0
 33 70  2  0  0  0
 34 36  1  0  0  0
 34 59  1  0  0  0
 34101  1  0  0  0
 35 44  2  0  0  0
 35 45  1  0  0  0
 35 68  1  0  0  0
 36 56  1  0  0  0
 36102  1  0  0  0
 37 39  1  0  0  0
 37 47  1  0  0  0
 37 66  1  0  0  0
 37103  1  0  0  0
 38 43  2  0  0  0
 38 46  1  0  0  0
 38 47  1  0  0  0
 39 64  1  0  0  0
 39 67  2  0  0  0
 40 52  1  0  0  0
 40 53  2  0  0  0
 40 58  1  0  0  0
 41104  1  0  0  0
 41105  1  0  0  0
 41106  1  0  0  0
 41 48  1  0  0  0
 42 43  1  0  0  0
 42 66  1  0  0  0
 42107  1  0  0  0
 42108  1  0  0  0
 43 44  1  0  0  0
 44109  1  0  0  0
 45 46  2  0  0  0
 45110  1  0  0  0
 46111  1  0  0  0
 47112  1  0  0  0
 47113  1  0  0  0
 48 56  1  0  0  0
 48 65  1  0  0  0
 48114  1  0  0  0
 49 50  1  0  0  0
 49 53  1  0  0  0
 49 64  1  0  0  0
 49115  1  0  0  0
 50 51  1  0  0  0
 50116  1  0  0  0
 50117  1  0  0  0
 51 52  1  0  0  0
 51118  1  0  0  0
 51119  1  0  0  0
 52120  1  0  0  0
 52121  1  0  0  0
 53 54  1  0  0  0
 54 55  2  0  0  0
 54122  1  0  0  0
 55 57  1  0  0  0
 55123  1  0  0  0
 56 69  2  0  0  0
 57 58  2  0  0  0
 57124  1  0  0  0
 58125  1  0  0  0
 59 60  1  0  0  0
 59 61  1  0  0  0
 59 62  1  0  0  0
 60126  1  0  0  0
 60127  1  0  0  0
 60128  1  0  0  0
 61129  1  0  0  0
 61130  1  0  0  0
 61131  1  0  0  0
 62132  1  0  0  0
 62133  1  0  0  0
 62134  1  0  0  0
 63 65  1  0  0  0
 63135  1  0  0  0
 63136  1  0  0  0
 63137  1  0  0  0
 64138  1  0  0  0
 65139  1  0  0  0
 68 76  1  0  0  0
 71 72  2  0  0  0
 71 79  1  0  0  0
 71140  1  0  0  0
 72 73  1  0  0  0
 72 77  1  0  0  0
 73 76  1  0  0  0
 73141  1  0  0  0
 73142  1  0  0  0
 74 75  1  0  0  0
 74 79  1  0  0  0
 74143  1  0  0  0
 74144  1  0  0  0
 75 80  1  0  0  0
 75145  1  0  0  0
 75146  1  0  0  0
 76147  1  0  0  0
 76148  1  0  0  0
 77 78  2  0  0  0
 78 79  1  0  0  0
 80149  1  0  0  0
M  ISO  4   1 100  68 101  76 101  80 100
M  END
> <chiral flag>
0

> <version>
0

> <s_m_source_file>
/data/baiqing/PycharmProjects/Reinvent-master-3.2/result/LINK_invent/BTK/process_docking_weight1_custom_sum_contain_oxygen_bond_distance_aromatic_linkinvent_7_9_3/rearranged_h_0089.sdf

> <i_m_source_file_index>
65

> <r_mmod_Potential_Energy-OPLS-2005>
106.098121643066

> <r_mmod_Stretch_Energy-OPLS-2005>
124.519073486328

> <r_mmod_Bend_Energy-OPLS-2005>
170.317749023438

> <r_mmod_Torsional_Energy-OPLS-2005>
210.903030395508

> <r_mmod_Improper_Torsional_Energy-OPLS-2005>
5.84339189529419

> <r_mmod_Van_der_Waal_Energy-OPLS-2005>
116.346046447754

> <r_mmod_Electrostatic_Energy-OPLS-2005>
-367.682434082031

> <r_mmod_Solvation_Energy-OPLS-2005>
-238.350021362305

> <b_mmod_Minimization_Converged-OPLS-2005>
0

> <r_mmod_RMS_Derivative-OPLS-2005>
2.527104139328

$$$$
66
                    3D
 Structure written by MMmdl.
176184  0  0  1  0            999 V2000
  -30.6840  -14.4863   20.5939 C   0  0  0  0  0  0
  -30.4234  -12.3179   19.4257 C   0  0  0  0  0  0
  -29.4940  -12.5163   18.2101 C   0  0  0  0  0  0
  -28.0166  -12.3664   18.6210 C   0  0  0  0  0  0
  -27.6590  -13.2035   19.8773 C   0  0  2  0  0  0
  -28.6982  -12.9810   20.9992 C   0  0  0  0  0  0
  -25.2546  -13.8112   20.5633 C   0  0  0  0  0  0
  -24.1804  -13.0385   20.9159 C   0  0  0  0  0  0
  -24.6365  -11.6867   20.8730 C   0  0  0  0  0  0
  -23.9016  -10.4271   21.0416 C   0  0  0  0  0  0
  -24.3576   -9.4193   21.9188 C   0  0  0  0  0  0
  -23.6275   -8.2223   22.0756 C   0  0  0  0  0  0
  -22.4259   -8.0251   21.3549 C   0  0  0  0  0  0
  -21.9886   -9.0208   20.4645 C   0  0  0  0  0  0
  -22.7199  -10.2101   20.3065 C   0  0  0  0  0  0
  -21.6852   -6.0705   22.5276 C   0  0  0  0  0  0
  -21.4011   -6.5618   23.8197 C   0  0  0  0  0  0
  -21.3666   -5.6778   24.9172 C   0  0  0  0  0  0
  -21.6044   -4.3040   24.7224 C   0  0  0  0  0  0
  -21.8829   -3.8123   23.4349 C   0  0  0  0  0  0
  -21.9194   -4.6936   22.3400 C   0  0  0  0  0  0
  -22.7845  -13.5202   21.1848 C   0  0  0  0  0  0
  -22.1668   -4.2115   21.0983 F   0  0  0  0  0  0
  -21.5637   -3.4534   25.7743 F   0  0  0  0  0  0
  -30.0298  -13.2985   20.4520 N   0  0  0  0  0  0
  -26.2989  -12.9279   20.3352 N   0  0  0  0  0  0
  -25.9296  -11.6443   20.5766 N   0  0  0  0  0  0
  -22.0475  -12.8200   22.0407 N   0  0  0  0  0  0
  -25.4184  -15.1809   20.3962 N   0  0  0  0  0  0
  -31.8079  -14.6903   20.1263 O   0  0  0  0  0  0
  -21.6648   -6.8844   21.4231 O   0  0  0  0  0  0
  -22.3530  -14.5505   20.6716 O   0  0  0  0  0  0
  -24.6167  -31.8617   23.2025 C   0  0  0  0  0  0
  -25.9035  -32.4789   23.8325 C   0  0  1  0  0  0
  -27.2554  -27.4024   20.0893 C   0  0  0  0  0  0
  -25.5872  -33.8591   24.2258 N   0  0  0  0  0  0
  -23.4085  -30.4815   21.5428 C   0  0  2  0  0  0
  -24.8585  -28.9378   20.1159 C   0  0  0  0  0  0
  -22.7418  -29.4625   22.4969 C   0  0  0  0  0  0
  -18.0258  -28.1349   22.8471 C   0  0  0  0  0  0
  -24.1479  -36.7340   23.2637 C   0  0  0  0  0  0
  -25.9398  -30.8161   21.3601 C   0  0  0  0  0  0
  -26.0177  -29.4462   20.7119 C   0  0  0  0  0  0
  -27.2127  -28.6845   20.6962 C   0  0  0  0  0  0
  -26.0653  -26.9134   19.4984 C   0  0  0  0  0  0
  -24.8781  -27.6708   19.5096 C   0  0  0  0  0  0
  -23.6182  -29.8024   20.1615 C   0  0  0  0  0  0
  -25.4105  -36.3113   24.0327 C   0  0  1  0  0  0
  -20.5846  -28.3631   23.1317 C   0  0  2  0  0  0
  -20.6732  -26.9367   22.5404 C   0  0  0  0  0  0
  -19.5721  -26.6368   21.5179 C   0  0  0  0  0  0
  -18.1904  -26.7892   22.1605 C   0  0  0  0  0  0
  -19.1502  -28.8813   23.2882 C   0  0  0  0  0  0
  -18.9441  -30.1427   23.8875 C   0  0  0  0  0  0
  -17.6443  -30.6565   24.0553 C   0  0  0  0  0  0
  -25.9037  -34.9470   23.5115 C   0  0  0  0  0  0
  -16.5331  -29.9069   23.6328 C   0  0  0  0  0  0
  -16.7249  -28.6490   23.0339 C   0  0  0  0  0  0
  -26.4429  -31.6601   25.0690 C   0  0  0  0  0  0
  -25.3700  -31.3724   26.1448 C   0  0  0  0  0  0
  -27.0269  -30.3031   24.6128 C   0  0  0  0  0  0
  -27.5991  -32.4327   25.7467 C   0  0  0  0  0  0
  -27.5583  -37.1825   24.8454 C   0  0  0  0  0  0
  -21.4132  -29.3021   22.3735 N   0  0  0  0  0  0
  -26.4295  -37.3807   23.9405 N   0  0  0  0  0  0
  -24.6734  -31.0715   22.0923 N   0  0  0  0  0  0
  -23.4160  -28.8169   23.3029 O   0  0  0  0  0  0
  -28.4578  -26.7032   20.0987 O   0  0  0  0  0  0
  -26.5616  -34.8942   22.4687 O   0  0  0  0  0  0
  -23.5365  -32.1393   23.7410 O   0  0  0  0  0  0
  -29.0381  -20.3620   20.2741 C   0  0  0  0  0  0
  -29.9861  -19.3212   20.0148 C   0  0  0  0  0  0
  -31.2660  -19.7669   19.5404 C   0  0  0  0  0  0
  -29.3271  -21.7246   20.0279 C   0  0  0  0  0  0
  -31.4793  -21.1679   19.3626 C   0  0  0  0  0  0
  -32.6391  -18.6205   17.6738 C   0  0  0  0  0  0
  -32.9974  -23.6839   17.1721 C   0  0  0  0  0  0
  -29.6679  -17.1387   18.7195 C   0  0  0  0  0  0
  -28.0444  -17.6809   20.4649 C   0  0  0  0  0  0
  -32.4028  -18.7930   19.1853 C   0  0  0  0  0  0
  -28.2217  -22.8046   20.0784 C   0  0  0  0  0  0
  -32.8024  -21.7758   18.8937 C   0  0  0  0  0  0
  -32.8145  -22.1781   17.3998 C   0  0  0  0  0  0
  -28.5745  -24.2367   20.6063 C   0  0  0  0  0  0
  -30.2842  -16.9311   21.2118 C   0  0  0  0  0  0
  -28.5913  -25.3737   19.5386 C   0  0  0  0  0  0
  -29.5480  -17.8004   20.1124 C   0  0  0  0  0  0
  -30.5283  -22.1033   19.5699 N   0  0  0  0  0  0
  -29.9627  -15.4798   21.1533 N   0  0  0  0  0  0
  -31.4689  -12.4201   19.1276 H   0  0  0  0  0  0
  -30.3191  -11.3030   19.8134 H   0  0  0  0  0  0
  -29.7372  -11.7976   17.4266 H   0  0  0  0  0  0
  -29.6576  -13.5049   17.7769 H   0  0  0  0  0  0
  -27.8385  -11.3097   18.8214 H   0  0  0  0  0  0
  -27.3624  -12.6327   17.7907 H   0  0  0  0  0  0
  -27.7037  -14.2519   19.5830 H   0  0  0  0  0  0
  -28.6761  -11.9413   21.3287 H   0  0  0  0  0  0
  -28.4531  -13.5678   21.8852 H   0  0  0  0  0  0
  -25.2711   -9.5677   22.4764 H   0  0  0  0  0  0
  -23.9973   -7.4622   22.7493 H   0  0  0  0  0  0
  -21.0813   -8.8717   19.8960 H   0  0  0  0  0  0
  -22.3637  -10.9631   19.6180 H   0  0  0  0  0  0
  -21.2001   -7.6130   23.9684 H   0  0  0  0  0  0
  -21.1488   -6.0525   25.9072 H   0  0  0  0  0  0
  -22.0606   -2.7583   23.2868 H   0  0  0  0  0  0
  -22.4101  -11.9842   22.4753 H   0  0  0  0  0  0
  -21.1106  -13.1267   22.2643 H   0  0  0  0  0  0
  -24.6384  -15.8241   20.4745 H   0  0  0  0  0  0
  -26.2516  -15.6119   20.0191 H   0  0  0  0  0  0
  -26.7119  -32.5468   23.1094 H   0  0  0  0  0  0
  -24.9970  -33.9720   25.0357 H   0  0  0  0  0  0
  -22.7001  -31.3000   21.3918 H   0  0  0  0  0  0
  -23.3732  -35.9683   23.3286 H   0  0  0  0  0  0
  -24.3563  -36.8980   22.2056 H   0  0  0  0  0  0
  -23.7251  -37.6552   23.6663 H   0  0  0  0  0  0
  -26.0561  -31.5750   20.5841 H   0  0  0  0  0  0
  -26.8259  -30.8750   21.9783 H   0  0  0  0  0  0
  -28.1079  -29.0818   21.1530 H   0  0  0  0  0  0
  -26.0133  -25.9481   19.0209 H   0  0  0  0  0  0
  -23.9836  -27.2734   19.0479 H   0  0  0  0  0  0
  -23.7153  -30.5632   19.3851 H   0  0  0  0  0  0
  -22.7456  -29.2099   19.8795 H   0  0  0  0  0  0
  -25.1286  -36.1974   25.0827 H   0  0  0  0  0  0
  -20.9916  -28.3164   24.1447 H   0  0  0  0  0  0
  -20.5589  -26.2223   23.3579 H   0  0  0  0  0  0
  -21.6613  -26.7380   22.1223 H   0  0  0  0  0  0
  -19.6881  -25.6281   21.1205 H   0  0  0  0  0  0
  -19.6665  -27.3175   20.6712 H   0  0  0  0  0  0
  -17.4160  -26.6581   21.4040 H   0  0  0  0  0  0
  -18.0346  -26.0041   22.9019 H   0  0  0  0  0  0
  -19.7928  -30.7239   24.2217 H   0  0  0  0  0  0
  -17.5020  -31.6251   24.5149 H   0  0  0  0  0  0
  -15.5338  -30.2971   23.7716 H   0  0  0  0  0  0
  -15.8625  -28.0845   22.7056 H   0  0  0  0  0  0
  -24.5851  -30.7083   25.7807 H   0  0  0  0  0  0
  -24.8896  -32.2882   26.4911 H   0  0  0  0  0  0
  -25.8059  -30.8889   27.0198 H   0  0  0  0  0  0
  -26.2840  -29.6786   24.1153 H   0  0  0  0  0  0
  -27.3972  -29.7294   25.4633 H   0  0  0  0  0  0
  -27.8695  -30.4314   23.9331 H   0  0  0  0  0  0
  -27.2590  -33.3622   26.2047 H   0  0  0  0  0  0
  -28.3805  -32.6895   25.0306 H   0  0  0  0  0  0
  -28.0639  -31.8437   26.5384 H   0  0  0  0  0  0
  -28.2605  -38.0121   24.7532 H   0  0  0  0  0  0
  -28.1081  -36.2661   24.6247 H   0  0  0  0  0  0
  -27.2295  -37.1451   25.8854 H   0  0  0  0  0  0
  -20.9270  -29.8800   21.7006 H   0  0  0  0  0  0
  -26.0179  -38.2890   24.1388 H   0  0  0  0  0  0
  -28.0314  -20.1440   20.5954 H   0  0  0  0  0  0
  -33.3404  -17.8061   17.4885 H   0  0  0  0  0  0
  -33.0594  -19.5073   17.2070 H   0  0  0  0  0  0
  -31.7168  -18.3819   17.1451 H   0  0  0  0  0  0
  -33.1092  -23.9061   16.1095 H   0  0  0  0  0  0
  -33.8933  -24.0415   17.6812 H   0  0  0  0  0  0
  -32.1421  -24.2476   17.5467 H   0  0  0  0  0  0
  -29.2613  -17.7865   17.9440 H   0  0  0  0  0  0
  -29.1239  -16.1979   18.6667 H   0  0  0  0  0  0
  -30.6874  -16.8885   18.4461 H   0  0  0  0  0  0
  -27.4144  -18.1821   19.7303 H   0  0  0  0  0  0
  -27.8267  -18.0980   21.4480 H   0  0  0  0  0  0
  -27.7192  -16.6449   20.4921 H   0  0  0  0  0  0
  -32.2385  -17.8080   19.5902 H   0  0  0  0  0  0
  -33.3231  -19.0968   19.6826 H   0  0  0  0  0  0
  -27.4369  -22.4158   20.7294 H   0  0  0  0  0  0
  -27.7599  -22.8723   19.0941 H   0  0  0  0  0  0
  -33.6423  -21.1174   19.1078 H   0  0  0  0  0  0
  -33.0046  -22.6507   19.5126 H   0  0  0  0  0  0
  -33.6420  -21.6697   16.9036 H   0  0  0  0  0  0
  -31.9084  -21.8347   16.8969 H   0  0  0  0  0  0
  -29.5114  -24.2259   21.1644 H   0  0  0  0  0  0
  -27.8113  -24.5102   21.3354 H   0  0  0  0  0  0
  -29.9751  -17.2836   22.1957 H   0  0  0  0  0  0
  -31.3627  -17.0518   21.2333 H   0  0  0  0  0  0
  -29.5634  -25.3460   19.0444 H   0  0  0  0  0  0
  -27.8893  -25.1802   18.7319 H   0  0  0  0  0  0
  -29.0459  -15.2157   21.4827 H   0  0  0  0  0  0
  1 25  1  0  0  0
  1 30  2  0  0  0
  1 89  1  0  0  0
  2  3  1  0  0  0
  2 25  1  0  0  0
  2 90  1  0  0  0
  2 91  1  0  0  0
  3  4  1  0  0  0
  3 92  1  0  0  0
  3 93  1  0  0  0
  4  5  1  0  0  0
  4 94  1  0  0  0
  4 95  1  0  0  0
  5  6  1  0  0  0
  5 26  1  0  0  0
  5 96  1  0  0  0
  6 25  1  0  0  0
  6 97  1  0  0  0
  6 98  1  0  0  0
  7  8  2  0  0  0
  7 26  1  0  0  0
  7 29  1  0  0  0
  8  9  1  0  0  0
  8 22  1  0  0  0
  9 10  1  0  0  0
  9 27  2  0  0  0
 10 11  2  0  0  0
 10 15  1  0  0  0
 11 12  1  0  0  0
 11 99  1  0  0  0
 12 13  2  0  0  0
 12100  1  0  0  0
 13 14  1  0  0  0
 13 31  1  0  0  0
 14 15  2  0  0  0
 14101  1  0  0  0
 15102  1  0  0  0
 16 17  2  0  0  0
 16 21  1  0  0  0
 16 31  1  0  0  0
 17 18  1  0  0  0
 17103  1  0  0  0
 18 19  2  0  0  0
 18104  1  0  0  0
 19 20  1  0  0  0
 19 24  1  0  0  0
 20 21  2  0  0  0
 20105  1  0  0  0
 21 23  1  0  0  0
 22 28  1  0  0  0
 22 32  2  0  0  0
 26 27  1  0  0  0
 28106  1  0  0  0
 28107  1  0  0  0
 29108  1  0  0  0
 29109  1  0  0  0
 33 34  1  0  0  0
 33 66  1  0  0  0
 33 70  2  0  0  0
 34 36  1  0  0  0
 34 59  1  0  0  0
 34110  1  0  0  0
 35 44  2  0  0  0
 35 45  1  0  0  0
 35 68  1  0  0  0
 36 56  1  0  0  0
 36111  1  0  0  0
 37 39  1  0  0  0
 37 47  1  0  0  0
 37 66  1  0  0  0
 37112  1  0  0  0
 38 43  2  0  0  0
 38 46  1  0  0  0
 38 47  1  0  0  0
 39 64  1  0  0  0
 39 67  2  0  0  0
 40 52  1  0  0  0
 40 53  2  0  0  0
 40 58  1  0  0  0
 41113  1  0  0  0
 41114  1  0  0  0
 41115  1  0  0  0
 41 48  1  0  0  0
 42 43  1  0  0  0
 42 66  1  0  0  0
 42116  1  0  0  0
 42117  1  0  0  0
 43 44  1  0  0  0
 44118  1  0  0  0
 45 46  2  0  0  0
 45119  1  0  0  0
 46120  1  0  0  0
 47121  1  0  0  0
 47122  1  0  0  0
 48 56  1  0  0  0
 48 65  1  0  0  0
 48123  1  0  0  0
 49 50  1  0  0  0
 49 53  1  0  0  0
 49 64  1  0  0  0
 49124  1  0  0  0
 50 51  1  0  0  0
 50125  1  0  0  0
 50126  1  0  0  0
 51 52  1  0  0  0
 51127  1  0  0  0
 51128  1  0  0  0
 52129  1  0  0  0
 52130  1  0  0  0
 53 54  1  0  0  0
 54 55  2  0  0  0
 54131  1  0  0  0
 55 57  1  0  0  0
 55132  1  0  0  0
 56 69  2  0  0  0
 57 58  2  0  0  0
 57133  1  0  0  0
 58134  1  0  0  0
 59 60  1  0  0  0
 59 61  1  0  0  0
 59 62  1  0  0  0
 60135  1  0  0  0
 60136  1  0  0  0
 60137  1  0  0  0
 61138  1  0  0  0
 61139  1  0  0  0
 61140  1  0  0  0
 62141  1  0  0  0
 62142  1  0  0  0
 62143  1  0  0  0
 63 65  1  0  0  0
 63144  1  0  0  0
 63145  1  0  0  0
 63146  1  0  0  0
 64147  1  0  0  0
 65148  1  0  0  0
 68 86  1  0  0  0
 71 72  2  0  0  0
 71 74  1  0  0  0
 71149  1  0  0  0
 72 73  1  0  0  0
 72 87  1  0  0  0
 73 75  2  0  0  0
 73 80  1  0  0  0
 74 81  1  0  0  0
 74 88  2  0  0  0
 75 82  1  0  0  0
 75 88  1  0  0  0
 76 80  1  0  0  0
 76150  1  0  0  0
 76151  1  0  0  0
 76152  1  0  0  0
 77 83  1  0  0  0
 77153  1  0  0  0
 77154  1  0  0  0
 77155  1  0  0  0
 78156  1  0  0  0
 78157  1  0  0  0
 78158  1  0  0  0
 78 87  1  0  0  0
 79 87  1  0  0  0
 79159  1  0  0  0
 79160  1  0  0  0
 79161  1  0  0  0
 80162  1  0  0  0
 80163  1  0  0  0
 81 84  1  0  0  0
 81164  1  0  0  0
 81165  1  0  0  0
 82 83  1  0  0  0
 82166  1  0  0  0
 82167  1  0  0  0
 83168  1  0  0  0
 83169  1  0  0  0
 84 86  1  0  0  0
 84170  1  0  0  0
 84171  1  0  0  0
 85 87  1  0  0  0
 85 89  1  0  0  0
 85172  1  0  0  0
 85173  1  0  0  0
 86174  1  0  0  0
 86175  1  0  0  0
 89176  1  0  0  0
M  ISO  4   1 100  68 101  86 101  89 100
M  END
> <chiral flag>
0

> <version>
0

> <s_m_source_file>
/data/baiqing/PycharmProjects/Reinvent-master-3.2/result/LINK_invent/BTK/process_docking_weight1_custom_sum_contain_oxygen_bond_distance_aromatic_linkinvent_7_9_3/rearranged_h_0089.sdf

> <i_m_source_file_index>
66

> <r_mmod_Potential_Energy-OPLS-2005>
-202.394317626953

> <r_mmod_Stretch_Energy-OPLS-2005>
61.9688758850098

> <r_mmod_Bend_Energy-OPLS-2005>
139.635513305664

> <r_mmod_Torsional_Energy-OPLS-2005>
224.667892456055

> <r_mmod_Improper_Torsional_Energy-OPLS-2005>
4.89804935455322

> <r_mmod_Van_der_Waal_Energy-OPLS-2005>
168.115737915039

> <r_mmod_Electrostatic_Energy-OPLS-2005>
-606.591430664062

> <r_mmod_Solvation_Energy-OPLS-2005>
-210.294555664062

> <b_mmod_Minimization_Converged-OPLS-2005>
0

> <r_mmod_RMS_Derivative-OPLS-2005>
3.55692744255066

$$$$
67
                    3D
 Structure written by MMmdl.
171179  0  0  1  0            999 V2000
  -30.5147  -14.9700   20.4115 C   0  0  0  0  0  0
  -30.4364  -12.6008   19.5004 C   0  0  0  0  0  0
  -29.5179  -12.5197   18.2587 C   0  0  0  0  0  0
  -28.0526  -12.3011   18.6835 C   0  0  0  0  0  0
  -27.6222  -13.2478   19.8331 C   0  0  2  0  0  0
  -28.6640  -13.2888   20.9703 C   0  0  0  0  0  0
  -25.2434  -13.8211   20.5731 C   0  0  0  0  0  0
  -24.1761  -13.0432   20.9261 C   0  0  0  0  0  0
  -24.6382  -11.6916   20.8819 C   0  0  0  0  0  0
  -23.9092  -10.4279   21.0463 C   0  0  0  0  0  0
  -24.3637   -9.4177   21.9214 C   0  0  0  0  0  0
  -23.6301   -8.2217   22.0755 C   0  0  0  0  0  0
  -22.4280   -8.0281   21.3550 C   0  0  0  0  0  0
  -21.9927   -9.0270   20.4657 C   0  0  0  0  0  0
  -22.7271  -10.2138   20.3091 C   0  0  0  0  0  0
  -21.6837   -6.0763   22.5296 C   0  0  0  0  0  0
  -21.4011   -6.5666   23.8234 C   0  0  0  0  0  0
  -21.3655   -5.6799   24.9194 C   0  0  0  0  0  0
  -21.6022   -4.3068   24.7228 C   0  0  0  0  0  0
  -21.8798   -3.8169   23.4350 C   0  0  0  0  0  0
  -21.9174   -4.6990   22.3417 C   0  0  0  0  0  0
  -22.7784  -13.5208   21.1922 C   0  0  0  0  0  0
  -22.1652   -4.2183   21.0988 F   0  0  0  0  0  0
  -21.5618   -3.4535   25.7743 F   0  0  0  0  0  0
  -29.9325  -13.7049   20.3642 N   0  0  0  0  0  0
  -26.2833  -12.9441   20.3229 N   0  0  0  0  0  0
  -25.9301  -11.6571   20.5777 N   0  0  0  0  0  0
  -22.0434  -12.8209   22.0488 N   0  0  0  0  0  0
  -25.4069  -15.1951   20.4186 N   0  0  0  0  0  0
  -31.7260  -15.0402   20.1866 O   0  0  0  0  0  0
  -21.6611   -6.8907   21.4270 O   0  0  0  0  0  0
  -22.3471  -14.5501   20.6748 O   0  0  0  0  0  0
  -24.6443  -31.8389   23.1859 C   0  0  0  0  0  0
  -25.9195  -32.4665   23.8256 C   0  0  1  0  0  0
  -27.2118  -27.1057   20.1499 C   0  0  0  0  0  0
  -25.5905  -33.8467   24.2161 N   0  0  0  0  0  0
  -23.4508  -30.4601   21.5299 C   0  0  2  0  0  0
  -24.9039  -28.8907   20.1010 C   0  0  0  0  0  0
  -22.7590  -29.4507   22.4798 C   0  0  0  0  0  0
  -18.0314  -28.1388   22.8476 C   0  0  0  0  0  0
  -24.1505  -36.7254   23.2644 C   0  0  0  0  0  0
  -26.0091  -30.7078   21.3883 C   0  0  0  0  0  0
  -26.0794  -29.3147   20.7323 C   0  0  0  0  0  0
  -27.2312  -28.4361   20.7469 C   0  0  0  0  0  0
  -26.0202  -26.8090   19.4478 C   0  0  0  0  0  0
  -24.8907  -27.6542   19.4390 C   0  0  0  0  0  0
  -23.6811  -29.7943   20.1478 C   0  0  0  0  0  0
  -25.4125  -36.3018   24.0325 C   0  0  1  0  0  0
  -20.5937  -28.3726   23.1220 C   0  0  2  0  0  0
  -20.6803  -26.9417   22.5410 C   0  0  0  0  0  0
  -19.5778  -26.6377   21.5208 C   0  0  0  0  0  0
  -18.1958  -26.7932   22.1614 C   0  0  0  0  0  0
  -19.1577  -28.8865   23.2855 C   0  0  0  0  0  0
  -18.9473  -30.1468   23.8889 C   0  0  0  0  0  0
  -17.6469  -30.6574   24.0558 C   0  0  0  0  0  0
  -25.9086  -34.9390   23.5070 C   0  0  0  0  0  0
  -16.5358  -29.9075   23.6333 C   0  0  0  0  0  0
  -16.7303  -28.6496   23.0345 C   0  0  0  0  0  0
  -26.4494  -31.6520   25.0701 C   0  0  0  0  0  0
  -25.3668  -31.3720   26.1369 C   0  0  0  0  0  0
  -27.0319  -30.2921   24.6243 C   0  0  0  0  0  0
  -27.6033  -32.4276   25.7461 C   0  0  0  0  0  0
  -27.5581  -37.1778   24.8479 C   0  0  0  0  0  0
  -21.4269  -29.3050   22.3571 N   0  0  0  0  0  0
  -26.4289  -37.3751   23.9422 N   0  0  0  0  0  0
  -24.7218  -31.0233   22.0910 N   0  0  0  0  0  0
  -23.4218  -28.8026   23.2934 O   0  0  0  0  0  0
  -28.2314  -26.0782   20.2648 O   0  0  0  0  0  0
  -26.5690  -34.8886   22.4669 O   0  0  0  0  0  0
  -23.5549  -32.1265   23.7073 O   0  0  0  0  0  0
  -29.3596  -23.2959   21.7446 C   0  0  0  0  0  0
  -29.7633  -20.8404   21.8616 C   0  0  0  0  0  0
  -28.6014  -21.8128   19.9860 C   0  0  0  0  0  0
  -29.8602  -22.1421   22.4194 C   0  0  0  0  0  0
  -28.6850  -23.2097   20.5092 C   0  0  0  0  0  0
  -29.1457  -20.5749   20.6245 C   0  0  0  0  0  0
  -28.7656  -18.8901   18.6523 C   0  0  0  0  0  0
  -28.1633  -25.9424   26.4272 C   0  0  0  0  0  0
  -30.0327  -26.6279   24.8810 C   0  0  0  0  0  0
  -30.5065  -22.2210   23.8001 C   0  0  0  0  0  0
  -27.9669  -24.5760   19.8908 C   0  0  0  0  0  0
  -30.6311  -23.6070   24.4585 C   0  0  0  0  0  0
  -29.3097  -24.1693   25.0270 C   0  0  0  0  0  0
  -30.0225  -17.6984   20.6326 C   0  0  0  0  0  0
  -28.9928  -18.9768   20.1683 C   0  0  1  0  0  0
  -29.4830  -25.5045   25.7794 C   0  0  0  0  0  0
  -29.7094  -16.1434   20.5126 N   0  0  0  0  0  0
  -31.4665  -12.7703   19.1898 H   0  0  0  0  0  0
  -30.4373  -11.6596   20.0513 H   0  0  0  0  0  0
  -29.8415  -11.7130   17.6005 H   0  0  0  0  0  0
  -29.5985  -13.4414   17.6810 H   0  0  0  0  0  0
  -27.9624  -11.2661   19.0161 H   0  0  0  0  0  0
  -27.3824  -12.4057   17.8301 H   0  0  0  0  0  0
  -27.5757  -14.2445   19.3942 H   0  0  0  0  0  0
  -28.7596  -12.3147   21.4525 H   0  0  0  0  0  0
  -28.3605  -13.9930   21.7482 H   0  0  0  0  0  0
  -25.2786   -9.5612   22.4792 H   0  0  0  0  0  0
  -23.9990   -7.4574   22.7454 H   0  0  0  0  0  0
  -21.0835   -8.8797   19.8963 H   0  0  0  0  0  0
  -22.3738  -10.9687   19.6197 H   0  0  0  0  0  0
  -21.2022   -7.6166   23.9760 H   0  0  0  0  0  0
  -21.1503   -6.0537   25.9099 H   0  0  0  0  0  0
  -22.0585   -2.7635   23.2840 H   0  0  0  0  0  0
  -22.4061  -11.9866   22.4846 H   0  0  0  0  0  0
  -21.1064  -13.1253   22.2712 H   0  0  0  0  0  0
  -24.6256  -15.8355   20.5162 H   0  0  0  0  0  0
  -26.2350  -15.6412   20.0446 H   0  0  0  0  0  0
  -26.7267  -32.5264   23.1007 H   0  0  0  0  0  0
  -24.9959  -33.9565   25.0237 H   0  0  0  0  0  0
  -22.7587  -31.2903   21.3756 H   0  0  0  0  0  0
  -23.3768  -35.9590   23.3273 H   0  0  0  0  0  0
  -24.3607  -36.8902   22.2071 H   0  0  0  0  0  0
  -23.7290  -37.6450   23.6688 H   0  0  0  0  0  0
  -26.1556  -31.4582   20.6110 H   0  0  0  0  0  0
  -26.8820  -30.7695   22.0256 H   0  0  0  0  0  0
  -28.1229  -28.7510   21.2744 H   0  0  0  0  0  0
  -25.9195  -25.8774   18.9138 H   0  0  0  0  0  0
  -23.9994  -27.3372   18.9155 H   0  0  0  0  0  0
  -23.8209  -30.5724   19.3964 H   0  0  0  0  0  0
  -22.7948  -29.2414   19.8320 H   0  0  0  0  0  0
  -25.1329  -36.1838   25.0825 H   0  0  0  0  0  0
  -21.0041  -28.3320   24.1335 H   0  0  0  0  0  0
  -20.5678  -26.2332   23.3632 H   0  0  0  0  0  0
  -21.6668  -26.7414   22.1209 H   0  0  0  0  0  0
  -19.6938  -25.6278   21.1255 H   0  0  0  0  0  0
  -19.6722  -27.3167   20.6720 H   0  0  0  0  0  0
  -17.4231  -26.6669   21.4017 H   0  0  0  0  0  0
  -18.0368  -26.0084   22.9019 H   0  0  0  0  0  0
  -19.7945  -30.7298   24.2253 H   0  0  0  0  0  0
  -17.5006  -31.6258   24.5156 H   0  0  0  0  0  0
  -15.5349  -30.2948   23.7677 H   0  0  0  0  0  0
  -15.8712  -28.0804   22.7056 H   0  0  0  0  0  0
  -24.5961  -30.6918   25.7709 H   0  0  0  0  0  0
  -24.8693  -32.2879   26.4577 H   0  0  0  0  0  0
  -25.7925  -30.9091   27.0299 H   0  0  0  0  0  0
  -26.2928  -29.6705   24.1170 H   0  0  0  0  0  0
  -27.3930  -29.7150   25.4773 H   0  0  0  0  0  0
  -27.8822  -30.4118   23.9534 H   0  0  0  0  0  0
  -27.2692  -33.3715   26.1806 H   0  0  0  0  0  0
  -28.3950  -32.6586   25.0328 H   0  0  0  0  0  0
  -28.0539  -31.8535   26.5548 H   0  0  0  0  0  0
  -28.2591  -38.0075   24.7548 H   0  0  0  0  0  0
  -28.1092  -36.2621   24.6308 H   0  0  0  0  0  0
  -27.2292  -37.1418   25.8876 H   0  0  0  0  0  0
  -20.9446  -29.8816   21.6814 H   0  0  0  0  0  0
  -26.0141  -38.2817   24.1443 H   0  0  0  0  0  0
  -29.4413  -24.2758   22.1909 H   0  0  0  0  0  0
  -30.1459  -20.0071   22.4356 H   0  0  0  0  0  0
  -28.0575  -21.6922   19.0605 H   0  0  0  0  0  0
  -27.9306  -19.5148   18.3356 H   0  0  0  0  0  0
  -28.5292  -17.8713   18.3452 H   0  0  0  0  0  0
  -29.6476  -19.2095   18.0993 H   0  0  0  0  0  0
  -28.2948  -26.8452   27.0250 H   0  0  0  0  0  0
  -27.7725  -25.1708   27.0890 H   0  0  0  0  0  0
  -27.3988  -26.1514   25.6796 H   0  0  0  0  0  0
  -30.0903  -27.5749   25.4206 H   0  0  0  0  0  0
  -29.4019  -26.7831   24.0059 H   0  0  0  0  0  0
  -31.0407  -26.4048   24.5285 H   0  0  0  0  0  0
  -31.5086  -21.8019   23.7009 H   0  0  0  0  0  0
  -29.9712  -21.5467   24.4699 H   0  0  0  0  0  0
  -26.9131  -24.3820   20.0837 H   0  0  0  0  0  0
  -28.0821  -24.5101   18.8074 H   0  0  0  0  0  0
  -31.0978  -24.2966   23.7565 H   0  0  0  0  0  0
  -31.3319  -23.5117   25.2906 H   0  0  0  0  0  0
  -28.8925  -23.4339   25.7167 H   0  0  0  0  0  0
  -28.5675  -24.2872   24.2382 H   0  0  0  0  0  0
  -30.2218  -17.8320   21.6960 H   0  0  0  0  0  0
  -30.9906  -17.8564   20.1556 H   0  0  0  0  0  0
  -28.0340  -18.7033   20.6107 H   0  0  0  0  0  0
  -30.2001  -25.3437   26.5849 H   0  0  0  0  0  0
  -28.7291  -15.9254   20.6061 H   0  0  0  0  0  0
  1 25  1  0  0  0
  1 30  2  0  0  0
  1 87  1  0  0  0
  2  3  1  0  0  0
  2 25  1  0  0  0
  2 88  1  0  0  0
  2 89  1  0  0  0
  3  4  1  0  0  0
  3 90  1  0  0  0
  3 91  1  0  0  0
  4  5  1  0  0  0
  4 92  1  0  0  0
  4 93  1  0  0  0
  5  6  1  0  0  0
  5 26  1  0  0  0
  5 94  1  0  0  0
  6 25  1  0  0  0
  6 95  1  0  0  0
  6 96  1  0  0  0
  7  8  2  0  0  0
  7 26  1  0  0  0
  7 29  1  0  0  0
  8  9  1  0  0  0
  8 22  1  0  0  0
  9 10  1  0  0  0
  9 27  2  0  0  0
 10 11  2  0  0  0
 10 15  1  0  0  0
 11 12  1  0  0  0
 11 97  1  0  0  0
 12 13  2  0  0  0
 12 98  1  0  0  0
 13 14  1  0  0  0
 13 31  1  0  0  0
 14 15  2  0  0  0
 14 99  1  0  0  0
 15100  1  0  0  0
 16 17  2  0  0  0
 16 21  1  0  0  0
 16 31  1  0  0  0
 17 18  1  0  0  0
 17101  1  0  0  0
 18 19  2  0  0  0
 18102  1  0  0  0
 19 20  1  0  0  0
 19 24  1  0  0  0
 20 21  2  0  0  0
 20103  1  0  0  0
 21 23  1  0  0  0
 22 28  1  0  0  0
 22 32  2  0  0  0
 26 27  1  0  0  0
 28104  1  0  0  0
 28105  1  0  0  0
 29106  1  0  0  0
 29107  1  0  0  0
 33 34  1  0  0  0
 33 66  1  0  0  0
 33 70  2  0  0  0
 34 36  1  0  0  0
 34 59  1  0  0  0
 34108  1  0  0  0
 35 44  2  0  0  0
 35 45  1  0  0  0
 35 68  1  0  0  0
 36 56  1  0  0  0
 36109  1  0  0  0
 37 39  1  0  0  0
 37 47  1  0  0  0
 37 66  1  0  0  0
 37110  1  0  0  0
 38 43  2  0  0  0
 38 46  1  0  0  0
 38 47  1  0  0  0
 39 64  1  0  0  0
 39 67  2  0  0  0
 40 52  1  0  0  0
 40 53  2  0  0  0
 40 58  1  0  0  0
 41111  1  0  0  0
 41112  1  0  0  0
 41113  1  0  0  0
 41 48  1  0  0  0
 42 43  1  0  0  0
 42 66  1  0  0  0
 42114  1  0  0  0
 42115  1  0  0  0
 43 44  1  0  0  0
 44116  1  0  0  0
 45 46  2  0  0  0
 45117  1  0  0  0
 46118  1  0  0  0
 47119  1  0  0  0
 47120  1  0  0  0
 48 56  1  0  0  0
 48 65  1  0  0  0
 48121  1  0  0  0
 49 50  1  0  0  0
 49 53  1  0  0  0
 49 64  1  0  0  0
 49122  1  0  0  0
 50 51  1  0  0  0
 50123  1  0  0  0
 50124  1  0  0  0
 51 52  1  0  0  0
 51125  1  0  0  0
 51126  1  0  0  0
 52127  1  0  0  0
 52128  1  0  0  0
 53 54  1  0  0  0
 54 55  2  0  0  0
 54129  1  0  0  0
 55 57  1  0  0  0
 55130  1  0  0  0
 56 69  2  0  0  0
 57 58  2  0  0  0
 57131  1  0  0  0
 58132  1  0  0  0
 59 60  1  0  0  0
 59 61  1  0  0  0
 59 62  1  0  0  0
 60133  1  0  0  0
 60134  1  0  0  0
 60135  1  0  0  0
 61136  1  0  0  0
 61137  1  0  0  0
 61138  1  0  0  0
 62139  1  0  0  0
 62140  1  0  0  0
 62141  1  0  0  0
 63 65  1  0  0  0
 63142  1  0  0  0
 63143  1  0  0  0
 63144  1  0  0  0
 64145  1  0  0  0
 65146  1  0  0  0
 68 81  1  0  0  0
 71 74  2  0  0  0
 71 75  1  0  0  0
 71147  1  0  0  0
 72 74  1  0  0  0
 72 76  2  0  0  0
 72148  1  0  0  0
 73 75  2  0  0  0
 73 76  1  0  0  0
 73149  1  0  0  0
 74 80  1  0  0  0
 75 81  1  0  0  0
 76 85  1  0  0  0
 77150  1  0  0  0
 77151  1  0  0  0
 77152  1  0  0  0
 77 85  1  0  0  0
 78153  1  0  0  0
 78154  1  0  0  0
 78155  1  0  0  0
 78 86  1  0  0  0
 79 86  1  0  0  0
 79156  1  0  0  0
 79157  1  0  0  0
 79158  1  0  0  0
 80 82  1  0  0  0
 80159  1  0  0  0
 80160  1  0  0  0
 81161  1  0  0  0
 81162  1  0  0  0
 82 83  1  0  0  0
 82163  1  0  0  0
 82164  1  0  0  0
 83 86  1  0  0  0
 83165  1  0  0  0
 83166  1  0  0  0
 84 85  1  0  0  0
 84 87  1  0  0  0
 84167  1  0  0  0
 84168  1  0  0  0
 85169  1  0  0  0
 86170  1  0  0  0
 87171  1  0  0  0
M  ISO  4   1 100  68 101  81 101  87 100
M  END
> <chiral flag>
0

> <version>
0

> <s_m_source_file>
/data/baiqing/PycharmProjects/Reinvent-master-3.2/result/LINK_invent/BTK/process_docking_weight1_custom_sum_contain_oxygen_bond_distance_aromatic_linkinvent_7_9_3/rearranged_h_0089.sdf

> <i_m_source_file_index>
67

> <r_mmod_Potential_Energy-OPLS-2005>
534.123901367188

> <r_mmod_Stretch_Energy-OPLS-2005>
284.630676269531

> <r_mmod_Bend_Energy-OPLS-2005>
258.830993652344

> <r_mmod_Torsional_Energy-OPLS-2005>
227.58317565918

> <r_mmod_Improper_Torsional_Energy-OPLS-2005>
5.40644598007202

> <r_mmod_Van_der_Waal_Energy-OPLS-2005>
126.356979370117

> <r_mmod_Electrostatic_Energy-OPLS-2005>
-388.901885986328

> <r_mmod_Solvation_Energy-OPLS-2005>
-202.855621337891

> <b_mmod_Minimization_Converged-OPLS-2005>
0

> <r_mmod_RMS_Derivative-OPLS-2005>
4.24051666259766

$$$$
68
                    3D
 Structure written by MMmdl.
177184  0  0  1  0            999 V2000
  -30.7807  -14.3882   20.7181 C   0  0  0  0  0  0
  -30.4185  -12.3158   19.4058 C   0  0  0  0  0  0
  -29.4883  -12.5400   18.1998 C   0  0  0  0  0  0
  -28.0133  -12.3805   18.6111 C   0  0  0  0  0  0
  -27.6662  -13.2003   19.8793 C   0  0  2  0  0  0
  -28.7042  -12.9567   20.9972 C   0  0  0  0  0  0
  -25.2615  -13.8134   20.5653 C   0  0  0  0  0  0
  -24.1852  -13.0429   20.9168 C   0  0  0  0  0  0
  -24.6390  -11.6901   20.8711 C   0  0  0  0  0  0
  -23.9037  -10.4298   21.0391 C   0  0  0  0  0  0
  -24.3597   -9.4224   21.9166 C   0  0  0  0  0  0
  -23.6286   -8.2248   22.0746 C   0  0  0  0  0  0
  -22.4268   -8.0276   21.3549 C   0  0  0  0  0  0
  -21.9891   -9.0240   20.4642 C   0  0  0  0  0  0
  -22.7208  -10.2132   20.3041 C   0  0  0  0  0  0
  -21.6854   -6.0724   22.5285 C   0  0  0  0  0  0
  -21.4016   -6.5628   23.8214 C   0  0  0  0  0  0
  -21.3662   -5.6778   24.9176 C   0  0  0  0  0  0
  -21.6049   -4.3040   24.7228 C   0  0  0  0  0  0
  -21.8818   -3.8131   23.4344 C   0  0  0  0  0  0
  -21.9196   -4.6950   22.3402 C   0  0  0  0  0  0
  -22.7878  -13.5246   21.1826 C   0  0  0  0  0  0
  -22.1663   -4.2138   21.0977 F   0  0  0  0  0  0
  -21.5638   -3.4524   25.7733 F   0  0  0  0  0  0
  -30.0465  -13.2660   20.4699 N   0  0  0  0  0  0
  -26.3053  -12.9290   20.3366 N   0  0  0  0  0  0
  -25.9318  -11.6464   20.5753 N   0  0  0  0  0  0
  -22.0497  -12.8252   22.0388 N   0  0  0  0  0  0
  -25.4318  -15.1840   20.4040 N   0  0  0  0  0  0
  -31.7806  -14.6669   20.0488 O   0  0  0  0  0  0
  -21.6642   -6.8871   21.4249 O   0  0  0  0  0  0
  -22.3560  -14.5543   20.6668 O   0  0  0  0  0  0
  -24.6122  -31.8691   23.2165 C   0  0  0  0  0  0
  -25.9032  -32.4822   23.8434 C   0  0  1  0  0  0
  -27.2392  -27.4732   20.0788 C   0  0  0  0  0  0
  -25.5890  -33.8621   24.2366 N   0  0  0  0  0  0
  -23.3983  -30.4936   21.5547 C   0  0  2  0  0  0
  -24.8458  -28.9588   20.1259 C   0  0  0  0  0  0
  -22.7390  -29.4654   22.5021 C   0  0  0  0  0  0
  -18.0265  -28.1361   22.8497 C   0  0  0  0  0  0
  -24.1472  -36.7334   23.2634 C   0  0  0  0  0  0
  -25.9233  -30.8420   21.3670 C   0  0  0  0  0  0
  -26.0023  -29.4729   20.7283 C   0  0  0  0  0  0
  -27.2038  -28.7306   20.7184 C   0  0  0  0  0  0
  -26.0704  -26.9637   19.4818 C   0  0  0  0  0  0
  -24.8703  -27.6962   19.5084 C   0  0  0  0  0  0
  -23.6074  -29.8239   20.1707 C   0  0  0  0  0  0
  -25.4080  -36.3116   24.0345 C   0  0  1  0  0  0
  -20.5852  -28.3636   23.1331 C   0  0  2  0  0  0
  -20.6748  -26.9378   22.5413 C   0  0  0  0  0  0
  -19.5726  -26.6376   21.5209 C   0  0  0  0  0  0
  -18.1910  -26.7911   22.1624 C   0  0  0  0  0  0
  -19.1516  -28.8818   23.2911 C   0  0  0  0  0  0
  -18.9450  -30.1425   23.8921 C   0  0  0  0  0  0
  -17.6451  -30.6575   24.0563 C   0  0  0  0  0  0
  -25.9014  -34.9469   23.5152 C   0  0  0  0  0  0
  -16.5341  -29.9086   23.6313 C   0  0  0  0  0  0
  -16.7256  -28.6493   23.0354 C   0  0  0  0  0  0
  -26.4501  -31.6575   25.0734 C   0  0  0  0  0  0
  -25.3785  -31.3660   26.1507 C   0  0  0  0  0  0
  -27.0323  -30.3024   24.6069 C   0  0  0  0  0  0
  -27.6092  -32.4287   25.7483 C   0  0  0  0  0  0
  -27.5566  -37.1817   24.8450 C   0  0  0  0  0  0
  -21.4122  -29.3020   22.3756 N   0  0  0  0  0  0
  -26.4267  -37.3794   23.9409 N   0  0  0  0  0  0
  -24.6624  -31.0829   22.1051 N   0  0  0  0  0  0
  -23.4172  -28.8189   23.3049 O   0  0  0  0  0  0
  -28.3910  -26.7516   19.9138 O   0  0  0  0  0  0
  -26.5568  -34.8915   22.4709 O   0  0  0  0  0  0
  -23.5317  -32.1427   23.7574 O   0  0  0  0  0  0
  -31.3645  -26.3313   19.9104 C   0  0  0  0  0  0
  -31.3694  -22.8301   24.0754 C   0  0  0  0  0  0
  -28.6059  -19.2442   24.7114 C   0  0  0  0  0  0
  -28.5855  -22.1284   24.7398 C   0  0  0  0  0  0
  -28.7944  -16.8579   20.6358 C   0  0  0  0  0  0
  -30.4448  -15.3453   21.8888 C   0  0  0  0  0  0
  -30.8502  -24.5486   21.6498 C   0  0  0  0  0  0
  -29.8521  -23.4584   22.0963 C   0  0  0  0  0  0
  -29.8000  -19.1399   22.4623 C   0  0  0  0  0  0
  -29.1170  -26.3886   21.0731 C   0  0  0  0  0  0
  -30.2655  -25.4844   20.5709 C   0  0  1  0  0  0
  -30.4234  -22.3146   22.9696 C   0  0  2  0  0  0
  -29.6413  -19.9397   23.7922 C   0  0  1  0  0  0
  -29.2586  -21.4370   23.5270 C   0  0  1  0  0  0
  -30.0928  -16.8060   21.4745 C   0  0  2  0  0  0
  -30.0199  -17.6848   22.6808 N   0  3  0  0  0  0
  -31.4610  -12.4171   19.0999 H   0  0  0  0  0  0
  -30.3206  -11.2927   19.7758 H   0  0  0  0  0  0
  -29.7340  -11.8417   17.3980 H   0  0  0  0  0  0
  -29.6488  -13.5419   17.7966 H   0  0  0  0  0  0
  -27.8257  -11.3194   18.7879 H   0  0  0  0  0  0
  -27.3570  -12.6731   17.7918 H   0  0  0  0  0  0
  -27.7176  -14.2497   19.5990 H   0  0  0  0  0  0
  -28.6785  -11.9131   21.3121 H   0  0  0  0  0  0
  -28.4193  -13.5204   21.8807 H   0  0  0  0  0  0
  -25.2749   -9.5708   22.4725 H   0  0  0  0  0  0
  -24.0004   -7.4646   22.7463 H   0  0  0  0  0  0
  -21.0812   -8.8749   19.8941 H   0  0  0  0  0  0
  -22.3657  -10.9662   19.6139 H   0  0  0  0  0  0
  -21.2005   -7.6137   23.9717 H   0  0  0  0  0  0
  -21.1486   -6.0504   25.9080 H   0  0  0  0  0  0
  -22.0596   -2.7592   23.2843 H   0  0  0  0  0  0
  -22.4101  -11.9923   22.4800 H   0  0  0  0  0  0
  -21.1114  -13.1306   22.2564 H   0  0  0  0  0  0
  -24.6616  -15.8359   20.5099 H   0  0  0  0  0  0
  -26.2733  -15.6232   20.0545 H   0  0  0  0  0  0
  -26.7105  -32.5566   23.1206 H   0  0  0  0  0  0
  -25.0047  -33.9778   25.0519 H   0  0  0  0  0  0
  -22.6852  -31.3097   21.4168 H   0  0  0  0  0  0
  -23.3708  -35.9697   23.3301 H   0  0  0  0  0  0
  -24.3578  -36.8936   22.2048 H   0  0  0  0  0  0
  -23.7248  -37.6556   23.6641 H   0  0  0  0  0  0
  -26.0251  -31.6022   20.5912 H   0  0  0  0  0  0
  -26.8149  -30.9047   21.9783 H   0  0  0  0  0  0
  -28.1019  -29.1412   21.1584 H   0  0  0  0  0  0
  -26.0972  -26.0065   18.9805 H   0  0  0  0  0  0
  -23.9834  -27.2951   19.0375 H   0  0  0  0  0  0
  -23.7149  -30.5969   19.4091 H   0  0  0  0  0  0
  -22.7328  -29.2416   19.8758 H   0  0  0  0  0  0
  -25.1249  -36.1995   25.0838 H   0  0  0  0  0  0
  -20.9940  -28.3196   24.1454 H   0  0  0  0  0  0
  -20.5651  -26.2250   23.3598 H   0  0  0  0  0  0
  -21.6625  -26.7418   22.1214 H   0  0  0  0  0  0
  -19.6888  -25.6299   21.1223 H   0  0  0  0  0  0
  -19.6672  -27.3204   20.6757 H   0  0  0  0  0  0
  -17.4180  -26.6667   21.4024 H   0  0  0  0  0  0
  -18.0301  -26.0046   22.9011 H   0  0  0  0  0  0
  -19.7932  -30.7226   24.2313 H   0  0  0  0  0  0
  -17.5017  -31.6265   24.5149 H   0  0  0  0  0  0
  -15.5346  -30.3000   23.7630 H   0  0  0  0  0  0
  -15.8652  -28.0823   22.7066 H   0  0  0  0  0  0
  -24.5945  -30.7017   25.7842 H   0  0  0  0  0  0
  -24.8997  -32.2818   26.4992 H   0  0  0  0  0  0
  -25.8158  -30.8792   27.0238 H   0  0  0  0  0  0
  -26.2861  -29.6785   24.1125 H   0  0  0  0  0  0
  -27.4111  -29.7220   25.4495 H   0  0  0  0  0  0
  -27.8676  -30.4381   23.9191 H   0  0  0  0  0  0
  -27.2722  -33.3574   26.2092 H   0  0  0  0  0  0
  -28.3873  -32.6881   25.0289 H   0  0  0  0  0  0
  -28.0810  -31.8398   26.5361 H   0  0  0  0  0  0
  -28.2584  -38.0111   24.7476 H   0  0  0  0  0  0
  -28.1059  -36.2636   24.6282 H   0  0  0  0  0  0
  -27.2300  -37.1488   25.8861 H   0  0  0  0  0  0
  -20.9285  -29.8759   21.6993 H   0  0  0  0  0  0
  -26.0155  -38.2883   24.1387 H   0  0  0  0  0  0
  -32.1395  -25.7038   19.4714 H   0  0  0  0  0  0
  -31.8408  -27.0001   20.6292 H   0  0  0  0  0  0
  -30.9544  -26.9465   19.1074 H   0  0  0  0  0  0
  -32.2762  -23.2620   23.6514 H   0  0  0  0  0  0
  -31.6839  -22.0285   24.7430 H   0  0  0  0  0  0
  -30.8978  -23.6028   24.6845 H   0  0  0  0  0  0
  -28.8529  -18.2031   24.9145 H   0  0  0  0  0  0
  -27.6050  -19.2747   24.2784 H   0  0  0  0  0  0
  -28.5560  -19.7148   25.6947 H   0  0  0  0  0  0
  -28.4278  -23.1940   24.5789 H   0  0  0  0  0  0
  -29.1849  -22.0306   25.6452 H   0  0  0  0  0  0
  -27.5998  -21.7109   24.9450 H   0  0  0  0  0  0
  -28.8821  -16.2469   19.7389 H   0  0  0  0  0  0
  -28.5613  -17.8591   20.2784 H   0  0  0  0  0  0
  -27.9395  -16.4936   21.2061 H   0  0  0  0  0  0
  -29.6940  -14.9501   22.5660 H   0  0  0  0  0  0
  -31.3507  -15.3738   22.4967 H   0  0  0  0  0  0
  -31.7403  -24.0600   21.2497 H   0  0  0  0  0  0
  -31.1815  -25.1370   22.5061 H   0  0  0  0  0  0
  -29.4098  -23.0052   21.2081 H   0  0  0  0  0  0
  -29.0294  -23.9399   22.6192 H   0  0  0  0  0  0
  -30.6293  -19.5285   21.8708 H   0  0  0  0  0  0
  -28.8996  -19.2920   21.8721 H   0  0  0  0  0  0
  -29.4999  -27.2605   21.6081 H   0  0  0  0  0  0
  -28.4449  -25.8592   21.7482 H   0  0  0  0  0  0
  -29.8579  -24.8353   19.7923 H   0  0  0  0  0  0
  -31.0357  -21.7026   22.3063 H   0  0  0  0  0  0
  -30.5957  -19.9188   24.3186 H   0  0  0  0  0  0
  -28.4879  -21.4104   22.7548 H   0  0  0  0  0  0
  -30.9068  -17.1884   20.8557 H   0  0  0  0  0  0
  -29.2817  -17.3568   23.2832 H   0  0  0  0  0  0
  -30.8854  -17.5915   23.1909 H   0  0  0  0  0  0
  1 25  1  0  0  0
  1 30  2  0  0  0
  1 76  1  0  0  0
  2  3  1  0  0  0
  2 25  1  0  0  0
  2 87  1  0  0  0
  2 88  1  0  0  0
  3  4  1  0  0  0
  3 89  1  0  0  0
  3 90  1  0  0  0
  4  5  1  0  0  0
  4 91  1  0  0  0
  4 92  1  0  0  0
  5  6  1  0  0  0
  5 26  1  0  0  0
  5 93  1  0  0  0
  6 25  1  0  0  0
  6 94  1  0  0  0
  6 95  1  0  0  0
  7  8  2  0  0  0
  7 26  1  0  0  0
  7 29  1  0  0  0
  8  9  1  0  0  0
  8 22  1  0  0  0
  9 10  1  0  0  0
  9 27  2  0  0  0
 10 11  2  0  0  0
 10 15  1  0  0  0
 11 12  1  0  0  0
 11 96  1  0  0  0
 12 13  2  0  0  0
 12 97  1  0  0  0
 13 14  1  0  0  0
 13 31  1  0  0  0
 14 15  2  0  0  0
 14 98  1  0  0  0
 15 99  1  0  0  0
 16 17  2  0  0  0
 16 21  1  0  0  0
 16 31  1  0  0  0
 17 18  1  0  0  0
 17100  1  0  0  0
 18 19  2  0  0  0
 18101  1  0  0  0
 19 20  1  0  0  0
 19 24  1  0  0  0
 20 21  2  0  0  0
 20102  1  0  0  0
 21 23  1  0  0  0
 22 28  1  0  0  0
 22 32  2  0  0  0
 26 27  1  0  0  0
 28103  1  0  0  0
 28104  1  0  0  0
 29105  1  0  0  0
 29106  1  0  0  0
 33 34  1  0  0  0
 33 66  1  0  0  0
 33 70  2  0  0  0
 34 36  1  0  0  0
 34 59  1  0  0  0
 34107  1  0  0  0
 35 44  2  0  0  0
 35 45  1  0  0  0
 35 68  1  0  0  0
 36 56  1  0  0  0
 36108  1  0  0  0
 37 39  1  0  0  0
 37 47  1  0  0  0
 37 66  1  0  0  0
 37109  1  0  0  0
 38 43  2  0  0  0
 38 46  1  0  0  0
 38 47  1  0  0  0
 39 64  1  0  0  0
 39 67  2  0  0  0
 40 52  1  0  0  0
 40 53  2  0  0  0
 40 58  1  0  0  0
 41110  1  0  0  0
 41111  1  0  0  0
 41112  1  0  0  0
 41 48  1  0  0  0
 42 43  1  0  0  0
 42 66  1  0  0  0
 42113  1  0  0  0
 42114  1  0  0  0
 43 44  1  0  0  0
 44115  1  0  0  0
 45 46  2  0  0  0
 45116  1  0  0  0
 46117  1  0  0  0
 47118  1  0  0  0
 47119  1  0  0  0
 48 56  1  0  0  0
 48 65  1  0  0  0
 48120  1  0  0  0
 49 50  1  0  0  0
 49 53  1  0  0  0
 49 64  1  0  0  0
 49121  1  0  0  0
 50 51  1  0  0  0
 50122  1  0  0  0
 50123  1  0  0  0
 51 52  1  0  0  0
 51124  1  0  0  0
 51125  1  0  0  0
 52126  1  0  0  0
 52127  1  0  0  0
 53 54  1  0  0  0
 54 55  2  0  0  0
 54128  1  0  0  0
 55 57  1  0  0  0
 55129  1  0  0  0
 56 69  2  0  0  0
 57 58  2  0  0  0
 57130  1  0  0  0
 58131  1  0  0  0
 59 60  1  0  0  0
 59 61  1  0  0  0
 59 62  1  0  0  0
 60132  1  0  0  0
 60133  1  0  0  0
 60134  1  0  0  0
 61135  1  0  0  0
 61136  1  0  0  0
 61137  1  0  0  0
 62138  1  0  0  0
 62139  1  0  0  0
 62140  1  0  0  0
 63 65  1  0  0  0
 63141  1  0  0  0
 63142  1  0  0  0
 63143  1  0  0  0
 64144  1  0  0  0
 65145  1  0  0  0
 68 80  1  0  0  0
 71146  1  0  0  0
 71147  1  0  0  0
 71148  1  0  0  0
 71 81  1  0  0  0
 72149  1  0  0  0
 72150  1  0  0  0
 72151  1  0  0  0
 72 82  1  0  0  0
 73152  1  0  0  0
 73153  1  0  0  0
 73154  1  0  0  0
 73 83  1  0  0  0
 74155  1  0  0  0
 74156  1  0  0  0
 74157  1  0  0  0
 74 84  1  0  0  0
 75158  1  0  0  0
 75159  1  0  0  0
 75160  1  0  0  0
 75 85  1  0  0  0
 76 85  1  0  0  0
 76161  1  0  0  0
 76162  1  0  0  0
 77 78  1  0  0  0
 77 81  1  0  0  0
 77163  1  0  0  0
 77164  1  0  0  0
 78 82  1  0  0  0
 78165  1  0  0  0
 78166  1  0  0  0
 79 83  1  0  0  0
 79 86  1  0  0  0
 79167  1  0  0  0
 79168  1  0  0  0
 80 81  1  0  0  0
 80169  1  0  0  0
 80170  1  0  0  0
 81171  1  0  0  0
 82 84  1  0  0  0
 82172  1  0  0  0
 83 84  1  0  0  0
 83173  1  0  0  0
 84174  1  0  0  0
 85 86  1  0  0  0
 85175  1  0  0  0
 86176  1  0  0  0
 86177  1  0  0  0
M  CHG  1  86   1
M  ISO  4   1 100  68 101  76 100  80 101
M  END
> <chiral flag>
0

> <version>
0

> <s_m_source_file>
/data/baiqing/PycharmProjects/Reinvent-master-3.2/result/LINK_invent/BTK/process_docking_weight1_custom_sum_contain_oxygen_bond_distance_aromatic_linkinvent_7_9_3/rearranged_h_0089.sdf

> <i_m_source_file_index>
68

> <r_mmod_Potential_Energy-OPLS-2005>
-125.931411743164

> <r_mmod_Stretch_Energy-OPLS-2005>
39.0816650390625

> <r_mmod_Bend_Energy-OPLS-2005>
112.99942779541

> <r_mmod_Torsional_Energy-OPLS-2005>
225.728271484375

> <r_mmod_Improper_Torsional_Energy-OPLS-2005>
2.1329243183136

> <r_mmod_Van_der_Waal_Energy-OPLS-2005>
140.549850463867

> <r_mmod_Electrostatic_Energy-OPLS-2005>
-230.420593261719

> <r_mmod_Solvation_Energy-OPLS-2005>
-424.156311035156

> <b_mmod_Minimization_Converged-OPLS-2005>
0

> <r_mmod_RMS_Derivative-OPLS-2005>
2.44809103012085

$$$$
69
                    3D
 Structure written by MMmdl.
174182  0  0  1  0            999 V2000
  -30.6923  -14.5038   20.5664 C   0  0  0  0  0  0
  -30.4241  -12.3294   19.4244 C   0  0  0  0  0  0
  -29.4984  -12.5103   18.2056 C   0  0  0  0  0  0
  -28.0197  -12.3669   18.6168 C   0  0  0  0  0  0
  -27.6592  -13.2104   19.8696 C   0  0  2  0  0  0
  -28.7009  -13.0096   20.9923 C   0  0  0  0  0  0
  -25.2585  -13.8172   20.5672 C   0  0  0  0  0  0
  -24.1839  -13.0444   20.9160 C   0  0  0  0  0  0
  -24.6396  -11.6907   20.8715 C   0  0  0  0  0  0
  -23.9063  -10.4292   21.0390 C   0  0  0  0  0  0
  -24.3614   -9.4214   21.9174 C   0  0  0  0  0  0
  -23.6291   -8.2251   22.0760 C   0  0  0  0  0  0
  -22.4274   -8.0283   21.3551 C   0  0  0  0  0  0
  -21.9903   -9.0252   20.4651 C   0  0  0  0  0  0
  -22.7226  -10.2129   20.3056 C   0  0  0  0  0  0
  -21.6859   -6.0733   22.5278 C   0  0  0  0  0  0
  -21.4008   -6.5633   23.8207 C   0  0  0  0  0  0
  -21.3668   -5.6787   24.9172 C   0  0  0  0  0  0
  -21.6054   -4.3052   24.7226 C   0  0  0  0  0  0
  -21.8821   -3.8145   23.4346 C   0  0  0  0  0  0
  -21.9202   -4.6965   22.3401 C   0  0  0  0  0  0
  -22.7866  -13.5237   21.1821 C   0  0  0  0  0  0
  -22.1670   -4.2147   21.0983 F   0  0  0  0  0  0
  -21.5631   -3.4540   25.7740 F   0  0  0  0  0  0
  -30.0267  -13.3230   20.4345 N   0  0  0  0  0  0
  -26.3016  -12.9338   20.3336 N   0  0  0  0  0  0
  -25.9325  -11.6496   20.5744 N   0  0  0  0  0  0
  -22.0519  -12.8229   22.0389 N   0  0  0  0  0  0
  -25.4329  -15.1891   20.4077 N   0  0  0  0  0  0
  -31.8261  -14.6794   20.1132 O   0  0  0  0  0  0
  -21.6649   -6.8872   21.4238 O   0  0  0  0  0  0
  -22.3547  -14.5543   20.6678 O   0  0  0  0  0  0
  -24.6208  -31.8660   23.2096 C   0  0  0  0  0  0
  -25.9084  -32.4808   23.8402 C   0  0  1  0  0  0
  -27.2206  -27.3859   20.0886 C   0  0  0  0  0  0
  -25.5922  -33.8608   24.2324 N   0  0  0  0  0  0
  -23.4092  -30.4943   21.5523 C   0  0  2  0  0  0
  -24.8501  -28.9632   20.1132 C   0  0  0  0  0  0
  -22.7438  -29.4660   22.4969 C   0  0  0  0  0  0
  -18.0278  -28.1383   22.8489 C   0  0  0  0  0  0
  -24.1483  -36.7316   23.2637 C   0  0  0  0  0  0
  -25.9470  -30.8156   21.3721 C   0  0  0  0  0  0
  -26.0191  -29.4506   20.7107 C   0  0  0  0  0  0
  -27.2080  -28.6734   20.6907 C   0  0  0  0  0  0
  -26.0224  -26.9349   19.4805 C   0  0  0  0  0  0
  -24.8496  -27.7067   19.4934 C   0  0  0  0  0  0
  -23.6179  -29.8376   20.1648 C   0  0  0  0  0  0
  -25.4104  -36.3103   24.0336 C   0  0  1  0  0  0
  -20.5874  -28.3676   23.1297 C   0  0  2  0  0  0
  -20.6769  -26.9408   22.5405 C   0  0  0  0  0  0
  -19.5742  -26.6386   21.5208 C   0  0  0  0  0  0
  -18.1922  -26.7928   22.1625 C   0  0  0  0  0  0
  -19.1530  -28.8845   23.2893 C   0  0  0  0  0  0
  -18.9454  -30.1452   23.8907 C   0  0  0  0  0  0
  -17.6456  -30.6586   24.0563 C   0  0  0  0  0  0
  -25.9043  -34.9467   23.5128 C   0  0  0  0  0  0
  -16.5347  -29.9088   23.6324 C   0  0  0  0  0  0
  -16.7269  -28.6504   23.0346 C   0  0  0  0  0  0
  -26.4486  -31.6601   25.0755 C   0  0  0  0  0  0
  -25.3744  -31.3723   26.1498 C   0  0  0  0  0  0
  -27.0322  -30.3033   24.6181 C   0  0  0  0  0  0
  -27.6051  -32.4334   25.7518 C   0  0  0  0  0  0
  -27.5583  -37.1810   24.8460 C   0  0  0  0  0  0
  -21.4160  -29.3043   22.3700 N   0  0  0  0  0  0
  -26.4288  -37.3795   23.9413 N   0  0  0  0  0  0
  -24.6779  -31.0728   22.1020 N   0  0  0  0  0  0
  -23.4193  -28.8199   23.3019 O   0  0  0  0  0  0
  -28.3659  -26.5912   20.1146 O   0  0  0  0  0  0
  -26.5599  -34.8920   22.4687 O   0  0  0  0  0  0
  -23.5390  -32.1428   23.7466 O   0  0  0  0  0  0
  -29.6205  -20.5928   20.7506 C   0  0  0  0  0  0
  -31.8081  -19.6164   21.0890 C   0  0  0  0  0  0
  -30.4503  -19.4396   20.7673 C   0  0  0  0  0  0
  -30.1058  -21.8779   21.1356 C   0  0  0  0  0  0
  -32.3173  -20.8569   21.5298 C   0  0  0  0  0  0
  -31.4512  -21.9890   21.5976 C   0  0  0  0  0  0
  -31.8719  -23.2535   23.7588 C   0  0  0  0  0  0
  -30.1434  -17.6993   18.9455 C   0  0  0  0  0  0
  -34.6530  -21.3012   20.6821 C   0  0  0  0  0  0
  -34.3516  -19.6764   22.6008 C   0  0  0  0  0  0
  -29.1334  -23.0862   21.1300 C   0  0  0  0  0  0
  -31.9549  -23.2914   22.2274 C   0  0  0  0  0  0
  -29.3870  -24.2199   20.0765 C   0  0  0  0  0  0
  -30.4802  -16.8958   21.3672 C   0  0  0  0  0  0
  -28.1799  -25.1764   19.8374 C   0  0  0  0  0  0
  -29.9152  -18.0242   20.4294 C   0  0  1  0  0  0
  -33.8056  -20.9405   21.9099 C   0  0  0  0  0  0
  -29.9917  -15.5207   21.1131 N   0  0  0  0  0  0
  -31.4683  -12.4349   19.1241 H   0  0  0  0  0  0
  -30.3303  -11.3211   19.8323 H   0  0  0  0  0  0
  -29.7469  -11.7798   17.4341 H   0  0  0  0  0  0
  -29.6642  -13.4930   17.7598 H   0  0  0  0  0  0
  -27.8354  -11.3105   18.8154 H   0  0  0  0  0  0
  -27.3709  -12.6349   17.7828 H   0  0  0  0  0  0
  -27.6983  -14.2562   19.5644 H   0  0  0  0  0  0
  -28.6868  -11.9779   21.3461 H   0  0  0  0  0  0
  -28.4571  -13.6203   21.8624 H   0  0  0  0  0  0
  -25.2769   -9.5692   22.4735 H   0  0  0  0  0  0
  -24.0021   -7.4644   22.7468 H   0  0  0  0  0  0
  -21.0844   -8.8752   19.8944 H   0  0  0  0  0  0
  -22.3683  -10.9663   19.6161 H   0  0  0  0  0  0
  -21.1982   -7.6139   23.9693 H   0  0  0  0  0  0
  -21.1492   -6.0527   25.9063 H   0  0  0  0  0  0
  -22.0596   -2.7614   23.2846 H   0  0  0  0  0  0
  -22.4152  -11.9904   22.4788 H   0  0  0  0  0  0
  -21.1135  -13.1236   22.2587 H   0  0  0  0  0  0
  -24.6696  -15.8486   20.5132 H   0  0  0  0  0  0
  -26.2907  -15.6238   20.0909 H   0  0  0  0  0  0
  -26.7158  -32.5497   23.1162 H   0  0  0  0  0  0
  -25.0069  -33.9766   25.0467 H   0  0  0  0  0  0
  -22.7014  -31.3148   21.4173 H   0  0  0  0  0  0
  -23.3741  -35.9653   23.3292 H   0  0  0  0  0  0
  -24.3578  -36.8940   22.2053 H   0  0  0  0  0  0
  -23.7233  -37.6520   23.6655 H   0  0  0  0  0  0
  -26.0748  -31.5849   20.6089 H   0  0  0  0  0  0
  -26.8287  -30.8571   21.9998 H   0  0  0  0  0  0
  -28.1091  -29.0469   21.1574 H   0  0  0  0  0  0
  -25.9516  -25.9778   18.9872 H   0  0  0  0  0  0
  -23.9525  -27.3252   19.0247 H   0  0  0  0  0  0
  -23.7346  -30.6176   19.4117 H   0  0  0  0  0  0
  -22.7380  -29.2685   19.8606 H   0  0  0  0  0  0
  -25.1274  -36.1969   25.0829 H   0  0  0  0  0  0
  -20.9972  -28.3239   24.1416 H   0  0  0  0  0  0
  -20.5665  -26.2288   23.3596 H   0  0  0  0  0  0
  -21.6639  -26.7440   22.1201 H   0  0  0  0  0  0
  -19.6901  -25.6295   21.1240 H   0  0  0  0  0  0
  -19.6677  -27.3195   20.6734 H   0  0  0  0  0  0
  -17.4188  -26.6669   21.4030 H   0  0  0  0  0  0
  -18.0330  -26.0070   22.9022 H   0  0  0  0  0  0
  -19.7931  -30.7264   24.2283 H   0  0  0  0  0  0
  -17.5009  -31.6266   24.5165 H   0  0  0  0  0  0
  -15.5349  -30.2995   23.7637 H   0  0  0  0  0  0
  -15.8668  -28.0828   22.7056 H   0  0  0  0  0  0
  -24.5907  -30.7078   25.7840 H   0  0  0  0  0  0
  -24.8949  -32.2885   26.4960 H   0  0  0  0  0  0
  -25.8094  -30.8884   27.0254 H   0  0  0  0  0  0
  -26.2888  -29.6795   24.1204 H   0  0  0  0  0  0
  -27.4022  -29.7272   25.4674 H   0  0  0  0  0  0
  -27.8757  -30.4317   23.9394 H   0  0  0  0  0  0
  -27.2655  -33.3616   26.2124 H   0  0  0  0  0  0
  -28.3845  -32.6930   25.0344 H   0  0  0  0  0  0
  -28.0742  -31.8454   26.5416 H   0  0  0  0  0  0
  -28.2591  -38.0117   24.7525 H   0  0  0  0  0  0
  -28.1088  -36.2652   24.6255 H   0  0  0  0  0  0
  -27.2310  -37.1425   25.8866 H   0  0  0  0  0  0
  -20.9325  -29.8783   21.6934 H   0  0  0  0  0  0
  -26.0175  -38.2872   24.1423 H   0  0  0  0  0  0
  -28.5858  -20.4804   20.4584 H   0  0  0  0  0  0
  -32.4707  -18.7705   21.0185 H   0  0  0  0  0  0
  -32.2557  -24.1801   24.1872 H   0  0  0  0  0  0
  -32.4447  -22.4299   24.1844 H   0  0  0  0  0  0
  -30.8399  -23.1357   24.0887 H   0  0  0  0  0  0
  -29.7122  -18.4669   18.3025 H   0  0  0  0  0  0
  -29.6785  -16.7521   18.6693 H   0  0  0  0  0  0
  -31.2068  -17.6263   18.7169 H   0  0  0  0  0  0
  -34.3324  -22.2485   20.2477 H   0  0  0  0  0  0
  -34.5752  -20.5373   19.9077 H   0  0  0  0  0  0
  -35.7060  -21.4026   20.9465 H   0  0  0  0  0  0
  -33.7326  -19.3897   23.4513 H   0  0  0  0  0  0
  -35.3586  -19.8525   22.9789 H   0  0  0  0  0  0
  -34.4182  -18.8231   21.9266 H   0  0  0  0  0  0
  -29.0993  -23.5209   22.1294 H   0  0  0  0  0  0
  -28.1301  -22.6908   20.9687 H   0  0  0  0  0  0
  -31.3887  -24.1537   21.9024 H   0  0  0  0  0  0
  -32.9702  -23.5096   21.8996 H   0  0  0  0  0  0
  -29.6057  -23.7315   19.1264 H   0  0  0  0  0  0
  -30.2719  -24.8136   20.2894 H   0  0  0  0  0  0
  -30.2273  -17.1418   22.3994 H   0  0  0  0  0  0
  -31.5691  -16.8791   21.3323 H   0  0  0  0  0  0
  -27.3326  -24.8076   20.4177 H   0  0  0  0  0  0
  -27.9046  -25.0746   18.7867 H   0  0  0  0  0  0
  -28.8364  -18.0580   20.5853 H   0  0  0  0  0  0
  -33.9473  -21.7254   22.6485 H   0  0  0  0  0  0
  -29.0626  -15.2993   21.4382 H   0  0  0  0  0  0
  1 25  1  0  0  0
  1 30  2  0  0  0
  1 88  1  0  0  0
  2  3  1  0  0  0
  2 25  1  0  0  0
  2 89  1  0  0  0
  2 90  1  0  0  0
  3  4  1  0  0  0
  3 91  1  0  0  0
  3 92  1  0  0  0
  4  5  1  0  0  0
  4 93  1  0  0  0
  4 94  1  0  0  0
  5  6  1  0  0  0
  5 26  1  0  0  0
  5 95  1  0  0  0
  6 25  1  0  0  0
  6 96  1  0  0  0
  6 97  1  0  0  0
  7  8  2  0  0  0
  7 26  1  0  0  0
  7 29  1  0  0  0
  8  9  1  0  0  0
  8 22  1  0  0  0
  9 10  1  0  0  0
  9 27  2  0  0  0
 10 11  2  0  0  0
 10 15  1  0  0  0
 11 12  1  0  0  0
 11 98  1  0  0  0
 12 13  2  0  0  0
 12 99  1  0  0  0
 13 14  1  0  0  0
 13 31  1  0  0  0
 14 15  2  0  0  0
 14100  1  0  0  0
 15101  1  0  0  0
 16 17  2  0  0  0
 16 21  1  0  0  0
 16 31  1  0  0  0
 17 18  1  0  0  0
 17102  1  0  0  0
 18 19  2  0  0  0
 18103  1  0  0  0
 19 20  1  0  0  0
 19 24  1  0  0  0
 20 21  2  0  0  0
 20104  1  0  0  0
 21 23  1  0  0  0
 22 28  1  0  0  0
 22 32  2  0  0  0
 26 27  1  0  0  0
 28105  1  0  0  0
 28106  1  0  0  0
 29107  1  0  0  0
 29108  1  0  0  0
 33 34  1  0  0  0
 33 66  1  0  0  0
 33 70  2  0  0  0
 34 36  1  0  0  0
 34 59  1  0  0  0
 34109  1  0  0  0
 35 44  2  0  0  0
 35 45  1  0  0  0
 35 68  1  0  0  0
 36 56  1  0  0  0
 36110  1  0  0  0
 37 39  1  0  0  0
 37 47  1  0  0  0
 37 66  1  0  0  0
 37111  1  0  0  0
 38 43  2  0  0  0
 38 46  1  0  0  0
 38 47  1  0  0  0
 39 64  1  0  0  0
 39 67  2  0  0  0
 40 52  1  0  0  0
 40 53  2  0  0  0
 40 58  1  0  0  0
 41112  1  0  0  0
 41113  1  0  0  0
 41114  1  0  0  0
 41 48  1  0  0  0
 42 43  1  0  0  0
 42 66  1  0  0  0
 42115  1  0  0  0
 42116  1  0  0  0
 43 44  1  0  0  0
 44117  1  0  0  0
 45 46  2  0  0  0
 45118  1  0  0  0
 46119  1  0  0  0
 47120  1  0  0  0
 47121  1  0  0  0
 48 56  1  0  0  0
 48 65  1  0  0  0
 48122  1  0  0  0
 49 50  1  0  0  0
 49 53  1  0  0  0
 49 64  1  0  0  0
 49123  1  0  0  0
 50 51  1  0  0  0
 50124  1  0  0  0
 50125  1  0  0  0
 51 52  1  0  0  0
 51126  1  0  0  0
 51127  1  0  0  0
 52128  1  0  0  0
 52129  1  0  0  0
 53 54  1  0  0  0
 54 55  2  0  0  0
 54130  1  0  0  0
 55 57  1  0  0  0
 55131  1  0  0  0
 56 69  2  0  0  0
 57 58  2  0  0  0
 57132  1  0  0  0
 58133  1  0  0  0
 59 60  1  0  0  0
 59 61  1  0  0  0
 59 62  1  0  0  0
 60134  1  0  0  0
 60135  1  0  0  0
 60136  1  0  0  0
 61137  1  0  0  0
 61138  1  0  0  0
 61139  1  0  0  0
 62140  1  0  0  0
 62141  1  0  0  0
 62142  1  0  0  0
 63 65  1  0  0  0
 63143  1  0  0  0
 63144  1  0  0  0
 63145  1  0  0  0
 64146  1  0  0  0
 65147  1  0  0  0
 68 85  1  0  0  0
 71 73  2  0  0  0
 71 74  1  0  0  0
 71148  1  0  0  0
 72 73  1  0  0  0
 72 75  2  0  0  0
 72149  1  0  0  0
 73 86  1  0  0  0
 74 76  2  0  0  0
 74 81  1  0  0  0
 75 76  1  0  0  0
 75 87  1  0  0  0
 76 82  1  0  0  0
 77 82  1  0  0  0
 77150  1  0  0  0
 77151  1  0  0  0
 77152  1  0  0  0
 78153  1  0  0  0
 78154  1  0  0  0
 78155  1  0  0  0
 78 86  1  0  0  0
 79156  1  0  0  0
 79157  1  0  0  0
 79158  1  0  0  0
 79 87  1  0  0  0
 80 87  1  0  0  0
 80159  1  0  0  0
 80160  1  0  0  0
 80161  1  0  0  0
 81 83  1  0  0  0
 81162  1  0  0  0
 81163  1  0  0  0
 82164  1  0  0  0
 82165  1  0  0  0
 83 85  1  0  0  0
 83166  1  0  0  0
 83167  1  0  0  0
 84 86  1  0  0  0
 84 88  1  0  0  0
 84168  1  0  0  0
 84169  1  0  0  0
 85170  1  0  0  0
 85171  1  0  0  0
 86172  1  0  0  0
 87173  1  0  0  0
 88174  1  0  0  0
M  ISO  4   1 100  68 101  85 101  88 100
M  END
> <chiral flag>
0

> <version>
0

> <s_m_source_file>
/data/baiqing/PycharmProjects/Reinvent-master-3.2/result/LINK_invent/BTK/process_docking_weight1_custom_sum_contain_oxygen_bond_distance_aromatic_linkinvent_7_9_3/rearranged_h_0089.sdf

> <i_m_source_file_index>
69

> <r_mmod_Potential_Energy-OPLS-2005>
-76.0074081420898

> <r_mmod_Stretch_Energy-OPLS-2005>
53.6237678527832

> <r_mmod_Bend_Energy-OPLS-2005>
110.49201965332

> <r_mmod_Torsional_Energy-OPLS-2005>
215.409973144531

> <r_mmod_Improper_Torsional_Energy-OPLS-2005>
3.09313559532166

> <r_mmod_Van_der_Waal_Energy-OPLS-2005>
166.037567138672

> <r_mmod_Electrostatic_Energy-OPLS-2005>
-447.011383056641

> <r_mmod_Solvation_Energy-OPLS-2005>
-198.002258300781

> <b_mmod_Minimization_Converged-OPLS-2005>
0

> <r_mmod_RMS_Derivative-OPLS-2005>
1.72734189033508

$$$$
70
                    3D
 Structure written by MMmdl.
160168  0  0  1  0            999 V2000
  -30.6974  -14.4694   20.4227 C   0  0  0  0  0  0
  -30.4098  -12.2724   19.4132 C   0  0  0  0  0  0
  -29.4822  -12.4509   18.1938 C   0  0  0  0  0  0
  -28.0064  -12.3201   18.6211 C   0  0  0  0  0  0
  -27.6479  -13.1997   19.8485 C   0  0  2  0  0  0
  -28.7019  -13.0514   20.9713 C   0  0  0  0  0  0
  -25.2525  -13.8160   20.5654 C   0  0  0  0  0  0
  -24.1802  -13.0429   20.9204 C   0  0  0  0  0  0
  -24.6372  -11.6899   20.8762 C   0  0  0  0  0  0
  -23.9051  -10.4289   21.0430 C   0  0  0  0  0  0
  -24.3605   -9.4193   21.9195 C   0  0  0  0  0  0
  -23.6281   -8.2225   22.0751 C   0  0  0  0  0  0
  -22.4256   -8.0278   21.3545 C   0  0  0  0  0  0
  -21.9907   -9.0256   20.4635 C   0  0  0  0  0  0
  -22.7243  -10.2132   20.3054 C   0  0  0  0  0  0
  -21.6844   -6.0730   22.5277 C   0  0  0  0  0  0
  -21.4004   -6.5625   23.8214 C   0  0  0  0  0  0
  -21.3649   -5.6775   24.9173 C   0  0  0  0  0  0
  -21.6053   -4.3041   24.7223 C   0  0  0  0  0  0
  -21.8820   -3.8133   23.4340 C   0  0  0  0  0  0
  -21.9193   -4.6956   22.3396 C   0  0  0  0  0  0
  -22.7819  -13.5220   21.1892 C   0  0  0  0  0  0
  -22.1661   -4.2133   21.0977 F   0  0  0  0  0  0
  -21.5628   -3.4527   25.7738 F   0  0  0  0  0  0
  -30.0246  -13.2964   20.3887 N   0  0  0  0  0  0
  -26.2949  -12.9315   20.3273 N   0  0  0  0  0  0
  -25.9286  -11.6483   20.5772 N   0  0  0  0  0  0
  -22.0451  -12.8204   22.0442 N   0  0  0  0  0  0
  -25.4229  -15.1878   20.4029 N   0  0  0  0  0  0
  -31.9117  -14.5561   20.2687 O   0  0  0  0  0  0
  -21.6620   -6.8872   21.4239 O   0  0  0  0  0  0
  -22.3503  -14.5536   20.6750 O   0  0  0  0  0  0
  -24.6124  -31.8710   23.2118 C   0  0  0  0  0  0
  -25.9015  -32.4852   23.8421 C   0  0  1  0  0  0
  -27.2133  -27.4509   20.0830 C   0  0  0  0  0  0
  -25.5883  -33.8649   24.2349 N   0  0  0  0  0  0
  -23.3985  -30.4939   21.5550 C   0  0  2  0  0  0
  -24.8405  -28.9657   20.1088 C   0  0  0  0  0  0
  -22.7369  -29.4674   22.5021 C   0  0  0  0  0  0
  -18.0250  -28.1355   22.8446 C   0  0  0  0  0  0
  -24.1486  -36.7337   23.2637 C   0  0  0  0  0  0
  -25.9247  -30.8397   21.3618 C   0  0  0  0  0  0
  -26.0010  -29.4779   20.7042 C   0  0  0  0  0  0
  -27.1965  -28.7268   20.6876 C   0  0  0  0  0  0
  -26.0430  -26.9492   19.4828 C   0  0  0  0  0  0
  -24.8538  -27.7004   19.4975 C   0  0  0  0  0  0
  -23.6035  -29.8315   20.1674 C   0  0  0  0  0  0
  -25.4102  -36.3140   24.0345 C   0  0  1  0  0  0
  -20.5859  -28.3659   23.1324 C   0  0  2  0  0  0
  -20.6754  -26.9412   22.5391 C   0  0  0  0  0  0
  -19.5722  -26.6427   21.5155 C   0  0  0  0  0  0
  -18.1890  -26.7909   22.1546 C   0  0  0  0  0  0
  -19.1500  -28.8798   23.2892 C   0  0  0  0  0  0
  -18.9436  -30.1382   23.8949 C   0  0  0  0  0  0
  -17.6440  -30.6544   24.0569 C   0  0  0  0  0  0
  -25.9034  -34.9499   23.5150 C   0  0  0  0  0  0
  -16.5329  -29.9052   23.6323 C   0  0  0  0  0  0
  -16.7248  -28.6489   23.0316 C   0  0  0  0  0  0
  -26.4437  -31.6622   25.0729 C   0  0  0  0  0  0
  -25.3707  -31.3724   26.1489 C   0  0  0  0  0  0
  -27.0259  -30.3065   24.6079 C   0  0  0  0  0  0
  -27.6012  -32.4344   25.7498 C   0  0  0  0  0  0
  -27.5586  -37.1827   24.8464 C   0  0  0  0  0  0
  -21.4096  -29.3091   22.3780 N   0  0  0  0  0  0
  -26.4308  -37.3810   23.9403 N   0  0  0  0  0  0
  -24.6644  -31.0826   22.1020 N   0  0  0  0  0  0
  -23.4156  -28.8182   23.3016 O   0  0  0  0  0  0
  -28.3428  -26.6743   20.1104 O   0  0  0  0  0  0
  -26.5598  -34.8937   22.4720 O   0  0  0  0  0  0
  -23.5314  -32.1433   23.7515 O   0  0  0  0  0  0
  -28.5160  -19.6066   20.4232 C   0  0  0  0  0  0
  -26.4505  -20.8368   20.4466 C   0  0  0  0  0  0
  -27.8165  -20.7744   20.7971 C   0  0  0  0  0  0
  -27.8146  -18.5908   19.7470 C   0  0  0  0  0  0
  -29.5829  -17.7502   18.1663 C   0  0  0  0  0  0
  -28.5559  -21.8423   21.5969 C   0  0  0  0  0  0
  -27.9009  -23.2318   21.7847 C   0  0  0  0  0  0
  -28.0897  -24.2363   20.6225 C   0  0  0  0  0  0
  -29.1145  -16.4451   20.3708 C   0  0  0  0  0  0
  -28.2931  -25.6796   21.1420 C   0  0  0  0  0  0
  -28.5403  -17.3444   19.2338 C   0  0  1  0  0  0
  -25.8247  -19.8236   19.7932 N   0  0  0  0  0  0
  -26.4958  -18.7155   19.4464 N   0  0  0  0  0  0
  -30.0179  -15.4422   19.8076 N   0  0  0  0  0  0
  -31.4552  -12.3543   19.1085 H   0  0  0  0  0  0
  -30.2964  -11.2763   19.8420 H   0  0  0  0  0  0
  -29.7143  -11.7039   17.4335 H   0  0  0  0  0  0
  -29.6517  -13.4223   17.7251 H   0  0  0  0  0  0
  -27.8371  -11.2708   18.8638 H   0  0  0  0  0  0
  -27.3466  -12.5469   17.7836 H   0  0  0  0  0  0
  -27.6652  -14.2270   19.4915 H   0  0  0  0  0  0
  -28.6689  -12.0461   21.3913 H   0  0  0  0  0  0
  -28.5072  -13.7430   21.7923 H   0  0  0  0  0  0
  -25.2754   -9.5631   22.4771 H   0  0  0  0  0  0
  -23.9979   -7.4585   22.7440 H   0  0  0  0  0  0
  -21.0850   -8.8772   19.8920 H   0  0  0  0  0  0
  -22.3726  -10.9665   19.6135 H   0  0  0  0  0  0
  -21.1985   -7.6127   23.9722 H   0  0  0  0  0  0
  -21.1478   -6.0498   25.9084 H   0  0  0  0  0  0
  -22.0616   -2.7597   23.2852 H   0  0  0  0  0  0
  -22.4069  -11.9876   22.4831 H   0  0  0  0  0  0
  -21.1046  -13.1192   22.2612 H   0  0  0  0  0  0
  -24.6631  -15.8518   20.5116 H   0  0  0  0  0  0
  -26.2755  -15.6207   20.0760 H   0  0  0  0  0  0
  -26.7075  -32.5563   23.1198 H   0  0  0  0  0  0
  -25.0015  -33.9819   25.0473 H   0  0  0  0  0  0
  -22.6846  -31.3095   21.4207 H   0  0  0  0  0  0
  -23.3753  -35.9675   23.3326 H   0  0  0  0  0  0
  -24.3565  -36.8913   22.2046 H   0  0  0  0  0  0
  -23.7224  -37.6543   23.6630 H   0  0  0  0  0  0
  -26.0330  -31.6068   20.5942 H   0  0  0  0  0  0
  -26.8162  -30.8935   21.9777 H   0  0  0  0  0  0
  -28.0941  -29.1108   21.1499 H   0  0  0  0  0  0
  -26.0474  -25.9773   19.0105 H   0  0  0  0  0  0
  -23.9598  -27.2983   19.0406 H   0  0  0  0  0  0
  -23.7114  -30.6092   19.4095 H   0  0  0  0  0  0
  -22.7283  -29.2523   19.8713 H   0  0  0  0  0  0
  -25.1277  -36.2042   25.0834 H   0  0  0  0  0  0
  -20.9918  -28.3198   24.1469 H   0  0  0  0  0  0
  -20.5727  -26.2211   23.3538 H   0  0  0  0  0  0
  -21.6615  -26.7492   22.1125 H   0  0  0  0  0  0
  -19.6913  -25.6341   21.1196 H   0  0  0  0  0  0
  -19.6664  -27.3249   20.6682 H   0  0  0  0  0  0
  -17.4182  -26.6681   21.3913 H   0  0  0  0  0  0
  -18.0299  -26.0002   22.8909 H   0  0  0  0  0  0
  -19.7947  -30.7164   24.2336 H   0  0  0  0  0  0
  -17.4967  -31.6247   24.5126 H   0  0  0  0  0  0
  -15.5319  -30.2946   23.7592 H   0  0  0  0  0  0
  -15.8639  -28.0868   22.6974 H   0  0  0  0  0  0
  -24.5867  -30.7086   25.7826 H   0  0  0  0  0  0
  -24.8923  -32.2881   26.4978 H   0  0  0  0  0  0
  -25.8066  -30.8856   27.0223 H   0  0  0  0  0  0
  -26.2790  -29.6863   24.1109 H   0  0  0  0  0  0
  -27.3990  -29.7262   25.4528 H   0  0  0  0  0  0
  -27.8651  -30.4388   23.9243 H   0  0  0  0  0  0
  -27.2624  -33.3622   26.2134 H   0  0  0  0  0  0
  -28.3813  -32.6950   25.0330 H   0  0  0  0  0  0
  -28.0717  -31.8437   26.5372 H   0  0  0  0  0  0
  -28.2629  -38.0101   24.7503 H   0  0  0  0  0  0
  -28.1051  -36.2635   24.6326 H   0  0  0  0  0  0
  -27.2294  -37.1526   25.8860 H   0  0  0  0  0  0
  -20.9274  -29.8909   21.7064 H   0  0  0  0  0  0
  -26.0217  -38.2895   24.1397 H   0  0  0  0  0  0
  -29.5687  -19.5009   20.6410 H   0  0  0  0  0  0
  -25.8326  -21.6878   20.6926 H   0  0  0  0  0  0
  -29.1159  -18.3355   17.3737 H   0  0  0  0  0  0
  -30.0395  -16.8869   17.6827 H   0  0  0  0  0  0
  -30.3857  -18.3533   18.5908 H   0  0  0  0  0  0
  -29.5525  -21.9668   21.1719 H   0  0  0  0  0  0
  -28.7188  -21.4087   22.5873 H   0  0  0  0  0  0
  -28.3892  -23.6607   22.6599 H   0  0  0  0  0  0
  -26.8527  -23.1553   22.0804 H   0  0  0  0  0  0
  -27.2232  -24.1779   19.9641 H   0  0  0  0  0  0
  -28.9563  -23.9681   20.0165 H   0  0  0  0  0  0
  -29.6840  -17.0519   21.0744 H   0  0  0  0  0  0
  -28.3051  -15.9778   20.9301 H   0  0  0  0  0  0
  -29.2412  -25.7314   21.6765 H   0  0  0  0  0  0
  -27.5320  -25.9185   21.8892 H   0  0  0  0  0  0
  -27.8003  -16.7419   18.7028 H   0  0  0  0  0  0
  -30.6265  -15.8793   19.1323 H   0  0  0  0  0  0
  1 25  1  0  0  0
  1 30  2  0  0  0
  1 84  1  0  0  0
  2  3  1  0  0  0
  2 25  1  0  0  0
  2 85  1  0  0  0
  2 86  1  0  0  0
  3  4  1  0  0  0
  3 87  1  0  0  0
  3 88  1  0  0  0
  4  5  1  0  0  0
  4 89  1  0  0  0
  4 90  1  0  0  0
  5  6  1  0  0  0
  5 26  1  0  0  0
  5 91  1  0  0  0
  6 25  1  0  0  0
  6 92  1  0  0  0
  6 93  1  0  0  0
  7  8  2  0  0  0
  7 26  1  0  0  0
  7 29  1  0  0  0
  8  9  1  0  0  0
  8 22  1  0  0  0
  9 10  1  0  0  0
  9 27  2  0  0  0
 10 11  2  0  0  0
 10 15  1  0  0  0
 11 12  1  0  0  0
 11 94  1  0  0  0
 12 13  2  0  0  0
 12 95  1  0  0  0
 13 14  1  0  0  0
 13 31  1  0  0  0
 14 15  2  0  0  0
 14 96  1  0  0  0
 15 97  1  0  0  0
 16 17  2  0  0  0
 16 21  1  0  0  0
 16 31  1  0  0  0
 17 18  1  0  0  0
 17 98  1  0  0  0
 18 19  2  0  0  0
 18 99  1  0  0  0
 19 20  1  0  0  0
 19 24  1  0  0  0
 20 21  2  0  0  0
 20100  1  0  0  0
 21 23  1  0  0  0
 22 28  1  0  0  0
 22 32  2  0  0  0
 26 27  1  0  0  0
 28101  1  0  0  0
 28102  1  0  0  0
 29103  1  0  0  0
 29104  1  0  0  0
 33 34  1  0  0  0
 33 66  1  0  0  0
 33 70  2  0  0  0
 34 36  1  0  0  0
 34 59  1  0  0  0
 34105  1  0  0  0
 35 44  2  0  0  0
 35 45  1  0  0  0
 35 68  1  0  0  0
 36 56  1  0  0  0
 36106  1  0  0  0
 37 39  1  0  0  0
 37 47  1  0  0  0
 37 66  1  0  0  0
 37107  1  0  0  0
 38 43  2  0  0  0
 38 46  1  0  0  0
 38 47  1  0  0  0
 39 64  1  0  0  0
 39 67  2  0  0  0
 40 52  1  0  0  0
 40 53  2  0  0  0
 40 58  1  0  0  0
 41108  1  0  0  0
 41109  1  0  0  0
 41110  1  0  0  0
 41 48  1  0  0  0
 42 43  1  0  0  0
 42 66  1  0  0  0
 42111  1  0  0  0
 42112  1  0  0  0
 43 44  1  0  0  0
 44113  1  0  0  0
 45 46  2  0  0  0
 45114  1  0  0  0
 46115  1  0  0  0
 47116  1  0  0  0
 47117  1  0  0  0
 48 56  1  0  0  0
 48 65  1  0  0  0
 48118  1  0  0  0
 49 50  1  0  0  0
 49 53  1  0  0  0
 49 64  1  0  0  0
 49119  1  0  0  0
 50 51  1  0  0  0
 50120  1  0  0  0
 50121  1  0  0  0
 51 52  1  0  0  0
 51122  1  0  0  0
 51123  1  0  0  0
 52124  1  0  0  0
 52125  1  0  0  0
 53 54  1  0  0  0
 54 55  2  0  0  0
 54126  1  0  0  0
 55 57  1  0  0  0
 55127  1  0  0  0
 56 69  2  0  0  0
 57 58  2  0  0  0
 57128  1  0  0  0
 58129  1  0  0  0
 59 60  1  0  0  0
 59 61  1  0  0  0
 59 62  1  0  0  0
 60130  1  0  0  0
 60131  1  0  0  0
 60132  1  0  0  0
 61133  1  0  0  0
 61134  1  0  0  0
 61135  1  0  0  0
 62136  1  0  0  0
 62137  1  0  0  0
 62138  1  0  0  0
 63 65  1  0  0  0
 63139  1  0  0  0
 63140  1  0  0  0
 63141  1  0  0  0
 64142  1  0  0  0
 65143  1  0  0  0
 68 80  1  0  0  0
 71 73  2  0  0  0
 71 74  1  0  0  0
 71144  1  0  0  0
 72 73  1  0  0  0
 72 82  2  0  0  0
 72145  1  0  0  0
 73 76  1  0  0  0
 74 81  1  0  0  0
 74 83  2  0  0  0
 75146  1  0  0  0
 75147  1  0  0  0
 75148  1  0  0  0
 75 81  1  0  0  0
 76 77  1  0  0  0
 76149  1  0  0  0
 76150  1  0  0  0
 77 78  1  0  0  0
 77151  1  0  0  0
 77152  1  0  0  0
 78 80  1  0  0  0
 78153  1  0  0  0
 78154  1  0  0  0
 79 81  1  0  0  0
 79 84  1  0  0  0
 79155  1  0  0  0
 79156  1  0  0  0
 80157  1  0  0  0
 80158  1  0  0  0
 81159  1  0  0  0
 82 83  1  0  0  0
 84160  1  0  0  0
M  ISO  4   1 100  68 101  80 101  84 100
M  END
> <chiral flag>
0

> <version>
0

> <s_m_source_file>
/data/baiqing/PycharmProjects/Reinvent-master-3.2/result/LINK_invent/BTK/process_docking_weight1_custom_sum_contain_oxygen_bond_distance_aromatic_linkinvent_7_9_3/rearranged_h_0089.sdf

> <i_m_source_file_index>
70

> <r_mmod_Potential_Energy-OPLS-2005>
105.011047363281

> <r_mmod_Stretch_Energy-OPLS-2005>
34.617374420166

> <r_mmod_Bend_Energy-OPLS-2005>
120.008575439453

> <r_mmod_Torsional_Energy-OPLS-2005>
305.795074462891

> <r_mmod_Improper_Torsional_Energy-OPLS-2005>
36.1257629394531

> <r_mmod_Van_der_Waal_Energy-OPLS-2005>
142.633987426758

> <r_mmod_Electrostatic_Energy-OPLS-2005>
-341.846313476562

> <r_mmod_Solvation_Energy-OPLS-2005>
-220.068664550781

> <b_mmod_Minimization_Converged-OPLS-2005>
0

> <r_mmod_RMS_Derivative-OPLS-2005>
4.43646144866943

$$$$
71
                    3D
 Structure written by MMmdl.
158165  0  0  1  0            999 V2000
  -30.4609  -15.1837   20.3815 C   0  0  0  0  0  0
  -30.4379  -12.7493   19.5147 C   0  0  0  0  0  0
  -29.5289  -12.5604   18.2757 C   0  0  0  0  0  0
  -28.0721  -12.3029   18.7021 C   0  0  0  0  0  0
  -27.6135  -13.2686   19.8241 C   0  0  2  0  0  0
  -28.6527  -13.4073   20.9560 C   0  0  0  0  0  0
  -25.2399  -13.8213   20.5776 C   0  0  0  0  0  0
  -24.1751  -13.0410   20.9269 C   0  0  0  0  0  0
  -24.6394  -11.6905   20.8767 C   0  0  0  0  0  0
  -23.9097  -10.4275   21.0412 C   0  0  0  0  0  0
  -24.3639   -9.4191   21.9190 C   0  0  0  0  0  0
  -23.6309   -8.2237   22.0762 C   0  0  0  0  0  0
  -22.4291   -8.0287   21.3558 C   0  0  0  0  0  0
  -21.9929   -9.0256   20.4654 C   0  0  0  0  0  0
  -22.7264  -10.2130   20.3060 C   0  0  0  0  0  0
  -21.6853   -6.0746   22.5282 C   0  0  0  0  0  0
  -21.4014   -6.5647   23.8218 C   0  0  0  0  0  0
  -21.3654   -5.6802   24.9177 C   0  0  0  0  0  0
  -21.6047   -4.3064   24.7227 C   0  0  0  0  0  0
  -21.8820   -3.8155   23.4349 C   0  0  0  0  0  0
  -21.9189   -4.6974   22.3407 C   0  0  0  0  0  0
  -22.7762  -13.5170   21.1903 C   0  0  0  0  0  0
  -22.1653   -4.2158   21.0983 F   0  0  0  0  0  0
  -21.5629   -3.4546   25.7739 F   0  0  0  0  0  0
  -29.8933  -13.8883   20.3309 N   0  0  0  0  0  0
  -26.2827  -12.9490   20.3226 N   0  0  0  0  0  0
  -25.9333  -11.6597   20.5725 N   0  0  0  0  0  0
  -22.0418  -12.8168   22.0459 N   0  0  0  0  0  0
  -25.4002  -15.1945   20.4244 N   0  0  0  0  0  0
  -31.6846  -15.2036   20.1895 O   0  0  0  0  0  0
  -21.6647   -6.8889   21.4247 O   0  0  0  0  0  0
  -22.3447  -14.5469   20.6730 O   0  0  0  0  0  0
  -24.6576  -31.8291   23.1740 C   0  0  0  0  0  0
  -25.9279  -32.4620   23.8188 C   0  0  1  0  0  0
  -27.2203  -26.9734   20.1930 C   0  0  0  0  0  0
  -25.5964  -33.8433   24.2094 N   0  0  0  0  0  0
  -23.4691  -30.4412   21.5232 C   0  0  2  0  0  0
  -24.9210  -28.8281   20.1229 C   0  0  0  0  0  0
  -22.7635  -29.4473   22.4821 C   0  0  0  0  0  0
  -18.0326  -28.1402   22.8477 C   0  0  0  0  0  0
  -24.1487  -36.7216   23.2646 C   0  0  0  0  0  0
  -26.0348  -30.6518   21.3945 C   0  0  0  0  0  0
  -26.1051  -29.2426   20.7470 C   0  0  0  0  0  0
  -27.2540  -28.3383   20.7509 C   0  0  0  0  0  0
  -26.0054  -26.6931   19.5318 C   0  0  0  0  0  0
  -24.8923  -27.5711   19.4967 C   0  0  0  0  0  0
  -23.7072  -29.7534   20.1512 C   0  0  0  0  0  0
  -25.4127  -36.2986   24.0306 C   0  0  1  0  0  0
  -20.5940  -28.3739   23.1208 C   0  0  2  0  0  0
  -20.6800  -26.9431   22.5401 C   0  0  0  0  0  0
  -19.5766  -26.6376   21.5219 C   0  0  0  0  0  0
  -18.1953  -26.7936   22.1627 C   0  0  0  0  0  0
  -19.1586  -28.8897   23.2833 C   0  0  0  0  0  0
  -18.9491  -30.1491   23.8857 C   0  0  0  0  0  0
  -17.6477  -30.6597   24.0552 C   0  0  0  0  0  0
  -25.9086  -34.9372   23.5016 C   0  0  0  0  0  0
  -16.5374  -29.9085   23.6337 C   0  0  0  0  0  0
  -16.7307  -28.6501   23.0358 C   0  0  0  0  0  0
  -26.4547  -31.6549   25.0698 C   0  0  0  0  0  0
  -25.3677  -31.3788   26.1356 C   0  0  0  0  0  0
  -27.0433  -30.2925   24.6380 C   0  0  0  0  0  0
  -27.6039  -32.4352   25.7494 C   0  0  0  0  0  0
  -27.5566  -37.1767   24.8465 C   0  0  0  0  0  0
  -21.4311  -29.3046   22.3570 N   0  0  0  0  0  0
  -26.4272  -37.3721   23.9413 N   0  0  0  0  0  0
  -24.7417  -31.0003   22.0852 N   0  0  0  0  0  0
  -23.4208  -28.8053   23.3053 O   0  0  0  0  0  0
  -28.2599  -25.9203   20.1867 O   0  0  0  0  0  0
  -26.5695  -34.8901   22.4612 O   0  0  0  0  0  0
  -23.5655  -32.1227   23.6866 O   0  0  0  0  0  0
  -27.0635  -18.6027   21.6014 C   0  0  0  0  0  0
  -27.0574  -18.0134   19.1453 C   0  0  0  0  0  0
  -26.4790  -20.2914   19.8557 C   0  0  0  0  0  0
  -28.7046  -22.7928   19.9264 C   0  0  0  0  0  0
  -29.1034  -21.1959   20.6367 C   0  0  0  0  0  0
  -29.9291  -18.0625   20.5420 C   0  0  0  0  0  0
  -28.1079  -24.3422   20.5773 C   0  0  0  0  0  0
  -28.9344  -19.4917   20.1071 C   0  0  1  0  0  0
  -27.4121  -19.1017   20.1845 C   0  0  0  0  0  0
  -29.6767  -16.4250   20.4494 N   0  0  0  0  0  0
  -31.4627  -12.9388   19.1926 H   0  0  0  0  0  0
  -30.4800  -11.8340   20.1062 H   0  0  0  0  0  0
  -29.8916  -11.7369   17.6584 H   0  0  0  0  0  0
  -29.5726  -13.4548   17.6529 H   0  0  0  0  0  0
  -28.0097  -11.2735   19.0580 H   0  0  0  0  0  0
  -27.4048  -12.3679   17.8415 H   0  0  0  0  0  0
  -27.5360  -14.2443   19.3423 H   0  0  0  0  0  0
  -28.8031  -12.4610   21.4776 H   0  0  0  0  0  0
  -28.3111  -14.1263   21.7026 H   0  0  0  0  0  0
  -25.2777   -9.5671   22.4777 H   0  0  0  0  0  0
  -24.0015   -7.4627   22.7487 H   0  0  0  0  0  0
  -21.0857   -8.8773   19.8970 H   0  0  0  0  0  0
  -22.3709  -10.9674   19.6183 H   0  0  0  0  0  0
  -21.2000   -7.6152   23.9717 H   0  0  0  0  0  0
  -21.1482   -6.0534   25.9083 H   0  0  0  0  0  0
  -22.0602   -2.7614   23.2844 H   0  0  0  0  0  0
  -22.4021  -11.9836   22.4863 H   0  0  0  0  0  0
  -21.1039  -13.1202   22.2651 H   0  0  0  0  0  0
  -24.6259  -15.8373   20.5506 H   0  0  0  0  0  0
  -26.2341  -15.6430   20.0734 H   0  0  0  0  0  0
  -26.7343  -32.5185   23.0906 H   0  0  0  0  0  0
  -25.0075  -33.9515   25.0218 H   0  0  0  0  0  0
  -22.7797  -31.2712   21.3525 H   0  0  0  0  0  0
  -23.3764  -35.9532   23.3281 H   0  0  0  0  0  0
  -24.3553  -36.8884   22.2061 H   0  0  0  0  0  0
  -23.7225  -37.6394   23.6714 H   0  0  0  0  0  0
  -26.2032  -31.3918   20.6106 H   0  0  0  0  0  0
  -26.8996  -30.7119   22.0438 H   0  0  0  0  0  0
  -28.1594  -28.6603   21.2459 H   0  0  0  0  0  0
  -25.9004  -25.7335   19.0464 H   0  0  0  0  0  0
  -23.9919  -27.2453   18.9944 H   0  0  0  0  0  0
  -23.8654  -30.5171   19.3897 H   0  0  0  0  0  0
  -22.8172  -29.2072   19.8342 H   0  0  0  0  0  0
  -25.1326  -36.1779   25.0797 H   0  0  0  0  0  0
  -21.0034  -28.3334   24.1327 H   0  0  0  0  0  0
  -20.5684  -26.2360   23.3637 H   0  0  0  0  0  0
  -21.6665  -26.7419   22.1200 H   0  0  0  0  0  0
  -19.6917  -25.6279   21.1273 H   0  0  0  0  0  0
  -19.6690  -27.3166   20.6735 H   0  0  0  0  0  0
  -17.4218  -26.6694   21.4032 H   0  0  0  0  0  0
  -18.0344  -26.0090   22.9032 H   0  0  0  0  0  0
  -19.7966  -30.7334   24.2188 H   0  0  0  0  0  0
  -17.5029  -31.6269   24.5171 H   0  0  0  0  0  0
  -15.5367  -30.2965   23.7691 H   0  0  0  0  0  0
  -15.8706  -28.0810   22.7083 H   0  0  0  0  0  0
  -24.5877  -30.7119   25.7663 H   0  0  0  0  0  0
  -24.8848  -32.2987   26.4659 H   0  0  0  0  0  0
  -25.7910  -30.9033   27.0208 H   0  0  0  0  0  0
  -26.3086  -29.6616   24.1359 H   0  0  0  0  0  0
  -27.3963  -29.7272   25.5013 H   0  0  0  0  0  0
  -27.9027  -30.4136   23.9783 H   0  0  0  0  0  0
  -27.2614  -33.3697   26.1952 H   0  0  0  0  0  0
  -28.3912  -32.6833   25.0366 H   0  0  0  0  0  0
  -28.0636  -31.8551   26.5505 H   0  0  0  0  0  0
  -28.2571  -38.0077   24.7523 H   0  0  0  0  0  0
  -28.1074  -36.2601   24.6283 H   0  0  0  0  0  0
  -27.2283  -37.1410   25.8870 H   0  0  0  0  0  0
  -20.9565  -29.8738   21.6702 H   0  0  0  0  0  0
  -26.0117  -38.2778   24.1430 H   0  0  0  0  0  0
  -25.9961  -18.4022   21.6993 H   0  0  0  0  0  0
  -27.3263  -19.3400   22.3602 H   0  0  0  0  0  0
  -27.5810  -17.6782   21.8555 H   0  0  0  0  0  0
  -25.9920  -17.7801   19.1700 H   0  0  0  0  0  0
  -27.5723  -17.0728   19.3024 H   0  0  0  0  0  0
  -27.2876  -18.3411   18.1300 H   0  0  0  0  0  0
  -25.4346  -19.9791   19.8052 H   0  0  0  0  0  0
  -26.7207  -20.7306   18.8878 H   0  0  0  0  0  0
  -26.5156  -21.0783   20.6093 H   0  0  0  0  0  0
  -28.0579  -22.5874   19.0753 H   0  0  0  0  0  0
  -29.6404  -23.0744   19.4441 H   0  0  0  0  0  0
  -30.1717  -21.2820   20.8391 H   0  0  0  0  0  0
  -28.6779  -21.2204   21.6396 H   0  0  0  0  0  0
  -30.1731  -18.2063   21.5945 H   0  0  0  0  0  0
  -30.8838  -18.2154   20.0379 H   0  0  0  0  0  0
  -28.4888  -24.3403   21.5994 H   0  0  0  0  0  0
  -27.0372  -24.1929   20.7156 H   0  0  0  0  0  0
  -29.1431  -19.5847   19.0409 H   0  0  0  0  0  0
  -28.6947  -16.2034   20.5165 H   0  0  0  0  0  0
  1 25  1  0  0  0
  1 30  2  0  0  0
  1 80  1  0  0  0
  2  3  1  0  0  0
  2 25  1  0  0  0
  2 81  1  0  0  0
  2 82  1  0  0  0
  3  4  1  0  0  0
  3 83  1  0  0  0
  3 84  1  0  0  0
  4  5  1  0  0  0
  4 85  1  0  0  0
  4 86  1  0  0  0
  5  6  1  0  0  0
  5 26  1  0  0  0
  5 87  1  0  0  0
  6 25  1  0  0  0
  6 88  1  0  0  0
  6 89  1  0  0  0
  7  8  2  0  0  0
  7 26  1  0  0  0
  7 29  1  0  0  0
  8  9  1  0  0  0
  8 22  1  0  0  0
  9 10  1  0  0  0
  9 27  2  0  0  0
 10 11  2  0  0  0
 10 15  1  0  0  0
 11 12  1  0  0  0
 11 90  1  0  0  0
 12 13  2  0  0  0
 12 91  1  0  0  0
 13 14  1  0  0  0
 13 31  1  0  0  0
 14 15  2  0  0  0
 14 92  1  0  0  0
 15 93  1  0  0  0
 16 17  2  0  0  0
 16 21  1  0  0  0
 16 31  1  0  0  0
 17 18  1  0  0  0
 17 94  1  0  0  0
 18 19  2  0  0  0
 18 95  1  0  0  0
 19 20  1  0  0  0
 19 24  1  0  0  0
 20 21  2  0  0  0
 20 96  1  0  0  0
 21 23  1  0  0  0
 22 28  1  0  0  0
 22 32  2  0  0  0
 26 27  1  0  0  0
 28 97  1  0  0  0
 28 98  1  0  0  0
 29 99  1  0  0  0
 29100  1  0  0  0
 33 34  1  0  0  0
 33 66  1  0  0  0
 33 70  2  0  0  0
 34 36  1  0  0  0
 34 59  1  0  0  0
 34101  1  0  0  0
 35 44  2  0  0  0
 35 45  1  0  0  0
 35 68  1  0  0  0
 36 56  1  0  0  0
 36102  1  0  0  0
 37 39  1  0  0  0
 37 47  1  0  0  0
 37 66  1  0  0  0
 37103  1  0  0  0
 38 43  2  0  0  0
 38 46  1  0  0  0
 38 47  1  0  0  0
 39 64  1  0  0  0
 39 67  2  0  0  0
 40 52  1  0  0  0
 40 53  2  0  0  0
 40 58  1  0  0  0
 41104  1  0  0  0
 41105  1  0  0  0
 41106  1  0  0  0
 41 48  1  0  0  0
 42 43  1  0  0  0
 42 66  1  0  0  0
 42107  1  0  0  0
 42108  1  0  0  0
 43 44  1  0  0  0
 44109  1  0  0  0
 45 46  2  0  0  0
 45110  1  0  0  0
 46111  1  0  0  0
 47112  1  0  0  0
 47113  1  0  0  0
 48 56  1  0  0  0
 48 65  1  0  0  0
 48114  1  0  0  0
 49 50  1  0  0  0
 49 53  1  0  0  0
 49 64  1  0  0  0
 49115  1  0  0  0
 50 51  1  0  0  0
 50116  1  0  0  0
 50117  1  0  0  0
 51 52  1  0  0  0
 51118  1  0  0  0
 51119  1  0  0  0
 52120  1  0  0  0
 52121  1  0  0  0
 53 54  1  0  0  0
 54 55  2  0  0  0
 54122  1  0  0  0
 55 57  1  0  0  0
 55123  1  0  0  0
 56 69  2  0  0  0
 57 58  2  0  0  0
 57124  1  0  0  0
 58125  1  0  0  0
 59 60  1  0  0  0
 59 61  1  0  0  0
 59 62  1  0  0  0
 60126  1  0  0  0
 60127  1  0  0  0
 60128  1  0  0  0
 61129  1  0  0  0
 61130  1  0  0  0
 61131  1  0  0  0
 62132  1  0  0  0
 62133  1  0  0  0
 62134  1  0  0  0
 63 65  1  0  0  0
 63135  1  0  0  0
 63136  1  0  0  0
 63137  1  0  0  0
 64138  1  0  0  0
 65139  1  0  0  0
 68 77  1  0  0  0
 71140  1  0  0  0
 71141  1  0  0  0
 71142  1  0  0  0
 71 79  1  0  0  0
 72 79  1  0  0  0
 72143  1  0  0  0
 72144  1  0  0  0
 72145  1  0  0  0
 73 79  1  0  0  0
 73146  1  0  0  0
 73147  1  0  0  0
 73148  1  0  0  0
 74 75  1  0  0  0
 74 77  1  0  0  0
 74149  1  0  0  0
 74150  1  0  0  0
 75151  1  0  0  0
 75152  1  0  0  0
 75 78  1  0  0  0
 76 78  1  0  0  0
 76 80  1  0  0  0
 76153  1  0  0  0
 76154  1  0  0  0
 77155  1  0  0  0
 77156  1  0  0  0
 78 79  1  0  0  0
 78157  1  0  0  0
 80158  1  0  0  0
M  ISO  4   1 100  68 101  77 101  80 100
M  END
> <chiral flag>
0

> <version>
0

> <s_m_source_file>
/data/baiqing/PycharmProjects/Reinvent-master-3.2/result/LINK_invent/BTK/process_docking_weight1_custom_sum_contain_oxygen_bond_distance_aromatic_linkinvent_7_9_3/rearranged_h_0089.sdf

> <i_m_source_file_index>
71

> <r_mmod_Potential_Energy-OPLS-2005>
1188.83215332031

> <r_mmod_Stretch_Energy-OPLS-2005>
572.77294921875

> <r_mmod_Bend_Energy-OPLS-2005>
431.276916503906

> <r_mmod_Torsional_Energy-OPLS-2005>
260.536468505859

> <r_mmod_Improper_Torsional_Energy-OPLS-2005>
3.91936564445496

> <r_mmod_Van_der_Waal_Energy-OPLS-2005>
111.566421508789

> <r_mmod_Electrostatic_Energy-OPLS-2005>
-374.568267822266

> <r_mmod_Solvation_Energy-OPLS-2005>
-194.069931030273

> <b_mmod_Minimization_Converged-OPLS-2005>
0

> <r_mmod_RMS_Derivative-OPLS-2005>
1.74171769618988

$$$$
72
                    3D
 Structure written by MMmdl.
166174  0  0  1  0            999 V2000
  -30.6990  -14.4370   20.5611 C   0  0  0  0  0  0
  -30.4254  -12.2696   19.4375 C   0  0  0  0  0  0
  -29.5091  -12.4992   18.2166 C   0  0  0  0  0  0
  -28.0274  -12.3548   18.6196 C   0  0  0  0  0  0
  -27.6695  -13.1948   19.8761 C   0  0  2  0  0  0
  -28.7049  -12.9586   21.0031 C   0  0  0  0  0  0
  -25.2662  -13.8105   20.5686 C   0  0  0  0  0  0
  -24.1872  -13.0424   20.9113 C   0  0  0  0  0  0
  -24.6393  -11.6877   20.8668 C   0  0  0  0  0  0
  -23.9035  -10.4290   21.0359 C   0  0  0  0  0  0
  -24.3590   -9.4232   21.9152 C   0  0  0  0  0  0
  -23.6291   -8.2257   22.0746 C   0  0  0  0  0  0
  -22.4281   -8.0253   21.3523 C   0  0  0  0  0  0
  -21.9883   -9.0224   20.4632 C   0  0  0  0  0  0
  -22.7190  -10.2122   20.3040 C   0  0  0  0  0  0
  -21.6871   -6.0712   22.5268 C   0  0  0  0  0  0
  -21.4016   -6.5622   23.8194 C   0  0  0  0  0  0
  -21.3676   -5.6781   24.9166 C   0  0  0  0  0  0
  -21.6064   -4.3044   24.7232 C   0  0  0  0  0  0
  -21.8824   -3.8125   23.4361 C   0  0  0  0  0  0
  -21.9202   -4.6936   22.3413 C   0  0  0  0  0  0
  -22.7915  -13.5268   21.1771 C   0  0  0  0  0  0
  -22.1660   -4.2119   21.0995 F   0  0  0  0  0  0
  -21.5659   -3.4529   25.7762 F   0  0  0  0  0  0
  -30.0486  -13.2478   20.4676 N   0  0  0  0  0  0
  -26.3069  -12.9245   20.3317 N   0  0  0  0  0  0
  -25.9317  -11.6418   20.5676 N   0  0  0  0  0  0
  -22.0535  -12.8299   22.0331 N   0  0  0  0  0  0
  -25.4540  -15.1806   20.4229 N   0  0  0  0  0  0
  -31.8035  -14.6392   20.0507 O   0  0  0  0  0  0
  -21.6650   -6.8844   21.4231 O   0  0  0  0  0  0
  -22.3648  -14.5582   20.6614 O   0  0  0  0  0  0
  -24.6110  -31.8704   23.2118 C   0  0  0  0  0  0
  -25.9025  -32.4826   23.8395 C   0  0  1  0  0  0
  -27.2302  -27.4533   20.0829 C   0  0  0  0  0  0
  -25.5893  -33.8621   24.2326 N   0  0  0  0  0  0
  -23.3959  -30.4986   21.5500 C   0  0  2  0  0  0
  -24.8401  -28.9693   20.1145 C   0  0  0  0  0  0
  -22.7377  -29.4694   22.4967 C   0  0  0  0  0  0
  -18.0268  -28.1372   22.8484 C   0  0  0  0  0  0
  -24.1484  -36.7322   23.2634 C   0  0  0  0  0  0
  -25.9229  -30.8401   21.3637 C   0  0  0  0  0  0
  -25.9982  -29.4744   20.7169 C   0  0  0  0  0  0
  -27.1910  -28.7178   20.7115 C   0  0  0  0  0  0
  -26.0485  -26.9670   19.4691 C   0  0  0  0  0  0
  -24.8577  -27.7122   19.4922 C   0  0  0  0  0  0
  -23.6019  -29.8325   20.1645 C   0  0  0  0  0  0
  -25.4097  -36.3103   24.0333 C   0  0  1  0  0  0
  -20.5858  -28.3660   23.1300 C   0  0  2  0  0  0
  -20.6750  -26.9394   22.5403 C   0  0  0  0  0  0
  -19.5732  -26.6385   21.5187 C   0  0  0  0  0  0
  -18.1916  -26.7918   22.1613 C   0  0  0  0  0  0
  -19.1521  -28.8819   23.2901 C   0  0  0  0  0  0
  -18.9457  -30.1423   23.8917 C   0  0  0  0  0  0
  -17.6465  -30.6581   24.0567 C   0  0  0  0  0  0
  -25.9023  -34.9482   23.5125 C   0  0  0  0  0  0
  -16.5355  -29.9089   23.6321 C   0  0  0  0  0  0
  -16.7265  -28.6510   23.0337 C   0  0  0  0  0  0
  -26.4480  -31.6591   25.0702 C   0  0  0  0  0  0
  -25.3770  -31.3697   26.1466 C   0  0  0  0  0  0
  -27.0310  -30.3036   24.6062 C   0  0  0  0  0  0
  -27.6054  -32.4316   25.7480 C   0  0  0  0  0  0
  -27.5576  -37.1797   24.8458 C   0  0  0  0  0  0
  -21.4108  -29.3059   22.3720 N   0  0  0  0  0  0
  -26.4277  -37.3792   23.9424 N   0  0  0  0  0  0
  -24.6612  -31.0837   22.1008 N   0  0  0  0  0  0
  -23.4160  -28.8213   23.2980 O   0  0  0  0  0  0
  -28.4168  -26.7447   20.0907 O   0  0  0  0  0  0
  -26.5595  -34.8927   22.4693 O   0  0  0  0  0  0
  -23.5311  -32.1454   23.7539 O   0  0  0  0  0  0
  -30.9899  -20.1351   19.6917 C   0  0  0  0  0  0
  -30.7993  -21.1345   18.7233 C   0  0  0  0  0  0
  -30.8052  -18.8025   19.2826 C   0  0  0  0  0  0
  -30.2706  -19.5317   17.1763 C   0  0  0  0  0  0
  -29.8299  -19.2147   15.7631 C   0  0  0  0  0  0
  -30.1664  -24.0803   17.1309 C   0  0  0  0  0  0
  -28.8405  -17.5706   21.4766 C   0  0  0  0  0  0
  -31.0637  -22.6128   19.0122 C   0  0  0  0  0  0
  -31.0655  -17.6130   20.2070 C   0  0  0  0  0  0
  -29.7744  -24.7699   19.5571 C   0  0  0  0  0  0
  -28.4351  -25.5020   19.3926 C   0  0  0  0  0  0
  -29.9285  -23.5785   18.5768 C   0  0  1  0  0  0
  -29.7834  -16.7904   20.5404 C   0  0  1  0  0  0
  -30.4548  -20.8113   17.4643 N   0  0  0  0  0  0
  -30.4422  -18.5161   18.0151 N   0  0  0  0  0  0
  -29.9656  -15.4299   21.0892 N   0  0  0  0  0  0
  -31.4750  -12.3497   19.1522 H   0  0  0  0  0  0
  -30.3013  -11.2566   19.8239 H   0  0  0  0  0  0
  -29.7529  -11.7955   17.4190 H   0  0  0  0  0  0
  -29.6843  -13.4967   17.8100 H   0  0  0  0  0  0
  -27.8367  -11.2972   18.8144 H   0  0  0  0  0  0
  -27.3857  -12.6291   17.7822 H   0  0  0  0  0  0
  -27.7176  -14.2432   19.5800 H   0  0  0  0  0  0
  -28.6655  -11.9198   21.3344 H   0  0  0  0  0  0
  -28.4657  -13.5480   21.8897 H   0  0  0  0  0  0
  -25.2730   -9.5761   22.4714 H   0  0  0  0  0  0
  -23.9999   -7.4690   22.7515 H   0  0  0  0  0  0
  -21.0786   -8.8736   19.8974 H   0  0  0  0  0  0
  -22.3599  -10.9649   19.6160 H   0  0  0  0  0  0
  -21.1985   -7.6132   23.9673 H   0  0  0  0  0  0
  -21.1499   -6.0525   25.9059 H   0  0  0  0  0  0
  -22.0593   -2.7589   23.2877 H   0  0  0  0  0  0
  -22.4085  -11.9933   22.4734 H   0  0  0  0  0  0
  -21.1173  -13.1396   22.2486 H   0  0  0  0  0  0
  -24.7112  -15.8532   20.5783 H   0  0  0  0  0  0
  -26.3269  -15.6069   20.1394 H   0  0  0  0  0  0
  -26.7093  -32.5553   23.1164 H   0  0  0  0  0  0
  -25.0021  -33.9791   25.0452 H   0  0  0  0  0  0
  -22.6830  -31.3144   21.4117 H   0  0  0  0  0  0
  -23.3735  -35.9665   23.3292 H   0  0  0  0  0  0
  -24.3585  -36.8949   22.2052 H   0  0  0  0  0  0
  -23.7250  -37.6526   23.6660 H   0  0  0  0  0  0
  -26.0293  -31.6031   20.5906 H   0  0  0  0  0  0
  -26.8141  -30.8982   21.9773 H   0  0  0  0  0  0
  -28.0820  -29.1028   21.1877 H   0  0  0  0  0  0
  -26.0118  -26.0180   18.9565 H   0  0  0  0  0  0
  -23.9697  -27.3196   19.0165 H   0  0  0  0  0  0
  -23.7022  -30.6054   19.4014 H   0  0  0  0  0  0
  -22.7274  -29.2478   19.8719 H   0  0  0  0  0  0
  -25.1275  -36.1959   25.0823 H   0  0  0  0  0  0
  -20.9959  -28.3227   24.1415 H   0  0  0  0  0  0
  -20.5595  -26.2282   23.3600 H   0  0  0  0  0  0
  -21.6624  -26.7406   22.1227 H   0  0  0  0  0  0
  -19.6897  -25.6296   21.1214 H   0  0  0  0  0  0
  -19.6667  -27.3193   20.6717 H   0  0  0  0  0  0
  -17.4173  -26.6641   21.4036 H   0  0  0  0  0  0
  -18.0348  -26.0050   22.9009 H   0  0  0  0  0  0
  -19.7930  -30.7224   24.2294 H   0  0  0  0  0  0
  -17.5031  -31.6261   24.5171 H   0  0  0  0  0  0
  -15.5356  -30.3014   23.7627 H   0  0  0  0  0  0
  -15.8659  -28.0849   22.7029 H   0  0  0  0  0  0
  -24.5918  -30.7068   25.7823 H   0  0  0  0  0  0
  -24.8982  -32.2845   26.4956 H   0  0  0  0  0  0
  -25.8127  -30.8838   27.0201 H   0  0  0  0  0  0
  -26.2830  -29.6785   24.1156 H   0  0  0  0  0  0
  -27.4142  -29.7286   25.4505 H   0  0  0  0  0  0
  -27.8648  -30.4371   23.9162 H   0  0  0  0  0  0
  -27.2656  -33.3597   26.2102 H   0  0  0  0  0  0
  -28.3844  -32.6912   25.0297 H   0  0  0  0  0  0
  -28.0743  -31.8408   26.5363 H   0  0  0  0  0  0
  -28.2573  -38.0111   24.7527 H   0  0  0  0  0  0
  -28.1088  -36.2647   24.6247 H   0  0  0  0  0  0
  -27.2305  -37.1408   25.8860 H   0  0  0  0  0  0
  -20.9232  -29.8853   21.7034 H   0  0  0  0  0  0
  -26.0165  -38.2865   24.1440 H   0  0  0  0  0  0
  -31.2992  -20.3781   20.6997 H   0  0  0  0  0  0
  -30.6713  -19.3111   15.0774 H   0  0  0  0  0  0
  -29.0513  -19.9062   15.4386 H   0  0  0  0  0  0
  -29.4337  -18.2020   15.6843 H   0  0  0  0  0  0
  -30.2181  -23.2525   16.4238 H   0  0  0  0  0  0
  -31.1055  -24.6296   17.0524 H   0  0  0  0  0  0
  -29.3751  -24.7354   16.7693 H   0  0  0  0  0  0
  -27.9172  -17.0206   21.6611 H   0  0  0  0  0  0
  -28.5558  -18.5334   21.0512 H   0  0  0  0  0  0
  -29.3097  -17.7649   22.4426 H   0  0  0  0  0  0
  -32.0086  -22.9071   18.5548 H   0  0  0  0  0  0
  -31.2281  -22.7003   20.0854 H   0  0  0  0  0  0
  -31.5424  -17.9554   21.1257 H   0  0  0  0  0  0
  -31.8122  -17.0136   19.6928 H   0  0  0  0  0  0
  -29.8244  -24.4151   20.5876 H   0  0  0  0  0  0
  -30.6060  -25.4651   19.4358 H   0  0  0  0  0  0
  -27.6513  -24.8403   19.7664 H   0  0  0  0  0  0
  -28.2290  -25.7030   18.3422 H   0  0  0  0  0  0
  -28.9925  -23.0164   18.6085 H   0  0  0  0  0  0
  -29.2541  -16.6336   19.5985 H   0  0  0  0  0  0
  -29.1633  -15.0894   21.5992 H   0  0  0  0  0  0
  1 25  1  0  0  0
  1 30  2  0  0  0
  1 86  1  0  0  0
  2  3  1  0  0  0
  2 25  1  0  0  0
  2 87  1  0  0  0
  2 88  1  0  0  0
  3  4  1  0  0  0
  3 89  1  0  0  0
  3 90  1  0  0  0
  4  5  1  0  0  0
  4 91  1  0  0  0
  4 92  1  0  0  0
  5  6  1  0  0  0
  5 26  1  0  0  0
  5 93  1  0  0  0
  6 25  1  0  0  0
  6 94  1  0  0  0
  6 95  1  0  0  0
  7  8  2  0  0  0
  7 26  1  0  0  0
  7 29  1  0  0  0
  8  9  1  0  0  0
  8 22  1  0  0  0
  9 10  1  0  0  0
  9 27  2  0  0  0
 10 11  2  0  0  0
 10 15  1  0  0  0
 11 12  1  0  0  0
 11 96  1  0  0  0
 12 13  2  0  0  0
 12 97  1  0  0  0
 13 14  1  0  0  0
 13 31  1  0  0  0
 14 15  2  0  0  0
 14 98  1  0  0  0
 15 99  1  0  0  0
 16 17  2  0  0  0
 16 21  1  0  0  0
 16 31  1  0  0  0
 17 18  1  0  0  0
 17100  1  0  0  0
 18 19  2  0  0  0
 18101  1  0  0  0
 19 20  1  0  0  0
 19 24  1  0  0  0
 20 21  2  0  0  0
 20102  1  0  0  0
 21 23  1  0  0  0
 22 28  1  0  0  0
 22 32  2  0  0  0
 26 27  1  0  0  0
 28103  1  0  0  0
 28104  1  0  0  0
 29105  1  0  0  0
 29106  1  0  0  0
 33 34  1  0  0  0
 33 66  1  0  0  0
 33 70  2  0  0  0
 34 36  1  0  0  0
 34 59  1  0  0  0
 34107  1  0  0  0
 35 44  2  0  0  0
 35 45  1  0  0  0
 35 68  1  0  0  0
 36 56  1  0  0  0
 36108  1  0  0  0
 37 39  1  0  0  0
 37 47  1  0  0  0
 37 66  1  0  0  0
 37109  1  0  0  0
 38 43  2  0  0  0
 38 46  1  0  0  0
 38 47  1  0  0  0
 39 64  1  0  0  0
 39 67  2  0  0  0
 40 52  1  0  0  0
 40 53  2  0  0  0
 40 58  1  0  0  0
 41110  1  0  0  0
 41111  1  0  0  0
 41112  1  0  0  0
 41 48  1  0  0  0
 42 43  1  0  0  0
 42 66  1  0  0  0
 42113  1  0  0  0
 42114  1  0  0  0
 43 44  1  0  0  0
 44115  1  0  0  0
 45 46  2  0  0  0
 45116  1  0  0  0
 46117  1  0  0  0
 47118  1  0  0  0
 47119  1  0  0  0
 48 56  1  0  0  0
 48 65  1  0  0  0
 48120  1  0  0  0
 49 50  1  0  0  0
 49 53  1  0  0  0
 49 64  1  0  0  0
 49121  1  0  0  0
 50 51  1  0  0  0
 50122  1  0  0  0
 50123  1  0  0  0
 51 52  1  0  0  0
 51124  1  0  0  0
 51125  1  0  0  0
 52126  1  0  0  0
 52127  1  0  0  0
 53 54  1  0  0  0
 54 55  2  0  0  0
 54128  1  0  0  0
 55 57  1  0  0  0
 55129  1  0  0  0
 56 69  2  0  0  0
 57 58  2  0  0  0
 57130  1  0  0  0
 58131  1  0  0  0
 59 60  1  0  0  0
 59 61  1  0  0  0
 59 62  1  0  0  0
 60132  1  0  0  0
 60133  1  0  0  0
 60134  1  0  0  0
 61135  1  0  0  0
 61136  1  0  0  0
 61137  1  0  0  0
 62138  1  0  0  0
 62139  1  0  0  0
 62140  1  0  0  0
 63 65  1  0  0  0
 63141  1  0  0  0
 63142  1  0  0  0
 63143  1  0  0  0
 64144  1  0  0  0
 65145  1  0  0  0
 68 81  1  0  0  0
 71 72  2  0  0  0
 71 73  1  0  0  0
 71146  1  0  0  0
 72 78  1  0  0  0
 72 84  1  0  0  0
 73 79  1  0  0  0
 73 85  2  0  0  0
 74 75  1  0  0  0
 74 84  2  0  0  0
 74 85  1  0  0  0
 75147  1  0  0  0
 75148  1  0  0  0
 75149  1  0  0  0
 76150  1  0  0  0
 76151  1  0  0  0
 76152  1  0  0  0
 76 82  1  0  0  0
 77153  1  0  0  0
 77154  1  0  0  0
 77155  1  0  0  0
 77 83  1  0  0  0
 78 82  1  0  0  0
 78156  1  0  0  0
 78157  1  0  0  0
 79 83  1  0  0  0
 79158  1  0  0  0
 79159  1  0  0  0
 80 81  1  0  0  0
 80 82  1  0  0  0
 80160  1  0  0  0
 80161  1  0  0  0
 81162  1  0  0  0
 81163  1  0  0  0
 82164  1  0  0  0
 83 86  1  0  0  0
 83165  1  0  0  0
 86166  1  0  0  0
M  ISO  4   1 100  68 101  81 101  86 100
M  END
> <chiral flag>
0

> <version>
0

> <s_m_source_file>
/data/baiqing/PycharmProjects/Reinvent-master-3.2/result/LINK_invent/BTK/process_docking_weight1_custom_sum_contain_oxygen_bond_distance_aromatic_linkinvent_7_9_3/rearranged_h_0089.sdf

> <i_m_source_file_index>
72

> <r_mmod_Potential_Energy-OPLS-2005>
-370.778747558594

> <r_mmod_Stretch_Energy-OPLS-2005>
35.2381744384766

> <r_mmod_Bend_Energy-OPLS-2005>
106.035934448242

> <r_mmod_Torsional_Energy-OPLS-2005>
207.868316650391

> <r_mmod_Improper_Torsional_Energy-OPLS-2005>
6.72107934951782

> <r_mmod_Van_der_Waal_Energy-OPLS-2005>
170.484985351562

> <r_mmod_Electrostatic_Energy-OPLS-2005>
-681.318176269531

> <r_mmod_Solvation_Energy-OPLS-2005>
-226.737854003906

> <b_mmod_Minimization_Converged-OPLS-2005>
0

> <r_mmod_RMS_Derivative-OPLS-2005>
3.10095739364624

$$$$
73
                    3D
 Structure written by MMmdl.
179187  0  0  1  0            999 V2000
  -30.6470  -14.5473   20.5374 C   0  0  0  0  0  0
  -30.4336  -12.3442   19.4203 C   0  0  0  0  0  0
  -29.5004  -12.5065   18.2026 C   0  0  0  0  0  0
  -28.0196  -12.3594   18.6119 C   0  0  0  0  0  0
  -27.6561  -13.2065   19.8614 C   0  0  2  0  0  0
  -28.7000  -13.0096   20.9813 C   0  0  0  0  0  0
  -25.2583  -13.8151   20.5659 C   0  0  0  0  0  0
  -24.1835  -13.0427   20.9171 C   0  0  0  0  0  0
  -24.6379  -11.6898   20.8709 C   0  0  0  0  0  0
  -23.9053  -10.4288   21.0393 C   0  0  0  0  0  0
  -24.3612   -9.4208   21.9172 C   0  0  0  0  0  0
  -23.6289   -8.2241   22.0749 C   0  0  0  0  0  0
  -22.4269   -8.0275   21.3542 C   0  0  0  0  0  0
  -21.9903   -9.0243   20.4646 C   0  0  0  0  0  0
  -22.7228  -10.2122   20.3045 C   0  0  0  0  0  0
  -21.6860   -6.0734   22.5281 C   0  0  0  0  0  0
  -21.4019   -6.5639   23.8212 C   0  0  0  0  0  0
  -21.3656   -5.6792   24.9171 C   0  0  0  0  0  0
  -21.6044   -4.3055   24.7226 C   0  0  0  0  0  0
  -21.8822   -3.8147   23.4346 C   0  0  0  0  0  0
  -21.9190   -4.6963   22.3404 C   0  0  0  0  0  0
  -22.7861  -13.5230   21.1846 C   0  0  0  0  0  0
  -22.1664   -4.2149   21.0985 F   0  0  0  0  0  0
  -21.5620   -3.4543   25.7735 F   0  0  0  0  0  0
  -30.0199  -13.3415   20.4201 N   0  0  0  0  0  0
  -26.2997  -12.9313   20.3297 N   0  0  0  0  0  0
  -25.9302  -11.6478   20.5722 N   0  0  0  0  0  0
  -22.0510  -12.8206   22.0397 N   0  0  0  0  0  0
  -25.4313  -15.1866   20.4091 N   0  0  0  0  0  0
  -31.8102  -14.7334   20.1718 O   0  0  0  0  0  0
  -21.6634   -6.8870   21.4239 O   0  0  0  0  0  0
  -22.3557  -14.5537   20.6709 O   0  0  0  0  0  0
  -24.6204  -31.8636   23.2075 C   0  0  0  0  0  0
  -25.9076  -32.4784   23.8377 C   0  0  1  0  0  0
  -27.2208  -27.3704   20.0900 C   0  0  0  0  0  0
  -25.5927  -33.8586   24.2301 N   0  0  0  0  0  0
  -23.4100  -30.4913   21.5473 C   0  0  2  0  0  0
  -24.8529  -28.9544   20.1090 C   0  0  0  0  0  0
  -22.7424  -29.4660   22.4939 C   0  0  0  0  0  0
  -18.0271  -28.1341   22.8487 C   0  0  0  0  0  0
  -24.1496  -36.7317   23.2635 C   0  0  0  0  0  0
  -25.9458  -30.8077   21.3717 C   0  0  0  0  0  0
  -26.0182  -29.4407   20.7128 C   0  0  0  0  0  0
  -27.2034  -28.6571   20.7009 C   0  0  0  0  0  0
  -26.0380  -26.9385   19.4440 C   0  0  0  0  0  0
  -24.8597  -27.7051   19.4715 C   0  0  0  0  0  0
  -23.6200  -29.8295   20.1603 C   0  0  0  0  0  0
  -25.4111  -36.3086   24.0331 C   0  0  1  0  0  0
  -20.5865  -28.3660   23.1271 C   0  0  2  0  0  0
  -20.6751  -26.9382   22.5391 C   0  0  0  0  0  0
  -19.5736  -26.6362   21.5183 C   0  0  0  0  0  0
  -18.1915  -26.7881   22.1594 C   0  0  0  0  0  0
  -19.1520  -28.8808   23.2883 C   0  0  0  0  0  0
  -18.9458  -30.1404   23.8909 C   0  0  0  0  0  0
  -17.6469  -30.6559   24.0545 C   0  0  0  0  0  0
  -25.9053  -34.9450   23.5108 C   0  0  0  0  0  0
  -16.5361  -29.9060   23.6302 C   0  0  0  0  0  0
  -16.7261  -28.6461   23.0355 C   0  0  0  0  0  0
  -26.4494  -31.6580   25.0730 C   0  0  0  0  0  0
  -25.3767  -31.3690   26.1480 C   0  0  0  0  0  0
  -27.0318  -30.3009   24.6139 C   0  0  0  0  0  0
  -27.6059  -32.4310   25.7495 C   0  0  0  0  0  0
  -27.5576  -37.1804   24.8459 C   0  0  0  0  0  0
  -21.4142  -29.3054   22.3691 N   0  0  0  0  0  0
  -26.4285  -37.3772   23.9408 N   0  0  0  0  0  0
  -24.6770  -31.0698   22.0996 N   0  0  0  0  0  0
  -23.4182  -28.8185   23.2983 O   0  0  0  0  0  0
  -28.3661  -26.5750   20.1421 O   0  0  0  0  0  0
  -26.5605  -34.8906   22.4669 O   0  0  0  0  0  0
  -23.5383  -32.1422   23.7437 O   0  0  0  0  0  0
  -29.9203  -22.3870   23.0149 C   0  0  0  0  0  0
  -29.5945  -21.7693   21.7890 C   0  0  0  0  0  0
  -30.3349  -21.6488   24.1358 C   0  0  0  0  0  0
  -29.7516  -20.3415   21.7473 C   0  0  0  0  0  0
  -30.5076  -20.2484   23.9949 C   0  0  0  0  0  0
  -29.2775  -23.6325   27.3264 C   0  0  0  0  0  0
  -30.2091  -19.3276   26.3918 C   0  0  0  0  0  0
  -32.5421  -19.6002   25.3811 C   0  0  0  0  0  0
  -31.0191  -17.8101   24.6480 C   0  0  0  0  0  0
  -29.0317  -22.6621   20.6383 C   0  0  0  0  0  0
  -30.5131  -22.4481   25.4224 C   0  0  0  0  0  0
  -29.2425  -19.4160   20.6179 C   0  0  0  0  0  0
  -29.1537  -22.7551   26.0781 C   0  0  0  0  0  0
  -29.0662  -24.2364   20.8594 C   0  0  0  0  0  0
  -30.0465  -18.1006   20.2544 C   0  0  0  0  0  0
  -30.1862  -16.9601   21.3267 C   0  0  0  0  0  0
  -28.2754  -25.1391   19.8600 C   0  0  0  0  0  0
  -31.0558  -19.2941   25.0984 C   0  0  0  0  0  0
  -30.2104  -19.6555   22.8164 N   0  0  0  0  0  0
  -29.8479  -15.5695   20.9283 N   0  0  0  0  0  0
  -31.4760  -12.4669   19.1199 H   0  0  0  0  0  0
  -30.3569  -11.3374   19.8349 H   0  0  0  0  0  0
  -29.7505  -11.7740   17.4338 H   0  0  0  0  0  0
  -29.6584  -13.4885   17.7520 H   0  0  0  0  0  0
  -27.8313  -11.3033   18.8117 H   0  0  0  0  0  0
  -27.3730  -12.6289   17.7760 H   0  0  0  0  0  0
  -27.6893  -14.2506   19.5483 H   0  0  0  0  0  0
  -28.6945  -11.9753   21.3286 H   0  0  0  0  0  0
  -28.4592  -13.6148   21.8565 H   0  0  0  0  0  0
  -25.2765   -9.5680   22.4744 H   0  0  0  0  0  0
  -24.0002   -7.4636   22.7465 H   0  0  0  0  0  0
  -21.0844   -8.8764   19.8956 H   0  0  0  0  0  0
  -22.3698  -10.9654   19.6150 H   0  0  0  0  0  0
  -21.2025   -7.6150   23.9716 H   0  0  0  0  0  0
  -21.1475   -6.0523   25.9072 H   0  0  0  0  0  0
  -22.0604   -2.7611   23.2850 H   0  0  0  0  0  0
  -22.4129  -11.9851   22.4758 H   0  0  0  0  0  0
  -21.1129  -13.1228   22.2618 H   0  0  0  0  0  0
  -24.6671  -15.8435   20.5217 H   0  0  0  0  0  0
  -26.2823  -15.6269   20.0836 H   0  0  0  0  0  0
  -26.7145  -32.5472   23.1132 H   0  0  0  0  0  0
  -25.0064  -33.9732   25.0436 H   0  0  0  0  0  0
  -22.7013  -31.3097   21.4071 H   0  0  0  0  0  0
  -23.3731  -35.9674   23.3298 H   0  0  0  0  0  0
  -24.3587  -36.8942   22.2051 H   0  0  0  0  0  0
  -23.7283  -37.6535   23.6663 H   0  0  0  0  0  0
  -26.0684  -31.5763   20.6064 H   0  0  0  0  0  0
  -26.8314  -30.8549   21.9957 H   0  0  0  0  0  0
  -28.1012  -29.0258   21.1764 H   0  0  0  0  0  0
  -25.9881  -26.0105   18.8956 H   0  0  0  0  0  0
  -23.9677  -27.3337   18.9851 H   0  0  0  0  0  0
  -23.7368  -30.6080   19.4051 H   0  0  0  0  0  0
  -22.7394  -29.2584   19.8603 H   0  0  0  0  0  0
  -25.1279  -36.1933   25.0822 H   0  0  0  0  0  0
  -20.9967  -28.3222   24.1391 H   0  0  0  0  0  0
  -20.5605  -26.2277   23.3589 H   0  0  0  0  0  0
  -21.6625  -26.7373   22.1226 H   0  0  0  0  0  0
  -19.6917  -25.6281   21.1203 H   0  0  0  0  0  0
  -19.6675  -27.3151   20.6700 H   0  0  0  0  0  0
  -17.4182  -26.6622   21.3999 H   0  0  0  0  0  0
  -18.0345  -25.9999   22.8976 H   0  0  0  0  0  0
  -19.7955  -30.7187   24.2311 H   0  0  0  0  0  0
  -17.5039  -31.6244   24.5124 H   0  0  0  0  0  0
  -15.5359  -30.2976   23.7616 H   0  0  0  0  0  0
  -15.8655  -28.0773   22.7098 H   0  0  0  0  0  0
  -24.5968  -30.6983   25.7850 H   0  0  0  0  0  0
  -24.8929  -32.2846   26.4897 H   0  0  0  0  0  0
  -25.8152  -30.8914   27.0259 H   0  0  0  0  0  0
  -26.2871  -29.6760   24.1200 H   0  0  0  0  0  0
  -27.4066  -29.7234   25.4603 H   0  0  0  0  0  0
  -27.8719  -30.4270   23.9304 H   0  0  0  0  0  0
  -27.2662  -33.3606   26.2078 H   0  0  0  0  0  0
  -28.3887  -32.6884   25.0347 H   0  0  0  0  0  0
  -28.0722  -31.8441   26.5429 H   0  0  0  0  0  0
  -28.2577  -38.0107   24.7484 H   0  0  0  0  0  0
  -28.1080  -36.2635   24.6297 H   0  0  0  0  0  0
  -27.2293  -37.1470   25.8857 H   0  0  0  0  0  0
  -20.9288  -29.8844   21.6982 H   0  0  0  0  0  0
  -26.0165  -38.2851   24.1397 H   0  0  0  0  0  0
  -29.8165  -23.4498   23.1526 H   0  0  0  0  0  0
  -28.2936  -23.8348   27.7512 H   0  0  0  0  0  0
  -29.7383  -24.5919   27.0907 H   0  0  0  0  0  0
  -29.8788  -23.1470   28.0957 H   0  0  0  0  0  0
  -30.2749  -20.2599   26.9409 H   0  0  0  0  0  0
  -30.5306  -18.5574   27.0925 H   0  0  0  0  0  0
  -29.1557  -19.1444   26.1752 H   0  0  0  0  0  0
  -32.7181  -20.6200   25.7092 H   0  0  0  0  0  0
  -33.1424  -19.4542   24.4817 H   0  0  0  0  0  0
  -32.9443  -18.9462   26.1536 H   0  0  0  0  0  0
  -30.0064  -17.4923   24.4004 H   0  0  0  0  0  0
  -31.3846  -17.1365   25.4236 H   0  0  0  0  0  0
  -31.6520  -17.6470   23.7774 H   0  0  0  0  0  0
  -28.0016  -22.3514   20.4614 H   0  0  0  0  0  0
  -29.5722  -22.4225   19.7228 H   0  0  0  0  0  0
  -31.0055  -23.3879   25.1696 H   0  0  0  0  0  0
  -31.1853  -21.9781   26.1297 H   0  0  0  0  0  0
  -29.1685  -20.0165   19.7119 H   0  0  0  0  0  0
  -28.2164  -19.1414   20.8650 H   0  0  0  0  0  0
  -28.5017  -23.2616   25.3638 H   0  0  0  0  0  0
  -28.6475  -21.8248   26.3372 H   0  0  0  0  0  0
  -30.1019  -24.5734   20.8993 H   0  0  0  0  0  0
  -28.6231  -24.4753   21.8254 H   0  0  0  0  0  0
  -31.0470  -18.4000   19.9430 H   0  0  0  0  0  0
  -29.5888  -17.6766   19.3601 H   0  0  0  0  0  0
  -29.5290  -17.1826   22.1663 H   0  0  0  0  0  0
  -31.2005  -16.9750   21.7253 H   0  0  0  0  0  0
  -28.6285  -24.9659   18.8429 H   0  0  0  0  0  0
  -27.2562  -24.7650   19.9099 H   0  0  0  0  0  0
  -28.8960  -15.2916   21.1141 H   0  0  0  0  0  0
  1 25  1  0  0  0
  1 30  2  0  0  0
  1 90  1  0  0  0
  2  3  1  0  0  0
  2 25  1  0  0  0
  2 91  1  0  0  0
  2 92  1  0  0  0
  3  4  1  0  0  0
  3 93  1  0  0  0
  3 94  1  0  0  0
  4  5  1  0  0  0
  4 95  1  0  0  0
  4 96  1  0  0  0
  5  6  1  0  0  0
  5 26  1  0  0  0
  5 97  1  0  0  0
  6 25  1  0  0  0
  6 98  1  0  0  0
  6 99  1  0  0  0
  7  8  2  0  0  0
  7 26  1  0  0  0
  7 29  1  0  0  0
  8  9  1  0  0  0
  8 22  1  0  0  0
  9 10  1  0  0  0
  9 27  2  0  0  0
 10 11  2  0  0  0
 10 15  1  0  0  0
 11 12  1  0  0  0
 11100  1  0  0  0
 12 13  2  0  0  0
 12101  1  0  0  0
 13 14  1  0  0  0
 13 31  1  0  0  0
 14 15  2  0  0  0
 14102  1  0  0  0
 15103  1  0  0  0
 16 17  2  0  0  0
 16 21  1  0  0  0
 16 31  1  0  0  0
 17 18  1  0  0  0
 17104  1  0  0  0
 18 19  2  0  0  0
 18105  1  0  0  0
 19 20  1  0  0  0
 19 24  1  0  0  0
 20 21  2  0  0  0
 20106  1  0  0  0
 21 23  1  0  0  0
 22 28  1  0  0  0
 22 32  2  0  0  0
 26 27  1  0  0  0
 28107  1  0  0  0
 28108  1  0  0  0
 29109  1  0  0  0
 29110  1  0  0  0
 33 34  1  0  0  0
 33 66  1  0  0  0
 33 70  2  0  0  0
 34 36  1  0  0  0
 34 59  1  0  0  0
 34111  1  0  0  0
 35 44  2  0  0  0
 35 45  1  0  0  0
 35 68  1  0  0  0
 36 56  1  0  0  0
 36112  1  0  0  0
 37 39  1  0  0  0
 37 47  1  0  0  0
 37 66  1  0  0  0
 37113  1  0  0  0
 38 43  2  0  0  0
 38 46  1  0  0  0
 38 47  1  0  0  0
 39 64  1  0  0  0
 39 67  2  0  0  0
 40 52  1  0  0  0
 40 53  2  0  0  0
 40 58  1  0  0  0
 41114  1  0  0  0
 41115  1  0  0  0
 41116  1  0  0  0
 41 48  1  0  0  0
 42 43  1  0  0  0
 42 66  1  0  0  0
 42117  1  0  0  0
 42118  1  0  0  0
 43 44  1  0  0  0
 44119  1  0  0  0
 45 46  2  0  0  0
 45120  1  0  0  0
 46121  1  0  0  0
 47122  1  0  0  0
 47123  1  0  0  0
 48 56  1  0  0  0
 48 65  1  0  0  0
 48124  1  0  0  0
 49 50  1  0  0  0
 49 53  1  0  0  0
 49 64  1  0  0  0
 49125  1  0  0  0
 50 51  1  0  0  0
 50126  1  0  0  0
 50127  1  0  0  0
 51 52  1  0  0  0
 51128  1  0  0  0
 51129  1  0  0  0
 52130  1  0  0  0
 52131  1  0  0  0
 53 54  1  0  0  0
 54 55  2  0  0  0
 54132  1  0  0  0
 55 57  1  0  0  0
 55133  1  0  0  0
 56 69  2  0  0  0
 57 58  2  0  0  0
 57134  1  0  0  0
 58135  1  0  0  0
 59 60  1  0  0  0
 59 61  1  0  0  0
 59 62  1  0  0  0
 60136  1  0  0  0
 60137  1  0  0  0
 60138  1  0  0  0
 61139  1  0  0  0
 61140  1  0  0  0
 61141  1  0  0  0
 62142  1  0  0  0
 62143  1  0  0  0
 62144  1  0  0  0
 63 65  1  0  0  0
 63145  1  0  0  0
 63146  1  0  0  0
 63147  1  0  0  0
 64148  1  0  0  0
 65149  1  0  0  0
 68 87  1  0  0  0
 71 72  2  0  0  0
 71 73  1  0  0  0
 71150  1  0  0  0
 72 74  1  0  0  0
 72 80  1  0  0  0
 73 75  2  0  0  0
 73 81  1  0  0  0
 74 82  1  0  0  0
 74 89  2  0  0  0
 75 88  1  0  0  0
 75 89  1  0  0  0
 76 83  1  0  0  0
 76151  1  0  0  0
 76152  1  0  0  0
 76153  1  0  0  0
 77154  1  0  0  0
 77155  1  0  0  0
 77156  1  0  0  0
 77 88  1  0  0  0
 78 88  1  0  0  0
 78157  1  0  0  0
 78158  1  0  0  0
 78159  1  0  0  0
 79 88  1  0  0  0
 79160  1  0  0  0
 79161  1  0  0  0
 79162  1  0  0  0
 80 84  1  0  0  0
 80163  1  0  0  0
 80164  1  0  0  0
 81 83  1  0  0  0
 81165  1  0  0  0
 81166  1  0  0  0
 82 85  1  0  0  0
 82167  1  0  0  0
 82168  1  0  0  0
 83169  1  0  0  0
 83170  1  0  0  0
 84 87  1  0  0  0
 84171  1  0  0  0
 84172  1  0  0  0
 85 86  1  0  0  0
 85173  1  0  0  0
 85174  1  0  0  0
 86 90  1  0  0  0
 86175  1  0  0  0
 86176  1  0  0  0
 87177  1  0  0  0
 87178  1  0  0  0
 90179  1  0  0  0
M  ISO  4   1 100  68 101  87 101  90 100
M  END
> <chiral flag>
0

> <version>
0

> <s_m_source_file>
/data/baiqing/PycharmProjects/Reinvent-master-3.2/result/LINK_invent/BTK/process_docking_weight1_custom_sum_contain_oxygen_bond_distance_aromatic_linkinvent_7_9_3/rearranged_h_0089.sdf

> <i_m_source_file_index>
73

> <r_mmod_Potential_Energy-OPLS-2005>
-143.510299682617

> <r_mmod_Stretch_Energy-OPLS-2005>
65.1087875366211

> <r_mmod_Bend_Energy-OPLS-2005>
158.208419799805

> <r_mmod_Torsional_Energy-OPLS-2005>
219.820556640625

> <r_mmod_Improper_Torsional_Energy-OPLS-2005>
4.76366138458252

> <r_mmod_Van_der_Waal_Energy-OPLS-2005>
168.618240356445

> <r_mmod_Electrostatic_Energy-OPLS-2005>
-578.636535644531

> <r_mmod_Solvation_Energy-OPLS-2005>
-209.070999145508

> <b_mmod_Minimization_Converged-OPLS-2005>
0

> <r_mmod_RMS_Derivative-OPLS-2005>
2.67775297164917

$$$$
74
                    3D
 Structure written by MMmdl.
171179  0  0  1  0            999 V2000
  -30.7160  -14.4579   20.6429 C   0  0  0  0  0  0
  -30.4321  -12.3347   19.3980 C   0  0  0  0  0  0
  -29.4946  -12.5180   18.1888 C   0  0  0  0  0  0
  -28.0170  -12.3715   18.6049 C   0  0  0  0  0  0
  -27.6593  -13.2071   19.8653 C   0  0  2  0  0  0
  -28.7028  -12.9731   20.9779 C   0  0  0  0  0  0
  -25.2577  -13.8144   20.5666 C   0  0  0  0  0  0
  -24.1834  -13.0424   20.9187 C   0  0  0  0  0  0
  -24.6393  -11.6887   20.8726 C   0  0  0  0  0  0
  -23.9055  -10.4282   21.0383 C   0  0  0  0  0  0
  -24.3601   -9.4205   21.9170 C   0  0  0  0  0  0
  -23.6276   -8.2245   22.0750 C   0  0  0  0  0  0
  -22.4265   -8.0277   21.3548 C   0  0  0  0  0  0
  -21.9888   -9.0239   20.4648 C   0  0  0  0  0  0
  -22.7221  -10.2125   20.3049 C   0  0  0  0  0  0
  -21.6850   -6.0728   22.5285 C   0  0  0  0  0  0
  -21.4014   -6.5626   23.8212 C   0  0  0  0  0  0
  -21.3666   -5.6783   24.9181 C   0  0  0  0  0  0
  -21.6044   -4.3042   24.7228 C   0  0  0  0  0  0
  -21.8817   -3.8140   23.4355 C   0  0  0  0  0  0
  -21.9192   -4.6946   22.3411 C   0  0  0  0  0  0
  -22.7844  -13.5208   21.1822 C   0  0  0  0  0  0
  -22.1650   -4.2142   21.0991 F   0  0  0  0  0  0
  -21.5634   -3.4530   25.7749 F   0  0  0  0  0  0
  -30.0280  -13.3048   20.4255 N   0  0  0  0  0  0
  -26.3006  -12.9318   20.3281 N   0  0  0  0  0  0
  -25.9325  -11.6483   20.5728 N   0  0  0  0  0  0
  -22.0467  -12.8249   22.0408 N   0  0  0  0  0  0
  -25.4264  -15.1869   20.4125 N   0  0  0  0  0  0
  -31.8418  -14.6655   20.1866 O   0  0  0  0  0  0
  -21.6630   -6.8869   21.4243 O   0  0  0  0  0  0
  -22.3535  -14.5503   20.6636 O   0  0  0  0  0  0
  -24.6178  -31.8625   23.2090 C   0  0  0  0  0  0
  -25.9077  -32.4789   23.8353 C   0  0  1  0  0  0
  -27.2313  -27.4115   20.1086 C   0  0  0  0  0  0
  -25.5927  -33.8587   24.2275 N   0  0  0  0  0  0
  -23.4079  -30.4871   21.5468 C   0  0  2  0  0  0
  -24.8555  -28.9539   20.1129 C   0  0  0  0  0  0
  -22.7423  -29.4618   22.4947 C   0  0  0  0  0  0
  -18.0301  -28.1374   22.8519 C   0  0  0  0  0  0
  -24.1503  -36.7308   23.2641 C   0  0  0  0  0  0
  -25.9376  -30.8235   21.3672 C   0  0  0  0  0  0
  -26.0152  -29.4591   20.7121 C   0  0  0  0  0  0
  -27.2082  -28.6954   20.7041 C   0  0  0  0  0  0
  -26.0522  -26.9287   19.4986 C   0  0  0  0  0  0
  -24.8684  -27.6902   19.5014 C   0  0  0  0  0  0
  -23.6205  -29.8232   20.1598 C   0  0  0  0  0  0
  -25.4133  -36.3094   24.0318 C   0  0  1  0  0  0
  -20.5900  -28.3646   23.1321 C   0  0  2  0  0  0
  -20.6792  -26.9367   22.5429 C   0  0  0  0  0  0
  -19.5747  -26.6357   21.5238 C   0  0  0  0  0  0
  -18.1930  -26.7931   22.1630 C   0  0  0  0  0  0
  -19.1558  -28.8816   23.2953 C   0  0  0  0  0  0
  -18.9477  -30.1421   23.8962 C   0  0  0  0  0  0
  -17.6493  -30.6577   24.0597 C   0  0  0  0  0  0
  -25.9038  -34.9458   23.5084 C   0  0  0  0  0  0
  -16.5383  -29.9105   23.6329 C   0  0  0  0  0  0
  -16.7296  -28.6523   23.0329 C   0  0  0  0  0  0
  -26.4511  -31.6580   25.0699 C   0  0  0  0  0  0
  -25.3775  -31.3696   26.1454 C   0  0  0  0  0  0
  -27.0334  -30.3009   24.6065 C   0  0  0  0  0  0
  -27.6069  -32.4319   25.7474 C   0  0  0  0  0  0
  -27.5586  -37.1811   24.8457 C   0  0  0  0  0  0
  -21.4139  -29.3020   22.3691 N   0  0  0  0  0  0
  -26.4307  -37.3790   23.9389 N   0  0  0  0  0  0
  -24.6727  -31.0713   22.1007 N   0  0  0  0  0  0
  -23.4163  -28.8155   23.3012 O   0  0  0  0  0  0
  -28.3855  -26.6487   20.1360 O   0  0  0  0  0  0
  -26.5580  -34.8928   22.4630 O   0  0  0  0  0  0
  -23.5367  -32.1374   23.7489 O   0  0  0  0  0  0
  -29.8942  -20.9994   21.3137 C   0  0  0  0  0  0
  -29.0242  -22.0357   21.5631 C   0  0  0  0  0  0
  -27.7454  -21.4075   21.4922 C   0  0  0  0  0  0
  -25.7622  -21.5207   23.0340 C   0  0  0  0  0  0
  -25.4483  -21.7976   20.5179 C   0  0  0  0  0  0
  -31.0773  -18.6468   23.1291 C   0  0  0  0  0  0
  -32.0621  -17.9744   20.9418 C   0  0  0  0  0  0
  -29.3400  -23.4647   21.9906 C   0  0  0  0  0  0
  -29.5029  -24.5672   20.9038 C   0  0  0  0  0  0
  -29.5652  -18.4108   21.0336 C   0  0  0  0  0  0
  -30.6376  -16.3682   22.2889 C   0  0  0  0  0  0
  -28.2046  -25.2363   20.3895 C   0  0  0  0  0  0
  -26.3812  -22.0193   21.7192 C   0  0  0  0  0  0
  -30.8047  -17.8574   21.8268 C   0  0  0  0  0  0
  -27.8424  -20.0989   21.2858 N   0  0  0  0  0  0
  -29.1630  -19.8201   21.2333 N   0  0  0  0  0  0
  -30.0578  -15.3813   21.3662 N   0  0  0  0  0  0
  -31.4711  -12.4637   19.0900 H   0  0  0  0  0  0
  -30.3621  -11.3180   19.7880 H   0  0  0  0  0  0
  -29.7409  -11.7959   17.4086 H   0  0  0  0  0  0
  -29.6533  -13.5044   17.7520 H   0  0  0  0  0  0
  -27.8297  -11.3137   18.7931 H   0  0  0  0  0  0
  -27.3658  -12.6499   17.7758 H   0  0  0  0  0  0
  -27.7051  -14.2574   19.5775 H   0  0  0  0  0  0
  -28.6936  -11.9266   21.2846 H   0  0  0  0  0  0
  -28.4511  -13.5365   21.8775 H   0  0  0  0  0  0
  -25.2749   -9.5685   22.4741 H   0  0  0  0  0  0
  -23.9990   -7.4637   22.7468 H   0  0  0  0  0  0
  -21.0824   -8.8743   19.8960 H   0  0  0  0  0  0
  -22.3657  -10.9646   19.6159 H   0  0  0  0  0  0
  -21.2002   -7.6135   23.9719 H   0  0  0  0  0  0
  -21.1492   -6.0511   25.9079 H   0  0  0  0  0  0
  -22.0599   -2.7597   23.2854 H   0  0  0  0  0  0
  -22.4061  -11.9943   22.4879 H   0  0  0  0  0  0
  -21.1074  -13.1275   22.2529 H   0  0  0  0  0  0
  -24.6566  -15.8356   20.5428 H   0  0  0  0  0  0
  -26.2768  -15.6388   20.0986 H   0  0  0  0  0  0
  -26.7126  -32.5478   23.1087 H   0  0  0  0  0  0
  -25.0177  -33.9710   25.0493 H   0  0  0  0  0  0
  -22.7002  -31.3067   21.4026 H   0  0  0  0  0  0
  -23.3742  -35.9656   23.3317 H   0  0  0  0  0  0
  -24.3614  -36.8910   22.2050 H   0  0  0  0  0  0
  -23.7258  -37.6526   23.6644 H   0  0  0  0  0  0
  -26.0504  -31.5907   20.6013 H   0  0  0  0  0  0
  -26.8258  -30.8738   21.9847 H   0  0  0  0  0  0
  -28.1052  -29.0696   21.1765 H   0  0  0  0  0  0
  -26.0336  -25.9628   19.0152 H   0  0  0  0  0  0
  -23.9752  -27.2939   19.0380 H   0  0  0  0  0  0
  -23.7416  -30.5990   19.4018 H   0  0  0  0  0  0
  -22.7426  -29.2472   19.8603 H   0  0  0  0  0  0
  -25.1322  -36.1954   25.0805 H   0  0  0  0  0  0
  -21.0028  -28.3197   24.1428 H   0  0  0  0  0  0
  -20.5766  -26.2189   23.3594 H   0  0  0  0  0  0
  -21.6648  -26.7436   22.1175 H   0  0  0  0  0  0
  -19.6883  -25.6275   21.1227 H   0  0  0  0  0  0
  -19.6692  -27.3173   20.6769 H   0  0  0  0  0  0
  -17.4215  -26.6745   21.4017 H   0  0  0  0  0  0
  -18.0289  -26.0082   22.9008 H   0  0  0  0  0  0
  -19.7964  -30.7223   24.2354 H   0  0  0  0  0  0
  -17.5055  -31.6249   24.5210 H   0  0  0  0  0  0
  -15.5387  -30.3009   23.7676 H   0  0  0  0  0  0
  -15.8689  -28.0888   22.6970 H   0  0  0  0  0  0
  -24.5930  -30.7058   25.7806 H   0  0  0  0  0  0
  -24.9009  -32.2867   26.4917 H   0  0  0  0  0  0
  -25.8165  -30.8854   27.0180 H   0  0  0  0  0  0
  -26.2850  -29.6748   24.1171 H   0  0  0  0  0  0
  -27.4163  -29.7283   25.4518 H   0  0  0  0  0  0
  -27.8682  -30.4327   23.9171 H   0  0  0  0  0  0
  -27.2637  -33.3581   26.2086 H   0  0  0  0  0  0
  -28.3875  -32.6914   25.0315 H   0  0  0  0  0  0
  -28.0725  -31.8410   26.5361 H   0  0  0  0  0  0
  -28.2613  -38.0107   24.7521 H   0  0  0  0  0  0
  -28.1080  -36.2630   24.6287 H   0  0  0  0  0  0
  -27.2290  -37.1483   25.8862 H   0  0  0  0  0  0
  -20.9259  -29.8733   21.6931 H   0  0  0  0  0  0
  -26.0185  -38.2863   24.1400 H   0  0  0  0  0  0
  -30.9731  -20.9932   21.2692 H   0  0  0  0  0  0
  -26.4154  -21.7421   23.8781 H   0  0  0  0  0  0
  -25.5954  -20.4425   23.0115 H   0  0  0  0  0  0
  -24.8020  -21.9982   23.2244 H   0  0  0  0  0  0
  -25.8783  -22.2143   19.6071 H   0  0  0  0  0  0
  -24.4786  -22.2687   20.6791 H   0  0  0  0  0  0
  -25.2715  -20.7356   20.3449 H   0  0  0  0  0  0
  -31.4832  -19.6400   22.9522 H   0  0  0  0  0  0
  -31.8115  -18.1392   23.7570 H   0  0  0  0  0  0
  -30.1708  -18.7553   23.7263 H   0  0  0  0  0  0
  -32.2453  -19.0049   20.6388 H   0  0  0  0  0  0
  -31.9736  -17.3831   20.0307 H   0  0  0  0  0  0
  -32.9530  -17.6296   21.4698 H   0  0  0  0  0  0
  -30.2781  -23.4388   22.5416 H   0  0  0  0  0  0
  -28.6175  -23.8004   22.7360 H   0  0  0  0  0  0
  -30.1352  -24.2286   20.0827 H   0  0  0  0  0  0
  -30.0669  -25.3702   21.3842 H   0  0  0  0  0  0
  -28.7013  -17.7951   21.2893 H   0  0  0  0  0  0
  -29.7054  -18.2569   19.9624 H   0  0  0  0  0  0
  -29.9798  -16.3510   23.1611 H   0  0  0  0  0  0
  -31.5901  -15.9833   22.6593 H   0  0  0  0  0  0
  -27.4229  -25.1134   21.1392 H   0  0  0  0  0  0
  -27.8727  -24.7172   19.4897 H   0  0  0  0  0  0
  -26.4998  -23.0974   21.8208 H   0  0  0  0  0  0
  -29.0944  -15.1429   21.5511 H   0  0  0  0  0  0
  1 25  1  0  0  0
  1 30  2  0  0  0
  1 87  1  0  0  0
  2  3  1  0  0  0
  2 25  1  0  0  0
  2 88  1  0  0  0
  2 89  1  0  0  0
  3  4  1  0  0  0
  3 90  1  0  0  0
  3 91  1  0  0  0
  4  5  1  0  0  0
  4 92  1  0  0  0
  4 93  1  0  0  0
  5  6  1  0  0  0
  5 26  1  0  0  0
  5 94  1  0  0  0
  6 25  1  0  0  0
  6 95  1  0  0  0
  6 96  1  0  0  0
  7  8  2  0  0  0
  7 26  1  0  0  0
  7 29  1  0  0  0
  8  9  1  0  0  0
  8 22  1  0  0  0
  9 10  1  0  0  0
  9 27  2  0  0  0
 10 11  2  0  0  0
 10 15  1  0  0  0
 11 12  1  0  0  0
 11 97  1  0  0  0
 12 13  2  0  0  0
 12 98  1  0  0  0
 13 14  1  0  0  0
 13 31  1  0  0  0
 14 15  2  0  0  0
 14 99  1  0  0  0
 15100  1  0  0  0
 16 17  2  0  0  0
 16 21  1  0  0  0
 16 31  1  0  0  0
 17 18  1  0  0  0
 17101  1  0  0  0
 18 19  2  0  0  0
 18102  1  0  0  0
 19 20  1  0  0  0
 19 24  1  0  0  0
 20 21  2  0  0  0
 20103  1  0  0  0
 21 23  1  0  0  0
 22 28  1  0  0  0
 22 32  2  0  0  0
 26 27  1  0  0  0
 28104  1  0  0  0
 28105  1  0  0  0
 29106  1  0  0  0
 29107  1  0  0  0
 33 34  1  0  0  0
 33 66  1  0  0  0
 33 70  2  0  0  0
 34 36  1  0  0  0
 34 59  1  0  0  0
 34108  1  0  0  0
 35 44  2  0  0  0
 35 45  1  0  0  0
 35 68  1  0  0  0
 36 56  1  0  0  0
 36109  1  0  0  0
 37 39  1  0  0  0
 37 47  1  0  0  0
 37 66  1  0  0  0
 37110  1  0  0  0
 38 43  2  0  0  0
 38 46  1  0  0  0
 38 47  1  0  0  0
 39 64  1  0  0  0
 39 67  2  0  0  0
 40 52  1  0  0  0
 40 53  2  0  0  0
 40 58  1  0  0  0
 41111  1  0  0  0
 41112  1  0  0  0
 41113  1  0  0  0
 41 48  1  0  0  0
 42 43  1  0  0  0
 42 66  1  0  0  0
 42114  1  0  0  0
 42115  1  0  0  0
 43 44  1  0  0  0
 44116  1  0  0  0
 45 46  2  0  0  0
 45117  1  0  0  0
 46118  1  0  0  0
 47119  1  0  0  0
 47120  1  0  0  0
 48 56  1  0  0  0
 48 65  1  0  0  0
 48121  1  0  0  0
 49 50  1  0  0  0
 49 53  1  0  0  0
 49 64  1  0  0  0
 49122  1  0  0  0
 50 51  1  0  0  0
 50123  1  0  0  0
 50124  1  0  0  0
 51 52  1  0  0  0
 51125  1  0  0  0
 51126  1  0  0  0
 52127  1  0  0  0
 52128  1  0  0  0
 53 54  1  0  0  0
 54 55  2  0  0  0
 54129  1  0  0  0
 55 57  1  0  0  0
 55130  1  0  0  0
 56 69  2  0  0  0
 57 58  2  0  0  0
 57131  1  0  0  0
 58132  1  0  0  0
 59 60  1  0  0  0
 59 61  1  0  0  0
 59 62  1  0  0  0
 60133  1  0  0  0
 60134  1  0  0  0
 60135  1  0  0  0
 61136  1  0  0  0
 61137  1  0  0  0
 61138  1  0  0  0
 62139  1  0  0  0
 62140  1  0  0  0
 62141  1  0  0  0
 63 65  1  0  0  0
 63142  1  0  0  0
 63143  1  0  0  0
 63144  1  0  0  0
 64145  1  0  0  0
 65146  1  0  0  0
 68 82  1  0  0  0
 71 72  2  0  0  0
 71 86  1  0  0  0
 71147  1  0  0  0
 72 73  1  0  0  0
 72 78  1  0  0  0
 73 83  1  0  0  0
 73 85  2  0  0  0
 74148  1  0  0  0
 74149  1  0  0  0
 74150  1  0  0  0
 74 83  1  0  0  0
 75 83  1  0  0  0
 75151  1  0  0  0
 75152  1  0  0  0
 75153  1  0  0  0
 76154  1  0  0  0
 76155  1  0  0  0
 76156  1  0  0  0
 76 84  1  0  0  0
 77 84  1  0  0  0
 77157  1  0  0  0
 77158  1  0  0  0
 77159  1  0  0  0
 78 79  1  0  0  0
 78160  1  0  0  0
 78161  1  0  0  0
 79 82  1  0  0  0
 79162  1  0  0  0
 79163  1  0  0  0
 80 84  1  0  0  0
 80 86  1  0  0  0
 80164  1  0  0  0
 80165  1  0  0  0
 81 84  1  0  0  0
 81 87  1  0  0  0
 81166  1  0  0  0
 81167  1  0  0  0
 82168  1  0  0  0
 82169  1  0  0  0
 83170  1  0  0  0
 85 86  1  0  0  0
 87171  1  0  0  0
M  ISO  4   1 100  68 101  82 101  87 100
M  END
> <chiral flag>
0

> <version>
0

> <s_m_source_file>
/data/baiqing/PycharmProjects/Reinvent-master-3.2/result/LINK_invent/BTK/process_docking_weight1_custom_sum_contain_oxygen_bond_distance_aromatic_linkinvent_7_9_3/rearranged_h_0089.sdf

> <i_m_source_file_index>
74

> <r_mmod_Potential_Energy-OPLS-2005>
-79.3222961425781

> <r_mmod_Stretch_Energy-OPLS-2005>
41.9862251281738

> <r_mmod_Bend_Energy-OPLS-2005>
126.106971740723

> <r_mmod_Torsional_Energy-OPLS-2005>
242.642471313477

> <r_mmod_Improper_Torsional_Energy-OPLS-2005>
4.21989774703979

> <r_mmod_Van_der_Waal_Energy-OPLS-2005>
124.184959411621

> <r_mmod_Electrostatic_Energy-OPLS-2005>
-430.550140380859

> <r_mmod_Solvation_Energy-OPLS-2005>
-203.688018798828

> <b_mmod_Minimization_Converged-OPLS-2005>
0

> <r_mmod_RMS_Derivative-OPLS-2005>
3.39030838012695

$$$$
75
                    3D
 Structure written by MMmdl.
163171  0  0  1  0            999 V2000
  -30.7471  -14.4142   20.5878 C   0  0  0  0  0  0
  -30.4081  -12.2746   19.4259 C   0  0  0  0  0  0
  -29.4885  -12.5022   18.2094 C   0  0  0  0  0  0
  -28.0108  -12.3693   18.6231 C   0  0  0  0  0  0
  -27.6638  -13.2079   19.8830 C   0  0  2  0  0  0
  -28.7048  -12.9866   21.0063 C   0  0  0  0  0  0
  -25.2602  -13.8170   20.5712 C   0  0  0  0  0  0
  -24.1840  -13.0444   20.9177 C   0  0  0  0  0  0
  -24.6383  -11.6901   20.8741 C   0  0  0  0  0  0
  -23.9042  -10.4294   21.0400 C   0  0  0  0  0  0
  -24.3596   -9.4222   21.9179 C   0  0  0  0  0  0
  -23.6282   -8.2253   22.0749 C   0  0  0  0  0  0
  -22.4265   -8.0286   21.3548 C   0  0  0  0  0  0
  -21.9898   -9.0247   20.4642 C   0  0  0  0  0  0
  -22.7213  -10.2133   20.3054 C   0  0  0  0  0  0
  -21.6865   -6.0740   22.5275 C   0  0  0  0  0  0
  -21.4010   -6.5637   23.8208 C   0  0  0  0  0  0
  -21.3659   -5.6789   24.9168 C   0  0  0  0  0  0
  -21.6055   -4.3055   24.7218 C   0  0  0  0  0  0
  -21.8819   -3.8144   23.4336 C   0  0  0  0  0  0
  -21.9183   -4.6964   22.3394 C   0  0  0  0  0  0
  -22.7868  -13.5256   21.1830 C   0  0  0  0  0  0
  -22.1665   -4.2146   21.0980 F   0  0  0  0  0  0
  -21.5624   -3.4538   25.7734 F   0  0  0  0  0  0
  -30.0436  -13.2592   20.4558 N   0  0  0  0  0  0
  -26.3035  -12.9324   20.3420 N   0  0  0  0  0  0
  -25.9321  -11.6480   20.5790 N   0  0  0  0  0  0
  -22.0499  -12.8262   22.0381 N   0  0  0  0  0  0
  -25.4366  -15.1878   20.4147 N   0  0  0  0  0  0
  -31.8540  -14.5902   20.0723 O   0  0  0  0  0  0
  -21.6647   -6.8876   21.4233 O   0  0  0  0  0  0
  -22.3567  -14.5570   20.6683 O   0  0  0  0  0  0
  -24.6125  -31.8698   23.2094 C   0  0  0  0  0  0
  -25.9037  -32.4833   23.8390 C   0  0  1  0  0  0
  -27.2359  -27.4660   20.0808 C   0  0  0  0  0  0
  -25.5948  -33.8641   24.2334 N   0  0  0  0  0  0
  -23.3975  -30.4960   21.5472 C   0  0  2  0  0  0
  -24.8463  -28.9704   20.1039 C   0  0  0  0  0  0
  -22.7385  -29.4676   22.4951 C   0  0  0  0  0  0
  -18.0265  -28.1387   22.8469 C   0  0  0  0  0  0
  -24.1493  -36.7304   23.2639 C   0  0  0  0  0  0
  -25.9250  -30.8465   21.3556 C   0  0  0  0  0  0
  -26.0048  -29.4863   20.6970 C   0  0  0  0  0  0
  -27.2049  -28.7442   20.6769 C   0  0  0  0  0  0
  -26.0639  -26.9620   19.4710 C   0  0  0  0  0  0
  -24.8705  -27.7085   19.4857 C   0  0  0  0  0  0
  -23.6057  -29.8316   20.1607 C   0  0  0  0  0  0
  -25.4111  -36.3110   24.0325 C   0  0  1  0  0  0
  -20.5860  -28.3669   23.1313 C   0  0  2  0  0  0
  -20.6783  -26.9409   22.5404 C   0  0  0  0  0  0
  -19.5763  -26.6382   21.5203 C   0  0  0  0  0  0
  -18.1926  -26.7927   22.1591 C   0  0  0  0  0  0
  -19.1523  -28.8829   23.2899 C   0  0  0  0  0  0
  -18.9453  -30.1436   23.8900 C   0  0  0  0  0  0
  -17.6457  -30.6590   24.0544 C   0  0  0  0  0  0
  -25.9042  -34.9479   23.5103 C   0  0  0  0  0  0
  -16.5357  -29.9085   23.6320 C   0  0  0  0  0  0
  -16.7260  -28.6513   23.0325 C   0  0  0  0  0  0
  -26.4461  -31.6617   25.0712 C   0  0  0  0  0  0
  -25.3717  -31.3764   26.1465 C   0  0  0  0  0  0
  -27.0273  -30.3066   24.6059 C   0  0  0  0  0  0
  -27.6042  -32.4318   25.7478 C   0  0  0  0  0  0
  -27.5556  -37.1813   24.8465 C   0  0  0  0  0  0
  -21.4114  -29.3045   22.3708 N   0  0  0  0  0  0
  -26.4281  -37.3800   23.9403 N   0  0  0  0  0  0
  -24.6636  -31.0846   22.0974 N   0  0  0  0  0  0
  -23.4169  -28.8210   23.2968 O   0  0  0  0  0  0
  -28.3926  -26.7231   20.1457 O   0  0  0  0  0  0
  -26.5572  -34.8926   22.4642 O   0  0  0  0  0  0
  -23.5318  -32.1446   23.7498 O   0  0  0  0  0  0
  -29.7251  -21.6397   21.5153 C   0  0  0  0  0  0
  -29.5409  -22.7353   22.3901 C   0  0  0  0  0  0
  -29.1969  -20.3854   21.8921 C   0  0  0  0  0  0
  -28.8492  -22.4617   23.6002 C   0  0  0  0  0  0
  -28.6890  -23.4810   24.7147 C   0  0  0  0  0  0
  -27.4643  -25.3398   21.9541 C   0  0  0  0  0  0
  -30.1442  -24.1040   22.0558 C   0  0  0  0  0  0
  -29.3883  -19.1525   21.0171 C   0  0  0  0  0  0
  -29.6883  -24.7595   20.7213 C   0  0  0  0  0  0
  -29.7376  -17.8574   21.7944 C   0  0  0  0  0  0
  -30.4961  -16.8310   20.9330 C   0  0  0  0  0  0
  -28.2604  -25.3738   20.6301 C   0  0  1  0  0  0
  -28.4674  -20.2240   23.0232 N   0  0  0  0  0  0
  -28.3172  -21.2437   23.8724 N   0  0  0  0  0  0
  -30.1030  -15.4370   21.1683 N   0  0  0  0  0  0
  -31.4568  -12.3361   19.1330 H   0  0  0  0  0  0
  -30.2722  -11.2648   19.8184 H   0  0  0  0  0  0
  -29.7200  -11.7854   17.4219 H   0  0  0  0  0  0
  -29.6681  -13.4920   17.7868 H   0  0  0  0  0  0
  -27.8178  -11.3128   18.8163 H   0  0  0  0  0  0
  -27.3597  -12.6481   17.7951 H   0  0  0  0  0  0
  -27.7123  -14.2563   19.5868 H   0  0  0  0  0  0
  -28.6656  -11.9566   21.3637 H   0  0  0  0  0  0
  -28.4756  -13.6035   21.8759 H   0  0  0  0  0  0
  -25.2731   -9.5713   22.4765 H   0  0  0  0  0  0
  -23.9991   -7.4654   22.7480 H   0  0  0  0  0  0
  -21.0830   -8.8762   19.8957 H   0  0  0  0  0  0
  -22.3658  -10.9673   19.6175 H   0  0  0  0  0  0
  -21.2016   -7.6146   23.9708 H   0  0  0  0  0  0
  -21.1487   -6.0525   25.9074 H   0  0  0  0  0  0
  -22.0597   -2.7604   23.2840 H   0  0  0  0  0  0
  -22.4088  -11.9916   22.4774 H   0  0  0  0  0  0
  -21.1126  -13.1311   22.2582 H   0  0  0  0  0  0
  -24.6774  -15.8502   20.5304 H   0  0  0  0  0  0
  -26.3009  -15.6230   20.1170 H   0  0  0  0  0  0
  -26.7081  -32.5520   23.1139 H   0  0  0  0  0  0
  -25.0241  -33.9830   25.0568 H   0  0  0  0  0  0
  -22.6844  -31.3118   21.4064 H   0  0  0  0  0  0
  -23.3744  -35.9651   23.3327 H   0  0  0  0  0  0
  -24.3603  -36.8890   22.2051 H   0  0  0  0  0  0
  -23.7259  -37.6517   23.6645 H   0  0  0  0  0  0
  -26.0304  -31.6161   20.5898 H   0  0  0  0  0  0
  -26.8180  -30.9039   21.9654 H   0  0  0  0  0  0
  -28.1009  -29.1348   21.1410 H   0  0  0  0  0  0
  -26.0637  -25.9947   18.9901 H   0  0  0  0  0  0
  -23.9801  -27.3091   19.0191 H   0  0  0  0  0  0
  -23.7111  -30.6076   19.4016 H   0  0  0  0  0  0
  -22.7311  -29.2522   19.8619 H   0  0  0  0  0  0
  -25.1293  -36.1943   25.0814 H   0  0  0  0  0  0
  -20.9945  -28.3252   24.1428 H   0  0  0  0  0  0
  -20.5696  -26.2263   23.3582 H   0  0  0  0  0  0
  -21.6646  -26.7475   22.1174 H   0  0  0  0  0  0
  -19.6938  -25.6304   21.1216 H   0  0  0  0  0  0
  -19.6726  -27.3186   20.6736 H   0  0  0  0  0  0
  -17.4200  -26.6656   21.3982 H   0  0  0  0  0  0
  -18.0329  -26.0090   22.8991 H   0  0  0  0  0  0
  -19.7943  -30.7236   24.2266 H   0  0  0  0  0  0
  -17.5039  -31.6272   24.5148 H   0  0  0  0  0  0
  -15.5361  -30.2990   23.7679 H   0  0  0  0  0  0
  -15.8645  -28.0849   22.7019 H   0  0  0  0  0  0
  -24.5852  -30.7155   25.7816 H   0  0  0  0  0  0
  -24.8956  -32.2946   26.4921 H   0  0  0  0  0  0
  -25.8045  -30.8909   27.0218 H   0  0  0  0  0  0
  -26.2802  -29.6861   24.1099 H   0  0  0  0  0  0
  -27.4075  -29.7280   25.4493 H   0  0  0  0  0  0
  -27.8629  -30.4410   23.9179 H   0  0  0  0  0  0
  -27.2705  -33.3652   26.2029 H   0  0  0  0  0  0
  -28.3899  -32.6838   25.0332 H   0  0  0  0  0  0
  -28.0662  -31.8438   26.5429 H   0  0  0  0  0  0
  -28.2601  -38.0087   24.7510 H   0  0  0  0  0  0
  -28.1021  -36.2619   24.6290 H   0  0  0  0  0  0
  -27.2283  -37.1464   25.8877 H   0  0  0  0  0  0
  -20.9232  -29.8781   21.6966 H   0  0  0  0  0  0
  -26.0148  -38.2864   24.1415 H   0  0  0  0  0  0
  -30.2732  -21.7534   20.5906 H   0  0  0  0  0  0
  -28.0203  -24.2888   24.4309 H   0  0  0  0  0  0
  -29.6546  -23.9023   24.9861 H   0  0  0  0  0  0
  -28.2742  -23.0167   25.6106 H   0  0  0  0  0  0
  -27.9659  -25.9056   22.7407 H   0  0  0  0  0  0
  -27.3111  -24.3179   22.2878 H   0  0  0  0  0  0
  -26.4608  -25.7574   21.8561 H   0  0  0  0  0  0
  -31.2227  -23.9479   21.9936 H   0  0  0  0  0  0
  -30.0193  -24.8159   22.8712 H   0  0  0  0  0  0
  -30.1869  -19.3799   20.3099 H   0  0  0  0  0  0
  -28.4874  -19.0008   20.4210 H   0  0  0  0  0  0
  -30.4024  -25.5608   20.5255 H   0  0  0  0  0  0
  -29.8398  -24.0640   19.8951 H   0  0  0  0  0  0
  -28.8244  -17.4321   22.2122 H   0  0  0  0  0  0
  -30.3766  -18.1032   22.6453 H   0  0  0  0  0  0
  -31.5681  -16.9502   21.1047 H   0  0  0  0  0  0
  -30.3355  -17.0376   19.8732 H   0  0  0  0  0  0
  -27.7118  -24.7907   19.8889 H   0  0  0  0  0  0
  -29.1970  -15.2502   21.5718 H   0  0  0  0  0  0
  1 25  1  0  0  0
  1 30  2  0  0  0
  1 85  1  0  0  0
  2  3  1  0  0  0
  2 25  1  0  0  0
  2 86  1  0  0  0
  2 87  1  0  0  0
  3  4  1  0  0  0
  3 88  1  0  0  0
  3 89  1  0  0  0
  4  5  1  0  0  0
  4 90  1  0  0  0
  4 91  1  0  0  0
  5  6  1  0  0  0
  5 26  1  0  0  0
  5 92  1  0  0  0
  6 25  1  0  0  0
  6 93  1  0  0  0
  6 94  1  0  0  0
  7  8  2  0  0  0
  7 26  1  0  0  0
  7 29  1  0  0  0
  8  9  1  0  0  0
  8 22  1  0  0  0
  9 10  1  0  0  0
  9 27  2  0  0  0
 10 11  2  0  0  0
 10 15  1  0  0  0
 11 12  1  0  0  0
 11 95  1  0  0  0
 12 13  2  0  0  0
 12 96  1  0  0  0
 13 14  1  0  0  0
 13 31  1  0  0  0
 14 15  2  0  0  0
 14 97  1  0  0  0
 15 98  1  0  0  0
 16 17  2  0  0  0
 16 21  1  0  0  0
 16 31  1  0  0  0
 17 18  1  0  0  0
 17 99  1  0  0  0
 18 19  2  0  0  0
 18100  1  0  0  0
 19 20  1  0  0  0
 19 24  1  0  0  0
 20 21  2  0  0  0
 20101  1  0  0  0
 21 23  1  0  0  0
 22 28  1  0  0  0
 22 32  2  0  0  0
 26 27  1  0  0  0
 28102  1  0  0  0
 28103  1  0  0  0
 29104  1  0  0  0
 29105  1  0  0  0
 33 34  1  0  0  0
 33 66  1  0  0  0
 33 70  2  0  0  0
 34 36  1  0  0  0
 34 59  1  0  0  0
 34106  1  0  0  0
 35 44  2  0  0  0
 35 45  1  0  0  0
 35 68  1  0  0  0
 36 56  1  0  0  0
 36107  1  0  0  0
 37 39  1  0  0  0
 37 47  1  0  0  0
 37 66  1  0  0  0
 37108  1  0  0  0
 38 43  2  0  0  0
 38 46  1  0  0  0
 38 47  1  0  0  0
 39 64  1  0  0  0
 39 67  2  0  0  0
 40 52  1  0  0  0
 40 53  2  0  0  0
 40 58  1  0  0  0
 41109  1  0  0  0
 41110  1  0  0  0
 41111  1  0  0  0
 41 48  1  0  0  0
 42 43  1  0  0  0
 42 66  1  0  0  0
 42112  1  0  0  0
 42113  1  0  0  0
 43 44  1  0  0  0
 44114  1  0  0  0
 45 46  2  0  0  0
 45115  1  0  0  0
 46116  1  0  0  0
 47117  1  0  0  0
 47118  1  0  0  0
 48 56  1  0  0  0
 48 65  1  0  0  0
 48119  1  0  0  0
 49 50  1  0  0  0
 49 53  1  0  0  0
 49 64  1  0  0  0
 49120  1  0  0  0
 50 51  1  0  0  0
 50121  1  0  0  0
 50122  1  0  0  0
 51 52  1  0  0  0
 51123  1  0  0  0
 51124  1  0  0  0
 52125  1  0  0  0
 52126  1  0  0  0
 53 54  1  0  0  0
 54 55  2  0  0  0
 54127  1  0  0  0
 55 57  1  0  0  0
 55128  1  0  0  0
 56 69  2  0  0  0
 57 58  2  0  0  0
 57129  1  0  0  0
 58130  1  0  0  0
 59 60  1  0  0  0
 59 61  1  0  0  0
 59 62  1  0  0  0
 60131  1  0  0  0
 60132  1  0  0  0
 60133  1  0  0  0
 61134  1  0  0  0
 61135  1  0  0  0
 61136  1  0  0  0
 62137  1  0  0  0
 62138  1  0  0  0
 62139  1  0  0  0
 63 65  1  0  0  0
 63140  1  0  0  0
 63141  1  0  0  0
 63142  1  0  0  0
 64143  1  0  0  0
 65144  1  0  0  0
 68 82  1  0  0  0
 71 72  2  0  0  0
 71 73  1  0  0  0
 71145  1  0  0  0
 72 74  1  0  0  0
 72 77  1  0  0  0
 73 78  1  0  0  0
 73 83  2  0  0  0
 74 75  1  0  0  0
 74 84  2  0  0  0
 75146  1  0  0  0
 75147  1  0  0  0
 75148  1  0  0  0
 76149  1  0  0  0
 76150  1  0  0  0
 76151  1  0  0  0
 76 82  1  0  0  0
 77 79  1  0  0  0
 77152  1  0  0  0
 77153  1  0  0  0
 78 80  1  0  0  0
 78154  1  0  0  0
 78155  1  0  0  0
 79 82  1  0  0  0
 79156  1  0  0  0
 79157  1  0  0  0
 80 81  1  0  0  0
 80158  1  0  0  0
 80159  1  0  0  0
 81 85  1  0  0  0
 81160  1  0  0  0
 81161  1  0  0  0
 82162  1  0  0  0
 83 84  1  0  0  0
 85163  1  0  0  0
M  ISO  4   1 100  68 101  82 101  85 100
M  END
> <chiral flag>
0

> <version>
0

> <s_m_source_file>
/data/baiqing/PycharmProjects/Reinvent-master-3.2/result/LINK_invent/BTK/process_docking_weight1_custom_sum_contain_oxygen_bond_distance_aromatic_linkinvent_7_9_3/rearranged_h_0089.sdf

> <i_m_source_file_index>
75

> <r_mmod_Potential_Energy-OPLS-2005>
-61.4737129211426

> <r_mmod_Stretch_Energy-OPLS-2005>
37.5553932189941

> <r_mmod_Bend_Energy-OPLS-2005>
102.068328857422

> <r_mmod_Torsional_Energy-OPLS-2005>
239.343338012695

> <r_mmod_Improper_Torsional_Energy-OPLS-2005>
4.55323314666748

> <r_mmod_Van_der_Waal_Energy-OPLS-2005>
168.435745239258

> <r_mmod_Electrostatic_Energy-OPLS-2005>
-395.408966064453

> <r_mmod_Solvation_Energy-OPLS-2005>
-229.530670166016

> <b_mmod_Minimization_Converged-OPLS-2005>
0

> <r_mmod_RMS_Derivative-OPLS-2005>
3.2974545955658

$$$$
76
                    3D
 Structure written by MMmdl.
179187  0  0  1  0            999 V2000
  -28.9401  -13.8320   21.1936 C   0  0  0  0  0  0
  -30.6081  -12.7271   19.4323 C   0  0  0  0  0  0
  -29.8896  -12.6161   18.0002 C   0  0  0  0  0  0
  -28.3759  -12.2362   17.9324 C   0  0  0  0  0  0
  -27.9259  -12.8856   19.1149 C   0  0  2  0  0  0
  -28.7136  -12.0316   20.2833 C   0  0  0  0  0  0
  -25.3568  -14.2515   20.0774 C   0  0  0  0  0  0
  -24.5182  -13.5067   21.3645 C   0  0  0  0  0  0
  -25.0840  -11.8395   21.5811 C   0  0  0  0  0  0
  -24.1483  -10.5791   21.4612 C   0  0  0  0  0  0
  -24.4798   -9.4215   22.1874 C   0  0  0  0  0  0
  -23.7083   -8.2316   22.1707 C   0  0  0  0  0  0
  -22.5345   -8.1179   21.3927 C   0  0  0  0  0  0
  -22.2195   -9.2089   20.5590 C   0  0  0  0  0  0
  -23.0158  -10.4050   20.5738 C   0  0  0  0  0  0
  -21.7030   -6.1302   22.4960 C   0  0  0  0  0  0
  -21.4085   -6.5977   23.8008 C   0  0  0  0  0  0
  -21.3604   -5.7015   24.8911 C   0  0  0  0  0  0
  -21.5994   -4.3300   24.6922 C   0  0  0  0  0  0
  -21.8826   -3.8538   23.3966 C   0  0  0  0  0  0
  -21.9251   -4.7433   22.3123 C   0  0  0  0  0  0
  -23.0056  -13.7300   21.3821 C   0  0  0  0  0  0
  -22.1765   -4.2597   21.0710 F   0  0  0  0  0  0
  -21.5546   -3.4704   25.7406 F   0  0  0  0  0  0
  -29.6800  -12.8437   20.6078 N   0  0  0  0  0  0
  -26.6154  -12.9326   19.4150 N   0  0  0  0  0  0
  -26.3257  -11.4950   20.5258 N   0  0  0  0  0  0
  -22.2394  -12.9322   22.1227 N   0  0  0  0  0  0
  -25.4456  -15.5969   19.8401 N   0  0  0  0  0  0
  -29.7477  -14.8199   21.0938 O   0  0  0  0  0  0
  -21.7249   -6.9839   21.4106 O   0  0  0  0  0  0
  -22.4899  -14.6260   20.7202 O   0  0  0  0  0  0
  -24.6318  -31.8625   23.2028 C   0  0  0  0  0  0
  -25.9090  -32.4813   23.8382 C   0  0  1  0  0  0
  -27.1527  -27.3049   20.1571 C   0  0  0  0  0  0
  -25.5909  -33.8635   24.2314 N   0  0  0  0  0  0
  -23.4212  -30.4855   21.5490 C   0  0  2  0  0  0
  -24.8519  -28.9634   20.0975 C   0  0  0  0  0  0
  -22.7512  -29.4594   22.4939 C   0  0  0  0  0  0
  -18.0232  -28.1391   22.8452 C   0  0  0  0  0  0
  -24.1461  -36.7333   23.2644 C   0  0  0  0  0  0
  -25.9591  -30.8098   21.3608 C   0  0  0  0  0  0
  -26.0337  -29.4360   20.7006 C   0  0  0  0  0  0
  -27.1948  -28.6195   20.7025 C   0  0  0  0  0  0
  -25.9826  -26.8894   19.5000 C   0  0  0  0  0  0
  -24.8386  -27.7003   19.4757 C   0  0  0  0  0  0
  -23.6262  -29.8393   20.1537 C   0  0  0  0  0  0
  -25.4091  -36.3163   24.0346 C   0  0  1  0  0  0
  -20.5856  -28.3665   23.1294 C   0  0  2  0  0  0
  -20.6757  -26.9390   22.5421 C   0  0  0  0  0  0
  -19.5741  -26.6365   21.5228 C   0  0  0  0  0  0
  -18.1899  -26.7919   22.1611 C   0  0  0  0  0  0
  -19.1488  -28.8843   23.2862 C   0  0  0  0  0  0
  -18.9428  -30.1443   23.8873 C   0  0  0  0  0  0
  -17.6433  -30.6596   24.0543 C   0  0  0  0  0  0
  -25.9017  -34.9516   23.5140 C   0  0  0  0  0  0
  -16.5316  -29.9095   23.6354 C   0  0  0  0  0  0
  -16.7216  -28.6525   23.0351 C   0  0  0  0  0  0
  -26.4463  -31.6650   25.0768 C   0  0  0  0  0  0
  -25.3695  -31.3777   26.1483 C   0  0  0  0  0  0
  -27.0315  -30.3095   24.6223 C   0  0  0  0  0  0
  -27.6044  -32.4349   25.7512 C   0  0  0  0  0  0
  -27.5584  -37.1817   24.8462 C   0  0  0  0  0  0
  -21.4188  -29.3021   22.3713 N   0  0  0  0  0  0
  -26.4297  -37.3847   23.9424 N   0  0  0  0  0  0
  -24.6909  -31.0662   22.0953 N   0  0  0  0  0  0
  -23.4236  -28.8108   23.2973 O   0  0  0  0  0  0
  -28.1538  -26.3448   20.3203 O   0  0  0  0  0  0
  -26.5568  -34.8953   22.4699 O   0  0  0  0  0  0
  -23.5427  -32.1406   23.7322 O   0  0  0  0  0  0
  -24.0324  -20.4522   20.6348 C   0  0  0  0  0  0
  -23.0929  -19.4496   21.0225 C   0  0  0  0  0  0
  -25.2344  -20.2456   21.2749 C   0  0  0  0  0  0
  -23.6850  -18.7792   22.0609 C   0  0  0  0  0  0
  -22.9868  -17.8983   23.0519 C   0  0  0  0  0  0
  -21.7727  -18.9356   18.8951 C   0  0  0  0  0  0
  -20.5820  -20.0474   20.8669 C   0  0  0  0  0  0
  -25.0204  -14.7209   24.3411 C   0  0  0  0  0  0
  -26.5202  -21.1137   21.0733 C   0  0  0  0  0  0
  -26.9500  -13.5043   21.5149 C   0  0  0  0  0  0
  -26.3992  -22.7239   21.1209 C   0  0  0  0  0  0
  -27.5186  -23.7061   20.4937 C   0  0  0  0  0  0
  -26.1606  -18.0299   22.3970 C   0  0  0  0  0  0
  -26.8525  -14.5443   22.7872 C   0  0  0  0  0  0
  -26.0322  -16.8920   23.5427 C   0  0  0  0  0  0
  -27.7251  -25.1665   21.1287 C   0  0  0  0  0  0
  -21.7228  -19.1196   20.4258 C   0  0  0  0  0  0
  -25.0727  -18.9953   21.9769 N   0  0  0  0  0  0
  -25.6676  -15.4370   23.1935 N   0  3  1  0  0  0
  -31.2945  -13.5781   19.4225 H   0  0  0  0  0  0
  -31.2466  -11.8479   19.5701 H   0  0  0  0  0  0
  -30.4494  -11.9531   17.3431 H   0  0  0  0  0  0
  -30.0057  -13.6069   17.5591 H   0  0  0  0  0  0
  -28.1876  -11.1601   17.9494 H   0  0  0  0  0  0
  -27.8896  -12.6398   17.0413 H   0  0  0  0  0  0
  -28.1718  -13.9435   18.9276 H   0  0  0  0  0  0
  -29.0917  -11.0754   19.9139 H   0  0  0  0  0  0
  -28.3966  -11.6108   21.2517 H   0  0  0  0  0  0
  -25.3449   -9.4486   22.8394 H   0  0  0  0  0  0
  -24.0264   -7.4146   22.8029 H   0  0  0  0  0  0
  -21.3553   -9.1527   19.9108 H   0  0  0  0  0  0
  -22.7364  -11.2194   19.9248 H   0  0  0  0  0  0
  -21.2168   -7.6475   23.9593 H   0  0  0  0  0  0
  -21.1308   -6.0733   25.8790 H   0  0  0  0  0  0
  -22.0600   -2.8017   23.2316 H   0  0  0  0  0  0
  -22.6018  -12.1505   22.6449 H   0  0  0  0  0  0
  -21.2350  -13.0572   22.1003 H   0  0  0  0  0  0
  -24.6099  -16.1666   19.8966 H   0  0  0  0  0  0
  -25.9733  -15.8736   19.0216 H   0  0  0  0  0  0
  -26.7208  -32.5451   23.1176 H   0  0  0  0  0  0
  -25.0145  -33.9843   25.0493 H   0  0  0  0  0  0
  -22.7178  -31.3075   21.4205 H   0  0  0  0  0  0
  -23.3758  -35.9631   23.3300 H   0  0  0  0  0  0
  -24.3585  -36.8935   22.2066 H   0  0  0  0  0  0
  -23.7124  -37.6507   23.6636 H   0  0  0  0  0  0
  -26.0861  -31.5873   20.6038 H   0  0  0  0  0  0
  -26.8455  -30.8523   21.9841 H   0  0  0  0  0  0
  -28.0919  -28.9750   21.1984 H   0  0  0  0  0  0
  -25.9335  -25.9087   19.0414 H   0  0  0  0  0  0
  -23.9358  -27.3332   19.0129 H   0  0  0  0  0  0
  -23.7444  -30.6299   19.4096 H   0  0  0  0  0  0
  -22.7407  -29.2772   19.8425 H   0  0  0  0  0  0
  -25.1243  -36.2105   25.0839 H   0  0  0  0  0  0
  -20.9892  -28.3218   24.1437 H   0  0  0  0  0  0
  -20.5726  -26.2248   23.3603 H   0  0  0  0  0  0
  -21.6626  -26.7478   22.1185 H   0  0  0  0  0  0
  -19.6952  -25.6281   21.1265 H   0  0  0  0  0  0
  -19.6736  -27.3163   20.6758 H   0  0  0  0  0  0
  -17.4203  -26.6597   21.3991 H   0  0  0  0  0  0
  -18.0306  -26.0075   22.9023 H   0  0  0  0  0  0
  -19.7900  -30.7243   24.2277 H   0  0  0  0  0  0
  -17.4988  -31.6280   24.5120 H   0  0  0  0  0  0
  -15.5320  -30.3005   23.7721 H   0  0  0  0  0  0
  -15.8587  -28.0869   22.7112 H   0  0  0  0  0  0
  -24.5829  -30.7190   25.7778 H   0  0  0  0  0  0
  -24.8936  -32.2943   26.4992 H   0  0  0  0  0  0
  -25.8026  -30.8875   27.0213 H   0  0  0  0  0  0
  -26.2903  -29.6817   24.1275 H   0  0  0  0  0  0
  -27.4035  -29.7416   25.4761 H   0  0  0  0  0  0
  -27.8743  -30.4406   23.9433 H   0  0  0  0  0  0
  -27.2700  -33.3630   26.2165 H   0  0  0  0  0  0
  -28.3814  -32.6927   25.0301 H   0  0  0  0  0  0
  -28.0749  -31.8414   26.5362 H   0  0  0  0  0  0
  -28.2597  -38.0124   24.7574 H   0  0  0  0  0  0
  -28.1095  -36.2673   24.6216 H   0  0  0  0  0  0
  -27.2335  -37.1366   25.8873 H   0  0  0  0  0  0
  -20.9428  -29.8793   21.6941 H   0  0  0  0  0  0
  -26.0213  -38.2937   24.1451 H   0  0  0  0  0  0
  -23.8637  -21.2156   19.8917 H   0  0  0  0  0  0
  -21.9117  -18.1028   23.0508 H   0  0  0  0  0  0
  -23.3127  -18.1417   24.0599 H   0  0  0  0  0  0
  -23.1110  -16.8337   22.8709 H   0  0  0  0  0  0
  -22.5724  -18.2357   18.6468 H   0  0  0  0  0  0
  -21.9476  -19.8787   18.3663 H   0  0  0  0  0  0
  -20.8425  -18.4991   18.5178 H   0  0  0  0  0  0
  -20.5454  -20.1131   21.9516 H   0  0  0  0  0  0
  -19.6176  -19.6466   20.5526 H   0  0  0  0  0  0
  -20.6571  -21.0554   20.4585 H   0  0  0  0  0  0
  -25.6787  -14.0138   24.8661 H   0  0  0  0  0  0
  -24.1746  -14.1265   23.9997 H   0  0  0  0  0  0
  -24.6453  -15.3861   25.1199 H   0  0  0  0  0  0
  -26.9179  -20.8645   20.0903 H   0  0  0  0  0  0
  -27.2915  -20.7922   21.7735 H   0  0  0  0  0  0
  -27.2890  -14.4293   21.0104 H   0  0  0  0  0  0
  -24.9517  -12.5043   19.8691 H   0  0  0  0  0  0
  -26.2109  -23.0134   22.1536 H   0  0  0  0  0  0
  -25.4792  -22.9870   20.5975 H   0  0  0  0  0  0
  -27.2860  -23.8572   19.4405 H   0  0  0  0  0  0
  -28.4849  -23.1954   20.4887 H   0  0  0  0  0  0
  -26.5015  -17.5343   21.4859 H   0  0  0  0  0  0
  -26.9861  -18.6726   22.6962 H   0  0  0  0  0  0
  -27.5637  -15.3523   22.5959 H   0  0  0  0  0  0
  -27.3832  -14.1165   23.6409 H   0  0  0  0  0  0
  -25.4622  -17.2813   24.3966 H   0  0  0  0  0  0
  -27.0433  -16.8231   23.9685 H   0  0  0  0  0  0
  -28.4706  -25.0637   21.9206 H   0  0  0  0  0  0
  -26.8199  -25.4106   21.6879 H   0  0  0  0  0  0
  -21.4585  -18.1393   20.8236 H   0  0  0  0  0  0
  -24.9752  -15.4796   22.4471 H   0  0  0  0  0  0
  1 25  1  0  0  0
  1 30  2  0  0  0
  1 80  1  0  0  0
  2  3  1  0  0  0
  2 25  1  0  0  0
  2 90  1  0  0  0
  2 91  1  0  0  0
  3  4  1  0  0  0
  3 92  1  0  0  0
  3 93  1  0  0  0
  4  5  1  0  0  0
  4 94  1  0  0  0
  4 95  1  0  0  0
  5  6  1  0  0  0
  5 26  1  0  0  0
  5 96  1  0  0  0
  6 25  1  0  0  0
  6 97  1  0  0  0
  6 98  1  0  0  0
  7  8  2  0  0  0
  7 26  1  0  0  0
  7 29  1  0  0  0
  8  9  1  0  0  0
  8 22  1  0  0  0
  9 10  1  0  0  0
  9 27  2  0  0  0
 10 11  2  0  0  0
 10 15  1  0  0  0
 11 12  1  0  0  0
 11 99  1  0  0  0
 12 13  2  0  0  0
 12100  1  0  0  0
 13 14  1  0  0  0
 13 31  1  0  0  0
 14 15  2  0  0  0
 14101  1  0  0  0
 15102  1  0  0  0
 16 17  2  0  0  0
 16 21  1  0  0  0
 16 31  1  0  0  0
 17 18  1  0  0  0
 17103  1  0  0  0
 18 19  2  0  0  0
 18104  1  0  0  0
 19 20  1  0  0  0
 19 24  1  0  0  0
 20 21  2  0  0  0
 20105  1  0  0  0
 21 23  1  0  0  0
 22 28  1  0  0  0
 22 32  2  0  0  0
 26 27  1  0  0  0
 28106  1  0  0  0
 28107  1  0  0  0
 29108  1  0  0  0
 29109  1  0  0  0
 33 34  1  0  0  0
 33 66  1  0  0  0
 33 70  2  0  0  0
 34 36  1  0  0  0
 34 59  1  0  0  0
 34110  1  0  0  0
 35 44  2  0  0  0
 35 45  1  0  0  0
 35 68  1  0  0  0
 36 56  1  0  0  0
 36111  1  0  0  0
 37 39  1  0  0  0
 37 47  1  0  0  0
 37 66  1  0  0  0
 37112  1  0  0  0
 38 43  2  0  0  0
 38 46  1  0  0  0
 38 47  1  0  0  0
 39 64  1  0  0  0
 39 67  2  0  0  0
 40 52  1  0  0  0
 40 53  2  0  0  0
 40 58  1  0  0  0
 41113  1  0  0  0
 41114  1  0  0  0
 41115  1  0  0  0
 41 48  1  0  0  0
 42 43  1  0  0  0
 42 66  1  0  0  0
 42116  1  0  0  0
 42117  1  0  0  0
 43 44  1  0  0  0
 44118  1  0  0  0
 45 46  2  0  0  0
 45119  1  0  0  0
 46120  1  0  0  0
 47121  1  0  0  0
 47122  1  0  0  0
 48 56  1  0  0  0
 48 65  1  0  0  0
 48123  1  0  0  0
 49 50  1  0  0  0
 49 53  1  0  0  0
 49 64  1  0  0  0
 49124  1  0  0  0
 50 51  1  0  0  0
 50125  1  0  0  0
 50126  1  0  0  0
 51 52  1  0  0  0
 51127  1  0  0  0
 51128  1  0  0  0
 52129  1  0  0  0
 52130  1  0  0  0
 53 54  1  0  0  0
 54 55  2  0  0  0
 54131  1  0  0  0
 55 57  1  0  0  0
 55132  1  0  0  0
 56 69  2  0  0  0
 57 58  2  0  0  0
 57133  1  0  0  0
 58134  1  0  0  0
 59 60  1  0  0  0
 59 61  1  0  0  0
 59 62  1  0  0  0
 60135  1  0  0  0
 60136  1  0  0  0
 60137  1  0  0  0
 61138  1  0  0  0
 61139  1  0  0  0
 61140  1  0  0  0
 62141  1  0  0  0
 62142  1  0  0  0
 62143  1  0  0  0
 63 65  1  0  0  0
 63144  1  0  0  0
 63145  1  0  0  0
 63146  1  0  0  0
 64147  1  0  0  0
 65148  1  0  0  0
 68 86  1  0  0  0
 71 72  1  0  0  0
 71 73  2  0  0  0
 71149  1  0  0  0
 72 74  2  0  0  0
 72 87  1  0  0  0
 73 79  1  0  0  0
 73 88  1  0  0  0
 74 75  1  0  0  0
 74 88  1  0  0  0
 75150  1  0  0  0
 75151  1  0  0  0
 75152  1  0  0  0
 76153  1  0  0  0
 76154  1  0  0  0
 76155  1  0  0  0
 76 87  1  0  0  0
 77 87  1  0  0  0
 77156  1  0  0  0
 77157  1  0  0  0
 77158  1  0  0  0
 78159  1  0  0  0
 78160  1  0  0  0
 78161  1  0  0  0
 78 89  1  0  0  0
 79 81  1  0  0  0
 79162  1  0  0  0
 79163  1  0  0  0
 80 84  1  0  0  0
 80164  1  0  0  0
 80165  1  0  0  0
 81 82  1  0  0  0
 81166  1  0  0  0
 81167  1  0  0  0
 82 86  1  0  0  0
 82168  1  0  0  0
 82169  1  0  0  0
 83 85  1  0  0  0
 83 88  1  0  0  0
 83170  1  0  0  0
 83171  1  0  0  0
 84 89  1  0  0  0
 84172  1  0  0  0
 84173  1  0  0  0
 85 89  1  0  0  0
 85174  1  0  0  0
 85175  1  0  0  0
 86176  1  0  0  0
 86177  1  0  0  0
 87178  1  0  0  0
 89179  1  0  0  0
M  CHG  1  89   1
M  ISO  4   1 100  68 101  80 100  86 101
M  END
> <chiral flag>
0

> <version>
0

> <s_m_source_file>
/data/baiqing/PycharmProjects/Reinvent-master-3.2/result/LINK_invent/BTK/process_docking_weight1_custom_sum_contain_oxygen_bond_distance_aromatic_linkinvent_7_9_3/rearranged_h_0089.sdf

> <i_m_source_file_index>
76

> <r_mmod_Potential_Energy-OPLS-2005>
11088.671875

> <r_mmod_Stretch_Energy-OPLS-2005>
6323.056640625

> <r_mmod_Bend_Energy-OPLS-2005>
749.363403320312

> <r_mmod_Torsional_Energy-OPLS-2005>
498.661590576172

> <r_mmod_Improper_Torsional_Energy-OPLS-2005>
74.7643127441406

> <r_mmod_Van_der_Waal_Energy-OPLS-2005>
2451.87231445312

> <r_mmod_Electrostatic_Energy-OPLS-2005>
-336.492218017578

> <r_mmod_Solvation_Energy-OPLS-2005>
-413.152038574219

> <b_mmod_Minimization_Converged-OPLS-2005>
0

> <r_mmod_RMS_Derivative-OPLS-2005>
32.0283393859863

$$$$
77
                    3D
 Structure written by MMmdl.
158166  0  0  1  0            999 V2000
  -30.7688  -14.3175   20.6853 C   0  0  0  0  0  0
  -30.4125  -12.2615   19.3751 C   0  0  0  0  0  0
  -29.4777  -12.5243   18.1813 C   0  0  0  0  0  0
  -27.9982  -12.3910   18.5954 C   0  0  0  0  0  0
  -27.6661  -13.1979   19.8784 C   0  0  2  0  0  0
  -28.7040  -12.9052   20.9831 C   0  0  0  0  0  0
  -25.2579  -13.8177   20.5655 C   0  0  0  0  0  0
  -24.1820  -13.0449   20.9134 C   0  0  0  0  0  0
  -24.6366  -11.6917   20.8671 C   0  0  0  0  0  0
  -23.9039  -10.4304   21.0366 C   0  0  0  0  0  0
  -24.3621   -9.4212   21.9124 C   0  0  0  0  0  0
  -23.6290   -8.2250   22.0734 C   0  0  0  0  0  0
  -22.4240   -8.0303   21.3558 C   0  0  0  0  0  0
  -21.9854   -9.0281   20.4677 C   0  0  0  0  0  0
  -22.7190  -10.2151   20.3051 C   0  0  0  0  0  0
  -21.6862   -6.0719   22.5254 C   0  0  0  0  0  0
  -21.4025   -6.5631   23.8181 C   0  0  0  0  0  0
  -21.3671   -5.6795   24.9152 C   0  0  0  0  0  0
  -21.6050   -4.3057   24.7216 C   0  0  0  0  0  0
  -21.8811   -3.8140   23.4335 C   0  0  0  0  0  0
  -21.9200   -4.6951   22.3385 C   0  0  0  0  0  0
  -22.7854  -13.5259   21.1847 C   0  0  0  0  0  0
  -22.1652   -4.2116   21.0973 F   0  0  0  0  0  0
  -21.5637   -3.4561   25.7746 F   0  0  0  0  0  0
  -30.0511  -13.1924   20.4487 N   0  0  0  0  0  0
  -26.3022  -12.9330   20.3372 N   0  0  0  0  0  0
  -25.9281  -11.6486   20.5696 N   0  0  0  0  0  0
  -22.0528  -12.8248   22.0444 N   0  0  0  0  0  0
  -25.4299  -15.1895   20.4097 N   0  0  0  0  0  0
  -31.7744  -14.6479   20.0491 O   0  0  0  0  0  0
  -21.6631   -6.8873   21.4230 O   0  0  0  0  0  0
  -22.3504  -14.5536   20.6692 O   0  0  0  0  0  0
  -24.6129  -31.8694   23.2119 C   0  0  0  0  0  0
  -25.9025  -32.4820   23.8393 C   0  0  1  0  0  0
  -27.2125  -27.4599   20.0729 C   0  0  0  0  0  0
  -25.5894  -33.8618   24.2338 N   0  0  0  0  0  0
  -23.3949  -30.4970   21.5557 C   0  0  2  0  0  0
  -24.8360  -28.9698   20.1131 C   0  0  0  0  0  0
  -22.7387  -29.4673   22.5017 C   0  0  0  0  0  0
  -18.0245  -28.1377   22.8458 C   0  0  0  0  0  0
  -24.1487  -36.7324   23.2633 C   0  0  0  0  0  0
  -25.9226  -30.8437   21.3587 C   0  0  0  0  0  0
  -25.9977  -29.4810   20.7034 C   0  0  0  0  0  0
  -27.1949  -28.7300   20.6821 C   0  0  0  0  0  0
  -26.0374  -26.9612   19.4725 C   0  0  0  0  0  0
  -24.8478  -27.7084   19.4957 C   0  0  0  0  0  0
  -23.6000  -29.8353   20.1701 C   0  0  0  0  0  0
  -25.4103  -36.3104   24.0330 C   0  0  1  0  0  0
  -20.5830  -28.3669   23.1323 C   0  0  2  0  0  0
  -20.6741  -26.9418   22.5416 C   0  0  0  0  0  0
  -19.5738  -26.6391   21.5192 C   0  0  0  0  0  0
  -18.1902  -26.7918   22.1600 C   0  0  0  0  0  0
  -19.1487  -28.8833   23.2888 C   0  0  0  0  0  0
  -18.9436  -30.1427   23.8925 C   0  0  0  0  0  0
  -17.6446  -30.6593   24.0554 C   0  0  0  0  0  0
  -25.9027  -34.9464   23.5129 C   0  0  0  0  0  0
  -16.5336  -29.9103   23.6318 C   0  0  0  0  0  0
  -16.7233  -28.6514   23.0333 C   0  0  0  0  0  0
  -26.4488  -31.6562   25.0685 C   0  0  0  0  0  0
  -25.3772  -31.3653   26.1447 C   0  0  0  0  0  0
  -27.0307  -30.3011   24.6005 C   0  0  0  0  0  0
  -27.6081  -32.4270   25.7453 C   0  0  0  0  0  0
  -27.5580  -37.1806   24.8465 C   0  0  0  0  0  0
  -21.4107  -29.3046   22.3758 N   0  0  0  0  0  0
  -26.4291  -37.3788   23.9410 N   0  0  0  0  0  0
  -24.6620  -31.0811   22.1016 N   0  0  0  0  0  0
  -23.4183  -28.8213   23.3049 O   0  0  0  0  0  0
  -28.3533  -26.6994   20.0812 O   0  0  0  0  0  0
  -26.5600  -34.8909   22.4686 O   0  0  0  0  0  0
  -23.5336  -32.1406   23.7546 O   0  0  0  0  0  0
  -29.8197  -20.5021   22.2431 C   0  0  0  0  0  0
  -29.4384  -19.5158   23.1022 C   0  0  0  0  0  0
  -30.2178  -18.3361   23.5822 C   0  0  0  0  0  0
  -29.7374  -17.0143   22.9745 C   0  0  0  0  0  0
  -28.1125  -22.8644   20.3861 C   0  0  0  0  0  0
  -28.3720  -24.2373   19.7245 C   0  0  0  0  0  0
  -28.7353  -22.7501   21.7904 C   0  0  0  0  0  0
  -30.8324  -16.3056   22.1744 C   0  0  0  0  0  0
  -28.1733  -25.4189   20.6915 C   0  0  0  0  0  0
  -28.1567  -19.8006   23.5750 N   0  0  0  0  0  0
  -27.7678  -20.9391   23.0881 N   0  0  0  0  0  0
  -28.7797  -21.4032   22.3164 N   0  0  0  0  0  0
  -30.3178  -15.0313   21.7129 N   0  0  0  0  0  0
  -31.4579  -12.3541   19.0744 H   0  0  0  0  0  0
  -30.3000  -11.2360   19.7267 H   0  0  0  0  0  0
  -29.7004  -11.8302   17.3699 H   0  0  0  0  0  0
  -29.6628  -13.5251   17.7873 H   0  0  0  0  0  0
  -27.7888  -11.3346   18.7575 H   0  0  0  0  0  0
  -27.3489  -12.6981   17.7757 H   0  0  0  0  0  0
  -27.7346  -14.2557   19.6234 H   0  0  0  0  0  0
  -28.6522  -11.8537   21.2710 H   0  0  0  0  0  0
  -28.4487  -13.4545   21.8892 H   0  0  0  0  0  0
  -25.2792   -9.5672   22.4639 H   0  0  0  0  0  0
  -24.0007   -7.4657   22.7445 H   0  0  0  0  0  0
  -21.0742   -8.8829   19.9020 H   0  0  0  0  0  0
  -22.3636  -10.9694   19.6187 H   0  0  0  0  0  0
  -21.2001   -7.6149   23.9671 H   0  0  0  0  0  0
  -21.1522   -6.0534   25.9049 H   0  0  0  0  0  0
  -22.0569   -2.7598   23.2850 H   0  0  0  0  0  0
  -22.4195  -11.9986   22.4911 H   0  0  0  0  0  0
  -21.1162  -13.1289   22.2689 H   0  0  0  0  0  0
  -24.6757  -15.8536   20.5442 H   0  0  0  0  0  0
  -26.3014  -15.6265   20.1384 H   0  0  0  0  0  0
  -26.7082  -32.5579   23.1154 H   0  0  0  0  0  0
  -25.0063  -33.9763   25.0502 H   0  0  0  0  0  0
  -22.6836  -31.3152   21.4231 H   0  0  0  0  0  0
  -23.3726  -35.9688   23.3318 H   0  0  0  0  0  0
  -24.3589  -36.8909   22.2043 H   0  0  0  0  0  0
  -23.7254  -37.6538   23.6643 H   0  0  0  0  0  0
  -26.0153  -31.6102   20.5899 H   0  0  0  0  0  0
  -26.8191  -30.9034   21.9631 H   0  0  0  0  0  0
  -28.0922  -29.1125   21.1472 H   0  0  0  0  0  0
  -26.0373  -25.9927   18.9950 H   0  0  0  0  0  0
  -23.9522  -27.3080   19.0415 H   0  0  0  0  0  0
  -23.7153  -30.6152   19.4188 H   0  0  0  0  0  0
  -22.7211  -29.2629   19.8658 H   0  0  0  0  0  0
  -25.1264  -36.1965   25.0826 H   0  0  0  0  0  0
  -20.9854  -28.3222   24.1467 H   0  0  0  0  0  0
  -20.5610  -26.2286   23.3593 H   0  0  0  0  0  0
  -21.6624  -26.7469   22.1239 H   0  0  0  0  0  0
  -19.6937  -25.6302   21.1214 H   0  0  0  0  0  0
  -19.6685  -27.3217   20.6731 H   0  0  0  0  0  0
  -17.4169  -26.6603   21.4015 H   0  0  0  0  0  0
  -18.0352  -26.0072   22.9017 H   0  0  0  0  0  0
  -19.7923  -30.7173   24.2360 H   0  0  0  0  0  0
  -17.5037  -31.6277   24.5136 H   0  0  0  0  0  0
  -15.5351  -30.3036   23.7625 H   0  0  0  0  0  0
  -15.8617  -28.0844   22.7076 H   0  0  0  0  0  0
  -24.5956  -30.6987   25.7784 H   0  0  0  0  0  0
  -24.8965  -32.2811   26.4907 H   0  0  0  0  0  0
  -25.8141  -30.8813   27.0190 H   0  0  0  0  0  0
  -26.2826  -29.6778   24.1092 H   0  0  0  0  0  0
  -27.4133  -29.7220   25.4416 H   0  0  0  0  0  0
  -27.8642  -30.4346   23.9101 H   0  0  0  0  0  0
  -27.2707  -33.3546   26.2112 H   0  0  0  0  0  0
  -28.3883  -32.6859   25.0269 H   0  0  0  0  0  0
  -28.0787  -31.8336   26.5309 H   0  0  0  0  0  0
  -28.2590  -38.0106   24.7490 H   0  0  0  0  0  0
  -28.1067  -36.2621   24.6314 H   0  0  0  0  0  0
  -27.2300  -37.1481   25.8869 H   0  0  0  0  0  0
  -20.9260  -29.8804   21.7008 H   0  0  0  0  0  0
  -26.0168  -38.2867   24.1420 H   0  0  0  0  0  0
  -30.7306  -20.6735   21.6802 H   0  0  0  0  0  0
  -30.1455  -18.2692   24.6672 H   0  0  0  0  0  0
  -31.2799  -18.4853   23.3799 H   0  0  0  0  0  0
  -28.8611  -17.1748   22.3407 H   0  0  0  0  0  0
  -29.3995  -16.3635   23.7812 H   0  0  0  0  0  0
  -28.5003  -22.0784   19.7373 H   0  0  0  0  0  0
  -27.0376  -22.6887   20.4590 H   0  0  0  0  0  0
  -27.7140  -24.3350   18.8590 H   0  0  0  0  0  0
  -29.3888  -24.2614   19.3332 H   0  0  0  0  0  0
  -28.1835  -23.3691   22.4994 H   0  0  0  0  0  0
  -29.7565  -23.1318   21.7855 H   0  0  0  0  0  0
  -31.7160  -16.1340   22.7929 H   0  0  0  0  0  0
  -31.1385  -16.9257   21.3285 H   0  0  0  0  0  0
  -28.9034  -25.3708   21.4972 H   0  0  0  0  0  0
  -27.2012  -25.3193   21.1797 H   0  0  0  0  0  0
  -29.5179  -14.6513   22.1963 H   0  0  0  0  0  0
  1 25  1  0  0  0
  1 30  2  0  0  0
  1 83  1  0  0  0
  2  3  1  0  0  0
  2 25  1  0  0  0
  2 84  1  0  0  0
  2 85  1  0  0  0
  3  4  1  0  0  0
  3 86  1  0  0  0
  3 87  1  0  0  0
  4  5  1  0  0  0
  4 88  1  0  0  0
  4 89  1  0  0  0
  5  6  1  0  0  0
  5 26  1  0  0  0
  5 90  1  0  0  0
  6 25  1  0  0  0
  6 91  1  0  0  0
  6 92  1  0  0  0
  7  8  2  0  0  0
  7 26  1  0  0  0
  7 29  1  0  0  0
  8  9  1  0  0  0
  8 22  1  0  0  0
  9 10  1  0  0  0
  9 27  2  0  0  0
 10 11  2  0  0  0
 10 15  1  0  0  0
 11 12  1  0  0  0
 11 93  1  0  0  0
 12 13  2  0  0  0
 12 94  1  0  0  0
 13 14  1  0  0  0
 13 31  1  0  0  0
 14 15  2  0  0  0
 14 95  1  0  0  0
 15 96  1  0  0  0
 16 17  2  0  0  0
 16 21  1  0  0  0
 16 31  1  0  0  0
 17 18  1  0  0  0
 17 97  1  0  0  0
 18 19  2  0  0  0
 18 98  1  0  0  0
 19 20  1  0  0  0
 19 24  1  0  0  0
 20 21  2  0  0  0
 20 99  1  0  0  0
 21 23  1  0  0  0
 22 28  1  0  0  0
 22 32  2  0  0  0
 26 27  1  0  0  0
 28100  1  0  0  0
 28101  1  0  0  0
 29102  1  0  0  0
 29103  1  0  0  0
 33 34  1  0  0  0
 33 66  1  0  0  0
 33 70  2  0  0  0
 34 36  1  0  0  0
 34 59  1  0  0  0
 34104  1  0  0  0
 35 44  2  0  0  0
 35 45  1  0  0  0
 35 68  1  0  0  0
 36 56  1  0  0  0
 36105  1  0  0  0
 37 39  1  0  0  0
 37 47  1  0  0  0
 37 66  1  0  0  0
 37106  1  0  0  0
 38 43  2  0  0  0
 38 46  1  0  0  0
 38 47  1  0  0  0
 39 64  1  0  0  0
 39 67  2  0  0  0
 40 52  1  0  0  0
 40 53  2  0  0  0
 40 58  1  0  0  0
 41107  1  0  0  0
 41108  1  0  0  0
 41109  1  0  0  0
 41 48  1  0  0  0
 42 43  1  0  0  0
 42 66  1  0  0  0
 42110  1  0  0  0
 42111  1  0  0  0
 43 44  1  0  0  0
 44112  1  0  0  0
 45 46  2  0  0  0
 45113  1  0  0  0
 46114  1  0  0  0
 47115  1  0  0  0
 47116  1  0  0  0
 48 56  1  0  0  0
 48 65  1  0  0  0
 48117  1  0  0  0
 49 50  1  0  0  0
 49 53  1  0  0  0
 49 64  1  0  0  0
 49118  1  0  0  0
 50 51  1  0  0  0
 50119  1  0  0  0
 50120  1  0  0  0
 51 52  1  0  0  0
 51121  1  0  0  0
 51122  1  0  0  0
 52123  1  0  0  0
 52124  1  0  0  0
 53 54  1  0  0  0
 54 55  2  0  0  0
 54125  1  0  0  0
 55 57  1  0  0  0
 55126  1  0  0  0
 56 69  2  0  0  0
 57 58  2  0  0  0
 57127  1  0  0  0
 58128  1  0  0  0
 59 60  1  0  0  0
 59 61  1  0  0  0
 59 62  1  0  0  0
 60129  1  0  0  0
 60130  1  0  0  0
 60131  1  0  0  0
 61132  1  0  0  0
 61133  1  0  0  0
 61134  1  0  0  0
 62135  1  0  0  0
 62136  1  0  0  0
 62137  1  0  0  0
 63 65  1  0  0  0
 63138  1  0  0  0
 63139  1  0  0  0
 63140  1  0  0  0
 64141  1  0  0  0
 65142  1  0  0  0
 68 79  1  0  0  0
 71 72  2  0  0  0
 71 82  1  0  0  0
 71143  1  0  0  0
 72 73  1  0  0  0
 72 80  1  0  0  0
 73 74  1  0  0  0
 73144  1  0  0  0
 73145  1  0  0  0
 74 78  1  0  0  0
 74146  1  0  0  0
 74147  1  0  0  0
 75 76  1  0  0  0
 75 77  1  0  0  0
 75148  1  0  0  0
 75149  1  0  0  0
 76 79  1  0  0  0
 76150  1  0  0  0
 76151  1  0  0  0
 77 82  1  0  0  0
 77152  1  0  0  0
 77153  1  0  0  0
 78 83  1  0  0  0
 78154  1  0  0  0
 78155  1  0  0  0
 79156  1  0  0  0
 79157  1  0  0  0
 80 81  2  0  0  0
 81 82  1  0  0  0
 83158  1  0  0  0
M  ISO  4   1 100  68 101  79 101  83 100
M  END
> <chiral flag>
0

> <version>
0

> <s_m_source_file>
/data/baiqing/PycharmProjects/Reinvent-master-3.2/result/LINK_invent/BTK/process_docking_weight1_custom_sum_contain_oxygen_bond_distance_aromatic_linkinvent_7_9_3/rearranged_h_0089.sdf

> <i_m_source_file_index>
77

> <r_mmod_Potential_Energy-OPLS-2005>
-119.607383728027

> <r_mmod_Stretch_Energy-OPLS-2005>
29.3657341003418

> <r_mmod_Bend_Energy-OPLS-2005>
86.7303619384766

> <r_mmod_Torsional_Energy-OPLS-2005>
233.966247558594

> <r_mmod_Improper_Torsional_Energy-OPLS-2005>
2.26325583457947

> <r_mmod_Van_der_Waal_Energy-OPLS-2005>
136.485488891602

> <r_mmod_Electrostatic_Energy-OPLS-2005>
-393.947021484375

> <r_mmod_Solvation_Energy-OPLS-2005>
-223.101684570312

> <b_mmod_Minimization_Converged-OPLS-2005>
0

> <r_mmod_RMS_Derivative-OPLS-2005>
4.2758002281189

$$$$
78
                    3D
 Structure written by MMmdl.
171178  0  0  1  0            999 V2000
  -30.7369  -14.4078   20.6053 C   0  0  0  0  0  0
  -30.4213  -12.2859   19.4012 C   0  0  0  0  0  0
  -29.4849  -12.4916   18.1937 C   0  0  0  0  0  0
  -28.0097  -12.3391   18.6149 C   0  0  0  0  0  0
  -27.6569  -13.1827   19.8681 C   0  0  2  0  0  0
  -28.7022  -12.9712   20.9876 C   0  0  0  0  0  0
  -25.2609  -13.8097   20.5658 C   0  0  0  0  0  0
  -24.1835  -13.0413   20.9178 C   0  0  0  0  0  0
  -24.6353  -11.6870   20.8747 C   0  0  0  0  0  0
  -23.9017  -10.4276   21.0422 C   0  0  0  0  0  0
  -24.3589   -9.4202   21.9186 C   0  0  0  0  0  0
  -23.6274   -8.2236   22.0757 C   0  0  0  0  0  0
  -22.4256   -8.0275   21.3550 C   0  0  0  0  0  0
  -21.9884   -9.0247   20.4650 C   0  0  0  0  0  0
  -22.7201  -10.2123   20.3058 C   0  0  0  0  0  0
  -21.6850   -6.0730   22.5281 C   0  0  0  0  0  0
  -21.4008   -6.5633   23.8214 C   0  0  0  0  0  0
  -21.3653   -5.6788   24.9173 C   0  0  0  0  0  0
  -21.6045   -4.3052   24.7222 C   0  0  0  0  0  0
  -21.8823   -3.8144   23.4343 C   0  0  0  0  0  0
  -21.9189   -4.6961   22.3399 C   0  0  0  0  0  0
  -22.7868  -13.5248   21.1840 C   0  0  0  0  0  0
  -22.1661   -4.2145   21.0977 F   0  0  0  0  0  0
  -21.5628   -3.4537   25.7736 F   0  0  0  0  0  0
  -30.0367  -13.2579   20.4322 N   0  0  0  0  0  0
  -26.2996  -12.9206   20.3348 N   0  0  0  0  0  0
  -25.9268  -11.6396   20.5778 N   0  0  0  0  0  0
  -22.0484  -12.8258   22.0390 N   0  0  0  0  0  0
  -25.4363  -15.1808   20.4045 N   0  0  0  0  0  0
  -31.8632  -14.6058   20.1486 O   0  0  0  0  0  0
  -21.6628   -6.8868   21.4240 O   0  0  0  0  0  0
  -22.3573  -14.5553   20.6674 O   0  0  0  0  0  0
  -24.6120  -31.8709   23.2132 C   0  0  0  0  0  0
  -25.9029  -32.4841   23.8417 C   0  0  1  0  0  0
  -27.2368  -27.4659   20.0816 C   0  0  0  0  0  0
  -25.5898  -33.8637   24.2352 N   0  0  0  0  0  0
  -23.3976  -30.4973   21.5536 C   0  0  2  0  0  0
  -24.8418  -28.9696   20.1175 C   0  0  0  0  0  0
  -22.7400  -29.4680   22.5002 C   0  0  0  0  0  0
  -18.0271  -28.1372   22.8495 C   0  0  0  0  0  0
  -24.1487  -36.7321   23.2639 C   0  0  0  0  0  0
  -25.9244  -30.8486   21.3605 C   0  0  0  0  0  0
  -26.0033  -29.4861   20.7057 C   0  0  0  0  0  0
  -27.2026  -28.7425   20.6817 C   0  0  0  0  0  0
  -26.0515  -26.9578   19.4954 C   0  0  0  0  0  0
  -24.8604  -27.7036   19.5117 C   0  0  0  0  0  0
  -23.6034  -29.8330   20.1669 C   0  0  0  0  0  0
  -25.4105  -36.3121   24.0343 C   0  0  1  0  0  0
  -20.5859  -28.3656   23.1325 C   0  0  2  0  0  0
  -20.6758  -26.9396   22.5418 C   0  0  0  0  0  0
  -19.5738  -26.6384   21.5212 C   0  0  0  0  0  0
  -18.1916  -26.7920   22.1625 C   0  0  0  0  0  0
  -19.1515  -28.8830   23.2911 C   0  0  0  0  0  0
  -18.9447  -30.1437   23.8921 C   0  0  0  0  0  0
  -17.6446  -30.6581   24.0565 C   0  0  0  0  0  0
  -25.9029  -34.9484   23.5141 C   0  0  0  0  0  0
  -16.5341  -29.9083   23.6321 C   0  0  0  0  0  0
  -16.7257  -28.6498   23.0347 C   0  0  0  0  0  0
  -26.4471  -31.6603   25.0726 C   0  0  0  0  0  0
  -25.3757  -31.3688   26.1488 C   0  0  0  0  0  0
  -27.0299  -30.3056   24.6068 C   0  0  0  0  0  0
  -27.6056  -32.4312   25.7483 C   0  0  0  0  0  0
  -27.5579  -37.1817   24.8468 C   0  0  0  0  0  0
  -21.4129  -29.3033   22.3742 N   0  0  0  0  0  0
  -26.4295  -37.3800   23.9408 N   0  0  0  0  0  0
  -24.6632  -31.0849   22.1013 N   0  0  0  0  0  0
  -23.4184  -28.8215   23.3024 O   0  0  0  0  0  0
  -28.4230  -26.7636   20.0757 O   0  0  0  0  0  0
  -26.5580  -34.8923   22.4699 O   0  0  0  0  0  0
  -23.5321  -32.1440   23.7549 O   0  0  0  0  0  0
  -31.9768  -22.7194   21.0438 C   0  0  0  0  0  0
  -32.0818  -19.7355   19.1308 C   0  0  0  0  0  0
  -28.5532  -20.1744   17.6189 C   0  0  0  0  0  0
  -29.6712  -24.6688   20.2839 C   0  0  0  0  0  0
  -29.4908  -23.1773   20.6311 C   0  0  0  0  0  0
  -29.8718  -17.6818   20.1297 C   0  0  0  0  0  0
  -29.2619  -16.2794   20.3059 C   0  0  0  0  0  0
  -29.5612  -18.2636   18.7285 C   0  0  0  0  0  0
  -28.3076  -25.3448   20.0975 C   0  0  0  0  0  0
  -30.6891  -22.2507   20.3327 C   0  0  1  0  0  0
  -30.8859  -20.4283   18.4355 C   0  0  2  0  0  0
  -30.8423  -21.9470   18.8072 C   0  0  2  0  0  0
  -30.0656  -15.4154   21.1741 N   0  0  0  0  0  0
  -29.5539  -19.7550   18.6415 N   0  3  1  0  0  0
  -31.9711  -22.6124   18.2606 O   0  0  0  0  0  0
  -30.3300  -11.2704   19.7918 H   0  0  0  0  0  0
  -31.4630  -12.3928   19.0916 H   0  0  0  0  0  0
  -29.7225  -11.7731   17.4079 H   0  0  0  0  0  0
  -29.6467  -13.4805   17.7622 H   0  0  0  0  0  0
  -27.8314  -11.2817   18.8196 H   0  0  0  0  0  0
  -27.3510  -12.6022   17.7866 H   0  0  0  0  0  0
  -27.6836  -14.2211   19.5540 H   0  0  0  0  0  0
  -28.4651  -13.5855   21.8575 H   0  0  0  0  0  0
  -28.6744  -11.9411   21.3435 H   0  0  0  0  0  0
  -25.2736   -9.5674   22.4760 H   0  0  0  0  0  0
  -23.9988   -7.4618   22.7474 H   0  0  0  0  0  0
  -21.0820   -8.8764   19.8959 H   0  0  0  0  0  0
  -22.3667  -10.9667   19.6175 H   0  0  0  0  0  0
  -21.2006   -7.6141   23.9712 H   0  0  0  0  0  0
  -21.1468   -6.0515   25.9072 H   0  0  0  0  0  0
  -22.0607   -2.7606   23.2841 H   0  0  0  0  0  0
  -22.4090  -11.9922   22.4783 H   0  0  0  0  0  0
  -21.1111  -13.1327   22.2585 H   0  0  0  0  0  0
  -24.6750  -15.8416   20.5147 H   0  0  0  0  0  0
  -26.2948  -15.6107   20.0898 H   0  0  0  0  0  0
  -26.7108  -32.5572   23.1193 H   0  0  0  0  0  0
  -25.0073  -33.9809   25.0513 H   0  0  0  0  0  0
  -22.6846  -31.3128   21.4179 H   0  0  0  0  0  0
  -23.3741  -35.9664   23.3321 H   0  0  0  0  0  0
  -24.3582  -36.8912   22.2050 H   0  0  0  0  0  0
  -23.7245  -37.6537   23.6635 H   0  0  0  0  0  0
  -26.0310  -31.6185   20.5947 H   0  0  0  0  0  0
  -26.8146  -30.9015   21.9757 H   0  0  0  0  0  0
  -28.1010  -29.1430   21.1301 H   0  0  0  0  0  0
  -26.0240  -25.9962   19.0065 H   0  0  0  0  0  0
  -23.9674  -27.3007   19.0544 H   0  0  0  0  0  0
  -23.7104  -30.6090   19.4082 H   0  0  0  0  0  0
  -22.7281  -29.2510   19.8718 H   0  0  0  0  0  0
  -25.1281  -36.1996   25.0836 H   0  0  0  0  0  0
  -20.9952  -28.3214   24.1444 H   0  0  0  0  0  0
  -20.5658  -26.2262   23.3601 H   0  0  0  0  0  0
  -21.6629  -26.7439   22.1213 H   0  0  0  0  0  0
  -19.6897  -25.6299   21.1227 H   0  0  0  0  0  0
  -19.6676  -27.3207   20.6752 H   0  0  0  0  0  0
  -17.4187  -26.6672   21.4026 H   0  0  0  0  0  0
  -18.0317  -26.0056   22.9015 H   0  0  0  0  0  0
  -19.7924  -30.7245   24.2301 H   0  0  0  0  0  0
  -17.5006  -31.6265   24.5161 H   0  0  0  0  0  0
  -15.5342  -30.2994   23.7632 H   0  0  0  0  0  0
  -15.8659  -28.0827   22.7047 H   0  0  0  0  0  0
  -24.5919  -30.7049   25.7824 H   0  0  0  0  0  0
  -24.8964  -32.2839   26.4979 H   0  0  0  0  0  0
  -25.8130  -30.8825   27.0220 H   0  0  0  0  0  0
  -26.2829  -29.6818   24.1144 H   0  0  0  0  0  0
  -27.4117  -29.7284   25.4500 H   0  0  0  0  0  0
  -27.8642  -30.4393   23.9177 H   0  0  0  0  0  0
  -27.2682  -33.3592   26.2115 H   0  0  0  0  0  0
  -28.3839  -32.6908   25.0292 H   0  0  0  0  0  0
  -28.0762  -31.8406   26.5356 H   0  0  0  0  0  0
  -28.2614  -38.0096   24.7497 H   0  0  0  0  0  0
  -28.1056  -36.2629   24.6317 H   0  0  0  0  0  0
  -27.2296  -37.1499   25.8871 H   0  0  0  0  0  0
  -20.9271  -29.8775   21.6994 H   0  0  0  0  0  0
  -26.0189  -38.2886   24.1395 H   0  0  0  0  0  0
  -31.8189  -22.8114   22.1186 H   0  0  0  0  0  0
  -32.3170  -23.6904   20.6827 H   0  0  0  0  0  0
  -32.7928  -22.0126   20.8972 H   0  0  0  0  0  0
  -31.9429  -19.6646   20.2084 H   0  0  0  0  0  0
  -33.0026  -20.2975   18.9736 H   0  0  0  0  0  0
  -32.2695  -18.7381   18.7356 H   0  0  0  0  0  0
  -28.4243  -21.2509   17.5464 H   0  0  0  0  0  0
  -27.5658  -19.7743   17.8521 H   0  0  0  0  0  0
  -28.8294  -19.8073   16.6288 H   0  0  0  0  0  0
  -30.2562  -24.7966   19.3730 H   0  0  0  0  0  0
  -30.2271  -25.1626   21.0822 H   0  0  0  0  0  0
  -28.6175  -22.7875   20.1060 H   0  0  0  0  0  0
  -29.2360  -23.1050   21.6893 H   0  0  0  0  0  0
  -29.4934  -18.3337   20.9183 H   0  0  0  0  0  0
  -30.9502  -17.6180   20.2681 H   0  0  0  0  0  0
  -29.1561  -15.8199   19.3199 H   0  0  0  0  0  0
  -28.2531  -16.3595   20.7152 H   0  0  0  0  0  0
  -28.5688  -17.8971   18.4589 H   0  0  0  0  0  0
  -30.2280  -17.8404   17.9754 H   0  0  0  0  0  0
  -27.6399  -25.0533   20.9115 H   0  0  0  0  0  0
  -27.8811  -24.9746   19.1650 H   0  0  0  0  0  0
  -30.4201  -21.3106   20.8164 H   0  0  0  0  0  0
  -31.0891  -20.3588   17.3650 H   0  0  0  0  0  0
  -30.0102  -22.4137   18.2828 H   0  0  0  0  0  0
  -30.6585  -15.9600   21.7840 H   0  0  0  0  0  0
  -29.1874  -20.0771   19.5235 H   0  0  0  0  0  0
  -31.8723  -23.5426   18.4317 H   0  0  0  0  0  0
  1 25  1  0  0  0
  1 30  2  0  0  0
  1 83  1  0  0  0
  2  3  1  0  0  0
  2 25  1  0  0  0
  2 86  1  0  0  0
  2 87  1  0  0  0
  3  4  1  0  0  0
  3 88  1  0  0  0
  3 89  1  0  0  0
  4  5  1  0  0  0
  4 90  1  0  0  0
  4 91  1  0  0  0
  5  6  1  0  0  0
  5 26  1  0  0  0
  5 92  1  0  0  0
  6 25  1  0  0  0
  6 93  1  0  0  0
  6 94  1  0  0  0
  7  8  2  0  0  0
  7 26  1  0  0  0
  7 29  1  0  0  0
  8  9  1  0  0  0
  8 22  1  0  0  0
  9 10  1  0  0  0
  9 27  2  0  0  0
 10 11  2  0  0  0
 10 15  1  0  0  0
 11 12  1  0  0  0
 11 95  1  0  0  0
 12 13  2  0  0  0
 12 96  1  0  0  0
 13 14  1  0  0  0
 13 31  1  0  0  0
 14 15  2  0  0  0
 14 97  1  0  0  0
 15 98  1  0  0  0
 16 17  2  0  0  0
 16 21  1  0  0  0
 16 31  1  0  0  0
 17 18  1  0  0  0
 17 99  1  0  0  0
 18 19  2  0  0  0
 18100  1  0  0  0
 19 20  1  0  0  0
 19 24  1  0  0  0
 20 21  2  0  0  0
 20101  1  0  0  0
 21 23  1  0  0  0
 22 28  1  0  0  0
 22 32  2  0  0  0
 26 27  1  0  0  0
 28102  1  0  0  0
 28103  1  0  0  0
 29104  1  0  0  0
 29105  1  0  0  0
 33 34  1  0  0  0
 33 66  1  0  0  0
 33 70  2  0  0  0
 34 36  1  0  0  0
 34 59  1  0  0  0
 34106  1  0  0  0
 35 44  2  0  0  0
 35 45  1  0  0  0
 35 68  1  0  0  0
 36 56  1  0  0  0
 36107  1  0  0  0
 37 39  1  0  0  0
 37 47  1  0  0  0
 37 66  1  0  0  0
 37108  1  0  0  0
 38 43  2  0  0  0
 38 46  1  0  0  0
 38 47  1  0  0  0
 39 64  1  0  0  0
 39 67  2  0  0  0
 40 52  1  0  0  0
 40 53  2  0  0  0
 40 58  1  0  0  0
 41109  1  0  0  0
 41110  1  0  0  0
 41111  1  0  0  0
 41 48  1  0  0  0
 42 43  1  0  0  0
 42 66  1  0  0  0
 42112  1  0  0  0
 42113  1  0  0  0
 43 44  1  0  0  0
 44114  1  0  0  0
 45 46  2  0  0  0
 45115  1  0  0  0
 46116  1  0  0  0
 47117  1  0  0  0
 47118  1  0  0  0
 48 56  1  0  0  0
 48 65  1  0  0  0
 48119  1  0  0  0
 49 50  1  0  0  0
 49 53  1  0  0  0
 49 64  1  0  0  0
 49120  1  0  0  0
 50 51  1  0  0  0
 50121  1  0  0  0
 50122  1  0  0  0
 51 52  1  0  0  0
 51123  1  0  0  0
 51124  1  0  0  0
 52125  1  0  0  0
 52126  1  0  0  0
 53 54  1  0  0  0
 54 55  2  0  0  0
 54127  1  0  0  0
 55 57  1  0  0  0
 55128  1  0  0  0
 56 69  2  0  0  0
 57 58  2  0  0  0
 57129  1  0  0  0
 58130  1  0  0  0
 59 60  1  0  0  0
 59 61  1  0  0  0
 59 62  1  0  0  0
 60131  1  0  0  0
 60132  1  0  0  0
 60133  1  0  0  0
 61134  1  0  0  0
 61135  1  0  0  0
 61136  1  0  0  0
 62137  1  0  0  0
 62138  1  0  0  0
 62139  1  0  0  0
 63 65  1  0  0  0
 63140  1  0  0  0
 63141  1  0  0  0
 63142  1  0  0  0
 64143  1  0  0  0
 65144  1  0  0  0
 68 79  1  0  0  0
 71145  1  0  0  0
 71146  1  0  0  0
 71147  1  0  0  0
 71 80  1  0  0  0
 72148  1  0  0  0
 72149  1  0  0  0
 72150  1  0  0  0
 72 81  1  0  0  0
 73151  1  0  0  0
 73152  1  0  0  0
 73153  1  0  0  0
 73 84  1  0  0  0
 74 75  1  0  0  0
 74 79  1  0  0  0
 74154  1  0  0  0
 74155  1  0  0  0
 75 80  1  0  0  0
 75156  1  0  0  0
 75157  1  0  0  0
 76 77  1  0  0  0
 76 78  1  0  0  0
 76158  1  0  0  0
 76159  1  0  0  0
 77 83  1  0  0  0
 77160  1  0  0  0
 77161  1  0  0  0
 78 84  1  0  0  0
 78162  1  0  0  0
 78163  1  0  0  0
 79164  1  0  0  0
 79165  1  0  0  0
 80 82  1  0  0  0
 80166  1  0  0  0
 81 82  1  0  0  0
 81 84  1  0  0  0
 81167  1  0  0  0
 82 85  1  0  0  0
 82168  1  0  0  0
 83169  1  0  0  0
 84170  1  0  0  0
 85171  1  0  0  0
M  CHG  1  84   1
M  ISO  4   1 100  68 101  79 101  83 100
M  END
> <chiral flag>
0

> <version>
0

> <s_m_source_file>
/data/baiqing/PycharmProjects/Reinvent-master-3.2/result/LINK_invent/BTK/process_docking_weight1_custom_sum_contain_oxygen_bond_distance_aromatic_linkinvent_7_9_3/rearranged_h_0089.sdf

> <i_m_source_file_index>
78

> <r_mmod_Potential_Energy-OPLS-2005>
-54.9347915649414

> <r_mmod_Stretch_Energy-OPLS-2005>
36.7816581726074

> <r_mmod_Bend_Energy-OPLS-2005>
113.678588867188

> <r_mmod_Torsional_Energy-OPLS-2005>
330.135345458984

> <r_mmod_Improper_Torsional_Energy-OPLS-2005>
8.11046600341797

> <r_mmod_Van_der_Waal_Energy-OPLS-2005>
153.119415283203

> <r_mmod_Electrostatic_Energy-OPLS-2005>
-246.804794311523

> <r_mmod_Solvation_Energy-OPLS-2005>
-460.526794433594

> <b_mmod_Minimization_Converged-OPLS-2005>
0

> <r_mmod_RMS_Derivative-OPLS-2005>
1.89572954177856

$$$$
79
                    3D
 Structure written by MMmdl.
173181  0  0  1  0            999 V2000
  -30.7967  -14.3535   20.6539 C   0  0  0  0  0  0
  -30.4163  -12.2764   19.3878 C   0  0  0  0  0  0
  -29.4839  -12.5032   18.1831 C   0  0  0  0  0  0
  -28.0081  -12.3697   18.6054 C   0  0  0  0  0  0
  -27.6689  -13.1954   19.8738 C   0  0  2  0  0  0
  -28.7166  -12.9342   20.9813 C   0  0  0  0  0  0
  -25.2665  -13.8150   20.5678 C   0  0  0  0  0  0
  -24.1883  -13.0425   20.9156 C   0  0  0  0  0  0
  -24.6410  -11.6900   20.8724 C   0  0  0  0  0  0
  -23.9053  -10.4280   21.0384 C   0  0  0  0  0  0
  -24.3605   -9.4203   21.9171 C   0  0  0  0  0  0
  -23.6286   -8.2226   22.0752 C   0  0  0  0  0  0
  -22.4264   -8.0278   21.3543 C   0  0  0  0  0  0
  -21.9899   -9.0247   20.4639 C   0  0  0  0  0  0
  -22.7221  -10.2131   20.3044 C   0  0  0  0  0  0
  -21.6875   -6.0737   22.5280 C   0  0  0  0  0  0
  -21.4012   -6.5643   23.8206 C   0  0  0  0  0  0
  -21.3654   -5.6797   24.9175 C   0  0  0  0  0  0
  -21.6042   -4.3059   24.7230 C   0  0  0  0  0  0
  -21.8823   -3.8159   23.4344 C   0  0  0  0  0  0
  -21.9181   -4.6969   22.3397 C   0  0  0  0  0  0
  -22.7909  -13.5266   21.1806 C   0  0  0  0  0  0
  -22.1664   -4.2163   21.0972 F   0  0  0  0  0  0
  -21.5622   -3.4525   25.7731 F   0  0  0  0  0  0
  -30.0555  -13.2348   20.4416 N   0  0  0  0  0  0
  -26.3086  -12.9285   20.3377 N   0  0  0  0  0  0
  -25.9349  -11.6456   20.5757 N   0  0  0  0  0  0
  -22.0506  -12.8269   22.0370 N   0  0  0  0  0  0
  -25.4365  -15.1842   20.4079 N   0  0  0  0  0  0
  -31.8218  -14.6188   20.0257 O   0  0  0  0  0  0
  -21.6641   -6.8873   21.4240 O   0  0  0  0  0  0
  -22.3593  -14.5547   20.6635 O   0  0  0  0  0  0
  -24.6130  -31.8699   23.2107 C   0  0  0  0  0  0
  -25.9037  -32.4859   23.8385 C   0  0  1  0  0  0
  -27.2456  -27.4325   20.0973 C   0  0  0  0  0  0
  -25.5902  -33.8653   24.2322 N   0  0  0  0  0  0
  -23.4022  -30.4931   21.5513 C   0  0  2  0  0  0
  -24.8512  -28.9567   20.1175 C   0  0  0  0  0  0
  -22.7404  -29.4700   22.5016 C   0  0  0  0  0  0
  -18.0288  -28.1385   22.8496 C   0  0  0  0  0  0
  -24.1493  -36.7334   23.2624 C   0  0  0  0  0  0
  -25.9268  -30.8354   21.3615 C   0  0  0  0  0  0
  -26.0086  -29.4672   20.7161 C   0  0  0  0  0  0
  -27.2048  -28.7117   20.7032 C   0  0  0  0  0  0
  -26.0578  -26.9252   19.5274 C   0  0  0  0  0  0
  -24.8728  -27.6850   19.5172 C   0  0  0  0  0  0
  -23.6105  -29.8217   20.1677 C   0  0  0  0  0  0
  -25.4117  -36.3123   24.0306 C   0  0  1  0  0  0
  -20.5853  -28.3679   23.1331 C   0  0  2  0  0  0
  -20.6759  -26.9437   22.5399 C   0  0  0  0  0  0
  -19.5738  -26.6424   21.5194 C   0  0  0  0  0  0
  -18.1933  -26.7931   22.1634 C   0  0  0  0  0  0
  -19.1525  -28.8852   23.2914 C   0  0  0  0  0  0
  -18.9452  -30.1447   23.8932 C   0  0  0  0  0  0
  -17.6455  -30.6590   24.0569 C   0  0  0  0  0  0
  -25.9031  -34.9495   23.5101 C   0  0  0  0  0  0
  -16.5352  -29.9082   23.6332 C   0  0  0  0  0  0
  -16.7283  -28.6505   23.0353 C   0  0  0  0  0  0
  -26.4462  -31.6636   25.0713 C   0  0  0  0  0  0
  -25.3730  -31.3730   26.1469 C   0  0  0  0  0  0
  -27.0304  -30.3101   24.6059 C   0  0  0  0  0  0
  -27.6058  -32.4331   25.7450 C   0  0  0  0  0  0
  -27.5604  -37.1845   24.8465 C   0  0  0  0  0  0
  -21.4132  -29.3070   22.3757 N   0  0  0  0  0  0
  -26.4324  -37.3806   23.9376 N   0  0  0  0  0  0
  -24.6656  -31.0795   22.1009 N   0  0  0  0  0  0
  -23.4151  -28.8257   23.3091 O   0  0  0  0  0  0
  -28.4374  -26.7269   20.0986 O   0  0  0  0  0  0
  -26.5609  -34.8952   22.4671 O   0  0  0  0  0  0
  -23.5327  -32.1458   23.7531 O   0  0  0  0  0  0
  -28.4775  -23.8508   20.9696 C   0  0  0  0  0  0
  -26.8383  -22.2124   19.5322 C   0  0  0  0  0  0
  -28.1118  -24.2644   19.6627 C   0  0  0  0  0  0
  -27.3357  -23.3579   18.8612 C   0  0  0  0  0  0
  -28.0164  -22.6189   21.4751 C   0  0  0  0  0  0
  -26.1928  -24.6399   16.8918 C   0  0  0  0  0  0
  -26.4129  -22.2162   16.7288 C   0  0  0  0  0  0
  -28.4711  -23.5352   16.6001 C   0  0  0  0  0  0
  -28.6473  -25.6284   19.1899 C   0  0  0  0  0  0
  -28.3755  -22.0655   22.8578 C   0  0  0  0  0  0
  -29.7491  -17.4521   22.0893 C   0  0  0  0  0  0
  -29.3386  -16.0099   21.7274 C   0  0  0  0  0  0
  -29.2001  -20.7429   22.8746 C   0  0  0  0  0  0
  -28.5229  -18.3408   22.3853 C   0  0  0  0  0  0
  -27.1059  -23.4693   17.3204 C   0  0  0  0  0  0
  -27.1630  -21.8489   20.7848 N   0  0  0  0  0  0
  -30.4850  -15.0999   21.7161 N   0  0  0  0  0  0
  -28.6909  -19.7338   21.9170 N   0  3  0  0  0  0
  -30.3082  -11.2605   19.7696 H   0  0  0  0  0  0
  -31.4612  -12.3528   19.0813 H   0  0  0  0  0  0
  -29.7142  -11.7892   17.3905 H   0  0  0  0  0  0
  -29.6581  -13.4929   17.7580 H   0  0  0  0  0  0
  -27.8116  -11.3137   18.7893 H   0  0  0  0  0  0
  -27.3551  -12.6527   17.7825 H   0  0  0  0  0  0
  -27.7205  -14.2450   19.5954 H   0  0  0  0  0  0
  -28.4808  -13.4821   21.8913 H   0  0  0  0  0  0
  -28.6846  -11.8861   21.2795 H   0  0  0  0  0  0
  -25.2741   -9.5684   22.4753 H   0  0  0  0  0  0
  -24.0006   -7.4619   22.7473 H   0  0  0  0  0  0
  -21.0824   -8.8747   19.8953 H   0  0  0  0  0  0
  -22.3659  -10.9662   19.6158 H   0  0  0  0  0  0
  -21.2017   -7.6152   23.9717 H   0  0  0  0  0  0
  -21.1480   -6.0520   25.9069 H   0  0  0  0  0  0
  -22.0604   -2.7622   23.2830 H   0  0  0  0  0  0
  -22.4162  -11.9972   22.4796 H   0  0  0  0  0  0
  -21.1115  -13.1291   22.2531 H   0  0  0  0  0  0
  -24.6590  -15.8313   20.4831 H   0  0  0  0  0  0
  -26.2796  -15.6108   20.0467 H   0  0  0  0  0  0
  -26.7124  -32.5583   23.1155 H   0  0  0  0  0  0
  -25.0020  -33.9777   25.0454 H   0  0  0  0  0  0
  -22.6925  -31.3109   21.4131 H   0  0  0  0  0  0
  -23.3729  -35.9703   23.3321 H   0  0  0  0  0  0
  -24.3615  -36.8934   22.2051 H   0  0  0  0  0  0
  -23.7304  -37.6567   23.6617 H   0  0  0  0  0  0
  -26.0249  -31.5991   20.5877 H   0  0  0  0  0  0
  -26.8173  -30.8990   21.9732 H   0  0  0  0  0  0
  -28.1017  -29.1089   21.1574 H   0  0  0  0  0  0
  -26.0237  -25.9289   19.1219 H   0  0  0  0  0  0
  -23.9827  -27.2754   19.0578 H   0  0  0  0  0  0
  -23.7196  -30.5924   19.4049 H   0  0  0  0  0  0
  -22.7335  -29.2396   19.8755 H   0  0  0  0  0  0
  -25.1312  -36.1966   25.0805 H   0  0  0  0  0  0
  -20.9946  -28.3221   24.1450 H   0  0  0  0  0  0
  -20.5657  -26.2306   23.3569 H   0  0  0  0  0  0
  -21.6629  -26.7505   22.1192 H   0  0  0  0  0  0
  -19.6885  -25.6335   21.1220 H   0  0  0  0  0  0
  -19.6622  -27.3219   20.6693 H   0  0  0  0  0  0
  -17.4183  -26.6694   21.4045 H   0  0  0  0  0  0
  -18.0368  -26.0047   22.9013 H   0  0  0  0  0  0
  -19.7922  -30.7262   24.2304 H   0  0  0  0  0  0
  -17.5011  -31.6259   24.5166 H   0  0  0  0  0  0
  -15.5342  -30.2981   23.7626 H   0  0  0  0  0  0
  -15.8700  -28.0815   22.7035 H   0  0  0  0  0  0
  -24.5821  -30.7187   25.7777 H   0  0  0  0  0  0
  -24.9002  -32.2896   26.5006 H   0  0  0  0  0  0
  -25.8060  -30.8797   27.0183 H   0  0  0  0  0  0
  -26.2829  -29.6824   24.1195 H   0  0  0  0  0  0
  -27.4218  -29.7371   25.4481 H   0  0  0  0  0  0
  -27.8577  -30.4469   23.9087 H   0  0  0  0  0  0
  -27.2666  -33.3537   26.2193 H   0  0  0  0  0  0
  -28.3738  -32.7075   25.0203 H   0  0  0  0  0  0
  -28.0857  -31.8384   26.5229 H   0  0  0  0  0  0
  -28.2633  -38.0133   24.7486 H   0  0  0  0  0  0
  -28.1085  -36.2676   24.6275 H   0  0  0  0  0  0
  -27.2335  -37.1480   25.8877 H   0  0  0  0  0  0
  -20.9287  -29.8822   21.7004 H   0  0  0  0  0  0
  -26.0199  -38.2892   24.1327 H   0  0  0  0  0  0
  -29.1290  -24.4759   21.5661 H   0  0  0  0  0  0
  -26.1911  -21.4880   19.0671 H   0  0  0  0  0  0
  -25.2397  -24.6330   17.4214 H   0  0  0  0  0  0
  -25.9500  -24.5700   15.8301 H   0  0  0  0  0  0
  -26.6407  -25.6185   17.0108 H   0  0  0  0  0  0
  -25.4061  -22.0782   17.1202 H   0  0  0  0  0  0
  -26.9741  -21.2999   16.9158 H   0  0  0  0  0  0
  -26.3027  -22.2991   15.6478 H   0  0  0  0  0  0
  -29.0420  -24.4362   16.8168 H   0  0  0  0  0  0
  -28.3500  -23.4887   15.5155 H   0  0  0  0  0  0
  -29.0904  -22.6797   16.8805 H   0  0  0  0  0  0
  -28.2907  -25.9133   18.2102 H   0  0  0  0  0  0
  -29.7298  -25.5387   19.0755 H   0  0  0  0  0  0
  -27.4389  -21.9129   23.3979 H   0  0  0  0  0  0
  -28.9212  -22.8191   23.4264 H   0  0  0  0  0  0
  -30.4183  -17.4726   22.9498 H   0  0  0  0  0  0
  -30.3184  -17.8609   21.2541 H   0  0  0  0  0  0
  -28.6122  -15.6295   22.4438 H   0  0  0  0  0  0
  -28.8377  -16.0336   20.7541 H   0  0  0  0  0  0
  -29.1993  -20.3425   23.8909 H   0  0  0  0  0  0
  -30.2452  -20.9396   22.6341 H   0  0  0  0  0  0
  -28.2475  -18.2979   23.4423 H   0  0  0  0  0  0
  -27.6708  -17.9443   21.8314 H   0  0  0  0  0  0
  -31.3137  -15.5306   22.0991 H   0  0  0  0  0  0
  -29.2744  -19.7468   21.0954 H   0  0  0  0  0  0
  -27.7865  -20.0812   21.6196 H   0  0  0  0  0  0
  1 25  1  0  0  0
  1 30  2  0  0  0
  1 87  1  0  0  0
  2  3  1  0  0  0
  2 25  1  0  0  0
  2 89  1  0  0  0
  2 90  1  0  0  0
  3  4  1  0  0  0
  3 91  1  0  0  0
  3 92  1  0  0  0
  4  5  1  0  0  0
  4 93  1  0  0  0
  4 94  1  0  0  0
  5  6  1  0  0  0
  5 26  1  0  0  0
  5 95  1  0  0  0
  6 25  1  0  0  0
  6 96  1  0  0  0
  6 97  1  0  0  0
  7  8  2  0  0  0
  7 26  1  0  0  0
  7 29  1  0  0  0
  8  9  1  0  0  0
  8 22  1  0  0  0
  9 10  1  0  0  0
  9 27  2  0  0  0
 10 11  2  0  0  0
 10 15  1  0  0  0
 11 12  1  0  0  0
 11 98  1  0  0  0
 12 13  2  0  0  0
 12 99  1  0  0  0
 13 14  1  0  0  0
 13 31  1  0  0  0
 14 15  2  0  0  0
 14100  1  0  0  0
 15101  1  0  0  0
 16 17  2  0  0  0
 16 21  1  0  0  0
 16 31  1  0  0  0
 17 18  1  0  0  0
 17102  1  0  0  0
 18 19  2  0  0  0
 18103  1  0  0  0
 19 20  1  0  0  0
 19 24  1  0  0  0
 20 21  2  0  0  0
 20104  1  0  0  0
 21 23  1  0  0  0
 22 28  1  0  0  0
 22 32  2  0  0  0
 26 27  1  0  0  0
 28105  1  0  0  0
 28106  1  0  0  0
 29107  1  0  0  0
 29108  1  0  0  0
 33 34  1  0  0  0
 33 66  1  0  0  0
 33 70  2  0  0  0
 34 36  1  0  0  0
 34 59  1  0  0  0
 34109  1  0  0  0
 35 44  2  0  0  0
 35 45  1  0  0  0
 35 68  1  0  0  0
 36 56  1  0  0  0
 36110  1  0  0  0
 37 39  1  0  0  0
 37 47  1  0  0  0
 37 66  1  0  0  0
 37111  1  0  0  0
 38 43  2  0  0  0
 38 46  1  0  0  0
 38 47  1  0  0  0
 39 64  1  0  0  0
 39 67  2  0  0  0
 40 52  1  0  0  0
 40 53  2  0  0  0
 40 58  1  0  0  0
 41112  1  0  0  0
 41113  1  0  0  0
 41114  1  0  0  0
 41 48  1  0  0  0
 42 43  1  0  0  0
 42 66  1  0  0  0
 42115  1  0  0  0
 42116  1  0  0  0
 43 44  1  0  0  0
 44117  1  0  0  0
 45 46  2  0  0  0
 45118  1  0  0  0
 46119  1  0  0  0
 47120  1  0  0  0
 47121  1  0  0  0
 48 56  1  0  0  0
 48 65  1  0  0  0
 48122  1  0  0  0
 49 50  1  0  0  0
 49 53  1  0  0  0
 49 64  1  0  0  0
 49123  1  0  0  0
 50 51  1  0  0  0
 50124  1  0  0  0
 50125  1  0  0  0
 51 52  1  0  0  0
 51126  1  0  0  0
 51127  1  0  0  0
 52128  1  0  0  0
 52129  1  0  0  0
 53 54  1  0  0  0
 54 55  2  0  0  0
 54130  1  0  0  0
 55 57  1  0  0  0
 55131  1  0  0  0
 56 69  2  0  0  0
 57 58  2  0  0  0
 57132  1  0  0  0
 58133  1  0  0  0
 59 60  1  0  0  0
 59 61  1  0  0  0
 59 62  1  0  0  0
 60134  1  0  0  0
 60135  1  0  0  0
 60136  1  0  0  0
 61137  1  0  0  0
 61138  1  0  0  0
 61139  1  0  0  0
 62140  1  0  0  0
 62141  1  0  0  0
 62142  1  0  0  0
 63 65  1  0  0  0
 63143  1  0  0  0
 63144  1  0  0  0
 63145  1  0  0  0
 64146  1  0  0  0
 65147  1  0  0  0
 68 79  1  0  0  0
 71 73  2  0  0  0
 71 75  1  0  0  0
 71148  1  0  0  0
 72 74  2  0  0  0
 72 86  1  0  0  0
 72149  1  0  0  0
 73 74  1  0  0  0
 73 79  1  0  0  0
 74 85  1  0  0  0
 75 80  1  0  0  0
 75 86  2  0  0  0
 76150  1  0  0  0
 76151  1  0  0  0
 76152  1  0  0  0
 76 85  1  0  0  0
 77 85  1  0  0  0
 77153  1  0  0  0
 77154  1  0  0  0
 77155  1  0  0  0
 78 85  1  0  0  0
 78156  1  0  0  0
 78157  1  0  0  0
 78158  1  0  0  0
 79159  1  0  0  0
 79160  1  0  0  0
 80 83  1  0  0  0
 80161  1  0  0  0
 80162  1  0  0  0
 81 82  1  0  0  0
 81 84  1  0  0  0
 81163  1  0  0  0
 81164  1  0  0  0
 82 87  1  0  0  0
 82165  1  0  0  0
 82166  1  0  0  0
 83 88  1  0  0  0
 83167  1  0  0  0
 83168  1  0  0  0
 84 88  1  0  0  0
 84169  1  0  0  0
 84170  1  0  0  0
 87171  1  0  0  0
 88172  1  0  0  0
 88173  1  0  0  0
M  CHG  1  88   1
M  ISO  4   1 100  68 101  79 101  87 100
M  END
> <chiral flag>
0

> <version>
0

> <s_m_source_file>
/data/baiqing/PycharmProjects/Reinvent-master-3.2/result/LINK_invent/BTK/process_docking_weight1_custom_sum_contain_oxygen_bond_distance_aromatic_linkinvent_7_9_3/rearranged_h_0089.sdf

> <i_m_source_file_index>
79

> <r_mmod_Potential_Energy-OPLS-2005>
-246.89697265625

> <r_mmod_Stretch_Energy-OPLS-2005>
43.881233215332

> <r_mmod_Bend_Energy-OPLS-2005>
137.27099609375

> <r_mmod_Torsional_Energy-OPLS-2005>
291.631530761719

> <r_mmod_Improper_Torsional_Energy-OPLS-2005>
8.55291175842285

> <r_mmod_Van_der_Waal_Energy-OPLS-2005>
172.140121459961

> <r_mmod_Electrostatic_Energy-OPLS-2005>
-462.075836181641

> <r_mmod_Solvation_Energy-OPLS-2005>
-447.213989257812

> <b_mmod_Minimization_Converged-OPLS-2005>
0

> <r_mmod_RMS_Derivative-OPLS-2005>
6.31727409362793

$$$$
80
                    3D
 Structure written by MMmdl.
168175  0  0  1  0            999 V2000
  -30.6326  -14.6389   20.5075 C   0  0  0  0  0  0
  -30.4383  -12.4002   19.4569 C   0  0  0  0  0  0
  -29.5154  -12.5141   18.2233 C   0  0  0  0  0  0
  -28.0359  -12.3407   18.6239 C   0  0  0  0  0  0
  -27.6514  -13.2097   19.8508 C   0  0  2  0  0  0
  -28.6914  -13.0984   20.9869 C   0  0  0  0  0  0
  -25.2591  -13.8154   20.5619 C   0  0  0  0  0  0
  -24.1856  -13.0438   20.9131 C   0  0  0  0  0  0
  -24.6407  -11.6904   20.8696 C   0  0  0  0  0  0
  -23.9071  -10.4304   21.0396 C   0  0  0  0  0  0
  -24.3625   -9.4233   21.9181 C   0  0  0  0  0  0
  -23.6305   -8.2260   22.0763 C   0  0  0  0  0  0
  -22.4281   -8.0301   21.3562 C   0  0  0  0  0  0
  -21.9915   -9.0254   20.4654 C   0  0  0  0  0  0
  -22.7237  -10.2142   20.3055 C   0  0  0  0  0  0
  -21.6865   -6.0754   22.5272 C   0  0  0  0  0  0
  -21.4032   -6.5652   23.8214 C   0  0  0  0  0  0
  -21.3649   -5.6798   24.9165 C   0  0  0  0  0  0
  -21.6039   -4.3056   24.7218 C   0  0  0  0  0  0
  -21.8822   -3.8164   23.4330 C   0  0  0  0  0  0
  -21.9205   -4.6981   22.3403 C   0  0  0  0  0  0
  -22.7887  -13.5262   21.1791 C   0  0  0  0  0  0
  -22.1663   -4.2171   21.0975 F   0  0  0  0  0  0
  -21.5613   -3.4543   25.7728 F   0  0  0  0  0  0
  -30.0116  -13.4214   20.4312 N   0  0  0  0  0  0
  -26.2986  -12.9299   20.3201 N   0  0  0  0  0  0
  -25.9336  -11.6474   20.5705 N   0  0  0  0  0  0
  -22.0509  -12.8290   22.0347 N   0  0  0  0  0  0
  -25.4321  -15.1885   20.4071 N   0  0  0  0  0  0
  -31.8015  -14.7645   20.1301 O   0  0  0  0  0  0
  -21.6645   -6.8892   21.4244 O   0  0  0  0  0  0
  -22.3592  -14.5567   20.6625 O   0  0  0  0  0  0
  -24.6222  -31.8625   23.2013 C   0  0  0  0  0  0
  -25.9080  -32.4779   23.8339 C   0  0  1  0  0  0
  -27.2396  -27.3342   20.1346 C   0  0  0  0  0  0
  -25.5911  -33.8576   24.2277 N   0  0  0  0  0  0
  -23.4155  -30.4820   21.5398 C   0  0  2  0  0  0
  -24.8658  -28.9288   20.1141 C   0  0  0  0  0  0
  -22.7455  -29.4653   22.4935 C   0  0  0  0  0  0
  -18.0288  -28.1387   22.8496 C   0  0  0  0  0  0
  -24.1485  -36.7290   23.2644 C   0  0  0  0  0  0
  -25.9506  -30.8002   21.3661 C   0  0  0  0  0  0
  -26.0286  -29.4250   20.7142 C   0  0  0  0  0  0
  -27.2126  -28.6379   20.7165 C   0  0  0  0  0  0
  -26.0532  -26.8755   19.5231 C   0  0  0  0  0  0
  -24.8768  -27.6577   19.5153 C   0  0  0  0  0  0
  -23.6319  -29.8070   20.1574 C   0  0  0  0  0  0
  -25.4107  -36.3089   24.0341 C   0  0  1  0  0  0
  -20.5890  -28.3700   23.1294 C   0  0  2  0  0  0
  -20.6784  -26.9428   22.5415 C   0  0  0  0  0  0
  -19.5756  -26.6391   21.5223 C   0  0  0  0  0  0
  -18.1936  -26.7928   22.1635 C   0  0  0  0  0  0
  -19.1542  -28.8860   23.2896 C   0  0  0  0  0  0
  -18.9471  -30.1463   23.8909 C   0  0  0  0  0  0
  -17.6475  -30.6597   24.0575 C   0  0  0  0  0  0
  -25.9048  -34.9459   23.5117 C   0  0  0  0  0  0
  -16.5365  -29.9100   23.6331 C   0  0  0  0  0  0
  -16.7280  -28.6510   23.0365 C   0  0  0  0  0  0
  -26.4473  -31.6586   25.0703 C   0  0  0  0  0  0
  -25.3706  -31.3748   26.1436 C   0  0  0  0  0  0
  -27.0326  -30.3011   24.6152 C   0  0  0  0  0  0
  -27.6039  -32.4310   25.7474 C   0  0  0  0  0  0
  -27.5575  -37.1800   24.8468 C   0  0  0  0  0  0
  -21.4172  -29.3053   22.3672 N   0  0  0  0  0  0
  -26.4286  -37.3782   23.9407 N   0  0  0  0  0  0
  -24.6805  -31.0663   22.0931 N   0  0  0  0  0  0
  -23.4185  -28.8221   23.3041 O   0  0  0  0  0  0
  -28.3990  -26.5530   20.2168 O   0  0  0  0  0  0
  -26.5618  -34.8936   22.4678 O   0  0  0  0  0  0
  -23.5391  -32.1413   23.7364 O   0  0  0  0  0  0
  -30.7839  -18.0900   17.7311 C   0  0  0  0  0  0
  -28.4593  -17.1642   18.1696 C   0  0  0  0  0  0
  -29.4712  -21.4912   22.3558 C   0  0  0  0  0  0
  -31.2911  -20.2264   20.4336 C   0  0  0  0  0  0
  -29.8389  -15.9530   20.9081 C   0  0  0  0  0  0
  -28.3675  -23.8987   20.5674 C   0  0  0  0  0  0
  -29.0402  -22.5458   20.0310 C   0  0  0  0  0  0
  -29.4244  -18.6177   20.7848 C   0  0  0  0  0  0
  -28.5386  -25.1962   19.6551 C   0  0  0  0  0  0
  -29.9356  -17.1560   18.6106 C   0  0  0  0  0  0
  -30.1581  -17.3282   20.1521 C   0  0  2  0  0  0
  -29.0296  -21.1963   20.9029 C   0  0  1  0  0  0
  -29.8228  -20.0185   20.3170 N   0  3  1  0  0  0
  -31.4808  -12.5201   19.1589 H   0  0  0  0  0  0
  -30.3653  -11.4091   19.9053 H   0  0  0  0  0  0
  -29.7936  -11.7681   17.4788 H   0  0  0  0  0  0
  -29.6493  -13.4891   17.7489 H   0  0  0  0  0  0
  -27.8727  -11.2847   18.8424 H   0  0  0  0  0  0
  -27.3900  -12.5792   17.7774 H   0  0  0  0  0  0
  -27.6612  -14.2366   19.4931 H   0  0  0  0  0  0
  -28.7011  -12.0929   21.4101 H   0  0  0  0  0  0
  -28.4311  -13.7629   21.8122 H   0  0  0  0  0  0
  -25.2789   -9.5718   22.4725 H   0  0  0  0  0  0
  -24.0020   -7.4682   22.7514 H   0  0  0  0  0  0
  -21.0831   -8.8786   19.8978 H   0  0  0  0  0  0
  -22.3705  -10.9671   19.6147 H   0  0  0  0  0  0
  -21.2035   -7.6165   23.9728 H   0  0  0  0  0  0
  -21.1449   -6.0518   25.9065 H   0  0  0  0  0  0
  -22.0612   -2.7629   23.2825 H   0  0  0  0  0  0
  -22.4113  -11.9956   22.4755 H   0  0  0  0  0  0
  -21.1126  -13.1334   22.2519 H   0  0  0  0  0  0
  -24.6607  -15.8397   20.5119 H   0  0  0  0  0  0
  -26.2877  -15.6314   20.0984 H   0  0  0  0  0  0
  -26.7158  -32.5472   23.1101 H   0  0  0  0  0  0
  -25.0049  -33.9713   25.0415 H   0  0  0  0  0  0
  -22.7069  -31.3005   21.3909 H   0  0  0  0  0  0
  -23.3754  -35.9616   23.3300 H   0  0  0  0  0  0
  -24.3585  -36.8906   22.2062 H   0  0  0  0  0  0
  -23.7226  -37.6487   23.6657 H   0  0  0  0  0  0
  -26.0773  -31.5656   20.5993 H   0  0  0  0  0  0
  -26.8303  -30.8526   21.9949 H   0  0  0  0  0  0
  -28.1021  -29.0181   21.1984 H   0  0  0  0  0  0
  -26.0011  -25.8938   19.0785 H   0  0  0  0  0  0
  -23.9790  -27.2601   19.0617 H   0  0  0  0  0  0
  -23.7526  -30.5775   19.3960 H   0  0  0  0  0  0
  -22.7530  -29.2339   19.8570 H   0  0  0  0  0  0
  -25.1287  -36.1939   25.0835 H   0  0  0  0  0  0
  -20.9991  -28.3280   24.1414 H   0  0  0  0  0  0
  -20.5719  -26.2315   23.3615 H   0  0  0  0  0  0
  -21.6652  -26.7483   22.1200 H   0  0  0  0  0  0
  -19.6928  -25.6308   21.1247 H   0  0  0  0  0  0
  -19.6682  -27.3215   20.6765 H   0  0  0  0  0  0
  -17.4214  -26.6700   21.4028 H   0  0  0  0  0  0
  -18.0330  -26.0060   22.9025 H   0  0  0  0  0  0
  -19.7955  -30.7272   24.2278 H   0  0  0  0  0  0
  -17.5041  -31.6275   24.5174 H   0  0  0  0  0  0
  -15.5374  -30.3016   23.7641 H   0  0  0  0  0  0
  -15.8675  -28.0829   22.7076 H   0  0  0  0  0  0
  -24.5869  -30.7095   25.7779 H   0  0  0  0  0  0
  -24.8915  -32.2943   26.4823 H   0  0  0  0  0  0
  -25.8038  -30.8955   27.0229 H   0  0  0  0  0  0
  -26.2920  -29.6739   24.1170 H   0  0  0  0  0  0
  -27.4035  -29.7270   25.4657 H   0  0  0  0  0  0
  -27.8775  -30.4302   23.9377 H   0  0  0  0  0  0
  -27.2653  -33.3623   26.2022 H   0  0  0  0  0  0
  -28.3870  -32.6829   25.0309 H   0  0  0  0  0  0
  -28.0668  -31.8435   26.5413 H   0  0  0  0  0  0
  -28.2607  -38.0094   24.7519 H   0  0  0  0  0  0
  -28.1069  -36.2619   24.6289 H   0  0  0  0  0  0
  -27.2303  -37.1453   25.8882 H   0  0  0  0  0  0
  -20.9343  -29.8738   21.6846 H   0  0  0  0  0  0
  -26.0171  -38.2862   24.1389 H   0  0  0  0  0  0
  -30.7162  -17.7981   16.6814 H   0  0  0  0  0  0
  -31.8386  -18.0269   17.9999 H   0  0  0  0  0  0
  -30.4620  -19.1283   17.7865 H   0  0  0  0  0  0
  -28.3842  -17.0112   17.0916 H   0  0  0  0  0  0
  -27.9551  -18.1015   18.3996 H   0  0  0  0  0  0
  -27.8905  -16.3632   18.6392 H   0  0  0  0  0  0
  -29.4927  -20.5941   22.9742 H   0  0  0  0  0  0
  -28.7987  -22.1925   22.8471 H   0  0  0  0  0  0
  -30.4688  -21.9286   22.3896 H   0  0  0  0  0  0
  -31.5810  -21.2463   20.1935 H   0  0  0  0  0  0
  -31.8507  -19.5849   19.7583 H   0  0  0  0  0  0
  -31.6424  -20.0159   21.4445 H   0  0  0  0  0  0
  -28.7733  -15.7746   20.7951 H   0  0  0  0  0  0
  -29.9962  -16.0959   21.9778 H   0  0  0  0  0  0
  -28.7759  -24.1169   21.5551 H   0  0  0  0  0  0
  -27.3024  -23.7346   20.7303 H   0  0  0  0  0  0
  -30.0738  -22.7948   19.7914 H   0  0  0  0  0  0
  -28.5750  -22.3197   19.0719 H   0  0  0  0  0  0
  -28.3468  -18.5134   20.6501 H   0  0  0  0  0  0
  -29.5775  -18.5844   21.8658 H   0  0  0  0  0  0
  -27.9680  -25.0893   18.7351 H   0  0  0  0  0  0
  -29.5751  -25.1802   19.3155 H   0  0  0  0  0  0
  -30.3054  -16.1684   18.3374 H   0  0  0  0  0  0
  -31.2276  -17.4676   20.3101 H   0  0  0  0  0  0
  -27.9875  -20.8718   20.9512 H   0  0  0  0  0  0
  -29.6150  -20.0274   19.3287 H   0  0  0  0  0  0
  1 25  1  0  0  0
  1 30  2  0  0  0
  1 75  1  0  0  0
  2  3  1  0  0  0
  2 25  1  0  0  0
  2 84  1  0  0  0
  2 85  1  0  0  0
  3  4  1  0  0  0
  3 86  1  0  0  0
  3 87  1  0  0  0
  4  5  1  0  0  0
  4 88  1  0  0  0
  4 89  1  0  0  0
  5  6  1  0  0  0
  5 26  1  0  0  0
  5 90  1  0  0  0
  6 25  1  0  0  0
  6 91  1  0  0  0
  6 92  1  0  0  0
  7  8  2  0  0  0
  7 26  1  0  0  0
  7 29  1  0  0  0
  8  9  1  0  0  0
  8 22  1  0  0  0
  9 10  1  0  0  0
  9 27  2  0  0  0
 10 11  2  0  0  0
 10 15  1  0  0  0
 11 12  1  0  0  0
 11 93  1  0  0  0
 12 13  2  0  0  0
 12 94  1  0  0  0
 13 14  1  0  0  0
 13 31  1  0  0  0
 14 15  2  0  0  0
 14 95  1  0  0  0
 15 96  1  0  0  0
 16 17  2  0  0  0
 16 21  1  0  0  0
 16 31  1  0  0  0
 17 18  1  0  0  0
 17 97  1  0  0  0
 18 19  2  0  0  0
 18 98  1  0  0  0
 19 20  1  0  0  0
 19 24  1  0  0  0
 20 21  2  0  0  0
 20 99  1  0  0  0
 21 23  1  0  0  0
 22 28  1  0  0  0
 22 32  2  0  0  0
 26 27  1  0  0  0
 28100  1  0  0  0
 28101  1  0  0  0
 29102  1  0  0  0
 29103  1  0  0  0
 33 34  1  0  0  0
 33 66  1  0  0  0
 33 70  2  0  0  0
 34 36  1  0  0  0
 34 59  1  0  0  0
 34104  1  0  0  0
 35 44  2  0  0  0
 35 45  1  0  0  0
 35 68  1  0  0  0
 36 56  1  0  0  0
 36105  1  0  0  0
 37 39  1  0  0  0
 37 47  1  0  0  0
 37 66  1  0  0  0
 37106  1  0  0  0
 38 43  2  0  0  0
 38 46  1  0  0  0
 38 47  1  0  0  0
 39 64  1  0  0  0
 39 67  2  0  0  0
 40 52  1  0  0  0
 40 53  2  0  0  0
 40 58  1  0  0  0
 41107  1  0  0  0
 41108  1  0  0  0
 41109  1  0  0  0
 41 48  1  0  0  0
 42 43  1  0  0  0
 42 66  1  0  0  0
 42110  1  0  0  0
 42111  1  0  0  0
 43 44  1  0  0  0
 44112  1  0  0  0
 45 46  2  0  0  0
 45113  1  0  0  0
 46114  1  0  0  0
 47115  1  0  0  0
 47116  1  0  0  0
 48 56  1  0  0  0
 48 65  1  0  0  0
 48117  1  0  0  0
 49 50  1  0  0  0
 49 53  1  0  0  0
 49 64  1  0  0  0
 49118  1  0  0  0
 50 51  1  0  0  0
 50119  1  0  0  0
 50120  1  0  0  0
 51 52  1  0  0  0
 51121  1  0  0  0
 51122  1  0  0  0
 52123  1  0  0  0
 52124  1  0  0  0
 53 54  1  0  0  0
 54 55  2  0  0  0
 54125  1  0  0  0
 55 57  1  0  0  0
 55126  1  0  0  0
 56 69  2  0  0  0
 57 58  2  0  0  0
 57127  1  0  0  0
 58128  1  0  0  0
 59 60  1  0  0  0
 59 61  1  0  0  0
 59 62  1  0  0  0
 60129  1  0  0  0
 60130  1  0  0  0
 60131  1  0  0  0
 61132  1  0  0  0
 61133  1  0  0  0
 61134  1  0  0  0
 62135  1  0  0  0
 62136  1  0  0  0
 62137  1  0  0  0
 63 65  1  0  0  0
 63138  1  0  0  0
 63139  1  0  0  0
 63140  1  0  0  0
 64141  1  0  0  0
 65142  1  0  0  0
 68 79  1  0  0  0
 71143  1  0  0  0
 71144  1  0  0  0
 71145  1  0  0  0
 71 80  1  0  0  0
 72 80  1  0  0  0
 72146  1  0  0  0
 72147  1  0  0  0
 72148  1  0  0  0
 73149  1  0  0  0
 73150  1  0  0  0
 73151  1  0  0  0
 73 82  1  0  0  0
 74152  1  0  0  0
 74153  1  0  0  0
 74154  1  0  0  0
 74 83  1  0  0  0
 75155  1  0  0  0
 75156  1  0  0  0
 75 81  1  0  0  0
 76 77  1  0  0  0
 76 79  1  0  0  0
 76157  1  0  0  0
 76158  1  0  0  0
 77 82  1  0  0  0
 77159  1  0  0  0
 77160  1  0  0  0
 78 81  1  0  0  0
 78 83  1  0  0  0
 78161  1  0  0  0
 78162  1  0  0  0
 79163  1  0  0  0
 79164  1  0  0  0
 80 81  1  0  0  0
 80165  1  0  0  0
 81166  1  0  0  0
 82 83  1  0  0  0
 82167  1  0  0  0
 83168  1  0  0  0
M  CHG  1  83   1
M  ISO  4   1 100  68 101  75 100  79 101
M  END
> <chiral flag>
0

> <version>
0

> <s_m_source_file>
/data/baiqing/PycharmProjects/Reinvent-master-3.2/result/LINK_invent/BTK/process_docking_weight1_custom_sum_contain_oxygen_bond_distance_aromatic_linkinvent_7_9_3/rearranged_h_0089.sdf

> <i_m_source_file_index>
80

> <r_mmod_Potential_Energy-OPLS-2005>
-3.79195237159729

> <r_mmod_Stretch_Energy-OPLS-2005>
93.1579132080078

> <r_mmod_Bend_Energy-OPLS-2005>
158.989562988281

> <r_mmod_Torsional_Energy-OPLS-2005>
198.143096923828

> <r_mmod_Improper_Torsional_Energy-OPLS-2005>
3.43115782737732

> <r_mmod_Van_der_Waal_Energy-OPLS-2005>
119.342414855957

> <r_mmod_Electrostatic_Energy-OPLS-2005>
-207.534545898438

> <r_mmod_Solvation_Energy-OPLS-2005>
-414.347595214844

> <b_mmod_Minimization_Converged-OPLS-2005>
0

> <r_mmod_RMS_Derivative-OPLS-2005>
3.9826991558075

$$$$
81
                    3D
 Structure written by MMmdl.
180188  0  0  1  0            999 V2000
  -30.7530  -14.3921   20.6891 C   0  0  0  0  0  0
  -30.4127  -12.3102   19.3932 C   0  0  0  0  0  0
  -29.4784  -12.5316   18.1895 C   0  0  0  0  0  0
  -28.0035  -12.3776   18.6054 C   0  0  0  0  0  0
  -27.6603  -13.1997   19.8743 C   0  0  2  0  0  0
  -28.6986  -12.9376   20.9867 C   0  0  0  0  0  0
  -25.2579  -13.8143   20.5661 C   0  0  0  0  0  0
  -24.1826  -13.0436   20.9167 C   0  0  0  0  0  0
  -24.6371  -11.6896   20.8726 C   0  0  0  0  0  0
  -23.9040  -10.4286   21.0402 C   0  0  0  0  0  0
  -24.3598   -9.4207   21.9183 C   0  0  0  0  0  0
  -23.6280   -8.2243   22.0749 C   0  0  0  0  0  0
  -22.4264   -8.0276   21.3541 C   0  0  0  0  0  0
  -21.9898   -9.0243   20.4642 C   0  0  0  0  0  0
  -22.7216  -10.2126   20.3050 C   0  0  0  0  0  0
  -21.6854   -6.0732   22.5279 C   0  0  0  0  0  0
  -21.4011   -6.5638   23.8213 C   0  0  0  0  0  0
  -21.3657   -5.6791   24.9176 C   0  0  0  0  0  0
  -21.6046   -4.3054   24.7230 C   0  0  0  0  0  0
  -21.8818   -3.8143   23.4348 C   0  0  0  0  0  0
  -21.9190   -4.6961   22.3405 C   0  0  0  0  0  0
  -22.7852  -13.5239   21.1840 C   0  0  0  0  0  0
  -22.1661   -4.2144   21.0984 F   0  0  0  0  0  0
  -21.5627   -3.4538   25.7740 F   0  0  0  0  0  0
  -30.0358  -13.2571   20.4556 N   0  0  0  0  0  0
  -26.3003  -12.9305   20.3341 N   0  0  0  0  0  0
  -25.9285  -11.6467   20.5735 N   0  0  0  0  0  0
  -22.0498  -12.8228   22.0403 N   0  0  0  0  0  0
  -25.4321  -15.1860   20.4055 N   0  0  0  0  0  0
  -31.7856  -14.6601   20.0613 O   0  0  0  0  0  0
  -21.6636   -6.8875   21.4241 O   0  0  0  0  0  0
  -22.3536  -14.5550   20.6702 O   0  0  0  0  0  0
  -24.6134  -31.8685   23.2115 C   0  0  0  0  0  0
  -25.9026  -32.4826   23.8415 C   0  0  1  0  0  0
  -27.2351  -27.4476   20.1005 C   0  0  0  0  0  0
  -25.5884  -33.8620   24.2341 N   0  0  0  0  0  0
  -23.4018  -30.4906   21.5531 C   0  0  2  0  0  0
  -24.8496  -28.9588   20.1152 C   0  0  0  0  0  0
  -22.7403  -29.4639   22.5012 C   0  0  0  0  0  0
  -18.0270  -28.1359   22.8493 C   0  0  0  0  0  0
  -24.1485  -36.7330   23.2634 C   0  0  0  0  0  0
  -25.9272  -30.8425   21.3589 C   0  0  0  0  0  0
  -26.0088  -29.4765   20.7089 C   0  0  0  0  0  0
  -27.2086  -28.7295   20.6933 C   0  0  0  0  0  0
  -26.0621  -26.9386   19.5056 C   0  0  0  0  0  0
  -24.8711  -27.6895   19.5088 C   0  0  0  0  0  0
  -23.6086  -29.8220   20.1672 C   0  0  0  0  0  0
  -25.4109  -36.3111   24.0326 C   0  0  1  0  0  0
  -20.5859  -28.3642   23.1333 C   0  0  2  0  0  0
  -20.6763  -26.9385   22.5425 C   0  0  0  0  0  0
  -19.5740  -26.6378   21.5215 C   0  0  0  0  0  0
  -18.1917  -26.7915   22.1617 C   0  0  0  0  0  0
  -19.1518  -28.8822   23.2909 C   0  0  0  0  0  0
  -18.9439  -30.1428   23.8912 C   0  0  0  0  0  0
  -17.6442  -30.6573   24.0557 C   0  0  0  0  0  0
  -25.9032  -34.9471   23.5130 C   0  0  0  0  0  0
  -16.5333  -29.9075   23.6316 C   0  0  0  0  0  0
  -16.7259  -28.6489   23.0348 C   0  0  0  0  0  0
  -26.4458  -31.6598   25.0728 C   0  0  0  0  0  0
  -25.3720  -31.3667   26.1460 C   0  0  0  0  0  0
  -27.0283  -30.3046   24.6070 C   0  0  0  0  0  0
  -27.6063  -32.4291   25.7468 C   0  0  0  0  0  0
  -27.5584  -37.1803   24.8458 C   0  0  0  0  0  0
  -21.4137  -29.3010   22.3741 N   0  0  0  0  0  0
  -26.4299  -37.3797   23.9402 N   0  0  0  0  0  0
  -24.6669  -31.0793   22.1013 N   0  0  0  0  0  0
  -23.4184  -28.8184   23.3050 O   0  0  0  0  0  0
  -28.3956  -26.7085   20.0934 O   0  0  0  0  0  0
  -26.5602  -34.8919   22.4697 O   0  0  0  0  0  0
  -23.5326  -32.1426   23.7507 O   0  0  0  0  0  0
  -29.7644  -17.9179   23.4281 C   0  0  0  0  0  0
  -30.1223  -20.1959   22.6362 C   0  0  0  0  0  0
  -29.6074  -18.4189   21.0501 C   0  0  0  0  0  0
  -30.0647  -19.2670   23.6958 C   0  0  0  0  0  0
  -29.5564  -17.4780   22.1050 C   0  0  0  0  0  0
  -29.8986  -19.7858   21.3033 C   0  0  0  0  0  0
  -30.5997  -20.1618   18.8763 C   0  0  0  0  0  0
  -31.3678  -19.1388   28.0838 C   0  0  0  0  0  0
  -33.6898  -19.5614   27.1973 C   0  0  0  0  0  0
  -31.4798  -15.3284   22.7990 C   0  0  0  0  0  0
  -30.3619  -19.6995   25.1212 C   0  0  0  0  0  0
  -29.2627  -15.9992   21.8329 C   0  0  0  0  0  0
  -31.7786  -19.2815   25.5600 C   0  0  0  0  0  0
  -28.5965  -22.9128   20.7555 C   0  0  0  0  0  0
  -28.5399  -24.2358   19.9496 C   0  0  0  0  0  0
  -28.7949  -21.6515   19.8752 C   0  0  0  0  0  0
  -28.3365  -25.4825   20.8363 C   0  0  0  0  0  0
  -30.0664  -20.8091   20.1683 C   0  0  1  0  0  0
  -32.1892  -19.7887   26.9581 C   0  0  0  0  0  0
  -30.4276  -15.0841   21.8058 N   0  0  0  0  0  0
  -31.4550  -12.4158   19.0880 H   0  0  0  0  0  0
  -30.3184  -11.2874   19.7612 H   0  0  0  0  0  0
  -29.7164  -11.8262   17.3913 H   0  0  0  0  0  0
  -29.6399  -13.5285   17.7767 H   0  0  0  0  0  0
  -27.8150  -11.3183   18.7858 H   0  0  0  0  0  0
  -27.3482  -12.6651   17.7822 H   0  0  0  0  0  0
  -27.7147  -14.2514   19.5944 H   0  0  0  0  0  0
  -28.6713  -11.8871   21.2777 H   0  0  0  0  0  0
  -28.4417  -13.4814   21.8932 H   0  0  0  0  0  0
  -25.2747   -9.5687   22.4753 H   0  0  0  0  0  0
  -23.9995   -7.4635   22.7465 H   0  0  0  0  0  0
  -21.0832   -8.8753   19.8946 H   0  0  0  0  0  0
  -22.3675  -10.9659   19.6151 H   0  0  0  0  0  0
  -21.2007   -7.6146   23.9715 H   0  0  0  0  0  0
  -21.1481   -6.0524   25.9080 H   0  0  0  0  0  0
  -22.0601   -2.7606   23.2853 H   0  0  0  0  0  0
  -22.4118  -11.9884   22.4777 H   0  0  0  0  0  0
  -21.1117  -13.1246   22.2618 H   0  0  0  0  0  0
  -24.6660  -15.8426   20.5098 H   0  0  0  0  0  0
  -26.2828  -15.6228   20.0752 H   0  0  0  0  0  0
  -26.7101  -32.5539   23.1194 H   0  0  0  0  0  0
  -25.0002  -33.9808   25.0458 H   0  0  0  0  0  0
  -22.6889  -31.3062   21.4173 H   0  0  0  0  0  0
  -23.3745  -35.9666   23.3299 H   0  0  0  0  0  0
  -24.3574  -36.8960   22.2050 H   0  0  0  0  0  0
  -23.7250  -37.6540   23.6655 H   0  0  0  0  0  0
  -26.0304  -31.6095   20.5901 H   0  0  0  0  0  0
  -26.8168  -30.9005   21.9729 H   0  0  0  0  0  0
  -28.1067  -29.1236   21.1491 H   0  0  0  0  0  0
  -26.0690  -25.9657   19.0351 H   0  0  0  0  0  0
  -23.9805  -27.2895   19.0452 H   0  0  0  0  0  0
  -23.7087  -30.5960   19.4058 H   0  0  0  0  0  0
  -22.7344  -29.2371   19.8780 H   0  0  0  0  0  0
  -25.1287  -36.1984   25.0822 H   0  0  0  0  0  0
  -20.9942  -28.3206   24.1457 H   0  0  0  0  0  0
  -20.5686  -26.2238   23.3604 H   0  0  0  0  0  0
  -21.6635  -26.7457   22.1203 H   0  0  0  0  0  0
  -19.6907  -25.6304   21.1218 H   0  0  0  0  0  0
  -19.6683  -27.3206   20.6759 H   0  0  0  0  0  0
  -17.4202  -26.6667   21.4007 H   0  0  0  0  0  0
  -18.0307  -26.0047   22.8997 H   0  0  0  0  0  0
  -19.7920  -30.7226   24.2301 H   0  0  0  0  0  0
  -17.5008  -31.6258   24.5145 H   0  0  0  0  0  0
  -15.5332  -30.2976   23.7652 H   0  0  0  0  0  0
  -15.8658  -28.0816   22.7063 H   0  0  0  0  0  0
  -24.5937  -30.6973   25.7771 H   0  0  0  0  0  0
  -24.8841  -32.2789   26.4890 H   0  0  0  0  0  0
  -25.8060  -30.8850   27.0231 H   0  0  0  0  0  0
  -26.2807  -29.6778   24.1180 H   0  0  0  0  0  0
  -27.4147  -29.7286   25.4497 H   0  0  0  0  0  0
  -27.8602  -30.4398   23.9151 H   0  0  0  0  0  0
  -27.2759  -33.3618   26.2045 H   0  0  0  0  0  0
  -28.3859  -32.6788   25.0261 H   0  0  0  0  0  0
  -28.0738  -31.8403   26.5368 H   0  0  0  0  0  0
  -28.2594  -38.0112   24.7535 H   0  0  0  0  0  0
  -28.1095  -36.2643   24.6258 H   0  0  0  0  0  0
  -27.2296  -37.1430   25.8860 H   0  0  0  0  0  0
  -20.9299  -29.8740   21.6970 H   0  0  0  0  0  0
  -26.0186  -38.2872   24.1420 H   0  0  0  0  0  0
  -29.7200  -17.2097   24.2448 H   0  0  0  0  0  0
  -30.3659  -21.2274   22.8464 H   0  0  0  0  0  0
  -29.4383  -18.0739   20.0408 H   0  0  0  0  0  0
  -31.4985  -19.5747   19.0701 H   0  0  0  0  0  0
  -30.8626  -20.9234   18.1411 H   0  0  0  0  0  0
  -29.8616  -19.5078   18.4111 H   0  0  0  0  0  0
  -31.6730  -19.5189   29.0595 H   0  0  0  0  0  0
  -31.4964  -18.0556   28.0978 H   0  0  0  0  0  0
  -30.3027  -19.3467   27.9826 H   0  0  0  0  0  0
  -33.9998  -19.9553   28.1658 H   0  0  0  0  0  0
  -34.2930  -20.0597   26.4375 H   0  0  0  0  0  0
  -33.9410  -18.5001   27.1755 H   0  0  0  0  0  0
  -31.0601  -15.3552   23.8041 H   0  0  0  0  0  0
  -31.9925  -16.2719   22.6063 H   0  0  0  0  0  0
  -32.2329  -14.5371   22.7914 H   0  0  0  0  0  0
  -29.6115  -19.2599   25.7793 H   0  0  0  0  0  0
  -30.2485  -20.7810   25.2045 H   0  0  0  0  0  0
  -28.7029  -15.9322   20.8988 H   0  0  0  0  0  0
  -28.5756  -15.6500   22.6046 H   0  0  0  0  0  0
  -32.4861  -19.6716   24.8268 H   0  0  0  0  0  0
  -31.8760  -18.1955   25.5175 H   0  0  0  0  0  0
  -27.6710  -22.8022   21.3228 H   0  0  0  0  0  0
  -29.3855  -22.9859   21.5039 H   0  0  0  0  0  0
  -27.7377  -24.1794   19.2126 H   0  0  0  0  0  0
  -29.4668  -24.3503   19.3855 H   0  0  0  0  0  0
  -28.8452  -21.9887   18.8388 H   0  0  0  0  0  0
  -27.9106  -21.0142   19.9092 H   0  0  0  0  0  0
  -29.1293  -25.5231   21.5834 H   0  0  0  0  0  0
  -27.4046  -25.3872   21.3980 H   0  0  0  0  0  0
  -30.8516  -21.4978   20.4854 H   0  0  0  0  0  0
  -32.0143  -20.8654   26.9922 H   0  0  0  0  0  0
  1 25  1  0  0  0
  1 30  2  0  0  0
  1 90  1  0  0  0
  2  3  1  0  0  0
  2 25  1  0  0  0
  2 91  1  0  0  0
  2 92  1  0  0  0
  3  4  1  0  0  0
  3 93  1  0  0  0
  3 94  1  0  0  0
  4  5  1  0  0  0
  4 95  1  0  0  0
  4 96  1  0  0  0
  5  6  1  0  0  0
  5 26  1  0  0  0
  5 97  1  0  0  0
  6 25  1  0  0  0
  6 98  1  0  0  0
  6 99  1  0  0  0
  7  8  2  0  0  0
  7 26  1  0  0  0
  7 29  1  0  0  0
  8  9  1  0  0  0
  8 22  1  0  0  0
  9 10  1  0  0  0
  9 27  2  0  0  0
 10 11  2  0  0  0
 10 15  1  0  0  0
 11 12  1  0  0  0
 11100  1  0  0  0
 12 13  2  0  0  0
 12101  1  0  0  0
 13 14  1  0  0  0
 13 31  1  0  0  0
 14 15  2  0  0  0
 14102  1  0  0  0
 15103  1  0  0  0
 16 17  2  0  0  0
 16 21  1  0  0  0
 16 31  1  0  0  0
 17 18  1  0  0  0
 17104  1  0  0  0
 18 19  2  0  0  0
 18105  1  0  0  0
 19 20  1  0  0  0
 19 24  1  0  0  0
 20 21  2  0  0  0
 20106  1  0  0  0
 21 23  1  0  0  0
 22 28  1  0  0  0
 22 32  2  0  0  0
 26 27  1  0  0  0
 28107  1  0  0  0
 28108  1  0  0  0
 29109  1  0  0  0
 29110  1  0  0  0
 33 34  1  0  0  0
 33 66  1  0  0  0
 33 70  2  0  0  0
 34 36  1  0  0  0
 34 59  1  0  0  0
 34111  1  0  0  0
 35 44  2  0  0  0
 35 45  1  0  0  0
 35 68  1  0  0  0
 36 56  1  0  0  0
 36112  1  0  0  0
 37 39  1  0  0  0
 37 47  1  0  0  0
 37 66  1  0  0  0
 37113  1  0  0  0
 38 43  2  0  0  0
 38 46  1  0  0  0
 38 47  1  0  0  0
 39 64  1  0  0  0
 39 67  2  0  0  0
 40 52  1  0  0  0
 40 53  2  0  0  0
 40 58  1  0  0  0
 41114  1  0  0  0
 41115  1  0  0  0
 41116  1  0  0  0
 41 48  1  0  0  0
 42 43  1  0  0  0
 42 66  1  0  0  0
 42117  1  0  0  0
 42118  1  0  0  0
 43 44  1  0  0  0
 44119  1  0  0  0
 45 46  2  0  0  0
 45120  1  0  0  0
 46121  1  0  0  0
 47122  1  0  0  0
 47123  1  0  0  0
 48 56  1  0  0  0
 48 65  1  0  0  0
 48124  1  0  0  0
 49 50  1  0  0  0
 49 53  1  0  0  0
 49 64  1  0  0  0
 49125  1  0  0  0
 50 51  1  0  0  0
 50126  1  0  0  0
 50127  1  0  0  0
 51 52  1  0  0  0
 51128  1  0  0  0
 51129  1  0  0  0
 52130  1  0  0  0
 52131  1  0  0  0
 53 54  1  0  0  0
 54 55  2  0  0  0
 54132  1  0  0  0
 55 57  1  0  0  0
 55133  1  0  0  0
 56 69  2  0  0  0
 57 58  2  0  0  0
 57134  1  0  0  0
 58135  1  0  0  0
 59 60  1  0  0  0
 59 61  1  0  0  0
 59 62  1  0  0  0
 60136  1  0  0  0
 60137  1  0  0  0
 60138  1  0  0  0
 61139  1  0  0  0
 61140  1  0  0  0
 61141  1  0  0  0
 62142  1  0  0  0
 62143  1  0  0  0
 62144  1  0  0  0
 63 65  1  0  0  0
 63145  1  0  0  0
 63146  1  0  0  0
 63147  1  0  0  0
 64148  1  0  0  0
 65149  1  0  0  0
 68 87  1  0  0  0
 71 74  2  0  0  0
 71 75  1  0  0  0
 71150  1  0  0  0
 72 74  1  0  0  0
 72 76  2  0  0  0
 72151  1  0  0  0
 73 75  2  0  0  0
 73 76  1  0  0  0
 73152  1  0  0  0
 74 81  1  0  0  0
 75 82  1  0  0  0
 76 88  1  0  0  0
 77153  1  0  0  0
 77154  1  0  0  0
 77155  1  0  0  0
 77 88  1  0  0  0
 78156  1  0  0  0
 78157  1  0  0  0
 78158  1  0  0  0
 78 89  1  0  0  0
 79 89  1  0  0  0
 79159  1  0  0  0
 79160  1  0  0  0
 79161  1  0  0  0
 80 90  1  0  0  0
 80162  1  0  0  0
 80163  1  0  0  0
 80164  1  0  0  0
 81 83  1  0  0  0
 81165  1  0  0  0
 81166  1  0  0  0
 82 90  1  0  0  0
 82167  1  0  0  0
 82168  1  0  0  0
 83 89  1  0  0  0
 83169  1  0  0  0
 83170  1  0  0  0
 84 85  1  0  0  0
 84 86  1  0  0  0
 84171  1  0  0  0
 84172  1  0  0  0
 85 87  1  0  0  0
 85173  1  0  0  0
 85174  1  0  0  0
 86 88  1  0  0  0
 86175  1  0  0  0
 86176  1  0  0  0
 87177  1  0  0  0
 87178  1  0  0  0
 88179  1  0  0  0
 89180  1  0  0  0
M  ISO  4   1 100  68 101  87 101  90 100
M  END
> <chiral flag>
0

> <version>
0

> <s_m_source_file>
/data/baiqing/PycharmProjects/Reinvent-master-3.2/result/LINK_invent/BTK/process_docking_weight1_custom_sum_contain_oxygen_bond_distance_aromatic_linkinvent_7_9_3/rearranged_h_0089.sdf

> <i_m_source_file_index>
81

> <r_mmod_Potential_Energy-OPLS-2005>
109.86646270752

> <r_mmod_Stretch_Energy-OPLS-2005>
39.1050071716309

> <r_mmod_Bend_Energy-OPLS-2005>
96.4713668823242

> <r_mmod_Torsional_Energy-OPLS-2005>
309.419067382812

> <r_mmod_Improper_Torsional_Energy-OPLS-2005>
6.89520740509033

> <r_mmod_Van_der_Waal_Energy-OPLS-2005>
149.363616943359

> <r_mmod_Electrostatic_Energy-OPLS-2005>
-319.643280029297

> <r_mmod_Solvation_Energy-OPLS-2005>
-179.748748779297

> <b_mmod_Minimization_Converged-OPLS-2005>
0

> <r_mmod_RMS_Derivative-OPLS-2005>
1.91792297363281

$$$$
83
                    3D
 Structure written by MMmdl.
163171  0  0  1  0            999 V2000
  -30.6113  -14.7447   20.4615 C   0  0  0  0  0  0
  -30.4328  -12.4585   19.4622 C   0  0  0  0  0  0
  -29.5055  -12.5049   18.2280 C   0  0  0  0  0  0
  -28.0323  -12.3299   18.6464 C   0  0  0  0  0  0
  -27.6400  -13.2311   19.8479 C   0  0  2  0  0  0
  -28.6880  -13.1660   20.9790 C   0  0  0  0  0  0
  -25.2507  -13.8196   20.5698 C   0  0  0  0  0  0
  -24.1800  -13.0437   20.9209 C   0  0  0  0  0  0
  -24.6391  -11.6914   20.8749 C   0  0  0  0  0  0
  -23.9067  -10.4292   21.0406 C   0  0  0  0  0  0
  -24.3624   -9.4207   21.9186 C   0  0  0  0  0  0
  -23.6297   -8.2240   22.0752 C   0  0  0  0  0  0
  -22.4277   -8.0276   21.3545 C   0  0  0  0  0  0
  -21.9914   -9.0250   20.4646 C   0  0  0  0  0  0
  -22.7240  -10.2131   20.3056 C   0  0  0  0  0  0
  -21.6852   -6.0737   22.5276 C   0  0  0  0  0  0
  -21.4011   -6.5641   23.8211 C   0  0  0  0  0  0
  -21.3660   -5.6794   24.9172 C   0  0  0  0  0  0
  -21.6043   -4.3058   24.7224 C   0  0  0  0  0  0
  -21.8820   -3.8149   23.4346 C   0  0  0  0  0  0
  -21.9193   -4.6964   22.3400 C   0  0  0  0  0  0
  -22.7820  -13.5214   21.1870 C   0  0  0  0  0  0
  -22.1663   -4.2151   21.0980 F   0  0  0  0  0  0
  -21.5629   -3.4543   25.7739 F   0  0  0  0  0  0
  -29.9842  -13.5220   20.3896 N   0  0  0  0  0  0
  -26.2934  -12.9400   20.3290 N   0  0  0  0  0  0
  -25.9325  -11.6544   20.5761 N   0  0  0  0  0  0
  -22.0475  -12.8194   22.0429 N   0  0  0  0  0  0
  -25.4189  -15.1918   20.4119 N   0  0  0  0  0  0
  -31.8077  -14.8377   20.1748 O   0  0  0  0  0  0
  -21.6640   -6.8878   21.4239 O   0  0  0  0  0  0
  -22.3495  -14.5518   20.6722 O   0  0  0  0  0  0
  -24.6312  -31.8535   23.1978 C   0  0  0  0  0  0
  -25.9141  -32.4746   23.8317 C   0  0  1  0  0  0
  -27.2167  -27.2579   20.1189 C   0  0  0  0  0  0
  -25.5937  -33.8548   24.2238 N   0  0  0  0  0  0
  -23.4269  -30.4780   21.5409 C   0  0  2  0  0  0
  -24.8736  -28.9265   20.1047 C   0  0  0  0  0  0
  -22.7497  -29.4594   22.4899 C   0  0  0  0  0  0
  -18.0286  -28.1381   22.8464 C   0  0  0  0  0  0
  -24.1492  -36.7283   23.2640 C   0  0  0  0  0  0
  -25.9730  -30.7645   21.3781 C   0  0  0  0  0  0
  -26.0445  -29.3874   20.7184 C   0  0  0  0  0  0
  -27.2173  -28.5641   20.7181 C   0  0  0  0  0  0
  -26.0252  -26.8741   19.4626 C   0  0  0  0  0  0
  -24.8699  -27.6786   19.4650 C   0  0  0  0  0  0
  -23.6440  -29.8135   20.1560 C   0  0  0  0  0  0
  -25.4119  -36.3062   24.0322 C   0  0  1  0  0  0
  -20.5890  -28.3696   23.1260 C   0  0  2  0  0  0
  -20.6779  -26.9409   22.5409 C   0  0  0  0  0  0
  -19.5769  -26.6373   21.5204 C   0  0  0  0  0  0
  -18.1940  -26.7921   22.1601 C   0  0  0  0  0  0
  -19.1540  -28.8853   23.2859 C   0  0  0  0  0  0
  -18.9469  -30.1448   23.8892 C   0  0  0  0  0  0
  -17.6472  -30.6586   24.0553 C   0  0  0  0  0  0
  -25.9061  -34.9435   23.5082 C   0  0  0  0  0  0
  -16.5362  -29.9083   23.6333 C   0  0  0  0  0  0
  -16.7273  -28.6499   23.0351 C   0  0  0  0  0  0
  -26.4506  -31.6575   25.0715 C   0  0  0  0  0  0
  -25.3728  -31.3743   26.1441 C   0  0  0  0  0  0
  -27.0316  -30.2976   24.6205 C   0  0  0  0  0  0
  -27.6084  -32.4299   25.7467 C   0  0  0  0  0  0
  -27.5580  -37.1795   24.8462 C   0  0  0  0  0  0
  -21.4203  -29.3043   22.3655 N   0  0  0  0  0  0
  -26.4284  -37.3765   23.9413 N   0  0  0  0  0  0
  -24.6963  -31.0500   22.0955 N   0  0  0  0  0  0
  -23.4194  -28.8126   23.2998 O   0  0  0  0  0  0
  -28.3078  -26.3563   20.1912 O   0  0  0  0  0  0
  -26.5634  -34.8918   22.4652 O   0  0  0  0  0  0
  -23.5469  -32.1359   23.7281 O   0  0  0  0  0  0
  -27.4252  -21.5867   21.7522 C   0  0  0  0  0  0
  -28.4553  -21.0822   20.9269 C   0  0  0  0  0  0
  -26.6771  -20.7164   22.5588 C   0  0  0  0  0  0
  -28.6671  -19.6183   21.0115 C   0  0  0  0  0  0
  -25.5826  -20.9283   24.8513 C   0  0  0  0  0  0
  -24.1574  -20.7319   22.7419 C   0  0  0  0  0  0
  -29.1128  -22.1906   20.0118 C   0  0  0  0  0  0
  -29.5501  -18.6213   20.1547 C   0  0  0  0  0  0
  -29.1346  -23.7665   20.4661 C   0  0  0  0  0  0
  -30.2822  -17.3417   20.8628 C   0  0  0  0  0  0
  -28.0904  -24.8846   19.9373 C   0  0  0  0  0  0
  -25.4782  -21.2304   23.3490 C   0  0  0  0  0  0
  -26.9276  -19.3915   22.6012 N   0  0  0  0  0  0
  -27.8931  -18.8716   21.8436 N   0  0  0  0  0  0
  -29.8420  -15.8832   20.6655 N   0  0  0  0  0  0
  -31.4724  -12.5870   19.1560 H   0  0  0  0  0  0
  -30.3825  -11.4827   19.9477 H   0  0  0  0  0  0
  -29.7847  -11.7292   17.5138 H   0  0  0  0  0  0
  -29.6284  -13.4574   17.7093 H   0  0  0  0  0  0
  -27.8880  -11.2814   18.9102 H   0  0  0  0  0  0
  -27.3721  -12.5210   17.7998 H   0  0  0  0  0  0
  -27.6320  -14.2523   19.4658 H   0  0  0  0  0  0
  -28.7277  -12.1668   21.4154 H   0  0  0  0  0  0
  -28.4266  -13.8453   21.7922 H   0  0  0  0  0  0
  -25.2764   -9.5684   22.4767 H   0  0  0  0  0  0
  -24.0005   -7.4630   22.7472 H   0  0  0  0  0  0
  -21.0846   -8.8771   19.8951 H   0  0  0  0  0  0
  -22.3697  -10.9676   19.6171 H   0  0  0  0  0  0
  -21.2002   -7.6150   23.9714 H   0  0  0  0  0  0
  -21.1481   -6.0526   25.9076 H   0  0  0  0  0  0
  -22.0600   -2.7612   23.2845 H   0  0  0  0  0  0
  -22.4097  -11.9854   22.4809 H   0  0  0  0  0  0
  -21.1093  -13.1216   22.2652 H   0  0  0  0  0  0
  -24.6552  -15.8471   20.5380 H   0  0  0  0  0  0
  -26.2712  -15.6392   20.0999 H   0  0  0  0  0  0
  -26.7195  -32.5390   23.1047 H   0  0  0  0  0  0
  -25.0101  -33.9697   25.0394 H   0  0  0  0  0  0
  -22.7230  -31.3003   21.3954 H   0  0  0  0  0  0
  -23.3765  -35.9604   23.3271 H   0  0  0  0  0  0
  -24.3581  -36.8946   22.2061 H   0  0  0  0  0  0
  -23.7240  -37.6472   23.6686 H   0  0  0  0  0  0
  -26.1103  -31.5249   20.6080 H   0  0  0  0  0  0
  -26.8516  -30.8128   22.0092 H   0  0  0  0  0  0
  -28.1102  -28.9067   21.2215 H   0  0  0  0  0  0
  -25.9554  -25.9283   18.9470 H   0  0  0  0  0  0
  -23.9776  -27.3242   18.9679 H   0  0  0  0  0  0
  -23.7641  -30.5910   19.4008 H   0  0  0  0  0  0
  -22.7610  -29.2484   19.8520 H   0  0  0  0  0  0
  -25.1299  -36.1897   25.0813 H   0  0  0  0  0  0
  -20.9975  -28.3279   24.1382 H   0  0  0  0  0  0
  -20.5671  -26.2306   23.3617 H   0  0  0  0  0  0
  -21.6652  -26.7428   22.1216 H   0  0  0  0  0  0
  -19.6949  -25.6280   21.1245 H   0  0  0  0  0  0
  -19.6727  -27.3174   20.6728 H   0  0  0  0  0  0
  -17.4216  -26.6660   21.4000 H   0  0  0  0  0  0
  -18.0341  -26.0061   22.8995 H   0  0  0  0  0  0
  -19.7949  -30.7250   24.2273 H   0  0  0  0  0  0
  -17.5030  -31.6273   24.5144 H   0  0  0  0  0  0
  -15.5365  -30.2984   23.7667 H   0  0  0  0  0  0
  -15.8664  -28.0817   22.7079 H   0  0  0  0  0  0
  -24.5926  -30.7054   25.7787 H   0  0  0  0  0  0
  -24.8891  -32.2909   26.4821 H   0  0  0  0  0  0
  -25.8047  -30.8968   27.0244 H   0  0  0  0  0  0
  -26.2869  -29.6737   24.1247 H   0  0  0  0  0  0
  -27.3992  -29.7242   25.4726 H   0  0  0  0  0  0
  -27.8755  -30.4222   23.9418 H   0  0  0  0  0  0
  -27.2752  -33.3672   26.1929 H   0  0  0  0  0  0
  -28.3944  -32.6726   25.0305 H   0  0  0  0  0  0
  -28.0662  -31.8468   26.5470 H   0  0  0  0  0  0
  -28.2589  -38.0099   24.7502 H   0  0  0  0  0  0
  -28.1081  -36.2630   24.6274 H   0  0  0  0  0  0
  -27.2299  -37.1424   25.8867 H   0  0  0  0  0  0
  -20.9389  -29.8767   21.6859 H   0  0  0  0  0  0
  -26.0161  -38.2835   24.1433 H   0  0  0  0  0  0
  -27.1585  -22.6323   21.7355 H   0  0  0  0  0  0
  -26.5090  -21.3260   25.2655 H   0  0  0  0  0  0
  -25.5614  -19.8557   25.0450 H   0  0  0  0  0  0
  -24.7551  -21.3826   25.3972 H   0  0  0  0  0  0
  -24.0767  -21.0272   21.6952 H   0  0  0  0  0  0
  -23.2973  -21.1452   23.2685 H   0  0  0  0  0  0
  -24.0856  -19.6446   22.7834 H   0  0  0  0  0  0
  -28.6629  -22.1184   19.0216 H   0  0  0  0  0  0
  -30.1480  -21.8752   19.8751 H   0  0  0  0  0  0
  -30.3240  -19.2358   19.6949 H   0  0  0  0  0  0
  -28.9438  -18.2690   19.3207 H   0  0  0  0  0  0
  -30.1024  -24.1350   20.1257 H   0  0  0  0  0  0
  -29.2070  -23.8259   21.5525 H   0  0  0  0  0  0
  -30.3389  -17.5257   21.9361 H   0  0  0  0  0  0
  -31.3223  -17.3809   20.5373 H   0  0  0  0  0  0
  -27.1187  -24.6039   20.3441 H   0  0  0  0  0  0
  -28.0053  -24.7662   18.8564 H   0  0  0  0  0  0
  -25.4735  -22.3169   23.2548 H   0  0  0  0  0  0
  -28.8583  -15.7078   20.8066 H   0  0  0  0  0  0
  1 25  1  0  0  0
  1 30  2  0  0  0
  1 85  1  0  0  0
  2  3  1  0  0  0
  2 25  1  0  0  0
  2 86  1  0  0  0
  2 87  1  0  0  0
  3  4  1  0  0  0
  3 88  1  0  0  0
  3 89  1  0  0  0
  4  5  1  0  0  0
  4 90  1  0  0  0
  4 91  1  0  0  0
  5  6  1  0  0  0
  5 26  1  0  0  0
  5 92  1  0  0  0
  6 25  1  0  0  0
  6 93  1  0  0  0
  6 94  1  0  0  0
  7  8  2  0  0  0
  7 26  1  0  0  0
  7 29  1  0  0  0
  8  9  1  0  0  0
  8 22  1  0  0  0
  9 10  1  0  0  0
  9 27  2  0  0  0
 10 11  2  0  0  0
 10 15  1  0  0  0
 11 12  1  0  0  0
 11 95  1  0  0  0
 12 13  2  0  0  0
 12 96  1  0  0  0
 13 14  1  0  0  0
 13 31  1  0  0  0
 14 15  2  0  0  0
 14 97  1  0  0  0
 15 98  1  0  0  0
 16 17  2  0  0  0
 16 21  1  0  0  0
 16 31  1  0  0  0
 17 18  1  0  0  0
 17 99  1  0  0  0
 18 19  2  0  0  0
 18100  1  0  0  0
 19 20  1  0  0  0
 19 24  1  0  0  0
 20 21  2  0  0  0
 20101  1  0  0  0
 21 23  1  0  0  0
 22 28  1  0  0  0
 22 32  2  0  0  0
 26 27  1  0  0  0
 28102  1  0  0  0
 28103  1  0  0  0
 29104  1  0  0  0
 29105  1  0  0  0
 33 34  1  0  0  0
 33 66  1  0  0  0
 33 70  2  0  0  0
 34 36  1  0  0  0
 34 59  1  0  0  0
 34106  1  0  0  0
 35 44  2  0  0  0
 35 45  1  0  0  0
 35 68  1  0  0  0
 36 56  1  0  0  0
 36107  1  0  0  0
 37 39  1  0  0  0
 37 47  1  0  0  0
 37 66  1  0  0  0
 37108  1  0  0  0
 38 43  2  0  0  0
 38 46  1  0  0  0
 38 47  1  0  0  0
 39 64  1  0  0  0
 39 67  2  0  0  0
 40 52  1  0  0  0
 40 53  2  0  0  0
 40 58  1  0  0  0
 41109  1  0  0  0
 41110  1  0  0  0
 41111  1  0  0  0
 41 48  1  0  0  0
 42 43  1  0  0  0
 42 66  1  0  0  0
 42112  1  0  0  0
 42113  1  0  0  0
 43 44  1  0  0  0
 44114  1  0  0  0
 45 46  2  0  0  0
 45115  1  0  0  0
 46116  1  0  0  0
 47117  1  0  0  0
 47118  1  0  0  0
 48 56  1  0  0  0
 48 65  1  0  0  0
 48119  1  0  0  0
 49 50  1  0  0  0
 49 53  1  0  0  0
 49 64  1  0  0  0
 49120  1  0  0  0
 50 51  1  0  0  0
 50121  1  0  0  0
 50122  1  0  0  0
 51 52  1  0  0  0
 51123  1  0  0  0
 51124  1  0  0  0
 52125  1  0  0  0
 52126  1  0  0  0
 53 54  1  0  0  0
 54 55  2  0  0  0
 54127  1  0  0  0
 55 57  1  0  0  0
 55128  1  0  0  0
 56 69  2  0  0  0
 57 58  2  0  0  0
 57129  1  0  0  0
 58130  1  0  0  0
 59 60  1  0  0  0
 59 61  1  0  0  0
 59 62  1  0  0  0
 60131  1  0  0  0
 60132  1  0  0  0
 60133  1  0  0  0
 61134  1  0  0  0
 61135  1  0  0  0
 61136  1  0  0  0
 62137  1  0  0  0
 62138  1  0  0  0
 62139  1  0  0  0
 63 65  1  0  0  0
 63140  1  0  0  0
 63141  1  0  0  0
 63142  1  0  0  0
 64143  1  0  0  0
 65144  1  0  0  0
 68 81  1  0  0  0
 71 72  2  0  0  0
 71 73  1  0  0  0
 71145  1  0  0  0
 72 74  1  0  0  0
 72 77  1  0  0  0
 73 82  1  0  0  0
 73 83  2  0  0  0
 74 78  1  0  0  0
 74 84  2  0  0  0
 75146  1  0  0  0
 75147  1  0  0  0
 75148  1  0  0  0
 75 82  1  0  0  0
 76 82  1  0  0  0
 76149  1  0  0  0
 76150  1  0  0  0
 76151  1  0  0  0
 77 79  1  0  0  0
 77152  1  0  0  0
 77153  1  0  0  0
 78 80  1  0  0  0
 78154  1  0  0  0
 78155  1  0  0  0
 79 81  1  0  0  0
 79156  1  0  0  0
 79157  1  0  0  0
 80 85  1  0  0  0
 80158  1  0  0  0
 80159  1  0  0  0
 81160  1  0  0  0
 81161  1  0  0  0
 82162  1  0  0  0
 83 84  1  0  0  0
 85163  1  0  0  0
M  ISO  4   1 100  68 101  81 101  85 100
M  END
> <chiral flag>
0

> <version>
0

> <s_m_source_file>
/data/baiqing/PycharmProjects/Reinvent-master-3.2/result/LINK_invent/BTK/process_docking_weight1_custom_sum_contain_oxygen_bond_distance_aromatic_linkinvent_7_9_3/rearranged_h_0089.sdf

> <i_m_source_file_index>
82

> <r_mmod_Potential_Energy-OPLS-2005>
217.277725219727

> <r_mmod_Stretch_Energy-OPLS-2005>
137.574737548828

> <r_mmod_Bend_Energy-OPLS-2005>
210.651748657227

> <r_mmod_Torsional_Energy-OPLS-2005>
215.433135986328

> <r_mmod_Improper_Torsional_Energy-OPLS-2005>
5.00478458404541

> <r_mmod_Van_der_Waal_Energy-OPLS-2005>
140.025619506836

> <r_mmod_Electrostatic_Energy-OPLS-2005>
-356.765014648438

> <r_mmod_Solvation_Energy-OPLS-2005>
-222.861083984375

> <b_mmod_Minimization_Converged-OPLS-2005>
0

> <r_mmod_RMS_Derivative-OPLS-2005>
1.46448469161987

$$$$
84
                    3D
 Structure written by MMmdl.
170178  0  0  1  0            999 V2000
  -30.7342  -14.4750   20.6090 C   0  0  0  0  0  0
  -30.4061  -12.3248   19.4364 C   0  0  0  0  0  0
  -29.4911  -12.5122   18.2107 C   0  0  0  0  0  0
  -28.0134  -12.3544   18.6180 C   0  0  0  0  0  0
  -27.6502  -13.2039   19.8628 C   0  0  2  0  0  0
  -28.6880  -13.0209   20.9941 C   0  0  0  0  0  0
  -25.2553  -13.8161   20.5691 C   0  0  0  0  0  0
  -24.1814  -13.0423   20.9212 C   0  0  0  0  0  0
  -24.6364  -11.6893   20.8754 C   0  0  0  0  0  0
  -23.9034  -10.4284   21.0423 C   0  0  0  0  0  0
  -24.3602   -9.4201   21.9197 C   0  0  0  0  0  0
  -23.6304   -8.2218   22.0748 C   0  0  0  0  0  0
  -22.4279   -8.0262   21.3542 C   0  0  0  0  0  0
  -21.9904   -9.0231   20.4640 C   0  0  0  0  0  0
  -22.7214  -10.2116   20.3064 C   0  0  0  0  0  0
  -21.6832   -6.0738   22.5294 C   0  0  0  0  0  0
  -21.4007   -6.5641   23.8235 C   0  0  0  0  0  0
  -21.3673   -5.6788   24.9190 C   0  0  0  0  0  0
  -21.6046   -4.3053   24.7235 C   0  0  0  0  0  0
  -21.8821   -3.8148   23.4356 C   0  0  0  0  0  0
  -21.9186   -4.6968   22.3411 C   0  0  0  0  0  0
  -22.7846  -13.5235   21.1874 C   0  0  0  0  0  0
  -22.1667   -4.2167   21.0986 F   0  0  0  0  0  0
  -21.5631   -3.4533   25.7746 F   0  0  0  0  0  0
  -30.0199  -13.3224   20.4518 N   0  0  0  0  0  0
  -26.2951  -12.9307   20.3288 N   0  0  0  0  0  0
  -25.9277  -11.6474   20.5708 N   0  0  0  0  0  0
  -22.0465  -12.8226   22.0406 N   0  0  0  0  0  0
  -25.4271  -15.1877   20.4108 N   0  0  0  0  0  0
  -31.8188  -14.6532   20.0552 O   0  0  0  0  0  0
  -21.6631   -6.8871   21.4249 O   0  0  0  0  0  0
  -22.3558  -14.5539   20.6707 O   0  0  0  0  0  0
  -24.6138  -31.8681   23.2123 C   0  0  0  0  0  0
  -25.9046  -32.4811   23.8376 C   0  0  1  0  0  0
  -27.2148  -27.4124   20.1087 C   0  0  0  0  0  0
  -25.5910  -33.8605   24.2309 N   0  0  0  0  0  0
  -23.3992  -30.4957   21.5532 C   0  0  2  0  0  0
  -24.8425  -28.9610   20.1173 C   0  0  0  0  0  0
  -22.7399  -29.4669   22.4982 C   0  0  0  0  0  0
  -18.0288  -28.1369   22.8464 C   0  0  0  0  0  0
  -24.1486  -36.7316   23.2635 C   0  0  0  0  0  0
  -25.9295  -30.8263   21.3720 C   0  0  0  0  0  0
  -26.0031  -29.4585   20.7230 C   0  0  0  0  0  0
  -27.1915  -28.6899   20.7201 C   0  0  0  0  0  0
  -26.0486  -26.9594   19.4553 C   0  0  0  0  0  0
  -24.8609  -27.7106   19.4788 C   0  0  0  0  0  0
  -23.6065  -29.8306   20.1670 C   0  0  0  0  0  0
  -25.4110  -36.3100   24.0322 C   0  0  1  0  0  0
  -20.5882  -28.3634   23.1320 C   0  0  2  0  0  0
  -20.6792  -26.9400   22.5333 C   0  0  0  0  0  0
  -19.5755  -26.6415   21.5143 C   0  0  0  0  0  0
  -18.1934  -26.7948   22.1531 C   0  0  0  0  0  0
  -19.1537  -28.8797   23.2918 C   0  0  0  0  0  0
  -18.9474  -30.1389   23.8964 C   0  0  0  0  0  0
  -17.6473  -30.6542   24.0624 C   0  0  0  0  0  0
  -25.9040  -34.9469   23.5117 C   0  0  0  0  0  0
  -16.5369  -29.9073   23.6331 C   0  0  0  0  0  0
  -16.7278  -28.6509   23.0319 C   0  0  0  0  0  0
  -26.4479  -31.6580   25.0694 C   0  0  0  0  0  0
  -25.3759  -31.3698   26.1448 C   0  0  0  0  0  0
  -27.0301  -30.3010   24.6074 C   0  0  0  0  0  0
  -27.6045  -32.4305   25.7473 C   0  0  0  0  0  0
  -27.5578  -37.1818   24.8462 C   0  0  0  0  0  0
  -21.4122  -29.3056   22.3763 N   0  0  0  0  0  0
  -26.4294  -37.3776   23.9404 N   0  0  0  0  0  0
  -24.6656  -31.0768   22.1043 N   0  0  0  0  0  0
  -23.4191  -28.8189   23.2994 O   0  0  0  0  0  0
  -28.3731  -26.6600   20.0857 O   0  0  0  0  0  0
  -26.5573  -34.8930   22.4663 O   0  0  0  0  0  0
  -23.5337  -32.1445   23.7528 O   0  0  0  0  0  0
  -27.0998  -20.4152   20.2298 C   0  0  0  0  0  0
  -28.1066  -20.0794   21.1551 C   0  0  0  0  0  0
  -26.8968  -21.7557   19.8396 C   0  0  0  0  0  0
  -28.9213  -21.1388   21.6269 C   0  0  0  0  0  0
  -27.7503  -22.7534   20.3824 C   0  0  0  0  0  0
  -30.0402  -20.9125   22.6270 C   0  0  0  0  0  0
  -23.9995  -22.0454   20.7641 C   0  0  0  0  0  0
  -26.0664  -21.5470   17.4511 C   0  0  0  0  0  0
  -28.1583  -18.6287   21.6788 C   0  0  0  0  0  0
  -27.5810  -24.2326   19.9777 C   0  0  0  0  0  0
  -24.3856  -21.5487   19.3613 C   0  0  0  0  0  0
  -29.3651  -17.7376   21.2684 C   0  0  0  0  0  0
  -29.1027  -16.2147   21.5013 C   0  0  0  0  0  0
  -28.3614  -25.3536   20.7224 C   0  0  0  0  0  0
  -25.7525  -22.0672   18.8623 C   0  0  1  0  0  0
  -28.7522  -22.4291   21.2361 N   0  0  0  0  0  0
  -30.3277  -15.3941   21.5069 N   0  0  0  0  0  0
  -31.4547  -12.4041   19.1448 H   0  0  0  0  0  0
  -30.2904  -11.3182   19.8438 H   0  0  0  0  0  0
  -29.7442  -11.7873   17.4368 H   0  0  0  0  0  0
  -29.6587  -13.4976   17.7729 H   0  0  0  0  0  0
  -27.8355  -11.2984   18.8227 H   0  0  0  0  0  0
  -27.3604  -12.6131   17.7828 H   0  0  0  0  0  0
  -27.6755  -14.2376   19.5251 H   0  0  0  0  0  0
  -28.6635  -11.9925   21.3605 H   0  0  0  0  0  0
  -28.4399  -13.6387   21.8558 H   0  0  0  0  0  0
  -25.2747   -9.5687   22.4781 H   0  0  0  0  0  0
  -24.0023   -7.4600   22.7463 H   0  0  0  0  0  0
  -21.0838   -8.8742   19.8947 H   0  0  0  0  0  0
  -22.3683  -10.9662   19.6172 H   0  0  0  0  0  0
  -21.1998   -7.6147   23.9755 H   0  0  0  0  0  0
  -21.1498   -6.0506   25.9099 H   0  0  0  0  0  0
  -22.0586   -2.7614   23.2843 H   0  0  0  0  0  0
  -22.4040  -11.9889   22.4837 H   0  0  0  0  0  0
  -21.1089  -13.1291   22.2582 H   0  0  0  0  0  0
  -24.6512  -15.8344   20.5018 H   0  0  0  0  0  0
  -26.2647  -15.6218   20.0477 H   0  0  0  0  0  0
  -26.7106  -32.5509   23.1132 H   0  0  0  0  0  0
  -25.0087  -33.9752   25.0466 H   0  0  0  0  0  0
  -22.6877  -31.3139   21.4177 H   0  0  0  0  0  0
  -23.3727  -35.9671   23.3299 H   0  0  0  0  0  0
  -24.3609  -36.8914   22.2056 H   0  0  0  0  0  0
  -23.7257  -37.6528   23.6642 H   0  0  0  0  0  0
  -26.0471  -31.5939   20.6051 H   0  0  0  0  0  0
  -26.8172  -30.8757   21.9918 H   0  0  0  0  0  0
  -28.0860  -29.0697   21.1937 H   0  0  0  0  0  0
  -26.0453  -26.0436   18.8891 H   0  0  0  0  0  0
  -23.9796  -27.3345   18.9789 H   0  0  0  0  0  0
  -23.7146  -30.6058   19.4082 H   0  0  0  0  0  0
  -22.7295  -29.2524   19.8705 H   0  0  0  0  0  0
  -25.1306  -36.1961   25.0810 H   0  0  0  0  0  0
  -20.9996  -28.3133   24.1433 H   0  0  0  0  0  0
  -20.5762  -26.2206   23.3460 H   0  0  0  0  0  0
  -21.6652  -26.7517   22.1066 H   0  0  0  0  0  0
  -19.6912  -25.6344   21.1128 H   0  0  0  0  0  0
  -19.6691  -27.3248   20.6688 H   0  0  0  0  0  0
  -17.4240  -26.6772   21.3882 H   0  0  0  0  0  0
  -18.0285  -26.0039   22.8860 H   0  0  0  0  0  0
  -19.7957  -30.7164   24.2374 H   0  0  0  0  0  0
  -17.5038  -31.6186   24.5300 H   0  0  0  0  0  0
  -15.5365  -30.2980   23.7649 H   0  0  0  0  0  0
  -15.8674  -28.0862   22.6988 H   0  0  0  0  0  0
  -24.5928  -30.7037   25.7801 H   0  0  0  0  0  0
  -24.8966  -32.2861   26.4903 H   0  0  0  0  0  0
  -25.8140  -30.8872   27.0191 H   0  0  0  0  0  0
  -26.2834  -29.6767   24.1139 H   0  0  0  0  0  0
  -27.4069  -29.7250   25.4533 H   0  0  0  0  0  0
  -27.8673  -30.4309   23.9212 H   0  0  0  0  0  0
  -27.2632  -33.3586   26.2078 H   0  0  0  0  0  0
  -28.3848  -32.6889   25.0300 H   0  0  0  0  0  0
  -28.0688  -31.8394   26.5371 H   0  0  0  0  0  0
  -28.2608  -38.0102   24.7508 H   0  0  0  0  0  0
  -28.1066  -36.2647   24.6299 H   0  0  0  0  0  0
  -27.2307  -37.1472   25.8862 H   0  0  0  0  0  0
  -20.9222  -29.8870   21.7103 H   0  0  0  0  0  0
  -26.0174  -38.2851   24.1387 H   0  0  0  0  0  0
  -26.4466  -19.6453   19.8461 H   0  0  0  0  0  0
  -30.8830  -20.4198   22.1421 H   0  0  0  0  0  0
  -29.7056  -20.2997   23.4631 H   0  0  0  0  0  0
  -30.4006  -21.8581   23.0381 H   0  0  0  0  0  0
  -23.0317  -21.6378   21.0589 H   0  0  0  0  0  0
  -23.9193  -23.1325   20.7965 H   0  0  0  0  0  0
  -24.7263  -21.7354   21.5167 H   0  0  0  0  0  0
  -26.9887  -21.9873   17.0705 H   0  0  0  0  0  0
  -25.2710  -21.8126   16.7525 H   0  0  0  0  0  0
  -26.1764  -20.4614   17.4278 H   0  0  0  0  0  0
  -27.2491  -18.1264   21.3421 H   0  0  0  0  0  0
  -28.0732  -18.6498   22.7667 H   0  0  0  0  0  0
  -26.5299  -24.4375   20.1641 H   0  0  0  0  0  0
  -27.7633  -24.3122   18.9058 H   0  0  0  0  0  0
  -23.6080  -21.8496   18.6577 H   0  0  0  0  0  0
  -24.3716  -20.4583   19.3544 H   0  0  0  0  0  0
  -30.2511  -18.0569   21.8170 H   0  0  0  0  0  0
  -29.5903  -17.8895   20.2106 H   0  0  0  0  0  0
  -28.4014  -15.8676   20.7463 H   0  0  0  0  0  0
  -28.6165  -16.0699   22.4678 H   0  0  0  0  0  0
  -29.4073  -25.0544   20.7945 H   0  0  0  0  0  0
  -28.0005  -25.4434   21.7476 H   0  0  0  0  0  0
  -25.6298  -23.1420   18.7532 H   0  0  0  0  0  0
  -31.1199  -15.9402   21.8125 H   0  0  0  0  0  0
  1 25  1  0  0  0
  1 30  2  0  0  0
  1 87  1  0  0  0
  2  3  1  0  0  0
  2 25  1  0  0  0
  2 88  1  0  0  0
  2 89  1  0  0  0
  3  4  1  0  0  0
  3 90  1  0  0  0
  3 91  1  0  0  0
  4  5  1  0  0  0
  4 92  1  0  0  0
  4 93  1  0  0  0
  5  6  1  0  0  0
  5 26  1  0  0  0
  5 94  1  0  0  0
  6 25  1  0  0  0
  6 95  1  0  0  0
  6 96  1  0  0  0
  7  8  2  0  0  0
  7 26  1  0  0  0
  7 29  1  0  0  0
  8  9  1  0  0  0
  8 22  1  0  0  0
  9 10  1  0  0  0
  9 27  2  0  0  0
 10 11  2  0  0  0
 10 15  1  0  0  0
 11 12  1  0  0  0
 11 97  1  0  0  0
 12 13  2  0  0  0
 12 98  1  0  0  0
 13 14  1  0  0  0
 13 31  1  0  0  0
 14 15  2  0  0  0
 14 99  1  0  0  0
 15100  1  0  0  0
 16 17  2  0  0  0
 16 21  1  0  0  0
 16 31  1  0  0  0
 17 18  1  0  0  0
 17101  1  0  0  0
 18 19  2  0  0  0
 18102  1  0  0  0
 19 20  1  0  0  0
 19 24  1  0  0  0
 20 21  2  0  0  0
 20103  1  0  0  0
 21 23  1  0  0  0
 22 28  1  0  0  0
 22 32  2  0  0  0
 26 27  1  0  0  0
 28104  1  0  0  0
 28105  1  0  0  0
 29106  1  0  0  0
 29107  1  0  0  0
 33 34  1  0  0  0
 33 66  1  0  0  0
 33 70  2  0  0  0
 34 36  1  0  0  0
 34 59  1  0  0  0
 34108  1  0  0  0
 35 44  2  0  0  0
 35 45  1  0  0  0
 35 68  1  0  0  0
 36 56  1  0  0  0
 36109  1  0  0  0
 37 39  1  0  0  0
 37 47  1  0  0  0
 37 66  1  0  0  0
 37110  1  0  0  0
 38 43  2  0  0  0
 38 46  1  0  0  0
 38 47  1  0  0  0
 39 64  1  0  0  0
 39 67  2  0  0  0
 40 52  1  0  0  0
 40 53  2  0  0  0
 40 58  1  0  0  0
 41111  1  0  0  0
 41112  1  0  0  0
 41113  1  0  0  0
 41 48  1  0  0  0
 42 43  1  0  0  0
 42 66  1  0  0  0
 42114  1  0  0  0
 42115  1  0  0  0
 43 44  1  0  0  0
 44116  1  0  0  0
 45 46  2  0  0  0
 45117  1  0  0  0
 46118  1  0  0  0
 47119  1  0  0  0
 47120  1  0  0  0
 48 56  1  0  0  0
 48 65  1  0  0  0
 48121  1  0  0  0
 49 50  1  0  0  0
 49 53  1  0  0  0
 49 64  1  0  0  0
 49122  1  0  0  0
 50 51  1  0  0  0
 50123  1  0  0  0
 50124  1  0  0  0
 51 52  1  0  0  0
 51125  1  0  0  0
 51126  1  0  0  0
 52127  1  0  0  0
 52128  1  0  0  0
 53 54  1  0  0  0
 54 55  2  0  0  0
 54129  1  0  0  0
 55 57  1  0  0  0
 55130  1  0  0  0
 56 69  2  0  0  0
 57 58  2  0  0  0
 57131  1  0  0  0
 58132  1  0  0  0
 59 60  1  0  0  0
 59 61  1  0  0  0
 59 62  1  0  0  0
 60133  1  0  0  0
 60134  1  0  0  0
 60135  1  0  0  0
 61136  1  0  0  0
 61137  1  0  0  0
 61138  1  0  0  0
 62139  1  0  0  0
 62140  1  0  0  0
 62141  1  0  0  0
 63 65  1  0  0  0
 63142  1  0  0  0
 63143  1  0  0  0
 63144  1  0  0  0
 64145  1  0  0  0
 65146  1  0  0  0
 68 84  1  0  0  0
 71 72  2  0  0  0
 71 73  1  0  0  0
 71147  1  0  0  0
 72 74  1  0  0  0
 72 79  1  0  0  0
 73 75  2  0  0  0
 73 85  1  0  0  0
 74 76  1  0  0  0
 74 86  2  0  0  0
 75 80  1  0  0  0
 75 86  1  0  0  0
 76148  1  0  0  0
 76149  1  0  0  0
 76150  1  0  0  0
 77 81  1  0  0  0
 77151  1  0  0  0
 77152  1  0  0  0
 77153  1  0  0  0
 78154  1  0  0  0
 78155  1  0  0  0
 78156  1  0  0  0
 78 85  1  0  0  0
 79 82  1  0  0  0
 79157  1  0  0  0
 79158  1  0  0  0
 80 84  1  0  0  0
 80159  1  0  0  0
 80160  1  0  0  0
 81 85  1  0  0  0
 81161  1  0  0  0
 81162  1  0  0  0
 82 83  1  0  0  0
 82163  1  0  0  0
 82164  1  0  0  0
 83 87  1  0  0  0
 83165  1  0  0  0
 83166  1  0  0  0
 84167  1  0  0  0
 84168  1  0  0  0
 85169  1  0  0  0
 87170  1  0  0  0
M  ISO  4   1 100  68 101  84 101  87 100
M  END
> <chiral flag>
0

> <version>
0

> <s_m_source_file>
/data/baiqing/PycharmProjects/Reinvent-master-3.2/result/LINK_invent/BTK/process_docking_weight1_custom_sum_contain_oxygen_bond_distance_aromatic_linkinvent_7_9_3/rearranged_h_0089.sdf

> <i_m_source_file_index>
83

> <r_mmod_Potential_Energy-OPLS-2005>
-112.082382202148

> <r_mmod_Stretch_Energy-OPLS-2005>
43.5970191955566

> <r_mmod_Bend_Energy-OPLS-2005>
133.115341186523

> <r_mmod_Torsional_Energy-OPLS-2005>
275.083099365234

> <r_mmod_Improper_Torsional_Energy-OPLS-2005>
7.28764200210571

> <r_mmod_Van_der_Waal_Energy-OPLS-2005>
148.095840454102

> <r_mmod_Electrostatic_Energy-OPLS-2005>
-520.071838378906

> <r_mmod_Solvation_Energy-OPLS-2005>
-213.615615844727

> <b_mmod_Minimization_Converged-OPLS-2005>
0

> <r_mmod_RMS_Derivative-OPLS-2005>
2.88668513298035

$$$$
85
                    3D
 Structure written by MMmdl.
172180  0  0  1  0            999 V2000
  -30.7237  -14.5023   20.5479 C   0  0  0  0  0  0
  -30.4137  -12.3085   19.4409 C   0  0  0  0  0  0
  -29.4972  -12.4700   18.2129 C   0  0  0  0  0  0
  -28.0199  -12.3190   18.6256 C   0  0  0  0  0  0
  -27.6523  -13.1753   19.8614 C   0  0  2  0  0  0
  -28.7039  -13.0474   20.9940 C   0  0  0  0  0  0
  -25.2651  -13.7964   20.5748 C   0  0  0  0  0  0
  -24.1901  -13.0244   20.9299 C   0  0  0  0  0  0
  -24.6475  -11.6723   20.8854 C   0  0  0  0  0  0
  -23.9134  -10.4128   21.0493 C   0  0  0  0  0  0
  -24.3612   -9.4018   21.9286 C   0  0  0  0  0  0
  -23.6219   -8.2114   22.0831 C   0  0  0  0  0  0
  -22.4206   -8.0255   21.3591 C   0  0  0  0  0  0
  -21.9954   -9.0240   20.4661 C   0  0  0  0  0  0
  -22.7369  -10.2062   20.3040 C   0  0  0  0  0  0
  -21.6780   -6.0705   22.5328 C   0  0  0  0  0  0
  -21.3969   -6.5595   23.8282 C   0  0  0  0  0  0
  -21.3609   -5.6720   24.9218 C   0  0  0  0  0  0
  -21.6020   -4.2999   24.7256 C   0  0  0  0  0  0
  -21.8812   -3.8113   23.4382 C   0  0  0  0  0  0
  -21.9114   -4.6925   22.3422 C   0  0  0  0  0  0
  -22.7935  -13.5112   21.1875 C   0  0  0  0  0  0
  -22.1595   -4.2113   21.1009 F   0  0  0  0  0  0
  -21.5590   -3.4495   25.7786 F   0  0  0  0  0  0
  -30.0264  -13.3357   20.4253 N   0  0  0  0  0  0
  -26.3033  -12.9074   20.3372 N   0  0  0  0  0  0
  -25.9360  -11.6262   20.5815 N   0  0  0  0  0  0
  -22.0526  -12.8167   22.0435 N   0  0  0  0  0  0
  -25.4289  -15.1665   20.4143 N   0  0  0  0  0  0
  -31.8905  -14.6078   20.1638 O   0  0  0  0  0  0
  -21.6498   -6.8902   21.4326 O   0  0  0  0  0  0
  -22.3644  -14.5392   20.6643 O   0  0  0  0  0  0
  -24.6108  -31.8677   23.2084 C   0  0  0  0  0  0
  -25.9004  -32.4830   23.8391 C   0  0  1  0  0  0
  -27.2434  -27.4318   20.1252 C   0  0  0  0  0  0
  -25.5867  -33.8626   24.2319 N   0  0  0  0  0  0
  -23.4020  -30.4909   21.5450 C   0  0  2  0  0  0
  -24.8564  -28.9512   20.1181 C   0  0  0  0  0  0
  -22.7396  -29.4674   22.4947 C   0  0  0  0  0  0
  -18.0276  -28.1387   22.8488 C   0  0  0  0  0  0
  -24.1495  -36.7323   23.2639 C   0  0  0  0  0  0
  -25.9282  -30.8357   21.3653 C   0  0  0  0  0  0
  -26.0107  -29.4671   20.7204 C   0  0  0  0  0  0
  -27.2095  -28.7147   20.7197 C   0  0  0  0  0  0
  -26.0763  -26.9288   19.5137 C   0  0  0  0  0  0
  -24.8837  -27.6824   19.5094 C   0  0  0  0  0  0
  -23.6152  -29.8172   20.1618 C   0  0  0  0  0  0
  -25.4117  -36.3101   24.0331 C   0  0  1  0  0  0
  -20.5862  -28.3678   23.1297 C   0  0  2  0  0  0
  -20.6765  -26.9412   22.5411 C   0  0  0  0  0  0
  -19.5745  -26.6387   21.5204 C   0  0  0  0  0  0
  -18.1922  -26.7930   22.1621 C   0  0  0  0  0  0
  -19.1524  -28.8845   23.2899 C   0  0  0  0  0  0
  -18.9453  -30.1447   23.8920 C   0  0  0  0  0  0
  -17.6458  -30.6593   24.0566 C   0  0  0  0  0  0
  -25.9032  -34.9472   23.5127 C   0  0  0  0  0  0
  -16.5348  -29.9100   23.6325 C   0  0  0  0  0  0
  -16.7264  -28.6514   23.0342 C   0  0  0  0  0  0
  -26.4454  -31.6605   25.0722 C   0  0  0  0  0  0
  -25.3732  -31.3697   26.1482 C   0  0  0  0  0  0
  -27.0297  -30.3047   24.6094 C   0  0  0  0  0  0
  -27.6025  -32.4332   25.7500 C   0  0  0  0  0  0
  -27.5585  -37.1825   24.8465 C   0  0  0  0  0  0
  -21.4119  -29.3056   22.3696 N   0  0  0  0  0  0
  -26.4304  -37.3780   23.9396 N   0  0  0  0  0  0
  -24.6636  -31.0798   22.0976 N   0  0  0  0  0  0
  -23.4166  -28.8196   23.2982 O   0  0  0  0  0  0
  -28.4049  -26.6884   20.1008 O   0  0  0  0  0  0
  -26.5592  -34.8915   22.4689 O   0  0  0  0  0  0
  -23.5309  -32.1408   23.7495 O   0  0  0  0  0  0
  -28.0439  -20.2634   23.4652 C   0  0  0  0  0  0
  -29.2927  -19.4592   21.8093 C   0  0  0  0  0  0
  -28.4844  -20.5260   22.1339 C   0  0  0  0  0  0
  -28.5148  -19.0437   23.8768 C   0  0  0  0  0  0
  -26.4980  -21.7512   21.2567 C   0  0  0  0  0  0
  -27.0147  -17.3527   24.9809 C   0  0  0  0  0  0
  -28.0834  -19.1448   26.3918 C   0  0  0  0  0  0
  -29.0788  -16.2032   20.0652 C   0  0  0  0  0  0
  -28.4150  -24.2233   20.5540 C   0  0  0  0  0  0
  -28.6397  -23.0865   21.6066 C   0  0  0  0  0  0
  -29.9845  -17.2148   22.9432 C   0  0  0  0  0  0
  -30.7769  -16.6766   21.7217 C   0  0  0  0  0  0
  -28.5284  -25.6695   21.1097 C   0  0  0  0  0  0
  -28.0382  -21.6937   21.2366 C   0  0  1  0  0  0
  -28.2385  -18.2649   25.1433 C   0  0  0  0  0  0
  -29.2936  -18.5229   22.8464 N   0  0  0  0  0  0
  -30.0572  -15.6096   20.9848 N   0  0  0  0  0  0
  -31.4626  -12.3789   19.1445 H   0  0  0  0  0  0
  -30.3009  -11.3079   19.8643 H   0  0  0  0  0  0
  -29.7449  -11.7247   17.4583 H   0  0  0  0  0  0
  -29.6537  -13.4426   17.7499 H   0  0  0  0  0  0
  -27.8461  -11.2648   18.8323 H   0  0  0  0  0  0
  -27.3615  -12.5751   17.7929 H   0  0  0  0  0  0
  -27.6429  -14.1834   19.4705 H   0  0  0  0  0  0
  -28.7092  -12.0391   21.4109 H   0  0  0  0  0  0
  -28.4776  -13.7222   21.8215 H   0  0  0  0  0  0
  -25.2769   -9.5291   22.4886 H   0  0  0  0  0  0
  -23.9869   -7.4488   22.7573 H   0  0  0  0  0  0
  -21.0850   -8.8909   19.9016 H   0  0  0  0  0  0
  -22.4035  -10.9588   19.6027 H   0  0  0  0  0  0
  -21.2063   -7.6102   23.9859 H   0  0  0  0  0  0
  -21.1395   -6.0419   25.9127 H   0  0  0  0  0  0
  -22.0609   -2.7573   23.2916 H   0  0  0  0  0  0
  -22.4125  -11.9879   22.4947 H   0  0  0  0  0  0
  -21.1171  -13.1303   22.2570 H   0  0  0  0  0  0
  -24.6542  -15.8066   20.5471 H   0  0  0  0  0  0
  -26.2800  -15.6237   20.1081 H   0  0  0  0  0  0
  -26.7082  -32.5553   23.1167 H   0  0  0  0  0  0
  -25.0028  -33.9801   25.0466 H   0  0  0  0  0  0
  -22.6893  -31.3065   21.4017 H   0  0  0  0  0  0
  -23.3737  -35.9683   23.3326 H   0  0  0  0  0  0
  -24.3578  -36.8915   22.2048 H   0  0  0  0  0  0
  -23.7282  -37.6550   23.6641 H   0  0  0  0  0  0
  -26.0443  -31.6027   20.5976 H   0  0  0  0  0  0
  -26.8128  -30.8886   21.9883 H   0  0  0  0  0  0
  -28.1016  -29.1108   21.1818 H   0  0  0  0  0  0
  -26.0935  -25.9573   19.0380 H   0  0  0  0  0  0
  -23.9975  -27.2822   19.0341 H   0  0  0  0  0  0
  -23.7192  -30.5884   19.3969 H   0  0  0  0  0  0
  -22.7411  -29.2329   19.8660 H   0  0  0  0  0  0
  -25.1303  -36.1975   25.0825 H   0  0  0  0  0  0
  -20.9971  -28.3261   24.1407 H   0  0  0  0  0  0
  -20.5636  -26.2298   23.3605 H   0  0  0  0  0  0
  -21.6636  -26.7439   22.1215 H   0  0  0  0  0  0
  -19.6900  -25.6288   21.1244 H   0  0  0  0  0  0
  -19.6683  -27.3186   20.6718 H   0  0  0  0  0  0
  -17.4183  -26.6660   21.4033 H   0  0  0  0  0  0
  -18.0343  -26.0077   22.9024 H   0  0  0  0  0  0
  -19.7930  -30.7250   24.2299 H   0  0  0  0  0  0
  -17.5020  -31.6267   24.5170 H   0  0  0  0  0  0
  -15.5350  -30.3014   23.7636 H   0  0  0  0  0  0
  -15.8658  -28.0842   22.7049 H   0  0  0  0  0  0
  -24.5899  -30.7055   25.7805 H   0  0  0  0  0  0
  -24.8945  -32.2856   26.4959 H   0  0  0  0  0  0
  -25.8105  -30.8840   27.0214 H   0  0  0  0  0  0
  -26.2836  -29.6819   24.1140 H   0  0  0  0  0  0
  -27.4053  -29.7280   25.4555 H   0  0  0  0  0  0
  -27.8679  -30.4370   23.9251 H   0  0  0  0  0  0
  -27.2620  -33.3609   26.2115 H   0  0  0  0  0  0
  -28.3826  -32.6927   25.0329 H   0  0  0  0  0  0
  -28.0698  -31.8433   26.5397 H   0  0  0  0  0  0
  -28.2612  -38.0108   24.7475 H   0  0  0  0  0  0
  -28.1069  -36.2636   24.6342 H   0  0  0  0  0  0
  -27.2291  -37.1536   25.8863 H   0  0  0  0  0  0
  -20.9246  -29.8824   21.6976 H   0  0  0  0  0  0
  -26.0197  -38.2870   24.1358 H   0  0  0  0  0  0
  -27.3811  -20.8847   24.0522 H   0  0  0  0  0  0
  -29.8280  -19.2697   20.8908 H   0  0  0  0  0  0
  -26.0715  -20.7764   21.0201 H   0  0  0  0  0  0
  -26.0908  -22.4619   20.5380 H   0  0  0  0  0  0
  -26.1300  -22.0294   22.2471 H   0  0  0  0  0  0
  -26.1000  -17.9297   24.8409 H   0  0  0  0  0  0
  -26.8748  -16.7187   25.8587 H   0  0  0  0  0  0
  -27.1146  -16.6989   24.1175 H   0  0  0  0  0  0
  -27.2352  -19.8221   26.3063 H   0  0  0  0  0  0
  -28.9845  -19.7322   26.5722 H   0  0  0  0  0  0
  -27.9219  -18.5313   27.2800 H   0  0  0  0  0  0
  -28.0690  -16.0351   20.4320 H   0  0  0  0  0  0
  -29.1901  -17.2808   19.9652 H   0  0  0  0  0  0
  -29.1691  -15.8059   19.0524 H   0  0  0  0  0  0
  -27.4347  -24.1260   20.0947 H   0  0  0  0  0  0
  -29.1239  -24.0959   19.7354 H   0  0  0  0  0  0
  -28.2367  -23.3982   22.5704 H   0  0  0  0  0  0
  -29.7148  -22.9735   21.7523 H   0  0  0  0  0  0
  -30.6829  -17.2974   23.7779 H   0  0  0  0  0  0
  -29.2539  -16.4636   23.2480 H   0  0  0  0  0  0
  -31.7080  -16.2590   22.1149 H   0  0  0  0  0  0
  -31.1146  -17.4743   21.0589 H   0  0  0  0  0  0
  -29.5048  -25.7974   21.5784 H   0  0  0  0  0  0
  -27.7938  -25.8193   21.9057 H   0  0  0  0  0  0
  -28.3567  -21.4535   20.2197 H   0  0  0  0  0  0
  -29.0883  -17.6202   25.3592 H   0  0  0  0  0  0
  1 25  1  0  0  0
  1 30  2  0  0  0
  1 87  1  0  0  0
  2  3  1  0  0  0
  2 25  1  0  0  0
  2 88  1  0  0  0
  2 89  1  0  0  0
  3  4  1  0  0  0
  3 90  1  0  0  0
  3 91  1  0  0  0
  4  5  1  0  0  0
  4 92  1  0  0  0
  4 93  1  0  0  0
  5  6  1  0  0  0
  5 26  1  0  0  0
  5 94  1  0  0  0
  6 25  1  0  0  0
  6 95  1  0  0  0
  6 96  1  0  0  0
  7  8  2  0  0  0
  7 26  1  0  0  0
  7 29  1  0  0  0
  8  9  1  0  0  0
  8 22  1  0  0  0
  9 10  1  0  0  0
  9 27  2  0  0  0
 10 11  2  0  0  0
 10 15  1  0  0  0
 11 12  1  0  0  0
 11 97  1  0  0  0
 12 13  2  0  0  0
 12 98  1  0  0  0
 13 14  1  0  0  0
 13 31  1  0  0  0
 14 15  2  0  0  0
 14 99  1  0  0  0
 15100  1  0  0  0
 16 17  2  0  0  0
 16 21  1  0  0  0
 16 31  1  0  0  0
 17 18  1  0  0  0
 17101  1  0  0  0
 18 19  2  0  0  0
 18102  1  0  0  0
 19 20  1  0  0  0
 19 24  1  0  0  0
 20 21  2  0  0  0
 20103  1  0  0  0
 21 23  1  0  0  0
 22 28  1  0  0  0
 22 32  2  0  0  0
 26 27  1  0  0  0
 28104  1  0  0  0
 28105  1  0  0  0
 29106  1  0  0  0
 29107  1  0  0  0
 33 34  1  0  0  0
 33 66  1  0  0  0
 33 70  2  0  0  0
 34 36  1  0  0  0
 34 59  1  0  0  0
 34108  1  0  0  0
 35 44  2  0  0  0
 35 45  1  0  0  0
 35 68  1  0  0  0
 36 56  1  0  0  0
 36109  1  0  0  0
 37 39  1  0  0  0
 37 47  1  0  0  0
 37 66  1  0  0  0
 37110  1  0  0  0
 38 43  2  0  0  0
 38 46  1  0  0  0
 38 47  1  0  0  0
 39 64  1  0  0  0
 39 67  2  0  0  0
 40 52  1  0  0  0
 40 53  2  0  0  0
 40 58  1  0  0  0
 41111  1  0  0  0
 41112  1  0  0  0
 41113  1  0  0  0
 41 48  1  0  0  0
 42 43  1  0  0  0
 42 66  1  0  0  0
 42114  1  0  0  0
 42115  1  0  0  0
 43 44  1  0  0  0
 44116  1  0  0  0
 45 46  2  0  0  0
 45117  1  0  0  0
 46118  1  0  0  0
 47119  1  0  0  0
 47120  1  0  0  0
 48 56  1  0  0  0
 48 65  1  0  0  0
 48121  1  0  0  0
 49 50  1  0  0  0
 49 53  1  0  0  0
 49 64  1  0  0  0
 49122  1  0  0  0
 50 51  1  0  0  0
 50123  1  0  0  0
 50124  1  0  0  0
 51 52  1  0  0  0
 51125  1  0  0  0
 51126  1  0  0  0
 52127  1  0  0  0
 52128  1  0  0  0
 53 54  1  0  0  0
 54 55  2  0  0  0
 54129  1  0  0  0
 55 57  1  0  0  0
 55130  1  0  0  0
 56 69  2  0  0  0
 57 58  2  0  0  0
 57131  1  0  0  0
 58132  1  0  0  0
 59 60  1  0  0  0
 59 61  1  0  0  0
 59 62  1  0  0  0
 60133  1  0  0  0
 60134  1  0  0  0
 60135  1  0  0  0
 61136  1  0  0  0
 61137  1  0  0  0
 61138  1  0  0  0
 62139  1  0  0  0
 62140  1  0  0  0
 62141  1  0  0  0
 63 65  1  0  0  0
 63142  1  0  0  0
 63143  1  0  0  0
 63144  1  0  0  0
 64145  1  0  0  0
 65146  1  0  0  0
 68 83  1  0  0  0
 71 73  1  0  0  0
 71 74  2  0  0  0
 71147  1  0  0  0
 72 73  2  0  0  0
 72 86  1  0  0  0
 72148  1  0  0  0
 73 84  1  0  0  0
 74 85  1  0  0  0
 74 86  1  0  0  0
 75149  1  0  0  0
 75150  1  0  0  0
 75151  1  0  0  0
 75 84  1  0  0  0
 76152  1  0  0  0
 76153  1  0  0  0
 76154  1  0  0  0
 76 85  1  0  0  0
 77 85  1  0  0  0
 77155  1  0  0  0
 77156  1  0  0  0
 77157  1  0  0  0
 78 87  1  0  0  0
 78158  1  0  0  0
 78159  1  0  0  0
 78160  1  0  0  0
 79 80  1  0  0  0
 79 83  1  0  0  0
 79161  1  0  0  0
 79162  1  0  0  0
 80 84  1  0  0  0
 80163  1  0  0  0
 80164  1  0  0  0
 81 82  1  0  0  0
 81 86  1  0  0  0
 81165  1  0  0  0
 81166  1  0  0  0
 82 87  1  0  0  0
 82167  1  0  0  0
 82168  1  0  0  0
 83169  1  0  0  0
 83170  1  0  0  0
 84171  1  0  0  0
 85172  1  0  0  0
M  ISO  4   1 100  68 101  83 101  87 100
M  END
> <chiral flag>
0

> <version>
0

> <s_m_source_file>
/data/baiqing/PycharmProjects/Reinvent-master-3.2/result/LINK_invent/BTK/process_docking_weight1_custom_sum_contain_oxygen_bond_distance_aromatic_linkinvent_7_9_3/rearranged_h_0089.sdf

> <i_m_source_file_index>
84

> <r_mmod_Potential_Energy-OPLS-2005>
113.068870544434

> <r_mmod_Stretch_Energy-OPLS-2005>
44.3279495239258

> <r_mmod_Bend_Energy-OPLS-2005>
121.591972351074

> <r_mmod_Torsional_Energy-OPLS-2005>
333.200958251953

> <r_mmod_Improper_Torsional_Energy-OPLS-2005>
7.17189073562622

> <r_mmod_Van_der_Waal_Energy-OPLS-2005>
128.852035522461

> <r_mmod_Electrostatic_Energy-OPLS-2005>
-355.639862060547

> <r_mmod_Solvation_Energy-OPLS-2005>
-185.380783081055

> <b_mmod_Minimization_Converged-OPLS-2005>
0

> <r_mmod_RMS_Derivative-OPLS-2005>
5.80921173095703

$$$$
86
                    3D
 Structure written by MMmdl.
165173  0  0  1  0            999 V2000
  -30.6140  -14.7334   20.4912 C   0  0  0  0  0  0
  -30.4296  -12.4605   19.4626 C   0  0  0  0  0  0
  -29.5027  -12.5161   18.2291 C   0  0  0  0  0  0
  -28.0292  -12.3417   18.6445 C   0  0  0  0  0  0
  -27.6378  -13.2349   19.8496 C   0  0  2  0  0  0
  -28.6820  -13.1664   20.9830 C   0  0  0  0  0  0
  -25.2475  -13.8213   20.5680 C   0  0  0  0  0  0
  -24.1791  -13.0430   20.9194 C   0  0  0  0  0  0
  -24.6409  -11.6919   20.8746 C   0  0  0  0  0  0
  -23.9096  -10.4279   21.0399 C   0  0  0  0  0  0
  -24.3644   -9.4192   21.9182 C   0  0  0  0  0  0
  -23.6312   -8.2229   22.0759 C   0  0  0  0  0  0
  -22.4293   -8.0254   21.3543 C   0  0  0  0  0  0
  -21.9916   -9.0230   20.4650 C   0  0  0  0  0  0
  -22.7259  -10.2107   20.3057 C   0  0  0  0  0  0
  -21.6871   -6.0719   22.5261 C   0  0  0  0  0  0
  -21.4022   -6.5633   23.8197 C   0  0  0  0  0  0
  -21.3663   -5.6787   24.9157 C   0  0  0  0  0  0
  -21.6065   -4.3053   24.7227 C   0  0  0  0  0  0
  -21.8831   -3.8134   23.4345 C   0  0  0  0  0  0
  -21.9200   -4.6949   22.3391 C   0  0  0  0  0  0
  -22.7793  -13.5157   21.1870 C   0  0  0  0  0  0
  -22.1668   -4.2124   21.0967 F   0  0  0  0  0  0
  -21.5617   -3.4540   25.7748 F   0  0  0  0  0  0
  -29.9833  -13.5154   20.4010 N   0  0  0  0  0  0
  -26.2908  -12.9424   20.3279 N   0  0  0  0  0  0
  -25.9343  -11.6558   20.5756 N   0  0  0  0  0  0
  -22.0507  -12.8090   22.0444 N   0  0  0  0  0  0
  -25.4132  -15.1945   20.4135 N   0  0  0  0  0  0
  -31.8049  -14.8350   20.1827 O   0  0  0  0  0  0
  -21.6649   -6.8856   21.4230 O   0  0  0  0  0  0
  -22.3428  -14.5450   20.6735 O   0  0  0  0  0  0
  -24.6326  -31.8538   23.1987 C   0  0  0  0  0  0
  -25.9166  -32.4726   23.8329 C   0  0  1  0  0  0
  -27.2049  -27.2512   20.1324 C   0  0  0  0  0  0
  -25.5959  -33.8532   24.2253 N   0  0  0  0  0  0
  -23.4273  -30.4803   21.5395 C   0  0  2  0  0  0
  -24.8737  -28.9303   20.1051 C   0  0  0  0  0  0
  -22.7491  -29.4626   22.4884 C   0  0  0  0  0  0
  -18.0291  -28.1387   22.8475 C   0  0  0  0  0  0
  -24.1496  -36.7285   23.2639 C   0  0  0  0  0  0
  -25.9743  -30.7627   21.3832 C   0  0  0  0  0  0
  -26.0432  -29.3848   20.7270 C   0  0  0  0  0  0
  -27.2104  -28.5545   20.7385 C   0  0  0  0  0  0
  -26.0226  -26.8845   19.4513 C   0  0  0  0  0  0
  -24.8690  -27.6877   19.4575 C   0  0  0  0  0  0
  -23.6476  -29.8207   20.1525 C   0  0  0  0  0  0
  -25.4117  -36.3046   24.0322 C   0  0  1  0  0  0
  -20.5889  -28.3718   23.1244 C   0  0  2  0  0  0
  -20.6780  -26.9431   22.5397 C   0  0  0  0  0  0
  -19.5760  -26.6391   21.5196 C   0  0  0  0  0  0
  -18.1939  -26.7929   22.1606 C   0  0  0  0  0  0
  -19.1541  -28.8867   23.2857 C   0  0  0  0  0  0
  -18.9470  -30.1457   23.8894 C   0  0  0  0  0  0
  -17.6472  -30.6588   24.0567 C   0  0  0  0  0  0
  -25.9060  -34.9415   23.5086 C   0  0  0  0  0  0
  -16.5364  -29.9096   23.6326 C   0  0  0  0  0  0
  -16.7276  -28.6510   23.0352 C   0  0  0  0  0  0
  -26.4531  -31.6540   25.0716 C   0  0  0  0  0  0
  -25.3758  -31.3693   26.1437 C   0  0  0  0  0  0
  -27.0393  -30.2943   24.6233 C   0  0  0  0  0  0
  -27.6061  -32.4287   25.7511 C   0  0  0  0  0  0
  -27.5576  -37.1796   24.8460 C   0  0  0  0  0  0
  -21.4199  -29.3063   22.3636 N   0  0  0  0  0  0
  -26.4283  -37.3746   23.9415 N   0  0  0  0  0  0
  -24.6965  -31.0518   22.0962 N   0  0  0  0  0  0
  -23.4198  -28.8158   23.2983 O   0  0  0  0  0  0
  -28.2740  -26.3269   20.2267 O   0  0  0  0  0  0
  -26.5621  -34.8896   22.4651 O   0  0  0  0  0  0
  -23.5480  -32.1379   23.7274 O   0  0  0  0  0  0
  -27.3944  -21.0857   22.1103 C   0  0  0  0  0  0
  -27.2818  -19.8115   22.7273 C   0  0  0  0  0  0
  -28.3785  -20.9596   21.1529 C   0  0  0  0  0  0
  -26.5285  -22.2787   22.4279 C   0  0  0  0  0  0
  -27.8436  -20.3365   25.6693 C   0  0  0  0  0  0
  -26.3265  -19.3576   23.8096 C   0  0  0  0  0  0
  -28.7752  -22.1230   20.1752 C   0  0  0  0  0  0
  -26.4170  -20.1516   25.1295 C   0  0  0  0  0  0
  -28.8762  -23.6776   20.6710 C   0  0  0  0  0  0
  -29.5753  -18.6093   20.3364 C   0  0  0  0  0  0
  -30.2922  -17.3023   21.0042 C   0  0  0  0  0  0
  -28.0206  -24.8603   19.9733 C   0  0  0  0  0  0
  -28.1125  -18.9358   22.2009 N   0  0  0  0  0  0
  -28.7721  -19.5622   21.2001 N   0  0  0  0  0  0
  -29.8478  -15.8601   20.7473 N   0  0  0  0  0  0
  -31.4678  -12.5902   19.1554 H   0  0  0  0  0  0
  -30.3779  -11.4828   19.9409 H   0  0  0  0  0  0
  -29.7820  -11.7468   17.5079 H   0  0  0  0  0  0
  -29.6270  -13.4731   17.7174 H   0  0  0  0  0  0
  -27.8722  -11.2911   18.8900 H   0  0  0  0  0  0
  -27.3767  -12.5538   17.7981 H   0  0  0  0  0  0
  -27.6310  -14.2574   19.4719 H   0  0  0  0  0  0
  -28.7167  -12.1681   21.4215 H   0  0  0  0  0  0
  -28.4199  -13.8480   21.7939 H   0  0  0  0  0  0
  -25.2813   -9.5626   22.4732 H   0  0  0  0  0  0
  -24.0027   -7.4598   22.7455 H   0  0  0  0  0  0
  -21.0860   -8.8755   19.8915 H   0  0  0  0  0  0
  -22.3767  -10.9633   19.6132 H   0  0  0  0  0  0
  -21.2032   -7.6148   23.9684 H   0  0  0  0  0  0
  -21.1474   -6.0524   25.9053 H   0  0  0  0  0  0
  -22.0623   -2.7600   23.2865 H   0  0  0  0  0  0
  -22.4216  -11.9766   22.4781 H   0  0  0  0  0  0
  -21.1087  -13.0979   22.2679 H   0  0  0  0  0  0
  -24.6478  -15.8440   20.5466 H   0  0  0  0  0  0
  -26.2621  -15.6417   20.0897 H   0  0  0  0  0  0
  -26.7236  -32.5374   23.1077 H   0  0  0  0  0  0
  -25.0117  -33.9663   25.0407 H   0  0  0  0  0  0
  -22.7247  -31.3033   21.3944 H   0  0  0  0  0  0
  -23.3733  -35.9637   23.3274 H   0  0  0  0  0  0
  -24.3598  -36.8935   22.2057 H   0  0  0  0  0  0
  -23.7270  -37.6490   23.6683 H   0  0  0  0  0  0
  -26.1163  -31.5197   20.6106 H   0  0  0  0  0  0
  -26.8505  -30.8095   22.0183 H   0  0  0  0  0  0
  -28.0959  -28.8869   21.2621 H   0  0  0  0  0  0
  -25.9520  -25.9494   18.9166 H   0  0  0  0  0  0
  -23.9796  -27.3374   18.9527 H   0  0  0  0  0  0
  -23.7807  -30.6009   19.4019 H   0  0  0  0  0  0
  -22.7641  -29.2613   19.8388 H   0  0  0  0  0  0
  -25.1293  -36.1878   25.0807 H   0  0  0  0  0  0
  -20.9979  -28.3300   24.1361 H   0  0  0  0  0  0
  -20.5659  -26.2337   23.3610 H   0  0  0  0  0  0
  -21.6655  -26.7445   22.1205 H   0  0  0  0  0  0
  -19.6929  -25.6295   21.1242 H   0  0  0  0  0  0
  -19.6693  -27.3187   20.6711 H   0  0  0  0  0  0
  -17.4202  -26.6661   21.4014 H   0  0  0  0  0  0
  -18.0357  -26.0071   22.9006 H   0  0  0  0  0  0
  -19.7945  -30.7265   24.2269 H   0  0  0  0  0  0
  -17.5030  -31.6260   24.5179 H   0  0  0  0  0  0
  -15.5365  -30.3011   23.7637 H   0  0  0  0  0  0
  -15.8671  -28.0831   22.7075 H   0  0  0  0  0  0
  -24.5942  -30.7025   25.7777 H   0  0  0  0  0  0
  -24.8965  -32.2872   26.4843 H   0  0  0  0  0  0
  -25.8095  -30.8893   27.0222 H   0  0  0  0  0  0
  -26.2995  -29.6653   24.1266 H   0  0  0  0  0  0
  -27.4061  -29.7229   25.4775 H   0  0  0  0  0  0
  -27.8879  -30.4183   23.9500 H   0  0  0  0  0  0
  -27.2642  -33.3587   26.2064 H   0  0  0  0  0  0
  -28.3909  -32.6833   25.0375 H   0  0  0  0  0  0
  -28.0694  -31.8429   26.5464 H   0  0  0  0  0  0
  -28.2551  -38.0120   24.7498 H   0  0  0  0  0  0
  -28.1099  -36.2648   24.6276 H   0  0  0  0  0  0
  -27.2302  -37.1437   25.8859 H   0  0  0  0  0  0
  -20.9374  -29.8851   21.6900 H   0  0  0  0  0  0
  -26.0142  -38.2812   24.1399 H   0  0  0  0  0  0
  -25.5355  -21.9845   22.7691 H   0  0  0  0  0  0
  -26.3626  -22.9051   21.5543 H   0  0  0  0  0  0
  -26.9615  -22.9041   23.2090 H   0  0  0  0  0  0
  -27.8352  -20.8472   26.6338 H   0  0  0  0  0  0
  -28.4535  -20.9328   24.9889 H   0  0  0  0  0  0
  -28.3432  -19.3767   25.8028 H   0  0  0  0  0  0
  -26.4904  -18.3014   24.0304 H   0  0  0  0  0  0
  -25.3035  -19.4074   23.4315 H   0  0  0  0  0  0
  -28.0696  -22.0899   19.3440 H   0  0  0  0  0  0
  -29.7279  -21.8605   19.7173 H   0  0  0  0  0  0
  -25.9639  -21.1343   24.9919 H   0  0  0  0  0  0
  -25.8063  -19.6489   25.8812 H   0  0  0  0  0  0
  -29.9248  -23.9599   20.5792 H   0  0  0  0  0  0
  -28.6977  -23.7167   21.7459 H   0  0  0  0  0  0
  -28.9295  -18.2956   19.5165 H   0  0  0  0  0  0
  -30.3518  -19.2120   19.8642 H   0  0  0  0  0  0
  -30.3306  -17.4347   22.0855 H   0  0  0  0  0  0
  -31.3383  -17.3549   20.7033 H   0  0  0  0  0  0
  -26.9906  -24.6369   20.2464 H   0  0  0  0  0  0
  -28.0738  -24.7154   18.8922 H   0  0  0  0  0  0
  -28.8659  -15.6796   20.8941 H   0  0  0  0  0  0
  1 25  1  0  0  0
  1 30  2  0  0  0
  1 85  1  0  0  0
  2  3  1  0  0  0
  2 25  1  0  0  0
  2 86  1  0  0  0
  2 87  1  0  0  0
  3  4  1  0  0  0
  3 88  1  0  0  0
  3 89  1  0  0  0
  4  5  1  0  0  0
  4 90  1  0  0  0
  4 91  1  0  0  0
  5  6  1  0  0  0
  5 26  1  0  0  0
  5 92  1  0  0  0
  6 25  1  0  0  0
  6 93  1  0  0  0
  6 94  1  0  0  0
  7  8  2  0  0  0
  7 26  1  0  0  0
  7 29  1  0  0  0
  8  9  1  0  0  0
  8 22  1  0  0  0
  9 10  1  0  0  0
  9 27  2  0  0  0
 10 11  2  0  0  0
 10 15  1  0  0  0
 11 12  1  0  0  0
 11 95  1  0  0  0
 12 13  2  0  0  0
 12 96  1  0  0  0
 13 14  1  0  0  0
 13 31  1  0  0  0
 14 15  2  0  0  0
 14 97  1  0  0  0
 15 98  1  0  0  0
 16 17  2  0  0  0
 16 21  1  0  0  0
 16 31  1  0  0  0
 17 18  1  0  0  0
 17 99  1  0  0  0
 18 19  2  0  0  0
 18100  1  0  0  0
 19 20  1  0  0  0
 19 24  1  0  0  0
 20 21  2  0  0  0
 20101  1  0  0  0
 21 23  1  0  0  0
 22 28  1  0  0  0
 22 32  2  0  0  0
 26 27  1  0  0  0
 28102  1  0  0  0
 28103  1  0  0  0
 29104  1  0  0  0
 29105  1  0  0  0
 33 34  1  0  0  0
 33 66  1  0  0  0
 33 70  2  0  0  0
 34 36  1  0  0  0
 34 59  1  0  0  0
 34106  1  0  0  0
 35 44  2  0  0  0
 35 45  1  0  0  0
 35 68  1  0  0  0
 36 56  1  0  0  0
 36107  1  0  0  0
 37 39  1  0  0  0
 37 47  1  0  0  0
 37 66  1  0  0  0
 37108  1  0  0  0
 38 43  2  0  0  0
 38 46  1  0  0  0
 38 47  1  0  0  0
 39 64  1  0  0  0
 39 67  2  0  0  0
 40 52  1  0  0  0
 40 53  2  0  0  0
 40 58  1  0  0  0
 41109  1  0  0  0
 41110  1  0  0  0
 41111  1  0  0  0
 41 48  1  0  0  0
 42 43  1  0  0  0
 42 66  1  0  0  0
 42112  1  0  0  0
 42113  1  0  0  0
 43 44  1  0  0  0
 44114  1  0  0  0
 45 46  2  0  0  0
 45115  1  0  0  0
 46116  1  0  0  0
 47117  1  0  0  0
 47118  1  0  0  0
 48 56  1  0  0  0
 48 65  1  0  0  0
 48119  1  0  0  0
 49 50  1  0  0  0
 49 53  1  0  0  0
 49 64  1  0  0  0
 49120  1  0  0  0
 50 51  1  0  0  0
 50121  1  0  0  0
 50122  1  0  0  0
 51 52  1  0  0  0
 51123  1  0  0  0
 51124  1  0  0  0
 52125  1  0  0  0
 52126  1  0  0  0
 53 54  1  0  0  0
 54 55  2  0  0  0
 54127  1  0  0  0
 55 57  1  0  0  0
 55128  1  0  0  0
 56 69  2  0  0  0
 57 58  2  0  0  0
 57129  1  0  0  0
 58130  1  0  0  0
 59 60  1  0  0  0
 59 61  1  0  0  0
 59 62  1  0  0  0
 60131  1  0  0  0
 60132  1  0  0  0
 60133  1  0  0  0
 61134  1  0  0  0
 61135  1  0  0  0
 61136  1  0  0  0
 62137  1  0  0  0
 62138  1  0  0  0
 62139  1  0  0  0
 63 65  1  0  0  0
 63140  1  0  0  0
 63141  1  0  0  0
 63142  1  0  0  0
 64143  1  0  0  0
 65144  1  0  0  0
 68 82  1  0  0  0
 71 72  1  0  0  0
 71 73  2  0  0  0
 71 74  1  0  0  0
 72 76  1  0  0  0
 72 83  2  0  0  0
 73 77  1  0  0  0
 73 84  1  0  0  0
 74145  1  0  0  0
 74146  1  0  0  0
 74147  1  0  0  0
 75 78  1  0  0  0
 75148  1  0  0  0
 75149  1  0  0  0
 75150  1  0  0  0
 76 78  1  0  0  0
 76151  1  0  0  0
 76152  1  0  0  0
 77 79  1  0  0  0
 77153  1  0  0  0
 77154  1  0  0  0
 78155  1  0  0  0
 78156  1  0  0  0
 79 82  1  0  0  0
 79157  1  0  0  0
 79158  1  0  0  0
 80 81  1  0  0  0
 80 84  1  0  0  0
 80159  1  0  0  0
 80160  1  0  0  0
 81 85  1  0  0  0
 81161  1  0  0  0
 81162  1  0  0  0
 82163  1  0  0  0
 82164  1  0  0  0
 83 84  1  0  0  0
 85165  1  0  0  0
M  ISO  4   1 100  68 101  82 101  85 100
M  END
> <chiral flag>
0

> <version>
0

> <s_m_source_file>
/data/baiqing/PycharmProjects/Reinvent-master-3.2/result/LINK_invent/BTK/process_docking_weight1_custom_sum_contain_oxygen_bond_distance_aromatic_linkinvent_7_9_3/rearranged_h_0089.sdf

> <i_m_source_file_index>
85

> <r_mmod_Potential_Energy-OPLS-2005>
164.419403076172

> <r_mmod_Stretch_Energy-OPLS-2005>
129.727676391602

> <r_mmod_Bend_Energy-OPLS-2005>
190.343505859375

> <r_mmod_Torsional_Energy-OPLS-2005>
239.42008972168

> <r_mmod_Improper_Torsional_Energy-OPLS-2005>
5.22025489807129

> <r_mmod_Van_der_Waal_Energy-OPLS-2005>
117.189971923828

> <r_mmod_Electrostatic_Energy-OPLS-2005>
-395.403228759766

> <r_mmod_Solvation_Energy-OPLS-2005>
-213.160232543945

> <b_mmod_Minimization_Converged-OPLS-2005>
0

> <r_mmod_RMS_Derivative-OPLS-2005>
3.32234191894531

$$$$
87
                    3D
 Structure written by MMmdl.
167175  0  0  1  0            999 V2000
  -30.7112  -14.3835   20.6632 C   0  0  0  0  0  0
  -30.4241  -12.2823   19.4269 C   0  0  0  0  0  0
  -29.4966  -12.5294   18.2119 C   0  0  0  0  0  0
  -28.0122  -12.3968   18.6139 C   0  0  0  0  0  0
  -27.6599  -13.1933   19.8938 C   0  0  2  0  0  0
  -28.6935  -12.9165   21.0138 C   0  0  0  0  0  0
  -25.2471  -13.8035   20.5632 C   0  0  0  0  0  0
  -24.1723  -13.0323   20.9263 C   0  0  0  0  0  0
  -24.6315  -11.6815   20.8864 C   0  0  0  0  0  0
  -23.8976  -10.4207   21.0462 C   0  0  0  0  0  0
  -24.3527   -9.4151   21.9242 C   0  0  0  0  0  0
  -23.6222   -8.2181   22.0751 C   0  0  0  0  0  0
  -22.4236   -8.0236   21.3509 C   0  0  0  0  0  0
  -21.9838   -9.0208   20.4618 C   0  0  0  0  0  0
  -22.7155  -10.2100   20.3075 C   0  0  0  0  0  0
  -21.6829   -6.0699   22.5282 C   0  0  0  0  0  0
  -21.4003   -6.5603   23.8217 C   0  0  0  0  0  0
  -21.3683   -5.6759   24.9191 C   0  0  0  0  0  0
  -21.6020   -4.3025   24.7240 C   0  0  0  0  0  0
  -21.8816   -3.8107   23.4374 C   0  0  0  0  0  0
  -21.9180   -4.6924   22.3422 C   0  0  0  0  0  0
  -22.7749  -13.5146   21.1911 C   0  0  0  0  0  0
  -22.1645   -4.2058   21.1022 F   0  0  0  0  0  0
  -21.5612   -3.4545   25.7796 F   0  0  0  0  0  0
  -30.0478  -13.2148   20.4962 N   0  0  0  0  0  0
  -26.2948  -12.9202   20.3405 N   0  0  0  0  0  0
  -25.9256  -11.6402   20.5901 N   0  0  0  0  0  0
  -22.0340  -12.8149   22.0465 N   0  0  0  0  0  0
  -25.4105  -15.1653   20.3843 N   0  0  0  0  0  0
  -31.7916  -14.6550   20.1258 O   0  0  0  0  0  0
  -21.6600   -6.8829   21.4235 O   0  0  0  0  0  0
  -22.3459  -14.5444   20.6786 O   0  0  0  0  0  0
  -24.6106  -31.8672   23.2120 C   0  0  0  0  0  0
  -25.9004  -32.4836   23.8410 C   0  0  1  0  0  0
  -27.2537  -27.4844   20.0633 C   0  0  0  0  0  0
  -25.5901  -33.8653   24.2340 N   0  0  0  0  0  0
  -23.3990  -30.4845   21.5479 C   0  0  2  0  0  0
  -24.8507  -28.9581   20.1110 C   0  0  0  0  0  0
  -22.7389  -29.4602   22.5023 C   0  0  0  0  0  0
  -18.0254  -28.1394   22.8317 C   0  0  0  0  0  0
  -24.1480  -36.7360   23.2637 C   0  0  0  0  0  0
  -25.9231  -30.8462   21.3522 C   0  0  0  0  0  0
  -26.0054  -29.4832   20.7016 C   0  0  0  0  0  0
  -27.2114  -28.7552   20.6684 C   0  0  0  0  0  0
  -26.0775  -26.9460   19.4917 C   0  0  0  0  0  0
  -24.8797  -27.6907   19.5039 C   0  0  0  0  0  0
  -23.6091  -29.8172   20.1629 C   0  0  0  0  0  0
  -25.4101  -36.3152   24.0329 C   0  0  1  0  0  0
  -20.5795  -28.3667   23.1402 C   0  0  2  0  0  0
  -20.6749  -26.9379   22.5461 C   0  0  0  0  0  0
  -19.5873  -26.6453   21.5123 C   0  0  0  0  0  0
  -18.1893  -26.8029   22.1205 C   0  0  0  0  0  0
  -19.1452  -28.8832   23.2893 C   0  0  0  0  0  0
  -18.9341  -30.1405   23.8935 C   0  0  0  0  0  0
  -17.6326  -30.6497   24.0557 C   0  0  0  0  0  0
  -25.9021  -34.9510   23.5099 C   0  0  0  0  0  0
  -16.5246  -29.9044   23.6175 C   0  0  0  0  0  0
  -16.7204  -28.6494   23.0125 C   0  0  0  0  0  0
  -26.4453  -31.6596   25.0723 C   0  0  0  0  0  0
  -25.3762  -31.3687   26.1505 C   0  0  0  0  0  0
  -27.0278  -30.3062   24.6039 C   0  0  0  0  0  0
  -27.6018  -32.4323   25.7488 C   0  0  0  0  0  0
  -27.5575  -37.1837   24.8464 C   0  0  0  0  0  0
  -21.4086  -29.3053   22.3829 N   0  0  0  0  0  0
  -26.4306  -37.3830   23.9391 N   0  0  0  0  0  0
  -24.6643  -31.0797   22.0963 N   0  0  0  0  0  0
  -23.4184  -28.8139   23.3031 O   0  0  0  0  0  0
  -28.4744  -26.8567   20.0013 O   0  0  0  0  0  0
  -26.5574  -34.8972   22.4678 O   0  0  0  0  0  0
  -23.5293  -32.1399   23.7530 O   0  0  0  0  0  0
  -29.4270  -19.9051   19.8085 C   0  0  0  0  0  0
  -27.2608  -20.5161   18.9297 C   0  0  0  0  0  0
  -28.6358  -20.7741   19.0292 C   0  0  0  0  0  0
  -28.7942  -18.8743   20.5474 C   0  0  0  0  0  0
  -27.3726  -18.8121   20.4873 C   0  0  0  0  0  0
  -26.0497  -18.5722   22.6650 C   0  0  0  0  0  0
  -29.4525  -17.8553   22.8392 C   0  0  0  0  0  0
  -29.1609  -22.0755   18.4627 C   0  0  0  0  0  0
  -26.4895  -17.9287   21.3509 C   0  0  0  0  0  0
  -28.5827  -23.1905   19.3459 C   0  0  0  0  0  0
  -28.8414  -24.6466   18.9553 C   0  0  0  0  0  0
  -29.5224  -16.4798   20.6016 C   0  0  0  0  0  0
  -28.5122  -25.4599   20.2117 C   0  0  0  0  0  0
  -29.6530  -17.8504   21.3097 C   0  0  1  0  0  0
  -26.6427  -19.5868   19.6684 N   0  0  0  0  0  0
  -29.9953  -15.2985   21.3195 N   0  0  0  0  0  0
  -31.4698  -12.3865   19.1415 H   0  0  0  0  0  0
  -30.3120  -11.2598   19.7829 H   0  0  0  0  0  0
  -29.7221  -11.8210   17.4113 H   0  0  0  0  0  0
  -29.6814  -13.5295   17.8103 H   0  0  0  0  0  0
  -27.7966  -11.3374   18.7723 H   0  0  0  0  0  0
  -27.3698  -12.7289   17.7954 H   0  0  0  0  0  0
  -27.7036  -14.2456   19.6192 H   0  0  0  0  0  0
  -28.6536  -11.8716   21.3334 H   0  0  0  0  0  0
  -28.4315  -13.4864   21.9074 H   0  0  0  0  0  0
  -25.2659   -9.5604   22.4837 H   0  0  0  0  0  0
  -23.9925   -7.4532   22.7428 H   0  0  0  0  0  0
  -21.0774   -8.8698   19.8895 H   0  0  0  0  0  0
  -22.3612  -10.9649   19.6176 H   0  0  0  0  0  0
  -21.1996   -7.6111   23.9693 H   0  0  0  0  0  0
  -21.1521   -6.0514   25.9073 H   0  0  0  0  0  0
  -22.0594   -2.7564   23.2938 H   0  0  0  0  0  0
  -22.3892  -11.9854   22.4979 H   0  0  0  0  0  0
  -21.0975  -13.1235   22.2592 H   0  0  0  0  0  0
  -24.6454  -15.8252   20.4799 H   0  0  0  0  0  0
  -26.2465  -15.5871   20.0053 H   0  0  0  0  0  0
  -26.7081  -32.5501   23.1178 H   0  0  0  0  0  0
  -25.0120  -33.9837   25.0514 H   0  0  0  0  0  0
  -22.6865  -31.2985   21.4090 H   0  0  0  0  0  0
  -23.3722  -35.9711   23.3338 H   0  0  0  0  0  0
  -24.3556  -36.8946   22.2050 H   0  0  0  0  0  0
  -23.7265  -37.6598   23.6623 H   0  0  0  0  0  0
  -26.0270  -31.6122   20.5826 H   0  0  0  0  0  0
  -26.8189  -30.9093   21.9596 H   0  0  0  0  0  0
  -28.1169  -29.1577   21.1025 H   0  0  0  0  0  0
  -26.0815  -25.9763   19.0083 H   0  0  0  0  0  0
  -23.9912  -27.2986   19.0283 H   0  0  0  0  0  0
  -23.7056  -30.5970   19.4038 H   0  0  0  0  0  0
  -22.7344  -29.2389   19.8679 H   0  0  0  0  0  0
  -25.1256  -36.2044   25.0823 H   0  0  0  0  0  0
  -20.9747  -28.3172   24.1560 H   0  0  0  0  0  0
  -20.5636  -26.2073   23.3466 H   0  0  0  0  0  0
  -21.6690  -26.7526   22.1308 H   0  0  0  0  0  0
  -19.7057  -27.3293   20.6759 H   0  0  0  0  0  0
  -19.7168  -25.6448   21.0960 H   0  0  0  0  0  0
  -17.4460  -26.7125   21.3234 H   0  0  0  0  0  0
  -17.9893  -25.9980   22.8240 H   0  0  0  0  0  0
  -19.7759  -30.7261   24.2377 H   0  0  0  0  0  0
  -17.4871  -31.6103   24.5242 H   0  0  0  0  0  0
  -15.5223  -30.2935   23.7548 H   0  0  0  0  0  0
  -15.8657  -28.0797   22.6782 H   0  0  0  0  0  0
  -24.5911  -30.7034   25.7901 H   0  0  0  0  0  0
  -24.8974  -32.2847   26.5024 H   0  0  0  0  0  0
  -25.8207  -30.8860   27.0217 H   0  0  0  0  0  0
  -26.2809  -29.6833   24.1110 H   0  0  0  0  0  0
  -27.4136  -29.7298   25.4451 H   0  0  0  0  0  0
  -27.8598  -30.4454   23.9116 H   0  0  0  0  0  0
  -27.2605  -33.3586   26.2142 H   0  0  0  0  0  0
  -28.3807  -32.6948   25.0306 H   0  0  0  0  0  0
  -28.0705  -31.8394   26.5366 H   0  0  0  0  0  0
  -28.2585  -38.0133   24.7440 H   0  0  0  0  0  0
  -28.1067  -36.2651   24.6335 H   0  0  0  0  0  0
  -27.2271  -37.1526   25.8865 H   0  0  0  0  0  0
  -20.9171  -29.8753   21.7071 H   0  0  0  0  0  0
  -26.0188  -38.2901   24.1434 H   0  0  0  0  0  0
  -30.4958  -20.0595   19.8615 H   0  0  0  0  0  0
  -26.6105  -21.1501   18.3492 H   0  0  0  0  0  0
  -25.3312  -17.9174   23.1517 H   0  0  0  0  0  0
  -25.5783  -19.5423   22.5230 H   0  0  0  0  0  0
  -26.8802  -18.7059   23.3481 H   0  0  0  0  0  0
  -29.4560  -18.8716   23.2442 H   0  0  0  0  0  0
  -30.2583  -17.3267   23.3532 H   0  0  0  0  0  0
  -28.5324  -17.3620   23.1480 H   0  0  0  0  0  0
  -28.8470  -22.2072   17.4271 H   0  0  0  0  0  0
  -30.2514  -22.0958   18.4661 H   0  0  0  0  0  0
  -26.9325  -16.9557   21.5506 H   0  0  0  0  0  0
  -25.5693  -17.7404   20.7949 H   0  0  0  0  0  0
  -28.9406  -23.0024   20.3603 H   0  0  0  0  0  0
  -27.4962  -23.0958   19.4180 H   0  0  0  0  0  0
  -28.2024  -24.9365   18.1194 H   0  0  0  0  0  0
  -29.8722  -24.8230   18.6397 H   0  0  0  0  0  0
  -30.0119  -16.5483   19.6313 H   0  0  0  0  0  0
  -28.4852  -16.2661   20.3566 H   0  0  0  0  0  0
  -29.2978  -25.2827   20.9465 H   0  0  0  0  0  0
  -27.5921  -25.0928   20.6676 H   0  0  0  0  0  0
  -30.6957  -18.1413   21.1703 H   0  0  0  0  0  0
  -29.2662  -14.8320   21.8376 H   0  0  0  0  0  0
  1 25  1  0  0  0
  1 30  2  0  0  0
  1 86  1  0  0  0
  2  3  1  0  0  0
  2 25  1  0  0  0
  2 87  1  0  0  0
  2 88  1  0  0  0
  3  4  1  0  0  0
  3 89  1  0  0  0
  3 90  1  0  0  0
  4  5  1  0  0  0
  4 91  1  0  0  0
  4 92  1  0  0  0
  5  6  1  0  0  0
  5 26  1  0  0  0
  5 93  1  0  0  0
  6 25  1  0  0  0
  6 94  1  0  0  0
  6 95  1  0  0  0
  7  8  2  0  0  0
  7 26  1  0  0  0
  7 29  1  0  0  0
  8  9  1  0  0  0
  8 22  1  0  0  0
  9 10  1  0  0  0
  9 27  2  0  0  0
 10 11  2  0  0  0
 10 15  1  0  0  0
 11 12  1  0  0  0
 11 96  1  0  0  0
 12 13  2  0  0  0
 12 97  1  0  0  0
 13 14  1  0  0  0
 13 31  1  0  0  0
 14 15  2  0  0  0
 14 98  1  0  0  0
 15 99  1  0  0  0
 16 17  2  0  0  0
 16 21  1  0  0  0
 16 31  1  0  0  0
 17 18  1  0  0  0
 17100  1  0  0  0
 18 19  2  0  0  0
 18101  1  0  0  0
 19 20  1  0  0  0
 19 24  1  0  0  0
 20 21  2  0  0  0
 20102  1  0  0  0
 21 23  1  0  0  0
 22 28  1  0  0  0
 22 32  2  0  0  0
 26 27  1  0  0  0
 28103  1  0  0  0
 28104  1  0  0  0
 29105  1  0  0  0
 29106  1  0  0  0
 33 34  1  0  0  0
 33 66  1  0  0  0
 33 70  2  0  0  0
 34 36  1  0  0  0
 34 59  1  0  0  0
 34107  1  0  0  0
 35 44  2  0  0  0
 35 45  1  0  0  0
 35 68  1  0  0  0
 36 56  1  0  0  0
 36108  1  0  0  0
 37 39  1  0  0  0
 37 47  1  0  0  0
 37 66  1  0  0  0
 37109  1  0  0  0
 38 43  2  0  0  0
 38 46  1  0  0  0
 38 47  1  0  0  0
 39 64  1  0  0  0
 39 67  2  0  0  0
 40 52  1  0  0  0
 40 53  2  0  0  0
 40 58  1  0  0  0
 41110  1  0  0  0
 41111  1  0  0  0
 41112  1  0  0  0
 41 48  1  0  0  0
 42 43  1  0  0  0
 42 66  1  0  0  0
 42113  1  0  0  0
 42114  1  0  0  0
 43 44  1  0  0  0
 44115  1  0  0  0
 45 46  2  0  0  0
 45116  1  0  0  0
 46117  1  0  0  0
 47118  1  0  0  0
 47119  1  0  0  0
 48 56  1  0  0  0
 48 65  1  0  0  0
 48120  1  0  0  0
 49 50  1  0  0  0
 49 53  1  0  0  0
 49 64  1  0  0  0
 49121  1  0  0  0
 50 51  1  0  0  0
 50122  1  0  0  0
 50123  1  0  0  0
 51 52  1  0  0  0
 51124  1  0  0  0
 51125  1  0  0  0
 52126  1  0  0  0
 52127  1  0  0  0
 53 54  1  0  0  0
 54 55  2  0  0  0
 54128  1  0  0  0
 55 57  1  0  0  0
 55129  1  0  0  0
 56 69  2  0  0  0
 57 58  2  0  0  0
 57130  1  0  0  0
 58131  1  0  0  0
 59 60  1  0  0  0
 59 61  1  0  0  0
 59 62  1  0  0  0
 60132  1  0  0  0
 60133  1  0  0  0
 60134  1  0  0  0
 61135  1  0  0  0
 61136  1  0  0  0
 61137  1  0  0  0
 62138  1  0  0  0
 62139  1  0  0  0
 62140  1  0  0  0
 63 65  1  0  0  0
 63141  1  0  0  0
 63142  1  0  0  0
 63143  1  0  0  0
 64144  1  0  0  0
 65145  1  0  0  0
 68 83  1  0  0  0
 71 73  2  0  0  0
 71 74  1  0  0  0
 71146  1  0  0  0
 72 73  1  0  0  0
 72 85  2  0  0  0
 72147  1  0  0  0
 73 78  1  0  0  0
 74 75  2  0  0  0
 74 84  1  0  0  0
 75 79  1  0  0  0
 75 85  1  0  0  0
 76 79  1  0  0  0
 76148  1  0  0  0
 76149  1  0  0  0
 76150  1  0  0  0
 77151  1  0  0  0
 77152  1  0  0  0
 77153  1  0  0  0
 77 84  1  0  0  0
 78 80  1  0  0  0
 78154  1  0  0  0
 78155  1  0  0  0
 79156  1  0  0  0
 79157  1  0  0  0
 80 81  1  0  0  0
 80158  1  0  0  0
 80159  1  0  0  0
 81 83  1  0  0  0
 81160  1  0  0  0
 81161  1  0  0  0
 82 84  1  0  0  0
 82 86  1  0  0  0
 82162  1  0  0  0
 82163  1  0  0  0
 83164  1  0  0  0
 83165  1  0  0  0
 84166  1  0  0  0
 86167  1  0  0  0
M  ISO  4   1 100  68 101  83 101  86 100
M  END
> <chiral flag>
0

> <version>
0

> <s_m_source_file>
/data/baiqing/PycharmProjects/Reinvent-master-3.2/result/LINK_invent/BTK/process_docking_weight1_custom_sum_contain_oxygen_bond_distance_aromatic_linkinvent_7_9_3/rearranged_h_0089.sdf

> <i_m_source_file_index>
86

> <r_mmod_Potential_Energy-OPLS-2005>
-187.435150146484

> <r_mmod_Stretch_Energy-OPLS-2005>
34.7077293395996

> <r_mmod_Bend_Energy-OPLS-2005>
128.010925292969

> <r_mmod_Torsional_Energy-OPLS-2005>
258.615783691406

> <r_mmod_Improper_Torsional_Energy-OPLS-2005>
10.3701677322388

> <r_mmod_Van_der_Waal_Energy-OPLS-2005>
165.486434936523

> <r_mmod_Electrostatic_Energy-OPLS-2005>
-580.254272460938

> <r_mmod_Solvation_Energy-OPLS-2005>
-215.136489868164

> <b_mmod_Minimization_Converged-OPLS-2005>
0

> <r_mmod_RMS_Derivative-OPLS-2005>
10.7717800140381

$$$$
88
                    3D
 Structure written by MMmdl.
178186  0  0  1  0            999 V2000
  -30.5727  -14.7469   20.5067 C   0  0  0  0  0  0
  -30.4463  -12.4613   19.4743 C   0  0  0  0  0  0
  -29.5197  -12.5116   18.2363 C   0  0  0  0  0  0
  -28.0426  -12.3169   18.6355 C   0  0  0  0  0  0
  -27.6406  -13.2122   19.8349 C   0  0  2  0  0  0
  -28.6767  -13.1047   20.9671 C   0  0  0  0  0  0
  -25.2537  -13.8153   20.5639 C   0  0  0  0  0  0
  -24.1811  -13.0428   20.9183 C   0  0  0  0  0  0
  -24.6377  -11.6899   20.8728 C   0  0  0  0  0  0
  -23.9052  -10.4291   21.0411 C   0  0  0  0  0  0
  -24.3611   -9.4211   21.9183 C   0  0  0  0  0  0
  -23.6289   -8.2241   22.0752 C   0  0  0  0  0  0
  -22.4273   -8.0285   21.3544 C   0  0  0  0  0  0
  -21.9908   -9.0256   20.4639 C   0  0  0  0  0  0
  -22.7227  -10.2132   20.3052 C   0  0  0  0  0  0
  -21.6845   -6.0751   22.5290 C   0  0  0  0  0  0
  -21.3998   -6.5649   23.8223 C   0  0  0  0  0  0
  -21.3655   -5.6796   24.9188 C   0  0  0  0  0  0
  -21.6044   -4.3061   24.7237 C   0  0  0  0  0  0
  -21.8816   -3.8161   23.4350 C   0  0  0  0  0  0
  -21.9184   -4.6979   22.3411 C   0  0  0  0  0  0
  -22.7835  -13.5232   21.1870 C   0  0  0  0  0  0
  -22.1657   -4.2170   21.0983 F   0  0  0  0  0  0
  -21.5633   -3.4538   25.7744 F   0  0  0  0  0  0
  -29.9846  -13.4987   20.4263 N   0  0  0  0  0  0
  -26.2914  -12.9311   20.3139 N   0  0  0  0  0  0
  -25.9281  -11.6482   20.5653 N   0  0  0  0  0  0
  -22.0469  -12.8232   22.0426 N   0  0  0  0  0  0
  -25.4262  -15.1875   20.4108 N   0  0  0  0  0  0
  -31.7416  -14.8656   20.1231 O   0  0  0  0  0  0
  -21.6627   -6.8891   21.4251 O   0  0  0  0  0  0
  -22.3523  -14.5537   20.6713 O   0  0  0  0  0  0
  -24.6301  -31.8537   23.1947 C   0  0  0  0  0  0
  -25.9146  -32.4726   23.8302 C   0  0  1  0  0  0
  -27.2339  -27.2749   20.1123 C   0  0  0  0  0  0
  -25.5932  -33.8532   24.2241 N   0  0  0  0  0  0
  -23.4267  -30.4723   21.5370 C   0  0  2  0  0  0
  -24.8750  -28.9133   20.1080 C   0  0  0  0  0  0
  -22.7496  -29.4585   22.4905 C   0  0  0  0  0  0
  -18.0286  -28.1334   22.8457 C   0  0  0  0  0  0
  -24.1503  -36.7289   23.2633 C   0  0  0  0  0  0
  -25.9705  -30.7667   21.3721 C   0  0  0  0  0  0
  -26.0441  -29.3890   20.7153 C   0  0  0  0  0  0
  -27.2218  -28.5798   20.7069 C   0  0  0  0  0  0
  -26.0388  -26.8530   19.4877 C   0  0  0  0  0  0
  -24.8774  -27.6519   19.4883 C   0  0  0  0  0  0
  -23.6441  -29.7973   20.1563 C   0  0  0  0  0  0
  -25.4134  -36.3058   24.0308 C   0  0  1  0  0  0
  -20.5884  -28.3672   23.1235 C   0  0  2  0  0  0
  -20.6774  -26.9381   22.5387 C   0  0  0  0  0  0
  -19.5759  -26.6346   21.5173 C   0  0  0  0  0  0
  -18.1932  -26.7873   22.1582 C   0  0  0  0  0  0
  -19.1534  -28.8819   23.2833 C   0  0  0  0  0  0
  -18.9468  -30.1413   23.8856 C   0  0  0  0  0  0
  -17.6475  -30.6546   24.0537 C   0  0  0  0  0  0
  -25.9062  -34.9421   23.5094 C   0  0  0  0  0  0
  -16.5363  -29.9035   23.6309 C   0  0  0  0  0  0
  -16.7269  -28.6447   23.0340 C   0  0  0  0  0  0
  -26.4500  -31.6547   25.0698 C   0  0  0  0  0  0
  -25.3708  -31.3676   26.1427 C   0  0  0  0  0  0
  -27.0361  -30.2959   24.6197 C   0  0  0  0  0  0
  -27.6061  -32.4295   25.7445 C   0  0  0  0  0  0
  -27.5594  -37.1780   24.8437 C   0  0  0  0  0  0
  -21.4204  -29.3043   22.3645 N   0  0  0  0  0  0
  -26.4295  -37.3773   23.9403 N   0  0  0  0  0  0
  -24.6952  -31.0487   22.0920 N   0  0  0  0  0  0
  -23.4193  -28.8139   23.3018 O   0  0  0  0  0  0
  -28.3617  -26.4336   20.1896 O   0  0  0  0  0  0
  -26.5625  -34.8891   22.4662 O   0  0  0  0  0  0
  -23.5451  -32.1380   23.7227 O   0  0  0  0  0  0
  -31.3605  -19.6055   23.3093 C   0  0  0  0  0  0
  -29.6024  -20.9213   22.3295 C   0  0  0  0  0  0
  -30.4293  -20.6422   23.4257 C   0  0  0  0  0  0
  -31.3368  -18.7376   22.1996 C   0  0  0  0  0  0
  -29.5949  -20.1252   21.1661 C   0  0  0  0  0  0
  -30.3238  -18.8420   21.1934 C   0  0  0  0  0  0
  -32.4545  -17.7030   22.1609 C   0  0  0  0  0  0
  -29.5381  -16.1742   22.4475 C   0  0  0  0  0  0
  -29.8921  -25.1854   25.7195 C   0  0  0  0  0  0
  -28.0953  -23.4280   25.8074 C   0  0  0  0  0  0
  -30.2820  -21.4133   24.7282 C   0  0  0  0  0  0
  -28.7571  -20.8077   20.0315 C   0  0  0  0  0  0
  -30.1226  -17.5589   20.2641 C   0  0  0  0  0  0
  -30.3104  -22.9507   24.5979 C   0  0  0  0  0  0
  -29.0455  -22.3695   19.6611 C   0  0  0  0  0  0
  -28.3478  -23.6730   20.3294 C   0  0  0  0  0  0
  -28.4842  -25.0855   19.5469 C   0  0  0  0  0  0
  -29.7559  -16.0889   20.9163 C   0  0  1  0  0  0
  -29.6174  -23.6764   25.7715 C   0  0  0  0  0  0
  -31.4839  -12.6092   19.1704 H   0  0  0  0  0  0
  -30.4161  -11.4767   19.9439 H   0  0  0  0  0  0
  -29.8182  -11.7524   17.5121 H   0  0  0  0  0  0
  -29.6356  -13.4748   17.7366 H   0  0  0  0  0  0
  -27.9058  -11.2665   18.8974 H   0  0  0  0  0  0
  -27.3906  -12.5032   17.7811 H   0  0  0  0  0  0
  -27.6438  -14.2348   19.4617 H   0  0  0  0  0  0
  -28.7180  -12.0829   21.3473 H   0  0  0  0  0  0
  -28.3618  -13.7069   21.8089 H   0  0  0  0  0  0
  -25.2761   -9.5693   22.4747 H   0  0  0  0  0  0
  -24.0012   -7.4635   22.7464 H   0  0  0  0  0  0
  -21.0846   -8.8768   19.8935 H   0  0  0  0  0  0
  -22.3696  -10.9672   19.6158 H   0  0  0  0  0  0
  -21.1972   -7.6149   23.9740 H   0  0  0  0  0  0
  -21.1477   -6.0520   25.9090 H   0  0  0  0  0  0
  -22.0588   -2.7625   23.2845 H   0  0  0  0  0  0
  -22.4077  -11.9916   22.4863 H   0  0  0  0  0  0
  -21.1066  -13.1241   22.2574 H   0  0  0  0  0  0
  -24.6631  -15.8440   20.5365 H   0  0  0  0  0  0
  -26.2851  -15.6324   20.1128 H   0  0  0  0  0  0
  -26.7208  -32.5365   23.1033 H   0  0  0  0  0  0
  -25.0099  -33.9676   25.0402 H   0  0  0  0  0  0
  -22.7219  -31.2936   21.3826 H   0  0  0  0  0  0
  -23.3754  -35.9622   23.3264 H   0  0  0  0  0  0
  -24.3594  -36.8971   22.2049 H   0  0  0  0  0  0
  -23.7287  -37.6498   23.6694 H   0  0  0  0  0  0
  -26.1080  -31.5231   20.5990 H   0  0  0  0  0  0
  -26.8488  -30.8167   22.0049 H   0  0  0  0  0  0
  -28.1230  -28.9378   21.1858 H   0  0  0  0  0  0
  -25.9700  -25.8814   19.0237 H   0  0  0  0  0  0
  -23.9791  -27.2774   19.0145 H   0  0  0  0  0  0
  -23.7592  -30.5664   19.3896 H   0  0  0  0  0  0
  -22.7655  -29.2191   19.8626 H   0  0  0  0  0  0
  -25.1317  -36.1899   25.0791 H   0  0  0  0  0  0
  -20.9943  -28.3245   24.1362 H   0  0  0  0  0  0
  -20.5637  -26.2272   23.3589 H   0  0  0  0  0  0
  -21.6650  -26.7383   22.1208 H   0  0  0  0  0  0
  -19.6932  -25.6257   21.1203 H   0  0  0  0  0  0
  -19.6697  -27.3138   20.6681 H   0  0  0  0  0  0
  -17.4209  -26.6588   21.3974 H   0  0  0  0  0  0
  -18.0355  -25.9993   22.8952 H   0  0  0  0  0  0
  -19.7962  -30.7215   24.2201 H   0  0  0  0  0  0
  -17.5048  -31.6223   24.5150 H   0  0  0  0  0  0
  -15.5367  -30.2940   23.7677 H   0  0  0  0  0  0
  -15.8653  -28.0776   22.7074 H   0  0  0  0  0  0
  -24.5918  -30.6972   25.7779 H   0  0  0  0  0  0
  -24.8824  -32.2802   26.4838 H   0  0  0  0  0  0
  -25.8036  -30.8897   27.0226 H   0  0  0  0  0  0
  -26.2945  -29.6642   24.1297 H   0  0  0  0  0  0
  -27.4130  -29.7291   25.4728 H   0  0  0  0  0  0
  -27.8771  -30.4230   23.9381 H   0  0  0  0  0  0
  -27.2717  -33.3639   26.1973 H   0  0  0  0  0  0
  -28.3886  -32.6804   25.0258 H   0  0  0  0  0  0
  -28.0710  -31.8439   26.5395 H   0  0  0  0  0  0
  -28.2561  -38.0120   24.7591 H   0  0  0  0  0  0
  -28.1147  -36.2669   24.6163 H   0  0  0  0  0  0
  -27.2297  -37.1335   25.8826 H   0  0  0  0  0  0
  -20.9381  -29.8806   21.6888 H   0  0  0  0  0  0
  -26.0155  -38.2834   24.1442 H   0  0  0  0  0  0
  -32.0741  -19.4378   24.1042 H   0  0  0  0  0  0
  -28.9333  -21.7672   22.3852 H   0  0  0  0  0  0
  -33.4074  -18.2140   22.0250 H   0  0  0  0  0  0
  -32.3738  -16.9809   21.3579 H   0  0  0  0  0  0
  -32.5111  -17.1558   23.1020 H   0  0  0  0  0  0
  -29.0185  -17.0926   22.7214 H   0  0  0  0  0  0
  -30.4709  -16.1356   23.0032 H   0  0  0  0  0  0
  -28.9186  -15.3760   22.8419 H   0  0  0  0  0  0
  -29.4202  -25.6979   26.5584 H   0  0  0  0  0  0
  -29.5053  -25.6296   24.8009 H   0  0  0  0  0  0
  -30.9603  -25.3974   25.7691 H   0  0  0  0  0  0
  -27.6185  -24.0261   26.5847 H   0  0  0  0  0  0
  -27.8464  -22.3902   26.0254 H   0  0  0  0  0  0
  -27.6252  -23.6869   24.8581 H   0  0  0  0  0  0
  -31.0436  -21.0940   25.4400 H   0  0  0  0  0  0
  -29.3367  -21.0796   25.1500 H   0  0  0  0  0  0
  -27.6977  -20.6768   20.2575 H   0  0  0  0  0  0
  -28.9307  -20.2186   19.1294 H   0  0  0  0  0  0
  -30.9984  -17.4658   19.6210 H   0  0  0  0  0  0
  -29.3227  -17.8120   19.5680 H   0  0  0  0  0  0
  -29.8351  -23.2810   23.6750 H   0  0  0  0  0  0
  -31.3521  -23.2671   24.5151 H   0  0  0  0  0  0
  -28.7690  -22.4466   18.6100 H   0  0  0  0  0  0
  -30.1251  -22.5177   19.6537 H   0  0  0  0  0  0
  -28.7518  -23.7953   21.3319 H   0  0  0  0  0  0
  -27.2841  -23.4706   20.4645 H   0  0  0  0  0  0
  -27.8995  -25.0442   18.6309 H   0  0  0  0  0  0
  -29.5108  -25.0970   19.1811 H   0  0  0  0  0  0
  -28.7610  -15.9012   20.5170 H   0  0  0  0  0  0
  -30.0431  -23.2996   26.7035 H   0  0  0  0  0  0
  1 25  1  0  0  0
  1 30  2  0  0  0
  1 88  1  0  0  0
  2  3  1  0  0  0
  2 25  1  0  0  0
  2 90  1  0  0  0
  2 91  1  0  0  0
  3  4  1  0  0  0
  3 92  1  0  0  0
  3 93  1  0  0  0
  4  5  1  0  0  0
  4 94  1  0  0  0
  4 95  1  0  0  0
  5  6  1  0  0  0
  5 26  1  0  0  0
  5 96  1  0  0  0
  6 25  1  0  0  0
  6 97  1  0  0  0
  6 98  1  0  0  0
  7  8  2  0  0  0
  7 26  1  0  0  0
  7 29  1  0  0  0
  8  9  1  0  0  0
  8 22  1  0  0  0
  9 10  1  0  0  0
  9 27  2  0  0  0
 10 11  2  0  0  0
 10 15  1  0  0  0
 11 12  1  0  0  0
 11 99  1  0  0  0
 12 13  2  0  0  0
 12100  1  0  0  0
 13 14  1  0  0  0
 13 31  1  0  0  0
 14 15  2  0  0  0
 14101  1  0  0  0
 15102  1  0  0  0
 16 17  2  0  0  0
 16 21  1  0  0  0
 16 31  1  0  0  0
 17 18  1  0  0  0
 17103  1  0  0  0
 18 19  2  0  0  0
 18104  1  0  0  0
 19 20  1  0  0  0
 19 24  1  0  0  0
 20 21  2  0  0  0
 20105  1  0  0  0
 21 23  1  0  0  0
 22 28  1  0  0  0
 22 32  2  0  0  0
 26 27  1  0  0  0
 28106  1  0  0  0
 28107  1  0  0  0
 29108  1  0  0  0
 29109  1  0  0  0
 33 34  1  0  0  0
 33 66  1  0  0  0
 33 70  2  0  0  0
 34 36  1  0  0  0
 34 59  1  0  0  0
 34110  1  0  0  0
 35 44  2  0  0  0
 35 45  1  0  0  0
 35 68  1  0  0  0
 36 56  1  0  0  0
 36111  1  0  0  0
 37 39  1  0  0  0
 37 47  1  0  0  0
 37 66  1  0  0  0
 37112  1  0  0  0
 38 43  2  0  0  0
 38 46  1  0  0  0
 38 47  1  0  0  0
 39 64  1  0  0  0
 39 67  2  0  0  0
 40 52  1  0  0  0
 40 53  2  0  0  0
 40 58  1  0  0  0
 41113  1  0  0  0
 41114  1  0  0  0
 41115  1  0  0  0
 41 48  1  0  0  0
 42 43  1  0  0  0
 42 66  1  0  0  0
 42116  1  0  0  0
 42117  1  0  0  0
 43 44  1  0  0  0
 44118  1  0  0  0
 45 46  2  0  0  0
 45119  1  0  0  0
 46120  1  0  0  0
 47121  1  0  0  0
 47122  1  0  0  0
 48 56  1  0  0  0
 48 65  1  0  0  0
 48123  1  0  0  0
 49 50  1  0  0  0
 49 53  1  0  0  0
 49 64  1  0  0  0
 49124  1  0  0  0
 50 51  1  0  0  0
 50125  1  0  0  0
 50126  1  0  0  0
 51 52  1  0  0  0
 51127  1  0  0  0
 51128  1  0  0  0
 52129  1  0  0  0
 52130  1  0  0  0
 53 54  1  0  0  0
 54 55  2  0  0  0
 54131  1  0  0  0
 55 57  1  0  0  0
 55132  1  0  0  0
 56 69  2  0  0  0
 57 58  2  0  0  0
 57133  1  0  0  0
 58134  1  0  0  0
 59 60  1  0  0  0
 59 61  1  0  0  0
 59 62  1  0  0  0
 60135  1  0  0  0
 60136  1  0  0  0
 60137  1  0  0  0
 61138  1  0  0  0
 61139  1  0  0  0
 61140  1  0  0  0
 62141  1  0  0  0
 62142  1  0  0  0
 62143  1  0  0  0
 63 65  1  0  0  0
 63144  1  0  0  0
 63145  1  0  0  0
 63146  1  0  0  0
 64147  1  0  0  0
 65148  1  0  0  0
 68 87  1  0  0  0
 71 73  2  0  0  0
 71 74  1  0  0  0
 71149  1  0  0  0
 72 73  1  0  0  0
 72 75  2  0  0  0
 72150  1  0  0  0
 73 81  1  0  0  0
 74 76  2  0  0  0
 74 77  1  0  0  0
 75 76  1  0  0  0
 75 82  1  0  0  0
 76 83  1  0  0  0
 77151  1  0  0  0
 77152  1  0  0  0
 77153  1  0  0  0
 78154  1  0  0  0
 78155  1  0  0  0
 78156  1  0  0  0
 78 88  1  0  0  0
 79157  1  0  0  0
 79158  1  0  0  0
 79159  1  0  0  0
 79 89  1  0  0  0
 80 89  1  0  0  0
 80160  1  0  0  0
 80161  1  0  0  0
 80162  1  0  0  0
 81 84  1  0  0  0
 81163  1  0  0  0
 81164  1  0  0  0
 82 85  1  0  0  0
 82165  1  0  0  0
 82166  1  0  0  0
 83 88  1  0  0  0
 83167  1  0  0  0
 83168  1  0  0  0
 84 89  1  0  0  0
 84169  1  0  0  0
 84170  1  0  0  0
 85 86  1  0  0  0
 85171  1  0  0  0
 85172  1  0  0  0
 86 87  1  0  0  0
 86173  1  0  0  0
 86174  1  0  0  0
 87175  1  0  0  0
 87176  1  0  0  0
 88177  1  0  0  0
 89178  1  0  0  0
M  ISO  4   1 100  68 101  87 101  88 100
M  END
> <chiral flag>
0

> <version>
0

> <s_m_source_file>
/data/baiqing/PycharmProjects/Reinvent-master-3.2/result/LINK_invent/BTK/process_docking_weight1_custom_sum_contain_oxygen_bond_distance_aromatic_linkinvent_7_9_3/rearranged_h_0089.sdf

> <i_m_source_file_index>
87

> <r_mmod_Potential_Energy-OPLS-2005>
305.673797607422

> <r_mmod_Stretch_Energy-OPLS-2005>
143.430755615234

> <r_mmod_Bend_Energy-OPLS-2005>
223.49870300293

> <r_mmod_Torsional_Energy-OPLS-2005>
233.676498413086

> <r_mmod_Improper_Torsional_Energy-OPLS-2005>
3.34965133666992

> <r_mmod_Van_der_Waal_Energy-OPLS-2005>
142.193069458008

> <r_mmod_Electrostatic_Energy-OPLS-2005>
-338.467407226562

> <r_mmod_Solvation_Energy-OPLS-2005>
-179.795547485352

> <b_mmod_Minimization_Converged-OPLS-2005>
0

> <r_mmod_RMS_Derivative-OPLS-2005>
2.9690637588501

$$$$
89
                    3D
 Structure written by MMmdl.
175183  0  0  1  0            999 V2000
  -30.7368  -14.3548   20.6823 C   0  0  0  0  0  0
  -30.4227  -12.2663   19.4066 C   0  0  0  0  0  0
  -29.4952  -12.5303   18.2023 C   0  0  0  0  0  0
  -28.0137  -12.3922   18.6082 C   0  0  0  0  0  0
  -27.6703  -13.1861   19.8934 C   0  0  2  0  0  0
  -28.7048  -12.8970   21.0049 C   0  0  0  0  0  0
  -25.2572  -13.8031   20.5533 C   0  0  0  0  0  0
  -24.1830  -13.0364   20.9130 C   0  0  0  0  0  0
  -24.6360  -11.6844   20.8717 C   0  0  0  0  0  0
  -23.9000  -10.4263   21.0388 C   0  0  0  0  0  0
  -24.3576   -9.4200   21.9163 C   0  0  0  0  0  0
  -23.6266   -8.2236   22.0747 C   0  0  0  0  0  0
  -22.4260   -8.0264   21.3520 C   0  0  0  0  0  0
  -21.9856   -9.0224   20.4629 C   0  0  0  0  0  0
  -22.7168  -10.2114   20.3042 C   0  0  0  0  0  0
  -21.6857   -6.0722   22.5262 C   0  0  0  0  0  0
  -21.3992   -6.5633   23.8176 C   0  0  0  0  0  0
  -21.3657   -5.6804   24.9155 C   0  0  0  0  0  0
  -21.6061   -4.3067   24.7224 C   0  0  0  0  0  0
  -21.8833   -3.8150   23.4335 C   0  0  0  0  0  0
  -21.9186   -4.6949   22.3386 C   0  0  0  0  0  0
  -22.7878  -13.5205   21.1800 C   0  0  0  0  0  0
  -22.1669   -4.2128   21.0961 F   0  0  0  0  0  0
  -21.5651   -3.4550   25.7730 F   0  0  0  0  0  0
  -30.0564  -13.1964   20.4843 N   0  0  0  0  0  0
  -26.3047  -12.9203   20.3420 N   0  0  0  0  0  0
  -25.9298  -11.6386   20.5790 N   0  0  0  0  0  0
  -22.0519  -12.8240   22.0400 N   0  0  0  0  0  0
  -25.4173  -15.1681   20.3639 N   0  0  0  0  0  0
  -31.7647  -14.6648   20.0719 O   0  0  0  0  0  0
  -21.6650   -6.8856   21.4211 O   0  0  0  0  0  0
  -22.3578  -14.5490   20.6609 O   0  0  0  0  0  0
  -24.6089  -31.8712   23.2115 C   0  0  0  0  0  0
  -25.9025  -32.4836   23.8381 C   0  0  1  0  0  0
  -27.2594  -27.4946   20.1000 C   0  0  0  0  0  0
  -25.5925  -33.8631   24.2360 N   0  0  0  0  0  0
  -23.3947  -30.4911   21.5493 C   0  0  2  0  0  0
  -24.8493  -28.9547   20.1261 C   0  0  0  0  0  0
  -22.7379  -29.4662   22.5004 C   0  0  0  0  0  0
  -18.0270  -28.1376   22.8502 C   0  0  0  0  0  0
  -24.1490  -36.7295   23.2626 C   0  0  0  0  0  0
  -25.9160  -30.8550   21.3555 C   0  0  0  0  0  0
  -26.0009  -29.4893   20.7156 C   0  0  0  0  0  0
  -27.2082  -28.7660   20.7020 C   0  0  0  0  0  0
  -26.0947  -26.9524   19.5163 C   0  0  0  0  0  0
  -24.8883  -27.6824   19.5245 C   0  0  0  0  0  0
  -23.6072  -29.8154   20.1660 C   0  0  0  0  0  0
  -25.4110  -36.3110   24.0339 C   0  0  1  0  0  0
  -20.5860  -28.3650   23.1337 C   0  0  2  0  0  0
  -20.6759  -26.9388   22.5431 C   0  0  0  0  0  0
  -19.5749  -26.6395   21.5215 C   0  0  0  0  0  0
  -18.1925  -26.7924   22.1619 C   0  0  0  0  0  0
  -19.1519  -28.8833   23.2918 C   0  0  0  0  0  0
  -18.9444  -30.1440   23.8923 C   0  0  0  0  0  0
  -17.6448  -30.6581   24.0572 C   0  0  0  0  0  0
  -25.9034  -34.9478   23.5137 C   0  0  0  0  0  0
  -16.5340  -29.9093   23.6320 C   0  0  0  0  0  0
  -16.7261  -28.6512   23.0341 C   0  0  0  0  0  0
  -26.4502  -31.6586   25.0674 C   0  0  0  0  0  0
  -25.3809  -31.3659   26.1440 C   0  0  0  0  0  0
  -27.0295  -30.3033   24.5982 C   0  0  0  0  0  0
  -27.6118  -32.4265   25.7425 C   0  0  0  0  0  0
  -27.5584  -37.1796   24.8468 C   0  0  0  0  0  0
  -21.4119  -29.3011   22.3741 N   0  0  0  0  0  0
  -26.4292  -37.3808   23.9425 N   0  0  0  0  0  0
  -24.6564  -31.0865   22.0984 N   0  0  0  0  0  0
  -23.4184  -28.8219   23.3039 O   0  0  0  0  0  0
  -28.4714  -26.8567   20.0291 O   0  0  0  0  0  0
  -26.5572  -34.8926   22.4684 O   0  0  0  0  0  0
  -23.5290  -32.1450   23.7533 O   0  0  0  0  0  0
  -29.0308  -19.5528   20.1341 C   0  0  0  0  0  0
  -28.2115  -20.6892   20.3413 C   0  0  0  0  0  0
  -28.4438  -18.4811   20.7374 C   0  0  0  0  0  0
  -27.2102  -20.3125   21.1969 C   0  0  0  0  0  0
  -26.0701  -21.1208   21.7410 C   0  0  0  0  0  0
  -26.4540  -15.6096   25.2072 C   0  0  0  0  0  0
  -28.9377  -16.7046   19.0875 C   0  0  0  0  0  0
  -28.3945  -22.0130   19.6552 C   0  0  0  0  0  0
  -25.9097  -16.4596   24.0541 C   0  0  0  0  0  0
  -28.7787  -23.1537   20.5982 C   0  0  0  0  0  0
  -26.9699  -17.3773   23.4205 C   0  0  0  0  0  0
  -28.6556  -24.4944   19.8695 C   0  0  0  0  0  0
  -26.3837  -18.1442   22.2202 C   0  0  0  0  0  0
  -30.0867  -16.6477   21.3829 C   0  0  0  0  0  0
  -28.6178  -25.6899   20.8179 C   0  0  0  0  0  0
  -28.8161  -17.0386   20.5878 C   0  0  1  0  0  0
  -27.3415  -18.9488   21.4539 N   0  0  0  0  0  0
  -30.1323  -15.1967   21.5268 N   0  0  0  0  0  0
  -31.4687  -12.3632   19.1139 H   0  0  0  0  0  0
  -30.3109  -11.2349   19.7476 H   0  0  0  0  0  0
  -29.7218  -11.8361   17.3937 H   0  0  0  0  0  0
  -29.6840  -13.5298   17.8067 H   0  0  0  0  0  0
  -27.8057  -11.3329   18.7680 H   0  0  0  0  0  0
  -27.3708  -12.7147   17.7880 H   0  0  0  0  0  0
  -27.7240  -14.2438   19.6496 H   0  0  0  0  0  0
  -28.6668  -11.8439   21.2902 H   0  0  0  0  0  0
  -28.4456  -13.4397   21.9152 H   0  0  0  0  0  0
  -25.2727   -9.5716   22.4709 H   0  0  0  0  0  0
  -23.9987   -7.4660   22.7497 H   0  0  0  0  0  0
  -21.0771   -8.8702   19.8950 H   0  0  0  0  0  0
  -22.3580  -10.9628   19.6150 H   0  0  0  0  0  0
  -21.1978   -7.6144   23.9654 H   0  0  0  0  0  0
  -21.1482   -6.0553   25.9049 H   0  0  0  0  0  0
  -22.0625   -2.7609   23.2841 H   0  0  0  0  0  0
  -22.4159  -11.9955   22.4862 H   0  0  0  0  0  0
  -21.1111  -13.1244   22.2519 H   0  0  0  0  0  0
  -24.6020  -15.7653   20.2923 H   0  0  0  0  0  0
  -26.2512  -15.5888   19.9803 H   0  0  0  0  0  0
  -26.7091  -32.5621   23.1146 H   0  0  0  0  0  0
  -25.0164  -33.9807   25.0560 H   0  0  0  0  0  0
  -22.6796  -31.3047   21.4079 H   0  0  0  0  0  0
  -23.3750  -35.9623   23.3308 H   0  0  0  0  0  0
  -24.3561  -36.8880   22.2025 H   0  0  0  0  0  0
  -23.7223  -37.6508   23.6611 H   0  0  0  0  0  0
  -26.0185  -31.6176   20.5810 H   0  0  0  0  0  0
  -26.8055  -30.9161   21.9718 H   0  0  0  0  0  0
  -28.1043  -29.1839   21.1388 H   0  0  0  0  0  0
  -26.1232  -25.9871   19.0308 H   0  0  0  0  0  0
  -24.0052  -27.2661   19.0609 H   0  0  0  0  0  0
  -23.7167  -30.5884   19.4032 H   0  0  0  0  0  0
  -22.7323  -29.2337   19.8689 H   0  0  0  0  0  0
  -25.1276  -36.1965   25.0824 H   0  0  0  0  0  0
  -20.9968  -28.3216   24.1448 H   0  0  0  0  0  0
  -20.5663  -26.2244   23.3609 H   0  0  0  0  0  0
  -21.6628  -26.7437   22.1219 H   0  0  0  0  0  0
  -19.6893  -25.6321   21.1220 H   0  0  0  0  0  0
  -19.6679  -27.3224   20.6766 H   0  0  0  0  0  0
  -17.4193  -26.6699   21.4014 H   0  0  0  0  0  0
  -18.0298  -26.0055   22.9001 H   0  0  0  0  0  0
  -19.7920  -30.7265   24.2285 H   0  0  0  0  0  0
  -17.4999  -31.6259   24.5176 H   0  0  0  0  0  0
  -15.5339  -30.3002   23.7616 H   0  0  0  0  0  0
  -15.8665  -28.0842   22.7022 H   0  0  0  0  0  0
  -24.6063  -30.6899   25.7816 H   0  0  0  0  0  0
  -24.8903  -32.2782   26.4843 H   0  0  0  0  0  0
  -25.8224  -30.8921   27.0218 H   0  0  0  0  0  0
  -26.2795  -29.6822   24.1068 H   0  0  0  0  0  0
  -27.4123  -29.7237   25.4394 H   0  0  0  0  0  0
  -27.8624  -30.4360   23.9064 H   0  0  0  0  0  0
  -27.2810  -33.3587   26.2019 H   0  0  0  0  0  0
  -28.3936  -32.6765   25.0244 H   0  0  0  0  0  0
  -28.0779  -31.8352   26.5323 H   0  0  0  0  0  0
  -28.2614  -38.0088   24.7525 H   0  0  0  0  0  0
  -28.1069  -36.2613   24.6289 H   0  0  0  0  0  0
  -27.2298  -37.1452   25.8875 H   0  0  0  0  0  0
  -20.9265  -29.8706   21.6947 H   0  0  0  0  0  0
  -26.0175  -38.2880   24.1460 H   0  0  0  0  0  0
  -29.9070  -19.4966   19.5031 H   0  0  0  0  0  0
  -26.0940  -22.1462   21.3756 H   0  0  0  0  0  0
  -26.1023  -21.1594   22.8300 H   0  0  0  0  0  0
  -25.1088  -20.7084   21.4342 H   0  0  0  0  0  0
  -25.6521  -15.0205   25.6564 H   0  0  0  0  0  0
  -26.8903  -16.2307   25.9919 H   0  0  0  0  0  0
  -27.2200  -14.9139   24.8604 H   0  0  0  0  0  0
  -28.0024  -16.9183   18.5700 H   0  0  0  0  0  0
  -29.1814  -15.6645   18.8970 H   0  0  0  0  0  0
  -29.7190  -17.2915   18.6073 H   0  0  0  0  0  0
  -27.4582  -22.2391   19.1422 H   0  0  0  0  0  0
  -29.1496  -21.9083   18.8747 H   0  0  0  0  0  0
  -25.0752  -17.0632   24.4133 H   0  0  0  0  0  0
  -25.4975  -15.7973   23.2902 H   0  0  0  0  0  0
  -29.7933  -23.0122   20.9756 H   0  0  0  0  0  0
  -28.1236  -23.1538   21.4682 H   0  0  0  0  0  0
  -27.8229  -16.7727   23.1256 H   0  0  0  0  0  0
  -27.3405  -18.0866   24.1611 H   0  0  0  0  0  0
  -27.7437  -24.5007   19.2760 H   0  0  0  0  0  0
  -29.4743  -24.6064   19.1584 H   0  0  0  0  0  0
  -25.5786  -18.7736   22.5947 H   0  0  0  0  0  0
  -25.9046  -17.4598   21.5240 H   0  0  0  0  0  0
  -30.0555  -17.0715   22.3872 H   0  0  0  0  0  0
  -30.9862  -17.0435   20.9089 H   0  0  0  0  0  0
  -29.5601  -25.7576   21.3652 H   0  0  0  0  0  0
  -27.8297  -25.5893   21.5654 H   0  0  0  0  0  0
  -27.9929  -16.4315   20.9589 H   0  0  0  0  0  0
  -29.3836  -14.7918   22.0679 H   0  0  0  0  0  0
  1 25  1  0  0  0
  1 30  2  0  0  0
  1 88  1  0  0  0
  2  3  1  0  0  0
  2 25  1  0  0  0
  2 89  1  0  0  0
  2 90  1  0  0  0
  3  4  1  0  0  0
  3 91  1  0  0  0
  3 92  1  0  0  0
  4  5  1  0  0  0
  4 93  1  0  0  0
  4 94  1  0  0  0
  5  6  1  0  0  0
  5 26  1  0  0  0
  5 95  1  0  0  0
  6 25  1  0  0  0
  6 96  1  0  0  0
  6 97  1  0  0  0
  7  8  2  0  0  0
  7 26  1  0  0  0
  7 29  1  0  0  0
  8  9  1  0  0  0
  8 22  1  0  0  0
  9 10  1  0  0  0
  9 27  2  0  0  0
 10 11  2  0  0  0
 10 15  1  0  0  0
 11 12  1  0  0  0
 11 98  1  0  0  0
 12 13  2  0  0  0
 12 99  1  0  0  0
 13 14  1  0  0  0
 13 31  1  0  0  0
 14 15  2  0  0  0
 14100  1  0  0  0
 15101  1  0  0  0
 16 17  2  0  0  0
 16 21  1  0  0  0
 16 31  1  0  0  0
 17 18  1  0  0  0
 17102  1  0  0  0
 18 19  2  0  0  0
 18103  1  0  0  0
 19 20  1  0  0  0
 19 24  1  0  0  0
 20 21  2  0  0  0
 20104  1  0  0  0
 21 23  1  0  0  0
 22 28  1  0  0  0
 22 32  2  0  0  0
 26 27  1  0  0  0
 28105  1  0  0  0
 28106  1  0  0  0
 29107  1  0  0  0
 29108  1  0  0  0
 33 34  1  0  0  0
 33 66  1  0  0  0
 33 70  2  0  0  0
 34 36  1  0  0  0
 34 59  1  0  0  0
 34109  1  0  0  0
 35 44  2  0  0  0
 35 45  1  0  0  0
 35 68  1  0  0  0
 36 56  1  0  0  0
 36110  1  0  0  0
 37 39  1  0  0  0
 37 47  1  0  0  0
 37 66  1  0  0  0
 37111  1  0  0  0
 38 43  2  0  0  0
 38 46  1  0  0  0
 38 47  1  0  0  0
 39 64  1  0  0  0
 39 67  2  0  0  0
 40 52  1  0  0  0
 40 53  2  0  0  0
 40 58  1  0  0  0
 41112  1  0  0  0
 41113  1  0  0  0
 41114  1  0  0  0
 41 48  1  0  0  0
 42 43  1  0  0  0
 42 66  1  0  0  0
 42115  1  0  0  0
 42116  1  0  0  0
 43 44  1  0  0  0
 44117  1  0  0  0
 45 46  2  0  0  0
 45118  1  0  0  0
 46119  1  0  0  0
 47120  1  0  0  0
 47121  1  0  0  0
 48 56  1  0  0  0
 48 65  1  0  0  0
 48122  1  0  0  0
 49 50  1  0  0  0
 49 53  1  0  0  0
 49 64  1  0  0  0
 49123  1  0  0  0
 50 51  1  0  0  0
 50124  1  0  0  0
 50125  1  0  0  0
 51 52  1  0  0  0
 51126  1  0  0  0
 51127  1  0  0  0
 52128  1  0  0  0
 52129  1  0  0  0
 53 54  1  0  0  0
 54 55  2  0  0  0
 54130  1  0  0  0
 55 57  1  0  0  0
 55131  1  0  0  0
 56 69  2  0  0  0
 57 58  2  0  0  0
 57132  1  0  0  0
 58133  1  0  0  0
 59 60  1  0  0  0
 59 61  1  0  0  0
 59 62  1  0  0  0
 60134  1  0  0  0
 60135  1  0  0  0
 60136  1  0  0  0
 61137  1  0  0  0
 61138  1  0  0  0
 61139  1  0  0  0
 62140  1  0  0  0
 62141  1  0  0  0
 62142  1  0  0  0
 63 65  1  0  0  0
 63143  1  0  0  0
 63144  1  0  0  0
 63145  1  0  0  0
 64146  1  0  0  0
 65147  1  0  0  0
 68 85  1  0  0  0
 71 72  1  0  0  0
 71 73  2  0  0  0
 71148  1  0  0  0
 72 74  2  0  0  0
 72 78  1  0  0  0
 73 86  1  0  0  0
 73 87  1  0  0  0
 74 75  1  0  0  0
 74 87  1  0  0  0
 75149  1  0  0  0
 75150  1  0  0  0
 75151  1  0  0  0
 76 79  1  0  0  0
 76152  1  0  0  0
 76153  1  0  0  0
 76154  1  0  0  0
 77155  1  0  0  0
 77156  1  0  0  0
 77157  1  0  0  0
 77 86  1  0  0  0
 78 80  1  0  0  0
 78158  1  0  0  0
 78159  1  0  0  0
 79 81  1  0  0  0
 79160  1  0  0  0
 79161  1  0  0  0
 80 82  1  0  0  0
 80162  1  0  0  0
 80163  1  0  0  0
 81 83  1  0  0  0
 81164  1  0  0  0
 81165  1  0  0  0
 82 85  1  0  0  0
 82166  1  0  0  0
 82167  1  0  0  0
 83 87  1  0  0  0
 83168  1  0  0  0
 83169  1  0  0  0
 84 86  1  0  0  0
 84 88  1  0  0  0
 84170  1  0  0  0
 84171  1  0  0  0
 85172  1  0  0  0
 85173  1  0  0  0
 86174  1  0  0  0
 88175  1  0  0  0
M  ISO  4   1 100  68 101  85 101  88 100
M  END
> <chiral flag>
0

> <version>
0

> <s_m_source_file>
/data/baiqing/PycharmProjects/Reinvent-master-3.2/result/LINK_invent/BTK/process_docking_weight1_custom_sum_contain_oxygen_bond_distance_aromatic_linkinvent_7_9_3/rearranged_h_0089.sdf

> <i_m_source_file_index>
88

> <r_mmod_Potential_Energy-OPLS-2005>
-103.635185241699

> <r_mmod_Stretch_Energy-OPLS-2005>
31.4297256469727

> <r_mmod_Bend_Energy-OPLS-2005>
98.8503646850586

> <r_mmod_Torsional_Energy-OPLS-2005>
263.893127441406

> <r_mmod_Improper_Torsional_Energy-OPLS-2005>
6.84508323669434

> <r_mmod_Van_der_Waal_Energy-OPLS-2005>
117.971382141113

> <r_mmod_Electrostatic_Energy-OPLS-2005>
-434.880523681641

> <r_mmod_Solvation_Energy-OPLS-2005>
-196.1435546875

> <b_mmod_Minimization_Converged-OPLS-2005>
0

> <r_mmod_RMS_Derivative-OPLS-2005>
3.44088768959045

$$$$
90
                    3D
 Structure written by MMmdl.
164172  0  0  1  0            999 V2000
  -30.7231  -14.5157   20.5343 C   0  0  0  0  0  0
  -30.4169  -12.3266   19.4284 C   0  0  0  0  0  0
  -29.4922  -12.4902   18.2053 C   0  0  0  0  0  0
  -28.0151  -12.3484   18.6253 C   0  0  0  0  0  0
  -27.6551  -13.2167   19.8617 C   0  0  2  0  0  0
  -28.7033  -13.0509   20.9851 C   0  0  0  0  0  0
  -25.2570  -13.8178   20.5682 C   0  0  0  0  0  0
  -24.1816  -13.0427   20.9190 C   0  0  0  0  0  0
  -24.6375  -11.6912   20.8716 C   0  0  0  0  0  0
  -23.9024  -10.4287   21.0377 C   0  0  0  0  0  0
  -24.3583   -9.4218   21.9168 C   0  0  0  0  0  0
  -23.6278   -8.2243   22.0732 C   0  0  0  0  0  0
  -22.4271   -8.0247   21.3526 C   0  0  0  0  0  0
  -21.9884   -9.0209   20.4633 C   0  0  0  0  0  0
  -22.7183  -10.2107   20.3044 C   0  0  0  0  0  0
  -21.6860   -6.0710   22.5266 C   0  0  0  0  0  0
  -21.4019   -6.5629   23.8196 C   0  0  0  0  0  0
  -21.3663   -5.6785   24.9170 C   0  0  0  0  0  0
  -21.6059   -4.3048   24.7225 C   0  0  0  0  0  0
  -21.8822   -3.8128   23.4354 C   0  0  0  0  0  0
  -21.9202   -4.6938   22.3407 C   0  0  0  0  0  0
  -22.7847  -13.5226   21.1872 C   0  0  0  0  0  0
  -22.1674   -4.2123   21.0984 F   0  0  0  0  0  0
  -21.5634   -3.4534   25.7742 F   0  0  0  0  0  0
  -30.0266  -13.3489   20.4154 N   0  0  0  0  0  0
  -26.2995  -12.9353   20.3331 N   0  0  0  0  0  0
  -25.9307  -11.6513   20.5761 N   0  0  0  0  0  0
  -22.0485  -12.8189   22.0416 N   0  0  0  0  0  0
  -25.4337  -15.1863   20.4086 N   0  0  0  0  0  0
  -31.8672  -14.6203   20.0942 O   0  0  0  0  0  0
  -21.6651   -6.8836   21.4218 O   0  0  0  0  0  0
  -22.3516  -14.5528   20.6723 O   0  0  0  0  0  0
  -24.6158  -31.8656   23.2081 C   0  0  0  0  0  0
  -25.9008  -32.4832   23.8413 C   0  0  1  0  0  0
  -27.2353  -27.3899   20.0937 C   0  0  0  0  0  0
  -25.5830  -33.8633   24.2342 N   0  0  0  0  0  0
  -23.4079  -30.4834   21.5547 C   0  0  2  0  0  0
  -24.8502  -28.9385   20.1201 C   0  0  0  0  0  0
  -22.7441  -29.4626   22.5053 C   0  0  0  0  0  0
  -18.0304  -28.1354   22.8499 C   0  0  0  0  0  0
  -24.1459  -36.7324   23.2648 C   0  0  0  0  0  0
  -25.9383  -30.8128   21.3666 C   0  0  0  0  0  0
  -26.0107  -29.4420   20.7169 C   0  0  0  0  0  0
  -27.2007  -28.6727   20.7016 C   0  0  0  0  0  0
  -26.0512  -26.9077   19.4915 C   0  0  0  0  0  0
  -24.8663  -27.6720   19.5063 C   0  0  0  0  0  0
  -23.6165  -29.8149   20.1688 C   0  0  0  0  0  0
  -25.4082  -36.3144   24.0354 C   0  0  1  0  0  0
  -20.5879  -28.3656   23.1324 C   0  0  2  0  0  0
  -20.6758  -26.9388   22.5444 C   0  0  0  0  0  0
  -19.5774  -26.6383   21.5195 C   0  0  0  0  0  0
  -18.1941  -26.7924   22.1563 C   0  0  0  0  0  0
  -19.1539  -28.8828   23.2908 C   0  0  0  0  0  0
  -18.9444  -30.1437   23.8908 C   0  0  0  0  0  0
  -17.6438  -30.6556   24.0570 C   0  0  0  0  0  0
  -25.9011  -34.9495   23.5168 C   0  0  0  0  0  0
  -16.5344  -29.9045   23.6309 C   0  0  0  0  0  0
  -16.7291  -28.6479   23.0344 C   0  0  0  0  0  0
  -26.4425  -31.6612   25.0753 C   0  0  0  0  0  0
  -25.3712  -31.3662   26.1521 C   0  0  0  0  0  0
  -27.0243  -30.3065   24.6096 C   0  0  0  0  0  0
  -27.6020  -32.4339   25.7490 C   0  0  0  0  0  0
  -27.5584  -37.1819   24.8481 C   0  0  0  0  0  0
  -21.4170  -29.3019   22.3749 N   0  0  0  0  0  0
  -26.4296  -37.3815   23.9420 N   0  0  0  0  0  0
  -24.6736  -31.0690   22.1021 N   0  0  0  0  0  0
  -23.4185  -28.8179   23.3120 O   0  0  0  0  0  0
  -28.4207  -26.6679   20.1282 O   0  0  0  0  0  0
  -26.5623  -34.8943   22.4766 O   0  0  0  0  0  0
  -23.5331  -32.1411   23.7444 O   0  0  0  0  0  0
  -29.5731  -19.2821   20.4855 C   0  0  0  0  0  0
  -27.3840  -20.0423   21.1332 C   0  0  0  0  0  0
  -28.5862  -20.3050   20.4620 C   0  0  0  0  0  0
  -29.3679  -18.0801   21.2360 C   0  0  0  0  0  0
  -28.1313  -17.9805   21.9327 C   0  0  0  0  0  0
  -26.8328  -17.1018   23.9926 C   0  0  0  0  0  0
  -31.8384  -17.4077   20.7929 C   0  0  0  0  0  0
  -28.7419  -21.6358   19.6910 C   0  0  0  0  0  0
  -27.7751  -16.7839   22.8198 C   0  0  0  0  0  0
  -29.0985  -22.8994   20.5460 C   0  0  0  0  0  0
  -28.1444  -24.1529   20.4917 C   0  0  0  0  0  0
  -28.5532  -25.3405   19.5590 C   0  0  0  0  0  0
  -30.4704  -16.9741   21.3727 C   0  0  2  0  0  0
  -27.1570  -18.9115   21.8286 N   0  0  0  0  0  0
  -30.0398  -15.5781   21.0350 N   0  0  0  0  0  0
  -31.4634  -12.4072   19.1261 H   0  0  0  0  0  0
  -30.3099  -11.3323   19.8625 H   0  0  0  0  0  0
  -29.7341  -11.7414   17.4495 H   0  0  0  0  0  0
  -29.6555  -13.4630   17.7395 H   0  0  0  0  0  0
  -27.8408  -11.2964   18.8523 H   0  0  0  0  0  0
  -27.3555  -12.5884   17.7892 H   0  0  0  0  0  0
  -27.6799  -14.2546   19.5288 H   0  0  0  0  0  0
  -28.6920  -12.0289   21.3696 H   0  0  0  0  0  0
  -28.4711  -13.6902   21.8364 H   0  0  0  0  0  0
  -25.2708   -9.5719   22.4761 H   0  0  0  0  0  0
  -23.9989   -7.4653   22.7469 H   0  0  0  0  0  0
  -21.0814   -8.8705   19.8954 H   0  0  0  0  0  0
  -22.3600  -10.9636   19.6176 H   0  0  0  0  0  0
  -21.2001   -7.6133   23.9692 H   0  0  0  0  0  0
  -21.1498   -6.0524   25.9074 H   0  0  0  0  0  0
  -22.0601   -2.7580   23.2870 H   0  0  0  0  0  0
  -22.4070  -11.9810   22.4756 H   0  0  0  0  0  0
  -21.1125  -13.1236   22.2689 H   0  0  0  0  0  0
  -24.6794  -15.8522   20.5453 H   0  0  0  0  0  0
  -26.2853  -15.6178   20.0703 H   0  0  0  0  0  0
  -26.7094  -32.5519   23.1191 H   0  0  0  0  0  0
  -24.9933  -33.9802   25.0454 H   0  0  0  0  0  0
  -22.6968  -31.2991   21.4156 H   0  0  0  0  0  0
  -23.3734  -35.9651   23.3335 H   0  0  0  0  0  0
  -24.3544  -36.8908   22.2060 H   0  0  0  0  0  0
  -23.7188  -37.6524   23.6642 H   0  0  0  0  0  0
  -26.0536  -31.5678   20.5874 H   0  0  0  0  0  0
  -26.8266  -30.8723   21.9848 H   0  0  0  0  0  0
  -28.0987  -29.0562   21.1682 H   0  0  0  0  0  0
  -26.0249  -25.9404   19.0116 H   0  0  0  0  0  0
  -23.9717  -27.2775   19.0431 H   0  0  0  0  0  0
  -23.7380  -30.5871   19.4073 H   0  0  0  0  0  0
  -22.7346  -29.2448   19.8722 H   0  0  0  0  0  0
  -25.1254  -36.2050   25.0850 H   0  0  0  0  0  0
  -20.9945  -28.3182   24.1461 H   0  0  0  0  0  0
  -20.5584  -26.2309   23.3666 H   0  0  0  0  0  0
  -21.6648  -26.7362   22.1291 H   0  0  0  0  0  0
  -19.6918  -25.6297   21.1198 H   0  0  0  0  0  0
  -19.6743  -27.3213   20.6741 H   0  0  0  0  0  0
  -17.4257  -26.6729   21.3908 H   0  0  0  0  0  0
  -18.0263  -25.9995   22.8862 H   0  0  0  0  0  0
  -19.7938  -30.7235   24.2271 H   0  0  0  0  0  0
  -17.4936  -31.6219   24.5205 H   0  0  0  0  0  0
  -15.5300  -30.2929   23.7559 H   0  0  0  0  0  0
  -15.8712  -28.0802   22.7005 H   0  0  0  0  0  0
  -24.5899  -30.6984   25.7864 H   0  0  0  0  0  0
  -24.8863  -32.2768   26.5042 H   0  0  0  0  0  0
  -25.8085  -30.8800   27.0252 H   0  0  0  0  0  0
  -26.2759  -29.6870   24.1133 H   0  0  0  0  0  0
  -27.4009  -29.7252   25.4522 H   0  0  0  0  0  0
  -27.8608  -30.4411   23.9237 H   0  0  0  0  0  0
  -27.2654  -33.3644   26.2076 H   0  0  0  0  0  0
  -28.3784  -32.6892   25.0270 H   0  0  0  0  0  0
  -28.0742  -31.8471   26.5378 H   0  0  0  0  0  0
  -28.2636  -38.0089   24.7519 H   0  0  0  0  0  0
  -28.1049  -36.2624   24.6320 H   0  0  0  0  0  0
  -27.2316  -37.1501   25.8893 H   0  0  0  0  0  0
  -20.9374  -29.8710   21.6918 H   0  0  0  0  0  0
  -26.0204  -38.2914   24.1386 H   0  0  0  0  0  0
  -30.4811  -19.4342   19.9227 H   0  0  0  0  0  0
  -26.5792  -20.7617   21.1015 H   0  0  0  0  0  0
  -25.8367  -17.3531   23.6247 H   0  0  0  0  0  0
  -27.2012  -17.9331   24.5962 H   0  0  0  0  0  0
  -26.7256  -16.2355   24.6454 H   0  0  0  0  0  0
  -32.1394  -18.3777   21.1859 H   0  0  0  0  0  0
  -31.8324  -17.4727   19.7053 H   0  0  0  0  0  0
  -32.6401  -16.7300   21.0846 H   0  0  0  0  0  0
  -27.8164  -21.8176   19.1449 H   0  0  0  0  0  0
  -29.5019  -21.4933   18.9230 H   0  0  0  0  0  0
  -27.3392  -15.9948   22.2125 H   0  0  0  0  0  0
  -28.6824  -16.3683   23.2550 H   0  0  0  0  0  0
  -29.1590  -22.5840   21.5884 H   0  0  0  0  0  0
  -30.1214  -23.2086   20.3216 H   0  0  0  0  0  0
  -28.1068  -24.5565   21.5042 H   0  0  0  0  0  0
  -27.1211  -23.8452   20.2791 H   0  0  0  0  0  0
  -28.0838  -25.2629   18.5775 H   0  0  0  0  0  0
  -29.6191  -25.2516   19.3561 H   0  0  0  0  0  0
  -30.6632  -16.9314   22.4463 H   0  0  0  0  0  0
  -29.0927  -15.3463   21.2827 H   0  0  0  0  0  0
  1 25  1  0  0  0
  1 30  2  0  0  0
  1 85  1  0  0  0
  2  3  1  0  0  0
  2 25  1  0  0  0
  2 86  1  0  0  0
  2 87  1  0  0  0
  3  4  1  0  0  0
  3 88  1  0  0  0
  3 89  1  0  0  0
  4  5  1  0  0  0
  4 90  1  0  0  0
  4 91  1  0  0  0
  5  6  1  0  0  0
  5 26  1  0  0  0
  5 92  1  0  0  0
  6 25  1  0  0  0
  6 93  1  0  0  0
  6 94  1  0  0  0
  7  8  2  0  0  0
  7 26  1  0  0  0
  7 29  1  0  0  0
  8  9  1  0  0  0
  8 22  1  0  0  0
  9 10  1  0  0  0
  9 27  2  0  0  0
 10 11  2  0  0  0
 10 15  1  0  0  0
 11 12  1  0  0  0
 11 95  1  0  0  0
 12 13  2  0  0  0
 12 96  1  0  0  0
 13 14  1  0  0  0
 13 31  1  0  0  0
 14 15  2  0  0  0
 14 97  1  0  0  0
 15 98  1  0  0  0
 16 17  2  0  0  0
 16 21  1  0  0  0
 16 31  1  0  0  0
 17 18  1  0  0  0
 17 99  1  0  0  0
 18 19  2  0  0  0
 18100  1  0  0  0
 19 20  1  0  0  0
 19 24  1  0  0  0
 20 21  2  0  0  0
 20101  1  0  0  0
 21 23  1  0  0  0
 22 28  1  0  0  0
 22 32  2  0  0  0
 26 27  1  0  0  0
 28102  1  0  0  0
 28103  1  0  0  0
 29104  1  0  0  0
 29105  1  0  0  0
 33 34  1  0  0  0
 33 66  1  0  0  0
 33 70  2  0  0  0
 34 36  1  0  0  0
 34 59  1  0  0  0
 34106  1  0  0  0
 35 44  2  0  0  0
 35 45  1  0  0  0
 35 68  1  0  0  0
 36 56  1  0  0  0
 36107  1  0  0  0
 37 39  1  0  0  0
 37 47  1  0  0  0
 37 66  1  0  0  0
 37108  1  0  0  0
 38 43  2  0  0  0
 38 46  1  0  0  0
 38 47  1  0  0  0
 39 64  1  0  0  0
 39 67  2  0  0  0
 40 52  1  0  0  0
 40 53  2  0  0  0
 40 58  1  0  0  0
 41109  1  0  0  0
 41110  1  0  0  0
 41111  1  0  0  0
 41 48  1  0  0  0
 42 43  1  0  0  0
 42 66  1  0  0  0
 42112  1  0  0  0
 42113  1  0  0  0
 43 44  1  0  0  0
 44114  1  0  0  0
 45 46  2  0  0  0
 45115  1  0  0  0
 46116  1  0  0  0
 47117  1  0  0  0
 47118  1  0  0  0
 48 56  1  0  0  0
 48 65  1  0  0  0
 48119  1  0  0  0
 49 50  1  0  0  0
 49 53  1  0  0  0
 49 64  1  0  0  0
 49120  1  0  0  0
 50 51  1  0  0  0
 50121  1  0  0  0
 50122  1  0  0  0
 51 52  1  0  0  0
 51123  1  0  0  0
 51124  1  0  0  0
 52125  1  0  0  0
 52126  1  0  0  0
 53 54  1  0  0  0
 54 55  2  0  0  0
 54127  1  0  0  0
 55 57  1  0  0  0
 55128  1  0  0  0
 56 69  2  0  0  0
 57 58  2  0  0  0
 57129  1  0  0  0
 58130  1  0  0  0
 59 60  1  0  0  0
 59 61  1  0  0  0
 59 62  1  0  0  0
 60131  1  0  0  0
 60132  1  0  0  0
 60133  1  0  0  0
 61134  1  0  0  0
 61135  1  0  0  0
 61136  1  0  0  0
 62137  1  0  0  0
 62138  1  0  0  0
 62139  1  0  0  0
 63 65  1  0  0  0
 63140  1  0  0  0
 63141  1  0  0  0
 63142  1  0  0  0
 64143  1  0  0  0
 65144  1  0  0  0
 68 82  1  0  0  0
 71 73  2  0  0  0
 71 74  1  0  0  0
 71145  1  0  0  0
 72 73  1  0  0  0
 72 84  2  0  0  0
 72146  1  0  0  0
 73 78  1  0  0  0
 74 75  2  0  0  0
 74 83  1  0  0  0
 75 79  1  0  0  0
 75 84  1  0  0  0
 76 79  1  0  0  0
 76147  1  0  0  0
 76148  1  0  0  0
 76149  1  0  0  0
 77150  1  0  0  0
 77151  1  0  0  0
 77152  1  0  0  0
 77 83  1  0  0  0
 78 80  1  0  0  0
 78153  1  0  0  0
 78154  1  0  0  0
 79155  1  0  0  0
 79156  1  0  0  0
 80 81  1  0  0  0
 80157  1  0  0  0
 80158  1  0  0  0
 81 82  1  0  0  0
 81159  1  0  0  0
 81160  1  0  0  0
 82161  1  0  0  0
 82162  1  0  0  0
 83 85  1  0  0  0
 83163  1  0  0  0
 85164  1  0  0  0
M  ISO  4   1 100  68 101  82 101  85 100
M  END
> <chiral flag>
0

> <version>
0

> <s_m_source_file>
/data/baiqing/PycharmProjects/Reinvent-master-3.2/result/LINK_invent/BTK/process_docking_weight1_custom_sum_contain_oxygen_bond_distance_aromatic_linkinvent_7_9_3/rearranged_h_0089.sdf

> <i_m_source_file_index>
89

> <r_mmod_Potential_Energy-OPLS-2005>
-105.682403564453

> <r_mmod_Stretch_Energy-OPLS-2005>
55.9502754211426

> <r_mmod_Bend_Energy-OPLS-2005>
137.583694458008

> <r_mmod_Torsional_Energy-OPLS-2005>
218.202117919922

> <r_mmod_Improper_Torsional_Energy-OPLS-2005>
3.15413236618042

> <r_mmod_Van_der_Waal_Energy-OPLS-2005>
153.338806152344

> <r_mmod_Electrostatic_Energy-OPLS-2005>
-487.188751220703

> <r_mmod_Solvation_Energy-OPLS-2005>
-208.154724121094

> <b_mmod_Minimization_Converged-OPLS-2005>
0

> <r_mmod_RMS_Derivative-OPLS-2005>
4.13783693313599

$$$$
91
                    3D
 Structure written by MMmdl.
168176  0  0  1  0            999 V2000
  -30.6072  -14.7197   20.4249 C   0  0  0  0  0  0
  -30.4362  -12.4188   19.4832 C   0  0  0  0  0  0
  -29.5164  -12.4843   18.2442 C   0  0  0  0  0  0
  -28.0400  -12.3186   18.6529 C   0  0  0  0  0  0
  -27.6443  -13.2272   19.8463 C   0  0  2  0  0  0
  -28.6843  -13.1554   20.9815 C   0  0  0  0  0  0
  -25.2556  -13.8187   20.5718 C   0  0  0  0  0  0
  -24.1813  -13.0437   20.9175 C   0  0  0  0  0  0
  -24.6390  -11.6919   20.8733 C   0  0  0  0  0  0
  -23.9057  -10.4296   21.0408 C   0  0  0  0  0  0
  -24.3606   -9.4213   21.9182 C   0  0  0  0  0  0
  -23.6284   -8.2249   22.0755 C   0  0  0  0  0  0
  -22.4272   -8.0284   21.3543 C   0  0  0  0  0  0
  -21.9906   -9.0256   20.4641 C   0  0  0  0  0  0
  -22.7232  -10.2137   20.3053 C   0  0  0  0  0  0
  -21.6859   -6.0737   22.5274 C   0  0  0  0  0  0
  -21.4011   -6.5638   23.8204 C   0  0  0  0  0  0
  -21.3657   -5.6792   24.9168 C   0  0  0  0  0  0
  -21.6041   -4.3051   24.7224 C   0  0  0  0  0  0
  -21.8829   -3.8148   23.4342 C   0  0  0  0  0  0
  -21.9196   -4.6967   22.3403 C   0  0  0  0  0  0
  -22.7839  -13.5233   21.1844 C   0  0  0  0  0  0
  -22.1666   -4.2153   21.0985 F   0  0  0  0  0  0
  -21.5630   -3.4540   25.7736 F   0  0  0  0  0  0
  -29.9999  -13.4837   20.4173 N   0  0  0  0  0  0
  -26.2956  -12.9373   20.3251 N   0  0  0  0  0  0
  -25.9308  -11.6523   20.5708 N   0  0  0  0  0  0
  -22.0484  -12.8221   22.0394 N   0  0  0  0  0  0
  -25.4345  -15.1890   20.4292 N   0  0  0  0  0  0
  -31.8059  -14.7610   20.1444 O   0  0  0  0  0  0
  -21.6638   -6.8884   21.4235 O   0  0  0  0  0  0
  -22.3517  -14.5546   20.6709 O   0  0  0  0  0  0
  -24.6273  -31.8530   23.1970 C   0  0  0  0  0  0
  -25.9117  -32.4712   23.8310 C   0  0  1  0  0  0
  -27.2297  -27.2815   20.1352 C   0  0  0  0  0  0
  -25.5947  -33.8515   24.2227 N   0  0  0  0  0  0
  -23.4252  -30.4689   21.5381 C   0  0  2  0  0  0
  -24.8749  -28.9113   20.1137 C   0  0  0  0  0  0
  -22.7494  -29.4541   22.4911 C   0  0  0  0  0  0
  -18.0258  -28.1357   22.8424 C   0  0  0  0  0  0
  -24.1515  -36.7289   23.2638 C   0  0  0  0  0  0
  -25.9651  -30.7750   21.3706 C   0  0  0  0  0  0
  -26.0445  -29.3954   20.7164 C   0  0  0  0  0  0
  -27.2282  -28.5961   20.7084 C   0  0  0  0  0  0
  -26.0402  -26.8472   19.5190 C   0  0  0  0  0  0
  -24.8755  -27.6422   19.5073 C   0  0  0  0  0  0
  -23.6439  -29.7949   20.1566 C   0  0  0  0  0  0
  -25.4134  -36.3023   24.0300 C   0  0  1  0  0  0
  -20.5860  -28.3649   23.1250 C   0  0  2  0  0  0
  -20.6746  -26.9367   22.5385 C   0  0  0  0  0  0
  -19.5741  -26.6346   21.5160 C   0  0  0  0  0  0
  -18.1913  -26.7884   22.1575 C   0  0  0  0  0  0
  -19.1514  -28.8820   23.2819 C   0  0  0  0  0  0
  -18.9460  -30.1417   23.8839 C   0  0  0  0  0  0
  -17.6474  -30.6560   24.0527 C   0  0  0  0  0  0
  -25.9070  -34.9397   23.5055 C   0  0  0  0  0  0
  -16.5355  -29.9049   23.6330 C   0  0  0  0  0  0
  -16.7254  -28.6475   23.0320 C   0  0  0  0  0  0
  -26.4504  -31.6550   25.0701 C   0  0  0  0  0  0
  -25.3738  -31.3713   26.1433 C   0  0  0  0  0  0
  -27.0365  -30.2977   24.6179 C   0  0  0  0  0  0
  -27.6044  -32.4308   25.7475 C   0  0  0  0  0  0
  -27.5581  -37.1786   24.8445 C   0  0  0  0  0  0
  -21.4196  -29.3006   22.3682 N   0  0  0  0  0  0
  -26.4292  -37.3726   23.9397 N   0  0  0  0  0  0
  -24.6903  -31.0522   22.0914 N   0  0  0  0  0  0
  -23.4217  -28.8075   23.2986 O   0  0  0  0  0  0
  -28.3589  -26.4453   20.1083 O   0  0  0  0  0  0
  -26.5651  -34.8887   22.4628 O   0  0  0  0  0  0
  -23.5444  -32.1352   23.7304 O   0  0  0  0  0  0
  -29.3776  -19.7484   20.5970 C   0  0  0  0  0  0
  -28.4743  -20.8178   20.2221 C   0  0  0  0  0  0
  -27.3369  -20.3910   19.4775 C   0  0  0  0  0  0
  -29.1761  -18.3588   20.2283 C   0  0  0  0  0  0
  -27.1679  -19.0054   19.1910 C   0  0  0  0  0  0
  -30.1284  -17.1379   20.4648 C   0  0  0  0  0  0
  -26.2939  -21.4031   19.0209 C   0  0  0  0  0  0
  -31.6035  -17.5432   20.4819 C   0  0  0  0  0  0
  -25.6187  -19.3961   16.1293 C   0  0  0  0  0  0
  -27.5533  -25.1155   22.0598 C   0  0  0  0  0  0
  -28.6673  -22.3180   20.7562 C   0  0  0  0  0  0
  -25.9428  -18.4201   18.4854 C   0  0  0  0  0  0
  -26.1261  -18.2189   16.9700 C   0  0  0  0  0  0
  -28.2649  -23.7021   19.9855 C   0  0  0  0  0  0
  -28.4049  -25.1033   20.7776 C   0  0  1  0  0  0
  -28.0590  -18.0543   19.5392 N   0  0  0  0  0  0
  -29.7405  -15.8669   20.5442 N   0  0  0  0  0  0
  -31.4763  -12.5304   19.1737 H   0  0  0  0  0  0
  -30.3748  -11.4413   19.9660 H   0  0  0  0  0  0
  -29.7925  -11.7099   17.5272 H   0  0  0  0  0  0
  -29.6512  -13.4384   17.7334 H   0  0  0  0  0  0
  -27.8945  -11.2736   18.9270 H   0  0  0  0  0  0
  -27.3852  -12.5017   17.7996 H   0  0  0  0  0  0
  -27.6436  -14.2476   19.4630 H   0  0  0  0  0  0
  -28.6994  -12.1624   21.4355 H   0  0  0  0  0  0
  -28.4239  -13.8539   21.7778 H   0  0  0  0  0  0
  -25.2751   -9.5705   22.4742 H   0  0  0  0  0  0
  -24.0004   -7.4656   22.7482 H   0  0  0  0  0  0
  -21.0838   -8.8768   19.8944 H   0  0  0  0  0  0
  -22.3685  -10.9673   19.6156 H   0  0  0  0  0  0
  -21.1995   -7.6149   23.9705 H   0  0  0  0  0  0
  -21.1464   -6.0524   25.9067 H   0  0  0  0  0  0
  -22.0610   -2.7610   23.2845 H   0  0  0  0  0  0
  -22.4103  -11.9869   22.4764 H   0  0  0  0  0  0
  -21.1102  -13.1239   22.2626 H   0  0  0  0  0  0
  -24.6915  -15.8604   20.5854 H   0  0  0  0  0  0
  -26.3231  -15.6186   20.1929 H   0  0  0  0  0  0
  -26.7176  -32.5383   23.1056 H   0  0  0  0  0  0
  -25.0033  -33.9616   25.0338 H   0  0  0  0  0  0
  -22.7170  -31.2860   21.3884 H   0  0  0  0  0  0
  -23.3736  -35.9657   23.3267 H   0  0  0  0  0  0
  -24.3603  -36.8971   22.2058 H   0  0  0  0  0  0
  -23.7318  -37.6492   23.6714 H   0  0  0  0  0  0
  -26.0988  -31.5380   20.6014 H   0  0  0  0  0  0
  -26.8402  -30.8259   22.0057 H   0  0  0  0  0  0
  -28.1333  -28.9666   21.1698 H   0  0  0  0  0  0
  -26.0186  -25.8759   19.0468 H   0  0  0  0  0  0
  -23.9797  -27.2608   19.0363 H   0  0  0  0  0  0
  -23.7687  -30.5665   19.3957 H   0  0  0  0  0  0
  -22.7640  -29.2230   19.8559 H   0  0  0  0  0  0
  -25.1314  -36.1848   25.0786 H   0  0  0  0  0  0
  -20.9904  -28.3222   24.1384 H   0  0  0  0  0  0
  -20.5606  -26.2258   23.3576 H   0  0  0  0  0  0
  -21.6627  -26.7350   22.1230 H   0  0  0  0  0  0
  -19.6923  -25.6250   21.1207 H   0  0  0  0  0  0
  -19.6722  -27.3131   20.6668 H   0  0  0  0  0  0
  -17.4185  -26.6552   21.3994 H   0  0  0  0  0  0
  -18.0361  -26.0037   22.8998 H   0  0  0  0  0  0
  -19.7956  -30.7191   24.2229 H   0  0  0  0  0  0
  -17.5043  -31.6243   24.5119 H   0  0  0  0  0  0
  -15.5354  -30.2934   23.7702 H   0  0  0  0  0  0
  -15.8644  -28.0795   22.7055 H   0  0  0  0  0  0
  -24.5881  -30.7089   25.7797 H   0  0  0  0  0  0
  -24.8956  -32.2879   26.4878 H   0  0  0  0  0  0
  -25.8044  -30.8884   27.0209 H   0  0  0  0  0  0
  -26.2956  -29.6691   24.1225 H   0  0  0  0  0  0
  -27.4088  -29.7258   25.4685 H   0  0  0  0  0  0
  -27.8802  -30.4251   23.9390 H   0  0  0  0  0  0
  -27.2630  -33.3612   26.2020 H   0  0  0  0  0  0
  -28.3863  -32.6860   25.0315 H   0  0  0  0  0  0
  -28.0697  -31.8465   26.5417 H   0  0  0  0  0  0
  -28.2534  -38.0145   24.7493 H   0  0  0  0  0  0
  -28.1124  -36.2645   24.6246 H   0  0  0  0  0  0
  -27.2281  -37.1404   25.8844 H   0  0  0  0  0  0
  -20.9408  -29.8819   21.6948 H   0  0  0  0  0  0
  -26.0146  -38.2780   24.1431 H   0  0  0  0  0  0
  -30.2360  -20.0031   21.2011 H   0  0  0  0  0  0
  -25.9222  -21.9745   19.8698 H   0  0  0  0  0  0
  -25.4182  -20.9801   18.5414 H   0  0  0  0  0  0
  -26.7328  -22.0746   18.2826 H   0  0  0  0  0  0
  -31.7456  -18.6164   20.5681 H   0  0  0  0  0  0
  -32.0875  -17.2346   19.5550 H   0  0  0  0  0  0
  -32.1220  -17.0851   21.3243 H   0  0  0  0  0  0
  -25.7190  -19.1943   15.0634 H   0  0  0  0  0  0
  -26.1729  -20.3075   16.3458 H   0  0  0  0  0  0
  -24.5621  -19.5858   16.3228 H   0  0  0  0  0  0
  -27.8364  -24.3043   22.7280 H   0  0  0  0  0  0
  -26.4912  -25.0054   21.8418 H   0  0  0  0  0  0
  -27.6908  -26.0408   22.6193 H   0  0  0  0  0  0
  -29.7172  -22.4104   21.0362 H   0  0  0  0  0  0
  -28.1357  -22.3156   21.7059 H   0  0  0  0  0  0
  -25.0252  -18.9530   18.7220 H   0  0  0  0  0  0
  -25.7650  -17.4374   18.9176 H   0  0  0  0  0  0
  -27.1675  -17.9879   16.7394 H   0  0  0  0  0  0
  -25.5563  -17.3372   16.6760 H   0  0  0  0  0  0
  -27.2331  -23.6853   19.6565 H   0  0  0  0  0  0
  -28.8608  -23.7607   19.0754 H   0  0  0  0  0  0
  -29.4373  -25.0882   21.1284 H   0  0  0  0  0  0
  1 25  1  0  0  0
  1 30  2  0  0  0
  1 87  1  0  0  0
  2  3  1  0  0  0
  2 25  1  0  0  0
  2 88  1  0  0  0
  2 89  1  0  0  0
  3  4  1  0  0  0
  3 90  1  0  0  0
  3 91  1  0  0  0
  4  5  1  0  0  0
  4 92  1  0  0  0
  4 93  1  0  0  0
  5  6  1  0  0  0
  5 26  1  0  0  0
  5 94  1  0  0  0
  6 25  1  0  0  0
  6 95  1  0  0  0
  6 96  1  0  0  0
  7  8  2  0  0  0
  7 26  1  0  0  0
  7 29  1  0  0  0
  8  9  1  0  0  0
  8 22  1  0  0  0
  9 10  1  0  0  0
  9 27  2  0  0  0
 10 11  2  0  0  0
 10 15  1  0  0  0
 11 12  1  0  0  0
 11 97  1  0  0  0
 12 13  2  0  0  0
 12 98  1  0  0  0
 13 14  1  0  0  0
 13 31  1  0  0  0
 14 15  2  0  0  0
 14 99  1  0  0  0
 15100  1  0  0  0
 16 17  2  0  0  0
 16 21  1  0  0  0
 16 31  1  0  0  0
 17 18  1  0  0  0
 17101  1  0  0  0
 18 19  2  0  0  0
 18102  1  0  0  0
 19 20  1  0  0  0
 19 24  1  0  0  0
 20 21  2  0  0  0
 20103  1  0  0  0
 21 23  1  0  0  0
 22 28  1  0  0  0
 22 32  2  0  0  0
 26 27  1  0  0  0
 28104  1  0  0  0
 28105  1  0  0  0
 29106  1  0  0  0
 29107  1  0  0  0
 33 34  1  0  0  0
 33 66  1  0  0  0
 33 70  2  0  0  0
 34 36  1  0  0  0
 34 59  1  0  0  0
 34108  1  0  0  0
 35 44  2  0  0  0
 35 45  1  0  0  0
 35 68  1  0  0  0
 36 56  1  0  0  0
 36109  1  0  0  0
 37 39  1  0  0  0
 37 47  1  0  0  0
 37 66  1  0  0  0
 37110  1  0  0  0
 38 43  2  0  0  0
 38 46  1  0  0  0
 38 47  1  0  0  0
 39 64  1  0  0  0
 39 67  2  0  0  0
 40 52  1  0  0  0
 40 53  2  0  0  0
 40 58  1  0  0  0
 41111  1  0  0  0
 41112  1  0  0  0
 41113  1  0  0  0
 41 48  1  0  0  0
 42 43  1  0  0  0
 42 66  1  0  0  0
 42114  1  0  0  0
 42115  1  0  0  0
 43 44  1  0  0  0
 44116  1  0  0  0
 45 46  2  0  0  0
 45117  1  0  0  0
 46118  1  0  0  0
 47119  1  0  0  0
 47120  1  0  0  0
 48 56  1  0  0  0
 48 65  1  0  0  0
 48121  1  0  0  0
 49 50  1  0  0  0
 49 53  1  0  0  0
 49 64  1  0  0  0
 49122  1  0  0  0
 50 51  1  0  0  0
 50123  1  0  0  0
 50124  1  0  0  0
 51 52  1  0  0  0
 51125  1  0  0  0
 51126  1  0  0  0
 52127  1  0  0  0
 52128  1  0  0  0
 53 54  1  0  0  0
 54 55  2  0  0  0
 54129  1  0  0  0
 55 57  1  0  0  0
 55130  1  0  0  0
 56 69  2  0  0  0
 57 58  2  0  0  0
 57131  1  0  0  0
 58132  1  0  0  0
 59 60  1  0  0  0
 59 61  1  0  0  0
 59 62  1  0  0  0
 60133  1  0  0  0
 60134  1  0  0  0
 60135  1  0  0  0
 61136  1  0  0  0
 61137  1  0  0  0
 61138  1  0  0  0
 62139  1  0  0  0
 62140  1  0  0  0
 62141  1  0  0  0
 63 65  1  0  0  0
 63142  1  0  0  0
 63143  1  0  0  0
 63144  1  0  0  0
 64145  1  0  0  0
 65146  1  0  0  0
 68 85  1  0  0  0
 71 72  2  0  0  0
 71 74  1  0  0  0
 71147  1  0  0  0
 72 73  1  0  0  0
 72 81  1  0  0  0
 73 75  2  0  0  0
 73 77  1  0  0  0
 74 76  1  0  0  0
 74 86  2  0  0  0
 75 82  1  0  0  0
 75 86  1  0  0  0
 76 78  1  0  0  0
 76 87  2  0  0  0
 77148  1  0  0  0
 77149  1  0  0  0
 77150  1  0  0  0
 78151  1  0  0  0
 78152  1  0  0  0
 78153  1  0  0  0
 79 83  1  0  0  0
 79154  1  0  0  0
 79155  1  0  0  0
 79156  1  0  0  0
 80157  1  0  0  0
 80158  1  0  0  0
 80159  1  0  0  0
 80 85  1  0  0  0
 81 84  1  0  0  0
 81160  1  0  0  0
 81161  1  0  0  0
 82 83  1  0  0  0
 82162  1  0  0  0
 82163  1  0  0  0
 83164  1  0  0  0
 83165  1  0  0  0
 84 85  1  0  0  0
 84166  1  0  0  0
 84167  1  0  0  0
 85168  1  0  0  0
M  ISO  4   1 100  68 101  85 101  87 100
M  END
> <chiral flag>
0

> <version>
0

> <s_m_source_file>
/data/baiqing/PycharmProjects/Reinvent-master-3.2/result/LINK_invent/BTK/process_docking_weight1_custom_sum_contain_oxygen_bond_distance_aromatic_linkinvent_7_9_3/rearranged_h_0089.sdf

> <i_m_source_file_index>
90

> <r_mmod_Potential_Energy-OPLS-2005>
60.1488151550293

> <r_mmod_Stretch_Energy-OPLS-2005>
130.886047363281

> <r_mmod_Bend_Energy-OPLS-2005>
199.882034301758

> <r_mmod_Torsional_Energy-OPLS-2005>
205.19384765625

> <r_mmod_Improper_Torsional_Energy-OPLS-2005>
6.31699705123901

> <r_mmod_Van_der_Waal_Energy-OPLS-2005>
155.157928466797

> <r_mmod_Electrostatic_Energy-OPLS-2005>
-526.093078613281

> <r_mmod_Solvation_Energy-OPLS-2005>
-181.311233520508

> <b_mmod_Minimization_Converged-OPLS-2005>
0

> <r_mmod_RMS_Derivative-OPLS-2005>
3.11327219009399

$$$$
92
                    3D
 Structure written by MMmdl.
164171  0  0  1  0            999 V2000
  -30.6484  -14.5345   20.6106 C   0  0  0  0  0  0
  -30.4090  -12.3558   19.4442 C   0  0  0  0  0  0
  -29.4931  -12.5118   18.2104 C   0  0  0  0  0  0
  -28.0187  -12.3345   18.6178 C   0  0  0  0  0  0
  -27.6441  -13.2031   19.8478 C   0  0  2  0  0  0
  -28.6707  -13.0202   20.9877 C   0  0  0  0  0  0
  -25.2560  -13.8163   20.5570 C   0  0  0  0  0  0
  -24.1831  -13.0429   20.9177 C   0  0  0  0  0  0
  -24.6385  -11.6914   20.8733 C   0  0  0  0  0  0
  -23.9063  -10.4287   21.0421 C   0  0  0  0  0  0
  -24.3635   -9.4223   21.9188 C   0  0  0  0  0  0
  -23.6335   -8.2247   22.0750 C   0  0  0  0  0  0
  -22.4295   -8.0300   21.3534 C   0  0  0  0  0  0
  -21.9926   -9.0274   20.4629 C   0  0  0  0  0  0
  -22.7254  -10.2154   20.3056 C   0  0  0  0  0  0
  -21.6850   -6.0773   22.5287 C   0  0  0  0  0  0
  -21.4013   -6.5676   23.8230 C   0  0  0  0  0  0
  -21.3656   -5.6817   24.9190 C   0  0  0  0  0  0
  -21.6053   -4.3081   24.7217 C   0  0  0  0  0  0
  -21.8827   -3.8188   23.4334 C   0  0  0  0  0  0
  -21.9193   -4.7006   22.3405 C   0  0  0  0  0  0
  -22.7864  -13.5257   21.1849 C   0  0  0  0  0  0
  -22.1660   -4.2206   21.0974 F   0  0  0  0  0  0
  -21.5626   -3.4553   25.7723 F   0  0  0  0  0  0
  -29.9992  -13.3458   20.4525 N   0  0  0  0  0  0
  -26.2918  -12.9295   20.3179 N   0  0  0  0  0  0
  -25.9278  -11.6467   20.5681 N   0  0  0  0  0  0
  -22.0537  -12.8225   22.0416 N   0  0  0  0  0  0
  -25.4337  -15.1862   20.3854 N   0  0  0  0  0  0
  -31.7835  -14.7308   20.1711 O   0  0  0  0  0  0
  -21.6652   -6.8911   21.4237 O   0  0  0  0  0  0
  -22.3563  -14.5562   20.6739 O   0  0  0  0  0  0
  -24.6165  -31.8731   23.2037 C   0  0  0  0  0  0
  -25.9041  -32.4849   23.8420 C   0  0  1  0  0  0
  -27.2360  -27.3908   20.1012 C   0  0  0  0  0  0
  -25.5904  -33.8653   24.2352 N   0  0  0  0  0  0
  -23.4047  -30.4874   21.5525 C   0  0  2  0  0  0
  -24.8484  -28.9425   20.1206 C   0  0  0  0  0  0
  -22.7428  -29.4667   22.5062 C   0  0  0  0  0  0
  -18.0311  -28.1408   22.8447 C   0  0  0  0  0  0
  -24.1486  -36.7302   23.2648 C   0  0  0  0  0  0
  -25.9349  -30.8203   21.3619 C   0  0  0  0  0  0
  -26.0120  -29.4481   20.7122 C   0  0  0  0  0  0
  -27.2061  -28.6805   20.6962 C   0  0  0  0  0  0
  -26.0436  -26.9076   19.5131 C   0  0  0  0  0  0
  -24.8625  -27.6722   19.5209 C   0  0  0  0  0  0
  -23.6088  -29.8119   20.1699 C   0  0  0  0  0  0
  -25.4099  -36.3125   24.0361 C   0  0  1  0  0  0
  -20.5885  -28.3654   23.1354 C   0  0  2  0  0  0
  -20.6779  -26.9362   22.5464 C   0  0  0  0  0  0
  -19.5774  -26.6243   21.5260 C   0  0  0  0  0  0
  -18.1921  -26.7917   22.1611 C   0  0  0  0  0  0
  -19.1565  -28.8854   23.2870 C   0  0  0  0  0  0
  -18.9484  -30.1470   23.8867 C   0  0  0  0  0  0
  -17.6473  -30.6618   24.0482 C   0  0  0  0  0  0
  -25.9064  -34.9497   23.5174 C   0  0  0  0  0  0
  -16.5358  -29.9111   23.6279 C   0  0  0  0  0  0
  -16.7302  -28.6515   23.0330 C   0  0  0  0  0  0
  -26.4436  -31.6636   25.0782 C   0  0  0  0  0  0
  -25.3680  -31.3738   26.1522 C   0  0  0  0  0  0
  -27.0257  -30.3090   24.6151 C   0  0  0  0  0  0
  -27.6062  -32.4333   25.7471 C   0  0  0  0  0  0
  -27.5589  -37.1779   24.8472 C   0  0  0  0  0  0
  -21.4172  -29.3003   22.3743 N   0  0  0  0  0  0
  -26.4289  -37.3804   23.9432 N   0  0  0  0  0  0
  -24.6704  -31.0786   22.0957 N   0  0  0  0  0  0
  -23.4201  -28.8315   23.3200 O   0  0  0  0  0  0
  -28.4223  -26.6625   20.1058 O   0  0  0  0  0  0
  -26.5618  -34.8943   22.4726 O   0  0  0  0  0  0
  -23.5328  -32.1507   23.7378 O   0  0  0  0  0  0
  -27.3859  -22.3413   22.2749 C   0  0  0  0  0  0
  -26.3695  -22.8779   20.0660 C   0  0  0  0  0  0
  -27.8583  -19.9829   18.9034 C   0  0  0  0  0  0
  -29.1729  -17.9463   20.7562 C   0  0  0  0  0  0
  -28.2015  -24.3277   21.0088 C   0  0  0  0  0  0
  -30.2759  -16.9718   21.2883 C   0  0  0  0  0  0
  -29.5504  -19.4762   20.6351 C   0  0  0  0  0  0
  -28.7711  -21.8794   20.1876 C   0  0  0  0  0  0
  -28.4468  -25.2468   19.7703 C   0  0  0  0  0  0
  -27.7018  -22.8425   20.8441 C   0  0  0  0  0  0
  -29.9096  -15.5371   21.1504 N   0  0  0  0  0  0
  -28.4313  -20.4014   20.2058 N   0  3  1  0  0  0
  -31.4587  -12.4658   19.1712 H   0  0  0  0  0  0
  -30.2982  -11.3556   19.8663 H   0  0  0  0  0  0
  -29.7626  -11.7845   17.4438 H   0  0  0  0  0  0
  -29.6329  -13.4948   17.7624 H   0  0  0  0  0  0
  -27.8598  -11.2778   18.8442 H   0  0  0  0  0  0
  -27.3630  -12.5642   17.7779 H   0  0  0  0  0  0
  -27.6687  -14.2383   19.5077 H   0  0  0  0  0  0
  -28.6650  -11.9897   21.3388 H   0  0  0  0  0  0
  -28.4026  -13.6258   21.8546 H   0  0  0  0  0  0
  -25.2762   -9.5741   22.4777 H   0  0  0  0  0  0
  -24.0069   -7.4632   22.7450 H   0  0  0  0  0  0
  -21.0882   -8.8803   19.8911 H   0  0  0  0  0  0
  -22.3716  -10.9719   19.6205 H   0  0  0  0  0  0
  -21.2002   -7.6170   23.9750 H   0  0  0  0  0  0
  -21.1458   -6.0530   25.9085 H   0  0  0  0  0  0
  -22.0591   -2.7647   23.2815 H   0  0  0  0  0  0
  -22.4138  -11.9866   22.4771 H   0  0  0  0  0  0
  -21.1161  -13.1267   22.2609 H   0  0  0  0  0  0
  -24.6517  -15.8311   20.4035 H   0  0  0  0  0  0
  -26.2769  -15.5893   20.0016 H   0  0  0  0  0  0
  -26.7128  -32.5540   23.1189 H   0  0  0  0  0  0
  -24.9956  -33.9820   25.0428 H   0  0  0  0  0  0
  -22.6891  -31.3002   21.4098 H   0  0  0  0  0  0
  -23.3780  -35.9615   23.3294 H   0  0  0  0  0  0
  -24.3607  -36.8921   22.2080 H   0  0  0  0  0  0
  -23.7217  -37.6497   23.6648 H   0  0  0  0  0  0
  -26.0552  -31.5833   20.5910 H   0  0  0  0  0  0
  -26.8175  -30.8799   21.9840 H   0  0  0  0  0  0
  -28.1029  -29.0774   21.1549 H   0  0  0  0  0  0
  -25.9895  -25.9391   19.0455 H   0  0  0  0  0  0
  -23.9668  -27.2695   19.0691 H   0  0  0  0  0  0
  -23.7113  -30.5847   19.4073 H   0  0  0  0  0  0
  -22.7306  -29.2304   19.8828 H   0  0  0  0  0  0
  -25.1268  -36.1975   25.0861 H   0  0  0  0  0  0
  -20.9897  -28.3235   24.1512 H   0  0  0  0  0  0
  -20.5645  -26.2223   23.3634 H   0  0  0  0  0  0
  -21.6690  -26.7382   22.1403 H   0  0  0  0  0  0
  -19.6927  -25.6088   21.1445 H   0  0  0  0  0  0
  -19.6844  -27.2895   20.6682 H   0  0  0  0  0  0
  -17.4158  -26.6630   21.4008 H   0  0  0  0  0  0
  -18.0312  -26.0146   22.9097 H   0  0  0  0  0  0
  -19.7913  -30.7345   24.2251 H   0  0  0  0  0  0
  -17.5029  -31.6337   24.5005 H   0  0  0  0  0  0
  -15.5346  -30.3006   23.7660 H   0  0  0  0  0  0
  -15.8710  -28.0766   22.7130 H   0  0  0  0  0  0
  -24.5851  -30.7102   25.7827 H   0  0  0  0  0  0
  -24.8855  -32.2885   26.4988 H   0  0  0  0  0  0
  -25.8026  -30.8888   27.0272 H   0  0  0  0  0  0
  -26.2806  -29.6852   24.1202 H   0  0  0  0  0  0
  -27.4049  -29.7343   25.4607 H   0  0  0  0  0  0
  -27.8634  -30.4460   23.9307 H   0  0  0  0  0  0
  -27.2773  -33.3626   26.2105 H   0  0  0  0  0  0
  -28.3775  -32.6885   25.0208 H   0  0  0  0  0  0
  -28.0818  -31.8427   26.5289 H   0  0  0  0  0  0
  -28.2601  -38.0071   24.7545 H   0  0  0  0  0  0
  -28.1081  -36.2625   24.6230 H   0  0  0  0  0  0
  -27.2347  -37.1372   25.8882 H   0  0  0  0  0  0
  -20.9382  -29.8554   21.6815 H   0  0  0  0  0  0
  -26.0184  -38.2905   24.1375 H   0  0  0  0  0  0
  -26.6790  -23.0015   22.7784 H   0  0  0  0  0  0
  -28.2803  -22.3165   22.8988 H   0  0  0  0  0  0
  -26.9406  -21.3461   22.2902 H   0  0  0  0  0  0
  -25.7230  -23.6640   20.4620 H   0  0  0  0  0  0
  -25.8022  -21.9496   20.1471 H   0  0  0  0  0  0
  -26.5220  -23.0926   19.0092 H   0  0  0  0  0  0
  -27.5471  -18.9413   18.8968 H   0  0  0  0  0  0
  -28.5945  -20.1190   18.1084 H   0  0  0  0  0  0
  -26.9747  -20.5512   18.6327 H   0  0  0  0  0  0
  -28.2810  -17.8576   21.3805 H   0  0  0  0  0  0
  -28.9043  -17.5589   19.7764 H   0  0  0  0  0  0
  -27.4674  -24.8472   21.6239 H   0  0  0  0  0  0
  -29.1115  -24.3198   21.6094 H   0  0  0  0  0  0
  -30.4585  -17.1643   22.3478 H   0  0  0  0  0  0
  -31.2232  -17.1764   20.7870 H   0  0  0  0  0  0
  -30.3687  -19.5664   19.9190 H   0  0  0  0  0  0
  -29.9484  -19.8243   21.5891 H   0  0  0  0  0  0
  -29.7319  -22.0329   20.6820 H   0  0  0  0  0  0
  -28.9433  -22.2084   19.1581 H   0  0  0  0  0  0
  -27.8129  -25.0041   18.9219 H   0  0  0  0  0  0
  -29.4526  -25.0352   19.4036 H   0  0  0  0  0  0
  -28.9855  -15.2751   21.4635 H   0  0  0  0  0  0
  -27.7056  -20.3006   20.9027 H   0  0  0  0  0  0
  1 25  1  0  0  0
  1 30  2  0  0  0
  1 81  1  0  0  0
  2  3  1  0  0  0
  2 25  1  0  0  0
  2 83  1  0  0  0
  2 84  1  0  0  0
  3  4  1  0  0  0
  3 85  1  0  0  0
  3 86  1  0  0  0
  4  5  1  0  0  0
  4 87  1  0  0  0
  4 88  1  0  0  0
  5  6  1  0  0  0
  5 26  1  0  0  0
  5 89  1  0  0  0
  6 25  1  0  0  0
  6 90  1  0  0  0
  6 91  1  0  0  0
  7  8  2  0  0  0
  7 26  1  0  0  0
  7 29  1  0  0  0
  8  9  1  0  0  0
  8 22  1  0  0  0
  9 10  1  0  0  0
  9 27  2  0  0  0
 10 11  2  0  0  0
 10 15  1  0  0  0
 11 12  1  0  0  0
 11 92  1  0  0  0
 12 13  2  0  0  0
 12 93  1  0  0  0
 13 14  1  0  0  0
 13 31  1  0  0  0
 14 15  2  0  0  0
 14 94  1  0  0  0
 15 95  1  0  0  0
 16 17  2  0  0  0
 16 21  1  0  0  0
 16 31  1  0  0  0
 17 18  1  0  0  0
 17 96  1  0  0  0
 18 19  2  0  0  0
 18 97  1  0  0  0
 19 20  1  0  0  0
 19 24  1  0  0  0
 20 21  2  0  0  0
 20 98  1  0  0  0
 21 23  1  0  0  0
 22 28  1  0  0  0
 22 32  2  0  0  0
 26 27  1  0  0  0
 28 99  1  0  0  0
 28100  1  0  0  0
 29101  1  0  0  0
 29102  1  0  0  0
 33 34  1  0  0  0
 33 66  1  0  0  0
 33 70  2  0  0  0
 34 36  1  0  0  0
 34 59  1  0  0  0
 34103  1  0  0  0
 35 44  2  0  0  0
 35 45  1  0  0  0
 35 68  1  0  0  0
 36 56  1  0  0  0
 36104  1  0  0  0
 37 39  1  0  0  0
 37 47  1  0  0  0
 37 66  1  0  0  0
 37105  1  0  0  0
 38 43  2  0  0  0
 38 46  1  0  0  0
 38 47  1  0  0  0
 39 64  1  0  0  0
 39 67  2  0  0  0
 40 52  1  0  0  0
 40 53  2  0  0  0
 40 58  1  0  0  0
 41106  1  0  0  0
 41107  1  0  0  0
 41108  1  0  0  0
 41 48  1  0  0  0
 42 43  1  0  0  0
 42 66  1  0  0  0
 42109  1  0  0  0
 42110  1  0  0  0
 43 44  1  0  0  0
 44111  1  0  0  0
 45 46  2  0  0  0
 45112  1  0  0  0
 46113  1  0  0  0
 47114  1  0  0  0
 47115  1  0  0  0
 48 56  1  0  0  0
 48 65  1  0  0  0
 48116  1  0  0  0
 49 50  1  0  0  0
 49 53  1  0  0  0
 49 64  1  0  0  0
 49117  1  0  0  0
 50 51  1  0  0  0
 50118  1  0  0  0
 50119  1  0  0  0
 51 52  1  0  0  0
 51120  1  0  0  0
 51121  1  0  0  0
 52122  1  0  0  0
 52123  1  0  0  0
 53 54  1  0  0  0
 54 55  2  0  0  0
 54124  1  0  0  0
 55 57  1  0  0  0
 55125  1  0  0  0
 56 69  2  0  0  0
 57 58  2  0  0  0
 57126  1  0  0  0
 58127  1  0  0  0
 59 60  1  0  0  0
 59 61  1  0  0  0
 59 62  1  0  0  0
 60128  1  0  0  0
 60129  1  0  0  0
 60130  1  0  0  0
 61131  1  0  0  0
 61132  1  0  0  0
 61133  1  0  0  0
 62134  1  0  0  0
 62135  1  0  0  0
 62136  1  0  0  0
 63 65  1  0  0  0
 63137  1  0  0  0
 63138  1  0  0  0
 63139  1  0  0  0
 64140  1  0  0  0
 65141  1  0  0  0
 68 79  1  0  0  0
 71142  1  0  0  0
 71143  1  0  0  0
 71144  1  0  0  0
 71 80  1  0  0  0
 72 80  1  0  0  0
 72145  1  0  0  0
 72146  1  0  0  0
 72147  1  0  0  0
 73148  1  0  0  0
 73149  1  0  0  0
 73150  1  0  0  0
 73 82  1  0  0  0
 74 76  1  0  0  0
 74 77  1  0  0  0
 74151  1  0  0  0
 74152  1  0  0  0
 75 79  1  0  0  0
 75 80  1  0  0  0
 75153  1  0  0  0
 75154  1  0  0  0
 76 81  1  0  0  0
 76155  1  0  0  0
 76156  1  0  0  0
 77 82  1  0  0  0
 77157  1  0  0  0
 77158  1  0  0  0
 78 80  1  0  0  0
 78 82  1  0  0  0
 78159  1  0  0  0
 78160  1  0  0  0
 79161  1  0  0  0
 79162  1  0  0  0
 81163  1  0  0  0
 82164  1  0  0  0
M  CHG  1  82   1
M  ISO  4   1 100  68 101  79 101  81 100
M  END
> <chiral flag>
0

> <version>
0

> <s_m_source_file>
/data/baiqing/PycharmProjects/Reinvent-master-3.2/result/LINK_invent/BTK/process_docking_weight1_custom_sum_contain_oxygen_bond_distance_aromatic_linkinvent_7_9_3/rearranged_h_0089.sdf

> <i_m_source_file_index>
91

> <r_mmod_Potential_Energy-OPLS-2005>
-101.222587585449

> <r_mmod_Stretch_Energy-OPLS-2005>
56.2760810852051

> <r_mmod_Bend_Energy-OPLS-2005>
127.798583984375

> <r_mmod_Torsional_Energy-OPLS-2005>
225.747848510742

> <r_mmod_Improper_Torsional_Energy-OPLS-2005>
3.78349542617798

> <r_mmod_Van_der_Waal_Energy-OPLS-2005>
133.511474609375

> <r_mmod_Electrostatic_Energy-OPLS-2005>
-223.614547729492

> <r_mmod_Solvation_Energy-OPLS-2005>
-447.211944580078

> <b_mmod_Minimization_Converged-OPLS-2005>
0

> <r_mmod_RMS_Derivative-OPLS-2005>
7.37609481811523

$$$$
93
                    3D
 Structure written by MMmdl.
167175  0  0  1  0            999 V2000
  -30.6580  -14.5765   20.5267 C   0  0  0  0  0  0
  -30.4307  -12.3582   19.4597 C   0  0  0  0  0  0
  -29.5097  -12.5016   18.2266 C   0  0  0  0  0  0
  -28.0293  -12.3438   18.6339 C   0  0  0  0  0  0
  -27.6534  -13.2126   19.8635 C   0  0  2  0  0  0
  -28.6911  -13.0587   20.9981 C   0  0  0  0  0  0
  -25.2529  -13.8175   20.5648 C   0  0  0  0  0  0
  -24.1803  -13.0439   20.9179 C   0  0  0  0  0  0
  -24.6372  -11.6910   20.8765 C   0  0  0  0  0  0
  -23.9070  -10.4298   21.0443 C   0  0  0  0  0  0
  -24.3619   -9.4211   21.9215 C   0  0  0  0  0  0
  -23.6271   -8.2256   22.0773 C   0  0  0  0  0  0
  -22.4240   -8.0317   21.3584 C   0  0  0  0  0  0
  -21.9887   -9.0284   20.4680 C   0  0  0  0  0  0
  -22.7240  -10.2150   20.3089 C   0  0  0  0  0  0
  -21.6850   -6.0757   22.5294 C   0  0  0  0  0  0
  -21.4021   -6.5648   23.8242 C   0  0  0  0  0  0
  -21.3644   -5.6804   24.9183 C   0  0  0  0  0  0
  -21.6048   -4.3070   24.7239 C   0  0  0  0  0  0
  -21.8810   -3.8160   23.4351 C   0  0  0  0  0  0
  -21.9178   -4.6973   22.3407 C   0  0  0  0  0  0
  -22.7820  -13.5246   21.1823 C   0  0  0  0  0  0
  -22.1657   -4.2166   21.0992 F   0  0  0  0  0  0
  -21.5594   -3.4558   25.7739 F   0  0  0  0  0  0
  -30.0139  -13.3758   20.4432 N   0  0  0  0  0  0
  -26.2960  -12.9346   20.3261 N   0  0  0  0  0  0
  -25.9294  -11.6519   20.5748 N   0  0  0  0  0  0
  -22.0438  -12.8292   22.0410 N   0  0  0  0  0  0
  -25.4268  -15.1901   20.4081 N   0  0  0  0  0  0
  -31.8124  -14.7228   20.1189 O   0  0  0  0  0  0
  -21.6627   -6.8894   21.4268 O   0  0  0  0  0  0
  -22.3543  -14.5566   20.6677 O   0  0  0  0  0  0
  -24.6219  -31.8618   23.2058 C   0  0  0  0  0  0
  -25.9092  -32.4792   23.8368 C   0  0  1  0  0  0
  -27.2332  -27.3729   20.1116 C   0  0  0  0  0  0
  -25.5914  -33.8591   24.2296 N   0  0  0  0  0  0
  -23.4118  -30.4889   21.5437 C   0  0  2  0  0  0
  -24.8565  -28.9418   20.1172 C   0  0  0  0  0  0
  -22.7429  -29.4671   22.4931 C   0  0  0  0  0  0
  -18.0301  -28.1423   22.8481 C   0  0  0  0  0  0
  -24.1482  -36.7310   23.2630 C   0  0  0  0  0  0
  -25.9465  -30.8121   21.3648 C   0  0  0  0  0  0
  -26.0199  -29.4393   20.7156 C   0  0  0  0  0  0
  -27.2063  -28.6617   20.7085 C   0  0  0  0  0  0
  -26.0399  -26.8950   19.5214 C   0  0  0  0  0  0
  -24.8629  -27.6695   19.5206 C   0  0  0  0  0  0
  -23.6245  -29.8184   20.1593 C   0  0  0  0  0  0
  -25.4096  -36.3084   24.0324 C   0  0  1  0  0  0
  -20.5883  -28.3711   23.1275 C   0  0  2  0  0  0
  -20.6792  -26.9445   22.5390 C   0  0  0  0  0  0
  -19.5771  -26.6417   21.5198 C   0  0  0  0  0  0
  -18.1956  -26.7969   22.1622 C   0  0  0  0  0  0
  -19.1547  -28.8883   23.2886 C   0  0  0  0  0  0
  -18.9474  -30.1484   23.8917 C   0  0  0  0  0  0
  -17.6478  -30.6606   24.0587 C   0  0  0  0  0  0
  -25.9028  -34.9450   23.5107 C   0  0  0  0  0  0
  -16.5374  -29.9121   23.6338 C   0  0  0  0  0  0
  -16.7287  -28.6542   23.0347 C   0  0  0  0  0  0
  -26.4507  -31.6598   25.0721 C   0  0  0  0  0  0
  -25.3758  -31.3783   26.1472 C   0  0  0  0  0  0
  -27.0330  -30.3018   24.6163 C   0  0  0  0  0  0
  -27.6112  -32.4292   25.7452 C   0  0  0  0  0  0
  -27.5581  -37.1787   24.8456 C   0  0  0  0  0  0
  -21.4153  -29.3068   22.3657 N   0  0  0  0  0  0
  -26.4281  -37.3770   23.9415 N   0  0  0  0  0  0
  -24.6792  -31.0683   22.0979 N   0  0  0  0  0  0
  -23.4160  -28.8217   23.3006 O   0  0  0  0  0  0
  -28.4116  -26.6322   20.1516 O   0  0  0  0  0  0
  -26.5593  -34.8916   22.4668 O   0  0  0  0  0  0
  -23.5394  -32.1404   23.7427 O   0  0  0  0  0  0
  -30.2058  -24.5423   21.8549 C   0  0  0  0  0  0
  -31.2510  -24.1848   22.7194 C   0  0  0  0  0  0
  -29.3740  -23.5445   21.2915 C   0  0  0  0  0  0
  -31.4203  -22.8342   23.0372 C   0  0  0  0  0  0
  -29.6388  -22.1740   21.6641 C   0  0  0  0  0  0
  -32.5646  -22.3751   23.9140 C   0  0  0  0  0  0
  -31.1385  -19.9708   20.2453 C   0  0  0  0  0  0
  -29.9738  -18.2317   22.7544 C   0  0  0  0  0  0
  -28.2490  -24.0336   20.3452 C   0  0  0  0  0  0
  -28.8608  -20.8998   21.2179 C   0  0  0  0  0  0
  -30.2105  -17.0668   20.4836 C   0  0  0  0  0  0
  -28.5301  -25.3348   19.5046 C   0  0  0  0  0  0
  -29.6621  -19.6642   20.5925 C   0  0  2  0  0  0
  -29.5049  -18.2346   21.2838 C   0  0  2  0  0  0
  -30.6064  -21.8748   22.5604 N   0  0  0  0  0  0
  -29.8998  -15.6582   20.8662 N   0  0  0  0  0  0
  -31.4771  -12.4682   19.1702 H   0  0  0  0  0  0
  -30.3493  -11.3610   19.8940 H   0  0  0  0  0  0
  -29.7664  -11.7597   17.4710 H   0  0  0  0  0  0
  -29.6735  -13.4735   17.7590 H   0  0  0  0  0  0
  -27.8644  -11.2903   18.8683 H   0  0  0  0  0  0
  -27.3760  -12.5781   17.7935 H   0  0  0  0  0  0
  -27.6800  -14.2483   19.5249 H   0  0  0  0  0  0
  -28.6791  -12.0375   21.3827 H   0  0  0  0  0  0
  -28.4353  -13.7024   21.8417 H   0  0  0  0  0  0
  -25.2772   -9.5660   22.4783 H   0  0  0  0  0  0
  -23.9985   -7.4634   22.7463 H   0  0  0  0  0  0
  -21.0815   -8.8815   19.8974 H   0  0  0  0  0  0
  -22.3735  -10.9685   19.6184 H   0  0  0  0  0  0
  -21.2073   -7.6162   23.9760 H   0  0  0  0  0  0
  -21.1445   -6.0526   25.9098 H   0  0  0  0  0  0
  -22.0597   -2.7623   23.2859 H   0  0  0  0  0  0
  -22.3978  -11.9975   22.4896 H   0  0  0  0  0  0
  -21.1068  -13.1392   22.2558 H   0  0  0  0  0  0
  -24.6608  -15.8452   20.5258 H   0  0  0  0  0  0
  -26.2672  -15.6325   20.0601 H   0  0  0  0  0  0
  -26.7174  -32.5473   23.1140 H   0  0  0  0  0  0
  -25.0088  -33.9737   25.0462 H   0  0  0  0  0  0
  -22.7061  -31.3090   21.3984 H   0  0  0  0  0  0
  -23.3744  -35.9637   23.3247 H   0  0  0  0  0  0
  -24.3601  -36.8978   22.2057 H   0  0  0  0  0  0
  -23.7230  -37.6493   23.6690 H   0  0  0  0  0  0
  -26.0593  -31.5719   20.5897 H   0  0  0  0  0  0
  -26.8335  -30.8710   21.9846 H   0  0  0  0  0  0
  -28.1039  -29.0384   21.1788 H   0  0  0  0  0  0
  -25.9797  -25.9122   19.0779 H   0  0  0  0  0  0
  -23.9619  -27.2742   19.0706 H   0  0  0  0  0  0
  -23.7460  -30.5913   19.3992 H   0  0  0  0  0  0
  -22.7454  -29.2447   19.8602 H   0  0  0  0  0  0
  -25.1268  -36.1929   25.0814 H   0  0  0  0  0  0
  -21.0006  -28.3309   24.1380 H   0  0  0  0  0  0
  -20.5713  -26.2325   23.3578 H   0  0  0  0  0  0
  -21.6660  -26.7493   22.1171 H   0  0  0  0  0  0
  -19.6929  -25.6317   21.1254 H   0  0  0  0  0  0
  -19.6726  -27.3202   20.6708 H   0  0  0  0  0  0
  -17.4206  -26.6701   21.4052 H   0  0  0  0  0  0
  -18.0389  -26.0120   22.9032 H   0  0  0  0  0  0
  -19.7946  -30.7313   24.2280 H   0  0  0  0  0  0
  -17.5031  -31.6290   24.5193 H   0  0  0  0  0  0
  -15.5376  -30.3041   23.7650 H   0  0  0  0  0  0
  -15.8683  -28.0875   22.7054 H   0  0  0  0  0  0
  -24.5820  -30.7282   25.7794 H   0  0  0  0  0  0
  -24.9110  -32.2996   26.4986 H   0  0  0  0  0  0
  -25.8043  -30.8842   27.0199 H   0  0  0  0  0  0
  -26.2890  -29.6738   24.1260 H   0  0  0  0  0  0
  -27.4123  -29.7310   25.4656 H   0  0  0  0  0  0
  -27.8716  -30.4314   23.9316 H   0  0  0  0  0  0
  -27.2812  -33.3639   26.1993 H   0  0  0  0  0  0
  -28.3935  -32.6752   25.0259 H   0  0  0  0  0  0
  -28.0762  -31.8420   26.5386 H   0  0  0  0  0  0
  -28.2568  -38.0114   24.7509 H   0  0  0  0  0  0
  -28.1106  -36.2641   24.6249 H   0  0  0  0  0  0
  -27.2314  -37.1387   25.8864 H   0  0  0  0  0  0
  -20.9322  -29.8766   21.6852 H   0  0  0  0  0  0
  -26.0163  -38.2833   24.1452 H   0  0  0  0  0  0
  -30.0708  -25.5880   21.6295 H   0  0  0  0  0  0
  -31.9139  -24.9368   23.1255 H   0  0  0  0  0  0
  -33.4531  -22.9858   23.7447 H   0  0  0  0  0  0
  -32.8290  -21.3402   23.6941 H   0  0  0  0  0  0
  -32.3000  -22.4451   24.9685 H   0  0  0  0  0  0
  -31.2583  -20.9750   19.8388 H   0  0  0  0  0  0
  -31.5264  -19.2825   19.4945 H   0  0  0  0  0  0
  -31.7771  -19.8985   21.1258 H   0  0  0  0  0  0
  -29.9756  -17.2248   23.1744 H   0  0  0  0  0  0
  -29.3186  -18.8311   23.3883 H   0  0  0  0  0  0
  -30.9880  -18.6180   22.8633 H   0  0  0  0  0  0
  -27.3284  -24.1622   20.9157 H   0  0  0  0  0  0
  -28.0470  -23.2381   19.6296 H   0  0  0  0  0  0
  -28.1105  -21.2109   20.4929 H   0  0  0  0  0  0
  -28.2737  -20.5616   22.0722 H   0  0  0  0  0  0
  -31.2895  -17.2093   20.5425 H   0  0  0  0  0  0
  -29.9512  -17.1685   19.4271 H   0  0  0  0  0  0
  -27.9419  -25.3155   18.5904 H   0  0  0  0  0  0
  -29.5550  -25.2671   19.1372 H   0  0  0  0  0  0
  -29.1877  -19.5336   19.6177 H   0  0  0  0  0  0
  -28.4358  -18.0068   21.3064 H   0  0  0  0  0  0
  -28.9623  -15.4716   21.1838 H   0  0  0  0  0  0
  1 25  1  0  0  0
  1 30  2  0  0  0
  1 86  1  0  0  0
  2  3  1  0  0  0
  2 25  1  0  0  0
  2 87  1  0  0  0
  2 88  1  0  0  0
  3  4  1  0  0  0
  3 89  1  0  0  0
  3 90  1  0  0  0
  4  5  1  0  0  0
  4 91  1  0  0  0
  4 92  1  0  0  0
  5  6  1  0  0  0
  5 26  1  0  0  0
  5 93  1  0  0  0
  6 25  1  0  0  0
  6 94  1  0  0  0
  6 95  1  0  0  0
  7  8  2  0  0  0
  7 26  1  0  0  0
  7 29  1  0  0  0
  8  9  1  0  0  0
  8 22  1  0  0  0
  9 10  1  0  0  0
  9 27  2  0  0  0
 10 11  2  0  0  0
 10 15  1  0  0  0
 11 12  1  0  0  0
 11 96  1  0  0  0
 12 13  2  0  0  0
 12 97  1  0  0  0
 13 14  1  0  0  0
 13 31  1  0  0  0
 14 15  2  0  0  0
 14 98  1  0  0  0
 15 99  1  0  0  0
 16 17  2  0  0  0
 16 21  1  0  0  0
 16 31  1  0  0  0
 17 18  1  0  0  0
 17100  1  0  0  0
 18 19  2  0  0  0
 18101  1  0  0  0
 19 20  1  0  0  0
 19 24  1  0  0  0
 20 21  2  0  0  0
 20102  1  0  0  0
 21 23  1  0  0  0
 22 28  1  0  0  0
 22 32  2  0  0  0
 26 27  1  0  0  0
 28103  1  0  0  0
 28104  1  0  0  0
 29105  1  0  0  0
 29106  1  0  0  0
 33 34  1  0  0  0
 33 66  1  0  0  0
 33 70  2  0  0  0
 34 36  1  0  0  0
 34 59  1  0  0  0
 34107  1  0  0  0
 35 44  2  0  0  0
 35 45  1  0  0  0
 35 68  1  0  0  0
 36 56  1  0  0  0
 36108  1  0  0  0
 37 39  1  0  0  0
 37 47  1  0  0  0
 37 66  1  0  0  0
 37109  1  0  0  0
 38 43  2  0  0  0
 38 46  1  0  0  0
 38 47  1  0  0  0
 39 64  1  0  0  0
 39 67  2  0  0  0
 40 52  1  0  0  0
 40 53  2  0  0  0
 40 58  1  0  0  0
 41110  1  0  0  0
 41111  1  0  0  0
 41112  1  0  0  0
 41 48  1  0  0  0
 42 43  1  0  0  0
 42 66  1  0  0  0
 42113  1  0  0  0
 42114  1  0  0  0
 43 44  1  0  0  0
 44115  1  0  0  0
 45 46  2  0  0  0
 45116  1  0  0  0
 46117  1  0  0  0
 47118  1  0  0  0
 47119  1  0  0  0
 48 56  1  0  0  0
 48 65  1  0  0  0
 48120  1  0  0  0
 49 50  1  0  0  0
 49 53  1  0  0  0
 49 64  1  0  0  0
 49121  1  0  0  0
 50 51  1  0  0  0
 50122  1  0  0  0
 50123  1  0  0  0
 51 52  1  0  0  0
 51124  1  0  0  0
 51125  1  0  0  0
 52126  1  0  0  0
 52127  1  0  0  0
 53 54  1  0  0  0
 54 55  2  0  0  0
 54128  1  0  0  0
 55 57  1  0  0  0
 55129  1  0  0  0
 56 69  2  0  0  0
 57 58  2  0  0  0
 57130  1  0  0  0
 58131  1  0  0  0
 59 60  1  0  0  0
 59 61  1  0  0  0
 59 62  1  0  0  0
 60132  1  0  0  0
 60133  1  0  0  0
 60134  1  0  0  0
 61135  1  0  0  0
 61136  1  0  0  0
 61137  1  0  0  0
 62138  1  0  0  0
 62139  1  0  0  0
 62140  1  0  0  0
 63 65  1  0  0  0
 63141  1  0  0  0
 63142  1  0  0  0
 63143  1  0  0  0
 64144  1  0  0  0
 65145  1  0  0  0
 68 82  1  0  0  0
 71 72  2  0  0  0
 71 73  1  0  0  0
 71146  1  0  0  0
 72 74  1  0  0  0
 72147  1  0  0  0
 73 75  2  0  0  0
 73 79  1  0  0  0
 74 76  1  0  0  0
 74 85  2  0  0  0
 75 80  1  0  0  0
 75 85  1  0  0  0
 76148  1  0  0  0
 76149  1  0  0  0
 76150  1  0  0  0
 77151  1  0  0  0
 77152  1  0  0  0
 77153  1  0  0  0
 77 83  1  0  0  0
 78154  1  0  0  0
 78155  1  0  0  0
 78156  1  0  0  0
 78 84  1  0  0  0
 79 82  1  0  0  0
 79157  1  0  0  0
 79158  1  0  0  0
 80 83  1  0  0  0
 80159  1  0  0  0
 80160  1  0  0  0
 81 84  1  0  0  0
 81 86  1  0  0  0
 81161  1  0  0  0
 81162  1  0  0  0
 82163  1  0  0  0
 82164  1  0  0  0
 83 84  1  0  0  0
 83165  1  0  0  0
 84166  1  0  0  0
 86167  1  0  0  0
M  ISO  4   1 100  68 101  82 101  86 100
M  END
> <chiral flag>
0

> <version>
0

> <s_m_source_file>
/data/baiqing/PycharmProjects/Reinvent-master-3.2/result/LINK_invent/BTK/process_docking_weight1_custom_sum_contain_oxygen_bond_distance_aromatic_linkinvent_7_9_3/rearranged_h_0089.sdf

> <i_m_source_file_index>
92

> <r_mmod_Potential_Energy-OPLS-2005>
-142.693054199219

> <r_mmod_Stretch_Energy-OPLS-2005>
66.6857070922852

> <r_mmod_Bend_Energy-OPLS-2005>
145.463684082031

> <r_mmod_Torsional_Energy-OPLS-2005>
212.164642333984

> <r_mmod_Improper_Torsional_Energy-OPLS-2005>
6.0010461807251

> <r_mmod_Van_der_Waal_Energy-OPLS-2005>
152.028686523438

> <r_mmod_Electrostatic_Energy-OPLS-2005>
-539.581726074219

> <r_mmod_Solvation_Energy-OPLS-2005>
-214.506317138672

> <b_mmod_Minimization_Converged-OPLS-2005>
0

> <r_mmod_RMS_Derivative-OPLS-2005>
4.88930797576904

$$$$
94
                    3D
 Structure written by MMmdl.
171179  0  0  1  0            999 V2000
  -30.6267  -14.7426   20.5544 C   0  0  0  0  0  0
  -30.4334  -12.4751   19.4817 C   0  0  0  0  0  0
  -29.5102  -12.5513   18.2439 C   0  0  0  0  0  0
  -28.0348  -12.3587   18.6452 C   0  0  0  0  0  0
  -27.6464  -13.2238   19.8711 C   0  0  2  0  0  0
  -28.6897  -13.0604   20.9924 C   0  0  0  0  0  0
  -25.2487  -13.8162   20.5658 C   0  0  0  0  0  0
  -24.1782  -13.0424   20.9197 C   0  0  0  0  0  0
  -24.6379  -11.6902   20.8765 C   0  0  0  0  0  0
  -23.9054  -10.4286   21.0432 C   0  0  0  0  0  0
  -24.3614   -9.4195   21.9207 C   0  0  0  0  0  0
  -23.6282   -8.2233   22.0776 C   0  0  0  0  0  0
  -22.4266   -8.0280   21.3559 C   0  0  0  0  0  0
  -21.9900   -9.0259   20.4665 C   0  0  0  0  0  0
  -22.7229  -10.2131   20.3081 C   0  0  0  0  0  0
  -21.6851   -6.0727   22.5283 C   0  0  0  0  0  0
  -21.4020   -6.5635   23.8213 C   0  0  0  0  0  0
  -21.3657   -5.6794   24.9175 C   0  0  0  0  0  0
  -21.6045   -4.3052   24.7217 C   0  0  0  0  0  0
  -21.8816   -3.8144   23.4334 C   0  0  0  0  0  0
  -21.9195   -4.6963   22.3394 C   0  0  0  0  0  0
  -22.7803  -13.5221   21.1865 C   0  0  0  0  0  0
  -22.1658   -4.2154   21.0968 F   0  0  0  0  0  0
  -21.5625   -3.4527   25.7723 F   0  0  0  0  0  0
  -29.9864  -13.5110   20.4566 N   0  0  0  0  0  0
  -26.2938  -12.9366   20.3340 N   0  0  0  0  0  0
  -25.9308  -11.6506   20.5776 N   0  0  0  0  0  0
  -22.0453  -12.8230   22.0423 N   0  0  0  0  0  0
  -25.4114  -15.1884   20.3978 N   0  0  0  0  0  0
  -31.7640  -14.7969   20.0750 O   0  0  0  0  0  0
  -21.6639   -6.8876   21.4249 O   0  0  0  0  0  0
  -22.3483  -14.5528   20.6710 O   0  0  0  0  0  0
  -24.6290  -31.8552   23.1971 C   0  0  0  0  0  0
  -25.9108  -32.4763   23.8326 C   0  0  1  0  0  0
  -27.2248  -27.2778   20.1418 C   0  0  0  0  0  0
  -25.5905  -33.8568   24.2254 N   0  0  0  0  0  0
  -23.4256  -30.4745   21.5412 C   0  0  2  0  0  0
  -24.8729  -28.9178   20.1124 C   0  0  0  0  0  0
  -22.7496  -29.4583   22.4929 C   0  0  0  0  0  0
  -18.0286  -28.1377   22.8490 C   0  0  0  0  0  0
  -24.1487  -36.7285   23.2645 C   0  0  0  0  0  0
  -25.9664  -30.7765   21.3699 C   0  0  0  0  0  0
  -26.0407  -29.3985   20.7161 C   0  0  0  0  0  0
  -27.2201  -28.5931   20.7119 C   0  0  0  0  0  0
  -26.0323  -26.8486   19.5211 C   0  0  0  0  0  0
  -24.8730  -27.6519   19.5021 C   0  0  0  0  0  0
  -23.6419  -29.8033   20.1580 C   0  0  0  0  0  0
  -25.4113  -36.3082   24.0330 C   0  0  1  0  0  0
  -20.5889  -28.3677   23.1290 C   0  0  2  0  0  0
  -20.6783  -26.9395   22.5420 C   0  0  0  0  0  0
  -19.5758  -26.6370   21.5222 C   0  0  0  0  0  0
  -18.1931  -26.7922   22.1629 C   0  0  0  0  0  0
  -19.1539  -28.8845   23.2884 C   0  0  0  0  0  0
  -18.9461  -30.1449   23.8896 C   0  0  0  0  0  0
  -17.6460  -30.6579   24.0559 C   0  0  0  0  0  0
  -25.9052  -34.9448   23.5104 C   0  0  0  0  0  0
  -16.5351  -29.9075   23.6331 C   0  0  0  0  0  0
  -16.7274  -28.6495   23.0350 C   0  0  0  0  0  0
  -26.4485  -31.6584   25.0709 C   0  0  0  0  0  0
  -25.3716  -31.3706   26.1435 C   0  0  0  0  0  0
  -27.0329  -30.3016   24.6155 C   0  0  0  0  0  0
  -27.6049  -32.4322   25.7473 C   0  0  0  0  0  0
  -27.5574  -37.1798   24.8464 C   0  0  0  0  0  0
  -21.4202  -29.3026   22.3681 N   0  0  0  0  0  0
  -26.4293  -37.3775   23.9406 N   0  0  0  0  0  0
  -24.6928  -31.0532   22.0934 N   0  0  0  0  0  0
  -23.4201  -28.8129   23.3026 O   0  0  0  0  0  0
  -28.3566  -26.4429   20.1888 O   0  0  0  0  0  0
  -26.5627  -34.8920   22.4679 O   0  0  0  0  0  0
  -23.5445  -32.1360   23.7275 O   0  0  0  0  0  0
  -30.7305  -25.0902   19.9370 C   0  0  0  0  0  0
  -32.0598  -24.7042   20.0563 C   0  0  0  0  0  0
  -29.6700  -24.1986   20.2187 C   0  0  0  0  0  0
  -30.0421  -22.7993   20.5329 C   0  0  0  0  0  0
  -31.4448  -22.5819   20.7446 C   0  0  0  0  0  0
  -31.9196  -21.3664   22.9281 C   0  0  0  0  0  0
  -31.1404  -17.7535   19.3591 C   0  0  0  0  0  0
  -31.1705  -16.5008   22.2817 C   0  0  0  0  0  0
  -28.7926  -15.9954   22.0254 C   0  0  0  0  0  0
  -29.0762  -21.5506   20.7674 C   0  0  0  0  0  0
  -28.2736  -24.9396   20.1670 C   0  0  0  0  0  0
  -32.0502  -21.3403   21.3975 C   0  0  0  0  0  0
  -29.4377  -18.9019   20.9414 C   0  0  0  0  0  0
  -29.9103  -17.4892   20.2592 C   0  0  2  0  0  0
  -30.0951  -16.1525   21.2159 C   0  0  0  0  0  0
  -32.4048  -23.4942   20.4992 N   0  0  0  0  0  0
  -29.3884  -20.1925   20.1006 N   0  3  0  0  0  0
  -31.4753  -12.5896   19.1791 H   0  0  0  0  0  0
  -30.3825  -11.4802   19.9272 H   0  0  0  0  0  0
  -29.8015  -11.8051   17.5050 H   0  0  0  0  0  0
  -29.6276  -13.5237   17.7645 H   0  0  0  0  0  0
  -27.8879  -11.3037   18.8783 H   0  0  0  0  0  0
  -27.3779  -12.5789   17.8044 H   0  0  0  0  0  0
  -27.6635  -14.2624   19.5409 H   0  0  0  0  0  0
  -28.7487  -12.0099   21.2821 H   0  0  0  0  0  0
  -28.3786  -13.5349   21.9114 H   0  0  0  0  0  0
  -25.2769   -9.5636   22.4776 H   0  0  0  0  0  0
  -23.9989   -7.4615   22.7489 H   0  0  0  0  0  0
  -21.0837   -8.8777   19.8956 H   0  0  0  0  0  0
  -22.3717  -10.9672   19.6185 H   0  0  0  0  0  0
  -21.2020   -7.6151   23.9707 H   0  0  0  0  0  0
  -21.1489   -6.0533   25.9081 H   0  0  0  0  0  0
  -22.0604   -2.7610   23.2835 H   0  0  0  0  0  0
  -22.4041  -11.9872   22.4799 H   0  0  0  0  0  0
  -21.1097  -13.1306   22.2667 H   0  0  0  0  0  0
  -24.6414  -15.8375   20.5133 H   0  0  0  0  0  0
  -26.2556  -15.6282   20.0567 H   0  0  0  0  0  0
  -26.7173  -32.5424   23.1067 H   0  0  0  0  0  0
  -25.0043  -33.9704   25.0392 H   0  0  0  0  0  0
  -22.7223  -31.2959   21.3940 H   0  0  0  0  0  0
  -23.3757  -35.9610   23.3312 H   0  0  0  0  0  0
  -24.3577  -36.8904   22.2059 H   0  0  0  0  0  0
  -23.7226  -37.6483   23.6667 H   0  0  0  0  0  0
  -26.0973  -31.5338   20.5957 H   0  0  0  0  0  0
  -26.8482  -30.8311   21.9970 H   0  0  0  0  0  0
  -28.1215  -28.9610   21.1829 H   0  0  0  0  0  0
  -25.9749  -25.8778   19.0512 H   0  0  0  0  0  0
  -23.9784  -27.2779   19.0237 H   0  0  0  0  0  0
  -23.7614  -30.5772   19.3989 H   0  0  0  0  0  0
  -22.7616  -29.2317   19.8591 H   0  0  0  0  0  0
  -25.1296  -36.1944   25.0823 H   0  0  0  0  0  0
  -20.9979  -28.3251   24.1412 H   0  0  0  0  0  0
  -20.5691  -26.2278   23.3618 H   0  0  0  0  0  0
  -21.6651  -26.7427   22.1208 H   0  0  0  0  0  0
  -19.6920  -25.6279   21.1251 H   0  0  0  0  0  0
  -19.6708  -27.3186   20.6758 H   0  0  0  0  0  0
  -17.4211  -26.6673   21.4020 H   0  0  0  0  0  0
  -18.0323  -26.0055   22.9020 H   0  0  0  0  0  0
  -19.7931  -30.7265   24.2272 H   0  0  0  0  0  0
  -17.5007  -31.6264   24.5150 H   0  0  0  0  0  0
  -15.5350  -30.2975   23.7645 H   0  0  0  0  0  0
  -15.8675  -28.0809   22.7065 H   0  0  0  0  0  0
  -24.5897  -30.7052   25.7754 H   0  0  0  0  0  0
  -24.8893  -32.2863   26.4878 H   0  0  0  0  0  0
  -25.8041  -30.8873   27.0204 H   0  0  0  0  0  0
  -26.2896  -29.6769   24.1190 H   0  0  0  0  0  0
  -27.4049  -29.7271   25.4648 H   0  0  0  0  0  0
  -27.8755  -30.4316   23.9358 H   0  0  0  0  0  0
  -27.2670  -33.3631   26.2038 H   0  0  0  0  0  0
  -28.3856  -32.6868   25.0291 H   0  0  0  0  0  0
  -28.0718  -31.8453   26.5391 H   0  0  0  0  0  0
  -28.2602  -38.0087   24.7518 H   0  0  0  0  0  0
  -28.1064  -36.2623   24.6299 H   0  0  0  0  0  0
  -27.2293  -37.1454   25.8867 H   0  0  0  0  0  0
  -20.9382  -29.8755   21.6888 H   0  0  0  0  0  0
  -26.0180  -38.2853   24.1412 H   0  0  0  0  0  0
  -30.5473  -26.1122   19.6375 H   0  0  0  0  0  0
  -32.8616  -25.3951   19.8406 H   0  0  0  0  0  0
  -32.4164  -20.5065   23.3798 H   0  0  0  0  0  0
  -30.8808  -21.3536   23.2527 H   0  0  0  0  0  0
  -32.3819  -22.2655   23.3366 H   0  0  0  0  0  0
  -32.0294  -18.0069   19.9362 H   0  0  0  0  0  0
  -30.9703  -18.5699   18.6581 H   0  0  0  0  0  0
  -31.3792  -16.8908   18.7397 H   0  0  0  0  0  0
  -30.8486  -17.2941   22.9552 H   0  0  0  0  0  0
  -32.1143  -16.8168   21.8389 H   0  0  0  0  0  0
  -31.3969  -15.6388   22.9129 H   0  0  0  0  0  0
  -28.5183  -16.9138   22.5437 H   0  0  0  0  0  0
  -28.9098  -15.2686   22.8278 H   0  0  0  0  0  0
  -27.9474  -15.7270   21.3966 H   0  0  0  0  0  0
  -28.0705  -21.8409   20.4620 H   0  0  0  0  0  0
  -29.0053  -21.3919   21.8436 H   0  0  0  0  0  0
  -27.6763  -24.6070   21.0169 H   0  0  0  0  0  0
  -27.7588  -24.6044   19.2665 H   0  0  0  0  0  0
  -33.1152  -21.2996   21.1621 H   0  0  0  0  0  0
  -31.6791  -20.4176   20.9739 H   0  0  0  0  0  0
  -30.0678  -19.1039   21.8058 H   0  0  0  0  0  0
  -28.4336  -18.7715   21.3486 H   0  0  0  0  0  0
  -29.1066  -17.2296   19.5703 H   0  0  0  0  0  0
  -30.2560  -20.2761   19.6002 H   0  0  0  0  0  0
  -28.6811  -20.0581   19.3945 H   0  0  0  0  0  0
  1 25  1  0  0  0
  1 30  2  0  0  0
  1 85  1  0  0  0
  2  3  1  0  0  0
  2 25  1  0  0  0
  2 88  1  0  0  0
  2 89  1  0  0  0
  3  4  1  0  0  0
  3 90  1  0  0  0
  3 91  1  0  0  0
  4  5  1  0  0  0
  4 92  1  0  0  0
  4 93  1  0  0  0
  5  6  1  0  0  0
  5 26  1  0  0  0
  5 94  1  0  0  0
  6 25  1  0  0  0
  6 95  1  0  0  0
  6 96  1  0  0  0
  7  8  2  0  0  0
  7 26  1  0  0  0
  7 29  1  0  0  0
  8  9  1  0  0  0
  8 22  1  0  0  0
  9 10  1  0  0  0
  9 27  2  0  0  0
 10 11  2  0  0  0
 10 15  1  0  0  0
 11 12  1  0  0  0
 11 97  1  0  0  0
 12 13  2  0  0  0
 12 98  1  0  0  0
 13 14  1  0  0  0
 13 31  1  0  0  0
 14 15  2  0  0  0
 14 99  1  0  0  0
 15100  1  0  0  0
 16 17  2  0  0  0
 16 21  1  0  0  0
 16 31  1  0  0  0
 17 18  1  0  0  0
 17101  1  0  0  0
 18 19  2  0  0  0
 18102  1  0  0  0
 19 20  1  0  0  0
 19 24  1  0  0  0
 20 21  2  0  0  0
 20103  1  0  0  0
 21 23  1  0  0  0
 22 28  1  0  0  0
 22 32  2  0  0  0
 26 27  1  0  0  0
 28104  1  0  0  0
 28105  1  0  0  0
 29106  1  0  0  0
 29107  1  0  0  0
 33 34  1  0  0  0
 33 66  1  0  0  0
 33 70  2  0  0  0
 34 36  1  0  0  0
 34 59  1  0  0  0
 34108  1  0  0  0
 35 44  2  0  0  0
 35 45  1  0  0  0
 35 68  1  0  0  0
 36 56  1  0  0  0
 36109  1  0  0  0
 37 39  1  0  0  0
 37 47  1  0  0  0
 37 66  1  0  0  0
 37110  1  0  0  0
 38 43  2  0  0  0
 38 46  1  0  0  0
 38 47  1  0  0  0
 39 64  1  0  0  0
 39 67  2  0  0  0
 40 52  1  0  0  0
 40 53  2  0  0  0
 40 58  1  0  0  0
 41111  1  0  0  0
 41112  1  0  0  0
 41113  1  0  0  0
 41 48  1  0  0  0
 42 43  1  0  0  0
 42 66  1  0  0  0
 42114  1  0  0  0
 42115  1  0  0  0
 43 44  1  0  0  0
 44116  1  0  0  0
 45 46  2  0  0  0
 45117  1  0  0  0
 46118  1  0  0  0
 47119  1  0  0  0
 47120  1  0  0  0
 48 56  1  0  0  0
 48 65  1  0  0  0
 48121  1  0  0  0
 49 50  1  0  0  0
 49 53  1  0  0  0
 49 64  1  0  0  0
 49122  1  0  0  0
 50 51  1  0  0  0
 50123  1  0  0  0
 50124  1  0  0  0
 51 52  1  0  0  0
 51125  1  0  0  0
 51126  1  0  0  0
 52127  1  0  0  0
 52128  1  0  0  0
 53 54  1  0  0  0
 54 55  2  0  0  0
 54129  1  0  0  0
 55 57  1  0  0  0
 55130  1  0  0  0
 56 69  2  0  0  0
 57 58  2  0  0  0
 57131  1  0  0  0
 58132  1  0  0  0
 59 60  1  0  0  0
 59 61  1  0  0  0
 59 62  1  0  0  0
 60133  1  0  0  0
 60134  1  0  0  0
 60135  1  0  0  0
 61136  1  0  0  0
 61137  1  0  0  0
 61138  1  0  0  0
 62139  1  0  0  0
 62140  1  0  0  0
 62141  1  0  0  0
 63 65  1  0  0  0
 63142  1  0  0  0
 63143  1  0  0  0
 63144  1  0  0  0
 64145  1  0  0  0
 65146  1  0  0  0
 68 81  1  0  0  0
 71 72  2  0  0  0
 71 73  1  0  0  0
 71147  1  0  0  0
 72 86  1  0  0  0
 72148  1  0  0  0
 73 74  2  0  0  0
 73 81  1  0  0  0
 74 75  1  0  0  0
 74 80  1  0  0  0
 75 82  1  0  0  0
 75 86  2  0  0  0
 76 82  1  0  0  0
 76149  1  0  0  0
 76150  1  0  0  0
 76151  1  0  0  0
 77152  1  0  0  0
 77153  1  0  0  0
 77154  1  0  0  0
 77 84  1  0  0  0
 78155  1  0  0  0
 78156  1  0  0  0
 78157  1  0  0  0
 78 85  1  0  0  0
 79 85  1  0  0  0
 79158  1  0  0  0
 79159  1  0  0  0
 79160  1  0  0  0
 80 87  1  0  0  0
 80161  1  0  0  0
 80162  1  0  0  0
 81163  1  0  0  0
 81164  1  0  0  0
 82165  1  0  0  0
 82166  1  0  0  0
 83 84  1  0  0  0
 83 87  1  0  0  0
 83167  1  0  0  0
 83168  1  0  0  0
 84 85  1  0  0  0
 84169  1  0  0  0
 87170  1  0  0  0
 87171  1  0  0  0
M  CHG  1  87   1
M  ISO  4   1 100  68 101  81 101  85 100
M  END
> <chiral flag>
0

> <version>
0

> <s_m_source_file>
/data/baiqing/PycharmProjects/Reinvent-master-3.2/result/LINK_invent/BTK/process_docking_weight1_custom_sum_contain_oxygen_bond_distance_aromatic_linkinvent_7_9_3/rearranged_h_0089.sdf

> <i_m_source_file_index>
93

> <r_mmod_Potential_Energy-OPLS-2005>
26.2604904174805

> <r_mmod_Stretch_Energy-OPLS-2005>
158.761840820312

> <r_mmod_Bend_Energy-OPLS-2005>
224.939025878906

> <r_mmod_Torsional_Energy-OPLS-2005>
212.466705322266

> <r_mmod_Improper_Torsional_Energy-OPLS-2005>
2.30040073394775

> <r_mmod_Van_der_Waal_Energy-OPLS-2005>
162.602249145508

> <r_mmod_Electrostatic_Energy-OPLS-2005>
-345.598022460938

> <r_mmod_Solvation_Energy-OPLS-2005>
-458.248992919922

> <b_mmod_Minimization_Converged-OPLS-2005>
0

> <r_mmod_RMS_Derivative-OPLS-2005>
2.43205857276917

$$$$
95
                    3D
 Structure written by MMmdl.
159167  0  0  1  0            999 V2000
  -30.6749  -14.5487   20.5831 C   0  0  0  0  0  0
  -30.4373  -12.3646   19.4287 C   0  0  0  0  0  0
  -29.4976  -12.4999   18.2110 C   0  0  0  0  0  0
  -28.0209  -12.3544   18.6276 C   0  0  0  0  0  0
  -27.6582  -13.2085   19.8704 C   0  0  2  0  0  0
  -28.7042  -13.0174   20.9917 C   0  0  0  0  0  0
  -25.2588  -13.8151   20.5683 C   0  0  0  0  0  0
  -24.1838  -13.0429   20.9177 C   0  0  0  0  0  0
  -24.6392  -11.6900   20.8745 C   0  0  0  0  0  0
  -23.9069  -10.4279   21.0403 C   0  0  0  0  0  0
  -24.3609   -9.4200   21.9194 C   0  0  0  0  0  0
  -23.6281   -8.2243   22.0760 C   0  0  0  0  0  0
  -22.4264   -8.0271   21.3538 C   0  0  0  0  0  0
  -21.9901   -9.0250   20.4658 C   0  0  0  0  0  0
  -22.7239  -10.2139   20.3063 C   0  0  0  0  0  0
  -21.6857   -6.0736   22.5281 C   0  0  0  0  0  0
  -21.4028   -6.5648   23.8216 C   0  0  0  0  0  0
  -21.3658   -5.6785   24.9171 C   0  0  0  0  0  0
  -21.6036   -4.3040   24.7214 C   0  0  0  0  0  0
  -21.8826   -3.8157   23.4334 C   0  0  0  0  0  0
  -21.9199   -4.6976   22.3402 C   0  0  0  0  0  0
  -22.7861  -13.5239   21.1826 C   0  0  0  0  0  0
  -22.1661   -4.2162   21.0979 F   0  0  0  0  0  0
  -21.5631   -3.4537   25.7733 F   0  0  0  0  0  0
  -30.0211  -13.3584   20.4319 N   0  0  0  0  0  0
  -26.3019  -12.9315   20.3369 N   0  0  0  0  0  0
  -25.9323  -11.6491   20.5778 N   0  0  0  0  0  0
  -22.0497  -12.8243   22.0384 N   0  0  0  0  0  0
  -25.4277  -15.1879   20.4103 N   0  0  0  0  0  0
  -31.8170  -14.7336   20.1566 O   0  0  0  0  0  0
  -21.6628   -6.8880   21.4233 O   0  0  0  0  0  0
  -22.3570  -14.5539   20.6661 O   0  0  0  0  0  0
  -24.6180  -31.8633   23.2068 C   0  0  0  0  0  0
  -25.9065  -32.4788   23.8378 C   0  0  1  0  0  0
  -27.2368  -27.3890   20.1254 C   0  0  0  0  0  0
  -25.5897  -33.8589   24.2299 N   0  0  0  0  0  0
  -23.4081  -30.4852   21.5461 C   0  0  2  0  0  0
  -24.8567  -28.9399   20.1210 C   0  0  0  0  0  0
  -22.7417  -29.4641   22.4964 C   0  0  0  0  0  0
  -18.0265  -28.1378   22.8489 C   0  0  0  0  0  0
  -24.1486  -36.7307   23.2641 C   0  0  0  0  0  0
  -25.9395  -30.8193   21.3641 C   0  0  0  0  0  0
  -26.0187  -29.4479   20.7148 C   0  0  0  0  0  0
  -27.2103  -28.6818   20.7073 C   0  0  0  0  0  0
  -26.0564  -26.9027   19.5229 C   0  0  0  0  0  0
  -24.8741  -27.6698   19.5140 C   0  0  0  0  0  0
  -23.6214  -29.8128   20.1630 C   0  0  0  0  0  0
  -25.4109  -36.3100   24.0339 C   0  0  1  0  0  0
  -20.5857  -28.3671   23.1312 C   0  0  2  0  0  0
  -20.6756  -26.9400   22.5418 C   0  0  0  0  0  0
  -19.5741  -26.6387   21.5206 C   0  0  0  0  0  0
  -18.1920  -26.7924   22.1619 C   0  0  0  0  0  0
  -19.1518  -28.8847   23.2895 C   0  0  0  0  0  0
  -18.9445  -30.1446   23.8909 C   0  0  0  0  0  0
  -17.6455  -30.6583   24.0570 C   0  0  0  0  0  0
  -25.9036  -34.9462   23.5124 C   0  0  0  0  0  0
  -16.5342  -29.9093   23.6324 C   0  0  0  0  0  0
  -16.7259  -28.6505   23.0349 C   0  0  0  0  0  0
  -26.4475  -31.6582   25.0724 C   0  0  0  0  0  0
  -25.3729  -31.3686   26.1465 C   0  0  0  0  0  0
  -27.0305  -30.3026   24.6106 C   0  0  0  0  0  0
  -27.6057  -32.4302   25.7477 C   0  0  0  0  0  0
  -27.5571  -37.1810   24.8467 C   0  0  0  0  0  0
  -21.4143  -29.3032   22.3716 N   0  0  0  0  0  0
  -26.4295  -37.3789   23.9401 N   0  0  0  0  0  0
  -24.6735  -31.0719   22.0972 N   0  0  0  0  0  0
  -23.4170  -28.8184   23.3027 O   0  0  0  0  0  0
  -28.4063  -26.6459   20.1096 O   0  0  0  0  0  0
  -26.5594  -34.8926   22.4681 O   0  0  0  0  0  0
  -23.5371  -32.1409   23.7446 O   0  0  0  0  0  0
  -28.8038  -22.7505   19.8803 C   0  0  0  0  0  0
  -29.3029  -21.9209   18.8310 C   0  0  0  0  0  0
  -28.9834  -21.9497   20.9937 C   0  0  0  0  0  0
  -29.3656  -22.2411   17.3649 C   0  0  0  0  0  0
  -28.6939  -22.2256   22.4338 C   0  0  0  0  0  0
  -28.1895  -24.1519   19.6331 C   0  0  0  0  0  0
  -29.8842  -18.1216   20.6451 C   0  0  0  0  0  0
  -29.9197  -19.5241   21.3646 C   0  0  0  0  0  0
  -30.3844  -16.9240   21.5334 C   0  0  0  0  0  0
  -28.4027  -25.3008   20.6668 C   0  0  0  0  0  0
  -29.7315  -20.7380   19.2465 N   0  0  0  0  0  0
  -29.5097  -20.7152   20.5767 N   0  0  0  0  0  0
  -29.9494  -15.5579   21.1295 N   0  0  0  0  0  0
  -31.4752  -12.4996   19.1195 H   0  0  0  0  0  0
  -30.3790  -11.3614   19.8543 H   0  0  0  0  0  0
  -29.7495  -11.7445   17.4651 H   0  0  0  0  0  0
  -29.6474  -13.4667   17.7277 H   0  0  0  0  0  0
  -27.8428  -11.2992   18.8414 H   0  0  0  0  0  0
  -27.3668  -12.6010   17.7923 H   0  0  0  0  0  0
  -27.6938  -14.2506   19.5537 H   0  0  0  0  0  0
  -28.7135  -11.9803   21.3330 H   0  0  0  0  0  0
  -28.4551  -13.6116   21.8729 H   0  0  0  0  0  0
  -25.2759   -9.5693   22.4755 H   0  0  0  0  0  0
  -24.0013   -7.4641   22.7460 H   0  0  0  0  0  0
  -21.0853   -8.8751   19.8955 H   0  0  0  0  0  0
  -22.3677  -10.9661   19.6165 H   0  0  0  0  0  0
  -21.2012   -7.6154   23.9725 H   0  0  0  0  0  0
  -21.1477   -6.0518   25.9071 H   0  0  0  0  0  0
  -22.0606   -2.7625   23.2831 H   0  0  0  0  0  0
  -22.4116  -11.9921   22.4809 H   0  0  0  0  0  0
  -21.1105  -13.1272   22.2557 H   0  0  0  0  0  0
  -24.6621  -15.8411   20.5358 H   0  0  0  0  0  0
  -26.2734  -15.6289   20.0744 H   0  0  0  0  0  0
  -26.7129  -32.5499   23.1133 H   0  0  0  0  0  0
  -25.0049  -33.9749   25.0447 H   0  0  0  0  0  0
  -22.6997  -31.3030   21.4029 H   0  0  0  0  0  0
  -23.3739  -35.9652   23.3325 H   0  0  0  0  0  0
  -24.3572  -36.8900   22.2050 H   0  0  0  0  0  0
  -23.7262  -37.6529   23.6641 H   0  0  0  0  0  0
  -26.0536  -31.5823   20.5929 H   0  0  0  0  0  0
  -26.8277  -30.8759   21.9832 H   0  0  0  0  0  0
  -28.1087  -29.0733   21.1632 H   0  0  0  0  0  0
  -26.0479  -25.9370   19.0425 H   0  0  0  0  0  0
  -23.9821  -27.2756   19.0460 H   0  0  0  0  0  0
  -23.7328  -30.5866   19.4014 H   0  0  0  0  0  0
  -22.7452  -29.2344   19.8658 H   0  0  0  0  0  0
  -25.1292  -36.1953   25.0836 H   0  0  0  0  0  0
  -20.9946  -28.3233   24.1436 H   0  0  0  0  0  0
  -20.5639  -26.2275   23.3606 H   0  0  0  0  0  0
  -21.6634  -26.7433   22.1224 H   0  0  0  0  0  0
  -19.6906  -25.6301   21.1233 H   0  0  0  0  0  0
  -19.6692  -27.3203   20.6741 H   0  0  0  0  0  0
  -17.4188  -26.6662   21.4024 H   0  0  0  0  0  0
  -18.0330  -26.0066   22.9017 H   0  0  0  0  0  0
  -19.7927  -30.7249   24.2289 H   0  0  0  0  0  0
  -17.5016  -31.6263   24.5161 H   0  0  0  0  0  0
  -15.5347  -30.3000   23.7650 H   0  0  0  0  0  0
  -15.8654  -28.0831   22.7066 H   0  0  0  0  0  0
  -24.5914  -30.7019   25.7790 H   0  0  0  0  0  0
  -24.8914  -32.2843   26.4914 H   0  0  0  0  0  0
  -25.8099  -30.8851   27.0214 H   0  0  0  0  0  0
  -26.2853  -29.6782   24.1170 H   0  0  0  0  0  0
  -27.4071  -29.7270   25.4565 H   0  0  0  0  0  0
  -27.8689  -30.4332   23.9263 H   0  0  0  0  0  0
  -27.2677  -33.3591   26.2084 H   0  0  0  0  0  0
  -28.3855  -32.6873   25.0291 H   0  0  0  0  0  0
  -28.0735  -31.8399   26.5365 H   0  0  0  0  0  0
  -28.2610  -38.0083   24.7487 H   0  0  0  0  0  0
  -28.1042  -36.2617   24.6327 H   0  0  0  0  0  0
  -27.2280  -37.1510   25.8867 H   0  0  0  0  0  0
  -20.9302  -29.8753   21.6942 H   0  0  0  0  0  0
  -26.0171  -38.2864   24.1399 H   0  0  0  0  0  0
  -30.0199  -23.0924   17.1789 H   0  0  0  0  0  0
  -28.3775  -22.4971   16.9833 H   0  0  0  0  0  0
  -29.7375  -21.4037   16.7750 H   0  0  0  0  0  0
  -28.1375  -23.1524   22.5593 H   0  0  0  0  0  0
  -29.6187  -22.3109   23.0044 H   0  0  0  0  0  0
  -28.0991  -21.4279   22.8774 H   0  0  0  0  0  0
  -27.1182  -24.0415   19.4705 H   0  0  0  0  0  0
  -28.5681  -24.5350   18.6856 H   0  0  0  0  0  0
  -30.5006  -18.1601   19.7456 H   0  0  0  0  0  0
  -28.8679  -17.9279   20.3032 H   0  0  0  0  0  0
  -30.9218  -19.7122   21.7508 H   0  0  0  0  0  0
  -29.2696  -19.4648   22.2388 H   0  0  0  0  0  0
  -31.4706  -16.9615   21.6352 H   0  0  0  0  0  0
  -30.0001  -17.0657   22.5450 H   0  0  0  0  0  0
  -29.3850  -25.1754   21.1229 H   0  0  0  0  0  0
  -27.6849  -25.2251   21.4852 H   0  0  0  0  0  0
  -29.0105  -15.3065   21.4013 H   0  0  0  0  0  0
  1 25  1  0  0  0
  1 30  2  0  0  0
  1 83  1  0  0  0
  2  3  1  0  0  0
  2 25  1  0  0  0
  2 84  1  0  0  0
  2 85  1  0  0  0
  3  4  1  0  0  0
  3 86  1  0  0  0
  3 87  1  0  0  0
  4  5  1  0  0  0
  4 88  1  0  0  0
  4 89  1  0  0  0
  5  6  1  0  0  0
  5 26  1  0  0  0
  5 90  1  0  0  0
  6 25  1  0  0  0
  6 91  1  0  0  0
  6 92  1  0  0  0
  7  8  2  0  0  0
  7 26  1  0  0  0
  7 29  1  0  0  0
  8  9  1  0  0  0
  8 22  1  0  0  0
  9 10  1  0  0  0
  9 27  2  0  0  0
 10 11  2  0  0  0
 10 15  1  0  0  0
 11 12  1  0  0  0
 11 93  1  0  0  0
 12 13  2  0  0  0
 12 94  1  0  0  0
 13 14  1  0  0  0
 13 31  1  0  0  0
 14 15  2  0  0  0
 14 95  1  0  0  0
 15 96  1  0  0  0
 16 17  2  0  0  0
 16 21  1  0  0  0
 16 31  1  0  0  0
 17 18  1  0  0  0
 17 97  1  0  0  0
 18 19  2  0  0  0
 18 98  1  0  0  0
 19 20  1  0  0  0
 19 24  1  0  0  0
 20 21  2  0  0  0
 20 99  1  0  0  0
 21 23  1  0  0  0
 22 28  1  0  0  0
 22 32  2  0  0  0
 26 27  1  0  0  0
 28100  1  0  0  0
 28101  1  0  0  0
 29102  1  0  0  0
 29103  1  0  0  0
 33 34  1  0  0  0
 33 66  1  0  0  0
 33 70  2  0  0  0
 34 36  1  0  0  0
 34 59  1  0  0  0
 34104  1  0  0  0
 35 44  2  0  0  0
 35 45  1  0  0  0
 35 68  1  0  0  0
 36 56  1  0  0  0
 36105  1  0  0  0
 37 39  1  0  0  0
 37 47  1  0  0  0
 37 66  1  0  0  0
 37106  1  0  0  0
 38 43  2  0  0  0
 38 46  1  0  0  0
 38 47  1  0  0  0
 39 64  1  0  0  0
 39 67  2  0  0  0
 40 52  1  0  0  0
 40 53  2  0  0  0
 40 58  1  0  0  0
 41107  1  0  0  0
 41108  1  0  0  0
 41109  1  0  0  0
 41 48  1  0  0  0
 42 43  1  0  0  0
 42 66  1  0  0  0
 42110  1  0  0  0
 42111  1  0  0  0
 43 44  1  0  0  0
 44112  1  0  0  0
 45 46  2  0  0  0
 45113  1  0  0  0
 46114  1  0  0  0
 47115  1  0  0  0
 47116  1  0  0  0
 48 56  1  0  0  0
 48 65  1  0  0  0
 48117  1  0  0  0
 49 50  1  0  0  0
 49 53  1  0  0  0
 49 64  1  0  0  0
 49118  1  0  0  0
 50 51  1  0  0  0
 50119  1  0  0  0
 50120  1  0  0  0
 51 52  1  0  0  0
 51121  1  0  0  0
 51122  1  0  0  0
 52123  1  0  0  0
 52124  1  0  0  0
 53 54  1  0  0  0
 54 55  2  0  0  0
 54125  1  0  0  0
 55 57  1  0  0  0
 55126  1  0  0  0
 56 69  2  0  0  0
 57 58  2  0  0  0
 57127  1  0  0  0
 58128  1  0  0  0
 59 60  1  0  0  0
 59 61  1  0  0  0
 59 62  1  0  0  0
 60129  1  0  0  0
 60130  1  0  0  0
 60131  1  0  0  0
 61132  1  0  0  0
 61133  1  0  0  0
 61134  1  0  0  0
 62135  1  0  0  0
 62136  1  0  0  0
 62137  1  0  0  0
 63 65  1  0  0  0
 63138  1  0  0  0
 63139  1  0  0  0
 63140  1  0  0  0
 64141  1  0  0  0
 65142  1  0  0  0
 68 80  1  0  0  0
 71 72  1  0  0  0
 71 73  2  0  0  0
 71 76  1  0  0  0
 72 74  1  0  0  0
 72 81  2  0  0  0
 73 75  1  0  0  0
 73 82  1  0  0  0
 74143  1  0  0  0
 74144  1  0  0  0
 74145  1  0  0  0
 75146  1  0  0  0
 75147  1  0  0  0
 75148  1  0  0  0
 76 80  1  0  0  0
 76149  1  0  0  0
 76150  1  0  0  0
 77 78  1  0  0  0
 77 79  1  0  0  0
 77151  1  0  0  0
 77152  1  0  0  0
 78 82  1  0  0  0
 78153  1  0  0  0
 78154  1  0  0  0
 79 83  1  0  0  0
 79155  1  0  0  0
 79156  1  0  0  0
 80157  1  0  0  0
 80158  1  0  0  0
 81 82  1  0  0  0
 83159  1  0  0  0
M  ISO  4   1 100  68 101  80 101  83 100
M  END
> <chiral flag>
0

> <version>
0

> <s_m_source_file>
/data/baiqing/PycharmProjects/Reinvent-master-3.2/result/LINK_invent/BTK/process_docking_weight1_custom_sum_contain_oxygen_bond_distance_aromatic_linkinvent_7_9_3/rearranged_h_0089.sdf

> <i_m_source_file_index>
94

> <r_mmod_Potential_Energy-OPLS-2005>
-105.02042388916

> <r_mmod_Stretch_Energy-OPLS-2005>
50.8656806945801

> <r_mmod_Bend_Energy-OPLS-2005>
119.427169799805

> <r_mmod_Torsional_Energy-OPLS-2005>
224.716979980469

> <r_mmod_Improper_Torsional_Energy-OPLS-2005>
3.01295566558838

> <r_mmod_Van_der_Waal_Energy-OPLS-2005>
116.96989440918

> <r_mmod_Electrostatic_Energy-OPLS-2005>
-419.596588134766

> <r_mmod_Solvation_Energy-OPLS-2005>
-222.563827514648

> <b_mmod_Minimization_Converged-OPLS-2005>
0

> <r_mmod_RMS_Derivative-OPLS-2005>
3.98513293266296

$$$$
96
                    3D
 Structure written by MMmdl.
169177  0  0  1  0            999 V2000
  -30.7818  -14.4296   20.6367 C   0  0  0  0  0  0
  -30.4155  -12.3065   19.4239 C   0  0  0  0  0  0
  -29.4966  -12.5248   18.2083 C   0  0  0  0  0  0
  -28.0239  -12.3621   18.6268 C   0  0  0  0  0  0
  -27.6692  -13.2063   19.8805 C   0  0  2  0  0  0
  -28.7170  -13.0110   21.0030 C   0  0  0  0  0  0
  -25.2685  -13.8144   20.5673 C   0  0  0  0  0  0
  -24.1908  -13.0448   20.9126 C   0  0  0  0  0  0
  -24.6441  -11.6915   20.8703 C   0  0  0  0  0  0
  -23.9125  -10.4304   21.0414 C   0  0  0  0  0  0
  -24.3661   -9.4205   21.9187 C   0  0  0  0  0  0
  -23.6314   -8.2263   22.0762 C   0  0  0  0  0  0
  -22.4295   -8.0304   21.3578 C   0  0  0  0  0  0
  -21.9959   -9.0273   20.4664 C   0  0  0  0  0  0
  -22.7308  -10.2148   20.3068 C   0  0  0  0  0  0
  -21.6853   -6.0766   22.5294 C   0  0  0  0  0  0
  -21.3994   -6.5654   23.8225 C   0  0  0  0  0  0
  -21.3654   -5.6806   24.9173 C   0  0  0  0  0  0
  -21.6053   -4.3079   24.7222 C   0  0  0  0  0  0
  -21.8820   -3.8165   23.4346 C   0  0  0  0  0  0
  -21.9183   -4.6988   22.3395 C   0  0  0  0  0  0
  -22.7946  -13.5273   21.1756 C   0  0  0  0  0  0
  -22.1672   -4.2185   21.0979 F   0  0  0  0  0  0
  -21.5628   -3.4533   25.7731 F   0  0  0  0  0  0
  -30.0529  -13.2893   20.4537 N   0  0  0  0  0  0
  -26.3091  -12.9329   20.3409 N   0  0  0  0  0  0
  -25.9370  -11.6492   20.5789 N   0  0  0  0  0  0
  -22.0548  -12.8282   22.0317 N   0  0  0  0  0  0
  -25.4377  -15.1851   20.4094 N   0  0  0  0  0  0
  -31.8317  -14.6346   20.0235 O   0  0  0  0  0  0
  -21.6643   -6.8919   21.4287 O   0  0  0  0  0  0
  -22.3656  -14.5594   20.6612 O   0  0  0  0  0  0
  -24.6098  -31.8635   23.2189 C   0  0  0  0  0  0
  -25.8977  -32.4766   23.8463 C   0  0  1  0  0  0
  -27.2169  -27.4203   20.0648 C   0  0  0  0  0  0
  -25.5774  -33.8581   24.2284 N   0  0  0  0  0  0
  -23.4021  -30.4984   21.5550 C   0  0  2  0  0  0
  -24.8498  -28.9774   20.1161 C   0  0  0  0  0  0
  -22.7401  -29.4613   22.4949 C   0  0  0  0  0  0
  -18.0225  -28.1407   22.8422 C   0  0  0  0  0  0
  -24.1527  -36.7305   23.2651 C   0  0  0  0  0  0
  -25.9405  -30.8122   21.3990 C   0  0  0  0  0  0
  -26.0095  -29.4533   20.7381 C   0  0  0  0  0  0
  -27.1863  -28.6670   20.7451 C   0  0  0  0  0  0
  -26.0570  -27.0202   19.3643 C   0  0  0  0  0  0
  -24.8657  -27.7557   19.4320 C   0  0  0  0  0  0
  -23.6213  -29.8530   20.1648 C   0  0  0  0  0  0
  -25.4126  -36.3088   24.0306 C   0  0  1  0  0  0
  -20.5801  -28.3647   23.1295 C   0  0  2  0  0  0
  -20.6702  -26.9370   22.5425 C   0  0  0  0  0  0
  -19.5761  -26.6464   21.5120 C   0  0  0  0  0  0
  -18.1877  -26.8004   22.1445 C   0  0  0  0  0  0
  -19.1460  -28.8824   23.2880 C   0  0  0  0  0  0
  -18.9498  -30.1374   23.9000 C   0  0  0  0  0  0
  -17.6539  -30.6609   24.0613 C   0  0  0  0  0  0
  -25.8990  -34.9435   23.5091 C   0  0  0  0  0  0
  -16.5378  -29.9153   23.6364 C   0  0  0  0  0  0
  -16.7206  -28.6523   23.0377 C   0  0  0  0  0  0
  -26.4449  -31.6593   25.0812 C   0  0  0  0  0  0
  -25.3813  -31.3726   26.1633 C   0  0  0  0  0  0
  -27.0352  -30.3048   24.6207 C   0  0  0  0  0  0
  -27.5906  -32.4451   25.7572 C   0  0  0  0  0  0
  -27.5588  -37.1849   24.8440 C   0  0  0  0  0  0
  -21.4101  -29.3083   22.3780 N   0  0  0  0  0  0
  -26.4306  -37.3773   23.9346 N   0  0  0  0  0  0
  -24.6665  -31.0822   22.1109 N   0  0  0  0  0  0
  -23.4216  -28.7998   23.2860 O   0  0  0  0  0  0
  -28.3556  -26.6311   20.1113 O   0  0  0  0  0  0
  -26.5615  -34.8889   22.4684 O   0  0  0  0  0  0
  -23.5290  -32.1311   23.7608 O   0  0  0  0  0  0
  -29.8644  -18.5997   21.2109 C   0  0  0  0  0  0
  -30.5665  -17.8126   22.1012 C   0  0  0  0  0  0
  -30.4612  -19.9132   22.9107 C   0  0  0  0  0  0
  -32.1346  -21.7124   23.4687 C   0  0  0  0  0  0
  -30.7922  -20.6086   25.3219 C   0  0  0  0  0  0
  -26.2641  -24.2236   20.5806 C   0  0  0  0  0  0
  -31.1462  -16.4052   22.0960 C   0  0  0  0  0  0
  -28.3886  -22.0289   21.6118 C   0  0  0  0  0  0
  -28.5670  -23.5554   21.3290 C   0  0  0  0  0  0
  -29.4916  -21.1414   20.9716 C   0  0  0  0  0  0
  -28.3759  -25.3507   19.4336 C   0  0  0  0  0  0
  -30.8004  -21.0515   23.8442 C   0  0  0  0  0  0
  -27.7433  -24.0936   20.1442 C   0  0  2  0  0  0
  -29.8771  -19.9017   21.7002 N   0  0  0  0  0  0
  -30.8698  -18.6572   23.1335 N   0  3  0  0  0  0
  -30.3307  -15.3113   21.5420 N   0  0  0  0  0  0
  -31.4620  -12.3718   19.1293 H   0  0  0  0  0  0
  -30.2996  -11.2981   19.8140 H   0  0  0  0  0  0
  -29.7432  -11.8222   17.4123 H   0  0  0  0  0  0
  -29.6636  -13.5226   17.7986 H   0  0  0  0  0  0
  -27.8513  -11.3029   18.8321 H   0  0  0  0  0  0
  -27.3703  -12.6309   17.7956 H   0  0  0  0  0  0
  -27.7187  -14.2496   19.5806 H   0  0  0  0  0  0
  -28.6825  -11.9898   21.3822 H   0  0  0  0  0  0
  -28.4703  -13.6399   21.8593 H   0  0  0  0  0  0
  -25.2812   -9.5648   22.4747 H   0  0  0  0  0  0
  -23.9994   -7.4666   22.7481 H   0  0  0  0  0  0
  -21.0890   -8.8838   19.8952 H   0  0  0  0  0  0
  -22.3802  -10.9703   19.6148 H   0  0  0  0  0  0
  -21.1993   -7.6153   23.9752 H   0  0  0  0  0  0
  -21.1467   -6.0510   25.9090 H   0  0  0  0  0  0
  -22.0598   -2.7629   23.2822 H   0  0  0  0  0  0
  -22.4148  -11.9937   22.4739 H   0  0  0  0  0  0
  -21.1164  -13.1334   22.2501 H   0  0  0  0  0  0
  -24.6701  -15.8399   20.5147 H   0  0  0  0  0  0
  -26.3001  -15.6281   20.1167 H   0  0  0  0  0  0
  -26.6994  -32.5517   23.1160 H   0  0  0  0  0  0
  -25.0045  -33.9801   25.0541 H   0  0  0  0  0  0
  -22.6873  -31.3077   21.4231 H   0  0  0  0  0  0
  -23.3748  -35.9697   23.3327 H   0  0  0  0  0  0
  -24.3726  -36.8916   22.2093 H   0  0  0  0  0  0
  -23.7345  -37.6520   23.6668 H   0  0  0  0  0  0
  -26.0818  -31.5839   20.6433 H   0  0  0  0  0  0
  -26.8206  -30.8439   22.0269 H   0  0  0  0  0  0
  -28.0608  -29.0010   21.2819 H   0  0  0  0  0  0
  -26.0358  -26.1300   18.7584 H   0  0  0  0  0  0
  -23.9833  -27.4123   18.9112 H   0  0  0  0  0  0
  -23.7470  -30.6447   19.4264 H   0  0  0  0  0  0
  -22.7515  -29.2780   19.8489 H   0  0  0  0  0  0
  -25.1353  -36.1920   25.0798 H   0  0  0  0  0  0
  -20.9816  -28.3238   24.1419 H   0  0  0  0  0  0
  -20.5432  -26.2277   23.3610 H   0  0  0  0  0  0
  -21.6637  -26.7259   22.1410 H   0  0  0  0  0  0
  -19.6969  -25.6404   21.1105 H   0  0  0  0  0  0
  -19.6874  -27.3345   20.6727 H   0  0  0  0  0  0
  -17.4247  -26.6827   21.3736 H   0  0  0  0  0  0
  -18.0148  -26.0017   22.8698 H   0  0  0  0  0  0
  -19.8002  -30.7023   24.2591 H   0  0  0  0  0  0
  -17.5156  -31.6326   24.5184 H   0  0  0  0  0  0
  -15.5435  -30.3157   23.7680 H   0  0  0  0  0  0
  -15.8567  -28.0922   22.7165 H   0  0  0  0  0  0
  -24.5768  -30.7277   25.8062 H   0  0  0  0  0  0
  -24.9322  -32.2998   26.5258 H   0  0  0  0  0  0
  -25.8248  -30.8786   27.0299 H   0  0  0  0  0  0
  -26.2882  -29.6682   24.1449 H   0  0  0  0  0  0
  -27.4366  -29.7393   25.4632 H   0  0  0  0  0  0
  -27.8610  -30.4416   23.9230 H   0  0  0  0  0  0
  -27.2298  -33.3733   26.2054 H   0  0  0  0  0  0
  -28.3701  -32.7099   25.0410 H   0  0  0  0  0  0
  -28.0524  -31.8762   26.5646 H   0  0  0  0  0  0
  -28.2592  -38.0152   24.7444 H   0  0  0  0  0  0
  -28.1118  -36.2697   24.6312 H   0  0  0  0  0  0
  -27.2374  -37.1547   25.8870 H   0  0  0  0  0  0
  -20.9216  -29.9009   21.7240 H   0  0  0  0  0  0
  -26.0153  -38.2824   24.1390 H   0  0  0  0  0  0
  -29.4633  -18.3437   20.2382 H   0  0  0  0  0  0
  -32.9566  -20.9929   23.4825 H   0  0  0  0  0  0
  -32.3909  -22.5074   24.1615 H   0  0  0  0  0  0
  -32.0900  -22.1576   22.4758 H   0  0  0  0  0  0
  -29.8241  -20.1857   25.6041 H   0  0  0  0  0  0
  -30.9672  -21.4497   25.9934 H   0  0  0  0  0  0
  -31.5609  -19.8595   25.5376 H   0  0  0  0  0  0
  -25.9349  -23.3624   21.1594 H   0  0  0  0  0  0
  -25.5715  -24.3163   19.7418 H   0  0  0  0  0  0
  -26.1230  -25.0786   21.2424 H   0  0  0  0  0  0
  -31.3852  -16.1292   23.1254 H   0  0  0  0  0  0
  -32.1279  -16.4777   21.6170 H   0  0  0  0  0  0
  -27.4085  -21.6801   21.2763 H   0  0  0  0  0  0
  -28.3338  -21.8910   22.6863 H   0  0  0  0  0  0
  -29.6269  -23.7948   21.2014 H   0  0  0  0  0  0
  -28.2607  -24.1185   22.2093 H   0  0  0  0  0  0
  -30.4104  -21.7110   20.8640 H   0  0  0  0  0  0
  -29.2174  -20.8780   19.9489 H   0  0  0  0  0  0
  -27.9825  -25.4489   18.4217 H   0  0  0  0  0  0
  -29.4290  -25.1233   19.2473 H   0  0  0  0  0  0
  -30.0265  -21.8054   23.7538 H   0  0  0  0  0  0
  -27.7867  -23.2994   19.3967 H   0  0  0  0  0  0
  -31.4069  -18.3960   23.9450 H   0  0  0  0  0  0
  -29.4814  -15.0843   22.0392 H   0  0  0  0  0  0
  1 25  1  0  0  0
  1 30  2  0  0  0
  1 86  1  0  0  0
  2  3  1  0  0  0
  2 25  1  0  0  0
  2 87  1  0  0  0
  2 88  1  0  0  0
  3  4  1  0  0  0
  3 89  1  0  0  0
  3 90  1  0  0  0
  4  5  1  0  0  0
  4 91  1  0  0  0
  4 92  1  0  0  0
  5  6  1  0  0  0
  5 26  1  0  0  0
  5 93  1  0  0  0
  6 25  1  0  0  0
  6 94  1  0  0  0
  6 95  1  0  0  0
  7  8  2  0  0  0
  7 26  1  0  0  0
  7 29  1  0  0  0
  8  9  1  0  0  0
  8 22  1  0  0  0
  9 10  1  0  0  0
  9 27  2  0  0  0
 10 11  2  0  0  0
 10 15  1  0  0  0
 11 12  1  0  0  0
 11 96  1  0  0  0
 12 13  2  0  0  0
 12 97  1  0  0  0
 13 14  1  0  0  0
 13 31  1  0  0  0
 14 15  2  0  0  0
 14 98  1  0  0  0
 15 99  1  0  0  0
 16 17  2  0  0  0
 16 21  1  0  0  0
 16 31  1  0  0  0
 17 18  1  0  0  0
 17100  1  0  0  0
 18 19  2  0  0  0
 18101  1  0  0  0
 19 20  1  0  0  0
 19 24  1  0  0  0
 20 21  2  0  0  0
 20102  1  0  0  0
 21 23  1  0  0  0
 22 28  1  0  0  0
 22 32  2  0  0  0
 26 27  1  0  0  0
 28103  1  0  0  0
 28104  1  0  0  0
 29105  1  0  0  0
 29106  1  0  0  0
 33 34  1  0  0  0
 33 66  1  0  0  0
 33 70  2  0  0  0
 34 36  1  0  0  0
 34 59  1  0  0  0
 34107  1  0  0  0
 35 44  2  0  0  0
 35 45  1  0  0  0
 35 68  1  0  0  0
 36 56  1  0  0  0
 36108  1  0  0  0
 37 39  1  0  0  0
 37 47  1  0  0  0
 37 66  1  0  0  0
 37109  1  0  0  0
 38 43  2  0  0  0
 38 46  1  0  0  0
 38 47  1  0  0  0
 39 64  1  0  0  0
 39 67  2  0  0  0
 40 52  1  0  0  0
 40 53  2  0  0  0
 40 58  1  0  0  0
 41110  1  0  0  0
 41111  1  0  0  0
 41112  1  0  0  0
 41 48  1  0  0  0
 42 43  1  0  0  0
 42 66  1  0  0  0
 42113  1  0  0  0
 42114  1  0  0  0
 43 44  1  0  0  0
 44115  1  0  0  0
 45 46  2  0  0  0
 45116  1  0  0  0
 46117  1  0  0  0
 47118  1  0  0  0
 47119  1  0  0  0
 48 56  1  0  0  0
 48 65  1  0  0  0
 48120  1  0  0  0
 49 50  1  0  0  0
 49 53  1  0  0  0
 49 64  1  0  0  0
 49121  1  0  0  0
 50 51  1  0  0  0
 50122  1  0  0  0
 50123  1  0  0  0
 51 52  1  0  0  0
 51124  1  0  0  0
 51125  1  0  0  0
 52126  1  0  0  0
 52127  1  0  0  0
 53 54  1  0  0  0
 54 55  2  0  0  0
 54128  1  0  0  0
 55 57  1  0  0  0
 55129  1  0  0  0
 56 69  2  0  0  0
 57 58  2  0  0  0
 57130  1  0  0  0
 58131  1  0  0  0
 59 60  1  0  0  0
 59 61  1  0  0  0
 59 62  1  0  0  0
 60132  1  0  0  0
 60133  1  0  0  0
 60134  1  0  0  0
 61135  1  0  0  0
 61136  1  0  0  0
 61137  1  0  0  0
 62138  1  0  0  0
 62139  1  0  0  0
 62140  1  0  0  0
 63 65  1  0  0  0
 63141  1  0  0  0
 63142  1  0  0  0
 63143  1  0  0  0
 64144  1  0  0  0
 65145  1  0  0  0
 68 81  1  0  0  0
 71 72  2  0  0  0
 71 84  1  0  0  0
 71146  1  0  0  0
 72 77  1  0  0  0
 72 85  1  0  0  0
 73 82  1  0  0  0
 73 84  1  0  0  0
 73 85  2  0  0  0
 74147  1  0  0  0
 74148  1  0  0  0
 74149  1  0  0  0
 74 82  1  0  0  0
 75 82  1  0  0  0
 75150  1  0  0  0
 75151  1  0  0  0
 75152  1  0  0  0
 76153  1  0  0  0
 76154  1  0  0  0
 76155  1  0  0  0
 76 83  1  0  0  0
 77 86  1  0  0  0
 77156  1  0  0  0
 77157  1  0  0  0
 78 79  1  0  0  0
 78 80  1  0  0  0
 78158  1  0  0  0
 78159  1  0  0  0
 79 83  1  0  0  0
 79160  1  0  0  0
 79161  1  0  0  0
 80 84  1  0  0  0
 80162  1  0  0  0
 80163  1  0  0  0
 81 83  1  0  0  0
 81164  1  0  0  0
 81165  1  0  0  0
 82166  1  0  0  0
 83167  1  0  0  0
 85168  1  0  0  0
 86169  1  0  0  0
M  CHG  1  85   1
M  ISO  4   1 100  68 101  81 101  86 100
M  END
> <chiral flag>
0

> <version>
0

> <s_m_source_file>
/data/baiqing/PycharmProjects/Reinvent-master-3.2/result/LINK_invent/BTK/process_docking_weight1_custom_sum_contain_oxygen_bond_distance_aromatic_linkinvent_7_9_3/rearranged_h_0089.sdf

> <i_m_source_file_index>
95

> <r_mmod_Potential_Energy-OPLS-2005>
-116.802513122559

> <r_mmod_Stretch_Energy-OPLS-2005>
42.9416389465332

> <r_mmod_Bend_Energy-OPLS-2005>
129.588348388672

> <r_mmod_Torsional_Energy-OPLS-2005>
239.076431274414

> <r_mmod_Improper_Torsional_Energy-OPLS-2005>
4.17637062072754

> <r_mmod_Van_der_Waal_Energy-OPLS-2005>
145.770004272461

> <r_mmod_Electrostatic_Energy-OPLS-2005>
-285.724365234375

> <r_mmod_Solvation_Energy-OPLS-2005>
-410.420715332031

> <b_mmod_Minimization_Converged-OPLS-2005>
0

> <r_mmod_RMS_Derivative-OPLS-2005>
9.47376918792725

$$$$
97
                    3D
 Structure written by MMmdl.
163171  0  0  1  0            999 V2000
  -30.4771  -15.1598   20.4017 C   0  0  0  0  0  0
  -30.4467  -12.7344   19.5155 C   0  0  0  0  0  0
  -29.5255  -12.5860   18.2772 C   0  0  0  0  0  0
  -28.0636  -12.3419   18.6923 C   0  0  0  0  0  0
  -27.6279  -13.2709   19.8545 C   0  0  2  0  0  0
  -28.6815  -13.3184   20.9839 C   0  0  0  0  0  0
  -25.2429  -13.8249   20.5754 C   0  0  0  0  0  0
  -24.1775  -13.0428   20.9262 C   0  0  0  0  0  0
  -24.6430  -11.6930   20.8788 C   0  0  0  0  0  0
  -23.9123  -10.4288   21.0429 C   0  0  0  0  0  0
  -24.3650   -9.4197   21.9199 C   0  0  0  0  0  0
  -23.6315   -8.2238   22.0762 C   0  0  0  0  0  0
  -22.4294   -8.0293   21.3558 C   0  0  0  0  0  0
  -21.9965   -9.0275   20.4654 C   0  0  0  0  0  0
  -22.7298  -10.2142   20.3076 C   0  0  0  0  0  0
  -21.6852   -6.0755   22.5279 C   0  0  0  0  0  0
  -21.4017   -6.5656   23.8216 C   0  0  0  0  0  0
  -21.3668   -5.6804   24.9171 C   0  0  0  0  0  0
  -21.6043   -4.3069   24.7225 C   0  0  0  0  0  0
  -21.8824   -3.8164   23.4349 C   0  0  0  0  0  0
  -21.9203   -4.6981   22.3401 C   0  0  0  0  0  0
  -22.7778  -13.5184   21.1885 C   0  0  0  0  0  0
  -22.1672   -4.2159   21.0975 F   0  0  0  0  0  0
  -21.5634   -3.4542   25.7746 F   0  0  0  0  0  0
  -29.9196  -13.8502   20.3852 N   0  0  0  0  0  0
  -26.2894  -12.9523   20.3377 N   0  0  0  0  0  0
  -25.9377  -11.6632   20.5808 N   0  0  0  0  0  0
  -22.0452  -12.8157   22.0447 N   0  0  0  0  0  0
  -25.4021  -15.1950   20.4095 N   0  0  0  0  0  0
  -31.6577  -15.1538   20.0270 O   0  0  0  0  0  0
  -21.6643   -6.8888   21.4239 O   0  0  0  0  0  0
  -22.3434  -14.5478   20.6724 O   0  0  0  0  0  0
  -24.6556  -31.8308   23.1769 C   0  0  0  0  0  0
  -25.9268  -32.4630   23.8201 C   0  0  1  0  0  0
  -27.2297  -27.0136   20.1596 C   0  0  0  0  0  0
  -25.5972  -33.8443   24.2131 N   0  0  0  0  0  0
  -23.4676  -30.4426   21.5245 C   0  0  2  0  0  0
  -24.9218  -28.8427   20.1106 C   0  0  0  0  0  0
  -22.7632  -29.4479   22.4816 C   0  0  0  0  0  0
  -18.0314  -28.1396   22.8476 C   0  0  0  0  0  0
  -24.1496  -36.7217   23.2646 C   0  0  0  0  0  0
  -26.0309  -30.6618   21.3961 C   0  0  0  0  0  0
  -26.1014  -29.2604   20.7389 C   0  0  0  0  0  0
  -27.2493  -28.3627   20.7440 C   0  0  0  0  0  0
  -26.0245  -26.7300   19.4818 C   0  0  0  0  0  0
  -24.9015  -27.5946   19.4678 C   0  0  0  0  0  0
  -23.7023  -29.7586   20.1503 C   0  0  0  0  0  0
  -25.4135  -36.2996   24.0318 C   0  0  1  0  0  0
  -20.5949  -28.3743   23.1202 C   0  0  2  0  0  0
  -20.6798  -26.9426   22.5405 C   0  0  0  0  0  0
  -19.5775  -26.6376   21.5216 C   0  0  0  0  0  0
  -18.1957  -26.7938   22.1616 C   0  0  0  0  0  0
  -19.1578  -28.8890   23.2823 C   0  0  0  0  0  0
  -18.9486  -30.1485   23.8858 C   0  0  0  0  0  0
  -17.6474  -30.6594   24.0549 C   0  0  0  0  0  0
  -25.9092  -34.9375   23.5041 C   0  0  0  0  0  0
  -16.5373  -29.9073   23.6332 C   0  0  0  0  0  0
  -16.7299  -28.6489   23.0371 C   0  0  0  0  0  0
  -26.4561  -31.6544   25.0692 C   0  0  0  0  0  0
  -25.3730  -31.3730   26.1365 C   0  0  0  0  0  0
  -27.0454  -30.2933   24.6362 C   0  0  0  0  0  0
  -27.6061  -32.4341   25.7490 C   0  0  0  0  0  0
  -27.5588  -37.1758   24.8464 C   0  0  0  0  0  0
  -21.4318  -29.3036   22.3568 N   0  0  0  0  0  0
  -26.4288  -37.3723   23.9421 N   0  0  0  0  0  0
  -24.7389  -31.0031   22.0874 N   0  0  0  0  0  0
  -23.4206  -28.8054   23.3039 O   0  0  0  0  0  0
  -28.2628  -25.9691   20.2598 O   0  0  0  0  0  0
  -26.5683  -34.8892   22.4626 O   0  0  0  0  0  0
  -23.5650  -32.1243   23.6919 O   0  0  0  0  0  0
  -27.8233  -18.0243   21.9943 C   0  0  0  0  0  0
  -28.4342  -19.4505   21.7602 C   0  0  0  0  0  0
  -28.3344  -16.7880   21.1647 C   0  0  0  0  0  0
  -29.9999  -18.2594   20.0535 C   0  0  0  0  0  0
  -29.0045  -19.6551   20.3565 C   0  0  2  0  0  0
  -29.8534  -16.7280   20.8667 C   0  0  2  0  0  0
  -30.6320  -16.9203   22.1938 C   0  0  0  0  0  0
  -30.4676  -24.3539   22.0566 C   0  0  0  0  0  0
  -29.0343  -21.3377   19.7962 C   0  0  0  0  0  0
  -30.3446  -23.3034   20.9399 C   0  0  0  0  0  0
  -28.1308  -24.3983   19.9032 C   0  0  0  0  0  0
  -28.8979  -22.9361   20.5332 C   0  0  1  0  0  0
  -31.4682  -12.9166   19.1770 H   0  0  0  0  0  0
  -30.5062  -11.7973   20.0714 H   0  0  0  0  0  0
  -29.8756  -11.7771   17.6342 H   0  0  0  0  0  0
  -29.5855  -13.4962   17.6795 H   0  0  0  0  0  0
  -27.9720  -11.2999   19.0015 H   0  0  0  0  0  0
  -27.3940  -12.4663   17.8408 H   0  0  0  0  0  0
  -27.5798  -14.2717   19.4248 H   0  0  0  0  0  0
  -28.8366  -12.3209   21.3970 H   0  0  0  0  0  0
  -28.3592  -13.9058   21.8381 H   0  0  0  0  0  0
  -25.2794   -9.5662   22.4754 H   0  0  0  0  0  0
  -24.0049   -7.4619   22.7470 H   0  0  0  0  0  0
  -21.0922   -8.8806   19.8925 H   0  0  0  0  0  0
  -22.3799  -10.9688   19.6178 H   0  0  0  0  0  0
  -21.2002   -7.6160   23.9714 H   0  0  0  0  0  0
  -21.1481   -6.0533   25.9076 H   0  0  0  0  0  0
  -22.0599   -2.7626   23.2826 H   0  0  0  0  0  0
  -22.4126  -11.9850   22.4838 H   0  0  0  0  0  0
  -21.1050  -13.1115   22.2634 H   0  0  0  0  0  0
  -24.6384  -15.8521   20.5228 H   0  0  0  0  0  0
  -26.2597  -15.6312   20.0975 H   0  0  0  0  0  0
  -26.7343  -32.5188   23.0921 H   0  0  0  0  0  0
  -25.0102  -33.9521   25.0275 H   0  0  0  0  0  0
  -22.7774  -31.2718   21.3590 H   0  0  0  0  0  0
  -23.3793  -35.9509   23.3269 H   0  0  0  0  0  0
  -24.3568  -36.8898   22.2064 H   0  0  0  0  0  0
  -23.7218  -37.6385   23.6718 H   0  0  0  0  0  0
  -26.2053  -31.4102   20.6207 H   0  0  0  0  0  0
  -26.8949  -30.7149   22.0474 H   0  0  0  0  0  0
  -28.1433  -28.6754   21.2644 H   0  0  0  0  0  0
  -25.9174  -25.7802   18.9780 H   0  0  0  0  0  0
  -24.0020  -27.2707   18.9597 H   0  0  0  0  0  0
  -23.8441  -30.5261   19.3894 H   0  0  0  0  0  0
  -22.8147  -29.2028   19.8411 H   0  0  0  0  0  0
  -25.1330  -36.1813   25.0815 H   0  0  0  0  0  0
  -21.0020  -28.3345   24.1331 H   0  0  0  0  0  0
  -20.5694  -26.2349   23.3637 H   0  0  0  0  0  0
  -21.6659  -26.7405   22.1212 H   0  0  0  0  0  0
  -19.6924  -25.6278   21.1268 H   0  0  0  0  0  0
  -19.6713  -27.3162   20.6738 H   0  0  0  0  0  0
  -17.4224  -26.6698   21.4014 H   0  0  0  0  0  0
  -18.0320  -26.0085   22.9014 H   0  0  0  0  0  0
  -19.7963  -30.7309   24.2210 H   0  0  0  0  0  0
  -17.5029  -31.6269   24.5162 H   0  0  0  0  0  0
  -15.5371  -30.2954   23.7690 H   0  0  0  0  0  0
  -15.8705  -28.0784   22.7112 H   0  0  0  0  0  0
  -24.5900  -30.7109   25.7663 H   0  0  0  0  0  0
  -24.8914  -32.2892   26.4776 H   0  0  0  0  0  0
  -25.7976  -30.8887   27.0166 H   0  0  0  0  0  0
  -26.3097  -29.6619   24.1367 H   0  0  0  0  0  0
  -27.4037  -29.7273   25.4974 H   0  0  0  0  0  0
  -27.9020  -30.4158   23.9733 H   0  0  0  0  0  0
  -27.2638  -33.3662   26.2001 H   0  0  0  0  0  0
  -28.3893  -32.6891   25.0339 H   0  0  0  0  0  0
  -28.0725  -31.8525   26.5452 H   0  0  0  0  0  0
  -28.2580  -38.0084   24.7553 H   0  0  0  0  0  0
  -28.1116  -36.2609   24.6258 H   0  0  0  0  0  0
  -27.2287  -37.1360   25.8860 H   0  0  0  0  0  0
  -20.9576  -29.8704   21.6689 H   0  0  0  0  0  0
  -26.0156  -38.2790   24.1438 H   0  0  0  0  0  0
  -26.7467  -18.0889   21.8313 H   0  0  0  0  0  0
  -27.9178  -17.7918   23.0550 H   0  0  0  0  0  0
  -29.2212  -19.6542   22.4858 H   0  0  0  0  0  0
  -27.6675  -20.2008   21.9609 H   0  0  0  0  0  0
  -27.8201  -16.7848   20.2035 H   0  0  0  0  0  0
  -27.9923  -15.9024   21.6838 H   0  0  0  0  0  0
  -31.0364  -18.5782   20.1628 H   0  0  0  0  0  0
  -29.9102  -18.0460   18.9867 H   0  0  0  0  0  0
  -28.1497  -19.3411   19.7537 H   0  0  0  0  0  0
  -30.3368  -17.8021   22.7531 H   0  0  0  0  0  0
  -31.7004  -17.0295   22.0038 H   0  0  0  0  0  0
  -30.5078  -16.0668   22.8621 H   0  0  0  0  0  0
  -31.4959  -24.4147   22.4123 H   0  0  0  0  0  0
  -29.8406  -24.1053   22.9117 H   0  0  0  0  0  0
  -30.1935  -25.3510   21.7175 H   0  0  0  0  0  0
  -28.2174  -21.3607   19.0750 H   0  0  0  0  0  0
  -29.9057  -21.3905   19.1412 H   0  0  0  0  0  0
  -30.8531  -22.4021   21.2850 H   0  0  0  0  0  0
  -30.9030  -23.6397   20.0647 H   0  0  0  0  0  0
  -27.0682  -24.1833   20.0034 H   0  0  0  0  0  0
  -28.3014  -24.3627   18.8272 H   0  0  0  0  0  0
  -28.3630  -22.7488   21.4646 H   0  0  0  0  0  0
  1 25  1  0  0  0
  1 30  2  0  0  0
  1 76  1  0  0  0
  2  3  1  0  0  0
  2 25  1  0  0  0
  2 83  1  0  0  0
  2 84  1  0  0  0
  3  4  1  0  0  0
  3 85  1  0  0  0
  3 86  1  0  0  0
  4  5  1  0  0  0
  4 87  1  0  0  0
  4 88  1  0  0  0
  5  6  1  0  0  0
  5 26  1  0  0  0
  5 89  1  0  0  0
  6 25  1  0  0  0
  6 90  1  0  0  0
  6 91  1  0  0  0
  7  8  2  0  0  0
  7 26  1  0  0  0
  7 29  1  0  0  0
  8  9  1  0  0  0
  8 22  1  0  0  0
  9 10  1  0  0  0
  9 27  2  0  0  0
 10 11  2  0  0  0
 10 15  1  0  0  0
 11 12  1  0  0  0
 11 92  1  0  0  0
 12 13  2  0  0  0
 12 93  1  0  0  0
 13 14  1  0  0  0
 13 31  1  0  0  0
 14 15  2  0  0  0
 14 94  1  0  0  0
 15 95  1  0  0  0
 16 17  2  0  0  0
 16 21  1  0  0  0
 16 31  1  0  0  0
 17 18  1  0  0  0
 17 96  1  0  0  0
 18 19  2  0  0  0
 18 97  1  0  0  0
 19 20  1  0  0  0
 19 24  1  0  0  0
 20 21  2  0  0  0
 20 98  1  0  0  0
 21 23  1  0  0  0
 22 28  1  0  0  0
 22 32  2  0  0  0
 26 27  1  0  0  0
 28 99  1  0  0  0
 28100  1  0  0  0
 29101  1  0  0  0
 29102  1  0  0  0
 33 34  1  0  0  0
 33 66  1  0  0  0
 33 70  2  0  0  0
 34 36  1  0  0  0
 34 59  1  0  0  0
 34103  1  0  0  0
 35 44  2  0  0  0
 35 45  1  0  0  0
 35 68  1  0  0  0
 36 56  1  0  0  0
 36104  1  0  0  0
 37 39  1  0  0  0
 37 47  1  0  0  0
 37 66  1  0  0  0
 37105  1  0  0  0
 38 43  2  0  0  0
 38 46  1  0  0  0
 38 47  1  0  0  0
 39 64  1  0  0  0
 39 67  2  0  0  0
 40 52  1  0  0  0
 40 53  2  0  0  0
 40 58  1  0  0  0
 41106  1  0  0  0
 41107  1  0  0  0
 41108  1  0  0  0
 41 48  1  0  0  0
 42 43  1  0  0  0
 42 66  1  0  0  0
 42109  1  0  0  0
 42110  1  0  0  0
 43 44  1  0  0  0
 44111  1  0  0  0
 45 46  2  0  0  0
 45112  1  0  0  0
 46113  1  0  0  0
 47114  1  0  0  0
 47115  1  0  0  0
 48 56  1  0  0  0
 48 65  1  0  0  0
 48116  1  0  0  0
 49 50  1  0  0  0
 49 53  1  0  0  0
 49 64  1  0  0  0
 49117  1  0  0  0
 50 51  1  0  0  0
 50118  1  0  0  0
 50119  1  0  0  0
 51 52  1  0  0  0
 51120  1  0  0  0
 51121  1  0  0  0
 52122  1  0  0  0
 52123  1  0  0  0
 53 54  1  0  0  0
 54 55  2  0  0  0
 54124  1  0  0  0
 55 57  1  0  0  0
 55125  1  0  0  0
 56 69  2  0  0  0
 57 58  2  0  0  0
 57126  1  0  0  0
 58127  1  0  0  0
 59 60  1  0  0  0
 59 61  1  0  0  0
 59 62  1  0  0  0
 60128  1  0  0  0
 60129  1  0  0  0
 60130  1  0  0  0
 61131  1  0  0  0
 61132  1  0  0  0
 61133  1  0  0  0
 62134  1  0  0  0
 62135  1  0  0  0
 62136  1  0  0  0
 63 65  1  0  0  0
 63137  1  0  0  0
 63138  1  0  0  0
 63139  1  0  0  0
 64140  1  0  0  0
 65141  1  0  0  0
 68 81  1  0  0  0
 71 72  1  0  0  0
 71 73  1  0  0  0
 71142  1  0  0  0
 71143  1  0  0  0
 72 75  1  0  0  0
 72144  1  0  0  0
 72145  1  0  0  0
 73 76  1  0  0  0
 73146  1  0  0  0
 73147  1  0  0  0
 74 75  1  0  0  0
 74 76  1  0  0  0
 74148  1  0  0  0
 74149  1  0  0  0
 75 79  1  0  0  0
 75150  1  0  0  0
 76 77  1  0  0  0
 77151  1  0  0  0
 77152  1  0  0  0
 77153  1  0  0  0
 78 80  1  0  0  0
 78154  1  0  0  0
 78155  1  0  0  0
 78156  1  0  0  0
 79157  1  0  0  0
 79158  1  0  0  0
 79 82  1  0  0  0
 80 82  1  0  0  0
 80159  1  0  0  0
 80160  1  0  0  0
 81 82  1  0  0  0
 81161  1  0  0  0
 81162  1  0  0  0
 82163  1  0  0  0
M  ISO  4   1 100  68 101  76 100  81 101
M  END
> <chiral flag>
0

> <version>
0

> <s_m_source_file>
/data/baiqing/PycharmProjects/Reinvent-master-3.2/result/LINK_invent/BTK/process_docking_weight1_custom_sum_contain_oxygen_bond_distance_aromatic_linkinvent_7_9_3/rearranged_h_0089.sdf

> <i_m_source_file_index>
96

> <r_mmod_Potential_Energy-OPLS-2005>
1250.99987792969

> <r_mmod_Stretch_Energy-OPLS-2005>
519.426574707031

> <r_mmod_Bend_Energy-OPLS-2005>
462.084014892578

> <r_mmod_Torsional_Energy-OPLS-2005>
270.747924804688

> <r_mmod_Improper_Torsional_Energy-OPLS-2005>
1.65560328960419

> <r_mmod_Van_der_Waal_Energy-OPLS-2005>
120.544929504395

> <r_mmod_Electrostatic_Energy-OPLS-2005>
-282.688323974609

> <r_mmod_Solvation_Energy-OPLS-2005>
-172.778732299805

> <b_mmod_Minimization_Converged-OPLS-2005>
0

> <r_mmod_RMS_Derivative-OPLS-2005>
3.2788941860199

$$$$
